1a_Ghoteimi_2023
     RDKit          3D

 40 43  0  0  0  0  0  0  0  0999 V2000
  130.5920  132.1180   55.5340 C   0  0  0  0  0  0  0  0  0  0  0  0
  129.8370  131.5870   56.7560 C   0  0  0  0  0  0  0  0  0  0  0  0
  128.4370  131.6930   56.5270 O   0  0  0  0  0  0  0  0  0  0  0  0
  127.7730  130.7590   55.7990 C   0  0  0  0  0  0  0  0  0  0  0  0
  127.5630  130.8640   54.5860 O   0  0  0  0  0  0  0  0  0  0  0  0
  127.3220  129.5820   56.6150 C   0  0  0  0  0  0  0  0  0  0  0  0
  128.2060  128.5600   56.9940 C   0  0  0  0  0  0  0  0  0  0  0  0
  127.7580  127.4790   57.7490 C   0  0  0  0  0  0  0  0  0  0  0  0
  126.4140  127.4030   58.1420 C   0  0  0  0  0  0  0  0  0  0  0  0
  125.8540  126.3560   58.9000 N   0  0  0  0  0  0  0  0  0  0  0  0
  125.5620  125.0870   58.5390 C   0  0  0  0  0  0  0  0  0  0  0  0
  125.7600  124.5950   57.4290 O   0  0  0  0  0  0  0  0  0  0  0  0
  124.9400  124.2200   59.6340 C   0  0  0  0  0  0  0  0  0  0  0  0
  126.2080  123.3530   60.6060 S   0  0  0  0  0  0  0  0  0  0  0  0
  127.1010  124.6120   61.4880 C   0  0  0  0  0  0  0  0  0  0  0  0
  126.4560  125.8010   61.5530 N   0  0  0  0  0  0  0  0  0  0  0  0
  127.0300  126.8460   62.2050 C   0  0  0  0  0  0  0  0  0  0  0  0
  126.2420  128.1240   62.2520 C   0  0  0  0  0  0  0  0  0  0  0  0
  125.9250  128.7420   63.4730 C   0  0  0  0  0  0  0  0  0  0  0  0
  125.1960  129.9260   63.5120 C   0  0  0  0  0  0  0  0  0  0  0  0
  124.7590  130.5300   62.3360 C   0  0  0  0  0  0  0  0  0  0  0  0
  124.0440  131.7050   62.4700 O   0  0  0  0  0  0  0  0  0  0  0  0
  124.5580  132.9000   61.8930 C   0  0  0  0  0  0  0  0  0  0  0  0
  125.0640  129.9240   61.1090 C   0  0  0  0  0  0  0  0  0  0  0  0
  125.7930  128.7390   61.0730 C   0  0  0  0  0  0  0  0  0  0  0  0
  128.2850  126.7060   62.8090 C   0  0  0  0  0  0  0  0  0  0  0  0
  128.9830  125.4940   62.7340 C   0  0  0  0  0  0  0  0  0  0  0  0
  130.3320  125.4270   63.3740 C   0  0  0  0  0  0  0  0  0  0  0  0
  130.4780  125.5890   64.7560 C   0  0  0  0  0  0  0  0  0  0  0  0
  131.7360  125.5110   65.3470 C   0  0  0  0  0  0  0  0  0  0  0  0
  132.8690  125.2610   64.5730 C   0  0  0  0  0  0  0  0  0  0  0  0
  134.0730  125.2000   65.2460 O   0  0  0  0  0  0  0  0  0  0  0  0
  134.0880  125.3620   66.6600 C   0  0  0  0  0  0  0  0  0  0  0  0
  132.7250  125.0890   63.1870 C   0  0  0  0  0  0  0  0  0  0  0  0
  131.4660  125.1690   62.5980 C   0  0  0  0  0  0  0  0  0  0  0  0
  128.3770  124.4080   62.0570 C   0  0  0  0  0  0  0  0  0  0  0  0
  129.0520  123.1100   61.9580 C   0  0  0  0  0  0  0  0  0  0  0  0
  129.5850  122.0860   61.8810 N   0  0  0  0  0  0  0  0  0  0  0  0
  125.5320  128.4150   57.7630 C   0  0  0  0  0  0  0  0  0  0  0  0
  125.9810  129.4960   57.0090 C   0  0  0  0  0  0  0  0  0  0  0  0
  1  2  1  0
  2  3  1  0
  3  4  1  0
  4  5  2  0
  4  6  1  0
  6  7  2  0
  7  8  1  0
  8  9  2  0
  9 10  1  0
 10 11  1  0
 11 12  2  0
 11 13  1  0
 13 14  1  0
 14 15  1  0
 15 16  2  0
 16 17  1  0
 17 18  1  0
 18 19  2  0
 19 20  1  0
 20 21  2  0
 21 22  1  0
 22 23  1  0
 21 24  1  0
 24 25  2  0
 17 26  2  0
 26 27  1  0
 27 28  1  0
 28 29  2  0
 29 30  1  0
 30 31  2  0
 31 32  1  0
 32 33  1  0
 31 34  1  0
 34 35  2  0
 27 36  2  0
 36 37  1  0
 37 38  3  0
  9 39  1  0
 39 40  2  0
 40  6  1  0
 36 15  1  0
 25 18  1  0
 35 28  1  0
M  END
>  <Binding energies>  (1) 
[-9.26]

>  <Ligand effiencies>  (1) 
[-0.22585365853658537]

>  <Interactions>  (1) 
["H-B:ALA:541:N:9863, V-B:PRO:540:CB:9857, H-B:TYR:531:OH:9767, V-B:TYR:531:CZ:9766, H-A:TYR:484:OH:4347, H-A:GLY:454:N:4049, V-A:ILE:538:CA:4860, V-A:ILE:538:CG2:4863, V-A:TYR:539:CZ:4877, V-A:TYR:539:CE1:4875, V-A:ILE:538:CB:4862, V-B:ASP:366:CG:8184, V-B:TYR:531:CE1:9764, H-B:LYS:534:NZ:9795, H-B:GLY:454:N:9021, V-B:ASP:366:CB:8183, V-B:ARG:545:CZ:9898, V-B:ILE:369:CD1:8210, H-B:ARG:545:NH2:9900, H-A:TYR:539:OH:4878, H-A:ARG:545:NH2:4928, V-A:TYR:484:CZ:4346, V-A:ARG:545:CD:4923, V-B:GLU:543:CD:9880, H-A:ARG:545:NE:4924, V-A:ARG:545:CG:4922, V-A:ARG:545:CZ:4926, H-A:ARG:545:NH1:4927, V-B:LEU:475:CD1:9229, V-B:ILE:369:CG2:8208, H-B:ASP:366:OD1:8185"]

$$$$
1b_Ghoteimi_2023
     RDKit          3D

 34 37  0  0  0  0  0  0  0  0999 V2000
  133.9240  125.4220   66.2800 C   0  0  0  0  0  0  0  0  0  0  0  0
  133.9680  125.0010   64.9220 O   0  0  0  0  0  0  0  0  0  0  0  0
  132.9310  125.3460   64.0770 C   0  0  0  0  0  0  0  0  0  0  0  0
  133.0980  125.0410   62.7270 C   0  0  0  0  0  0  0  0  0  0  0  0
  132.1070  125.3530   61.8010 C   0  0  0  0  0  0  0  0  0  0  0  0
  130.9150  125.9760   62.1970 C   0  0  0  0  0  0  0  0  0  0  0  0
  129.8470  126.3130   61.1940 C   0  0  0  0  0  0  0  0  0  0  0  0
  129.2240  125.3500   60.3930 C   0  0  0  0  0  0  0  0  0  0  0  0
  128.2320  125.7160   59.4750 C   0  0  0  0  0  0  0  0  0  0  0  0
  127.6130  124.6360   58.6500 C   0  0  0  0  0  0  0  0  0  0  0  0
  128.4190  123.7410   57.9410 C   0  0  0  0  0  0  0  0  0  0  0  0
  127.8480  122.7380   57.1630 C   0  0  0  0  0  0  0  0  0  0  0  0
  126.4610  122.6110   57.0760 C   0  0  0  0  0  0  0  0  0  0  0  0
  125.9830  121.5870   56.2810 O   0  0  0  0  0  0  0  0  0  0  0  0
  125.1220  121.8990   55.1920 C   0  0  0  0  0  0  0  0  0  0  0  0
  125.6480  123.5120   57.7800 C   0  0  0  0  0  0  0  0  0  0  0  0
  126.2230  124.5150   58.5560 C   0  0  0  0  0  0  0  0  0  0  0  0
  127.8660  127.0820   59.3870 C   0  0  0  0  0  0  0  0  0  0  0  0
  126.7670  127.5030   58.5120 C   0  0  0  0  0  0  0  0  0  0  0  0
  125.9000  127.8340   57.8210 N   0  0  0  0  0  0  0  0  0  0  0  0
  128.5490  128.0060   60.2090 C   0  0  0  0  0  0  0  0  0  0  0  0
  128.2290  129.7580   60.2260 S   0  0  0  0  0  0  0  0  0  0  0  0
  129.5950  130.5860   59.3440 C   0  0  0  0  0  0  0  0  0  0  0  0
  129.3880  130.7490   57.8320 C   0  0  0  0  0  0  0  0  0  0  0  0
  130.0060  131.6090   57.2000 O   0  0  0  0  0  0  0  0  0  0  0  0
  128.4960  129.8900   57.2900 N   0  0  0  0  0  0  0  0  0  0  0  0
  128.1130  129.8050   55.9560 C   0  0  0  0  0  0  0  0  0  0  0  0
  128.5330  128.7830   55.1070 C   0  0  0  0  0  0  0  0  0  0  0  0
  127.9430  129.0590   53.8950 C   0  0  0  0  0  0  0  0  0  0  0  0
  127.2030  130.1880   54.0100 O   0  0  0  0  0  0  0  0  0  0  0  0
  127.3190  130.6520   55.3210 N   0  0  0  0  0  0  0  0  0  0  0  0
  129.4960  127.6220   61.0990 N   0  0  0  0  0  0  0  0  0  0  0  0
  130.7580  126.2800   63.5590 C   0  0  0  0  0  0  0  0  0  0  0  0
  131.7470  125.9710   64.4880 C   0  0  0  0  0  0  0  0  0  0  0  0
  1  2  1  0
  2  3  1  0
  3  4  2  0
  4  5  1  0
  5  6  2  0
  6  7  1  0
  7  8  2  0
  8  9  1  0
  9 10  1  0
 10 11  2  0
 11 12  1  0
 12 13  2  0
 13 14  1  0
 14 15  1  0
 13 16  1  0
 16 17  2  0
  9 18  2  0
 18 19  1  0
 19 20  3  0
 18 21  1  0
 21 22  1  0
 22 23  1  0
 23 24  1  0
 24 25  2  0
 24 26  1  0
 26 27  1  0
 27 28  1  0
 28 29  2  0
 29 30  1  0
 30 31  1  0
 21 32  2  0
  6 33  1  0
 33 34  2  0
 34  3  1  0
 32  7  1  0
 17 10  1  0
 31 27  2  0
M  END
>  <Binding energies>  (2) 
[-8.21]

>  <Ligand effiencies>  (2) 
[-0.2345714285714286]

>  <Interactions>  (2) 
["V-B:PRO:540:CB:9857, H-B:TYR:531:OH:9767, V-B:MET:535:CE:9807, V-B:PRO:540:N:9856, V-B:PRO:540:CA:9855, H-B:TYR:539:N:9842, V-B:MET:535:CG:9805, V-B:TYR:539:C:9839, V-B:TYR:531:CZ:9766, V-B:LEU:363:CD1:8160, H-A:TYR:484:OH:4347, V-A:ASP:366:CG:3212, H-A:GLY:454:N:4049, V-B:TYR:531:CE1:9764, H-B:LYS:534:NZ:9795, V-A:GLU:543:CD:4908, H-A:TYR:539:OH:4878, H-A:ARG:545:NH2:4928, V-A:ARG:545:CD:4923, H-A:ARG:545:NE:4924, V-A:ARG:545:CG:4922, V-A:ARG:545:CZ:4926, H-A:ARG:545:NH1:4927, V-B:LYS:534:CE:9794, V-B:LYS:534:CD:9793, V-B:ILE:538:CA:9832, V-B:ILE:538:CG1:9836, V-B:ILE:538:CG2:9835, V-B:ILE:538:CB:9834"]

$$$$
1c_Ghoteimi_2023
     RDKit          3D

 34 37  0  0  0  0  0  0  0  0999 V2000
  133.9980  125.3720   66.6220 C   0  0  0  0  0  0  0  0  0  0  0  0
  133.9760  124.9020   65.2790 O   0  0  0  0  0  0  0  0  0  0  0  0
  132.8910  125.2020   64.4760 C   0  0  0  0  0  0  0  0  0  0  0  0
  133.1000  125.1590   63.1010 C   0  0  0  0  0  0  0  0  0  0  0  0
  132.0640  125.4490   62.2170 C   0  0  0  0  0  0  0  0  0  0  0  0
  130.7860  125.7920   62.6850 C   0  0  0  0  0  0  0  0  0  0  0  0
  129.6670  126.1110   61.7360 C   0  0  0  0  0  0  0  0  0  0  0  0
  129.1990  125.1980   60.7850 C   0  0  0  0  0  0  0  0  0  0  0  0
  128.1340  125.5310   59.9390 C   0  0  0  0  0  0  0  0  0  0  0  0
  127.6420  124.4840   58.9950 C   0  0  0  0  0  0  0  0  0  0  0  0
  126.2770  124.2050   58.8910 C   0  0  0  0  0  0  0  0  0  0  0  0
  125.8220  123.2140   58.0260 C   0  0  0  0  0  0  0  0  0  0  0  0
  126.7230  122.4820   57.2520 C   0  0  0  0  0  0  0  0  0  0  0  0
  126.1820  121.5190   56.4220 O   0  0  0  0  0  0  0  0  0  0  0  0
  125.3410  121.9220   55.3460 C   0  0  0  0  0  0  0  0  0  0  0  0
  128.0950  122.7550   57.3590 C   0  0  0  0  0  0  0  0  0  0  0  0
  128.5470  123.7470   58.2250 C   0  0  0  0  0  0  0  0  0  0  0  0
  127.5640  126.8210   60.0500 C   0  0  0  0  0  0  0  0  0  0  0  0
  126.4680  127.2430   59.1700 C   0  0  0  0  0  0  0  0  0  0  0  0
  125.6040  127.5740   58.4760 N   0  0  0  0  0  0  0  0  0  0  0  0
  128.0730  127.6850   61.0420 C   0  0  0  0  0  0  0  0  0  0  0  0
  127.3430  129.2670   61.4050 S   0  0  0  0  0  0  0  0  0  0  0  0
  128.5460  130.0970   62.4930 C   0  0  0  0  0  0  0  0  0  0  0  0
  129.6720  130.7710   61.7020 C   0  0  0  0  0  0  0  0  0  0  0  0
  129.8580  131.9830   61.8220 O   0  0  0  0  0  0  0  0  0  0  0  0
  130.4210  129.9410   60.9440 N   0  0  0  0  0  0  0  0  0  0  0  0
  131.5810  130.2650   60.2590 C   0  0  0  0  0  0  0  0  0  0  0  0
  131.7960  130.2100   58.9620 N   0  0  0  0  0  0  0  0  0  0  0  0
  133.0070  130.6320   58.6540 C   0  0  0  0  0  0  0  0  0  0  0  0
  133.8040  131.0440   59.7170 C   0  0  0  0  0  0  0  0  0  0  0  0
  132.9110  130.8620   61.1980 S   0  0  0  0  0  0  0  0  0  0  0  0
  129.0890  127.3340   61.8650 N   0  0  0  0  0  0  0  0  0  0  0  0
  130.5850  125.8260   64.0730 C   0  0  0  0  0  0  0  0  0  0  0  0
  131.6180  125.5380   64.9590 C   0  0  0  0  0  0  0  0  0  0  0  0
  1  2  1  0
  2  3  1  0
  3  4  2  0
  4  5  1  0
  5  6  2  0
  6  7  1  0
  7  8  2  0
  8  9  1  0
  9 10  1  0
 10 11  2  0
 11 12  1  0
 12 13  2  0
 13 14  1  0
 14 15  1  0
 13 16  1  0
 16 17  2  0
  9 18  2  0
 18 19  1  0
 19 20  3  0
 18 21  1  0
 21 22  1  0
 22 23  1  0
 23 24  1  0
 24 25  2  0
 24 26  1  0
 26 27  1  0
 27 28  2  0
 28 29  1  0
 29 30  2  0
 30 31  1  0
 21 32  2  0
  6 33  1  0
 33 34  2  0
 34  3  1  0
 32  7  1  0
 17 10  1  0
 31 27  1  0
M  END
>  <Binding energies>  (3) 
[-8.53]

>  <Ligand effiencies>  (3) 
[-0.2437142857142857]

>  <Interactions>  (3) 
["V-B:PRO:540:CB:9857, H-B:TYR:531:OH:9767, V-B:MET:535:CE:9807, V-B:PRO:540:N:9856, V-B:PRO:540:CA:9855, H-B:TYR:539:N:9842, V-B:TYR:539:CE2:9848, V-B:MET:535:CG:9805, V-B:TYR:539:C:9839, V-B:LEU:363:CD1:8160, H-A:TYR:484:OH:4347, V-A:ASP:366:CG:3212, H-A:GLY:454:N:4049, V-A:ASP:366:CB:3211, V-A:PRO:540:CA:4883, V-A:PRO:540:CB:4885, V-B:ASP:366:CG:8184, V-B:ASP:366:CB:8183, V-A:LEU:363:CD1:3188, V-A:GLU:543:CD:4908, H-A:ASP:366:OD2:3214, V-B:TYR:539:CZ:9849, V-A:TYR:484:CZ:4346, V-A:ARG:545:CD:4923, H-A:ARG:545:NE:4924, V-A:ARG:545:CG:4922, V-A:ARG:545:CZ:4926, H-A:ALA:541:N:4891, V-A:LEU:363:CA:3184, V-A:LEU:363:CB:3186, V-B:ILE:538:CA:9832, V-B:ILE:538:CG1:9836, V-B:ILE:538:CG2:9835, V-B:ILE:538:CB:9834, H-A:GLU:543:OE2:4910, V-A:ASN:362:CB:3175, V-A:ASN:362:C:3171"]

$$$$
1d_Ghoteimi_2023
     RDKit          3D

 30 32  0  0  0  0  0  0  0  0999 V2000
  124.9100  122.0010   54.7200 C   0  0  0  0  0  0  0  0  0  0  0  0
  125.7680  121.3110   55.6160 O   0  0  0  0  0  0  0  0  0  0  0  0
  126.4030  121.9750   56.6040 C   0  0  0  0  0  0  0  0  0  0  0  0
  127.4830  121.6680   57.1110 O   0  0  0  0  0  0  0  0  0  0  0  0
  125.6260  123.2030   57.0700 C   0  0  0  0  0  0  0  0  0  0  0  0
  125.9240  123.3950   58.8530 S   0  0  0  0  0  0  0  0  0  0  0  0
  127.3340  124.4670   59.0320 C   0  0  0  0  0  0  0  0  0  0  0  0
  127.3590  125.4880   58.1430 N   0  0  0  0  0  0  0  0  0  0  0  0
  128.3820  126.3800   58.1660 C   0  0  0  0  0  0  0  0  0  0  0  0
  128.3330  127.4850   57.1510 C   0  0  0  0  0  0  0  0  0  0  0  0
  127.5430  128.6280   57.3560 C   0  0  0  0  0  0  0  0  0  0  0  0
  127.4930  129.6480   56.4120 C   0  0  0  0  0  0  0  0  0  0  0  0
  128.2290  129.5600   55.2330 C   0  0  0  0  0  0  0  0  0  0  0  0
  128.1160  130.6180   54.3510 O   0  0  0  0  0  0  0  0  0  0  0  0
  129.0710  131.6720   54.4070 C   0  0  0  0  0  0  0  0  0  0  0  0
  129.0220  128.4250   55.0130 C   0  0  0  0  0  0  0  0  0  0  0  0
  129.0700  127.4070   55.9610 C   0  0  0  0  0  0  0  0  0  0  0  0
  129.4110  126.2610   59.1090 C   0  0  0  0  0  0  0  0  0  0  0  0
  129.4170  125.2060   60.0300 C   0  0  0  0  0  0  0  0  0  0  0  0
  130.5490  125.1360   61.0030 C   0  0  0  0  0  0  0  0  0  0  0  0
  130.4010  125.6530   62.2940 C   0  0  0  0  0  0  0  0  0  0  0  0
  131.4510  125.5910   63.2060 C   0  0  0  0  0  0  0  0  0  0  0  0
  132.6660  125.0070   62.8490 C   0  0  0  0  0  0  0  0  0  0  0  0
  133.6530  124.9960   63.8160 O   0  0  0  0  0  0  0  0  0  0  0  0
  133.3180  125.3370   65.1560 C   0  0  0  0  0  0  0  0  0  0  0  0
  132.8150  124.4750   61.5590 C   0  0  0  0  0  0  0  0  0  0  0  0
  131.7630  124.5380   60.6500 C   0  0  0  0  0  0  0  0  0  0  0  0
  128.3600  124.2640   59.9830 C   0  0  0  0  0  0  0  0  0  0  0  0
  128.3700  123.0840   60.8530 C   0  0  0  0  0  0  0  0  0  0  0  0
  128.3800  122.1530   61.5390 N   0  0  0  0  0  0  0  0  0  0  0  0
  1  2  1  0
  2  3  1  0
  3  4  2  0
  3  5  1  0
  5  6  1  0
  6  7  1  0
  7  8  2  0
  8  9  1  0
  9 10  1  0
 10 11  2  0
 11 12  1  0
 12 13  2  0
 13 14  1  0
 14 15  1  0
 13 16  1  0
 16 17  2  0
  9 18  2  0
 18 19  1  0
 19 20  1  0
 20 21  2  0
 21 22  1  0
 22 23  2  0
 23 24  1  0
 24 25  1  0
 23 26  1  0
 26 27  2  0
 19 28  2  0
 28 29  1  0
 29 30  3  0
 28  7  1  0
 17 10  1  0
 27 20  1  0
M  END
>  <Binding energies>  (4) 
[-7.88]

>  <Ligand effiencies>  (4) 
[-0.26266666666666666]

>  <Interactions>  (4) 
["H-B:ALA:541:N:9863, V-B:PRO:540:CB:9857, H-B:TYR:531:OH:9767, V-B:MET:535:CE:9807, V-B:PRO:540:N:9856, V-B:PRO:540:CA:9855, H-B:TYR:539:N:9842, V-B:MET:535:CG:9805, V-B:TYR:539:C:9839, V-B:TYR:531:CE2:9765, V-B:LEU:363:CD1:8160, V-A:ASP:366:CG:3212, H-A:GLY:454:N:4049, V-B:PRO:540:CD:9859, V-A:ILE:538:CA:4860, V-A:ILE:538:CG2:4863, V-A:TYR:539:CE1:4875, V-A:ILE:538:CB:4862, H-B:LYS:534:NZ:9795, H-A:ARG:545:NH2:4928, V-A:ARG:545:CZ:4926, H-A:ARG:545:NH1:4927, V-B:ILE:538:CA:9832, V-B:ILE:538:CG1:9836, V-B:ILE:538:CG2:9835, V-B:ILE:538:CB:9834, V-B:MET:535:CB:9804"]

$$$$
1j_Grossjean_2025
     RDKit          3D

 20 21  0  0  0  0  0  0  0  0999 V2000
  125.9930  129.9320   57.6470 C   0  0  0  0  0  0  0  0  0  0  0  0
  127.1130  129.0830   57.0730 C   0  0  0  0  0  0  0  0  0  0  0  0
  127.5920  127.9590   57.7420 C   0  0  0  0  0  0  0  0  0  0  0  0
  128.6160  127.2070   57.1590 C   0  0  0  0  0  0  0  0  0  0  0  0
  129.1140  125.9690   57.9040 C   0  0  0  0  0  0  0  0  0  0  0  0
  129.1440  127.6090   55.9110 C   0  0  0  0  0  0  0  0  0  0  0  0
  130.1810  126.8060   55.2570 C   0  0  0  0  0  0  0  0  0  0  0  0
  130.9980  126.1690   54.7420 N   0  0  0  0  0  0  0  0  0  0  0  0
  128.6150  128.7780   55.3160 C   0  0  0  0  0  0  0  0  0  0  0  0
  129.1610  129.4290   53.7520 S   0  0  0  0  0  0  0  0  0  0  0  0
  129.4860  131.2030   53.9750 C   0  0  0  0  0  0  0  0  0  0  0  0
  130.0600  131.5120   55.3590 C   0  0  0  0  0  0  0  0  0  0  0  0
  129.6550  132.4990   55.9750 O   0  0  0  0  0  0  0  0  0  0  0  0
  130.9940  130.6460   55.8090 N   0  0  0  0  0  0  0  0  0  0  0  0
  131.6670  130.7100   57.0220 C   0  0  0  0  0  0  0  0  0  0  0  0
  132.9520  130.5290   57.2420 N   0  0  0  0  0  0  0  0  0  0  0  0
  133.2460  130.6650   58.5200 C   0  0  0  0  0  0  0  0  0  0  0  0
  132.1850  130.9650   59.3690 C   0  0  0  0  0  0  0  0  0  0  0  0
  130.7250  131.0740   58.4320 S   0  0  0  0  0  0  0  0  0  0  0  0
  127.6060  129.4890   55.8790 N   0  0  0  0  0  0  0  0  0  0  0  0
  1  2  1  0
  2  3  2  0
  3  4  1  0
  4  5  1  0
  4  6  2  0
  6  7  1  0
  7  8  3  0
  6  9  1  0
  9 10  1  0
 10 11  1  0
 11 12  1  0
 12 13  2  0
 12 14  1  0
 14 15  1  0
 15 16  2  0
 16 17  1  0
 17 18  2  0
 18 19  1  0
  9 20  2  0
 20  2  1  0
 19 15  1  0
M  END
>  <Binding energies>  (5) 
[-6.71]

>  <Ligand effiencies>  (5) 
[-0.31952380952380954]

>  <Interactions>  (5) 
["H-B:TYR:531:OH:9767, V-B:TYR:531:CZ:9766, V-A:ASP:366:CG:3212, V-A:ILE:538:CA:4860, V-A:ASP:366:CB:3211, V-A:ILE:538:CG2:4863, H-B:TYR:539:OH:9850, V-A:PRO:540:CA:4883, H-A:TYR:531:OH:4795, H-A:TYR:539:N:4870, V-A:TYR:539:CZ:4877, V-A:PRO:540:CB:4885, V-A:TYR:539:CE1:4875, V-A:TYR:531:CZ:4794, V-A:ILE:538:CB:4862, V-A:LEU:363:CD1:3188, V-A:LEU:363:CA:3184"]

$$$$
1o_Grossjean_2025
     RDKit          3D

 26 27  0  0  0  0  0  0  0  0999 V2000
  125.0100  121.9950   54.9240 C   0  0  0  0  0  0  0  0  0  0  0  0
  125.5640  121.4820   56.1270 O   0  0  0  0  0  0  0  0  0  0  0  0
  126.6800  122.0300   56.6730 C   0  0  0  0  0  0  0  0  0  0  0  0
  127.7880  121.4860   56.6470 O   0  0  0  0  0  0  0  0  0  0  0  0
  126.4330  123.3670   57.3100 C   0  0  0  0  0  0  0  0  0  0  0  0
  127.4690  124.2890   57.5260 C   0  0  0  0  0  0  0  0  0  0  0  0
  127.2060  125.5220   58.1180 C   0  0  0  0  0  0  0  0  0  0  0  0
  125.9090  125.8570   58.5090 C   0  0  0  0  0  0  0  0  0  0  0  0
  125.7550  127.1320   59.0880 N   0  0  0  0  0  0  0  0  0  0  0  0
  126.0720  128.3500   58.5970 C   0  0  0  0  0  0  0  0  0  0  0  0
  126.5360  128.5650   57.4770 O   0  0  0  0  0  0  0  0  0  0  0  0
  125.7870  129.5350   59.5310 C   0  0  0  0  0  0  0  0  0  0  0  0
  127.0550  130.1080   60.1960 C   0  0  0  0  0  0  0  0  0  0  0  0
  127.5030  131.7720   59.6170 S   0  0  0  0  0  0  0  0  0  0  0  0
  128.8800  131.6280   58.4960 C   0  0  0  0  0  0  0  0  0  0  0  0
  128.5130  131.6190   57.1890 N   0  0  0  0  0  0  0  0  0  0  0  0
  129.4770  131.5220   56.2430 C   0  0  0  0  0  0  0  0  0  0  0  0
  128.9930  131.5330   54.8050 C   0  0  0  0  0  0  0  0  0  0  0  0
  130.8300  131.4180   56.5570 C   0  0  0  0  0  0  0  0  0  0  0  0
  131.2170  131.4000   57.9010 C   0  0  0  0  0  0  0  0  0  0  0  0
  132.7050  131.2700   58.2200 C   0  0  0  0  0  0  0  0  0  0  0  0
  130.2280  131.4960   58.9070 C   0  0  0  0  0  0  0  0  0  0  0  0
  130.6090  131.4190   60.3190 C   0  0  0  0  0  0  0  0  0  0  0  0
  130.9120  131.3590   61.4350 N   0  0  0  0  0  0  0  0  0  0  0  0
  124.8680  124.9430   58.2910 C   0  0  0  0  0  0  0  0  0  0  0  0
  125.1320  123.7110   57.6990 C   0  0  0  0  0  0  0  0  0  0  0  0
  1  2  1  0
  2  3  1  0
  3  4  2  0
  3  5  1  0
  5  6  2  0
  6  7  1  0
  7  8  2  0
  8  9  1  0
  9 10  1  0
 10 11  2  0
 10 12  1  0
 12 13  1  0
 13 14  1  0
 14 15  1  0
 15 16  2  0
 16 17  1  0
 17 18  1  0
 17 19  2  0
 19 20  1  0
 20 21  1  0
 20 22  2  0
 22 23  1  0
 23 24  3  0
  8 25  1  0
 25 26  2  0
 26  5  1  0
 22 15  1  0
M  END
>  <Binding energies>  (6) 
[-7.95]

>  <Ligand effiencies>  (6) 
[-0.29444444444444445]

>  <Interactions>  (6) 
["V-B:PRO:540:CB:9857, H-B:TYR:531:OH:9767, V-B:MET:535:CE:9807, V-B:PRO:540:N:9856, V-B:PRO:540:CA:9855, H-B:TYR:539:N:9842, V-B:MET:535:CG:9805, V-B:TYR:539:C:9839, V-B:TYR:531:CE2:9765, V-B:TYR:531:CZ:9766, V-B:LEU:363:CD1:8160, V-B:PRO:540:CD:9859, V-A:PRO:540:N:4884, V-A:ILE:538:CA:4860, V-A:TYR:539:CD1:4873, V-A:PRO:540:CA:4883, V-A:TYR:539:CZ:4877, V-A:PRO:540:CB:4885, V-A:TYR:539:CE1:4875, V-B:ASP:366:CG:8184, V-B:ASP:366:CB:8183, V-A:PRO:540:C:4881, V-A:TYR:539:C:4867, V-A:LEU:363:CD1:3188, H-A:ALA:541:N:4891, H-B:ASP:366:OD2:8186, V-B:ILE:538:CA:9832, V-B:ILE:538:CG1:9836, V-B:ILE:538:CG2:9835, H-B:ASP:366:OD1:8185, V-B:ILE:538:CB:9834, V-B:MET:535:CB:9804"]

$$$$
1p_Grossjean_2025
     RDKit          3D

 21 22  0  0  0  0  0  0  0  0999 V2000
  130.7090  118.2580   60.6330 C   0  0  0  0  0  0  0  0  0  0  0  0
  131.3390  119.4810   61.2730 C   0  0  0  0  0  0  0  0  0  0  0  0
  132.7120  119.7130   61.2050 C   0  0  0  0  0  0  0  0  0  0  0  0
  133.2410  120.8500   61.8250 C   0  0  0  0  0  0  0  0  0  0  0  0
  134.7490  121.0770   61.7500 C   0  0  0  0  0  0  0  0  0  0  0  0
  132.3710  121.7380   62.4970 C   0  0  0  0  0  0  0  0  0  0  0  0
  132.9050  122.9090   63.1940 C   0  0  0  0  0  0  0  0  0  0  0  0
  133.3290  123.8350   63.7450 N   0  0  0  0  0  0  0  0  0  0  0  0
  130.9880  121.4350   62.4960 C   0  0  0  0  0  0  0  0  0  0  0  0
  129.7580  122.4490   63.2840 S   0  0  0  0  0  0  0  0  0  0  0  0
  129.2500  123.7000   62.0690 C   0  0  0  0  0  0  0  0  0  0  0  0
  129.5280  123.2970   60.6080 C   0  0  0  0  0  0  0  0  0  0  0  0
  128.2790  122.8090   59.8580 C   0  0  0  0  0  0  0  0  0  0  0  0
  127.3200  122.3710   60.4960 O   0  0  0  0  0  0  0  0  0  0  0  0
  128.3280  122.9160   58.5110 N   0  0  0  0  0  0  0  0  0  0  0  0
  127.3420  122.5520   57.6030 C   0  0  0  0  0  0  0  0  0  0  0  0
  126.0760  123.1370   57.5780 C   0  0  0  0  0  0  0  0  0  0  0  0
  125.4110  122.5090   56.5500 C   0  0  0  0  0  0  0  0  0  0  0  0
  126.2320  121.5920   55.9870 O   0  0  0  0  0  0  0  0  0  0  0  0
  127.4530  121.6280   56.6640 N   0  0  0  0  0  0  0  0  0  0  0  0
  130.4880  120.3180   61.9100 N   0  0  0  0  0  0  0  0  0  0  0  0
  1  2  1  0
  2  3  2  0
  3  4  1  0
  4  5  1  0
  4  6  2  0
  6  7  1  0
  7  8  3  0
  6  9  1  0
  9 10  1  0
 10 11  1  0
 11 12  1  0
 12 13  1  0
 13 14  2  0
 13 15  1  0
 15 16  1  0
 16 17  1  0
 17 18  2  0
 18 19  1  0
 19 20  1  0
  9 21  2  0
 21  2  1  0
 20 16  2  0
M  END
>  <Binding energies>  (7) 
[-7.39]

>  <Ligand effiencies>  (7) 
[-0.3359090909090909]

>  <Interactions>  (7) 
["H-B:ALA:541:N:9863, V-B:PRO:540:CB:9857, V-B:MET:535:CE:9807, V-A:ILE:369:CG2:3236, V-B:TYR:539:CD2:9846, V-B:PRO:540:N:9856, V-A:LEU:475:CD1:4257, V-B:PRO:540:CA:9855, H-B:TYR:539:N:9842, V-B:ALA:541:CB:9864, V-B:TYR:539:C:9839, V-A:PRO:482:CG:4326, V-B:LEU:363:CD1:8160, H-A:TYR:484:OH:4347, H-A:GLY:454:N:4049, V-B:PRO:540:CD:9859, V-A:ILE:369:CD1:3238, V-A:SER:385:C:3404, V-A:GLY:454:CA:4048"]

$$$$
2a_Ghoteimi_2023
     RDKit          3D

 48 53  0  0  0  0  0  0  0  0999 V2000
  125.2680  121.7640   56.3660 C   0  0  0  0  0  0  0  0  0  0  0  0
  125.3490  123.2140   55.8780 C   0  0  0  0  0  0  0  0  0  0  0  0
  125.5450  124.0760   56.9910 O   0  0  0  0  0  0  0  0  0  0  0  0
  125.5610  123.5920   58.2600 C   0  0  0  0  0  0  0  0  0  0  0  0
  124.5530  123.5040   58.9670 O   0  0  0  0  0  0  0  0  0  0  0  0
  126.9280  123.1670   58.7150 C   0  0  0  0  0  0  0  0  0  0  0  0
  127.2830  123.1370   60.0710 C   0  0  0  0  0  0  0  0  0  0  0  0
  128.5580  122.7370   60.4590 C   0  0  0  0  0  0  0  0  0  0  0  0
  129.5030  122.3550   59.5040 C   0  0  0  0  0  0  0  0  0  0  0  0
  130.7610  121.9740   60.0080 N   0  0  0  0  0  0  0  0  0  0  0  0
  131.0730  121.2940   61.1330 C   0  0  0  0  0  0  0  0  0  0  0  0
  130.2630  120.9150   61.9790 O   0  0  0  0  0  0  0  0  0  0  0  0
  132.5710  121.0370   61.3450 C   0  0  0  0  0  0  0  0  0  0  0  0
  133.5920  122.5440   61.4130 S   0  0  0  0  0  0  0  0  0  0  0  0
  132.4440  123.9010   61.4500 C   0  0  0  0  0  0  0  0  0  0  0  0
  132.0850  124.2810   62.6980 N   0  0  0  0  0  0  0  0  0  0  0  0
  131.2050  125.3020   62.8570 C   0  0  0  0  0  0  0  0  0  0  0  0
  130.8470  125.6600   64.2640 C   0  0  0  0  0  0  0  0  0  0  0  0
  131.8340  125.8320   65.2420 C   0  0  0  0  0  0  0  0  0  0  0  0
  131.4950  126.1540   66.5530 C   0  0  0  0  0  0  0  0  0  0  0  0
  130.1560  126.3250   66.9340 C   0  0  0  0  0  0  0  0  0  0  0  0
  129.8280  126.6190   68.2620 N   0  0  0  0  0  0  0  0  0  0  0  0
  128.7280  125.9210   68.9560 C   0  0  0  0  0  0  0  0  0  0  0  0
  128.7430  126.1020   70.4890 C   0  0  0  0  0  0  0  0  0  0  0  0
  128.7540  127.4830   70.8140 O   0  0  0  0  0  0  0  0  0  0  0  0
  129.9030  128.1290   70.2910 C   0  0  0  0  0  0  0  0  0  0  0  0
  129.9250  128.0100   68.7520 C   0  0  0  0  0  0  0  0  0  0  0  0
  129.1700  126.1390   65.9520 C   0  0  0  0  0  0  0  0  0  0  0  0
  129.5100  125.8200   64.6410 C   0  0  0  0  0  0  0  0  0  0  0  0
  130.6740  125.9760   61.7550 C   0  0  0  0  0  0  0  0  0  0  0  0
  131.0310  125.6000   60.4530 C   0  0  0  0  0  0  0  0  0  0  0  0
  130.4210  126.3600   59.3200 C   0  0  0  0  0  0  0  0  0  0  0  0
  130.5490  127.7500   59.2550 C   0  0  0  0  0  0  0  0  0  0  0  0
  129.9680  128.4680   58.2150 C   0  0  0  0  0  0  0  0  0  0  0  0
  129.2420  127.8180   57.2050 C   0  0  0  0  0  0  0  0  0  0  0  0
  128.6350  128.5230   56.1620 N   0  0  0  0  0  0  0  0  0  0  0  0
  129.4310  128.8790   54.9700 C   0  0  0  0  0  0  0  0  0  0  0  0
  128.5650  129.2920   53.7600 C   0  0  0  0  0  0  0  0  0  0  0  0
  127.6980  130.3540   54.1230 O   0  0  0  0  0  0  0  0  0  0  0  0
  126.8250  129.9830   55.1790 C   0  0  0  0  0  0  0  0  0  0  0  0
  127.6430  129.5840   56.4250 C   0  0  0  0  0  0  0  0  0  0  0  0
  129.1080  126.4250   57.2840 C   0  0  0  0  0  0  0  0  0  0  0  0
  129.6880  125.7060   58.3250 C   0  0  0  0  0  0  0  0  0  0  0  0
  131.9490  124.5340   60.2880 C   0  0  0  0  0  0  0  0  0  0  0  0
  132.4030  124.1330   58.9530 C   0  0  0  0  0  0  0  0  0  0  0  0
  132.7600  123.8170   57.8980 N   0  0  0  0  0  0  0  0  0  0  0  0
  129.1580  122.3910   58.1450 C   0  0  0  0  0  0  0  0  0  0  0  0
  127.8810  122.7900   57.7580 C   0  0  0  0  0  0  0  0  0  0  0  0
  1  2  1  0
  2  3  1  0
  3  4  1  0
  4  5  2  0
  4  6  1  0
  6  7  2  0
  7  8  1  0
  8  9  2  0
  9 10  1  0
 10 11  1  0
 11 12  2  0
 11 13  1  0
 13 14  1  0
 14 15  1  0
 15 16  2  0
 16 17  1  0
 17 18  1  0
 18 19  2  0
 19 20  1  0
 20 21  2  0
 21 22  1  0
 22 23  1  0
 23 24  1  0
 24 25  1  0
 25 26  1  0
 26 27  1  0
 21 28  1  0
 28 29  2  0
 17 30  2  0
 30 31  1  0
 31 32  1  0
 32 33  2  0
 33 34  1  0
 34 35  2  0
 35 36  1  0
 36 37  1  0
 37 38  1  0
 38 39  1  0
 39 40  1  0
 40 41  1  0
 35 42  1  0
 42 43  2  0
 31 44  2  0
 44 45  1  0
 45 46  3  0
  9 47  1  0
 47 48  2  0
 48  6  1  0
 44 15  1  0
 29 18  1  0
 43 32  1  0
 27 22  1  0
 41 36  1  0
M  END
>  <Binding energies>  (8) 
[-10.34]

>  <Ligand effiencies>  (8) 
[-0.2110204081632653]

>  <Interactions>  (8) 
["V-B:PRO:540:CB:9857, H-B:TYR:531:OH:9767, V-B:MET:535:CE:9807, V-B:TYR:539:CD2:9846, V-B:PRO:540:N:9856, V-A:LEU:475:CD1:4257, V-B:PRO:540:CA:9855, V-B:TYR:539:CE2:9848, V-B:MET:535:CG:9805, V-B:TYR:539:C:9839, V-B:TYR:531:CE2:9765, V-B:TYR:531:CZ:9766, V-B:LEU:363:CD1:8160, V-A:ASP:366:CG:3212, V-B:PRO:540:CD:9859, V-A:ASP:366:CB:3211, H-B:TYR:539:OH:9850, V-A:TYR:539:CZ:4877, V-A:TYR:539:CE1:4875, V-B:TYR:531:CE1:9764, H-B:LYS:534:NZ:9795, V-B:TYR:539:CZ:9849, H-A:TYR:539:OH:4878, V-A:GLU:543:C:4902, V-B:TYR:539:CG:9844, V-A:HIS:456:CE1:4069, V-B:GLU:543:CB:9878, V-B:GLU:543:CG:9879, V-B:GLU:543:CD:9880, V-A:ARG:545:CZ:4926, V-A:GLU:543:CB:4906, V-B:LYS:534:CE:9794, V-B:ILE:538:CG2:9835, V-B:PRO:540:CG:9858, V-B:GLU:543:C:9874"]

$$$$
2aa_Ghoteimi_2023
     RDKit          3D

 48 53  0  0  0  0  0  0  0  0999 V2000
  132.1670  131.7520   56.9020 C   0  0  0  0  0  0  0  0  0  0  0  0
  131.5790  132.1100   55.5340 C   0  0  0  0  0  0  0  0  0  0  0  0
  130.3430  132.7890   55.7160 O   0  0  0  0  0  0  0  0  0  0  0  0
  129.1580  132.1520   55.5300 C   0  0  0  0  0  0  0  0  0  0  0  0
  128.5240  132.1900   54.4700 O   0  0  0  0  0  0  0  0  0  0  0  0
  128.7010  131.3840   56.7370 C   0  0  0  0  0  0  0  0  0  0  0  0
  127.9370  130.2130   56.6240 C   0  0  0  0  0  0  0  0  0  0  0  0
  127.5330  129.5210   57.7620 C   0  0  0  0  0  0  0  0  0  0  0  0
  127.8740  129.9880   59.0330 C   0  0  0  0  0  0  0  0  0  0  0  0
  127.4160  129.2090   60.1130 N   0  0  0  0  0  0  0  0  0  0  0  0
  126.6170  128.1200   60.1170 C   0  0  0  0  0  0  0  0  0  0  0  0
  126.1500  127.5800   59.1120 O   0  0  0  0  0  0  0  0  0  0  0  0
  126.3240  127.5480   61.5100 C   0  0  0  0  0  0  0  0  0  0  0  0
  127.2130  128.1340   62.4680 O   0  0  0  0  0  0  0  0  0  0  0  0
  127.9140  127.3270   63.3530 C   0  0  0  0  0  0  0  0  0  0  0  0
  128.4560  126.1720   62.8740 N   0  0  0  0  0  0  0  0  0  0  0  0
  129.1520  125.3620   63.7110 C   0  0  0  0  0  0  0  0  0  0  0  0
  129.7140  124.1090   63.1160 C   0  0  0  0  0  0  0  0  0  0  0  0
  129.0210  123.4200   62.1160 C   0  0  0  0  0  0  0  0  0  0  0  0
  129.5420  122.2580   61.5540 C   0  0  0  0  0  0  0  0  0  0  0  0
  130.7840  121.7480   61.9630 C   0  0  0  0  0  0  0  0  0  0  0  0
  131.3170  120.5740   61.4190 N   0  0  0  0  0  0  0  0  0  0  0  0
  132.7720  120.3160   61.4190 C   0  0  0  0  0  0  0  0  0  0  0  0
  133.2010  119.1700   60.4790 C   0  0  0  0  0  0  0  0  0  0  0  0
  132.4770  117.9910   60.7870 O   0  0  0  0  0  0  0  0  0  0  0  0
  131.0800  118.1830   60.6270 C   0  0  0  0  0  0  0  0  0  0  0  0
  130.5870  119.2990   61.5730 C   0  0  0  0  0  0  0  0  0  0  0  0
  131.4650  122.4300   62.9820 C   0  0  0  0  0  0  0  0  0  0  0  0
  130.9410  123.5910   63.5450 C   0  0  0  0  0  0  0  0  0  0  0  0
  129.3080  125.6830   65.0630 C   0  0  0  0  0  0  0  0  0  0  0  0
  128.7510  126.8580   65.5830 C   0  0  0  0  0  0  0  0  0  0  0  0
  128.9300  127.1350   67.0410 C   0  0  0  0  0  0  0  0  0  0  0  0
  128.8890  126.0900   67.9670 C   0  0  0  0  0  0  0  0  0  0  0  0
  129.0350  126.3430   69.3280 C   0  0  0  0  0  0  0  0  0  0  0  0
  129.2130  127.6520   69.8040 C   0  0  0  0  0  0  0  0  0  0  0  0
  129.3650  127.9290   71.1650 N   0  0  0  0  0  0  0  0  0  0  0  0
  129.1670  126.8860   72.1890 C   0  0  0  0  0  0  0  0  0  0  0  0
  129.7170  127.2750   73.5780 C   0  0  0  0  0  0  0  0  0  0  0  0
  129.1490  128.5080   73.9960 O   0  0  0  0  0  0  0  0  0  0  0  0
  129.4560  129.5570   73.0910 C   0  0  0  0  0  0  0  0  0  0  0  0
  128.8990  129.2290   71.6910 C   0  0  0  0  0  0  0  0  0  0  0  0
  129.2600  128.6930   68.8660 C   0  0  0  0  0  0  0  0  0  0  0  0
  129.1140  128.4400   67.5050 C   0  0  0  0  0  0  0  0  0  0  0  0
  128.0480  127.7100   64.6990 C   0  0  0  0  0  0  0  0  0  0  0  0
  127.4750  128.9830   65.1430 C   0  0  0  0  0  0  0  0  0  0  0  0
  127.0240  129.9880   65.4950 N   0  0  0  0  0  0  0  0  0  0  0  0
  128.6440  131.1530   59.1530 C   0  0  0  0  0  0  0  0  0  0  0  0
  129.0510  131.8420   58.0140 C   0  0  0  0  0  0  0  0  0  0  0  0
  1  2  1  0
  2  3  1  0
  3  4  1  0
  4  5  2  0
  4  6  1  0
  6  7  2  0
  7  8  1  0
  8  9  2  0
  9 10  1  0
 10 11  1  0
 11 12  2  0
 11 13  1  0
 13 14  1  0
 14 15  1  0
 15 16  2  0
 16 17  1  0
 17 18  1  0
 18 19  2  0
 19 20  1  0
 20 21  2  0
 21 22  1  0
 22 23  1  0
 23 24  1  0
 24 25  1  0
 25 26  1  0
 26 27  1  0
 21 28  1  0
 28 29  2  0
 17 30  2  0
 30 31  1  0
 31 32  1  0
 32 33  2  0
 33 34  1  0
 34 35  2  0
 35 36  1  0
 36 37  1  0
 37 38  1  0
 38 39  1  0
 39 40  1  0
 40 41  1  0
 35 42  1  0
 42 43  2  0
 31 44  2  0
 44 45  1  0
 45 46  3  0
  9 47  1  0
 47 48  2  0
 48  6  1  0
 44 15  1  0
 29 18  1  0
 43 32  1  0
 27 22  1  0
 41 36  1  0
M  END
>  <Binding energies>  (9) 
[-10.36]

>  <Ligand effiencies>  (9) 
[-0.2114285714285714]

>  <Interactions>  (9) 
["V-A:ILE:369:CG2:3236, V-B:TYR:539:CD2:9846, V-A:LEU:475:CD1:4257, H-A:SER:385:OG:3409, H-A:HIS:383:NE2:3393, V-B:ALA:541:CB:9864, V-A:PRO:482:CG:4326, V-A:PRO:540:N:4884, V-A:ILE:538:CA:4860, V-A:TYR:539:CG:4872, V-A:ILE:538:CG2:4863, V-A:TYR:539:CD1:4873, V-A:PRO:540:CA:4883, H-A:TYR:539:N:4870, V-A:TYR:539:CZ:4877, V-A:PRO:540:CB:4885, V-A:TYR:539:CE1:4875, V-A:ILE:538:CB:4862, V-B:ASP:366:CG:8184, H-B:LYS:534:NZ:9795, V-A:PRO:540:CD:4887, V-A:TYR:539:C:4867, V-A:LEU:363:CD1:3188, V-A:GLU:543:CG:4907, V-A:GLU:543:CD:4908, H-B:TYR:484:OH:9319, V-A:GLU:543:C:4902, V-B:HIS:456:CE1:9041, V-A:HIS:456:CE1:4069, V-B:GLU:543:CB:9878, V-B:GLU:543:CG:9879, V-B:GLU:543:CD:9880, V-A:GLU:543:CA:4904, V-A:GLU:543:CB:4906, V-B:HIS:456:CD2:9039, H-A:LYS:547:NZ:4951, V-A:LYS:547:CE:4950"]

$$$$
2b_Ghoteimi_2023
     RDKit          3D

 42 47  0  0  0  0  0  0  0  0999 V2000
  127.5860  132.2040   65.6910 N   0  0  0  0  0  0  0  0  0  0  0  0
  127.5030  131.3230   64.9450 C   0  0  0  0  0  0  0  0  0  0  0  0
  127.3990  130.2030   64.0050 C   0  0  0  0  0  0  0  0  0  0  0  0
  127.6270  128.8730   64.4410 C   0  0  0  0  0  0  0  0  0  0  0  0
  127.9780  128.5090   65.8460 C   0  0  0  0  0  0  0  0  0  0  0  0
  127.9380  129.4730   66.8550 C   0  0  0  0  0  0  0  0  0  0  0  0
  128.2650  129.1390   68.1660 C   0  0  0  0  0  0  0  0  0  0  0  0
  128.6580  127.8340   68.5010 C   0  0  0  0  0  0  0  0  0  0  0  0
  128.9780  127.4710   69.8100 N   0  0  0  0  0  0  0  0  0  0  0  0
  129.1550  128.5290   70.8260 C   0  0  0  0  0  0  0  0  0  0  0  0
  129.8650  128.0350   72.1050 C   0  0  0  0  0  0  0  0  0  0  0  0
  129.1780  126.9170   72.6450 O   0  0  0  0  0  0  0  0  0  0  0  0
  129.1280  125.8370   71.7250 C   0  0  0  0  0  0  0  0  0  0  0  0
  128.3910  126.2740   70.4430 C   0  0  0  0  0  0  0  0  0  0  0  0
  128.6980  126.8730   67.4810 C   0  0  0  0  0  0  0  0  0  0  0  0
  128.3670  127.2060   66.1700 C   0  0  0  0  0  0  0  0  0  0  0  0
  127.5110  127.8360   63.5080 C   0  0  0  0  0  0  0  0  0  0  0  0
  127.1480  128.1100   62.1860 C   0  0  0  0  0  0  0  0  0  0  0  0
  126.9820  127.0360   61.1580 C   0  0  0  0  0  0  0  0  0  0  0  0
  126.7490  127.3610   59.8170 C   0  0  0  0  0  0  0  0  0  0  0  0
  126.6100  126.3670   58.8530 C   0  0  0  0  0  0  0  0  0  0  0  0
  126.6840  125.0080   59.1950 C   0  0  0  0  0  0  0  0  0  0  0  0
  126.5760  123.9980   58.2320 N   0  0  0  0  0  0  0  0  0  0  0  0
  127.4780  122.8290   58.2870 C   0  0  0  0  0  0  0  0  0  0  0  0
  127.5150  122.0150   56.9760 C   0  0  0  0  0  0  0  0  0  0  0  0
  126.2000  121.6270   56.6080 O   0  0  0  0  0  0  0  0  0  0  0  0
  125.3670  122.7540   56.3920 C   0  0  0  0  0  0  0  0  0  0  0  0
  125.2670  123.5940   57.6840 C   0  0  0  0  0  0  0  0  0  0  0  0
  126.9250  124.6870   60.5390 C   0  0  0  0  0  0  0  0  0  0  0  0
  127.0670  125.6820   61.5020 C   0  0  0  0  0  0  0  0  0  0  0  0
  126.9300  129.3840   61.7710 N   0  0  0  0  0  0  0  0  0  0  0  0
  127.0680  130.4070   62.6470 C   0  0  0  0  0  0  0  0  0  0  0  0
  126.7500  132.0050   61.9320 S   0  0  0  0  0  0  0  0  0  0  0  0
  128.2500  132.5180   61.0420 C   0  0  0  0  0  0  0  0  0  0  0  0
  128.2860  131.9730   59.6140 C   0  0  0  0  0  0  0  0  0  0  0  0
  127.4730  131.1100   59.2760 O   0  0  0  0  0  0  0  0  0  0  0  0
  129.2410  132.4970   58.8150 N   0  0  0  0  0  0  0  0  0  0  0  0
  129.4860  132.1910   57.4840 C   0  0  0  0  0  0  0  0  0  0  0  0
  128.8830  131.1210   56.8260 C   0  0  0  0  0  0  0  0  0  0  0  0
  129.3820  131.1610   55.5450 C   0  0  0  0  0  0  0  0  0  0  0  0
  130.2410  132.2030   55.4370 O   0  0  0  0  0  0  0  0  0  0  0  0
  130.2970  132.8500   56.6730 N   0  0  0  0  0  0  0  0  0  0  0  0
  1  2  3  0
  2  3  1  0
  3  4  2  0
  4  5  1  0
  5  6  2  0
  6  7  1  0
  7  8  2  0
  8  9  1  0
  9 10  1  0
 10 11  1  0
 11 12  1  0
 12 13  1  0
 13 14  1  0
  8 15  1  0
 15 16  2  0
  4 17  1  0
 17 18  2  0
 18 19  1  0
 19 20  2  0
 20 21  1  0
 21 22  2  0
 22 23  1  0
 23 24  1  0
 24 25  1  0
 25 26  1  0
 26 27  1  0
 27 28  1  0
 22 29  1  0
 29 30  2  0
 18 31  1  0
 31 32  2  0
 32 33  1  0
 33 34  1  0
 34 35  1  0
 35 36  2  0
 35 37  1  0
 37 38  1  0
 38 39  1  0
 39 40  2  0
 40 41  1  0
 41 42  1  0
 32  3  1  0
 42 38  2  0
 16  5  1  0
 30 19  1  0
 14  9  1  0
 28 23  1  0
M  END
>  <Binding energies>  (10) 
[-10.57]

>  <Ligand effiencies>  (10) 
[-0.2458139534883721]

>  <Interactions>  (10) 
["V-B:PRO:540:CB:9857, V-B:MET:535:CE:9807, V-B:PRO:540:N:9856, V-B:PRO:540:CA:9855, H-B:TYR:539:N:9842, V-B:TYR:539:C:9839, V-B:TYR:531:CE2:9765, V-B:LEU:363:CD1:8160, V-B:TYR:539:CA:9841, V-A:PRO:540:N:4884, V-A:TYR:539:CD1:4873, V-A:PRO:540:CA:4883, H-A:TYR:539:N:4870, V-A:TYR:539:CE1:4875, V-B:ASP:366:CG:8184, V-A:ALA:541:CB:4892, V-A:TYR:539:C:4867, V-A:GLU:543:CG:4907, V-A:GLU:543:CD:4908, H-B:TYR:484:OH:9319, V-A:GLU:543:C:4902, V-B:TYR:539:CG:9844, V-B:HIS:456:CE1:9041, V-A:HIS:456:CE1:4069, V-B:GLU:543:CB:9878, V-B:GLU:543:CD:9880, V-B:TYR:539:CD1:9845, V-A:GLU:543:CB:4906, H-A:TYR:539:O:4868, V-A:TYR:539:CA:4869, V-B:TYR:484:CE2:9317, V-B:GLU:543:C:9874, V-B:HIS:456:CD2:9039, V-A:HIS:456:CD2:4067"]

$$$$
2c_Ghoteimi_2023
     RDKit          3D

 42 47  0  0  0  0  0  0  0  0999 V2000
  129.5230  122.1000   65.3030 N   0  0  0  0  0  0  0  0  0  0  0  0
  129.6110  122.9870   64.5670 C   0  0  0  0  0  0  0  0  0  0  0  0
  129.7230  124.1160   63.6380 C   0  0  0  0  0  0  0  0  0  0  0  0
  129.7480  125.4480   64.1210 C   0  0  0  0  0  0  0  0  0  0  0  0
  129.6610  125.8100   65.5670 C   0  0  0  0  0  0  0  0  0  0  0  0
  128.8220  126.8460   65.9830 C   0  0  0  0  0  0  0  0  0  0  0  0
  128.7320  127.1860   67.3300 C   0  0  0  0  0  0  0  0  0  0  0  0
  129.4890  126.5100   68.2980 C   0  0  0  0  0  0  0  0  0  0  0  0
  129.4000  126.8210   69.6570 N   0  0  0  0  0  0  0  0  0  0  0  0
  129.5270  128.2280   70.0850 C   0  0  0  0  0  0  0  0  0  0  0  0
  129.7970  128.3830   71.5970 C   0  0  0  0  0  0  0  0  0  0  0  0
  128.7890  127.7160   72.3420 O   0  0  0  0  0  0  0  0  0  0  0  0
  128.7480  126.3290   72.0450 C   0  0  0  0  0  0  0  0  0  0  0  0
  128.4520  126.1200   70.5450 C   0  0  0  0  0  0  0  0  0  0  0  0
  130.3320  125.4740   67.8700 C   0  0  0  0  0  0  0  0  0  0  0  0
  130.4200  125.1320   66.5240 C   0  0  0  0  0  0  0  0  0  0  0  0
  129.8600  126.4910   63.1930 C   0  0  0  0  0  0  0  0  0  0  0  0
  129.9720  126.2160   61.8270 C   0  0  0  0  0  0  0  0  0  0  0  0
  130.1110  127.2920   60.7990 C   0  0  0  0  0  0  0  0  0  0  0  0
  130.0250  126.9940   59.4350 C   0  0  0  0  0  0  0  0  0  0  0  0
  130.1480  127.9930   58.4730 C   0  0  0  0  0  0  0  0  0  0  0  0
  130.3740  129.3290   58.8400 C   0  0  0  0  0  0  0  0  0  0  0  0
  130.4750  130.3490   57.8880 N   0  0  0  0  0  0  0  0  0  0  0  0
  129.2940  131.1770   57.5690 C   0  0  0  0  0  0  0  0  0  0  0  0
  129.4370  131.9800   56.2590 C   0  0  0  0  0  0  0  0  0  0  0  0
  130.6120  132.7730   56.3000 O   0  0  0  0  0  0  0  0  0  0  0  0
  131.7740  131.9720   56.4440 C   0  0  0  0  0  0  0  0  0  0  0  0
  131.7010  131.1630   57.7570 C   0  0  0  0  0  0  0  0  0  0  0  0
  130.4460  129.6260   60.2090 C   0  0  0  0  0  0  0  0  0  0  0  0
  130.3210  128.6260   61.1700 C   0  0  0  0  0  0  0  0  0  0  0  0
  129.9510  124.9390   61.3670 N   0  0  0  0  0  0  0  0  0  0  0  0
  129.8110  123.9140   62.2410 C   0  0  0  0  0  0  0  0  0  0  0  0
  129.7920  122.3140   61.4660 S   0  0  0  0  0  0  0  0  0  0  0  0
  130.5400  122.4960   59.8190 C   0  0  0  0  0  0  0  0  0  0  0  0
  129.5210  122.9500   58.7730 C   0  0  0  0  0  0  0  0  0  0  0  0
  129.7680  123.9340   58.0740 O   0  0  0  0  0  0  0  0  0  0  0  0
  128.3920  122.2120   58.7010 N   0  0  0  0  0  0  0  0  0  0  0  0
  127.3290  122.4040   57.8310 C   0  0  0  0  0  0  0  0  0  0  0  0
  126.9740  121.6540   56.8110 N   0  0  0  0  0  0  0  0  0  0  0  0
  125.9070  122.1330   56.2040 C   0  0  0  0  0  0  0  0  0  0  0  0
  125.3710  123.3030   56.7350 C   0  0  0  0  0  0  0  0  0  0  0  0
  126.3250  123.7920   58.1030 S   0  0  0  0  0  0  0  0  0  0  0  0
  1  2  3  0
  2  3  1  0
  3  4  2  0
  4  5  1  0
  5  6  2  0
  6  7  1  0
  7  8  2  0
  8  9  1  0
  9 10  1  0
 10 11  1  0
 11 12  1  0
 12 13  1  0
 13 14  1  0
  8 15  1  0
 15 16  2  0
  4 17  1  0
 17 18  2  0
 18 19  1  0
 19 20  2  0
 20 21  1  0
 21 22  2  0
 22 23  1  0
 23 24  1  0
 24 25  1  0
 25 26  1  0
 26 27  1  0
 27 28  1  0
 22 29  1  0
 29 30  2  0
 18 31  1  0
 31 32  2  0
 32 33  1  0
 33 34  1  0
 34 35  1  0
 35 36  2  0
 35 37  1  0
 37 38  1  0
 38 39  2  0
 39 40  1  0
 40 41  2  0
 41 42  1  0
 32  3  1  0
 42 38  1  0
 16  5  1  0
 30 19  1  0
 14  9  1  0
 28 23  1  0
M  END
>  <Binding energies>  (11) 
[-10.19]

>  <Ligand effiencies>  (11) 
[-0.2369767441860465]

>  <Interactions>  (11) 
["V-B:PRO:540:CB:9857, V-B:MET:535:CE:9807, V-B:TYR:539:CD2:9846, V-B:PRO:540:N:9856, V-B:PRO:540:CA:9855, H-B:TYR:539:N:9842, V-B:ALA:541:CB:9864, V-B:TYR:539:CE2:9848, V-B:TYR:539:C:9839, V-B:TYR:531:CE2:9765, V-B:LEU:363:CD1:8160, H-A:TYR:484:OH:4347, V-B:PRO:540:CD:9859, V-A:PRO:540:N:4884, H-B:TYR:539:OH:9850, V-A:TYR:539:CD1:4873, V-A:PRO:540:CA:4883, H-A:TYR:539:N:4870, V-A:PRO:540:CB:4885, V-A:TYR:539:CE1:4875, V-A:PRO:540:CD:4887, V-A:LEU:363:CD1:3188, V-A:GLU:543:CD:4908, V-B:TYR:539:CZ:9849, H-B:TYR:539:O:9840, V-A:GLU:543:C:4902, V-B:HIS:456:CE1:9041, V-A:TYR:484:CZ:4346, V-A:HIS:456:CE1:4069, V-B:GLU:543:CG:9879, V-B:GLU:543:CD:9880, V-A:TYR:484:CE2:4345, V-B:GLU:543:C:9874, V-B:HIS:456:CD2:9039"]

$$$$
2j_Grossjean_2025
     RDKit          3D

 23 24  0  0  0  0  0  0  0  0999 V2000
  126.2430  129.8640   57.8760 C   0  0  0  0  0  0  0  0  0  0  0  0
  127.2860  129.0000   57.1920 C   0  0  0  0  0  0  0  0  0  0  0  0
  127.7060  127.7910   57.7410 C   0  0  0  0  0  0  0  0  0  0  0  0
  128.6700  127.0250   57.0690 C   0  0  0  0  0  0  0  0  0  0  0  0
  129.1240  125.6910   57.6910 C   0  0  0  0  0  0  0  0  0  0  0  0
  128.5170  125.5050   58.8630 F   0  0  0  0  0  0  0  0  0  0  0  0
  128.8140  124.6790   56.8780 F   0  0  0  0  0  0  0  0  0  0  0  0
  130.4400  125.6430   57.9070 F   0  0  0  0  0  0  0  0  0  0  0  0
  129.1880  127.5140   55.8430 C   0  0  0  0  0  0  0  0  0  0  0  0
  130.1980  126.7560   55.0980 C   0  0  0  0  0  0  0  0  0  0  0  0
  130.9940  126.1560   54.5100 N   0  0  0  0  0  0  0  0  0  0  0  0
  128.7040  128.7530   55.3580 C   0  0  0  0  0  0  0  0  0  0  0  0
  129.2840  129.4640   53.8250 S   0  0  0  0  0  0  0  0  0  0  0  0
  129.6400  131.2310   54.1090 C   0  0  0  0  0  0  0  0  0  0  0  0
  130.2300  131.5570   55.4890 C   0  0  0  0  0  0  0  0  0  0  0  0
  129.8760  132.5660   56.1030 O   0  0  0  0  0  0  0  0  0  0  0  0
  131.1460  130.6710   55.9370 N   0  0  0  0  0  0  0  0  0  0  0  0
  131.8300  130.7230   57.1440 C   0  0  0  0  0  0  0  0  0  0  0  0
  133.1200  130.5660   57.3480 N   0  0  0  0  0  0  0  0  0  0  0  0
  133.4280  130.6820   58.6250 C   0  0  0  0  0  0  0  0  0  0  0  0
  132.3700  130.9400   59.4920 C   0  0  0  0  0  0  0  0  0  0  0  0
  130.8970  131.0330   58.5730 S   0  0  0  0  0  0  0  0  0  0  0  0
  127.7690  129.4780   56.0230 N   0  0  0  0  0  0  0  0  0  0  0  0
  1  2  1  0
  2  3  2  0
  3  4  1  0
  4  5  1  0
  5  6  1  0
  5  7  1  0
  5  8  1  0
  4  9  2  0
  9 10  1  0
 10 11  3  0
  9 12  1  0
 12 13  1  0
 13 14  1  0
 14 15  1  0
 15 16  2  0
 15 17  1  0
 17 18  1  0
 18 19  2  0
 19 20  1  0
 20 21  2  0
 21 22  1  0
 12 23  2  0
 23  2  1  0
 22 18  1  0
M  END
>  <Binding energies>  (12) 
[-6.31]

>  <Ligand effiencies>  (12) 
[-0.26291666666666663]

>  <Interactions>  (12) 
["H-B:TYR:531:OH:9767, V-B:MET:535:CE:9807, V-A:ASP:366:CG:3212, V-A:ILE:538:CA:4860, V-A:ASP:366:CB:3211, V-A:ILE:538:CG2:4863, H-B:TYR:539:OH:9850, V-A:PRO:540:CA:4883, H-A:TYR:531:OH:4795, H-A:TYR:539:N:4870, V-A:PRO:540:CB:4885, V-A:TYR:539:CE1:4875, V-A:TYR:531:CZ:4794, V-A:ILE:538:CB:4862, V-A:LEU:363:CD1:3188, V-A:LEU:363:CA:3184, V-A:LEU:363:CB:3186"]

$$$$
3ab_Grossjean_2025
     RDKit          3D

 33 35  0  0  0  0  0  0  0  0999 V2000
  128.8930  131.2610   54.3970 C   0  0  0  0  0  0  0  0  0  0  0  0
  127.6900  130.5190   54.2530 O   0  0  0  0  0  0  0  0  0  0  0  0
  127.2010  129.7760   55.2790 C   0  0  0  0  0  0  0  0  0  0  0  0
  126.0450  129.8740   55.7000 O   0  0  0  0  0  0  0  0  0  0  0  0
  128.2070  128.8190   55.8500 C   0  0  0  0  0  0  0  0  0  0  0  0
  128.5530  128.8280   57.2100 C   0  0  0  0  0  0  0  0  0  0  0  0
  129.4880  127.9270   57.7120 C   0  0  0  0  0  0  0  0  0  0  0  0
  130.0990  126.9970   56.8570 C   0  0  0  0  0  0  0  0  0  0  0  0
  131.0510  126.0390   57.2550 N   0  0  0  0  0  0  0  0  0  0  0  0
  132.1330  125.5680   56.6000 C   0  0  0  0  0  0  0  0  0  0  0  0
  132.4870  125.9030   55.4700 O   0  0  0  0  0  0  0  0  0  0  0  0
  132.9590  124.5290   57.3610 C   0  0  0  0  0  0  0  0  0  0  0  0
  132.6920  124.6230   59.1570 S   0  0  0  0  0  0  0  0  0  0  0  0
  131.4230  123.4440   59.5710 C   0  0  0  0  0  0  0  0  0  0  0  0
  130.2390  123.6870   58.9610 N   0  0  0  0  0  0  0  0  0  0  0  0
  129.1820  122.8630   59.1830 C   0  0  0  0  0  0  0  0  0  0  0  0
  127.9070  123.2000   58.4680 C   0  0  0  0  0  0  0  0  0  0  0  0
  127.1860  124.3590   58.7940 C   0  0  0  0  0  0  0  0  0  0  0  0
  126.0020  124.6770   58.1330 C   0  0  0  0  0  0  0  0  0  0  0  0
  125.5220  123.8360   57.1340 C   0  0  0  0  0  0  0  0  0  0  0  0
  126.2150  122.6800   56.7940 C   0  0  0  0  0  0  0  0  0  0  0  0
  127.3980  122.3660   57.4580 C   0  0  0  0  0  0  0  0  0  0  0  0
  129.2950  121.7730   60.0530 C   0  0  0  0  0  0  0  0  0  0  0  0
  130.5060  121.5110   60.7110 C   0  0  0  0  0  0  0  0  0  0  0  0
  130.5870  120.3040   61.6650 C   0  0  0  0  0  0  0  0  0  0  0  0
  131.6690  119.5510   61.4560 F   0  0  0  0  0  0  0  0  0  0  0  0
  130.6290  120.7200   62.9310 F   0  0  0  0  0  0  0  0  0  0  0  0
  129.5170  119.5240   61.5030 F   0  0  0  0  0  0  0  0  0  0  0  0
  131.6050  122.3730   60.4740 C   0  0  0  0  0  0  0  0  0  0  0  0
  132.8750  122.1790   61.1790 C   0  0  0  0  0  0  0  0  0  0  0  0
  133.8770  122.0230   61.7370 N   0  0  0  0  0  0  0  0  0  0  0  0
  129.7530  126.9820   55.5050 C   0  0  0  0  0  0  0  0  0  0  0  0
  128.8190  127.8840   55.0050 C   0  0  0  0  0  0  0  0  0  0  0  0
  1  2  1  0
  2  3  1  0
  3  4  2  0
  3  5  1  0
  5  6  2  0
  6  7  1  0
  7  8  2  0
  8  9  1  0
  9 10  1  0
 10 11  2  0
 10 12  1  0
 12 13  1  0
 13 14  1  0
 14 15  2  0
 15 16  1  0
 16 17  1  0
 17 18  2  0
 18 19  1  0
 19 20  2  0
 20 21  1  0
 21 22  2  0
 16 23  2  0
 23 24  1  0
 24 25  1  0
 25 26  1  0
 25 27  1  0
 25 28  1  0
 24 29  2  0
 29 30  1  0
 30 31  3  0
  8 32  1  0
 32 33  2  0
 33  5  1  0
 29 14  1  0
 22 17  1  0
M  END
>  <Binding energies>  (13) 
[-7.87]

>  <Ligand effiencies>  (13) 
[-0.23147058823529412]

>  <Interactions>  (13) 
["H-B:TYR:531:OH:9767, V-B:MET:535:CE:9807, V-B:TYR:539:CD2:9846, V-B:PRO:540:N:9856, V-A:LEU:475:CD1:4257, V-B:PRO:540:CA:9855, V-B:PRO:540:C:9853, V-B:ALA:541:CB:9864, V-B:TYR:539:CE2:9848, V-B:TYR:539:C:9839, V-B:TYR:531:CE2:9765, V-A:PRO:482:CG:4326, V-B:TYR:531:CZ:9766, V-B:LEU:363:CD1:8160, V-A:ASP:366:CA:3209, V-A:ASP:366:CB:3211, V-A:ASP:366:C:3207, H-B:TYR:539:OH:9850, H-A:TYR:531:OH:4795, V-A:TYR:539:CZ:4877, V-B:TYR:531:CE1:9764, H-B:LYS:534:NZ:9795, V-B:TYR:539:CZ:9849, H-A:TYR:539:OH:4878, V-B:ALA:541:CA:9862"]

$$$$
3ac_Grossjean_2025
     RDKit          3D

 31 33  0  0  0  0  0  0  0  0999 V2000
  133.2420  131.3270   61.6990 C   0  0  0  0  0  0  0  0  0  0  0  0
  133.7600  130.9560   60.4250 O   0  0  0  0  0  0  0  0  0  0  0  0
  132.9180  130.9500   59.3300 C   0  0  0  0  0  0  0  0  0  0  0  0
  133.4910  130.6040   58.1060 C   0  0  0  0  0  0  0  0  0  0  0  0
  132.7200  130.5670   56.9480 C   0  0  0  0  0  0  0  0  0  0  0  0
  131.3620  130.8850   56.9960 C   0  0  0  0  0  0  0  0  0  0  0  0
  130.6620  130.7990   55.7780 N   0  0  0  0  0  0  0  0  0  0  0  0
  129.6590  131.5770   55.3160 C   0  0  0  0  0  0  0  0  0  0  0  0
  129.1990  132.5630   55.8930 O   0  0  0  0  0  0  0  0  0  0  0  0
  129.0790  131.1680   53.9610 C   0  0  0  0  0  0  0  0  0  0  0  0
  129.0230  129.3620   53.7530 S   0  0  0  0  0  0  0  0  0  0  0  0
  128.6700  128.6150   55.3330 C   0  0  0  0  0  0  0  0  0  0  0  0
  127.8090  129.3410   56.0860 N   0  0  0  0  0  0  0  0  0  0  0  0
  127.4410  128.8940   57.3140 C   0  0  0  0  0  0  0  0  0  0  0  0
  126.4900  129.7610   58.0850 C   0  0  0  0  0  0  0  0  0  0  0  0
  125.1270  129.8090   57.7470 C   0  0  0  0  0  0  0  0  0  0  0  0
  124.2380  130.6070   58.4620 C   0  0  0  0  0  0  0  0  0  0  0  0
  124.7020  131.3720   59.5280 C   0  0  0  0  0  0  0  0  0  0  0  0
  126.0470  131.3470   59.8800 C   0  0  0  0  0  0  0  0  0  0  0  0
  126.9320  130.5470   59.1620 C   0  0  0  0  0  0  0  0  0  0  0  0
  127.9540  127.6980   57.8240 C   0  0  0  0  0  0  0  0  0  0  0  0
  128.8640  126.9380   57.0750 C   0  0  0  0  0  0  0  0  0  0  0  0
  129.4090  125.6290   57.6780 C   0  0  0  0  0  0  0  0  0  0  0  0
  129.1200  124.5570   56.9360 F   0  0  0  0  0  0  0  0  0  0  0  0
  130.7380  125.6880   57.7870 F   0  0  0  0  0  0  0  0  0  0  0  0
  128.8840  125.4350   58.8890 F   0  0  0  0  0  0  0  0  0  0  0  0
  129.2500  127.4110   55.7960 C   0  0  0  0  0  0  0  0  0  0  0  0
  130.2560  126.6930   55.0100 C   0  0  0  0  0  0  0  0  0  0  0  0
  131.0520  126.1260   54.3900 N   0  0  0  0  0  0  0  0  0  0  0  0
  130.7760  131.2270   58.2250 C   0  0  0  0  0  0  0  0  0  0  0  0
  131.5500  131.2630   59.3810 C   0  0  0  0  0  0  0  0  0  0  0  0
  1  2  1  0
  2  3  1  0
  3  4  2  0
  4  5  1  0
  5  6  2  0
  6  7  1  0
  7  8  1  0
  8  9  2  0
  8 10  1  0
 10 11  1  0
 11 12  1  0
 12 13  2  0
 13 14  1  0
 14 15  1  0
 15 16  2  0
 16 17  1  0
 17 18  2  0
 18 19  1  0
 19 20  2  0
 14 21  2  0
 21 22  1  0
 22 23  1  0
 23 24  1  0
 23 25  1  0
 23 26  1  0
 22 27  2  0
 27 28  1  0
 28 29  3  0
  6 30  1  0
 30 31  2  0
 31  3  1  0
 27 12  1  0
 20 15  1  0
M  END
>  <Binding energies>  (14) 
[-8.36]

>  <Ligand effiencies>  (14) 
[-0.26125]

>  <Interactions>  (14) 
["H-B:TYR:531:OH:9767, V-B:MET:535:CE:9807, V-A:ASP:366:CG:3212, V-A:PRO:540:N:4884, V-A:ILE:538:CA:4860, V-A:ASP:366:CB:3211, V-A:ILE:538:CG2:4863, H-B:TYR:539:OH:9850, V-A:TYR:539:CD1:4873, V-A:PRO:540:CA:4883, H-A:TYR:531:OH:4795, H-A:TYR:539:N:4870, V-A:TYR:539:CZ:4877, V-A:PRO:540:CB:4885, V-A:TYR:539:CE1:4875, V-A:TYR:531:CZ:4794, V-B:ASP:366:CB:8183, V-B:ASP:366:CA:8181, V-A:LEU:363:CD1:3188, V-B:ASP:366:C:8179, V-B:TYR:539:CZ:9849, V-B:LYS:534:CE:9794, V-A:LEU:363:CA:3184, V-A:LEU:363:CB:3186, V-B:ILE:369:CG2:8208, V-A:ASN:362:CB:3175, H-A:LEU:363:N:3185"]

$$$$
3af_Grossjean_2025
     RDKit          3D

 29 31  0  0  0  0  0  0  0  0999 V2000
  126.7010  130.1180   54.3590 N   0  0  0  0  0  0  0  0  0  0  0  0
  127.4970  130.3160   55.1750 C   0  0  0  0  0  0  0  0  0  0  0  0
  128.5070  130.5670   56.2070 C   0  0  0  0  0  0  0  0  0  0  0  0
  129.8140  130.9810   55.8530 C   0  0  0  0  0  0  0  0  0  0  0  0
  130.2390  131.2390   54.3930 C   0  0  0  0  0  0  0  0  0  0  0  0
  131.5150  131.6160   54.2840 F   0  0  0  0  0  0  0  0  0  0  0  0
  130.0850  130.1280   53.6720 F   0  0  0  0  0  0  0  0  0  0  0  0
  129.4920  132.2080   53.8630 F   0  0  0  0  0  0  0  0  0  0  0  0
  130.7620  131.1560   56.8730 C   0  0  0  0  0  0  0  0  0  0  0  0
  130.4150  130.9220   58.2070 C   0  0  0  0  0  0  0  0  0  0  0  0
  131.3930  131.0750   59.3340 C   0  0  0  0  0  0  0  0  0  0  0  0
  132.7680  130.8870   59.1210 C   0  0  0  0  0  0  0  0  0  0  0  0
  133.6810  131.0300   60.1630 C   0  0  0  0  0  0  0  0  0  0  0  0
  133.2290  131.3640   61.4350 C   0  0  0  0  0  0  0  0  0  0  0  0
  131.8720  131.5590   61.6720 C   0  0  0  0  0  0  0  0  0  0  0  0
  130.9630  131.4160   60.6270 C   0  0  0  0  0  0  0  0  0  0  0  0
  129.1620  130.5210   58.5420 N   0  0  0  0  0  0  0  0  0  0  0  0
  128.2230  130.3680   57.5770 C   0  0  0  0  0  0  0  0  0  0  0  0
  126.6390  129.8530   58.2090 S   0  0  0  0  0  0  0  0  0  0  0  0
  126.5160  128.0490   58.0170 C   0  0  0  0  0  0  0  0  0  0  0  0
  127.8910  127.3820   58.0180 C   0  0  0  0  0  0  0  0  0  0  0  0
  128.3560  126.9680   59.0790 O   0  0  0  0  0  0  0  0  0  0  0  0
  128.5000  127.3100   56.8140 N   0  0  0  0  0  0  0  0  0  0  0  0
  129.7560  126.7730   56.4730 C   0  0  0  0  0  0  0  0  0  0  0  0
  130.7720  126.4210   57.3810 C   0  0  0  0  0  0  0  0  0  0  0  0
  131.9760  125.8980   56.9020 C   0  0  0  0  0  0  0  0  0  0  0  0
  132.1350  125.7400   55.5250 C   0  0  0  0  0  0  0  0  0  0  0  0
  131.1720  126.0710   54.6300 N   0  0  0  0  0  0  0  0  0  0  0  0
  130.0080  126.5780   55.1110 C   0  0  0  0  0  0  0  0  0  0  0  0
  1  2  3  0
  2  3  1  0
  3  4  2  0
  4  5  1  0
  5  6  1  0
  5  7  1  0
  5  8  1  0
  4  9  1  0
  9 10  2  0
 10 11  1  0
 11 12  2  0
 12 13  1  0
 13 14  2  0
 14 15  1  0
 15 16  2  0
 10 17  1  0
 17 18  2  0
 18 19  1  0
 19 20  1  0
 20 21  1  0
 21 22  2  0
 21 23  1  0
 23 24  1  0
 24 25  2  0
 25 26  1  0
 26 27  2  0
 27 28  1  0
 28 29  2  0
 18  3  1  0
 29 24  1  0
 16 11  1  0
M  END
>  <Binding energies>  (15) 
[-7.92]

>  <Ligand effiencies>  (15) 
[-0.264]

>  <Interactions>  (15) 
["H-B:TYR:531:OH:9767, V-B:TYR:531:CZ:9766, V-A:ASP:366:CG:3212, V-A:TYR:531:CE1:4792, V-A:ILE:538:CA:4860, V-A:MET:535:CB:4832, V-A:ASP:366:CB:3211, V-A:ILE:538:CG2:4863, V-A:ASN:370:CB:3244, H-B:TYR:539:OH:9850, V-A:PRO:540:CA:4883, H-A:TYR:531:OH:4795, V-A:TYR:539:CZ:4877, V-A:PRO:540:CB:4885, V-A:TYR:539:CE1:4875, V-A:TYR:531:CZ:4794, V-A:ILE:538:CB:4862, V-A:MET:535:CG:4833, V-B:TYR:531:CE1:9764, H-B:LYS:534:NZ:9795, V-A:PRO:540:C:4881, V-A:GLU:543:CD:4908, H-A:TYR:539:OH:4878, V-A:ILE:538:C:4858, V-A:TYR:531:CE2:4793, V-A:LEU:363:CA:3184, V-A:ASN:362:CB:3175, V-A:ASN:362:C:3171, V-A:ALA:541:CA:4890, V-A:VAL:537:C:4850"]

$$$$
3ag_Grossjean_2025
     RDKit          3D

 30 32  0  0  0  0  0  0  0  0999 V2000
  127.0050  126.2300   58.6230 N   0  0  0  0  0  0  0  0  0  0  0  0
  127.6060  125.2920   58.9390 C   0  0  0  0  0  0  0  0  0  0  0  0
  128.3620  124.1030   59.3410 C   0  0  0  0  0  0  0  0  0  0  0  0
  127.8240  123.1830   60.2730 C   0  0  0  0  0  0  0  0  0  0  0  0
  126.4110  123.3350   60.8710 C   0  0  0  0  0  0  0  0  0  0  0  0
  125.4470  123.2290   59.9540 F   0  0  0  0  0  0  0  0  0  0  0  0
  126.2020  122.3890   61.7860 F   0  0  0  0  0  0  0  0  0  0  0  0
  126.2820  124.5310   61.4480 F   0  0  0  0  0  0  0  0  0  0  0  0
  128.6090  122.0890   60.6670 C   0  0  0  0  0  0  0  0  0  0  0  0
  129.9000  121.9250   60.1540 C   0  0  0  0  0  0  0  0  0  0  0  0
  130.7830  120.7770   60.5410 C   0  0  0  0  0  0  0  0  0  0  0  0
  130.2430  119.6280   61.1410 C   0  0  0  0  0  0  0  0  0  0  0  0
  131.0570  118.5590   61.5040 C   0  0  0  0  0  0  0  0  0  0  0  0
  132.4270  118.6240   61.2700 C   0  0  0  0  0  0  0  0  0  0  0  0
  132.9880  119.7520   60.6790 C   0  0  0  0  0  0  0  0  0  0  0  0
  132.1710  120.8200   60.3200 C   0  0  0  0  0  0  0  0  0  0  0  0
  130.4080  122.8020   59.2500 N   0  0  0  0  0  0  0  0  0  0  0  0
  129.6600  123.8550   58.8410 C   0  0  0  0  0  0  0  0  0  0  0  0
  130.4840  124.8940   57.6550 S   0  0  0  0  0  0  0  0  0  0  0  0
  129.3680  125.0830   56.2330 C   0  0  0  0  0  0  0  0  0  0  0  0
  129.8600  126.1470   55.2500 C   0  0  0  0  0  0  0  0  0  0  0  0
  131.0380  126.1480   54.8850 O   0  0  0  0  0  0  0  0  0  0  0  0
  128.9470  127.0380   54.8270 N   0  0  0  0  0  0  0  0  0  0  0  0
  129.1910  128.1120   53.8640 C   0  0  0  0  0  0  0  0  0  0  0  0
  129.1590  129.5100   54.4710 C   0  0  0  0  0  0  0  0  0  0  0  0
  129.1420  130.6290   53.6340 C   0  0  0  0  0  0  0  0  0  0  0  0
  129.0820  131.9080   54.1840 C   0  0  0  0  0  0  0  0  0  0  0  0
  129.0300  132.0610   55.5680 C   0  0  0  0  0  0  0  0  0  0  0  0
  129.0310  130.9500   56.4070 C   0  0  0  0  0  0  0  0  0  0  0  0
  129.0900  129.6710   55.8580 C   0  0  0  0  0  0  0  0  0  0  0  0
  1  2  3  0
  2  3  1  0
  3  4  2  0
  4  5  1  0
  5  6  1  0
  5  7  1  0
  5  8  1  0
  4  9  1  0
  9 10  2  0
 10 11  1  0
 11 12  2  0
 12 13  1  0
 13 14  2  0
 14 15  1  0
 15 16  2  0
 10 17  1  0
 17 18  2  0
 18 19  1  0
 19 20  1  0
 20 21  1  0
 21 22  2  0
 21 23  1  0
 23 24  1  0
 24 25  1  0
 25 26  2  0
 26 27  1  0
 27 28  2  0
 28 29  1  0
 29 30  2  0
 18  3  1  0
 30 25  1  0
 16 11  1  0
M  END
>  <Binding energies>  (16) 
[-8.12]

>  <Ligand effiencies>  (16) 
[-0.2619354838709677]

>  <Interactions>  (16) 
["V-B:PRO:540:CB:9857, H-B:TYR:531:OH:9767, V-B:MET:535:CE:9807, V-A:ILE:369:CG2:3236, V-B:TYR:539:CD2:9846, V-A:LEU:475:CD1:4257, V-B:PRO:540:CA:9855, V-B:PRO:540:C:9853, V-B:ALA:541:CB:9864, V-B:TYR:539:CE2:9848, V-B:TYR:539:C:9839, V-A:PRO:482:CG:4326, V-A:PRO:482:CB:4325, V-A:ILE:538:CA:4860, V-A:TYR:539:CG:4872, V-A:ILE:538:CG2:4863, H-B:TYR:539:OH:9850, V-A:TYR:539:CD1:4873, H-A:TYR:531:OH:4795, V-A:TYR:539:CZ:4877, V-A:TYR:539:CE1:4875, V-A:ILE:538:CB:4862, V-A:MET:535:CG:4833, V-B:GLU:543:CD:9880, H-B:MET:535:SD:9806, V-B:LYS:534:CE:9794, V-B:ALA:541:CA:9862, V-A:MET:535:CE:4835, V-B:ALA:541:C:9860"]

$$$$
3bc_Grossjean_2025
     RDKit          3D

 28 30  0  0  0  0  0  0  0  0999 V2000
  132.6530  131.7500   61.6690 C   0  0  0  0  0  0  0  0  0  0  0  0
  133.4000  131.1180   60.6360 O   0  0  0  0  0  0  0  0  0  0  0  0
  132.8330  130.9820   59.3820 C   0  0  0  0  0  0  0  0  0  0  0  0
  131.4750  131.2840   59.2780 C   0  0  0  0  0  0  0  0  0  0  0  0
  130.8160  131.1760   58.0560 C   0  0  0  0  0  0  0  0  0  0  0  0
  131.5090  130.7560   56.9190 C   0  0  0  0  0  0  0  0  0  0  0  0
  130.7620  130.6900   55.7280 N   0  0  0  0  0  0  0  0  0  0  0  0
  129.7880  131.5130   55.2860 C   0  0  0  0  0  0  0  0  0  0  0  0
  129.4070  132.5280   55.8730 O   0  0  0  0  0  0  0  0  0  0  0  0
  129.1820  131.1210   53.9310 C   0  0  0  0  0  0  0  0  0  0  0  0
  128.7920  129.3490   53.7390 S   0  0  0  0  0  0  0  0  0  0  0  0
  128.5550  128.6660   55.3640 C   0  0  0  0  0  0  0  0  0  0  0  0
  127.6190  129.3160   56.0990 N   0  0  0  0  0  0  0  0  0  0  0  0
  127.3370  128.8970   57.3600 C   0  0  0  0  0  0  0  0  0  0  0  0
  126.3050  129.6840   58.1120 C   0  0  0  0  0  0  0  0  0  0  0  0
  126.6010  130.2370   59.3670 C   0  0  0  0  0  0  0  0  0  0  0  0
  125.6480  130.9690   60.0720 C   0  0  0  0  0  0  0  0  0  0  0  0
  124.3820  131.1550   59.5280 C   0  0  0  0  0  0  0  0  0  0  0  0
  124.0610  130.6150   58.2880 C   0  0  0  0  0  0  0  0  0  0  0  0
  125.0170  129.8830   57.5870 C   0  0  0  0  0  0  0  0  0  0  0  0
  127.9990  127.7980   57.9170 C   0  0  0  0  0  0  0  0  0  0  0  0
  128.9510  127.1010   57.1640 C   0  0  0  0  0  0  0  0  0  0  0  0
  129.6370  125.8970   57.8070 C   0  0  0  0  0  0  0  0  0  0  0  0
  129.2390  127.5280   55.8490 C   0  0  0  0  0  0  0  0  0  0  0  0
  130.1950  126.7850   55.0260 C   0  0  0  0  0  0  0  0  0  0  0  0
  130.9510  126.1960   54.3780 N   0  0  0  0  0  0  0  0  0  0  0  0
  132.8770  130.4630   57.0120 C   0  0  0  0  0  0  0  0  0  0  0  0
  133.5330  130.5720   58.2360 C   0  0  0  0  0  0  0  0  0  0  0  0
  1  2  1  0
  2  3  1  0
  3  4  2  0
  4  5  1  0
  5  6  2  0
  6  7  1  0
  7  8  1  0
  8  9  2  0
  8 10  1  0
 10 11  1  0
 11 12  1  0
 12 13  2  0
 13 14  1  0
 14 15  1  0
 15 16  2  0
 16 17  1  0
 17 18  2  0
 18 19  1  0
 19 20  2  0
 14 21  2  0
 21 22  1  0
 22 23  1  0
 22 24  2  0
 24 25  1  0
 25 26  3  0
  6 27  1  0
 27 28  2  0
 28  3  1  0
 24 12  1  0
 20 15  1  0
M  END
>  <Binding energies>  (17) 
[-8.74]

>  <Ligand effiencies>  (17) 
[-0.30137931034482757]

>  <Interactions>  (17) 
["H-B:TYR:531:OH:9767, V-A:ASP:366:CG:3212, V-A:PRO:540:N:4884, V-A:ASP:366:CB:3211, V-A:ILE:538:CG2:4863, H-B:TYR:539:OH:9850, V-A:PRO:540:CA:4883, H-A:TYR:531:OH:4795, H-A:TYR:539:N:4870, V-A:TYR:539:CZ:4877, V-A:PRO:540:CB:4885, V-A:TYR:539:CE1:4875, V-A:TYR:531:CZ:4794, V-B:ASP:366:CB:8183, V-A:PRO:540:C:4881, V-B:ASP:366:CA:8181, V-A:LEU:363:CD1:3188, V-B:ASP:366:C:8179, V-B:LYS:534:CE:9794, V-A:LEU:363:CA:3184, V-A:LEU:363:CB:3186, V-B:ILE:369:CG2:8208, V-A:ASN:362:CB:3175, V-B:ILE:369:CB:8207, V-A:ALA:541:C:4888"]

$$$$
3bd_Grossjean_2025
     RDKit          3D

 26 28  0  0  0  0  0  0  0  0999 V2000
  129.4560  125.7200   57.7170 C   0  0  0  0  0  0  0  0  0  0  0  0
  128.8980  127.0090   57.1180 C   0  0  0  0  0  0  0  0  0  0  0  0
  127.9870  127.7520   57.8770 C   0  0  0  0  0  0  0  0  0  0  0  0
  127.4490  128.9370   57.3620 C   0  0  0  0  0  0  0  0  0  0  0  0
  126.4730  129.7830   58.1240 C   0  0  0  0  0  0  0  0  0  0  0  0
  126.8940  130.5580   59.2160 C   0  0  0  0  0  0  0  0  0  0  0  0
  125.9920  131.3440   59.9290 C   0  0  0  0  0  0  0  0  0  0  0  0
  124.6510  131.3640   59.5590 C   0  0  0  0  0  0  0  0  0  0  0  0
  124.2070  130.6030   58.4830 C   0  0  0  0  0  0  0  0  0  0  0  0
  125.1120  129.8190   57.7730 C   0  0  0  0  0  0  0  0  0  0  0  0
  127.8120  129.3880   56.1320 N   0  0  0  0  0  0  0  0  0  0  0  0
  128.6930  128.6800   55.3820 C   0  0  0  0  0  0  0  0  0  0  0  0
  129.0770  129.3720   53.7810 S   0  0  0  0  0  0  0  0  0  0  0  0
  129.3170  131.1630   53.9850 C   0  0  0  0  0  0  0  0  0  0  0  0
  129.8610  131.5140   55.3710 C   0  0  0  0  0  0  0  0  0  0  0  0
  129.4190  132.5050   55.9530 O   0  0  0  0  0  0  0  0  0  0  0  0
  130.8190  130.6910   55.8490 N   0  0  0  0  0  0  0  0  0  0  0  0
  131.4870  130.7360   57.0880 C   0  0  0  0  0  0  0  0  0  0  0  0
  130.6880  130.9730   58.2090 C   0  0  0  0  0  0  0  0  0  0  0  0
  131.2610  131.0420   59.4760 C   0  0  0  0  0  0  0  0  0  0  0  0
  132.6360  130.8850   59.6220 C   0  0  0  0  0  0  0  0  0  0  0  0
  133.4450  130.6630   58.5100 C   0  0  0  0  0  0  0  0  0  0  0  0
  132.8750  130.5910   57.2420 C   0  0  0  0  0  0  0  0  0  0  0  0
  129.2660  127.4730   55.8370 C   0  0  0  0  0  0  0  0  0  0  0  0
  130.2190  126.7180   55.0170 C   0  0  0  0  0  0  0  0  0  0  0  0
  130.9720  126.1230   54.3710 N   0  0  0  0  0  0  0  0  0  0  0  0
  1  2  1  0
  2  3  2  0
  3  4  1  0
  4  5  1  0
  5  6  2  0
  6  7  1  0
  7  8  2  0
  8  9  1  0
  9 10  2  0
  4 11  2  0
 11 12  1  0
 12 13  1  0
 13 14  1  0
 14 15  1  0
 15 16  2  0
 15 17  1  0
 17 18  1  0
 18 19  2  0
 19 20  1  0
 20 21  2  0
 21 22  1  0
 22 23  2  0
 12 24  2  0
 24 25  1  0
 25 26  3  0
 24  2  1  0
 10  5  1  0
 23 18  1  0
M  END
>  <Binding energies>  (18) 
[-8.6]

>  <Ligand effiencies>  (18) 
[-0.3185185185185185]

>  <Interactions>  (18) 
["H-B:TYR:531:OH:9767, V-A:ASP:366:CG:3212, V-A:ASP:366:CB:3211, V-A:ILE:538:CG2:4863, H-B:TYR:539:OH:9850, V-A:TYR:539:CD1:4873, V-A:PRO:540:CA:4883, H-A:TYR:531:OH:4795, H-A:TYR:539:N:4870, V-A:TYR:539:CZ:4877, V-A:PRO:540:CB:4885, V-A:TYR:539:CE1:4875, V-B:ASP:366:CB:8183, V-B:ASP:366:CA:8181, V-A:LEU:363:CD1:3188, V-B:ASP:366:C:8179, V-A:LEU:363:CA:3184, V-A:LEU:363:CB:3186, V-B:ILE:369:CG2:8208"]

$$$$
3be_Grossjean_2025
     RDKit          3D

 27 29  0  0  0  0  0  0  0  0999 V2000
  130.7480  131.3270   60.6530 C   0  0  0  0  0  0  0  0  0  0  0  0
  131.5370  131.0560   59.3870 C   0  0  0  0  0  0  0  0  0  0  0  0
  132.9230  130.8820   59.4120 C   0  0  0  0  0  0  0  0  0  0  0  0
  133.5840  130.6390   58.2080 C   0  0  0  0  0  0  0  0  0  0  0  0
  132.8520  130.5740   57.0200 C   0  0  0  0  0  0  0  0  0  0  0  0
  131.4650  130.7530   57.0660 C   0  0  0  0  0  0  0  0  0  0  0  0
  130.7850  130.6860   55.8350 N   0  0  0  0  0  0  0  0  0  0  0  0
  129.8650  131.5360   55.3310 C   0  0  0  0  0  0  0  0  0  0  0  0
  129.4560  132.5470   55.9050 O   0  0  0  0  0  0  0  0  0  0  0  0
  129.3340  131.1570   53.9390 C   0  0  0  0  0  0  0  0  0  0  0  0
  128.8810  129.4010   53.7330 S   0  0  0  0  0  0  0  0  0  0  0  0
  128.6270  128.7030   55.3500 C   0  0  0  0  0  0  0  0  0  0  0  0
  127.6990  129.3620   56.0870 N   0  0  0  0  0  0  0  0  0  0  0  0
  127.4010  128.9340   57.3420 C   0  0  0  0  0  0  0  0  0  0  0  0
  126.3730  129.7270   58.0950 C   0  0  0  0  0  0  0  0  0  0  0  0
  125.0800  129.9010   57.5770 C   0  0  0  0  0  0  0  0  0  0  0  0
  124.1230  130.6370   58.2690 C   0  0  0  0  0  0  0  0  0  0  0  0
  124.4470  131.2130   59.4920 C   0  0  0  0  0  0  0  0  0  0  0  0
  125.7210  131.0580   60.0270 C   0  0  0  0  0  0  0  0  0  0  0  0
  126.6760  130.3210   59.3310 C   0  0  0  0  0  0  0  0  0  0  0  0
  128.0430  127.8190   57.8910 C   0  0  0  0  0  0  0  0  0  0  0  0
  128.9850  127.1130   57.1360 C   0  0  0  0  0  0  0  0  0  0  0  0
  129.6490  125.8920   57.7700 C   0  0  0  0  0  0  0  0  0  0  0  0
  129.2870  127.5470   55.8270 C   0  0  0  0  0  0  0  0  0  0  0  0
  130.2290  126.7920   54.9990 C   0  0  0  0  0  0  0  0  0  0  0  0
  130.9740  126.1930   54.3470 N   0  0  0  0  0  0  0  0  0  0  0  0
  130.8130  130.9950   58.2410 N   0  0  0  0  0  0  0  0  0  0  0  0
  1  2  1  0
  2  3  2  0
  3  4  1  0
  4  5  2  0
  5  6  1  0
  6  7  1  0
  7  8  1  0
  8  9  2  0
  8 10  1  0
 10 11  1  0
 11 12  1  0
 12 13  2  0
 13 14  1  0
 14 15  1  0
 15 16  2  0
 16 17  1  0
 17 18  2  0
 18 19  1  0
 19 20  2  0
 14 21  2  0
 21 22  1  0
 22 23  1  0
 22 24  2  0
 24 25  1  0
 25 26  3  0
  6 27  2  0
 27  2  1  0
 24 12  1  0
 20 15  1  0
M  END
>  <Binding energies>  (19) 
[-8.72]

>  <Ligand effiencies>  (19) 
[-0.31142857142857144]

>  <Interactions>  (19) 
["H-B:TYR:531:OH:9767, V-A:ASP:366:CG:3212, V-A:ASP:366:CB:3211, V-A:ILE:538:CG2:4863, H-B:TYR:539:OH:9850, V-A:PRO:540:CA:4883, H-A:TYR:531:OH:4795, H-A:TYR:539:N:4870, V-A:TYR:539:CZ:4877, V-A:PRO:540:CB:4885, V-A:TYR:539:CE1:4875, V-A:TYR:531:CZ:4794, V-A:ILE:538:CB:4862, V-B:ASP:366:CB:8183, V-B:ASP:366:CA:8181, V-A:LEU:363:CD1:3188, V-B:ASP:366:C:8179, V-A:LEU:363:CA:3184, V-A:LEU:363:CB:3186, V-B:ILE:369:CG2:8208, V-B:ILE:369:CB:8207"]

$$$$
3bf_Grossjean_2025
     RDKit          3D

 26 28  0  0  0  0  0  0  0  0999 V2000
  130.2430  131.1020   54.1450 C   0  0  0  0  0  0  0  0  0  0  0  0
  129.8130  130.8320   55.5850 C   0  0  0  0  0  0  0  0  0  0  0  0
  130.7640  130.9920   56.5980 C   0  0  0  0  0  0  0  0  0  0  0  0
  130.4080  130.7690   57.9330 C   0  0  0  0  0  0  0  0  0  0  0  0
  131.3740  130.9450   59.0660 C   0  0  0  0  0  0  0  0  0  0  0  0
  132.7560  130.8240   58.8550 C   0  0  0  0  0  0  0  0  0  0  0  0
  133.6590  130.9860   59.9020 C   0  0  0  0  0  0  0  0  0  0  0  0
  133.1890  131.2710   61.1800 C   0  0  0  0  0  0  0  0  0  0  0  0
  131.8240  131.3950   61.4160 C   0  0  0  0  0  0  0  0  0  0  0  0
  130.9240  131.2310   60.3660 C   0  0  0  0  0  0  0  0  0  0  0  0
  129.1440  130.3950   58.2640 N   0  0  0  0  0  0  0  0  0  0  0  0
  128.2180  130.2110   57.2910 C   0  0  0  0  0  0  0  0  0  0  0  0
  126.6230  129.7160   57.9100 S   0  0  0  0  0  0  0  0  0  0  0  0
  126.6440  127.9070   58.1460 C   0  0  0  0  0  0  0  0  0  0  0  0
  128.0300  127.2530   58.0540 C   0  0  0  0  0  0  0  0  0  0  0  0
  128.5580  126.7540   59.0500 O   0  0  0  0  0  0  0  0  0  0  0  0
  128.5730  127.2540   56.8170 N   0  0  0  0  0  0  0  0  0  0  0  0
  129.8190  126.7510   56.3990 C   0  0  0  0  0  0  0  0  0  0  0  0
  130.8320  126.6740   57.3600 C   0  0  0  0  0  0  0  0  0  0  0  0
  132.0870  126.1720   57.0110 C   0  0  0  0  0  0  0  0  0  0  0  0
  132.2930  125.7510   55.6970 C   0  0  0  0  0  0  0  0  0  0  0  0
  131.3270  125.8040   54.7460 N   0  0  0  0  0  0  0  0  0  0  0  0
  130.1110  126.2950   55.1010 C   0  0  0  0  0  0  0  0  0  0  0  0
  128.5010  130.4370   55.9260 C   0  0  0  0  0  0  0  0  0  0  0  0
  127.4770  130.3110   54.8860 C   0  0  0  0  0  0  0  0  0  0  0  0
  126.6690  130.2110   54.0630 N   0  0  0  0  0  0  0  0  0  0  0  0
  1  2  1  0
  2  3  2  0
  3  4  1  0
  4  5  1  0
  5  6  2  0
  6  7  1  0
  7  8  2  0
  8  9  1  0
  9 10  2  0
  4 11  2  0
 11 12  1  0
 12 13  1  0
 13 14  1  0
 14 15  1  0
 15 16  2  0
 15 17  1  0
 17 18  1  0
 18 19  2  0
 19 20  1  0
 20 21  2  0
 21 22  1  0
 22 23  2  0
 12 24  2  0
 24 25  1  0
 25 26  3  0
 24  2  1  0
 10  5  1  0
 23 18  1  0
M  END
>  <Binding energies>  (20) 
[-8.29]

>  <Ligand effiencies>  (20) 
[-0.307037037037037]

>  <Interactions>  (20) 
["H-B:TYR:531:OH:9767, V-B:MET:535:CE:9807, V-B:TYR:531:CZ:9766, V-A:ASP:366:CG:3212, V-A:TYR:531:CE1:4792, V-A:ASP:366:CB:3211, V-A:ILE:538:CG2:4863, V-A:ASN:370:CB:3244, H-B:TYR:539:OH:9850, V-A:PRO:540:CA:4883, H-A:TYR:531:OH:4795, V-A:TYR:539:CZ:4877, V-A:PRO:540:CB:4885, V-A:TYR:539:CE1:4875, V-A:TYR:531:CZ:4794, V-A:ILE:538:CB:4862, V-B:TYR:531:CE1:9764, H-B:LYS:534:NZ:9795, V-A:PRO:540:C:4881, V-A:GLU:543:CD:4908, H-A:TYR:539:OH:4878, V-A:LEU:363:CA:3184, V-A:ASN:362:CB:3175, V-A:ASN:362:C:3171"]

$$$$
3bg_Grossjean_2025
     RDKit          3D

 27 29  0  0  0  0  0  0  0  0999 V2000
  129.5260  125.7500   57.8160 C   0  0  0  0  0  0  0  0  0  0  0  0
  128.9340  127.0150   57.1980 C   0  0  0  0  0  0  0  0  0  0  0  0
  128.0180  127.7540   57.9530 C   0  0  0  0  0  0  0  0  0  0  0  0
  127.4570  128.9250   57.4270 C   0  0  0  0  0  0  0  0  0  0  0  0
  126.4760  129.7710   58.1910 C   0  0  0  0  0  0  0  0  0  0  0  0
  126.8840  130.5310   59.3000 C   0  0  0  0  0  0  0  0  0  0  0  0
  125.9830  131.3300   59.9980 C   0  0  0  0  0  0  0  0  0  0  0  0
  124.6520  131.3800   59.5990 C   0  0  0  0  0  0  0  0  0  0  0  0
  124.2160  130.6290   58.5130 C   0  0  0  0  0  0  0  0  0  0  0  0
  125.1210  129.8310   57.8190 C   0  0  0  0  0  0  0  0  0  0  0  0
  127.8090  129.3640   56.1890 N   0  0  0  0  0  0  0  0  0  0  0  0
  128.6990  128.6600   55.4440 C   0  0  0  0  0  0  0  0  0  0  0  0
  129.1010  129.3620   53.8520 S   0  0  0  0  0  0  0  0  0  0  0  0
  128.9240  131.1730   53.9650 C   0  0  0  0  0  0  0  0  0  0  0  0
  129.8650  131.7740   55.0130 C   0  0  0  0  0  0  0  0  0  0  0  0
  129.5720  132.8360   55.5640 O   0  0  0  0  0  0  0  0  0  0  0  0
  130.9990  131.0950   55.2590 N   0  0  0  0  0  0  0  0  0  0  0  0
  132.1140  131.5710   56.0770 C   0  0  0  0  0  0  0  0  0  0  0  0
  131.8540  131.3640   57.5640 C   0  0  0  0  0  0  0  0  0  0  0  0
  130.5620  131.5180   58.0780 C   0  0  0  0  0  0  0  0  0  0  0  0
  130.3250  131.3390   59.4370 C   0  0  0  0  0  0  0  0  0  0  0  0
  131.3800  130.9920   60.2800 C   0  0  0  0  0  0  0  0  0  0  0  0
  132.6660  130.8170   59.7740 C   0  0  0  0  0  0  0  0  0  0  0  0
  132.9020  130.9970   58.4130 C   0  0  0  0  0  0  0  0  0  0  0  0
  129.2860  127.4650   55.9080 C   0  0  0  0  0  0  0  0  0  0  0  0
  130.2490  126.7160   55.0950 C   0  0  0  0  0  0  0  0  0  0  0  0
  131.0090  126.1240   54.4550 N   0  0  0  0  0  0  0  0  0  0  0  0
  1  2  1  0
  2  3  2  0
  3  4  1  0
  4  5  1  0
  5  6  2  0
  6  7  1  0
  7  8  2  0
  8  9  1  0
  9 10  2  0
  4 11  2  0
 11 12  1  0
 12 13  1  0
 13 14  1  0
 14 15  1  0
 15 16  2  0
 15 17  1  0
 17 18  1  0
 18 19  1  0
 19 20  2  0
 20 21  1  0
 21 22  2  0
 22 23  1  0
 23 24  2  0
 12 25  2  0
 25 26  1  0
 26 27  3  0
 25  2  1  0
 10  5  1  0
 24 19  1  0
M  END
>  <Binding energies>  (21) 
[-8.8]

>  <Ligand effiencies>  (21) 
[-0.31428571428571433]

>  <Interactions>  (21) 
["H-B:TYR:531:OH:9767, V-A:ASP:366:CG:3212, V-A:PRO:540:N:4884, V-A:ILE:538:CA:4860, V-A:ILE:538:CG2:4863, H-B:TYR:539:OH:9850, V-A:TYR:539:CD1:4873, V-A:PRO:540:CA:4883, H-A:TYR:531:OH:4795, H-A:TYR:539:N:4870, V-A:PRO:540:CB:4885, V-A:TYR:539:CE1:4875, V-A:TYR:531:CZ:4794, V-A:ILE:538:CB:4862, V-B:ASP:366:CB:8183, V-B:ASP:366:CA:8181, V-A:TYR:539:C:4867, V-A:LEU:363:CD1:3188, V-B:ASP:366:C:8179, V-B:LYS:534:CE:9794, V-A:TYR:531:CE2:4793, V-A:LEU:363:CA:3184, V-B:ILE:369:CG2:8208"]

$$$$
3ca_Grossjean_2025
     RDKit          3D

 31 33  0  0  0  0  0  0  0  0999 V2000
  127.3970  128.0770   67.1140 C   0  0  0  0  0  0  0  0  0  0  0  0
  128.7500  128.6730   67.5130 C   0  0  0  0  0  0  0  0  0  0  0  0
  129.2760  127.9540   68.6220 O   0  0  0  0  0  0  0  0  0  0  0  0
  129.4260  126.6070   68.5770 C   0  0  0  0  0  0  0  0  0  0  0  0
  129.1240  125.8560   69.5100 O   0  0  0  0  0  0  0  0  0  0  0  0
  129.9920  126.1160   67.2750 C   0  0  0  0  0  0  0  0  0  0  0  0
  131.3220  126.4110   66.9520 C   0  0  0  0  0  0  0  0  0  0  0  0
  131.8750  125.9700   65.7530 C   0  0  0  0  0  0  0  0  0  0  0  0
  131.1070  125.2330   64.8490 C   0  0  0  0  0  0  0  0  0  0  0  0
  131.7640  124.8360   63.6680 N   0  0  0  0  0  0  0  0  0  0  0  0
  133.0850  124.7480   63.4050 C   0  0  0  0  0  0  0  0  0  0  0  0
  133.9890  124.9940   64.2030 O   0  0  0  0  0  0  0  0  0  0  0  0
  133.4410  124.2770   61.9900 C   0  0  0  0  0  0  0  0  0  0  0  0
  132.3650  122.9330   61.3900 S   0  0  0  0  0  0  0  0  0  0  0  0
  131.5050  123.4570   59.9130 C   0  0  0  0  0  0  0  0  0  0  0  0
  132.2420  124.1740   59.0270 N   0  0  0  0  0  0  0  0  0  0  0  0
  131.6630  124.5860   57.8780 C   0  0  0  0  0  0  0  0  0  0  0  0
  132.5560  125.3640   56.9330 C   0  0  0  0  0  0  0  0  0  0  0  0
  130.3310  124.3170   57.5720 C   0  0  0  0  0  0  0  0  0  0  0  0
  129.5440  123.5950   58.4790 C   0  0  0  0  0  0  0  0  0  0  0  0
  128.1170  123.3420   58.1140 C   0  0  0  0  0  0  0  0  0  0  0  0
  127.1050  124.1660   58.6230 C   0  0  0  0  0  0  0  0  0  0  0  0
  125.7720  123.9330   58.2960 C   0  0  0  0  0  0  0  0  0  0  0  0
  125.4440  122.8680   57.4600 C   0  0  0  0  0  0  0  0  0  0  0  0
  126.4370  122.0350   56.9520 C   0  0  0  0  0  0  0  0  0  0  0  0
  127.7690  122.2710   57.2810 C   0  0  0  0  0  0  0  0  0  0  0  0
  130.1450  123.1410   59.6810 C   0  0  0  0  0  0  0  0  0  0  0  0
  129.3850  122.3370   60.6440 C   0  0  0  0  0  0  0  0  0  0  0  0
  128.7850  121.7020   61.4030 N   0  0  0  0  0  0  0  0  0  0  0  0
  129.7760  124.9260   65.1680 C   0  0  0  0  0  0  0  0  0  0  0  0
  129.2260  125.3660   66.3690 C   0  0  0  0  0  0  0  0  0  0  0  0
  1  2  1  0
  2  3  1  0
  3  4  1  0
  4  5  2  0
  4  6  1  0
  6  7  2  0
  7  8  1  0
  8  9  2  0
  9 10  1  0
 10 11  1  0
 11 12  2  0
 11 13  1  0
 13 14  1  0
 14 15  1  0
 15 16  2  0
 16 17  1  0
 17 18  1  0
 17 19  2  0
 19 20  1  0
 20 21  1  0
 21 22  2  0
 22 23  1  0
 23 24  2  0
 24 25  1  0
 25 26  2  0
 20 27  2  0
 27 28  1  0
 28 29  3  0
  9 30  1  0
 30 31  2  0
 31  6  1  0
 27 15  1  0
 26 21  1  0
M  END
>  <Binding energies>  (22) 
[-8.8]

>  <Ligand effiencies>  (22) 
[-0.275]

>  <Interactions>  (22) 
["H-B:ALA:541:N:9863, V-B:PRO:540:CB:9857, V-B:MET:535:CE:9807, V-B:TYR:539:CD2:9846, V-B:PRO:540:N:9856, V-B:PRO:540:CA:9855, V-B:TYR:539:CE2:9848, V-B:TYR:539:C:9839, V-B:LEU:363:CD1:8160, V-A:ASP:366:CG:3212, H-A:GLY:454:N:4049, V-B:PRO:540:CD:9859, V-A:ASP:366:CA:3209, V-A:ASP:366:CB:3211, V-A:ASP:366:C:3207, V-A:GLU:543:CG:4907, V-A:GLU:543:CD:4908, V-B:TYR:539:CZ:9849, H-A:ARG:545:NH2:4928, V-B:TYR:539:CG:9844, V-B:HIS:456:CE1:9041, V-A:HIS:456:CE1:4069, V-B:GLU:543:CB:9878, V-B:GLU:543:CG:9879, V-B:GLU:543:CD:9880, H-A:ARG:545:NE:4924, V-A:ARG:545:CZ:4926, H-A:ARG:545:NH1:4927, V-A:GLU:543:CB:4906"]

$$$$
3ce_Grossjean_2025
     RDKit          3D

 27 29  0  0  0  0  0  0  0  0999 V2000
  130.8000  131.2870   60.7570 C   0  0  0  0  0  0  0  0  0  0  0  0
  131.5810  131.0460   59.4790 C   0  0  0  0  0  0  0  0  0  0  0  0
  132.9650  130.8570   59.4920 C   0  0  0  0  0  0  0  0  0  0  0  0
  133.6160  130.6300   58.2800 C   0  0  0  0  0  0  0  0  0  0  0  0
  132.8760  130.5990   57.0950 C   0  0  0  0  0  0  0  0  0  0  0  0
  131.4940  130.8060   57.1510 C   0  0  0  0  0  0  0  0  0  0  0  0
  130.7990  130.7430   55.9310 N   0  0  0  0  0  0  0  0  0  0  0  0
  129.9210  131.6370   55.4230 C   0  0  0  0  0  0  0  0  0  0  0  0
  129.5860  132.6880   55.9710 O   0  0  0  0  0  0  0  0  0  0  0  0
  129.3290  131.2820   54.0600 C   0  0  0  0  0  0  0  0  0  0  0  0
  129.3560  129.4910   53.7530 S   0  0  0  0  0  0  0  0  0  0  0  0
  128.7920  128.7330   55.2600 C   0  0  0  0  0  0  0  0  0  0  0  0
  127.8940  129.4790   55.9480 N   0  0  0  0  0  0  0  0  0  0  0  0
  127.3900  128.9830   57.1020 C   0  0  0  0  0  0  0  0  0  0  0  0
  126.3810  129.8630   57.8140 C   0  0  0  0  0  0  0  0  0  0  0  0
  127.7690  127.7450   57.6140 C   0  0  0  0  0  0  0  0  0  0  0  0
  128.7160  126.9710   56.9300 C   0  0  0  0  0  0  0  0  0  0  0  0
  129.1090  125.6610   57.5310 C   0  0  0  0  0  0  0  0  0  0  0  0
  130.3190  125.5410   58.2250 C   0  0  0  0  0  0  0  0  0  0  0  0
  130.6950  124.3220   58.7830 C   0  0  0  0  0  0  0  0  0  0  0  0
  129.8640  123.2140   58.6430 C   0  0  0  0  0  0  0  0  0  0  0  0
  128.6620  123.3140   57.9470 C   0  0  0  0  0  0  0  0  0  0  0  0
  128.2890  124.5340   57.3910 C   0  0  0  0  0  0  0  0  0  0  0  0
  129.2440  127.4710   55.7130 C   0  0  0  0  0  0  0  0  0  0  0  0
  130.2270  126.7000   54.9460 C   0  0  0  0  0  0  0  0  0  0  0  0
  131.0020  126.0890   54.3410 N   0  0  0  0  0  0  0  0  0  0  0  0
  130.8490  131.0210   58.3360 N   0  0  0  0  0  0  0  0  0  0  0  0
  1  2  1  0
  2  3  2  0
  3  4  1  0
  4  5  2  0
  5  6  1  0
  6  7  1  0
  7  8  1  0
  8  9  2  0
  8 10  1  0
 10 11  1  0
 11 12  1  0
 12 13  2  0
 13 14  1  0
 14 15  1  0
 14 16  2  0
 16 17  1  0
 17 18  1  0
 18 19  2  0
 19 20  1  0
 20 21  2  0
 21 22  1  0
 22 23  2  0
 17 24  2  0
 24 25  1  0
 25 26  3  0
  6 27  2  0
 27  2  1  0
 24 12  1  0
 23 18  1  0
M  END
>  <Binding energies>  (23) 
[-8.41]

>  <Ligand effiencies>  (23) 
[-0.3003571428571429]

>  <Interactions>  (23) 
["H-B:TYR:531:OH:9767, V-B:MET:535:CE:9807, V-B:TYR:539:CD2:9846, V-B:TYR:539:CE2:9848, V-A:ASP:366:CG:3212, V-A:ILE:538:CA:4860, V-A:ASP:366:CB:3211, V-A:ILE:538:CG2:4863, H-B:TYR:539:OH:9850, V-A:PRO:540:CA:4883, H-A:TYR:531:OH:4795, H-A:TYR:539:N:4870, V-A:PRO:540:CB:4885, V-A:TYR:539:CE1:4875, V-A:TYR:531:CZ:4794, V-A:ILE:538:CB:4862, V-A:LEU:363:CD1:3188, V-B:TYR:539:CZ:9849, V-A:LEU:363:CA:3184, V-A:LEU:363:CB:3186"]

$$$$
3cj_Grossjean_2025
     RDKit          3D

 25 27  0  0  0  0  0  0  0  0999 V2000
  126.3560  129.9300   57.9660 C   0  0  0  0  0  0  0  0  0  0  0  0
  127.3640  129.0410   57.2630 C   0  0  0  0  0  0  0  0  0  0  0  0
  127.6450  127.7550   57.7200 C   0  0  0  0  0  0  0  0  0  0  0  0
  128.5670  126.9600   57.0250 C   0  0  0  0  0  0  0  0  0  0  0  0
  128.7880  125.5670   57.5120 C   0  0  0  0  0  0  0  0  0  0  0  0
  130.0080  125.2030   58.0950 C   0  0  0  0  0  0  0  0  0  0  0  0
  130.2180  123.8990   58.5370 C   0  0  0  0  0  0  0  0  0  0  0  0
  129.2090  122.9520   58.3910 C   0  0  0  0  0  0  0  0  0  0  0  0
  127.9940  123.2960   57.8050 C   0  0  0  0  0  0  0  0  0  0  0  0
  127.7860  124.6010   57.3640 C   0  0  0  0  0  0  0  0  0  0  0  0
  129.2110  127.5100   55.8900 C   0  0  0  0  0  0  0  0  0  0  0  0
  130.2070  126.7380   55.1390 C   0  0  0  0  0  0  0  0  0  0  0  0
  130.9910  126.1280   54.5450 N   0  0  0  0  0  0  0  0  0  0  0  0
  128.8620  128.8210   55.4960 C   0  0  0  0  0  0  0  0  0  0  0  0
  129.4950  129.5810   54.0150 S   0  0  0  0  0  0  0  0  0  0  0  0
  129.4910  131.3680   54.3690 C   0  0  0  0  0  0  0  0  0  0  0  0
  130.2360  131.6940   55.6670 C   0  0  0  0  0  0  0  0  0  0  0  0
  129.9210  132.6960   56.3130 O   0  0  0  0  0  0  0  0  0  0  0  0
  131.1850  130.8040   56.0290 N   0  0  0  0  0  0  0  0  0  0  0  0
  131.9020  130.7950   57.2150 C   0  0  0  0  0  0  0  0  0  0  0  0
  133.1940  130.6090   57.3770 N   0  0  0  0  0  0  0  0  0  0  0  0
  133.5390  130.6980   58.6460 C   0  0  0  0  0  0  0  0  0  0  0  0
  132.5120  130.9600   59.5480 C   0  0  0  0  0  0  0  0  0  0  0  0
  131.0150  131.0960   58.6750 S   0  0  0  0  0  0  0  0  0  0  0  0
  127.9480  129.5680   56.1640 N   0  0  0  0  0  0  0  0  0  0  0  0
  1  2  1  0
  2  3  2  0
  3  4  1  0
  4  5  1  0
  5  6  2  0
  6  7  1  0
  7  8  2  0
  8  9  1  0
  9 10  2  0
  4 11  2  0
 11 12  1  0
 12 13  3  0
 11 14  1  0
 14 15  1  0
 15 16  1  0
 16 17  1  0
 17 18  2  0
 17 19  1  0
 19 20  1  0
 20 21  2  0
 21 22  1  0
 22 23  2  0
 23 24  1  0
 14 25  2  0
 25  2  1  0
 10  5  1  0
 24 20  1  0
M  END
>  <Binding energies>  (24) 
[-7.84]

>  <Ligand effiencies>  (24) 
[-0.30153846153846153]

>  <Interactions>  (24) 
["H-B:TYR:531:OH:9767, V-B:MET:535:CE:9807, V-B:TYR:539:CD2:9846, V-B:TYR:539:CE2:9848, V-A:ASP:366:CG:3212, V-A:ILE:538:CA:4860, V-A:ASP:366:CB:3211, V-A:ILE:538:CG2:4863, H-B:TYR:539:OH:9850, V-A:PRO:540:CA:4883, H-A:TYR:531:OH:4795, H-A:TYR:539:N:4870, V-A:PRO:540:CB:4885, V-A:TYR:539:CE1:4875, V-A:ILE:538:CB:4862, V-A:LEU:363:CD1:3188, V-B:TYR:539:CZ:9849, V-A:LEU:363:CA:3184, V-A:LEU:363:CB:3186"]

$$$$
4ba_Grossjean_2025
     RDKit          3D

 28 30  0  0  0  0  0  0  0  0999 V2000
  124.9430  122.0200   54.9910 C   0  0  0  0  0  0  0  0  0  0  0  0
  125.4480  122.3060   56.4180 C   0  0  0  0  0  0  0  0  0  0  0  0
  126.9280  121.9530   56.6720 C   0  0  0  0  0  0  0  0  0  0  0  0
  127.5340  121.2540   55.8560 O   0  0  0  0  0  0  0  0  0  0  0  0
  127.5700  122.4900   57.9170 C   0  0  0  0  0  0  0  0  0  0  0  0
  128.9670  122.5460   58.0020 C   0  0  0  0  0  0  0  0  0  0  0  0
  129.5890  123.0380   59.1450 C   0  0  0  0  0  0  0  0  0  0  0  0
  128.8290  123.4880   60.2260 C   0  0  0  0  0  0  0  0  0  0  0  0
  129.5600  123.9570   61.3350 N   0  0  0  0  0  0  0  0  0  0  0  0
  129.1940  124.8110   62.3220 C   0  0  0  0  0  0  0  0  0  0  0  0
  128.1020  125.3780   62.3770 O   0  0  0  0  0  0  0  0  0  0  0  0
  130.2120  125.0550   63.3460 C   0  0  0  0  0  0  0  0  0  0  0  0
  131.8860  124.5860   63.0610 S   0  0  0  0  0  0  0  0  0  0  0  0
  132.3600  125.1330   64.6520 C   0  0  0  0  0  0  0  0  0  0  0  0
  133.6200  125.0350   65.0730 N   0  0  0  0  0  0  0  0  0  0  0  0
  133.8650  125.4910   66.3230 C   0  0  0  0  0  0  0  0  0  0  0  0
  135.3050  125.3620   66.7860 C   0  0  0  0  0  0  0  0  0  0  0  0
  132.8910  126.0420   67.1510 C   0  0  0  0  0  0  0  0  0  0  0  0
  131.5610  126.1480   66.7130 C   0  0  0  0  0  0  0  0  0  0  0  0
  130.5250  126.7630   67.6590 C   0  0  0  0  0  0  0  0  0  0  0  0
  129.5720  127.4430   67.0190 F   0  0  0  0  0  0  0  0  0  0  0  0
  129.9260  125.8000   68.3610 F   0  0  0  0  0  0  0  0  0  0  0  0
  131.1250  127.6090   68.4960 F   0  0  0  0  0  0  0  0  0  0  0  0
  131.2680  125.6700   65.4000 C   0  0  0  0  0  0  0  0  0  0  0  0
  130.0500  125.6030   64.6300 C   0  0  0  0  0  0  0  0  0  0  0  0
  128.8430  126.0400   65.1140 N   0  0  0  0  0  0  0  0  0  0  0  0
  127.4290  123.4290   60.1530 C   0  0  0  0  0  0  0  0  0  0  0  0
  126.8090  122.9360   59.0080 C   0  0  0  0  0  0  0  0  0  0  0  0
  1  2  1  0
  2  3  1  0
  3  4  2  0
  3  5  1  0
  5  6  2  0
  6  7  1  0
  7  8  2  0
  8  9  1  0
  9 10  1  0
 10 11  2  0
 10 12  1  0
 12 13  1  0
 13 14  1  0
 14 15  2  0
 15 16  1  0
 16 17  1  0
 16 18  2  0
 18 19  1  0
 19 20  1  0
 20 21  1  0
 20 22  1  0
 20 23  1  0
 19 24  2  0
 24 25  1  0
 25 26  1  0
  8 27  1  0
 27 28  2  0
 28  5  1  0
 25 12  2  0
 24 14  1  0
M  END
>  <Binding energies>  (25) 
[-7.08]

>  <Ligand effiencies>  (25) 
[-0.22838709677419355]

>  <Interactions>  (25) 
["V-B:PRO:540:CB:9857, V-B:MET:535:CE:9807, V-B:TYR:539:CD2:9846, V-B:PRO:540:N:9856, V-B:PRO:540:CA:9855, H-B:TYR:539:N:9842, V-B:TYR:539:CE2:9848, V-B:MET:535:CG:9805, V-B:TYR:539:C:9839, V-B:TYR:531:CE2:9765, V-B:LEU:363:CD1:8160, V-B:TYR:539:CA:9841, H-A:TYR:484:OH:4347, H-A:GLY:454:N:4049, V-B:PRO:540:CD:9859, V-A:GLU:543:CD:4908, V-B:TYR:539:CZ:9849, H-A:ARG:545:NH2:4928, V-B:TYR:539:CG:9844, V-A:TYR:484:CZ:4346, V-A:HIS:456:CE1:4069, V-A:ARG:545:CD:4923, V-A:ILE:455:C:4051, V-B:GLU:543:CG:9879, H-B:GLU:543:OE1:9881, V-B:GLU:543:CD:9880, H-B:GLU:543:OE2:9882, H-A:ARG:545:NE:4924, V-A:ARG:545:CG:4922, V-A:ARG:545:CZ:4926, V-A:GLU:543:CB:4906, V-A:TYR:484:CE2:4345, V-B:ILE:538:CA:9832, V-B:ILE:538:CG1:9836, V-B:ILE:538:CG2:9835, V-B:ILE:538:CB:9834, H-A:GLU:543:OE1:4909, V-A:GLY:454:CA:4048, V-A:GLY:453:CA:4043, V-A:GLY:453:C:4041, V-A:GLY:454:C:4046, V-A:ILE:455:CA:4053"]

$$$$
4bb_Grossjean_2025
     RDKit          3D

 27 29  0  0  0  0  0  0  0  0999 V2000
  125.4040  123.3820   56.2970 C   0  0  0  0  0  0  0  0  0  0  0  0
  126.3530  122.4200   57.0150 C   0  0  0  0  0  0  0  0  0  0  0  0
  126.4640  121.2750   56.5720 O   0  0  0  0  0  0  0  0  0  0  0  0
  127.0880  122.9170   58.2240 C   0  0  0  0  0  0  0  0  0  0  0  0
  128.4850  122.8270   58.2640 C   0  0  0  0  0  0  0  0  0  0  0  0
  129.1910  123.2800   59.3750 C   0  0  0  0  0  0  0  0  0  0  0  0
  128.5160  123.8380   60.4620 C   0  0  0  0  0  0  0  0  0  0  0  0
  129.3280  124.2610   61.5340 N   0  0  0  0  0  0  0  0  0  0  0  0
  129.1850  125.3180   62.3700 C   0  0  0  0  0  0  0  0  0  0  0  0
  128.2730  126.1410   62.2950 O   0  0  0  0  0  0  0  0  0  0  0  0
  130.2290  125.4530   63.3890 C   0  0  0  0  0  0  0  0  0  0  0  0
  131.8720  124.9120   63.0530 S   0  0  0  0  0  0  0  0  0  0  0  0
  132.3980  125.3570   64.6600 C   0  0  0  0  0  0  0  0  0  0  0  0
  133.6590  125.1820   65.0520 N   0  0  0  0  0  0  0  0  0  0  0  0
  133.9450  125.5640   66.3180 C   0  0  0  0  0  0  0  0  0  0  0  0
  135.3870  125.3570   66.7440 C   0  0  0  0  0  0  0  0  0  0  0  0
  133.0100  126.1120   67.1920 C   0  0  0  0  0  0  0  0  0  0  0  0
  131.6810  126.3000   66.7840 C   0  0  0  0  0  0  0  0  0  0  0  0
  130.6880  126.9060   67.7810 C   0  0  0  0  0  0  0  0  0  0  0  0
  131.2660  127.7320   68.6570 F   0  0  0  0  0  0  0  0  0  0  0  0
  129.7610  127.6050   67.1250 F   0  0  0  0  0  0  0  0  0  0  0  0
  130.0970  125.9360   68.4770 F   0  0  0  0  0  0  0  0  0  0  0  0
  131.3440  125.9070   65.4530 C   0  0  0  0  0  0  0  0  0  0  0  0
  130.1160  125.9440   64.7010 C   0  0  0  0  0  0  0  0  0  0  0  0
  128.9420  126.4240   65.2220 N   0  0  0  0  0  0  0  0  0  0  0  0
  127.1160  123.9240   60.4320 C   0  0  0  0  0  0  0  0  0  0  0  0
  126.4120  123.4690   59.3210 C   0  0  0  0  0  0  0  0  0  0  0  0
  1  2  1  0
  2  3  2  0
  2  4  1  0
  4  5  2  0
  5  6  1  0
  6  7  2  0
  7  8  1  0
  8  9  1  0
  9 10  2  0
  9 11  1  0
 11 12  1  0
 12 13  1  0
 13 14  2  0
 14 15  1  0
 15 16  1  0
 15 17  2  0
 17 18  1  0
 18 19  1  0
 19 20  1  0
 19 21  1  0
 19 22  1  0
 18 23  2  0
 23 24  1  0
 24 25  1  0
  7 26  1  0
 26 27  2  0
 27  4  1  0
 24 11  2  0
 23 13  1  0
M  END
>  <Binding energies>  (26) 
[-7.2]

>  <Ligand effiencies>  (26) 
[-0.24000000000000002]

>  <Interactions>  (26) 
["V-B:PRO:540:CB:9857, V-B:MET:535:CE:9807, V-B:PRO:540:N:9856, V-B:PRO:540:CA:9855, H-B:TYR:539:N:9842, V-B:TYR:539:CE2:9848, V-B:MET:535:CG:9805, V-B:TYR:539:C:9839, V-B:TYR:531:CE2:9765, V-B:TYR:531:CZ:9766, V-B:LEU:363:CD1:8160, H-A:TYR:484:OH:4347, H-A:GLY:454:N:4049, V-B:PRO:540:CD:9859, V-A:GLU:543:CG:4907, V-A:GLU:543:CD:4908, H-A:ARG:545:NH2:4928, V-A:GLU:543:C:4902, V-A:HIS:456:CE1:4069, V-A:ARG:545:CD:4923, V-A:ILE:455:C:4051, V-B:GLU:543:CG:9879, H-B:GLU:543:OE1:9881, V-B:GLU:543:CD:9880, H-B:GLU:543:OE2:9882, H-A:ARG:545:NE:4924, V-A:ARG:545:CG:4922, V-A:ARG:545:CZ:4926, V-A:GLU:543:CB:4906, V-A:TYR:484:CE2:4345, H-A:GLU:543:OE1:4909, V-A:GLY:454:CA:4048, V-A:GLY:453:CA:4043, V-A:GLY:453:C:4041, V-A:GLY:454:C:4046, V-A:ILE:455:CA:4053"]

$$$$
4bd_Grossjean_2025
     RDKit          3D

 24 26  0  0  0  0  0  0  0  0999 V2000
  129.4970  132.1330   54.3070 C   0  0  0  0  0  0  0  0  0  0  0  0
  129.9530  131.7380   55.7000 C   0  0  0  0  0  0  0  0  0  0  0  0
  131.1660  131.0860   55.9010 C   0  0  0  0  0  0  0  0  0  0  0  0
  131.5740  130.7240   57.1940 C   0  0  0  0  0  0  0  0  0  0  0  0
  132.9160  130.0050   57.3660 C   0  0  0  0  0  0  0  0  0  0  0  0
  133.6190  129.9340   56.2330 F   0  0  0  0  0  0  0  0  0  0  0  0
  133.6650  130.6520   58.2590 F   0  0  0  0  0  0  0  0  0  0  0  0
  132.7090  128.7570   57.7840 F   0  0  0  0  0  0  0  0  0  0  0  0
  130.6980  131.0550   58.2710 C   0  0  0  0  0  0  0  0  0  0  0  0
  130.7740  130.8500   59.6970 C   0  0  0  0  0  0  0  0  0  0  0  0
  131.8410  130.2350   60.2990 N   0  0  0  0  0  0  0  0  0  0  0  0
  129.6630  131.3350   60.4070 C   0  0  0  0  0  0  0  0  0  0  0  0
  129.4060  131.2810   61.8490 C   0  0  0  0  0  0  0  0  0  0  0  0
  130.2150  131.7520   62.6500 O   0  0  0  0  0  0  0  0  0  0  0  0
  128.2350  130.6980   62.2090 N   0  0  0  0  0  0  0  0  0  0  0  0
  127.7160  130.4530   63.4940 C   0  0  0  0  0  0  0  0  0  0  0  0
  127.0690  129.2260   63.6690 C   0  0  0  0  0  0  0  0  0  0  0  0
  126.5300  128.8860   64.9070 C   0  0  0  0  0  0  0  0  0  0  0  0
  126.6450  129.7710   65.9760 C   0  0  0  0  0  0  0  0  0  0  0  0
  127.2980  130.9910   65.8180 C   0  0  0  0  0  0  0  0  0  0  0  0
  127.8380  131.3350   64.5810 C   0  0  0  0  0  0  0  0  0  0  0  0
  128.4850  132.0700   59.3220 S   0  0  0  0  0  0  0  0  0  0  0  0
  129.4820  131.7230   57.9290 C   0  0  0  0  0  0  0  0  0  0  0  0
  129.1010  132.0640   56.6990 N   0  0  0  0  0  0  0  0  0  0  0  0
  1  2  1  0
  2  3  2  0
  3  4  1  0
  4  5  1  0
  5  6  1  0
  5  7  1  0
  5  8  1  0
  4  9  2  0
  9 10  1  0
 10 11  1  0
 10 12  2  0
 12 13  1  0
 13 14  2  0
 13 15  1  0
 15 16  1  0
 16 17  2  0
 17 18  1  0
 18 19  2  0
 19 20  1  0
 20 21  2  0
 12 22  1  0
 22 23  1  0
 23 24  2  0
 24  2  1  0
 23  9  1  0
 21 16  1  0
M  END
>  <Binding energies>  (27) 
[-6.33]

>  <Ligand effiencies>  (27) 
[-0.23444444444444446]

>  <Interactions>  (27) 
["V-A:ASP:366:CG:3212, V-A:PRO:540:N:4884, V-A:ILE:538:CA:4860, V-A:ASP:366:CB:3211, V-A:ILE:538:CG2:4863, V-A:TYR:539:CD1:4873, V-A:PRO:540:CA:4883, H-A:TYR:539:N:4870, V-A:PRO:540:CB:4885, V-A:TYR:539:CE1:4875, V-A:TYR:531:CZ:4794, V-A:ILE:538:CB:4862, V-A:ALA:541:CB:4892, V-A:TYR:539:C:4867, V-A:LEU:363:CD1:3188, V-A:GLU:543:CG:4907, V-A:GLU:543:CD:4908, H-A:ASP:366:OD2:3214, V-A:ILE:538:C:4858, H-A:ALA:541:N:4891, V-A:TYR:531:CE2:4793, V-A:LEU:363:CA:3184, V-A:LEU:363:CB:3186, V-B:TYR:484:CZ:9318, V-B:TYR:484:CE2:9317, H-A:GLU:543:OE2:4910"]

$$$$
4be_Grossjean_2025
     RDKit          3D

 25 27  0  0  0  0  0  0  0  0999 V2000
  128.0250  129.5110   67.2230 C   0  0  0  0  0  0  0  0  0  0  0  0
  127.1690  129.6510   65.9780 C   0  0  0  0  0  0  0  0  0  0  0  0
  125.7820  129.4910   66.0230 C   0  0  0  0  0  0  0  0  0  0  0  0
  125.0590  129.6310   64.8370 C   0  0  0  0  0  0  0  0  0  0  0  0
  125.7330  129.9240   63.6490 C   0  0  0  0  0  0  0  0  0  0  0  0
  127.1240  130.0770   63.6760 C   0  0  0  0  0  0  0  0  0  0  0  0
  127.7420  130.3640   62.4460 N   0  0  0  0  0  0  0  0  0  0  0  0
  128.8270  131.1400   62.1980 C   0  0  0  0  0  0  0  0  0  0  0  0
  129.4620  131.7310   63.0740 O   0  0  0  0  0  0  0  0  0  0  0  0
  129.2050  131.2600   60.7870 C   0  0  0  0  0  0  0  0  0  0  0  0
  128.1120  132.0340   59.6410 S   0  0  0  0  0  0  0  0  0  0  0  0
  129.2200  131.7440   58.3200 C   0  0  0  0  0  0  0  0  0  0  0  0
  128.9380  132.1360   57.0790 N   0  0  0  0  0  0  0  0  0  0  0  0
  129.8740  131.8570   56.1410 C   0  0  0  0  0  0  0  0  0  0  0  0
  129.5330  132.3090   54.7330 C   0  0  0  0  0  0  0  0  0  0  0  0
  131.0730  131.2050   56.4150 C   0  0  0  0  0  0  0  0  0  0  0  0
  131.3760  130.7910   57.7210 C   0  0  0  0  0  0  0  0  0  0  0  0
  132.7100  130.0800   57.9740 C   0  0  0  0  0  0  0  0  0  0  0  0
  133.3270  130.5060   59.0790 F   0  0  0  0  0  0  0  0  0  0  0  0
  132.5040  128.7710   58.1130 F   0  0  0  0  0  0  0  0  0  0  0  0
  133.5350  130.2900   56.9490 F   0  0  0  0  0  0  0  0  0  0  0  0
  130.4080  131.0650   58.7330 C   0  0  0  0  0  0  0  0  0  0  0  0
  130.3650  130.7930   60.1490 C   0  0  0  0  0  0  0  0  0  0  0  0
  131.3740  130.1400   60.8090 N   0  0  0  0  0  0  0  0  0  0  0  0
  127.8380  129.9360   64.8310 N   0  0  0  0  0  0  0  0  0  0  0  0
  1  2  1  0
  2  3  2  0
  3  4  1  0
  4  5  2  0
  5  6  1  0
  6  7  1  0
  7  8  1  0
  8  9  2  0
  8 10  1  0
 10 11  1  0
 11 12  1  0
 12 13  2  0
 13 14  1  0
 14 15  1  0
 14 16  2  0
 16 17  1  0
 17 18  1  0
 18 19  1  0
 18 20  1  0
 18 21  1  0
 17 22  2  0
 22 23  1  0
 23 24  1  0
  6 25  2  0
 25  2  1  0
 23 10  2  0
 22 12  1  0
M  END
>  <Binding energies>  (28) 
[-6.25]

>  <Ligand effiencies>  (28) 
[-0.22321428571428573]

>  <Interactions>  (28) 
["V-A:ASP:366:CG:3212, V-A:PRO:540:N:4884, V-A:ILE:538:CA:4860, V-A:ASP:366:CB:3211, V-A:ILE:538:CG2:4863, V-A:TYR:539:CD1:4873, V-A:PRO:540:CA:4883, H-A:TYR:539:N:4870, V-A:PRO:540:CB:4885, V-A:TYR:539:CE1:4875, V-A:TYR:531:CZ:4794, V-A:ILE:538:CB:4862, V-B:ARG:545:CZ:9898, V-A:ALA:541:CB:4892, V-A:TYR:539:C:4867, V-A:LEU:363:CD1:3188, V-A:GLU:543:CG:4907, V-A:GLU:543:CD:4908, H-A:ASP:366:OD2:3214, V-B:HIS:456:CE1:9041, V-A:GLU:543:CB:4906, V-A:ILE:538:C:4858, H-A:ALA:541:N:4891, V-A:TYR:531:CE2:4793, V-A:LEU:363:CA:3184, V-A:LEU:363:CG:3187, V-B:TYR:484:CZ:9318, V-B:TYR:484:CE2:9317, H-A:GLU:543:OE2:4910"]

$$$$
4bg_Grossjean_2025
     RDKit          3D

 25 27  0  0  0  0  0  0  0  0999 V2000
  128.9320  121.7210   61.1090 C   0  0  0  0  0  0  0  0  0  0  0  0
  129.6480  122.5610   60.0670 C   0  0  0  0  0  0  0  0  0  0  0  0
  131.0370  122.6590   60.0560 C   0  0  0  0  0  0  0  0  0  0  0  0
  131.6870  123.4440   59.0890 C   0  0  0  0  0  0  0  0  0  0  0  0
  133.2170  123.5210   59.1170 C   0  0  0  0  0  0  0  0  0  0  0  0
  133.7750  123.2400   57.9370 F   0  0  0  0  0  0  0  0  0  0  0  0
  133.5990  124.7520   59.4560 F   0  0  0  0  0  0  0  0  0  0  0  0
  133.6980  122.6500   60.0030 F   0  0  0  0  0  0  0  0  0  0  0  0
  130.8650  124.1200   58.1390 C   0  0  0  0  0  0  0  0  0  0  0  0
  131.1620  124.9970   57.0330 C   0  0  0  0  0  0  0  0  0  0  0  0
  132.4410  125.3640   56.6980 N   0  0  0  0  0  0  0  0  0  0  0  0
  130.0290  125.4320   56.3280 C   0  0  0  0  0  0  0  0  0  0  0  0
  129.9600  126.3420   55.1850 C   0  0  0  0  0  0  0  0  0  0  0  0
  130.9080  126.4730   54.4090 O   0  0  0  0  0  0  0  0  0  0  0  0
  128.7880  126.9900   55.0160 N   0  0  0  0  0  0  0  0  0  0  0  0
  128.4970  127.9550   53.9560 C   0  0  0  0  0  0  0  0  0  0  0  0
  128.8490  129.3900   54.3250 C   0  0  0  0  0  0  0  0  0  0  0  0
  128.1630  130.0380   55.3560 C   0  0  0  0  0  0  0  0  0  0  0  0
  128.5130  131.3370   55.7160 C   0  0  0  0  0  0  0  0  0  0  0  0
  129.5580  131.9790   55.0550 C   0  0  0  0  0  0  0  0  0  0  0  0
  130.2580  131.3330   54.0390 C   0  0  0  0  0  0  0  0  0  0  0  0
  129.9070  130.0350   53.6770 C   0  0  0  0  0  0  0  0  0  0  0  0
  128.5480  124.7960   57.0380 S   0  0  0  0  0  0  0  0  0  0  0  0
  129.4540  123.9290   58.2570 C   0  0  0  0  0  0  0  0  0  0  0  0
  128.8420  123.1850   59.1780 N   0  0  0  0  0  0  0  0  0  0  0  0
  1  2  1  0
  2  3  2  0
  3  4  1  0
  4  5  1  0
  5  6  1  0
  5  7  1  0
  5  8  1  0
  4  9  2  0
  9 10  1  0
 10 11  1  0
 10 12  2  0
 12 13  1  0
 13 14  2  0
 13 15  1  0
 15 16  1  0
 16 17  1  0
 17 18  2  0
 18 19  1  0
 19 20  2  0
 20 21  1  0
 21 22  2  0
 12 23  1  0
 23 24  1  0
 24 25  2  0
 25  2  1  0
 24  9  1  0
 22 17  1  0
M  END
>  <Binding energies>  (29) 
[-6.51]

>  <Ligand effiencies>  (29) 
[-0.23249999999999998]

>  <Interactions>  (29) 
["H-B:TYR:531:OH:9767, V-B:MET:535:CE:9807, V-A:ILE:369:CG2:3236, V-B:PRO:540:CA:9855, V-B:PRO:540:C:9853, V-B:ALA:541:CB:9864, V-B:TYR:539:CE2:9848, V-B:TYR:531:CZ:9766, V-A:ASP:366:CG:3212, V-A:ILE:538:CA:4860, V-A:ASP:366:CA:3209, V-A:MET:535:CB:4832, V-A:ASP:366:CB:3211, V-A:ILE:538:CG2:4863, V-A:ASP:366:C:3207, H-B:TYR:539:OH:9850, V-A:TYR:539:CD1:4873, H-A:TYR:531:OH:4795, V-A:TYR:539:CZ:4877, V-A:TYR:539:CE1:4875, V-A:TYR:531:CZ:4794, V-A:ILE:538:CB:4862, V-A:MET:535:CG:4833, V-B:TYR:531:CE1:9764, V-A:ILE:369:CD1:3238, V-B:TYR:539:CZ:9849, V-A:ILE:369:CB:3235, H-B:MET:535:SD:9806, H-A:ASP:366:O:3208, V-A:ILE:369:C:3231"]

$$$$
4ca_Grossjean_2025
     RDKit          3D

 34 37  0  0  0  0  0  0  0  0999 V2000
  127.8170  131.4140   72.4610 C   0  0  0  0  0  0  0  0  0  0  0  0
  128.8120  130.2620   72.6350 C   0  0  0  0  0  0  0  0  0  0  0  0
  128.7440  129.4050   71.5030 O   0  0  0  0  0  0  0  0  0  0  0  0
  129.4900  128.2720   71.4350 C   0  0  0  0  0  0  0  0  0  0  0  0
  130.1090  127.8070   72.3980 O   0  0  0  0  0  0  0  0  0  0  0  0
  129.4850  127.6390   70.0740 C   0  0  0  0  0  0  0  0  0  0  0  0
  128.7660  126.4530   69.8740 C   0  0  0  0  0  0  0  0  0  0  0  0
  128.7390  125.8450   68.6220 C   0  0  0  0  0  0  0  0  0  0  0  0
  129.4330  126.4030   67.5490 C   0  0  0  0  0  0  0  0  0  0  0  0
  129.3290  125.7110   66.3260 N   0  0  0  0  0  0  0  0  0  0  0  0
  130.2990  125.2590   65.4940 C   0  0  0  0  0  0  0  0  0  0  0  0
  131.5060  125.3540   65.7230 O   0  0  0  0  0  0  0  0  0  0  0  0
  129.8220  124.6120   64.2700 C   0  0  0  0  0  0  0  0  0  0  0  0
  128.5370  125.3530   63.3190 S   0  0  0  0  0  0  0  0  0  0  0  0
  128.6180  124.0740   62.1300 C   0  0  0  0  0  0  0  0  0  0  0  0
  127.8240  124.0680   61.0630 N   0  0  0  0  0  0  0  0  0  0  0  0
  127.9690  123.0410   60.1860 C   0  0  0  0  0  0  0  0  0  0  0  0
  127.0650  123.0680   58.9870 C   0  0  0  0  0  0  0  0  0  0  0  0
  127.3790  122.3320   57.8330 C   0  0  0  0  0  0  0  0  0  0  0  0
  126.5480  122.3570   56.7160 C   0  0  0  0  0  0  0  0  0  0  0  0
  125.3870  123.1220   56.7370 C   0  0  0  0  0  0  0  0  0  0  0  0
  125.0520  123.8630   57.8660 C   0  0  0  0  0  0  0  0  0  0  0  0
  125.8860  123.8350   58.9810 C   0  0  0  0  0  0  0  0  0  0  0  0
  128.8940  122.0140   60.3980 C   0  0  0  0  0  0  0  0  0  0  0  0
  129.7340  122.0090   61.5220 C   0  0  0  0  0  0  0  0  0  0  0  0
  130.7280  120.8540   61.6900 C   0  0  0  0  0  0  0  0  0  0  0  0
  130.5690  119.8900   60.7810 F   0  0  0  0  0  0  0  0  0  0  0  0
  131.9740  121.3100   61.5740 F   0  0  0  0  0  0  0  0  0  0  0  0
  130.5730  120.2970   62.8920 F   0  0  0  0  0  0  0  0  0  0  0  0
  129.6020  123.0910   62.4390 C   0  0  0  0  0  0  0  0  0  0  0  0
  130.2770  123.4260   63.6690 C   0  0  0  0  0  0  0  0  0  0  0  0
  131.2750  122.6490   64.2020 N   0  0  0  0  0  0  0  0  0  0  0  0
  130.1500  127.5930   67.7370 C   0  0  0  0  0  0  0  0  0  0  0  0
  130.1750  128.2020   68.9900 C   0  0  0  0  0  0  0  0  0  0  0  0
  1  2  1  0
  2  3  1  0
  3  4  1  0
  4  5  2  0
  4  6  1  0
  6  7  2  0
  7  8  1  0
  8  9  2  0
  9 10  1  0
 10 11  1  0
 11 12  2  0
 11 13  1  0
 13 14  1  0
 14 15  1  0
 15 16  2  0
 16 17  1  0
 17 18  1  0
 18 19  2  0
 19 20  1  0
 20 21  2  0
 21 22  1  0
 22 23  2  0
 17 24  2  0
 24 25  1  0
 25 26  1  0
 26 27  1  0
 26 28  1  0
 26 29  1  0
 25 30  2  0
 30 31  1  0
 31 32  1  0
  9 33  1  0
 33 34  2  0
 34  6  1  0
 31 13  2  0
 30 15  1  0
 23 18  1  0
M  END
>  <Binding energies>  (30) 
[-7.8]

>  <Ligand effiencies>  (30) 
[-0.2108108108108108]

>  <Interactions>  (30) 
["V-B:PRO:540:CB:9857, V-B:MET:535:CE:9807, V-B:TYR:539:CD2:9846, V-B:PRO:540:N:9856, V-A:LEU:475:CD1:4257, V-B:PRO:540:CA:9855, V-B:ALA:541:CB:9864, V-B:TYR:539:C:9839, V-B:TYR:531:CE2:9765, V-B:LEU:363:CD1:8160, H-A:TYR:484:OH:4347, V-B:PRO:540:CD:9859, V-A:GLU:543:CD:4908, V-A:GLU:543:C:4902, V-B:HIS:456:CE1:9041, V-A:TYR:484:CZ:4346, V-A:HIS:456:CE1:4069, V-B:GLU:543:CB:9878, V-B:GLU:543:CG:9879, V-B:GLU:543:CD:9880, H-B:GLU:543:OE2:9882, V-A:GLU:543:CA:4904, V-A:GLU:543:CB:4906, V-B:GLU:543:CA:9876, V-B:GLU:543:C:9874, V-B:ALA:541:CA:9862, V-B:HIS:456:CD2:9039, V-B:TYR:484:CD1:9314, V-B:HIS:456:CG:9037, V-B:TYR:484:CB:9312, V-B:TYR:484:CG:9313, V-B:TYR:484:CD2:9315"]

$$$$
4cb_Grossjean_2025
     RDKit          3D

 33 36  0  0  0  0  0  0  0  0999 V2000
  129.3910  126.3390   73.0950 C   0  0  0  0  0  0  0  0  0  0  0  0
  130.1030  127.3430   72.3860 O   0  0  0  0  0  0  0  0  0  0  0  0
  129.4870  128.1060   71.4480 C   0  0  0  0  0  0  0  0  0  0  0  0
  128.9680  129.2000   71.6920 O   0  0  0  0  0  0  0  0  0  0  0  0
  129.4980  127.4870   70.0790 C   0  0  0  0  0  0  0  0  0  0  0  0
  128.7350  126.3360   69.8420 C   0  0  0  0  0  0  0  0  0  0  0  0
  128.7180  125.7440   68.5820 C   0  0  0  0  0  0  0  0  0  0  0  0
  129.4680  126.2850   67.5370 C   0  0  0  0  0  0  0  0  0  0  0  0
  129.3660  125.6140   66.3030 N   0  0  0  0  0  0  0  0  0  0  0  0
  130.3360  125.2140   65.4440 C   0  0  0  0  0  0  0  0  0  0  0  0
  131.5430  125.3470   65.6530 O   0  0  0  0  0  0  0  0  0  0  0  0
  129.8590  124.5740   64.2150 C   0  0  0  0  0  0  0  0  0  0  0  0
  128.5750  125.3220   63.2670 S   0  0  0  0  0  0  0  0  0  0  0  0
  128.6550  124.0500   62.0710 C   0  0  0  0  0  0  0  0  0  0  0  0
  127.8610  124.0480   61.0040 N   0  0  0  0  0  0  0  0  0  0  0  0
  128.0030  123.0230   60.1230 C   0  0  0  0  0  0  0  0  0  0  0  0
  127.0970  123.0520   58.9270 C   0  0  0  0  0  0  0  0  0  0  0  0
  127.4060  122.3120   57.7750 C   0  0  0  0  0  0  0  0  0  0  0  0
  126.5720  122.3370   56.6590 C   0  0  0  0  0  0  0  0  0  0  0  0
  125.4130  123.1060   56.6820 C   0  0  0  0  0  0  0  0  0  0  0  0
  125.0850  123.8510   57.8100 C   0  0  0  0  0  0  0  0  0  0  0  0
  125.9220  123.8240   58.9210 C   0  0  0  0  0  0  0  0  0  0  0  0
  128.9280  121.9940   60.3320 C   0  0  0  0  0  0  0  0  0  0  0  0
  129.7680  121.9850   61.4560 C   0  0  0  0  0  0  0  0  0  0  0  0
  130.7600  120.8270   61.6210 C   0  0  0  0  0  0  0  0  0  0  0  0
  132.0340  121.2090   61.4970 F   0  0  0  0  0  0  0  0  0  0  0  0
  130.6230  120.2860   62.8310 F   0  0  0  0  0  0  0  0  0  0  0  0
  130.5300  119.8980   60.6940 F   0  0  0  0  0  0  0  0  0  0  0  0
  129.6380  123.0640   62.3770 C   0  0  0  0  0  0  0  0  0  0  0  0
  130.3150  123.3930   63.6080 C   0  0  0  0  0  0  0  0  0  0  0  0
  131.3150  122.6150   64.1340 N   0  0  0  0  0  0  0  0  0  0  0  0
  130.2330  127.4390   67.7640 C   0  0  0  0  0  0  0  0  0  0  0  0
  130.2470  128.0300   69.0240 C   0  0  0  0  0  0  0  0  0  0  0  0
  1  2  1  0
  2  3  1  0
  3  4  2  0
  3  5  1  0
  5  6  2  0
  6  7  1  0
  7  8  2  0
  8  9  1  0
  9 10  1  0
 10 11  2  0
 10 12  1  0
 12 13  1  0
 13 14  1  0
 14 15  2  0
 15 16  1  0
 16 17  1  0
 17 18  2  0
 18 19  1  0
 19 20  2  0
 20 21  1  0
 21 22  2  0
 16 23  2  0
 23 24  1  0
 24 25  1  0
 25 26  1  0
 25 27  1  0
 25 28  1  0
 24 29  2  0
 29 30  1  0
 30 31  1  0
  8 32  1  0
 32 33  2  0
 33  5  1  0
 30 12  2  0
 29 14  1  0
 22 17  1  0
M  END
>  <Binding energies>  (31) 
[-7.63]

>  <Ligand effiencies>  (31) 
[-0.21194444444444444]

>  <Interactions>  (31) 
["V-B:PRO:540:CB:9857, V-B:MET:535:CE:9807, V-B:TYR:539:CD2:9846, V-B:PRO:540:N:9856, V-A:LEU:475:CD1:4257, V-B:PRO:540:CA:9855, V-B:ALA:541:CB:9864, V-B:TYR:539:C:9839, V-B:TYR:531:CE2:9765, V-B:LEU:363:CD1:8160, H-A:TYR:484:OH:4347, V-B:PRO:540:CD:9859, V-A:GLU:543:CD:4908, V-A:GLU:543:C:4902, V-B:HIS:456:CE1:9041, V-A:TYR:484:CZ:4346, V-A:HIS:456:CE1:4069, V-B:GLU:543:CB:9878, V-B:GLU:543:CG:9879, V-B:GLU:543:CD:9880, H-B:GLU:543:OE2:9882, V-A:GLU:543:CB:4906, V-B:GLU:543:CA:9876, V-B:GLU:543:C:9874, V-B:HIS:456:CD2:9039, H-A:HIS:456:ND1:4066"]

$$$$
4cc_Grossjean_2025
     RDKit          3D

 31 34  0  0  0  0  0  0  0  0999 V2000
  130.6890  128.3900   72.0250 C   0  0  0  0  0  0  0  0  0  0  0  0
  129.4660  128.0150   71.4010 O   0  0  0  0  0  0  0  0  0  0  0  0
  129.4930  127.4990   70.1200 C   0  0  0  0  0  0  0  0  0  0  0  0
  128.7440  126.3430   69.8990 C   0  0  0  0  0  0  0  0  0  0  0  0
  128.7090  125.7500   68.6400 C   0  0  0  0  0  0  0  0  0  0  0  0
  129.4340  126.3030   67.5820 C   0  0  0  0  0  0  0  0  0  0  0  0
  129.3250  125.6440   66.3430 N   0  0  0  0  0  0  0  0  0  0  0  0
  130.2990  125.2980   65.4680 C   0  0  0  0  0  0  0  0  0  0  0  0
  131.5000  125.4900   65.6640 O   0  0  0  0  0  0  0  0  0  0  0  0
  129.8380  124.6590   64.2320 C   0  0  0  0  0  0  0  0  0  0  0  0
  128.5680  125.4080   63.2660 S   0  0  0  0  0  0  0  0  0  0  0  0
  128.6390  124.1170   62.0900 C   0  0  0  0  0  0  0  0  0  0  0  0
  127.8490  124.1080   61.0190 N   0  0  0  0  0  0  0  0  0  0  0  0
  127.9830  123.0680   60.1570 C   0  0  0  0  0  0  0  0  0  0  0  0
  127.0770  123.0840   58.9600 C   0  0  0  0  0  0  0  0  0  0  0  0
  127.3990  122.3510   57.8060 C   0  0  0  0  0  0  0  0  0  0  0  0
  126.5650  122.3620   56.6910 C   0  0  0  0  0  0  0  0  0  0  0  0
  125.3930  123.1100   56.7140 C   0  0  0  0  0  0  0  0  0  0  0  0
  125.0520  123.8480   57.8430 C   0  0  0  0  0  0  0  0  0  0  0  0
  125.8890  123.8350   58.9550 C   0  0  0  0  0  0  0  0  0  0  0  0
  128.8970  122.0340   60.3820 C   0  0  0  0  0  0  0  0  0  0  0  0
  129.7340  122.0320   61.5100 C   0  0  0  0  0  0  0  0  0  0  0  0
  130.7160  120.8700   61.6910 C   0  0  0  0  0  0  0  0  0  0  0  0
  130.5910  120.2560   62.8710 F   0  0  0  0  0  0  0  0  0  0  0  0
  130.5140  119.9550   60.7440 F   0  0  0  0  0  0  0  0  0  0  0  0
  131.9680  121.3200   61.6070 F   0  0  0  0  0  0  0  0  0  0  0  0
  129.6080  123.1230   62.4170 C   0  0  0  0  0  0  0  0  0  0  0  0
  130.2750  123.4590   63.6510 C   0  0  0  0  0  0  0  0  0  0  0  0
  131.2540  122.6710   64.2020 N   0  0  0  0  0  0  0  0  0  0  0  0
  130.1800  127.4730   67.7930 C   0  0  0  0  0  0  0  0  0  0  0  0
  130.2110  128.0620   69.0540 C   0  0  0  0  0  0  0  0  0  0  0  0
  1  2  1  0
  2  3  1  0
  3  4  2  0
  4  5  1  0
  5  6  2  0
  6  7  1  0
  7  8  1  0
  8  9  2  0
  8 10  1  0
 10 11  1  0
 11 12  1  0
 12 13  2  0
 13 14  1  0
 14 15  1  0
 15 16  2  0
 16 17  1  0
 17 18  2  0
 18 19  1  0
 19 20  2  0
 14 21  2  0
 21 22  1  0
 22 23  1  0
 23 24  1  0
 23 25  1  0
 23 26  1  0
 22 27  2  0
 27 28  1  0
 28 29  1  0
  6 30  1  0
 30 31  2  0
 31  3  1  0
 28 10  2  0
 27 12  1  0
 20 15  1  0
M  END
>  <Binding energies>  (32) 
[-7.36]

>  <Ligand effiencies>  (32) 
[-0.21647058823529414]

>  <Interactions>  (32) 
["V-B:PRO:540:CB:9857, V-B:MET:535:CE:9807, V-B:TYR:539:CD2:9846, V-B:PRO:540:N:9856, V-A:LEU:475:CD1:4257, V-B:PRO:540:CA:9855, V-B:ALA:541:CB:9864, V-B:TYR:539:C:9839, V-B:TYR:531:CE2:9765, V-B:LEU:363:CD1:8160, H-A:TYR:484:OH:4347, V-B:PRO:540:CD:9859, V-A:GLU:543:CD:4908, V-A:GLU:543:C:4902, V-B:HIS:456:CE1:9041, V-A:TYR:484:CZ:4346, V-A:HIS:456:CE1:4069, V-A:GLY:544:C:4912, V-B:GLU:543:CB:9878, V-B:GLU:543:CG:9879, V-B:GLU:543:CD:9880, H-B:GLU:543:OE2:9882, V-A:GLU:543:CB:4906, V-B:GLU:543:CA:9876, V-B:GLU:543:C:9874, V-B:ALA:541:CA:9862, V-A:GLY:544:CA:4914"]

$$$$
4ce_Grossjean_2025
     RDKit          3D

 30 33  0  0  0  0  0  0  0  0999 V2000
  128.7690  125.7750   71.2120 C   0  0  0  0  0  0  0  0  0  0  0  0
  128.9500  126.5370   69.9130 C   0  0  0  0  0  0  0  0  0  0  0  0
  129.1800  127.9150   69.9000 C   0  0  0  0  0  0  0  0  0  0  0  0
  129.3450  128.5490   68.6670 C   0  0  0  0  0  0  0  0  0  0  0  0
  129.2780  127.7990   67.4920 C   0  0  0  0  0  0  0  0  0  0  0  0
  129.0390  126.4220   67.5760 C   0  0  0  0  0  0  0  0  0  0  0  0
  129.0070  125.7170   66.3590 N   0  0  0  0  0  0  0  0  0  0  0  0
  130.0440  125.2440   65.6250 C   0  0  0  0  0  0  0  0  0  0  0  0
  131.2260  125.3610   65.9540 O   0  0  0  0  0  0  0  0  0  0  0  0
  129.6760  124.5630   64.3810 C   0  0  0  0  0  0  0  0  0  0  0  0
  128.4090  125.2240   63.3500 S   0  0  0  0  0  0  0  0  0  0  0  0
  128.6310  123.9450   62.1820 C   0  0  0  0  0  0  0  0  0  0  0  0
  127.9020  123.8860   61.0700 N   0  0  0  0  0  0  0  0  0  0  0  0
  128.1570  122.8630   60.2130 C   0  0  0  0  0  0  0  0  0  0  0  0
  127.3220  122.8290   58.9670 C   0  0  0  0  0  0  0  0  0  0  0  0
  126.1420  123.5840   58.8750 C   0  0  0  0  0  0  0  0  0  0  0  0
  125.3580  123.5520   57.7240 C   0  0  0  0  0  0  0  0  0  0  0  0
  125.7460  122.7640   56.6460 C   0  0  0  0  0  0  0  0  0  0  0  0
  126.9100  122.0060   56.7120 C   0  0  0  0  0  0  0  0  0  0  0  0
  127.6900  122.0380   57.8650 C   0  0  0  0  0  0  0  0  0  0  0  0
  129.1260  121.8920   60.4870 C   0  0  0  0  0  0  0  0  0  0  0  0
  129.8970  121.9410   61.6600 C   0  0  0  0  0  0  0  0  0  0  0  0
  130.9430  120.8470   61.8960 C   0  0  0  0  0  0  0  0  0  0  0  0
  132.1720  121.3300   62.0890 F   0  0  0  0  0  0  0  0  0  0  0  0
  130.6180  120.1390   62.9790 F   0  0  0  0  0  0  0  0  0  0  0  0
  130.9940  120.0360   60.8400 F   0  0  0  0  0  0  0  0  0  0  0  0
  129.6490  123.0190   62.5580 C   0  0  0  0  0  0  0  0  0  0  0  0
  130.2290  123.3980   63.8230 C   0  0  0  0  0  0  0  0  0  0  0  0
  131.2320  122.6820   64.4230 N   0  0  0  0  0  0  0  0  0  0  0  0
  128.8810  125.7940   68.7780 N   0  0  0  0  0  0  0  0  0  0  0  0
  1  2  1  0
  2  3  2  0
  3  4  1  0
  4  5  2  0
  5  6  1  0
  6  7  1  0
  7  8  1  0
  8  9  2  0
  8 10  1  0
 10 11  1  0
 11 12  1  0
 12 13  2  0
 13 14  1  0
 14 15  1  0
 15 16  2  0
 16 17  1  0
 17 18  2  0
 18 19  1  0
 19 20  2  0
 14 21  2  0
 21 22  1  0
 22 23  1  0
 23 24  1  0
 23 25  1  0
 23 26  1  0
 22 27  2  0
 27 28  1  0
 28 29  1  0
  6 30  2  0
 30  2  1  0
 28 10  2  0
 27 12  1  0
 20 15  1  0
M  END
>  <Binding energies>  (33) 
[-7.25]

>  <Ligand effiencies>  (33) 
[-0.2196969696969697]

>  <Interactions>  (33) 
["V-B:PRO:540:CB:9857, V-B:MET:535:CE:9807, V-B:TYR:539:CD2:9846, V-B:PRO:540:N:9856, V-A:LEU:475:CD1:4257, V-B:PRO:540:CA:9855, V-B:ALA:541:CB:9864, V-B:TYR:539:C:9839, V-B:TYR:531:CE2:9765, V-B:LEU:363:CD1:8160, V-B:TYR:539:CA:9841, H-A:TYR:484:OH:4347, V-B:PRO:540:CD:9859, V-A:GLU:543:CD:4908, V-A:GLU:543:C:4902, V-B:HIS:456:CE1:9041, V-A:TYR:484:CZ:4346, V-A:HIS:456:CE1:4069, V-B:GLU:543:CB:9878, V-B:GLU:543:CG:9879, H-B:GLU:543:OE1:9881, V-B:GLU:543:CD:9880, H-B:GLU:543:OE2:9882, V-A:GLU:543:CA:4904, V-A:GLU:543:CB:4906, V-A:TYR:484:CE2:4345, V-A:LEU:475:CD2:4258, V-B:GLU:543:C:9874, V-B:ALA:541:CA:9862, V-A:LEU:475:CG:4256"]

$$$$
4cf_Grossjean_2025
     RDKit          3D

 29 32  0  0  0  0  0  0  0  0999 V2000
  131.2680  122.7240   64.3060 N   0  0  0  0  0  0  0  0  0  0  0  0
  130.2840  123.5050   63.7560 C   0  0  0  0  0  0  0  0  0  0  0  0
  129.8280  124.6960   64.3440 C   0  0  0  0  0  0  0  0  0  0  0  0
  130.2450  125.3090   65.6080 C   0  0  0  0  0  0  0  0  0  0  0  0
  131.4380  125.3910   65.9010 O   0  0  0  0  0  0  0  0  0  0  0  0
  129.2380  125.7710   66.3890 N   0  0  0  0  0  0  0  0  0  0  0  0
  129.2910  126.3590   67.6670 C   0  0  0  0  0  0  0  0  0  0  0  0
  128.7430  125.8100   68.8420 C   0  0  0  0  0  0  0  0  0  0  0  0
  128.8530  126.5070   70.0470 C   0  0  0  0  0  0  0  0  0  0  0  0
  129.5070  127.7390   70.0490 C   0  0  0  0  0  0  0  0  0  0  0  0
  130.0380  128.2940   68.9300 N   0  0  0  0  0  0  0  0  0  0  0  0
  129.9210  127.6040   67.7650 C   0  0  0  0  0  0  0  0  0  0  0  0
  128.5650  125.4440   63.3680 S   0  0  0  0  0  0  0  0  0  0  0  0
  128.6520  124.1570   62.1890 C   0  0  0  0  0  0  0  0  0  0  0  0
  127.8650  124.1440   61.1140 N   0  0  0  0  0  0  0  0  0  0  0  0
  127.9940  123.0930   60.2630 C   0  0  0  0  0  0  0  0  0  0  0  0
  127.0900  123.1020   59.0650 C   0  0  0  0  0  0  0  0  0  0  0  0
  127.4220  122.3780   57.9100 C   0  0  0  0  0  0  0  0  0  0  0  0
  126.5880  122.3800   56.7950 C   0  0  0  0  0  0  0  0  0  0  0  0
  125.4040  123.1090   56.8210 C   0  0  0  0  0  0  0  0  0  0  0  0
  125.0480  123.8340   57.9540 C   0  0  0  0  0  0  0  0  0  0  0  0
  125.8850  123.8280   59.0670 C   0  0  0  0  0  0  0  0  0  0  0  0
  128.9270  122.0750   60.4810 C   0  0  0  0  0  0  0  0  0  0  0  0
  129.7640  122.0810   61.6080 C   0  0  0  0  0  0  0  0  0  0  0  0
  130.7610  120.9300   61.7880 C   0  0  0  0  0  0  0  0  0  0  0  0
  130.5980  119.9510   60.8950 F   0  0  0  0  0  0  0  0  0  0  0  0
  132.0060  121.3870   61.6560 F   0  0  0  0  0  0  0  0  0  0  0  0
  130.6160  120.3920   62.9990 F   0  0  0  0  0  0  0  0  0  0  0  0
  129.6250  123.1690   62.5180 C   0  0  0  0  0  0  0  0  0  0  0  0
  1  2  1  0
  2  3  2  0
  3  4  1  0
  4  5  2  0
  4  6  1  0
  6  7  1  0
  7  8  2  0
  8  9  1  0
  9 10  2  0
 10 11  1  0
 11 12  2  0
  3 13  1  0
 13 14  1  0
 14 15  2  0
 15 16  1  0
 16 17  1  0
 17 18  2  0
 18 19  1  0
 19 20  2  0
 20 21  1  0
 21 22  2  0
 16 23  2  0
 23 24  1  0
 24 25  1  0
 25 26  1  0
 25 27  1  0
 25 28  1  0
 24 29  2  0
 29  2  1  0
 12  7  1  0
 29 14  1  0
 22 17  1  0
M  END
>  <Binding energies>  (34) 
[-7.2]

>  <Ligand effiencies>  (34) 
[-0.225]

>  <Interactions>  (34) 
["V-B:PRO:540:CB:9857, V-B:MET:535:CE:9807, V-B:TYR:539:CD2:9846, V-B:PRO:540:N:9856, V-A:LEU:475:CD1:4257, V-B:PRO:540:CA:9855, V-B:ALA:541:CB:9864, V-B:TYR:539:C:9839, V-B:TYR:531:CE2:9765, V-B:LEU:363:CD1:8160, H-A:TYR:484:OH:4347, V-B:PRO:540:CD:9859, V-A:GLU:543:CD:4908, V-B:HIS:456:CE1:9041, V-A:TYR:484:CZ:4346, V-A:HIS:456:CE1:4069, V-B:GLU:543:CB:9878, V-B:GLU:543:CG:9879, V-B:GLU:543:CD:9880, H-B:GLU:543:OE2:9882, V-A:GLU:543:CB:4906, V-A:LEU:475:CD2:4258, V-B:GLU:543:CA:9876, V-B:GLU:543:C:9874, V-B:ALA:541:CA:9862, V-A:LEU:475:CG:4256"]

$$$$
4ci_Grossjean_2025
     RDKit          3D

 28 31  0  0  0  0  0  0  0  0999 V2000
  132.2430  123.5000   58.3420 N   0  0  0  0  0  0  0  0  0  0  0  0
  131.4350  123.9250   59.3650 C   0  0  0  0  0  0  0  0  0  0  0  0
  130.0470  124.0940   59.2300 C   0  0  0  0  0  0  0  0  0  0  0  0
  129.2090  123.8570   58.0510 C   0  0  0  0  0  0  0  0  0  0  0  0
  129.5020  124.3540   56.9610 O   0  0  0  0  0  0  0  0  0  0  0  0
  128.1160  123.0820   58.2580 N   0  0  0  0  0  0  0  0  0  0  0  0
  127.1580  122.7040   57.3260 C   0  0  0  0  0  0  0  0  0  0  0  0
  126.0250  123.4670   57.0450 C   0  0  0  0  0  0  0  0  0  0  0  0
  125.3440  122.7570   56.0840 C   0  0  0  0  0  0  0  0  0  0  0  0
  126.0310  121.6240   55.8000 O   0  0  0  0  0  0  0  0  0  0  0  0
  127.1790  121.6020   56.5940 N   0  0  0  0  0  0  0  0  0  0  0  0
  129.3220  124.6390   60.7390 S   0  0  0  0  0  0  0  0  0  0  0  0
  130.8780  124.6470   61.5370 C   0  0  0  0  0  0  0  0  0  0  0  0
  131.0040  125.0020   62.8130 N   0  0  0  0  0  0  0  0  0  0  0  0
  132.2520  124.9740   63.3470 C   0  0  0  0  0  0  0  0  0  0  0  0
  132.3620  125.3850   64.7880 C   0  0  0  0  0  0  0  0  0  0  0  0
  133.6020  125.3700   65.4480 C   0  0  0  0  0  0  0  0  0  0  0  0
  133.7110  125.7500   66.7830 C   0  0  0  0  0  0  0  0  0  0  0  0
  132.5760  126.1520   67.4810 C   0  0  0  0  0  0  0  0  0  0  0  0
  131.3360  126.1710   66.8540 C   0  0  0  0  0  0  0  0  0  0  0  0
  131.2310  125.7890   65.5190 C   0  0  0  0  0  0  0  0  0  0  0  0
  133.3700  124.6060   62.5910 C   0  0  0  0  0  0  0  0  0  0  0  0
  133.2490  124.2290   61.2440 C   0  0  0  0  0  0  0  0  0  0  0  0
  134.5160  123.8370   60.4750 C   0  0  0  0  0  0  0  0  0  0  0  0
  134.7140  122.5180   60.4290 F   0  0  0  0  0  0  0  0  0  0  0  0
  134.4310  124.2720   59.2180 F   0  0  0  0  0  0  0  0  0  0  0  0
  135.5840  124.3820   61.0580 F   0  0  0  0  0  0  0  0  0  0  0  0
  131.9420  124.2430   60.6780 C   0  0  0  0  0  0  0  0  0  0  0  0
  1  2  1  0
  2  3  2  0
  3  4  1  0
  4  5  2  0
  4  6  1  0
  6  7  1  0
  7  8  1  0
  8  9  2  0
  9 10  1  0
 10 11  1  0
  3 12  1  0
 12 13  1  0
 13 14  2  0
 14 15  1  0
 15 16  1  0
 16 17  2  0
 17 18  1  0
 18 19  2  0
 19 20  1  0
 20 21  2  0
 15 22  2  0
 22 23  1  0
 23 24  1  0
 24 25  1  0
 24 26  1  0
 24 27  1  0
 23 28  2  0
 28  2  1  0
 11  7  2  0
 28 13  1  0
 21 16  1  0
M  END
>  <Binding energies>  (35) 
[-7.55]

>  <Ligand effiencies>  (35) 
[-0.24354838709677418]

>  <Interactions>  (35) 
["V-B:MET:535:CE:9807, V-A:ILE:369:CG2:3236, V-B:PRO:540:N:9856, V-B:PRO:540:CA:9855, H-B:TYR:539:N:9842, V-B:TYR:539:CE2:9848, V-B:MET:535:CG:9805, V-B:TYR:539:C:9839, V-B:TYR:531:CE2:9765, V-B:LEU:363:CD1:8160, V-A:ASP:366:CG:3212, V-A:ASP:366:CA:3209, V-A:ASP:366:CB:3211, V-A:ASP:366:C:3207, H-B:TYR:539:OH:9850, V-A:ILE:369:CD1:3238, V-B:TYR:539:CZ:9849, H-B:TYR:539:O:9840, V-A:ILE:369:CB:3235, V-A:TYR:484:CZ:4346, V-A:HIS:456:CE1:4069, V-A:ARG:545:CD:4923, V-A:ARG:545:CG:4922, V-A:ARG:545:CZ:4926, V-A:GLY:453:CA:4043, V-A:ILE:369:CG1:3237, V-A:CYS:365:C:3203"]

$$$$
8a_Ghoteimi_2023
     RDKit          3D

 40 44  0  0  0  0  0  0  0  0999 V2000
  130.6400  117.4220   60.0340 C   0  0  0  0  0  0  0  0  0  0  0  0
  131.7810  117.8880   60.9430 C   0  0  0  0  0  0  0  0  0  0  0  0
  132.6880  118.6850   60.1930 O   0  0  0  0  0  0  0  0  0  0  0  0
  133.5490  119.5370   60.8100 C   0  0  0  0  0  0  0  0  0  0  0  0
  134.7760  119.4680   60.6910 O   0  0  0  0  0  0  0  0  0  0  0  0
  132.8590  120.5670   61.6560 C   0  0  0  0  0  0  0  0  0  0  0  0
  133.6200  121.3590   62.5250 C   0  0  0  0  0  0  0  0  0  0  0  0
  133.0090  122.3220   63.3240 C   0  0  0  0  0  0  0  0  0  0  0  0
  131.6280  122.5130   63.2730 C   0  0  0  0  0  0  0  0  0  0  0  0
  131.1210  123.5110   64.1290 N   0  0  0  0  0  0  0  0  0  0  0  0
  130.7190  124.7780   63.8570 C   0  0  0  0  0  0  0  0  0  0  0  0
  130.7400  125.2870   62.7370 O   0  0  0  0  0  0  0  0  0  0  0  0
  130.2320  125.5390   65.0110 C   0  0  0  0  0  0  0  0  0  0  0  0
  130.9980  125.3540   66.5890 S   0  0  0  0  0  0  0  0  0  0  0  0
  129.8910  126.4970   67.3130 C   0  0  0  0  0  0  0  0  0  0  0  0
  129.9440  126.7980   68.6100 N   0  0  0  0  0  0  0  0  0  0  0  0
  129.0340  127.6950   69.0730 C   0  0  0  0  0  0  0  0  0  0  0  0
  129.0990  128.0020   70.5350 C   0  0  0  0  0  0  0  0  0  0  0  0
  128.7710  129.2750   71.0230 C   0  0  0  0  0  0  0  0  0  0  0  0
  128.8450  129.5580   72.3840 C   0  0  0  0  0  0  0  0  0  0  0  0
  129.2450  128.5780   73.2900 C   0  0  0  0  0  0  0  0  0  0  0  0
  129.2910  128.9500   74.6210 O   0  0  0  0  0  0  0  0  0  0  0  0
  128.1400  128.7530   75.4350 C   0  0  0  0  0  0  0  0  0  0  0  0
  129.5690  127.3000   72.8140 C   0  0  0  0  0  0  0  0  0  0  0  0
  129.4970  127.0200   71.4520 C   0  0  0  0  0  0  0  0  0  0  0  0
  128.0830  128.2900   68.2420 C   0  0  0  0  0  0  0  0  0  0  0  0
  128.0340  127.9900   66.8760 C   0  0  0  0  0  0  0  0  0  0  0  0
  127.0240  128.6760   66.0300 C   0  0  0  0  0  0  0  0  0  0  0  0
  125.6620  128.5270   66.3020 C   0  0  0  0  0  0  0  0  0  0  0  0
  124.7130  129.1840   65.5240 C   0  0  0  0  0  0  0  0  0  0  0  0
  125.1070  130.0060   64.4680 C   0  0  0  0  0  0  0  0  0  0  0  0
  124.0970  130.6180   63.7520 O   0  0  0  0  0  0  0  0  0  0  0  0
  124.0730  130.4890   62.3350 C   0  0  0  0  0  0  0  0  0  0  0  0
  126.4760  130.1630   64.1980 C   0  0  0  0  0  0  0  0  0  0  0  0
  127.4230  129.5050   64.9790 C   0  0  0  0  0  0  0  0  0  0  0  0
  128.9640  127.0360   66.3730 C   0  0  0  0  0  0  0  0  0  0  0  0
  129.1700  126.4570   65.0690 C   0  0  0  0  0  0  0  0  0  0  0  0
  128.3810  126.7690   63.9900 N   0  0  0  0  0  0  0  0  0  0  0  0
  130.8580  121.7280   62.4020 C   0  0  0  0  0  0  0  0  0  0  0  0
  131.4700  120.7650   61.6040 C   0  0  0  0  0  0  0  0  0  0  0  0
  1  2  1  0
  2  3  1  0
  3  4  1  0
  4  5  2  0
  4  6  1  0
  6  7  2  0
  7  8  1  0
  8  9  2  0
  9 10  1  0
 10 11  1  0
 11 12  2  0
 11 13  1  0
 13 14  1  0
 14 15  1  0
 15 16  2  0
 16 17  1  0
 17 18  1  0
 18 19  2  0
 19 20  1  0
 20 21  2  0
 21 22  1  0
 22 23  1  0
 21 24  1  0
 24 25  2  0
 17 26  2  0
 26 27  1  0
 27 28  1  0
 28 29  2  0
 29 30  1  0
 30 31  2  0
 31 32  1  0
 32 33  1  0
 31 34  1  0
 34 35  2  0
 27 36  2  0
 36 37  1  0
 37 38  1  0
  9 39  1  0
 39 40  2  0
 40  6  1  0
 37 13  2  0
 36 15  1  0
 25 18  1  0
 35 28  1  0
M  END
>  <Binding energies>  (36) 
[-8.63]

>  <Ligand effiencies>  (36) 
[-0.20069767441860467]

>  <Interactions>  (36) 
["V-A:ILE:369:CG2:3236, V-B:TYR:539:CD2:9846, V-A:LEU:475:CD1:4257, H-A:SER:385:OG:3409, H-A:HIS:383:NE2:3393, V-B:ALA:541:CB:9864, V-B:TYR:539:C:9839, V-A:PRO:482:CG:4326, H-A:TYR:484:OH:4347, V-B:ASP:366:CG:8184, H-B:GLY:454:N:9021, V-B:ARG:545:CZ:9898, V-B:ILE:369:CD1:8210, V-A:GLU:543:CG:4907, V-A:GLU:543:CD:4908, V-A:SER:385:CA:3406, V-A:GLU:543:C:4902, V-B:HIS:456:CE1:9041, V-A:TYR:484:CZ:4346, V-A:HIS:456:CE1:4069, H-B:GLU:543:OE1:9881, V-B:GLU:543:CD:9880, H-B:GLU:543:OE2:9882, V-A:TYR:484:CE2:4345, V-B:ARG:545:CG:9894, H-A:GLU:543:OE1:4909, V-A:GLY:454:CA:4048, V-B:TYR:539:CB:9843, V-A:HIS:383:CE1:3392, V-B:HIS:456:CD2:9039, H-A:LYS:547:NZ:4951, V-B:ARG:545:CD:9895"]

$$$$
8c_Ghoteimi_2023
     RDKit          3D

 34 38  0  0  0  0  0  0  0  0999 V2000
  130.6140  116.5000   59.9560 C   0  0  0  0  0  0  0  0  0  0  0  0
  131.5870  117.1320   60.7800 O   0  0  0  0  0  0  0  0  0  0  0  0
  131.5370  118.5030   60.9500 C   0  0  0  0  0  0  0  0  0  0  0  0
  130.3030  119.0430   61.3050 C   0  0  0  0  0  0  0  0  0  0  0  0
  130.1590  120.4150   61.4940 C   0  0  0  0  0  0  0  0  0  0  0  0
  131.2480  121.2830   61.3330 C   0  0  0  0  0  0  0  0  0  0  0  0
  131.0990  122.7580   61.5310 C   0  0  0  0  0  0  0  0  0  0  0  0
  131.1270  123.3380   62.8030 C   0  0  0  0  0  0  0  0  0  0  0  0
  130.9870  124.7210   62.9600 C   0  0  0  0  0  0  0  0  0  0  0  0
  131.0120  125.3020   64.3220 C   0  0  0  0  0  0  0  0  0  0  0  0
  129.8200  125.5070   65.0220 C   0  0  0  0  0  0  0  0  0  0  0  0
  129.8460  126.0440   66.3050 C   0  0  0  0  0  0  0  0  0  0  0  0
  131.0580  126.3870   66.9070 C   0  0  0  0  0  0  0  0  0  0  0  0
  130.9870  126.9110   68.1830 O   0  0  0  0  0  0  0  0  0  0  0  0
  129.8490  127.6800   68.5560 C   0  0  0  0  0  0  0  0  0  0  0  0
  132.2540  126.1840   66.2010 C   0  0  0  0  0  0  0  0  0  0  0  0
  132.2280  125.6450   64.9170 C   0  0  0  0  0  0  0  0  0  0  0  0
  130.8240  125.5130   61.7930 C   0  0  0  0  0  0  0  0  0  0  0  0
  130.6600  126.9280   61.5890 C   0  0  0  0  0  0  0  0  0  0  0  0
  130.6370  127.8230   62.6300 N   0  0  0  0  0  0  0  0  0  0  0  0
  130.5300  127.2980   60.2410 C   0  0  0  0  0  0  0  0  0  0  0  0
  130.3540  128.6370   59.6750 C   0  0  0  0  0  0  0  0  0  0  0  0
  129.4260  129.3600   60.0440 O   0  0  0  0  0  0  0  0  0  0  0  0
  131.2670  128.9970   58.7400 N   0  0  0  0  0  0  0  0  0  0  0  0
  131.3290  130.2030   58.0560 C   0  0  0  0  0  0  0  0  0  0  0  0
  130.3570  131.0660   57.8500 N   0  0  0  0  0  0  0  0  0  0  0  0
  130.7740  132.1090   57.1600 C   0  0  0  0  0  0  0  0  0  0  0  0
  132.1140  132.1060   56.7880 C   0  0  0  0  0  0  0  0  0  0  0  0
  132.8610  130.6510   57.3790 S   0  0  0  0  0  0  0  0  0  0  0  0
  130.6110  125.8870   59.1830 S   0  0  0  0  0  0  0  0  0  0  0  0
  130.8170  124.8160   60.5500 C   0  0  0  0  0  0  0  0  0  0  0  0
  130.9470  123.4980   60.3990 N   0  0  0  0  0  0  0  0  0  0  0  0
  132.4870  120.7320   60.9780 C   0  0  0  0  0  0  0  0  0  0  0  0
  132.6340  119.3610   60.7870 C   0  0  0  0  0  0  0  0  0  0  0  0
  1  2  1  0
  2  3  1  0
  3  4  2  0
  4  5  1  0
  5  6  2  0
  6  7  1  0
  7  8  2  0
  8  9  1  0
  9 10  1  0
 10 11  2  0
 11 12  1  0
 12 13  2  0
 13 14  1  0
 14 15  1  0
 13 16  1  0
 16 17  2  0
  9 18  2  0
 18 19  1  0
 19 20  1  0
 19 21  2  0
 21 22  1  0
 22 23  2  0
 22 24  1  0
 24 25  1  0
 25 26  2  0
 26 27  1  0
 27 28  2  0
 28 29  1  0
 21 30  1  0
 30 31  1  0
 31 32  2  0
  6 33  1  0
 33 34  2  0
 34  3  1  0
 32  7  1  0
 17 10  1  0
 31 18  1  0
 29 25  1  0
M  END
>  <Binding energies>  (37) 
[-7.92]

>  <Ligand effiencies>  (37) 
[-0.21405405405405406]

>  <Interactions>  (37) 
["V-A:LEU:475:CD1:4257, H-A:SER:385:OG:3409, H-A:HIS:383:NE2:3393, V-B:ALA:541:CB:9864, V-A:PRO:482:CG:4326, V-A:ASP:366:CG:3212, V-A:PRO:540:N:4884, V-A:ASP:366:CB:3211, V-A:PRO:540:CA:4883, V-A:PRO:540:CB:4885, V-A:PRO:540:CD:4887, V-A:TYR:539:C:4867, V-A:LEU:363:CD1:3188, V-A:GLU:543:CD:4908, H-A:ASP:366:OD2:3214, V-A:HIS:456:CE1:4069, V-B:GLU:543:CG:9879, V-B:GLU:543:CD:9880, V-A:ARG:545:CG:4922, V-A:ARG:545:CZ:4926, V-A:GLU:543:CB:4906, V-A:PRO:540:CG:4886, H-A:GLU:543:OE1:4909, H-A:GLU:543:OE2:4910, V-B:TYR:539:CB:9843, V-A:HIS:383:CE1:3392, V-B:VAL:344:CG1:7972"]

$$$$
8d_Ghoteimi_2023
     RDKit          3D

 30 33  0  0  0  0  0  0  0  0999 V2000
  132.1900  131.5860   61.4750 C   0  0  0  0  0  0  0  0  0  0  0  0
  130.7810  131.4150   61.5390 O   0  0  0  0  0  0  0  0  0  0  0  0
  130.0570  131.1820   60.4130 C   0  0  0  0  0  0  0  0  0  0  0  0
  129.6450  132.0690   59.6620 O   0  0  0  0  0  0  0  0  0  0  0  0
  129.8080  129.7430   60.1760 C   0  0  0  0  0  0  0  0  0  0  0  0
  128.6520  129.2420   58.9410 S   0  0  0  0  0  0  0  0  0  0  0  0
  128.9450  127.5550   59.2960 C   0  0  0  0  0  0  0  0  0  0  0  0
  128.3160  126.5780   58.6420 N   0  0  0  0  0  0  0  0  0  0  0  0
  128.6180  125.3010   58.9960 C   0  0  0  0  0  0  0  0  0  0  0  0
  127.8960  124.2250   58.2490 C   0  0  0  0  0  0  0  0  0  0  0  0
  126.5540  124.3800   57.8710 C   0  0  0  0  0  0  0  0  0  0  0  0
  125.8860  123.3760   57.1770 C   0  0  0  0  0  0  0  0  0  0  0  0
  126.5390  122.1900   56.8430 C   0  0  0  0  0  0  0  0  0  0  0  0
  125.7990  121.2500   56.1530 O   0  0  0  0  0  0  0  0  0  0  0  0
  125.0150  121.6640   55.0390 C   0  0  0  0  0  0  0  0  0  0  0  0
  127.8820  122.0250   57.2130 C   0  0  0  0  0  0  0  0  0  0  0  0
  128.5470  123.0330   57.9070 C   0  0  0  0  0  0  0  0  0  0  0  0
  129.5400  125.0040   60.0050 C   0  0  0  0  0  0  0  0  0  0  0  0
  130.2010  126.0280   60.6890 C   0  0  0  0  0  0  0  0  0  0  0  0
  131.1780  125.6820   61.7470 C   0  0  0  0  0  0  0  0  0  0  0  0
  130.9100  125.9970   63.0810 C   0  0  0  0  0  0  0  0  0  0  0  0
  131.8320  125.6790   64.0750 C   0  0  0  0  0  0  0  0  0  0  0  0
  133.0300  125.0410   63.7520 C   0  0  0  0  0  0  0  0  0  0  0  0
  133.8850  124.7660   64.8020 O   0  0  0  0  0  0  0  0  0  0  0  0
  133.6510  125.3760   66.0660 C   0  0  0  0  0  0  0  0  0  0  0  0
  133.2960  124.7210   62.4100 C   0  0  0  0  0  0  0  0  0  0  0  0
  132.3730  125.0400   61.4180 C   0  0  0  0  0  0  0  0  0  0  0  0
  129.9030  127.3700   60.3340 C   0  0  0  0  0  0  0  0  0  0  0  0
  130.3780  128.6370   60.8170 C   0  0  0  0  0  0  0  0  0  0  0  0
  131.3050  128.7430   61.8230 N   0  0  0  0  0  0  0  0  0  0  0  0
  1  2  1  0
  2  3  1  0
  3  4  2  0
  3  5  1  0
  5  6  1  0
  6  7  1  0
  7  8  2  0
  8  9  1  0
  9 10  1  0
 10 11  2  0
 11 12  1  0
 12 13  2  0
 13 14  1  0
 14 15  1  0
 13 16  1  0
 16 17  2  0
  9 18  2  0
 18 19  1  0
 19 20  1  0
 20 21  2  0
 21 22  1  0
 22 23  2  0
 23 24  1  0
 24 25  1  0
 23 26  1  0
 26 27  2  0
 19 28  2  0
 28 29  1  0
 29 30  1  0
 29  5  2  0
 28  7  1  0
 17 10  1  0
 27 20  1  0
M  END
>  <Binding energies>  (38) 
[-7.56]

>  <Ligand effiencies>  (38) 
[-0.23625]

>  <Interactions>  (38) 
["V-B:PRO:540:CB:9857, V-B:MET:535:CE:9807, V-B:TYR:539:CD2:9846, V-B:PRO:540:N:9856, V-B:PRO:540:CA:9855, H-B:TYR:539:N:9842, V-B:TYR:539:CE2:9848, V-B:MET:535:CG:9805, V-B:TYR:539:C:9839, V-B:TYR:531:CE2:9765, V-B:LEU:363:CD1:8160, V-B:TYR:539:CA:9841, H-A:TYR:484:OH:4347, V-A:ASP:366:CG:3212, H-A:GLY:454:N:4049, V-B:PRO:540:CD:9859, V-A:PRO:540:CA:4883, V-A:PRO:540:CB:4885, V-A:PRO:540:C:4881, V-A:GLU:543:CD:4908, H-A:ASP:366:OD2:3214, V-B:TYR:539:CZ:9849, V-B:TYR:539:CG:9844, V-A:ARG:545:CD:4923, V-B:TYR:539:CE1:9847, V-B:TYR:539:CD1:9845, V-A:ARG:545:CG:4922, V-A:ARG:545:CZ:4926, H-A:ALA:541:N:4891, V-B:ILE:538:CA:9832, V-B:ILE:538:CG1:9836, V-B:ILE:538:CG2:9835, V-B:ILE:538:C:9830, V-B:ILE:538:CB:9834, H-A:GLU:543:OE1:4909, H-A:GLU:543:OE2:4910, H-A:ASP:366:OD1:3213"]

$$$$
9a_Ghoteimi_2023
     RDKit          3D

 48 54  0  0  0  0  0  0  0  0999 V2000
  130.8700  131.7280   54.9580 C   0  0  0  0  0  0  0  0  0  0  0  0
  129.8290  131.2970   53.9200 C   0  0  0  0  0  0  0  0  0  0  0  0
  128.5290  131.6490   54.3780 O   0  0  0  0  0  0  0  0  0  0  0  0
  127.6440  130.6980   54.7720 C   0  0  0  0  0  0  0  0  0  0  0  0
  126.7580  130.2480   54.0390 O   0  0  0  0  0  0  0  0  0  0  0  0
  127.8440  130.2520   56.1920 C   0  0  0  0  0  0  0  0  0  0  0  0
  127.1600  129.1220   56.6580 C   0  0  0  0  0  0  0  0  0  0  0  0
  127.3220  128.6840   57.9690 C   0  0  0  0  0  0  0  0  0  0  0  0
  128.1720  129.3650   58.8410 C   0  0  0  0  0  0  0  0  0  0  0  0
  128.2590  128.8330   60.1430 N   0  0  0  0  0  0  0  0  0  0  0  0
  127.2830  128.4160   60.9880 C   0  0  0  0  0  0  0  0  0  0  0  0
  126.0810  128.4400   60.7230 O   0  0  0  0  0  0  0  0  0  0  0  0
  127.7510  127.9080   62.2810 C   0  0  0  0  0  0  0  0  0  0  0  0
  127.4940  128.8470   63.7520 S   0  0  0  0  0  0  0  0  0  0  0  0
  128.2700  127.6190   64.7250 C   0  0  0  0  0  0  0  0  0  0  0  0
  128.3820  127.7430   66.0470 N   0  0  0  0  0  0  0  0  0  0  0  0
  128.9920  126.7270   66.7130 C   0  0  0  0  0  0  0  0  0  0  0  0
  129.0970  126.8820   68.1950 C   0  0  0  0  0  0  0  0  0  0  0  0
  129.5950  128.0650   68.7530 C   0  0  0  0  0  0  0  0  0  0  0  0
  129.6960  128.2190   70.1330 C   0  0  0  0  0  0  0  0  0  0  0  0
  129.2890  127.2000   71.0080 C   0  0  0  0  0  0  0  0  0  0  0  0
  129.4020  127.3330   72.3960 N   0  0  0  0  0  0  0  0  0  0  0  0
  130.6130  126.8940   73.1170 C   0  0  0  0  0  0  0  0  0  0  0  0
  130.4220  126.7790   74.6440 C   0  0  0  0  0  0  0  0  0  0  0  0
  129.9340  128.0030   75.1670 O   0  0  0  0  0  0  0  0  0  0  0  0
  128.6820  128.3500   74.5950 C   0  0  0  0  0  0  0  0  0  0  0  0
  128.8280  128.5160   73.0690 C   0  0  0  0  0  0  0  0  0  0  0  0
  128.8040  126.0110   70.4440 C   0  0  0  0  0  0  0  0  0  0  0  0
  128.7070  125.8570   69.0640 C   0  0  0  0  0  0  0  0  0  0  0  0
  129.5090  125.6090   66.0540 C   0  0  0  0  0  0  0  0  0  0  0  0
  129.4110  125.4840   64.6640 C   0  0  0  0  0  0  0  0  0  0  0  0
  130.0100  124.2920   64.0100 C   0  0  0  0  0  0  0  0  0  0  0  0
  131.3940  124.1020   64.0080 C   0  0  0  0  0  0  0  0  0  0  0  0
  131.9520  122.9780   63.4070 C   0  0  0  0  0  0  0  0  0  0  0  0
  131.1390  122.0030   62.8080 C   0  0  0  0  0  0  0  0  0  0  0  0
  131.6770  120.8720   62.1890 N   0  0  0  0  0  0  0  0  0  0  0  0
  132.9410  120.9970   61.4350 C   0  0  0  0  0  0  0  0  0  0  0  0
  133.6100  119.6380   61.1360 C   0  0  0  0  0  0  0  0  0  0  0  0
  132.6990  118.7860   60.4600 O   0  0  0  0  0  0  0  0  0  0  0  0
  131.5380  118.5380   61.2360 C   0  0  0  0  0  0  0  0  0  0  0  0
  130.8130  119.8670   61.5380 C   0  0  0  0  0  0  0  0  0  0  0  0
  129.7510  122.2020   62.8190 C   0  0  0  0  0  0  0  0  0  0  0  0
  129.1930  123.3280   63.4160 C   0  0  0  0  0  0  0  0  0  0  0  0
  128.7430  126.5200   63.9510 C   0  0  0  0  0  0  0  0  0  0  0  0
  128.4120  126.7010   62.5590 C   0  0  0  0  0  0  0  0  0  0  0  0
  128.7070  125.7640   61.6020 N   0  0  0  0  0  0  0  0  0  0  0  0
  128.8650  130.4960   58.3830 C   0  0  0  0  0  0  0  0  0  0  0  0
  128.7000  130.9330   57.0710 C   0  0  0  0  0  0  0  0  0  0  0  0
  1  2  1  0
  2  3  1  0
  3  4  1  0
  4  5  2  0
  4  6  1  0
  6  7  2  0
  7  8  1  0
  8  9  2  0
  9 10  1  0
 10 11  1  0
 11 12  2  0
 11 13  1  0
 13 14  1  0
 14 15  1  0
 15 16  2  0
 16 17  1  0
 17 18  1  0
 18 19  2  0
 19 20  1  0
 20 21  2  0
 21 22  1  0
 22 23  1  0
 23 24  1  0
 24 25  1  0
 25 26  1  0
 26 27  1  0
 21 28  1  0
 28 29  2  0
 17 30  2  0
 30 31  1  0
 31 32  1  0
 32 33  2  0
 33 34  1  0
 34 35  2  0
 35 36  1  0
 36 37  1  0
 37 38  1  0
 38 39  1  0
 39 40  1  0
 40 41  1  0
 35 42  1  0
 42 43  2  0
 31 44  2  0
 44 45  1  0
 45 46  1  0
  9 47  1  0
 47 48  2  0
 48  6  1  0
 45 13  2  0
 44 15  1  0
 29 18  1  0
 43 32  1  0
 27 22  1  0
 41 36  1  0
M  END
>  <Binding energies>  (39) 
[-9.53]

>  <Ligand effiencies>  (39) 
[-0.1868627450980392]

>  <Interactions>  (39) 
["V-A:ILE:369:CG2:3236, V-A:LEU:475:CD1:4257, H-A:SER:385:OG:3409, H-A:HIS:383:NE2:3393, V-B:ALA:541:CB:9864, V-A:PRO:482:CG:4326, V-B:TYR:531:CZ:9766, V-A:ILE:538:CA:4860, V-A:ILE:538:CG2:4863, V-A:TYR:539:CD1:4873, V-A:TYR:539:CZ:4877, V-A:TYR:539:CE1:4875, V-A:ILE:538:CB:4862, V-B:TYR:531:CE1:9764, H-B:LYS:534:NZ:9795, V-A:GLU:543:CD:4908, V-A:SER:385:CA:3406, H-A:TYR:539:OH:4878, V-A:SER:385:C:3404, V-A:GLU:543:C:4902, V-B:HIS:456:CE1:9041, V-A:HIS:456:CE1:4069, V-B:GLU:543:CB:9878, V-B:GLU:543:CG:9879, V-B:GLU:543:CD:9880, V-A:GLU:543:CB:4906, V-B:GLU:543:CA:9876, V-B:GLU:543:C:9874, V-B:HIS:456:CD2:9039, H-A:LYS:547:NZ:4951, V-A:HIS:456:CG:4065, V-A:HIS:456:CD2:4067"]

$$$$
9b_Ghoteimi_2023
     RDKit          3D

 42 48  0  0  0  0  0  0  0  0999 V2000
  129.2420  124.3700   61.1980 N   0  0  0  0  0  0  0  0  0  0  0  0
  129.4190  123.9350   62.4870 C   0  0  0  0  0  0  0  0  0  0  0  0
  129.6380  122.5900   62.8260 C   0  0  0  0  0  0  0  0  0  0  0  0
  129.7450  121.4300   61.9380 C   0  0  0  0  0  0  0  0  0  0  0  0
  128.8930  121.2190   61.0730 O   0  0  0  0  0  0  0  0  0  0  0  0
  130.8230  120.6330   62.1480 N   0  0  0  0  0  0  0  0  0  0  0  0
  131.1630  119.4710   61.4670 C   0  0  0  0  0  0  0  0  0  0  0  0
  130.2360  118.4850   61.1360 C   0  0  0  0  0  0  0  0  0  0  0  0
  130.9610  117.5190   60.4760 C   0  0  0  0  0  0  0  0  0  0  0  0
  132.2580  117.9050   60.4140 O   0  0  0  0  0  0  0  0  0  0  0  0
  132.3730  119.1440   61.0460 N   0  0  0  0  0  0  0  0  0  0  0  0
  129.7890  122.3900   64.5710 S   0  0  0  0  0  0  0  0  0  0  0  0
  129.5410  124.0990   64.8350 C   0  0  0  0  0  0  0  0  0  0  0  0
  129.5160  124.6200   66.0610 N   0  0  0  0  0  0  0  0  0  0  0  0
  129.2980  125.9580   66.1580 C   0  0  0  0  0  0  0  0  0  0  0  0
  129.2540  126.5130   67.5450 C   0  0  0  0  0  0  0  0  0  0  0  0
  128.8500  125.7240   68.6280 C   0  0  0  0  0  0  0  0  0  0  0  0
  128.7960  126.2500   69.9150 C   0  0  0  0  0  0  0  0  0  0  0  0
  129.1320  127.5900   70.1640 C   0  0  0  0  0  0  0  0  0  0  0  0
  129.0860  128.1330   71.4530 N   0  0  0  0  0  0  0  0  0  0  0  0
  128.6930  129.5380   71.6830 C   0  0  0  0  0  0  0  0  0  0  0  0
  128.3640  129.8610   73.1550 C   0  0  0  0  0  0  0  0  0  0  0  0
  129.4540  129.4960   73.9860 O   0  0  0  0  0  0  0  0  0  0  0  0
  129.7310  128.1080   73.9020 C   0  0  0  0  0  0  0  0  0  0  0  0
  130.0980  127.7270   72.4510 C   0  0  0  0  0  0  0  0  0  0  0  0
  129.5550  128.3700   69.0790 C   0  0  0  0  0  0  0  0  0  0  0  0
  129.6120  127.8420   67.7920 C   0  0  0  0  0  0  0  0  0  0  0  0
  129.1350  126.7710   65.0340 C   0  0  0  0  0  0  0  0  0  0  0  0
  129.1810  126.2310   63.7430 C   0  0  0  0  0  0  0  0  0  0  0  0
  129.0310  127.1430   62.5800 C   0  0  0  0  0  0  0  0  0  0  0  0
  127.7620  127.4950   62.1200 C   0  0  0  0  0  0  0  0  0  0  0  0
  127.6180  128.3640   61.0430 C   0  0  0  0  0  0  0  0  0  0  0  0
  128.7400  128.9040   60.3960 C   0  0  0  0  0  0  0  0  0  0  0  0
  128.6190  129.7910   59.3230 N   0  0  0  0  0  0  0  0  0  0  0  0
  129.5440  130.9360   59.2230 C   0  0  0  0  0  0  0  0  0  0  0  0
  129.0570  132.0290   58.2480 C   0  0  0  0  0  0  0  0  0  0  0  0
  128.8170  131.4650   56.9680 O   0  0  0  0  0  0  0  0  0  0  0  0
  127.8270  130.4480   57.0190 C   0  0  0  0  0  0  0  0  0  0  0  0
  128.2800  129.3170   57.9660 C   0  0  0  0  0  0  0  0  0  0  0  0
  130.0100  128.5580   60.8790 C   0  0  0  0  0  0  0  0  0  0  0  0
  130.1540  127.6880   61.9570 C   0  0  0  0  0  0  0  0  0  0  0  0
  129.3730  124.8260   63.6190 C   0  0  0  0  0  0  0  0  0  0  0  0
  1  2  1  0
  2  3  2  0
  3  4  1  0
  4  5  2  0
  4  6  1  0
  6  7  1  0
  7  8  1  0
  8  9  2  0
  9 10  1  0
 10 11  1  0
  3 12  1  0
 12 13  1  0
 13 14  2  0
 14 15  1  0
 15 16  1  0
 16 17  2  0
 17 18  1  0
 18 19  2  0
 19 20  1  0
 20 21  1  0
 21 22  1  0
 22 23  1  0
 23 24  1  0
 24 25  1  0
 19 26  1  0
 26 27  2  0
 15 28  2  0
 28 29  1  0
 29 30  1  0
 30 31  2  0
 31 32  1  0
 32 33  2  0
 33 34  1  0
 34 35  1  0
 35 36  1  0
 36 37  1  0
 37 38  1  0
 38 39  1  0
 33 40  1  0
 40 41  2  0
 29 42  2  0
 42  2  1  0
 11  7  2  0
 42 13  1  0
 27 16  1  0
 41 30  1  0
 25 20  1  0
 39 34  1  0
M  END
>  <Binding energies>  (40) 
[-8.39]

>  <Ligand effiencies>  (40) 
[-0.18644444444444447]

>  <Interactions>  (40) 
["H-B:ALA:541:N:9863, V-A:LEU:475:CD1:4257, H-A:SER:385:OG:3409, H-A:HIS:383:NE2:3393, V-B:ALA:541:CB:9864, V-B:TYR:539:C:9839, V-A:PRO:482:CG:4326, V-A:PRO:482:CB:4325, H-A:TYR:484:OH:4347, V-A:PRO:540:N:4884, V-A:TYR:539:CD1:4873, V-A:PRO:540:CA:4883, V-A:TYR:539:CZ:4877, V-A:TYR:539:CE1:4875, V-A:TYR:539:C:4867, V-A:GLU:543:CG:4907, V-A:GLU:543:CD:4908, V-A:GLU:543:C:4902, V-B:HIS:456:CE1:9041, V-A:HIS:456:CE1:4069, V-B:GLU:543:CB:9878, V-B:GLU:543:CG:9879, V-B:GLU:543:CD:9880, V-A:GLU:543:CB:4906, V-A:TYR:484:CE2:4345, V-B:GLU:543:CA:9876, V-B:GLU:543:C:9874, V-A:HIS:383:CE1:3392, V-B:HIS:456:CD2:9039, H-A:LYS:547:NZ:4951, V-A:LYS:547:CE:4950, V-B:HIS:456:CG:9037"]

$$$$
9c_Ghoteimi_2023
     RDKit          3D

 42 48  0  0  0  0  0  0  0  0999 V2000
  128.4130  128.5310   66.9460 N   0  0  0  0  0  0  0  0  0  0  0  0
  128.8730  127.2480   67.1000 C   0  0  0  0  0  0  0  0  0  0  0  0
  129.1590  126.6730   68.3480 C   0  0  0  0  0  0  0  0  0  0  0  0
  129.0200  127.2670   69.6810 C   0  0  0  0  0  0  0  0  0  0  0  0
  129.0450  128.4900   69.8320 O   0  0  0  0  0  0  0  0  0  0  0  0
  128.8730  126.3840   70.6980 N   0  0  0  0  0  0  0  0  0  0  0  0
  128.7380  126.6800   72.0480 C   0  0  0  0  0  0  0  0  0  0  0  0
  127.9050  126.1440   72.9130 N   0  0  0  0  0  0  0  0  0  0  0  0
  128.0480  126.6720   74.1140 C   0  0  0  0  0  0  0  0  0  0  0  0
  129.0170  127.6630   74.2390 C   0  0  0  0  0  0  0  0  0  0  0  0
  129.7770  127.9090   72.6950 S   0  0  0  0  0  0  0  0  0  0  0  0
  129.7570  125.0240   68.1680 S   0  0  0  0  0  0  0  0  0  0  0  0
  129.6380  125.1220   66.4280 C   0  0  0  0  0  0  0  0  0  0  0  0
  130.0030  124.1080   65.6450 N   0  0  0  0  0  0  0  0  0  0  0  0
  129.8870  124.2920   64.3040 C   0  0  0  0  0  0  0  0  0  0  0  0
  130.3230  123.1460   63.4480 C   0  0  0  0  0  0  0  0  0  0  0  0
  129.4060  122.4360   62.6660 C   0  0  0  0  0  0  0  0  0  0  0  0
  129.8150  121.3640   61.8780 C   0  0  0  0  0  0  0  0  0  0  0  0
  131.1580  120.9540   61.8550 C   0  0  0  0  0  0  0  0  0  0  0  0
  131.5870  119.8830   61.0620 N   0  0  0  0  0  0  0  0  0  0  0  0
  132.5780  120.0730   59.9840 C   0  0  0  0  0  0  0  0  0  0  0  0
  133.1880  118.7560   59.4590 C   0  0  0  0  0  0  0  0  0  0  0  0
  132.1550  117.8750   59.0480 O   0  0  0  0  0  0  0  0  0  0  0  0
  131.2910  117.5500   60.1250 C   0  0  0  0  0  0  0  0  0  0  0  0
  130.6250  118.8300   60.6760 C   0  0  0  0  0  0  0  0  0  0  0  0
  132.0760  121.6820   62.6260 C   0  0  0  0  0  0  0  0  0  0  0  0
  131.6660  122.7560   63.4100 C   0  0  0  0  0  0  0  0  0  0  0  0
  129.3840  125.4720   63.7530 C   0  0  0  0  0  0  0  0  0  0  0  0
  128.9790  126.5320   64.5720 C   0  0  0  0  0  0  0  0  0  0  0  0
  128.4220  127.7540   63.9400 C   0  0  0  0  0  0  0  0  0  0  0  0
  129.0840  128.3590   62.8710 C   0  0  0  0  0  0  0  0  0  0  0  0
  128.5550  129.4950   62.2640 C   0  0  0  0  0  0  0  0  0  0  0  0
  127.3500  130.0570   62.7130 C   0  0  0  0  0  0  0  0  0  0  0  0
  126.7950  131.1910   62.1120 N   0  0  0  0  0  0  0  0  0  0  0  0
  127.6830  132.1470   61.4200 C   0  0  0  0  0  0  0  0  0  0  0  0
  127.0160  133.5140   61.1540 C   0  0  0  0  0  0  0  0  0  0  0  0
  125.8100  133.3330   60.4280 O   0  0  0  0  0  0  0  0  0  0  0  0
  124.8860  132.5250   61.1390 C   0  0  0  0  0  0  0  0  0  0  0  0
  125.4980  131.1330   61.4100 C   0  0  0  0  0  0  0  0  0  0  0  0
  126.6830  129.4290   63.7750 C   0  0  0  0  0  0  0  0  0  0  0  0
  127.2110  128.2930   64.3810 C   0  0  0  0  0  0  0  0  0  0  0  0
  129.1240  126.3750   65.9800 C   0  0  0  0  0  0  0  0  0  0  0  0
  1  2  1  0
  2  3  2  0
  3  4  1  0
  4  5  2  0
  4  6  1  0
  6  7  1  0
  7  8  2  0
  8  9  1  0
  9 10  2  0
 10 11  1  0
  3 12  1  0
 12 13  1  0
 13 14  2  0
 14 15  1  0
 15 16  1  0
 16 17  2  0
 17 18  1  0
 18 19  2  0
 19 20  1  0
 20 21  1  0
 21 22  1  0
 22 23  1  0
 23 24  1  0
 24 25  1  0
 19 26  1  0
 26 27  2  0
 15 28  2  0
 28 29  1  0
 29 30  1  0
 30 31  2  0
 31 32  1  0
 32 33  2  0
 33 34  1  0
 34 35  1  0
 35 36  1  0
 36 37  1  0
 37 38  1  0
 38 39  1  0
 33 40  1  0
 40 41  2  0
 29 42  2  0
 42  2  1  0
 11  7  1  0
 42 13  1  0
 27 16  1  0
 41 30  1  0
 25 20  1  0
 39 34  1  0
M  END
>  <Binding energies>  (41) 
[-8.6]

>  <Ligand effiencies>  (41) 
[-0.1911111111111111]

>  <Interactions>  (41) 
["V-A:ILE:369:CG2:3236, V-B:TYR:539:CD2:9846, V-A:LEU:475:CD1:4257, H-A:HIS:383:NE2:3393, V-B:ALA:541:CB:9864, V-B:TYR:539:CE2:9848, V-B:TYR:539:C:9839, V-A:PRO:482:CG:4326, H-A:TYR:484:OH:4347, V-A:TYR:539:CD1:4873, V-A:ALA:541:CB:4892, V-B:ILE:369:CD1:8210, V-A:GLU:543:CG:4907, V-A:GLU:543:CD:4908, V-B:HIS:456:CE1:9041, V-A:TYR:484:CZ:4346, V-A:HIS:456:CE1:4069, V-B:GLU:543:CB:9878, V-B:GLU:543:CG:9879, V-B:GLU:543:CD:9880, V-A:GLU:543:CB:4906, V-A:TYR:484:CE2:4345, V-B:ILE:369:CG2:8208, H-A:GLU:543:OE1:4909, V-A:HIS:383:CE1:3392, V-A:HIS:383:CD2:3391, H-A:HIS:456:NE2:4070, V-B:HIS:456:CD2:9039, H-B:HIS:456:NE2:9042, H-B:GLU:543:O:9875"]

$$$$
RR11_Rahimova_2017
     RDKit          3D

 33 38  0  0  0  0  0  0  0  0999 V2000
  132.8860  125.4030   55.5510 N   0  0  0  0  0  0  0  0  0  0  0  0
  131.7750  126.0790   56.0510 C   0  0  0  0  0  0  0  0  0  0  0  0
  131.9390  127.0430   57.0440 C   0  0  0  0  0  0  0  0  0  0  0  0
  130.8280  127.7200   57.5400 C   0  0  0  0  0  0  0  0  0  0  0  0
  129.5460  127.4410   57.0500 C   0  0  0  0  0  0  0  0  0  0  0  0
  128.3510  128.1750   57.5820 C   0  0  0  0  0  0  0  0  0  0  0  0
  128.1990  128.5360   58.8380 N   0  0  0  0  0  0  0  0  0  0  0  0
  126.9920  129.1830   58.8850 C   0  0  0  0  0  0  0  0  0  0  0  0
  126.3480  129.7760   59.9790 C   0  0  0  0  0  0  0  0  0  0  0  0
  125.1120  130.4000   59.7660 C   0  0  0  0  0  0  0  0  0  0  0  0
  124.3850  131.0480   60.9370 C   0  0  0  0  0  0  0  0  0  0  0  0
  125.1450  130.9220   62.2500 C   0  0  0  0  0  0  0  0  0  0  0  0
  125.6840  132.0670   62.8460 C   0  0  0  0  0  0  0  0  0  0  0  0
  126.3810  132.0040   64.0550 C   0  0  0  0  0  0  0  0  0  0  0  0
  126.5250  130.7540   64.6690 C   0  0  0  0  0  0  0  0  0  0  0  0
  127.1620  130.4290   65.8380 N   0  0  0  0  0  0  0  0  0  0  0  0
  127.0150  129.1280   65.9650 C   0  0  0  0  0  0  0  0  0  0  0  0
  127.5680  128.3170   67.1010 C   0  0  0  0  0  0  0  0  0  0  0  0
  128.7370  128.7200   67.7590 C   0  0  0  0  0  0  0  0  0  0  0  0
  129.2570  127.9630   68.8060 C   0  0  0  0  0  0  0  0  0  0  0  0
  128.6090  126.7950   69.2030 C   0  0  0  0  0  0  0  0  0  0  0  0
  129.1310  126.0340   70.2480 N   0  0  0  0  0  0  0  0  0  0  0  0
  127.4440  126.3840   68.5610 C   0  0  0  0  0  0  0  0  0  0  0  0
  126.9250  127.1420   67.5150 C   0  0  0  0  0  0  0  0  0  0  0  0
  126.2950  128.5860   64.9210 N   0  0  0  0  0  0  0  0  0  0  0  0
  125.9630  129.6060   64.0610 C   0  0  0  0  0  0  0  0  0  0  0  0
  125.2610  129.6630   62.8540 C   0  0  0  0  0  0  0  0  0  0  0  0
  124.5260  130.4060   58.4950 C   0  0  0  0  0  0  0  0  0  0  0  0
  125.1410  129.8190   57.3860 C   0  0  0  0  0  0  0  0  0  0  0  0
  126.3810  129.2150   57.6090 C   0  0  0  0  0  0  0  0  0  0  0  0
  127.2790  128.5570   56.8020 N   0  0  0  0  0  0  0  0  0  0  0  0
  129.3960  126.4680   56.0530 C   0  0  0  0  0  0  0  0  0  0  0  0
  130.5050  125.7890   55.5540 C   0  0  0  0  0  0  0  0  0  0  0  0
  1  2  1  0
  2  3  2  0
  3  4  1  0
  4  5  2  0
  5  6  1  0
  6  7  2  0
  7  8  1  0
  8  9  2  0
  9 10  1  0
 10 11  1  0
 11 12  1  0
 12 13  2  0
 13 14  1  0
 14 15  2  0
 15 16  1  0
 16 17  2  0
 17 18  1  0
 18 19  2  0
 19 20  1  0
 20 21  2  0
 21 22  1  0
 21 23  1  0
 23 24  2  0
 17 25  1  0
 25 26  1  0
 26 27  2  0
 10 28  2  0
 28 29  1  0
 29 30  2  0
 30 31  1  0
  5 32  1  0
 32 33  2  0
 33  2  1  0
 31  6  1  0
 30  8  1  0
 27 12  1  0
 26 15  1  0
 24 18  1  0
M  END
>  <Binding energies>  (42) 
[-8.64]

>  <Ligand effiencies>  (42) 
[-0.22153846153846155]

>  <Interactions>  (42) 
["H-B:TYR:531:OH:9767, V-B:MET:535:CE:9807, V-B:TYR:531:CZ:9766, V-A:ASP:366:CG:3212, V-A:TYR:531:CE1:4792, V-A:ASP:366:CB:3211, V-A:ASN:370:CB:3244, V-A:ASP:366:C:3207, H-B:TYR:539:OH:9850, H-A:TYR:531:OH:4795, V-A:TYR:539:CZ:4877, V-A:TYR:539:CE1:4875, V-A:TYR:531:CZ:4794, V-B:ASP:366:CG:8184, V-B:TYR:531:CE1:9764, V-B:ASP:366:CB:8183, V-B:ARG:545:CZ:9898, V-B:ASP:366:CA:8181, V-B:ILE:369:CD1:8210, V-A:GLU:543:CG:4907, V-A:GLU:543:CD:4908, H-B:TYR:484:OH:9319, V-B:ASP:366:C:8179, V-B:HIS:456:CE1:9041, V-A:HIS:456:CE1:4069, V-B:GLU:543:CB:9878, H-B:GLU:543:OE1:9881, V-B:GLU:543:CD:9880, H-B:GLU:543:OE2:9882, V-A:GLU:543:CB:4906, V-B:LEU:475:CD1:9229, V-B:ILE:369:CG2:8208, V-B:GLU:543:CA:9876, V-B:GLU:543:C:9874, V-B:ARG:545:CG:9894, H-A:ASN:370:OD1:3246, H-A:ASP:366:O:3208, H-A:HIS:456:NE2:4070, V-A:ASN:370:CG:3245, H-B:HIS:456:NE2:9042, H-B:GLU:543:O:9875"]

$$$$
RR16_Rahimova_2017
     RDKit          3D

 44 49  0  0  0  0  0  0  0  0999 V2000
  132.9080  122.6370   64.2010 O   0  0  0  0  0  0  0  0  0  0  0  0
  133.4700  123.1790   62.9580 S   0  0  0  0  0  0  0  0  0  0  0  0
  134.7310  122.6610   62.4140 O   0  0  0  0  0  0  0  0  0  0  0  0
  133.6380  124.9230   63.1660 N   0  0  0  0  0  0  0  0  0  0  0  0
  132.7360  125.6720   64.0730 C   0  0  0  0  0  0  0  0  0  0  0  0
  131.2690  125.2570   63.7890 C   0  0  0  0  0  0  0  0  0  0  0  0
  130.1810  125.8170   64.7260 C   0  0  0  0  0  0  0  0  0  0  0  0
  130.1710  125.1740   66.1240 C   0  0  0  0  0  0  0  0  0  0  0  0
  131.1720  125.7580   67.1380 C   0  0  0  0  0  0  0  0  0  0  0  0
  132.4920  126.3240   66.5790 C   0  0  0  0  0  0  0  0  0  0  0  0
  133.2210  125.4650   65.5270 C   0  0  0  0  0  0  0  0  0  0  0  0
  132.2120  122.9990   61.6990 C   0  0  0  0  0  0  0  0  0  0  0  0
  132.4100  123.5330   60.4240 C   0  0  0  0  0  0  0  0  0  0  0  0
  131.3760  123.4930   59.4920 C   0  0  0  0  0  0  0  0  0  0  0  0
  130.1510  122.9210   59.8400 C   0  0  0  0  0  0  0  0  0  0  0  0
  128.7750  122.9950   58.6940 S   0  0  0  0  0  0  0  0  0  0  0  0
  127.5410  122.8930   59.4840 O   0  0  0  0  0  0  0  0  0  0  0  0
  129.0480  122.0360   57.6170 O   0  0  0  0  0  0  0  0  0  0  0  0
  128.8660  124.6310   58.0130 N   0  0  0  0  0  0  0  0  0  0  0  0
  129.3730  124.6900   56.6180 C   0  0  0  0  0  0  0  0  0  0  0  0
  129.7110  126.1430   56.2270 C   0  0  0  0  0  0  0  0  0  0  0  0
  128.5160  127.0970   56.4770 C   0  0  0  0  0  0  0  0  0  0  0  0
  128.8460  128.5530   56.1380 C   0  0  0  0  0  0  0  0  0  0  0  0
  127.9180  129.3310   55.4310 C   0  0  0  0  0  0  0  0  0  0  0  0
  128.1740  130.6640   55.1080 C   0  0  0  0  0  0  0  0  0  0  0  0
  127.2530  131.4100   54.4190 O   0  0  0  0  0  0  0  0  0  0  0  0
  129.3970  131.2210   55.5130 C   0  0  0  0  0  0  0  0  0  0  0  0
  129.9040  132.4790   55.3590 N   0  0  0  0  0  0  0  0  0  0  0  0
  131.1370  132.5070   55.9730 N   0  0  0  0  0  0  0  0  0  0  0  0
  131.4000  131.2770   56.4560 N   0  0  0  0  0  0  0  0  0  0  0  0
  132.6080  131.0380   57.2350 C   0  0  0  0  0  0  0  0  0  0  0  0
  132.3700  131.1370   58.7350 C   0  0  0  0  0  0  0  0  0  0  0  0
  133.4480  131.0600   59.6240 C   0  0  0  0  0  0  0  0  0  0  0  0
  133.2340  131.1730   60.9980 C   0  0  0  0  0  0  0  0  0  0  0  0
  131.9430  131.3650   61.4910 C   0  0  0  0  0  0  0  0  0  0  0  0
  130.8650  131.4460   60.6100 C   0  0  0  0  0  0  0  0  0  0  0  0
  129.2680  131.6940   61.2160 Cl  0  0  0  0  0  0  0  0  0  0  0  0
  131.0770  131.3280   59.2350 C   0  0  0  0  0  0  0  0  0  0  0  0
  130.3310  130.4280   56.2200 C   0  0  0  0  0  0  0  0  0  0  0  0
  130.0780  129.0900   56.5410 C   0  0  0  0  0  0  0  0  0  0  0  0
  127.9180  126.9320   57.8980 C   0  0  0  0  0  0  0  0  0  0  0  0
  127.6480  125.4530   58.2400 C   0  0  0  0  0  0  0  0  0  0  0  0
  129.9690  122.3510   61.1020 C   0  0  0  0  0  0  0  0  0  0  0  0
  131.0000  122.3930   62.0340 C   0  0  0  0  0  0  0  0  0  0  0  0
  1  2  2  0
  2  3  2  0
  2  4  1  0
  4  5  1  0
  5  6  1  0
  6  7  1  0
  7  8  1  0
  8  9  1  0
  9 10  1  0
 10 11  1  0
  2 12  1  0
 12 13  2  0
 13 14  1  0
 14 15  2  0
 15 16  1  0
 16 17  2  0
 16 18  2  0
 16 19  1  0
 19 20  1  0
 20 21  1  0
 21 22  1  0
 22 23  1  0
 23 24  2  0
 24 25  1  0
 25 26  1  0
 25 27  2  0
 27 28  1  0
 28 29  2  0
 29 30  1  0
 30 31  1  0
 31 32  1  0
 32 33  2  0
 33 34  1  0
 34 35  2  0
 35 36  1  0
 36 37  1  0
 36 38  2  0
 30 39  1  0
 39 40  2  0
 22 41  1  0
 41 42  1  0
 15 43  1  0
 43 44  2  0
 11  5  1  0
 44 12  1  0
 42 19  1  0
 40 23  1  0
 39 27  1  0
 38 32  1  0
M  END
>  <Binding energies>  (43) 
[-12.07]

>  <Ligand effiencies>  (43) 
[-0.25145833333333334]

>  <Interactions>  (43) 
["V-B:MET:535:CE:9807, V-B:TYR:539:CE2:9848, H-A:TYR:484:OH:4347, V-A:ASP:366:CG:3212, H-A:GLY:454:N:4049, V-A:PRO:540:N:4884, V-A:PRO:540:CA:4883, H-A:TYR:539:N:4870, V-A:TYR:539:CZ:4877, V-A:PRO:540:CB:4885, V-A:TYR:539:CE1:4875, V-B:TYR:531:CE1:9764, H-B:LYS:534:NZ:9795, V-A:ALA:541:CB:4892, V-A:PRO:540:C:4881, V-A:LEU:363:CD1:3188, V-A:GLU:543:CD:4908, V-B:TYR:539:CZ:9849, H-A:TYR:539:OH:4878, H-A:ARG:545:NH2:4928, V-A:TYR:484:CZ:4346, V-A:HIS:456:CE1:4069, V-A:ARG:545:CD:4923, V-B:GLU:543:CG:9879, V-A:ARG:545:CG:4922, V-A:ARG:545:CZ:4926, H-A:ARG:545:NH1:4927, V-A:TYR:484:CE2:4345, V-A:LEU:363:CA:3184, V-A:GLY:454:CA:4048, V-A:ASN:362:CB:3175, V-A:ASN:362:C:3171, H-A:ASP:366:OD1:3213, H-B:ASN:370:OD1:8218"]

$$$$
RR18_Rahimova_2017
     RDKit          3D

 36 41  0  0  0  0  0  0  0  0999 V2000
  134.6800  123.8620   60.3740 C   0  0  0  0  0  0  0  0  0  0  0  0
  133.3750  124.1770   59.6870 C   0  0  0  0  0  0  0  0  0  0  0  0
  132.9710  124.2360   58.3630 C   0  0  0  0  0  0  0  0  0  0  0  0
  131.6220  124.5880   58.3690 C   0  0  0  0  0  0  0  0  0  0  0  0
  131.2500  124.7310   59.6960 C   0  0  0  0  0  0  0  0  0  0  0  0
  129.9410  125.0890   60.3950 C   0  0  1  0  0  0  0  0  0  0  0  0
  129.7240  124.2300   61.6770 C   0  0  0  0  0  0  0  0  0  0  0  0
  129.5360  122.7860   61.5750 C   0  0  0  0  0  0  0  0  0  0  0  0
  128.4150  122.2740   61.5980 O   0  0  0  0  0  0  0  0  0  0  0  0
  130.6860  122.0850   61.4410 N   0  0  0  0  0  0  0  0  0  0  0  0
  130.9000  120.6940   61.3370 C   0  0  0  0  0  0  0  0  0  0  0  0
  129.8620  119.7450   61.3690 C   0  0  0  0  0  0  0  0  0  0  0  0
  130.1410  118.3840   61.2680 C   0  0  0  0  0  0  0  0  0  0  0  0
  131.4570  117.9490   61.1400 C   0  0  0  0  0  0  0  0  0  0  0  0
  132.4960  118.8760   61.1190 C   0  0  0  0  0  0  0  0  0  0  0  0
  132.2310  120.2450   61.2180 C   0  0  0  0  0  0  0  0  0  0  0  0
  133.4060  121.2190   61.1940 C   0  0  0  0  0  0  0  0  0  0  0  0
  129.8180  124.8400   62.8870 C   0  0  0  0  0  0  0  0  0  0  0  0
  129.9720  126.1800   63.0730 N   0  0  0  0  0  0  0  0  0  0  0  0
  129.9520  126.9630   62.0580 C   0  0  0  0  0  0  0  0  0  0  0  0
  129.9860  128.7080   62.1500 S   0  0  0  0  0  0  0  0  0  0  0  0
  129.8900  128.8570   60.3670 C   0  0  0  0  0  0  0  0  0  0  0  0
  129.8640  130.0210   59.6290 C   0  0  0  0  0  0  0  0  0  0  0  0
  129.8340  131.3270   60.3030 C   0  0  0  0  0  0  0  0  0  0  0  0
  129.8530  131.5990   61.5030 O   0  0  0  0  0  0  0  0  0  0  0  0
  129.7590  132.2640   59.3530 N   0  0  0  0  0  0  0  0  0  0  0  0
  129.7690  131.7460   58.0930 C   0  0  0  0  0  0  0  0  0  0  0  0
  129.7180  132.4380   56.8840 C   0  0  0  0  0  0  0  0  0  0  0  0
  129.7710  131.7170   55.6940 C   0  0  0  0  0  0  0  0  0  0  0  0
  129.8830  130.3290   55.7340 C   0  0  0  0  0  0  0  0  0  0  0  0
  129.9310  129.6580   56.9580 C   0  0  0  0  0  0  0  0  0  0  0  0
  129.8550  130.3670   58.1720 C   0  0  0  0  0  0  0  0  0  0  0  0
  129.8260  127.5080   59.8040 C   0  0  0  0  0  0  0  0  0  0  0  0
  129.7000  127.2170   58.6190 O   0  0  0  0  0  0  0  0  0  0  0  0
  129.8990  126.5480   60.7660 N   0  0  0  0  0  0  0  0  0  0  0  0
  132.3240  124.4800   60.4920 O   0  0  0  0  0  0  0  0  0  0  0  0
  1  2  1  0
  2  3  2  0
  3  4  1  0
  4  5  2  0
  6  5  1  1
  6  7  1  0
  7  8  1  0
  8  9  2  0
  8 10  1  0
 10 11  1  0
 11 12  2  0
 12 13  1  0
 13 14  2  0
 14 15  1  0
 15 16  2  0
 16 17  1  0
  7 18  2  0
 18 19  1  0
 19 20  2  0
 20 21  1  0
 21 22  1  0
 22 23  2  0
 23 24  1  0
 24 25  2  0
 24 26  1  0
 26 27  1  0
 27 28  2  0
 28 29  1  0
 29 30  2  0
 30 31  1  0
 31 32  2  0
 22 33  1  0
 33 34  2  0
 33 35  1  0
  5 36  1  0
 36  2  1  0
 35  6  1  0
 16 11  1  0
 35 20  1  0
 32 23  1  0
 32 27  1  0
M  END
>  <Binding energies>  (44) 
[-9.14]

>  <Ligand effiencies>  (44) 
[-0.2405263157894737]

>  <Interactions>  (44) 
["H-B:ALA:541:N:9863, V-A:ILE:369:CG2:3236, V-A:LEU:475:CD1:4257, V-B:PRO:540:C:9853, V-B:ALA:541:CB:9864, V-B:TYR:539:CE2:9848, V-B:TYR:539:C:9839, V-A:PRO:482:CG:4326, V-A:PRO:482:CB:4325, V-A:ASP:366:CG:3212, V-A:PRO:540:N:4884, V-A:ASP:366:CA:3209, V-A:ASP:366:CB:3211, V-A:TYR:539:CG:4872, V-A:ASP:366:C:3207, V-A:TYR:539:CD1:4873, V-A:PRO:540:CA:4883, V-A:TYR:539:CE1:4875, V-A:PRO:540:C:4881, V-A:TYR:539:C:4867, V-A:GLU:543:CD:4908, V-A:ILE:369:CD1:3238, V-A:ILE:369:CB:3235, H-A:ALA:541:N:4891, H-A:TYR:539:O:4868, V-A:TYR:539:CA:4869, V-B:ALA:541:CA:9862, V-A:ILE:369:CG1:3237"]

$$$$
RR20_Rahimova_2017
     RDKit          3D

 38 43  0  0  0  0  0  0  0  0999 V2000
  133.2150  130.9160   57.9050 C   0  0  0  0  0  0  0  0  0  0  0  0
  131.8040  130.8100   57.3560 C   0  0  0  0  0  0  0  0  0  0  0  0
  131.1780  129.5650   57.2860 C   0  0  0  0  0  0  0  0  0  0  0  0
  129.8800  129.4670   56.7920 C   0  0  0  0  0  0  0  0  0  0  0  0
  129.2030  130.6100   56.3510 C   0  0  0  0  0  0  0  0  0  0  0  0
  127.7860  130.4840   55.8370 C   0  0  0  0  0  0  0  0  0  0  0  0
  127.6100  130.5750   54.6190 O   0  0  0  0  0  0  0  0  0  0  0  0
  126.7700  130.2630   56.7220 N   0  0  0  0  0  0  0  0  0  0  0  0
  125.5730  129.4930   56.3460 C   0  0  0  0  0  0  0  0  0  0  0  0
  124.7540  129.3290   57.6150 C   0  0  0  0  0  0  0  0  0  0  0  0
  125.7300  129.6940   58.6920 C   0  0  0  0  0  0  0  0  0  0  0  0
  125.5680  129.6470   60.0770 C   0  0  0  0  0  0  0  0  0  0  0  0
  126.5410  130.1870   60.9270 C   0  0  0  0  0  0  0  0  0  0  0  0
  126.3720  130.1290   62.4200 C   0  0  0  0  0  0  0  0  0  0  0  0
  127.1240  129.2820   63.1050 N   0  0  0  0  0  0  0  0  0  0  0  0
  126.9070  129.3300   64.3950 C   0  0  0  0  0  0  0  0  0  0  0  0
  127.5210  128.5880   65.3920 N   0  0  0  0  0  0  0  0  0  0  0  0
  126.9500  128.1210   66.5290 C   0  0  0  0  0  0  0  0  0  0  0  0
  125.7640  128.2840   66.8220 O   0  0  0  0  0  0  0  0  0  0  0  0
  127.8340  127.3110   67.5070 C   0  0  0  0  0  0  0  0  0  0  0  0
  129.2010  127.0880   66.9990 N   0  0  0  0  0  0  0  0  0  0  0  0
  130.2030  127.0680   68.0740 C   0  0  0  0  0  0  0  0  0  0  0  0
  131.6280  127.1020   67.4750 C   0  0  0  0  0  0  0  0  0  0  0  0
  131.8090  126.1250   66.3130 C   0  0  0  0  0  0  0  0  0  0  0  0
  133.0830  125.8180   65.8220 C   0  0  0  0  0  0  0  0  0  0  0  0
  133.2470  124.9590   64.7380 C   0  0  0  0  0  0  0  0  0  0  0  0
  132.1300  124.3910   64.1310 C   0  0  0  0  0  0  0  0  0  0  0  0
  130.8570  124.6810   64.6160 C   0  0  0  0  0  0  0  0  0  0  0  0
  130.6790  125.5440   65.7030 C   0  0  0  0  0  0  0  0  0  0  0  0
  129.2860  125.8160   66.2710 C   0  0  0  0  0  0  0  0  0  0  0  0
  125.7030  130.4610   64.8730 S   0  0  0  0  0  0  0  0  0  0  0  0
  125.4730  130.8930   63.1950 C   0  0  0  0  0  0  0  0  0  0  0  0
  124.4260  131.9110   62.8020 C   0  0  0  0  0  0  0  0  0  0  0  0
  127.6530  130.8240   60.3530 C   0  0  0  0  0  0  0  0  0  0  0  0
  127.8070  130.8890   58.9690 C   0  0  0  0  0  0  0  0  0  0  0  0
  126.8690  130.2700   58.1320 C   0  0  0  0  0  0  0  0  0  0  0  0
  129.8270  131.8600   56.4520 C   0  0  0  0  0  0  0  0  0  0  0  0
  131.1250  131.9590   56.9470 C   0  0  0  0  0  0  0  0  0  0  0  0
  1  2  1  0
  2  3  2  0
  3  4  1  0
  4  5  2  0
  5  6  1  0
  6  7  2  0
  6  8  1  0
  8  9  1  0
  9 10  1  0
 10 11  1  0
 11 12  2  0
 12 13  1  0
 13 14  1  0
 14 15  1  0
 15 16  2  0
 16 17  1  0
 17 18  1  0
 18 19  2  0
 18 20  1  0
 20 21  1  0
 21 22  1  0
 22 23  1  0
 23 24  1  0
 24 25  2  0
 25 26  1  0
 26 27  2  0
 27 28  1  0
 28 29  2  0
 29 30  1  0
 16 31  1  0
 31 32  1  0
 32 33  1  0
 13 34  2  0
 34 35  1  0
 35 36  2  0
  5 37  1  0
 37 38  2  0
 38  2  1  0
 36  8  1  0
 36 11  1  0
 32 14  2  0
 30 21  1  0
 29 24  1  0
M  END
>  <Binding energies>  (45) 
[-10.73]

>  <Ligand effiencies>  (45) 
[-0.2751282051282051]

>  <Interactions>  (45) 
["V-B:TYR:531:CZ:9766, V-A:PRO:540:N:4884, V-A:TYR:539:CD1:4873, V-A:PRO:540:CA:4883, V-A:TYR:539:CZ:4877, V-A:PRO:540:CB:4885, V-A:TYR:539:CE1:4875, V-B:ASP:366:CG:8184, V-B:TYR:531:CE1:9764, H-B:LYS:534:NZ:9795, V-B:ASP:366:CB:8183, V-A:PRO:540:CD:4887, V-B:ASP:366:CA:8181, V-A:TYR:539:C:4867, V-A:LEU:363:CD1:3188, V-B:ILE:369:CD1:8210, V-B:GLY:454:CA:9020, V-A:GLU:543:CD:4908, H-B:ARG:545:NE:9896, H-B:TYR:484:OH:9319, V-B:ASP:366:C:8179, H-A:TYR:539:OH:4878, V-B:HIS:456:CE1:9041, V-A:HIS:456:CE1:4069, V-B:GLU:543:CB:9878, V-A:ARG:545:CD:4923, V-B:GLU:543:CG:9879, V-B:GLU:543:CD:9880, H-B:GLU:543:OE2:9882, V-A:ARG:545:CG:4922, V-A:ARG:545:CZ:4926, V-A:GLU:543:CB:4906, V-A:LEU:363:CA:3184, V-A:LEU:363:CB:3186, V-B:LEU:475:CD1:9229, H-A:GLU:543:OE1:4909"]

$$$$
RR21_Rahimova_2017
     RDKit          3D

 40 45  0  0  0  0  0  0  0  0999 V2000
  124.5890  130.1820   62.4570 C   0  0  0  0  0  0  0  0  0  0  0  0
  124.4440  130.2380   63.8730 O   0  0  0  0  0  0  0  0  0  0  0  0
  125.3750  129.6030   64.6730 C   0  0  0  0  0  0  0  0  0  0  0  0
  126.7280  129.4340   64.3300 C   0  0  0  0  0  0  0  0  0  0  0  0
  127.6040  128.7820   65.1970 C   0  0  0  0  0  0  0  0  0  0  0  0
  127.1550  128.2860   66.4260 C   0  0  0  0  0  0  0  0  0  0  0  0
  128.1000  127.5900   67.3570 C   0  0  0  0  0  0  0  0  0  0  0  0
  128.1700  127.9640   68.6200 N   0  0  0  0  0  0  0  0  0  0  0  0
  129.0840  127.1760   69.2050 N   0  0  0  0  0  0  0  0  0  0  0  0
  129.3950  127.2990   70.5840 C   0  0  0  0  0  0  0  0  0  0  0  0
  130.1960  128.3530   71.0480 C   0  0  0  0  0  0  0  0  0  0  0  0
  130.4900  128.4660   72.4050 C   0  0  0  0  0  0  0  0  0  0  0  0
  129.9860  127.5260   73.3010 C   0  0  0  0  0  0  0  0  0  0  0  0
  129.1930  126.4730   72.8530 C   0  0  0  0  0  0  0  0  0  0  0  0
  128.8970  126.3580   71.4970 C   0  0  0  0  0  0  0  0  0  0  0  0
  129.5860  126.2780   68.2970 C   0  0  0  0  0  0  0  0  0  0  0  0
  128.9810  126.5220   67.0730 C   0  0  0  0  0  0  0  0  0  0  0  0
  129.1570  125.7980   65.8230 C   0  0  0  0  0  0  0  0  0  0  0  0
  130.3100  125.5210   65.1710 C   0  0  0  0  0  0  0  0  0  0  0  0
  131.9650  125.9680   65.6410 S   0  0  0  0  0  0  0  0  0  0  0  0
  132.5780  125.1380   64.2180 C   0  0  0  0  0  0  0  0  0  0  0  0
  133.8130  124.9990   63.8480 N   0  0  0  0  0  0  0  0  0  0  0  0
  134.1770  124.2880   62.6720 C   0  0  0  0  0  0  0  0  0  0  0  0
  135.3230  124.0950   62.2650 O   0  0  0  0  0  0  0  0  0  0  0  0
  133.0050  123.7390   61.9060 C   0  0  0  0  0  0  0  0  0  0  0  0
  133.2740  122.9690   60.6070 C   0  0  0  0  0  0  0  0  0  0  0  0
  132.7090  121.5500   60.5880 C   0  0  0  0  0  0  0  0  0  0  0  0
  133.5620  120.4540   60.7430 C   0  0  0  0  0  0  0  0  0  0  0  0
  133.0440  119.1620   60.7420 C   0  0  0  0  0  0  0  0  0  0  0  0
  131.6710  118.9610   60.5900 C   0  0  0  0  0  0  0  0  0  0  0  0
  131.1100  117.5510   60.6020 C   0  0  0  0  0  0  0  0  0  0  0  0
  130.8140  120.0560   60.4470 C   0  0  0  0  0  0  0  0  0  0  0  0
  131.3320  121.3480   60.4470 C   0  0  0  0  0  0  0  0  0  0  0  0
  131.7770  123.8900   62.2850 N   0  0  0  0  0  0  0  0  0  0  0  0
  131.5620  124.6030   63.4700 N   0  0  0  0  0  0  0  0  0  0  0  0
  130.2950  124.7750   63.9210 C   0  0  0  0  0  0  0  0  0  0  0  0
  129.2810  124.3510   63.3530 O   0  0  0  0  0  0  0  0  0  0  0  0
  125.8080  128.4470   66.7650 C   0  0  0  0  0  0  0  0  0  0  0  0
  124.9290  129.0990   65.8990 C   0  0  0  0  0  0  0  0  0  0  0  0
  123.6310  129.2400   66.2570 F   0  0  0  0  0  0  0  0  0  0  0  0
  1  2  1  0
  2  3  1  0
  3  4  2  0
  4  5  1  0
  5  6  2  0
  6  7  1  0
  7  8  2  0
  8  9  1  0
  9 10  1  0
 10 11  2  0
 11 12  1  0
 12 13  2  0
 13 14  1  0
 14 15  2  0
  9 16  1  0
 16 17  2  0
 17 18  1  0
 18 19  2  0
 19 20  1  0
 20 21  1  0
 21 22  2  0
 22 23  1  0
 23 24  2  0
 23 25  1  0
 25 26  1  0
 26 27  1  0
 27 28  2  0
 28 29  1  0
 29 30  2  0
 30 31  1  0
 30 32  1  0
 32 33  2  0
 25 34  2  0
 34 35  1  0
 35 36  1  0
 36 37  2  0
  6 38  1  0
 38 39  2  0
 39 40  1  0
 39  3  1  0
 17  7  1  0
 36 19  1  0
 15 10  1  0
 35 21  1  0
 33 27  1  0
M  END
>  <Binding energies>  (46) 
[-10.95]

>  <Ligand effiencies>  (46) 
[-0.27375]

>  <Interactions>  (46) 
["V-A:ILE:369:CG2:3236, V-B:TYR:539:CD2:9846, V-A:LEU:475:CD1:4257, V-B:TYR:539:CE2:9848, V-A:PRO:482:CG:4326, H-A:GLY:454:N:4049, V-B:ASP:366:CG:8184, H-B:GLY:454:N:9021, V-B:ARG:545:CZ:9898, V-B:GLY:453:C:9013, V-B:GLY:453:CA:9015, V-B:GLY:454:CA:9020, V-A:GLU:543:CD:4908, H-A:ARG:545:NH2:4928, V-A:GLU:543:C:4902, V-B:HIS:456:CE1:9041, V-A:HIS:456:CE1:4069, V-A:GLY:544:C:4912, V-B:GLU:543:CB:9878, V-B:GLU:543:CG:9879, V-B:GLU:543:CD:9880, V-A:ARG:545:CZ:4926, H-A:ARG:545:NH1:4927, V-B:ARG:545:CG:9894, V-A:GLY:453:CA:4043, V-A:GLY:453:C:4041, V-A:HIS:383:CE1:3392, V-B:HIS:456:CD2:9039, V-A:GLY:544:CA:4914, V-B:ARG:545:CD:9895"]

$$$$
RR23_Rahimova_2017
     RDKit          3D

 39 44  0  0  0  0  0  0  0  0999 V2000
  133.6160  130.8640   61.4160 C   0  0  0  0  0  0  0  0  0  0  0  0
  132.7630  131.0670   60.1770 C   0  0  0  0  0  0  0  0  0  0  0  0
  131.4080  131.3730   60.3040 C   0  0  0  0  0  0  0  0  0  0  0  0
  130.6280  131.5680   59.1660 C   0  0  0  0  0  0  0  0  0  0  0  0
  131.1960  131.4460   57.8930 C   0  0  0  0  0  0  0  0  0  0  0  0
  130.3370  131.6810   56.6710 C   0  0  0  0  0  0  0  0  0  0  0  0
  130.2360  132.8390   56.2580 O   0  0  0  0  0  0  0  0  0  0  0  0
  129.7250  130.6190   56.0660 N   0  0  0  0  0  0  0  0  0  0  0  0
  129.8790  130.3590   54.6260 C   0  0  0  0  0  0  0  0  0  0  0  0
  129.1880  129.0330   54.3540 C   0  0  0  0  0  0  0  0  0  0  0  0
  129.0200  128.4570   55.7280 C   0  0  0  0  0  0  0  0  0  0  0  0
  128.5230  127.2090   56.1020 C   0  0  0  0  0  0  0  0  0  0  0  0
  128.2930  126.9130   57.4540 C   0  0  0  0  0  0  0  0  0  0  0  0
  127.7470  125.5510   57.9100 C   0  0  2  0  0  0  0  0  0  0  0  0
  128.0680  125.2690   59.2920 N   0  0  0  0  0  0  0  0  0  0  0  0
  128.2320  124.0240   59.4960 C   0  0  0  0  0  0  0  0  0  0  0  0
  128.5660  123.4010   60.6590 N   0  0  0  0  0  0  0  0  0  0  0  0
  128.9390  123.9590   61.8360 C   0  0  0  0  0  0  0  0  0  0  0  0
  129.0000  125.1690   62.0680 O   0  0  0  0  0  0  0  0  0  0  0  0
  129.3140  122.9680   62.9490 C   0  0  0  0  0  0  0  0  0  0  0  0
  130.4700  122.1560   62.5070 N   0  0  0  0  0  0  0  0  0  0  0  0
  131.7010  122.5410   63.0240 N   0  0  0  0  0  0  0  0  0  0  0  0
  132.7900  121.9140   62.7140 N   0  0  0  0  0  0  0  0  0  0  0  0
  132.7390  120.8230   61.8420 C   0  0  0  0  0  0  0  0  0  0  0  0
  133.9330  120.1700   61.5270 C   0  0  0  0  0  0  0  0  0  0  0  0
  133.9150  119.0770   60.6590 C   0  0  0  0  0  0  0  0  0  0  0  0
  132.7090  118.6380   60.1070 C   0  0  0  0  0  0  0  0  0  0  0  0
  131.5150  119.2900   60.4210 C   0  0  0  0  0  0  0  0  0  0  0  0
  131.5340  120.3850   61.2930 C   0  0  0  0  0  0  0  0  0  0  0  0
  130.2530  121.1070   61.6420 C   0  0  0  0  0  0  0  0  0  0  0  0
  129.1460  120.7970   61.1930 O   0  0  0  0  0  0  0  0  0  0  0  0
  128.0180  122.9380   58.0930 S   0  0  0  0  0  0  0  0  0  0  0  0
  128.1550  124.3660   57.0040 C   0  0  2  0  0  0  0  0  0  0  0  0
  129.5770  124.4090   56.4060 C   0  0  0  0  0  0  0  0  0  0  0  0
  128.5250  127.9080   58.4120 C   0  0  0  0  0  0  0  0  0  0  0  0
  129.0020  129.1640   58.0360 C   0  0  0  0  0  0  0  0  0  0  0  0
  129.3060  129.4240   56.6930 C   0  0  0  0  0  0  0  0  0  0  0  0
  132.5630  131.1660   57.7730 C   0  0  0  0  0  0  0  0  0  0  0  0
  133.3420  130.9720   58.9100 C   0  0  0  0  0  0  0  0  0  0  0  0
  1  2  1  0
  2  3  2  0
  3  4  1  0
  4  5  2  0
  5  6  1  0
  6  7  2  0
  6  8  1  0
  8  9  1  0
  9 10  1  0
 10 11  1  0
 11 12  2  0
 12 13  1  0
 14 13  1  6
 14 15  1  0
 15 16  2  0
 16 17  1  0
 17 18  1  0
 18 19  2  0
 18 20  1  0
 20 21  1  0
 21 22  1  0
 22 23  2  0
 23 24  1  0
 24 25  2  0
 25 26  1  0
 26 27  2  0
 27 28  1  0
 28 29  2  0
 29 30  1  0
 30 31  2  0
 16 32  1  0
 32 33  1  0
 33 34  1  1
 13 35  2  0
 35 36  1  0
 36 37  2  0
  5 38  1  0
 38 39  2  0
 39  2  1  0
 37  8  1  0
 37 11  1  0
 33 14  1  0
 30 21  1  0
 29 24  1  0
M  END
>  <Binding energies>  (47) 
[-9.98]

>  <Ligand effiencies>  (47) 
[-0.2495]

>  <Interactions>  (47) 
["H-B:ALA:541:N:9863, V-B:MET:535:CE:9807, V-A:ILE:369:CG2:3236, V-B:TYR:539:CD2:9846, V-A:LEU:475:CD1:4257, V-B:ALA:541:CB:9864, V-B:TYR:539:CE2:9848, V-B:TYR:531:CZ:9766, V-A:ASP:366:CG:3212, V-A:PRO:540:N:4884, V-A:PRO:540:CA:4883, H-A:TYR:539:N:4870, V-A:PRO:540:CB:4885, V-A:PRO:540:C:4881, V-A:LEU:363:CD1:3188, V-B:TYR:539:CZ:9849, V-A:SER:385:CA:3406, H-B:TYR:539:O:9840, V-A:SER:385:C:3404, V-A:SER:385:CB:3408, V-A:LEU:363:CA:3184, V-A:LEU:363:CB:3186, V-A:ASN:362:CB:3175, V-A:ASN:362:C:3171, V-A:HIS:383:CD2:3391, V-A:ASN:362:CA:3173"]

$$$$
RR26_Rahimova_2017
     RDKit          3D

 38 44  0  0  0  0  0  0  0  0999 V2000
  133.6610  121.4280   61.5960 C   0  0  0  0  0  0  0  0  0  0  0  0
  132.5680  120.4080   61.3070 C   0  0  0  0  0  0  0  0  0  0  0  0
  132.8990  119.2770   60.5530 C   0  0  0  0  0  0  0  0  0  0  0  0
  131.9490  118.2920   60.2920 C   0  0  0  0  0  0  0  0  0  0  0  0
  130.6570  118.4260   60.7910 C   0  0  0  0  0  0  0  0  0  0  0  0
  130.3150  119.5470   61.5440 C   0  0  0  0  0  0  0  0  0  0  0  0
  131.2560  120.5540   61.8090 C   0  0  0  0  0  0  0  0  0  0  0  0
  130.8000  121.7360   62.6150 C   0  0  0  0  0  0  0  0  0  0  0  0
  130.6260  121.6740   63.9330 N   0  0  0  0  0  0  0  0  0  0  0  0
  130.2500  122.8930   64.2130 C   0  0  0  0  0  0  0  0  0  0  0  0
  129.7990  123.7510   65.6400 S   0  0  0  0  0  0  0  0  0  0  0  0
  129.5510  125.2330   64.6420 C   0  0  0  0  0  0  0  0  0  0  0  0
  129.1500  126.4540   65.0600 C   0  0  0  0  0  0  0  0  0  0  0  0
  128.8250  126.8770   66.4130 C   0  0  0  0  0  0  0  0  0  0  0  0
  129.4780  126.5510   67.5920 C   0  0  0  0  0  0  0  0  0  0  0  0
  128.8500  127.2100   68.6190 N   0  0  0  0  0  0  0  0  0  0  0  0
  129.1680  127.1870   70.0010 C   0  0  0  0  0  0  0  0  0  0  0  0
  129.8820  128.2420   70.5910 C   0  0  0  0  0  0  0  0  0  0  0  0
  130.1900  128.2050   71.9480 C   0  0  0  0  0  0  0  0  0  0  0  0
  129.7860  127.1200   72.7200 C   0  0  0  0  0  0  0  0  0  0  0  0
  129.0740  126.0680   72.1470 C   0  0  0  0  0  0  0  0  0  0  0  0
  128.7660  126.0990   70.7900 C   0  0  0  0  0  0  0  0  0  0  0  0
  127.8450  127.9610   68.1430 N   0  0  0  0  0  0  0  0  0  0  0  0
  127.8160  127.7700   66.8390 C   0  0  0  0  0  0  0  0  0  0  0  0
  126.7870  128.4690   66.0050 C   0  0  0  0  0  0  0  0  0  0  0  0
  125.5180  128.7540   66.5340 C   0  0  0  0  0  0  0  0  0  0  0  0
  124.5510  129.4020   65.7640 C   0  0  0  0  0  0  0  0  0  0  0  0
  124.8470  129.7710   64.4530 C   0  0  0  0  0  0  0  0  0  0  0  0
  126.1170  129.5090   63.9190 C   0  0  0  0  0  0  0  0  0  0  0  0
  127.0790  128.8560   64.6890 C   0  0  0  0  0  0  0  0  0  0  0  0
  126.4400  129.8170   62.6120 O   0  0  0  0  0  0  0  0  0  0  0  0
  125.5780  130.7870   62.0090 C   0  0  0  0  0  0  0  0  0  0  0  0
  124.0960  130.4700   62.3280 C   0  0  0  0  0  0  0  0  0  0  0  0
  123.8790  130.4530   63.7430 O   0  0  0  0  0  0  0  0  0  0  0  0
  129.8240  125.0010   63.2270 C   0  0  0  0  0  0  0  0  0  0  0  0
  129.7500  125.7890   62.2820 O   0  0  0  0  0  0  0  0  0  0  0  0
  130.2090  123.6570   63.1070 N   0  0  0  0  0  0  0  0  0  0  0  0
  130.5710  122.9150   62.0570 N   0  0  0  0  0  0  0  0  0  0  0  0
  1  2  1  0
  2  3  2  0
  3  4  1  0
  4  5  2  0
  5  6  1  0
  6  7  2  0
  7  8  1  0
  8  9  1  0
  9 10  2  0
 10 11  1  0
 11 12  1  0
 12 13  2  0
 13 14  1  0
 14 15  2  0
 15 16  1  0
 16 17  1  0
 17 18  2  0
 18 19  1  0
 19 20  2  0
 20 21  1  0
 21 22  2  0
 16 23  1  0
 23 24  2  0
 24 25  1  0
 25 26  2  0
 26 27  1  0
 27 28  2  0
 28 29  1  0
 29 30  2  0
 29 31  1  0
 31 32  1  0
 32 33  1  0
 33 34  1  0
 12 35  1  0
 35 36  2  0
 35 37  1  0
 37 38  1  0
  7  2  1  0
 38  8  2  0
 37 10  1  0
 24 14  1  0
 30 25  1  0
 22 17  1  0
 34 28  1  0
M  END
>  <Binding energies>  (48) 
[-9.74]

>  <Ligand effiencies>  (48) 
[-0.2563157894736842]

>  <Interactions>  (48) 
["V-A:ILE:369:CG2:3236, V-B:TYR:539:CD2:9846, V-A:LEU:475:CD1:4257, V-B:ALA:541:CB:9864, V-A:PRO:482:CG:4326, H-A:TYR:484:OH:4347, V-B:ASP:366:CG:8184, H-B:GLY:454:N:9021, V-B:ARG:545:CZ:9898, V-B:ILE:369:CD1:8210, V-A:GLU:543:CD:4908, V-A:ILE:369:CD1:3238, V-A:GLU:543:C:4902, V-B:HIS:456:CE1:9041, V-A:TYR:484:CZ:4346, V-A:HIS:456:CE1:4069, V-B:GLU:543:CB:9878, V-B:GLU:543:CG:9879, V-B:GLU:543:CD:9880, V-A:TYR:484:CE2:4345, V-B:GLU:543:C:9874, V-B:ARG:545:CG:9894, V-B:ARG:545:CD:9895"]

$$$$
RR2_Rahimova_2017
     RDKit          3D

 46 50  0  0  0  0  0  0  0  0999 V2000
  129.6090  121.4980   61.0410 C   0  0  0  0  0  0  0  0  0  0  0  0
  128.7630  121.9460   62.0940 O   0  0  0  0  0  0  0  0  0  0  0  0
  128.2500  123.2290   62.0480 C   0  0  0  0  0  0  0  0  0  0  0  0
  128.9080  124.3620   62.5450 C   0  0  0  0  0  0  0  0  0  0  0  0
  128.3110  125.6160   62.4580 C   0  0  0  0  0  0  0  0  0  0  0  0
  127.0450  125.7680   61.8760 C   0  0  0  0  0  0  0  0  0  0  0  0
  126.4130  127.1440   61.7990 C   0  0  0  0  0  0  0  0  0  0  0  0
  126.1700  127.7760   62.8320 O   0  0  0  0  0  0  0  0  0  0  0  0
  126.1360  127.5980   60.5540 N   0  0  0  0  0  0  0  0  0  0  0  0
  125.4720  128.8130   60.4310 N   0  0  0  0  0  0  0  0  0  0  0  0
  125.0130  129.1690   59.2140 C   0  0  0  0  0  0  0  0  0  0  0  0
  125.2870  128.5890   58.1600 O   0  0  0  0  0  0  0  0  0  0  0  0
  124.0660  130.3760   59.1920 C   0  0  0  0  0  0  0  0  0  0  0  0
  124.6470  131.8350   60.1330 S   0  0  0  0  0  0  0  0  0  0  0  0
  124.7140  131.1630   61.7660 C   0  0  0  0  0  0  0  0  0  0  0  0
  123.6450  130.8570   62.4560 N   0  0  0  0  0  0  0  0  0  0  0  0
  124.0640  130.4300   63.7080 N   0  0  0  0  0  0  0  0  0  0  0  0
  125.3750  130.4660   63.7180 C   0  0  0  0  0  0  0  0  0  0  0  0
  126.2000  130.0600   64.8960 C   0  0  0  0  0  0  0  0  0  0  0  0
  127.2100  130.9050   65.3620 C   0  0  0  0  0  0  0  0  0  0  0  0
  127.9880  130.5320   66.4530 C   0  0  0  0  0  0  0  0  0  0  0  0
  127.7510  129.3150   67.1020 C   0  0  0  0  0  0  0  0  0  0  0  0
  128.5100  128.8830   68.2000 N   0  0  0  0  0  0  0  0  0  0  0  0
  128.7990  127.1810   68.6240 S   0  0  0  0  0  0  0  0  0  0  0  0
  127.5250  126.4880   68.4040 O   0  0  0  0  0  0  0  0  0  0  0  0
  129.4600  127.1440   69.9340 O   0  0  0  0  0  0  0  0  0  0  0  0
  129.9380  126.5760   67.3800 C   0  0  0  0  0  0  0  0  0  0  0  0
  129.4830  125.7790   66.3270 C   0  0  0  0  0  0  0  0  0  0  0  0
  130.3870  125.3050   65.3800 C   0  0  0  0  0  0  0  0  0  0  0  0
  131.7410  125.6330   65.4810 C   0  0  0  0  0  0  0  0  0  0  0  0
  132.7260  125.1040   64.4560 C   0  0  0  0  0  0  0  0  0  0  0  0
  132.1930  126.4270   66.5380 C   0  0  0  0  0  0  0  0  0  0  0  0
  131.2910  126.9000   67.4860 C   0  0  0  0  0  0  0  0  0  0  0  0
  126.7390  128.4740   66.6390 C   0  0  0  0  0  0  0  0  0  0  0  0
  125.9650  128.8430   65.5430 C   0  0  0  0  0  0  0  0  0  0  0  0
  125.8590  130.9310   62.5060 N   0  0  0  0  0  0  0  0  0  0  0  0
  127.1980  131.1590   62.1250 C   0  0  0  0  0  0  0  0  0  0  0  0
  128.1810  130.2190   62.4380 C   0  0  0  0  0  0  0  0  0  0  0  0
  129.4990  130.4490   62.0550 C   0  0  0  0  0  0  0  0  0  0  0  0
  129.8470  131.6100   61.3640 C   0  0  0  0  0  0  0  0  0  0  0  0
  131.1800  131.7500   61.0280 O   0  0  0  0  0  0  0  0  0  0  0  0
  132.0260  130.6040   61.0500 C   0  0  0  0  0  0  0  0  0  0  0  0
  128.8510  132.5510   61.0540 C   0  0  0  0  0  0  0  0  0  0  0  0
  127.5310  132.3250   61.4320 C   0  0  0  0  0  0  0  0  0  0  0  0
  126.3950  124.6290   61.3740 C   0  0  0  0  0  0  0  0  0  0  0  0
  126.9950  123.3760   61.4620 C   0  0  0  0  0  0  0  0  0  0  0  0
  1  2  1  0
  2  3  1  0
  3  4  2  0
  4  5  1  0
  5  6  2  0
  6  7  1  0
  7  8  2  0
  7  9  1  0
  9 10  1  0
 10 11  1  0
 11 12  2  0
 11 13  1  0
 13 14  1  0
 14 15  1  0
 15 16  2  0
 16 17  1  0
 17 18  2  0
 18 19  1  0
 19 20  2  0
 20 21  1  0
 21 22  2  0
 22 23  1  0
 23 24  1  0
 24 25  2  0
 24 26  2  0
 24 27  1  0
 27 28  2  0
 28 29  1  0
 29 30  2  0
 30 31  1  0
 30 32  1  0
 32 33  2  0
 22 34  1  0
 34 35  2  0
 18 36  1  0
 36 37  1  0
 37 38  2  0
 38 39  1  0
 39 40  2  0
 40 41  1  0
 41 42  1  0
 40 43  1  0
 43 44  2  0
  6 45  1  0
 45 46  2  0
 46  3  1  0
 36 15  1  0
 44 37  1  0
 35 19  1  0
 33 27  1  0
M  END
>  <Binding energies>  (49) 
[-10.71]

>  <Ligand effiencies>  (49) 
[-0.21857142857142858]

>  <Interactions>  (49) 
["H-B:ALA:541:N:9863, H-B:TYR:531:OH:9767, V-B:PRO:540:CA:9855, V-B:ALA:541:CB:9864, V-A:PRO:540:CA:4883, V-A:TYR:539:CE1:4875, V-B:ASP:366:CG:8184, H-B:GLY:454:N:9021, V-B:ASP:366:CB:8183, V-B:ARG:545:CZ:9898, V-A:ALA:541:CB:4892, V-A:PRO:540:C:4881, V-B:ASP:366:CA:8181, V-B:ILE:369:CD1:8210, V-A:GLU:543:CG:4907, V-A:GLU:543:CD:4908, H-B:ARG:545:NH2:9900, V-B:ASP:366:C:8179, V-B:HIS:456:CE1:9041, V-A:HIS:456:CE1:4069, V-B:GLU:543:CB:9878, V-B:GLU:543:CG:9879, V-B:GLU:543:CD:9880, V-A:ARG:545:CG:4922, V-A:ARG:545:CZ:4926, V-A:GLU:543:CB:4906, H-A:ALA:541:N:4891, V-B:TYR:484:CZ:9318, V-B:ILE:369:CG2:8208, V-B:TYR:484:CE2:9317, H-B:ASP:366:OD2:8186, H-B:ASP:366:OD1:8185, V-B:ILE:369:CB:8207, V-A:ALA:541:CA:4890, H-A:GLU:543:O:4903"]

$$$$
RR33_Rahimova_2017
     RDKit          3D

 18 19  0  0  0  0  0  0  0  0999 V2000
  133.2600  118.7050   59.3210 C   0  0  0  0  0  0  0  0  0  0  0  0
  133.5610  119.0100   60.7910 C   0  0  0  0  0  0  0  0  0  0  0  0
  133.2810  120.3860   61.0390 O   0  0  0  0  0  0  0  0  0  0  0  0
  131.9950  120.8580   60.8640 C   0  0  0  0  0  0  0  0  0  0  0  0
  131.8480  121.9670   60.0320 C   0  0  0  0  0  0  0  0  0  0  0  0
  130.5900  122.5160   59.7990 C   0  0  0  0  0  0  0  0  0  0  0  0
  129.4550  121.9600   60.3980 C   0  0  0  0  0  0  0  0  0  0  0  0
  128.1050  122.5510   60.1480 C   0  0  0  0  0  0  0  0  0  0  0  0
  127.6570  123.0880   59.0350 N   0  0  0  0  0  0  0  0  0  0  0  0
  126.4160  123.4640   59.3020 C   0  0  0  0  0  0  0  0  0  0  0  0
  125.5580  124.1230   58.2430 C   0  0  0  0  0  0  0  0  0  0  0  0
  126.1200  123.9060   56.9180 N   0  0  0  0  0  0  0  0  0  0  0  0
  125.4990  122.7580   56.2800 C   0  0  0  0  0  0  0  0  0  0  0  0
  126.1050  123.1450   60.6180 C   0  0  0  0  0  0  0  0  0  0  0  0
  124.8920  123.3010   61.5020 C   0  0  0  0  0  0  0  0  0  0  0  0
  127.1970  122.5570   61.1590 O   0  0  0  0  0  0  0  0  0  0  0  0
  129.5980  120.8450   61.2300 C   0  0  0  0  0  0  0  0  0  0  0  0
  130.8570  120.2970   61.4640 C   0  0  0  0  0  0  0  0  0  0  0  0
  1  2  1  0
  2  3  1  0
  3  4  1  0
  4  5  2  0
  5  6  1  0
  6  7  2  0
  7  8  1  0
  8  9  2  0
  9 10  1  0
 10 11  1  0
 11 12  1  0
 12 13  1  0
 10 14  2  0
 14 15  1  0
 14 16  1  0
  7 17  1  0
 17 18  2  0
 18  4  1  0
 16  8  1  0
M  END
>  <Binding energies>  (50) 
[-5.26]

>  <Ligand effiencies>  (50) 
[-0.2768421052631579]

>  <Interactions>  (50) 
["H-B:ALA:541:N:9863, V-B:PRO:540:CB:9857, H-B:TYR:531:OH:9767, V-B:MET:535:CE:9807, V-A:ILE:369:CG2:3236, V-B:TYR:539:CD2:9846, V-A:LEU:475:CD1:4257, V-B:PRO:540:CA:9855, V-B:PRO:540:C:9853, V-B:ALA:541:CB:9864, V-B:TYR:539:CE2:9848, V-B:TYR:531:CE2:9765, V-B:LEU:363:CD1:8160, V-A:SER:385:CA:3406, V-A:SER:385:C:3404, V-A:SER:385:CB:3408, V-B:GLU:543:CD:9880, V-B:ALA:541:CA:9862, V-A:HIS:383:CD2:3391, V-B:ASN:362:CB:8147"]

$$$$
RR3_Rahimova_2017
     RDKit          3D

 38 44  0  0  0  0  0  0  0  0999 V2000
  133.7140  122.8640   62.3180 C   0  0  0  0  0  0  0  0  0  0  0  0
  132.6400  122.3310   63.0230 C   0  0  0  0  0  0  0  0  0  0  0  0
  131.9770  123.1120   63.9650 C   0  0  0  0  0  0  0  0  0  0  0  0
  132.3770  124.4330   64.2150 C   0  0  0  0  0  0  0  0  0  0  0  0
  131.6620  125.2720   65.2280 C   0  0  0  0  0  0  0  0  0  0  0  0
  130.2620  125.2950   65.2860 C   0  0  0  0  0  0  0  0  0  0  0  0
  129.5980  126.0780   66.2260 C   0  0  0  0  0  0  0  0  0  0  0  0
  130.3210  126.8650   67.1270 C   0  0  0  0  0  0  0  0  0  0  0  0
  129.6140  127.7130   68.1360 C   0  0  0  0  0  0  0  0  0  0  0  0
  129.8870  127.5750   69.4290 N   0  0  0  0  0  0  0  0  0  0  0  0
  129.1620  128.4650   70.0620 C   0  0  0  0  0  0  0  0  0  0  0  0
  129.1490  128.6660   71.5090 C   0  0  0  0  0  0  0  0  0  0  0  0
  129.7320  127.8320   72.4470 C   0  0  0  0  0  0  0  0  0  0  0  0
  129.5350  128.3280   73.7090 N   0  0  0  0  0  0  0  0  0  0  0  0
  128.8150  129.5010   73.6440 C   0  0  0  0  0  0  0  0  0  0  0  0
  128.3760  130.3600   74.6570 C   0  0  0  0  0  0  0  0  0  0  0  0
  127.6560  131.4880   74.2620 C   0  0  0  0  0  0  0  0  0  0  0  0
  127.3820  131.7520   72.9250 C   0  0  0  0  0  0  0  0  0  0  0  0
  127.8200  130.8970   71.9160 C   0  0  0  0  0  0  0  0  0  0  0  0
  128.5510  129.7450   72.2590 C   0  0  0  0  0  0  0  0  0  0  0  0
  128.4010  129.1890   69.1860 N   0  0  0  0  0  0  0  0  0  0  0  0
  128.6490  128.7130   67.9240 C   0  0  0  0  0  0  0  0  0  0  0  0
  127.9470  129.2280   66.7110 C   0  0  0  0  0  0  0  0  0  0  0  0
  127.9960  130.5870   66.3970 C   0  0  0  0  0  0  0  0  0  0  0  0
  127.3330  131.0720   65.2750 C   0  0  0  0  0  0  0  0  0  0  0  0
  126.6090  130.2110   64.4370 C   0  0  0  0  0  0  0  0  0  0  0  0
  125.8810  130.7390   63.2410 C   0  0  0  0  0  0  0  0  0  0  0  0
  126.4620  131.7160   62.4180 C   0  0  0  0  0  0  0  0  0  0  0  0
  125.7850  132.2040   61.3020 C   0  0  0  0  0  0  0  0  0  0  0  0
  124.5170  131.7190   60.9980 C   0  0  0  0  0  0  0  0  0  0  0  0
  123.9230  130.7510   61.8000 C   0  0  0  0  0  0  0  0  0  0  0  0
  124.6010  130.2660   62.9140 C   0  0  0  0  0  0  0  0  0  0  0  0
  126.5830  128.8460   64.7530 C   0  0  0  0  0  0  0  0  0  0  0  0
  127.2450  128.3570   65.8750 C   0  0  0  0  0  0  0  0  0  0  0  0
  131.7170  126.8380   67.0850 C   0  0  0  0  0  0  0  0  0  0  0  0
  132.3780  126.0550   66.1440 C   0  0  0  0  0  0  0  0  0  0  0  0
  133.4640  124.9490   63.4940 C   0  0  0  0  0  0  0  0  0  0  0  0
  134.1290  124.1720   62.5500 C   0  0  0  0  0  0  0  0  0  0  0  0
  1  2  2  0
  2  3  1  0
  3  4  2  0
  4  5  1  0
  5  6  2  0
  6  7  1  0
  7  8  2  0
  8  9  1  0
  9 10  1  0
 10 11  2  0
 11 12  1  0
 12 13  2  0
 13 14  1  0
 14 15  1  0
 15 16  2  0
 16 17  1  0
 17 18  2  0
 18 19  1  0
 19 20  2  0
 11 21  1  0
 21 22  1  0
 22 23  1  0
 23 24  2  0
 24 25  1  0
 25 26  2  0
 26 27  1  0
 27 28  2  0
 28 29  1  0
 29 30  2  0
 30 31  1  0
 31 32  2  0
 26 33  1  0
 33 34  2  0
  8 35  1  0
 35 36  2  0
  4 37  1  0
 37 38  2  0
 38  1  1  0
 36  5  1  0
 22  9  2  0
 34 23  1  0
 20 12  1  0
 32 27  1  0
 20 15  1  0
M  END
>  <Binding energies>  (51) 
[-9.67]

>  <Ligand effiencies>  (51) 
[-0.24175]

>  <Interactions>  (51) 
["V-A:LEU:475:CD1:4257, V-B:ASP:366:CG:8184, V-B:ILE:369:CD1:8210, V-A:GLU:543:CG:4907, V-A:GLU:543:CD:4908, H-B:TYR:484:OH:9319, V-A:GLU:543:C:4902, V-B:HIS:456:CE1:9041, V-A:HIS:456:CE1:4069, V-B:GLU:543:CG:9879, V-B:GLU:543:CD:9880, V-A:ARG:545:CG:4922, V-A:ARG:545:CZ:4926, V-A:GLU:543:CB:4906, V-B:TYR:484:CZ:9318, V-B:ILE:369:CG2:8208, V-B:TYR:484:CE2:9317, V-A:GLY:454:CA:4048, V-A:GLY:453:CA:4043, V-A:GLY:453:C:4041, V-B:HIS:456:CD2:9039, H-A:GLU:543:O:4903, H-B:HIS:456:NE2:9042, V-B:TYR:484:CD1:9314, V-B:HIS:456:CG:9037, V-B:TYR:484:CB:9312, V-B:TYR:484:CG:9313, V-B:TYR:484:CD2:9315"]

$$$$
RR4_Rahimova_2017
     RDKit          3D

 40 44  0  0  0  0  0  0  0  0999 V2000
  131.7260  131.7410   55.4080 C   0  0  0  0  0  0  0  0  0  0  0  0
  131.9730  132.0620   56.7720 O   0  0  0  0  0  0  0  0  0  0  0  0
  131.0210  131.7450   57.7230 C   0  0  0  0  0  0  0  0  0  0  0  0
  129.7150  132.1500   57.4590 C   0  0  0  0  0  0  0  0  0  0  0  0
  128.6910  131.8730   58.3590 C   0  0  0  0  0  0  0  0  0  0  0  0
  128.9430  131.1830   59.5540 C   0  0  0  0  0  0  0  0  0  0  0  0
  127.8350  130.8870   60.5230 C   0  0  0  0  0  0  0  0  0  0  0  0
  128.0680  130.5660   61.8650 C   0  0  0  0  0  0  0  0  0  0  0  0
  127.0000  130.3020   62.7320 C   0  0  0  0  0  0  0  0  0  0  0  0
  127.3240  129.9950   64.1570 C   0  0  0  0  0  0  0  0  0  0  0  0
  127.3050  128.6730   64.6120 C   0  0  0  0  0  0  0  0  0  0  0  0
  127.6170  128.3770   65.9370 C   0  0  0  0  0  0  0  0  0  0  0  0
  127.9600  129.3930   66.8280 C   0  0  0  0  0  0  0  0  0  0  0  0
  128.2550  129.0040   68.1210 O   0  0  0  0  0  0  0  0  0  0  0  0
  129.1580  127.9240   68.3330 C   0  0  0  0  0  0  0  0  0  0  0  0
  127.9850  130.7200   66.3750 C   0  0  0  0  0  0  0  0  0  0  0  0
  127.6730  131.0140   65.0500 C   0  0  0  0  0  0  0  0  0  0  0  0
  125.6830  130.3380   62.2100 C   0  0  0  0  0  0  0  0  0  0  0  0
  124.5290  130.0700   63.0740 C   0  0  0  0  0  0  0  0  0  0  0  0
  123.6180  129.8590   63.7550 N   0  0  0  0  0  0  0  0  0  0  0  0
  125.5220  130.6400   60.8390 C   0  0  0  0  0  0  0  0  0  0  0  0
  123.9470  130.7170   60.0130 S   0  0  0  0  0  0  0  0  0  0  0  0
  124.2600  130.7160   58.2160 C   0  0  0  0  0  0  0  0  0  0  0  0
  125.0950  129.5300   57.7160 C   0  0  0  0  0  0  0  0  0  0  0  0
  124.5470  128.4860   57.3530 O   0  0  0  0  0  0  0  0  0  0  0  0
  126.4330  129.7340   57.7270 N   0  0  0  0  0  0  0  0  0  0  0  0
  127.4490  128.8600   57.3350 C   0  0  0  0  0  0  0  0  0  0  0  0
  128.1890  127.7150   58.4230 S   0  0  0  0  0  0  0  0  0  0  0  0
  129.2450  127.1270   57.1760 C   0  0  0  0  0  0  0  0  0  0  0  0
  129.0330  127.7980   55.9620 C   0  0  0  0  0  0  0  0  0  0  0  0
  128.0050  128.7680   56.0500 C   0  0  0  0  0  0  0  0  0  0  0  0
  127.5760  129.5890   54.9220 C   0  0  0  0  0  0  0  0  0  0  0  0
  127.2370  130.2410   54.0280 N   0  0  0  0  0  0  0  0  0  0  0  0
  129.8180  127.4330   54.6960 C   0  0  0  0  0  0  0  0  0  0  0  0
  130.4990  126.0550   54.8550 C   0  0  0  0  0  0  0  0  0  0  0  0
  131.2090  125.9120   56.2130 C   0  0  0  0  0  0  0  0  0  0  0  0
  130.2170  125.9750   57.3940 C   0  0  0  0  0  0  0  0  0  0  0  0
  126.5710  130.9230   60.0310 N   0  0  0  0  0  0  0  0  0  0  0  0
  130.2620  130.7750   59.8090 C   0  0  0  0  0  0  0  0  0  0  0  0
  131.2890  131.0510   58.9110 C   0  0  0  0  0  0  0  0  0  0  0  0
  1  2  1  0
  2  3  1  0
  3  4  2  0
  4  5  1  0
  5  6  2  0
  6  7  1  0
  7  8  2  0
  8  9  1  0
  9 10  1  0
 10 11  2  0
 11 12  1  0
 12 13  2  0
 13 14  1  0
 14 15  1  0
 13 16  1  0
 16 17  2  0
  9 18  2  0
 18 19  1  0
 19 20  3  0
 18 21  1  0
 21 22  1  0
 22 23  1  0
 23 24  1  0
 24 25  2  0
 24 26  1  0
 26 27  1  0
 27 28  1  0
 28 29  1  0
 29 30  2  0
 30 31  1  0
 31 32  1  0
 32 33  3  0
 30 34  1  0
 34 35  1  0
 35 36  1  0
 36 37  1  0
 21 38  2  0
  6 39  1  0
 39 40  2  0
 40  3  1  0
 38  7  1  0
 17 10  1  0
 31 27  2  0
 37 29  1  0
M  END
>  <Binding energies>  (52) 
[-10.14]

>  <Ligand effiencies>  (52) 
[-0.24731707317073173]

>  <Interactions>  (52) 
["H-B:TYR:531:OH:9767, V-B:MET:535:CE:9807, V-B:TYR:531:CZ:9766, V-A:PRO:540:N:4884, V-A:ILE:538:CG2:4863, V-A:TYR:539:CD1:4873, V-A:PRO:540:CA:4883, V-A:TYR:539:CZ:4877, V-A:PRO:540:CB:4885, V-A:TYR:539:CE1:4875, V-A:TYR:531:CZ:4794, V-A:ILE:538:CB:4862, V-B:TYR:531:CE1:9764, H-B:LYS:534:NZ:9795, H-B:GLY:454:N:9021, V-B:ASP:366:CB:8183, H-B:ARG:545:NH1:9899, V-B:ASP:366:CA:8181, V-A:TYR:539:C:4867, V-A:LEU:363:CD1:3188, V-A:GLU:543:CG:4907, V-A:GLU:543:CD:4908, H-B:ARG:545:NH2:9900, V-B:ASP:366:C:8179, H-A:TYR:539:OH:4878, V-B:HIS:456:CE1:9041, V-A:GLU:543:CB:4906, V-A:TYR:531:CE2:4793, V-B:TYR:484:CZ:9318, V-B:ILE:369:CG2:8208, V-B:TYR:484:CE2:9317"]

$$$$
RR6_Rahimova_2017
     RDKit          3D

 38 41  0  0  0  0  0  0  0  0999 V2000
  128.4600  129.7840   53.6880 C   0  0  0  0  0  0  0  0  0  0  0  0
  127.6570  130.6130   54.5170 O   0  0  0  0  0  0  0  0  0  0  0  0
  127.9120  130.7280   55.8460 C   0  0  0  0  0  0  0  0  0  0  0  0
  128.5060  131.6900   56.3430 O   0  0  0  0  0  0  0  0  0  0  0  0
  127.4000  129.5690   56.6520 C   0  0  0  0  0  0  0  0  0  0  0  0
  128.2390  128.5250   57.0690 C   0  0  0  0  0  0  0  0  0  0  0  0
  127.7330  127.4590   57.8090 C   0  0  0  0  0  0  0  0  0  0  0  0
  126.3700  127.4190   58.1420 C   0  0  0  0  0  0  0  0  0  0  0  0
  125.7500  126.3790   58.8590 N   0  0  0  0  0  0  0  0  0  0  0  0
  125.5920  125.0810   58.5200 C   0  0  0  0  0  0  0  0  0  0  0  0
  125.9940  124.5610   57.4790 O   0  0  0  0  0  0  0  0  0  0  0  0
  124.7890  124.2310   59.5100 C   0  0  0  0  0  0  0  0  0  0  0  0
  125.8160  123.4130   60.7760 S   0  0  0  0  0  0  0  0  0  0  0  0
  126.8440  124.6750   61.4980 C   0  0  0  0  0  0  0  0  0  0  0  0
  126.3030  125.9160   61.4730 N   0  0  0  0  0  0  0  0  0  0  0  0
  126.9800  126.9570   62.0200 C   0  0  0  0  0  0  0  0  0  0  0  0
  126.2850  128.2870   62.0060 C   0  0  0  0  0  0  0  0  0  0  0  0
  125.7670  128.8440   63.1860 C   0  0  0  0  0  0  0  0  0  0  0  0
  125.1100  130.0710   63.1700 C   0  0  0  0  0  0  0  0  0  0  0  0
  124.9640  130.7690   61.9720 C   0  0  0  0  0  0  0  0  0  0  0  0
  124.2390  132.1030   61.9590 C   0  0  0  0  0  0  0  0  0  0  0  0
  125.4730  130.2350   60.7910 C   0  0  0  0  0  0  0  0  0  0  0  0
  126.1290  129.0080   60.8120 C   0  0  0  0  0  0  0  0  0  0  0  0
  128.2390  126.7660   62.6000 C   0  0  0  0  0  0  0  0  0  0  0  0
  128.8220  125.4910   62.6350 C   0  0  0  0  0  0  0  0  0  0  0  0
  130.1590  125.3550   63.2850 C   0  0  0  0  0  0  0  0  0  0  0  0
  131.2940  125.0970   62.5110 C   0  0  0  0  0  0  0  0  0  0  0  0
  132.5470  124.9840   63.1080 C   0  0  0  0  0  0  0  0  0  0  0  0
  132.6910  125.1320   64.4860 C   0  0  0  0  0  0  0  0  0  0  0  0
  133.9710  125.0060   64.9900 O   0  0  0  0  0  0  0  0  0  0  0  0
  134.2190  125.3550   66.3480 C   0  0  0  0  0  0  0  0  0  0  0  0
  131.5550  125.3970   65.2670 C   0  0  0  0  0  0  0  0  0  0  0  0
  130.3040  125.5090   64.6670 C   0  0  0  0  0  0  0  0  0  0  0  0
  128.1090  124.4090   62.0620 C   0  0  0  0  0  0  0  0  0  0  0  0
  128.6730  123.0560   62.0380 C   0  0  0  0  0  0  0  0  0  0  0  0
  129.1180  121.9880   62.0210 N   0  0  0  0  0  0  0  0  0  0  0  0
  125.5360  128.4640   57.7440 C   0  0  0  0  0  0  0  0  0  0  0  0
  126.0440  129.5270   57.0010 C   0  0  0  0  0  0  0  0  0  0  0  0
  1  2  1  0
  2  3  1  0
  3  4  2  0
  3  5  1  0
  5  6  2  0
  6  7  1  0
  7  8  2  0
  8  9  1  0
  9 10  1  0
 10 11  2  0
 10 12  1  0
 12 13  1  0
 13 14  1  0
 14 15  2  0
 15 16  1  0
 16 17  1  0
 17 18  2  0
 18 19  1  0
 19 20  2  0
 20 21  1  0
 20 22  1  0
 22 23  2  0
 16 24  2  0
 24 25  1  0
 25 26  1  0
 26 27  2  0
 27 28  1  0
 28 29  2  0
 29 30  1  0
 30 31  1  0
 29 32  1  0
 32 33  2  0
 25 34  2  0
 34 35  1  0
 35 36  3  0
  8 37  1  0
 37 38  2  0
 38  5  1  0
 34 14  1  0
 23 17  1  0
 33 26  1  0
M  END
>  <Binding energies>  (53) 
[-9.54]

>  <Ligand effiencies>  (53) 
[-0.2446153846153846]

>  <Interactions>  (53) 
["H-B:ALA:541:N:9863, V-B:PRO:540:CB:9857, H-B:TYR:531:OH:9767, V-B:ALA:541:CB:9864, V-B:TYR:531:CZ:9766, H-A:TYR:484:OH:4347, H-A:GLY:454:N:4049, V-A:TYR:539:CZ:4877, V-A:TYR:539:CE1:4875, V-B:ASP:366:CG:8184, V-B:TYR:531:CE1:9764, H-B:LYS:534:NZ:9795, V-B:ASP:366:CB:8183, V-B:ARG:545:CZ:9898, V-B:ILE:369:CD1:8210, H-B:ARG:545:NH2:9900, H-A:TYR:539:OH:4878, H-A:ARG:545:NH2:4928, V-A:ARG:545:CD:4923, V-B:GLU:543:CD:9880, H-A:ARG:545:NE:4924, V-A:ARG:545:CG:4922, V-A:ARG:545:CZ:4926, H-A:ARG:545:NH1:4927, V-B:LYS:534:CE:9794, V-B:ILE:369:CG2:8208, H-B:ASP:366:OD2:8186, H-B:ASP:366:OD1:8185, V-A:GLY:453:CA:4043, V-A:GLY:453:C:4041"]

$$$$
RR7_Rahimova_2017
     RDKit          3D

 47 53  0  0  0  0  0  0  0  0999 V2000
  132.8160  124.2400   58.1760 C   0  0  0  0  0  0  0  0  0  0  0  0
  131.4520  124.5570   58.4380 O   0  0  0  0  0  0  0  0  0  0  0  0
  131.0280  125.8650   58.3000 C   0  0  0  0  0  0  0  0  0  0  0  0
  130.0890  126.3150   59.2250 C   0  0  0  0  0  0  0  0  0  0  0  0
  129.6060  127.6190   59.1700 C   0  0  0  0  0  0  0  0  0  0  0  0
  130.0450  128.5040   58.1740 C   0  0  0  0  0  0  0  0  0  0  0  0
  129.5460  129.9810   58.1070 C   0  0  0  0  0  0  0  0  0  0  0  0
  128.2480  129.9430   57.4710 O   0  0  0  0  0  0  0  0  0  0  0  0
  127.6670  128.6880   57.1010 C   0  0  0  0  0  0  0  0  0  0  0  0
  126.1550  128.7360   57.3780 C   0  0  1  0  0  0  0  0  0  0  0  0
  125.9520  128.1490   58.6600 O   0  0  0  0  0  0  0  0  0  0  0  0
  125.3350  129.0360   59.5490 C   0  0  1  0  0  0  0  0  0  0  0  0
  125.8070  128.7990   60.9000 N   0  0  0  0  0  0  0  0  0  0  0  0
  126.7170  127.8500   61.3300 C   0  0  0  0  0  0  0  0  0  0  0  0
  126.9310  127.8230   62.6220 N   0  0  0  0  0  0  0  0  0  0  0  0
  126.0850  128.7800   63.1130 C   0  0  0  0  0  0  0  0  0  0  0  0
  125.8270  129.2280   64.4240 C   0  0  0  0  0  0  0  0  0  0  0  0
  126.5390  128.6450   65.4890 N   0  0  0  0  0  0  0  0  0  0  0  0
  127.3450  129.2390   66.4010 C   0  0  0  0  0  0  0  0  0  0  0  0
  127.6020  130.4450   66.4200 O   0  0  0  0  0  0  0  0  0  0  0  0
  127.9720  128.3140   67.4220 C   0  0  0  0  0  0  0  0  0  0  0  0
  128.9700  128.8010   68.2800 C   0  0  0  0  0  0  0  0  0  0  0  0
  129.5550  127.9690   69.2290 C   0  0  0  0  0  0  0  0  0  0  0  0
  129.1450  126.6440   69.3330 C   0  0  0  0  0  0  0  0  0  0  0  0
  128.1530  126.1420   68.4950 C   0  0  0  0  0  0  0  0  0  0  0  0
  127.5670  126.9730   67.5430 C   0  0  0  0  0  0  0  0  0  0  0  0
  124.8940  130.2080   64.6230 N   0  0  0  0  0  0  0  0  0  0  0  0
  124.2550  130.7050   63.5320 C   0  0  0  0  0  0  0  0  0  0  0  0
  124.4280  130.3500   62.2310 N   0  0  0  0  0  0  0  0  0  0  0  0
  125.3510  129.3940   62.0660 C   0  0  0  0  0  0  0  0  0  0  0  0
  125.6300  130.4260   58.9990 C   0  0  0  0  0  0  0  0  0  0  0  0
  125.5630  130.1460   57.5070 C   0  0  2  0  0  0  0  0  0  0  0  0
  124.2380  130.2240   57.0110 O   0  0  0  0  0  0  0  0  0  0  0  0
  129.3420  130.6000   59.5150 C   0  0  0  0  0  0  0  0  0  0  0  0
  128.3890  131.6120   59.7130 C   0  0  0  0  0  0  0  0  0  0  0  0
  128.2080  132.1840   60.9680 C   0  0  0  0  0  0  0  0  0  0  0  0
  128.9800  131.7490   62.0410 C   0  0  0  0  0  0  0  0  0  0  0  0
  129.9310  130.7480   61.8680 C   0  0  0  0  0  0  0  0  0  0  0  0
  130.1120  130.1770   60.6120 C   0  0  0  0  0  0  0  0  0  0  0  0
  130.4680  130.9730   57.3440 C   0  0  0  0  0  0  0  0  0  0  0  0
  130.0130  131.6180   56.1830 C   0  0  0  0  0  0  0  0  0  0  0  0
  130.8340  132.5000   55.4880 C   0  0  0  0  0  0  0  0  0  0  0  0
  132.1270  132.7400   55.9430 C   0  0  0  0  0  0  0  0  0  0  0  0
  132.6050  132.1020   57.0830 C   0  0  0  0  0  0  0  0  0  0  0  0
  131.7810  131.2210   57.7770 C   0  0  0  0  0  0  0  0  0  0  0  0
  131.0010  128.0500   57.2530 C   0  0  0  0  0  0  0  0  0  0  0  0
  131.4840  126.7450   57.3100 C   0  0  0  0  0  0  0  0  0  0  0  0
  1  2  1  0
  2  3  1  0
  3  4  2  0
  4  5  1  0
  5  6  2  0
  6  7  1  0
  7  8  1  0
  8  9  1  0
 10  9  1  1
 10 11  1  0
 11 12  1  0
 12 13  1  1
 13 14  1  0
 14 15  2  0
 15 16  1  0
 16 17  2  0
 17 18  1  0
 18 19  1  0
 19 20  2  0
 19 21  1  0
 21 22  2  0
 22 23  1  0
 23 24  2  0
 24 25  1  0
 25 26  2  0
 17 27  1  0
 27 28  2  0
 28 29  1  0
 29 30  2  0
 12 31  1  0
 31 32  1  0
 32 33  1  1
  7 34  1  0
 34 35  2  0
 35 36  1  0
 36 37  2  0
 37 38  1  0
 38 39  2  0
  7 40  1  0
 40 41  2  0
 41 42  1  0
 42 43  2  0
 43 44  1  0
 44 45  2  0
  6 46  1  0
 46 47  2  0
 47  3  1  0
 32 10  1  0
 39 34  1  0
 45 40  1  0
 30 13  1  0
 30 16  1  0
 26 21  1  0
M  END
>  <Binding energies>  (54) 
[-9.84]

>  <Ligand effiencies>  (54) 
[-0.20081632653061224]

>  <Interactions>  (54) 
["H-B:TYR:531:OH:9767, V-B:TYR:539:CE2:9848, V-B:TYR:531:CZ:9766, V-A:PRO:540:N:4884, V-A:ILE:538:CA:4860, V-A:ASP:366:CA:3209, V-A:ASP:366:CB:3211, V-A:ILE:538:CG2:4863, H-B:TYR:539:OH:9850, V-A:TYR:539:CD1:4873, V-A:PRO:540:CA:4883, V-A:TYR:539:CZ:4877, V-A:PRO:540:CB:4885, V-A:TYR:539:CE1:4875, V-A:ILE:538:CB:4862, V-B:ASP:366:CG:8184, V-B:TYR:531:CE1:9764, H-B:GLY:454:N:9021, V-B:ASP:366:CB:8183, V-B:ARG:545:CZ:9898, V-A:ALA:541:CB:4892, V-A:PRO:540:CD:4887, V-A:LEU:363:CD1:3188, V-A:GLU:543:CG:4907, V-B:GLY:454:CA:9020, V-A:GLU:543:CD:4908, H-B:ARG:545:NH2:9900, H-B:TYR:484:OH:9319, V-B:TYR:539:CZ:9849, H-A:TYR:539:OH:4878, V-A:GLU:543:C:4902, V-B:HIS:456:CE1:9041, V-A:HIS:456:CE1:4069, V-B:GLU:543:CB:9878, V-B:GLU:543:CD:9880, H-B:GLU:543:OE2:9882, V-A:GLU:543:CA:4904, V-A:GLU:543:CB:4906, V-A:ILE:538:C:4858, V-A:PRO:540:CG:4886, V-B:GLU:543:CA:9876, V-B:GLU:543:C:9874, H-B:ASP:366:O:8180"]

$$$$
RR8_A_Rahimova_2017
     RDKit          3D

 42 46  0  0  0  0  0  0  0  0999 V2000
  129.2330  122.1400   62.6530 O   0  0  0  0  0  0  0  0  0  0  0  0
  128.9050  123.1340   61.9950 C   0  0  0  0  0  0  0  0  0  0  0  0
  129.1040  124.4280   62.3970 O   0  0  0  0  0  0  0  0  0  0  0  0
  130.4010  124.9470   62.2930 C   0  0  1  0  0  0  0  0  0  0  0  0
  131.3020  124.2510   63.1040 O   0  0  0  0  0  0  0  0  0  0  0  0
  132.5700  124.0940   62.4730 C   0  0  2  0  0  0  0  0  0  0  0  0
  133.6540  124.6750   63.3980 C   0  0  0  0  0  0  0  0  0  0  0  0
  133.2410  124.5090   64.7480 O   0  0  0  0  0  0  0  0  0  0  0  0
  133.3380  125.6910   65.5310 C   0  0  0  0  0  0  0  0  0  0  0  0
  131.9990  125.9810   66.1940 C   0  0  0  0  0  0  0  0  0  0  0  0
  130.8480  125.3200   65.7580 C   0  0  0  0  0  0  0  0  0  0  0  0
  129.6220  125.5790   66.3670 C   0  0  0  0  0  0  0  0  0  0  0  0
  129.5510  126.4970   67.4130 C   0  0  0  0  0  0  0  0  0  0  0  0
  130.6950  127.1570   67.8570 C   0  0  0  0  0  0  0  0  0  0  0  0
  131.9210  126.8970   67.2500 C   0  0  0  0  0  0  0  0  0  0  0  0
  132.3990  124.8080   61.1260 C   0  0  1  0  0  0  0  0  0  0  0  0
  133.0500  124.1370   60.0490 O   0  0  0  0  0  0  0  0  0  0  0  0
  134.0240  123.1700   60.4230 C   0  0  0  0  0  0  0  0  0  0  0  0
  133.3610  121.8140   60.6200 C   0  0  0  0  0  0  0  0  0  0  0  0
  134.0820  120.7680   61.2030 C   0  0  0  0  0  0  0  0  0  0  0  0
  133.4850  119.5230   61.3780 C   0  0  0  0  0  0  0  0  0  0  0  0
  132.1680  119.3240   60.9670 C   0  0  0  0  0  0  0  0  0  0  0  0
  131.4450  120.3590   60.3790 C   0  0  0  0  0  0  0  0  0  0  0  0
  132.0420  121.6040   60.2020 C   0  0  0  0  0  0  0  0  0  0  0  0
  130.9050  124.7250   60.8730 C   0  0  2  0  0  0  0  0  0  0  0  0
  130.4940  125.7350   59.9550 O   0  0  0  0  0  0  0  0  0  0  0  0
  129.7530  125.2790   58.8280 C   0  0  0  0  0  0  0  0  0  0  0  0
  130.5870  125.4300   57.5650 C   0  0  0  0  0  0  0  0  0  0  0  0
  129.9610  125.5940   56.3240 C   0  0  0  0  0  0  0  0  0  0  0  0
  130.7280  125.7410   55.1720 C   0  0  0  0  0  0  0  0  0  0  0  0
  132.1180  125.7280   55.2620 C   0  0  0  0  0  0  0  0  0  0  0  0
  132.7490  125.5710   56.4930 C   0  0  0  0  0  0  0  0  0  0  0  0
  131.9820  125.4230   57.6470 C   0  0  0  0  0  0  0  0  0  0  0  0
  128.2500  123.0410   60.6480 C   0  0  0  0  0  0  0  0  0  0  0  0
  128.8550  122.3700   59.5730 C   0  0  0  0  0  0  0  0  0  0  0  0
  128.2220  122.3020   58.3350 C   0  0  0  0  0  0  0  0  0  0  0  0
  126.9710  122.9020   58.1380 C   0  0  0  0  0  0  0  0  0  0  0  0
  126.2980  122.8270   56.8190 N   0  0  0  0  0  0  0  0  0  0  0  0
  125.7670  123.8400   56.3710 O   0  0  0  0  0  0  0  0  0  0  0  0
  126.2940  121.7560   56.2200 O   0  0  0  0  0  0  0  0  0  0  0  0
  126.3700  123.5730   59.2100 C   0  0  0  0  0  0  0  0  0  0  0  0
  127.0010  123.6420   60.4490 C   0  0  0  0  0  0  0  0  0  0  0  0
  1  2  2  0
  2  3  1  0
  4  3  1  6
  4  5  1  0
  5  6  1  0
  6  7  1  1
  7  8  1  0
  8  9  1  0
  9 10  1  0
 10 11  2  0
 11 12  1  0
 12 13  2  0
 13 14  1  0
 14 15  2  0
  6 16  1  0
 16 17  1  6
 17 18  1  0
 18 19  1  0
 19 20  2  0
 20 21  1  0
 21 22  2  0
 22 23  1  0
 23 24  2  0
 16 25  1  0
 25 26  1  6
 26 27  1  0
 27 28  1  0
 28 29  2  0
 29 30  1  0
 30 31  2  0
 31 32  1  0
 32 33  2  0
  2 34  1  0
 34 35  2  0
 35 36  1  0
 36 37  2  0
 37 38  1  0
 38 39  2  0
 38 40  1  0
 37 41  1  0
 41 42  2  0
 25  4  1  0
 33 28  1  0
 42 34  1  0
 15 10  1  0
 24 19  1  0
M  CHG  2  38   1  40  -1
M  END
>  <Binding energies>  (55) 
[-10.06]

>  <Ligand effiencies>  (55) 
[-0.23952380952380953]

>  <Interactions>  (55) 
["H-B:ALA:541:N:9863, V-B:PRO:540:CB:9857, H-B:TYR:531:OH:9767, V-B:MET:535:CE:9807, V-A:ILE:369:CG2:3236, V-B:TYR:539:CD2:9846, V-B:PRO:540:N:9856, V-A:LEU:475:CD1:4257, V-B:PRO:540:CA:9855, H-B:TYR:539:N:9842, V-B:TYR:539:CE2:9848, V-B:TYR:539:C:9839, H-A:TYR:484:OH:4347, V-A:ASP:366:CG:3212, H-A:GLY:454:N:4049, V-A:TYR:531:CE1:4792, V-A:ASP:366:CA:3209, V-A:ASP:366:CB:3211, V-A:ASN:370:CB:3244, V-A:ASP:366:C:3207, V-A:TYR:531:CZ:4794, V-A:GLU:543:CD:4908, V-A:ILE:369:CD1:3238, V-A:SER:385:CA:3406, V-A:ILE:369:CB:3235, V-A:SER:385:C:3404, V-A:TYR:484:CZ:4346, V-A:HIS:456:CE1:4069, V-B:GLU:543:CB:9878, V-A:ARG:545:CD:4923, V-B:GLU:543:CG:9879, V-B:GLU:543:CD:9880, V-A:ARG:545:CG:4922, V-A:ARG:545:CZ:4926, V-A:GLU:543:CB:4906, V-A:GLY:453:CA:4043, V-A:GLY:453:C:4041, V-A:ASN:370:CG:3245"]

$$$$
RR8_B_Rahimova_2017
     RDKit          3D

 42 46  0  0  0  0  0  0  0  0999 V2000
  132.3870  125.0740   58.5190 O   0  0  0  0  0  0  0  0  0  0  0  0
  131.5500  124.3640   59.0860 C   0  0  0  0  0  0  0  0  0  0  0  0
  131.7170  123.8120   60.3250 O   0  0  0  0  0  0  0  0  0  0  0  0
  132.0120  124.6700   61.4000 C   0  0  2  0  0  0  0  0  0  0  0  0
  133.1090  124.2180   62.1430 O   0  0  0  0  0  0  0  0  0  0  0  0
  132.6990  123.3800   63.2220 C   0  0  2  0  0  0  0  0  0  0  0  0
  133.3720  122.0020   63.0870 C   0  0  0  0  0  0  0  0  0  0  0  0
  134.2150  122.0030   61.9420 O   0  0  0  0  0  0  0  0  0  0  0  0
  133.5650  121.6860   60.7200 C   0  0  0  0  0  0  0  0  0  0  0  0
  132.5410  120.5890   60.9680 C   0  0  0  0  0  0  0  0  0  0  0  0
  132.9630  119.2620   61.0970 C   0  0  0  0  0  0  0  0  0  0  0  0
  132.0290  118.2500   61.2990 C   0  0  0  0  0  0  0  0  0  0  0  0
  130.6740  118.5680   61.3740 C   0  0  0  0  0  0  0  0  0  0  0  0
  130.2470  119.8880   61.2530 C   0  0  0  0  0  0  0  0  0  0  0  0
  131.1810  120.9010   61.0470 C   0  0  0  0  0  0  0  0  0  0  0  0
  131.1680  123.3770   63.1400 C   0  0  1  0  0  0  0  0  0  0  0  0
  130.6110  123.3340   64.4570 O   0  0  0  0  0  0  0  0  0  0  0  0
  129.7740  124.4260   64.8450 C   0  0  0  0  0  0  0  0  0  0  0  0
  130.4890  125.4000   65.7760 C   0  0  0  0  0  0  0  0  0  0  0  0
  129.7870  126.0220   66.8130 C   0  0  0  0  0  0  0  0  0  0  0  0
  130.4500  126.8860   67.6810 C   0  0  0  0  0  0  0  0  0  0  0  0
  131.8110  127.1280   67.5060 C   0  0  0  0  0  0  0  0  0  0  0  0
  132.5160  126.5150   66.4730 C   0  0  0  0  0  0  0  0  0  0  0  0
  131.8540  125.6480   65.6060 C   0  0  0  0  0  0  0  0  0  0  0  0
  130.8480  124.6650   62.3900 C   0  0  2  0  0  0  0  0  0  0  0  0
  129.5670  124.5750   61.7720 O   0  0  0  0  0  0  0  0  0  0  0  0
  128.8670  123.3590   61.9840 C   0  0  0  0  0  0  0  0  0  0  0  0
  127.4710  123.5060   61.4050 C   0  0  0  0  0  0  0  0  0  0  0  0
  127.2320  124.4030   60.3590 C   0  0  0  0  0  0  0  0  0  0  0  0
  125.9440  124.5440   59.8490 C   0  0  0  0  0  0  0  0  0  0  0  0
  124.9020  123.7900   60.3830 C   0  0  0  0  0  0  0  0  0  0  0  0
  125.1340  122.8930   61.4250 C   0  0  0  0  0  0  0  0  0  0  0  0
  126.4210  122.7510   61.9350 C   0  0  0  0  0  0  0  0  0  0  0  0
  130.2390  123.9830   58.4600 C   0  0  0  0  0  0  0  0  0  0  0  0
  129.5470  124.8530   57.6050 C   0  0  0  0  0  0  0  0  0  0  0  0
  128.3300  124.4760   57.0470 C   0  0  0  0  0  0  0  0  0  0  0  0
  127.7690  123.2270   57.3370 C   0  0  0  0  0  0  0  0  0  0  0  0
  126.4580  122.8370   56.7610 N   0  0  0  0  0  0  0  0  0  0  0  0
  126.2700  121.6590   56.4680 O   0  0  0  0  0  0  0  0  0  0  0  0
  125.6040  123.7060   56.6030 O   0  0  0  0  0  0  0  0  0  0  0  0
  128.4640  122.3550   58.1860 C   0  0  0  0  0  0  0  0  0  0  0  0
  129.6840  122.7280   58.7390 C   0  0  0  0  0  0  0  0  0  0  0  0
  1  2  2  0
  2  3  1  0
  4  3  1  6
  4  5  1  0
  5  6  1  0
  6  7  1  6
  7  8  1  0
  8  9  1  0
  9 10  1  0
 10 11  2  0
 11 12  1  0
 12 13  2  0
 13 14  1  0
 14 15  2  0
  6 16  1  0
 16 17  1  1
 17 18  1  0
 18 19  1  0
 19 20  2  0
 20 21  1  0
 21 22  2  0
 22 23  1  0
 23 24  2  0
 16 25  1  0
 25 26  1  6
 26 27  1  0
 27 28  1  0
 28 29  2  0
 29 30  1  0
 30 31  2  0
 31 32  1  0
 32 33  2  0
  2 34  1  0
 34 35  2  0
 35 36  1  0
 36 37  2  0
 37 38  1  0
 38 39  2  0
 38 40  1  0
 37 41  1  0
 41 42  2  0
 25  4  1  0
 33 28  1  0
 42 34  1  0
 15 10  1  0
 24 19  1  0
M  CHG  2  38   1  40  -1
M  END
>  <Binding energies>  (56) 
[-9.35]

>  <Ligand effiencies>  (56) 
[-0.2226190476190476]

>  <Interactions>  (56) 
["V-B:PRO:540:CB:9857, H-B:TYR:531:OH:9767, V-B:MET:535:CE:9807, V-A:ILE:369:CG2:3236, V-B:TYR:539:CD2:9846, V-B:PRO:540:N:9856, V-A:LEU:475:CD1:4257, V-B:PRO:540:CA:9855, V-B:PRO:540:C:9853, H-B:TYR:539:N:9842, V-B:ALA:541:CB:9864, V-B:TYR:539:CE2:9848, V-B:TYR:539:C:9839, V-A:PRO:482:CG:4326, V-A:PRO:482:CB:4325, H-A:TYR:484:OH:4347, V-A:ASP:366:CG:3212, H-A:GLY:454:N:4049, V-B:ASP:366:CG:8184, V-A:GLU:543:CD:4908, V-A:ILE:369:CD1:3238, V-B:TYR:539:CZ:9849, V-A:HIS:456:CE1:4069, V-A:ARG:545:CD:4923, V-B:GLU:543:CG:9879, V-B:GLU:543:CD:9880, V-A:ARG:545:CG:4922, V-A:ARG:545:CZ:4926, V-A:GLU:543:CB:4906, V-A:GLY:454:CA:4048, V-B:ALA:541:CA:9862, V-B:ASN:362:CB:8147"]

$$$$
RR9_Rahimova_2017
     RDKit          3D

 36 40  0  0  0  0  0  0  0  0999 V2000
  128.7480  125.4340   72.4660 C   0  0  0  0  0  0  0  0  0  0  0  0
  128.9260  126.9460   72.3010 C   0  0  0  0  0  0  0  0  0  0  0  0
  129.7330  127.1900   71.1520 O   0  0  0  0  0  0  0  0  0  0  0  0
  129.1260  127.4380   69.9370 C   0  0  0  0  0  0  0  0  0  0  0  0
  129.1260  128.7610   69.4990 C   0  0  0  0  0  0  0  0  0  0  0  0
  128.5350  129.1070   68.2870 C   0  0  0  0  0  0  0  0  0  0  0  0
  127.9260  128.1370   67.4780 C   0  0  0  0  0  0  0  0  0  0  0  0
  127.2840  128.5040   66.1730 C   0  0  0  0  0  0  0  0  0  0  0  0
  127.7480  127.9890   64.9530 C   0  0  0  0  0  0  0  0  0  0  0  0
  127.1340  128.3260   63.7340 C   0  0  0  0  0  0  0  0  0  0  0  0
  127.6140  127.6620   62.4720 C   0  0  0  0  0  0  0  0  0  0  0  0
  128.4000  128.2430   61.7230 O   0  0  0  0  0  0  0  0  0  0  0  0
  127.1100  126.4370   62.2270 N   0  0  0  0  0  0  0  0  0  0  0  0
  127.3210  125.6480   61.0090 C   0  0  0  0  0  0  0  0  0  0  0  0
  126.2020  124.6100   60.7570 C   0  0  0  0  0  0  0  0  0  0  0  0
  126.3170  123.8570   59.4370 C   0  0  0  0  0  0  0  0  0  0  0  0
  127.4750  123.1290   59.1430 C   0  0  0  0  0  0  0  0  0  0  0  0
  127.5630  122.4140   57.9520 C   0  0  0  0  0  0  0  0  0  0  0  0
  126.4960  122.4320   57.0560 C   0  0  0  0  0  0  0  0  0  0  0  0
  125.3410  123.1580   57.3400 C   0  0  0  0  0  0  0  0  0  0  0  0
  125.2520  123.8730   58.5330 C   0  0  0  0  0  0  0  0  0  0  0  0
  126.0510  129.2370   63.8080 C   0  0  0  0  0  0  0  0  0  0  0  0
  125.1380  129.9140   62.9180 C   0  0  0  0  0  0  0  0  0  0  0  0
  125.0950  129.9170   61.4250 C   0  0  0  0  0  0  0  0  0  0  0  0
  124.4170  130.9320   60.7430 C   0  0  0  0  0  0  0  0  0  0  0  0
  124.3650  130.9240   59.3510 C   0  0  0  0  0  0  0  0  0  0  0  0
  124.9940  129.9030   58.6370 C   0  0  0  0  0  0  0  0  0  0  0  0
  124.9210  129.8840   57.1200 C   0  0  0  0  0  0  0  0  0  0  0  0
  125.6700  128.8870   59.3140 C   0  0  0  0  0  0  0  0  0  0  0  0
  125.7230  128.8980   60.7050 C   0  0  0  0  0  0  0  0  0  0  0  0
  124.2680  130.6230   63.6010 N   0  0  0  0  0  0  0  0  0  0  0  0
  124.5760  130.5110   64.9030 N   0  0  0  0  0  0  0  0  0  0  0  0
  125.6610  129.6880   65.0920 C   0  0  0  0  0  0  0  0  0  0  0  0
  126.2300  129.3650   66.2520 N   0  0  0  0  0  0  0  0  0  0  0  0
  127.9280  126.8080   67.9260 C   0  0  0  0  0  0  0  0  0  0  0  0
  128.5200  126.4590   69.1380 C   0  0  0  0  0  0  0  0  0  0  0  0
  1  2  1  0
  2  3  1  0
  3  4  1  0
  4  5  2  0
  5  6  1  0
  6  7  2  0
  7  8  1  0
  8  9  2  0
  9 10  1  0
 10 11  1  0
 11 12  2  0
 11 13  1  0
 13 14  1  0
 14 15  1  0
 15 16  1  0
 16 17  2  0
 17 18  1  0
 18 19  2  0
 19 20  1  0
 20 21  2  0
 10 22  2  0
 22 23  1  0
 23 24  1  0
 24 25  2  0
 25 26  1  0
 26 27  2  0
 27 28  1  0
 27 29  1  0
 29 30  2  0
 23 31  2  0
 31 32  1  0
 32 33  1  0
 33 34  2  0
  7 35  1  0
 35 36  2  0
 36  4  1  0
 34  8  1  0
 21 16  1  0
 33 22  1  0
 30 24  1  0
M  END
>  <Binding energies>  (57) 
[-9.3]

>  <Ligand effiencies>  (57) 
[-0.24473684210526317]

>  <Interactions>  (57) 
["V-B:PRO:540:CB:9857, V-B:MET:535:CE:9807, V-B:PRO:540:N:9856, V-B:PRO:540:CA:9855, V-B:TYR:539:C:9839, V-B:TYR:531:CE2:9765, V-B:TYR:531:CZ:9766, V-B:LEU:363:CD1:8160, V-B:PRO:540:CD:9859, V-A:TYR:539:CZ:4877, V-A:TYR:539:CE1:4875, V-B:ASP:366:CG:8184, V-B:TYR:531:CE1:9764, H-B:GLY:454:N:9021, V-B:ASP:366:CB:8183, V-B:ASP:366:CA:8181, V-B:ILE:369:CD1:8210, V-A:GLU:543:CG:4907, V-B:GLY:454:CA:9020, V-A:GLU:543:CD:4908, H-B:TYR:484:OH:9319, V-A:GLU:543:C:4902, V-B:HIS:456:CE1:9041, V-A:HIS:456:CE1:4069, V-B:GLU:543:CB:9878, H-B:GLU:543:OE1:9881, V-B:GLU:543:CD:9880, H-B:GLU:543:OE2:9882, V-A:GLU:543:CB:4906, V-B:ILE:369:CG2:8208, V-B:TYR:484:CE2:9317, H-B:ASP:366:OD1:8185, V-B:ILE:369:CB:8207, V-B:HIS:456:CD2:9039, H-A:HIS:456:ND1:4066"]

$$$$
1a_Ghoteimi_2023
     RDKit          3D

 40 43  0  0  0  0  0  0  0  0999 V2000
  130.5920  132.1180   55.5340 C   0  0  0  0  0  0  0  0  0  0  0  0
  129.8370  131.5870   56.7560 C   0  0  0  0  0  0  0  0  0  0  0  0
  128.4370  131.6930   56.5270 O   0  0  0  0  0  0  0  0  0  0  0  0
  127.7730  130.7590   55.7990 C   0  0  0  0  0  0  0  0  0  0  0  0
  127.5630  130.8640   54.5860 O   0  0  0  0  0  0  0  0  0  0  0  0
  127.3220  129.5820   56.6150 C   0  0  0  0  0  0  0  0  0  0  0  0
  128.2060  128.5600   56.9940 C   0  0  0  0  0  0  0  0  0  0  0  0
  127.7580  127.4790   57.7490 C   0  0  0  0  0  0  0  0  0  0  0  0
  126.4140  127.4030   58.1420 C   0  0  0  0  0  0  0  0  0  0  0  0
  125.8540  126.3560   58.9000 N   0  0  0  0  0  0  0  0  0  0  0  0
  125.5620  125.0870   58.5390 C   0  0  0  0  0  0  0  0  0  0  0  0
  125.7600  124.5950   57.4290 O   0  0  0  0  0  0  0  0  0  0  0  0
  124.9400  124.2200   59.6340 C   0  0  0  0  0  0  0  0  0  0  0  0
  126.2080  123.3530   60.6060 S   0  0  0  0  0  0  0  0  0  0  0  0
  127.1010  124.6120   61.4880 C   0  0  0  0  0  0  0  0  0  0  0  0
  126.4560  125.8010   61.5530 N   0  0  0  0  0  0  0  0  0  0  0  0
  127.0300  126.8460   62.2050 C   0  0  0  0  0  0  0  0  0  0  0  0
  126.2420  128.1240   62.2520 C   0  0  0  0  0  0  0  0  0  0  0  0
  125.9250  128.7420   63.4730 C   0  0  0  0  0  0  0  0  0  0  0  0
  125.1960  129.9260   63.5120 C   0  0  0  0  0  0  0  0  0  0  0  0
  124.7590  130.5300   62.3360 C   0  0  0  0  0  0  0  0  0  0  0  0
  124.0440  131.7050   62.4700 O   0  0  0  0  0  0  0  0  0  0  0  0
  124.5580  132.9000   61.8930 C   0  0  0  0  0  0  0  0  0  0  0  0
  125.0640  129.9240   61.1090 C   0  0  0  0  0  0  0  0  0  0  0  0
  125.7930  128.7390   61.0730 C   0  0  0  0  0  0  0  0  0  0  0  0
  128.2850  126.7060   62.8090 C   0  0  0  0  0  0  0  0  0  0  0  0
  128.9830  125.4940   62.7340 C   0  0  0  0  0  0  0  0  0  0  0  0
  130.3320  125.4270   63.3740 C   0  0  0  0  0  0  0  0  0  0  0  0
  130.4780  125.5890   64.7560 C   0  0  0  0  0  0  0  0  0  0  0  0
  131.7360  125.5110   65.3470 C   0  0  0  0  0  0  0  0  0  0  0  0
  132.8690  125.2610   64.5730 C   0  0  0  0  0  0  0  0  0  0  0  0
  134.0730  125.2000   65.2460 O   0  0  0  0  0  0  0  0  0  0  0  0
  134.0880  125.3620   66.6600 C   0  0  0  0  0  0  0  0  0  0  0  0
  132.7250  125.0890   63.1870 C   0  0  0  0  0  0  0  0  0  0  0  0
  131.4660  125.1690   62.5980 C   0  0  0  0  0  0  0  0  0  0  0  0
  128.3770  124.4080   62.0570 C   0  0  0  0  0  0  0  0  0  0  0  0
  129.0520  123.1100   61.9580 C   0  0  0  0  0  0  0  0  0  0  0  0
  129.5850  122.0860   61.8810 N   0  0  0  0  0  0  0  0  0  0  0  0
  125.5320  128.4150   57.7630 C   0  0  0  0  0  0  0  0  0  0  0  0
  125.9810  129.4960   57.0090 C   0  0  0  0  0  0  0  0  0  0  0  0
  1  2  1  0
  2  3  1  0
  3  4  1  0
  4  5  2  0
  4  6  1  0
  6  7  2  0
  7  8  1  0
  8  9  2  0
  9 10  1  0
 10 11  1  0
 11 12  2  0
 11 13  1  0
 13 14  1  0
 14 15  1  0
 15 16  2  0
 16 17  1  0
 17 18  1  0
 18 19  2  0
 19 20  1  0
 20 21  2  0
 21 22  1  0
 22 23  1  0
 21 24  1  0
 24 25  2  0
 17 26  2  0
 26 27  1  0
 27 28  1  0
 28 29  2  0
 29 30  1  0
 30 31  2  0
 31 32  1  0
 32 33  1  0
 31 34  1  0
 34 35  2  0
 27 36  2  0
 36 37  1  0
 37 38  3  0
  9 39  1  0
 39 40  2  0
 40  6  1  0
 36 15  1  0
 25 18  1  0
 35 28  1  0
M  END
>  <Binding energies>  (58) 
[-9.26]

>  <Ligand effiencies>  (58) 
[-0.22585365853658537]

>  <Interactions>  (58) 
["H-B:ALA:541:N:9863, V-B:PRO:540:CB:9857, H-B:TYR:531:OH:9767, V-B:TYR:531:CZ:9766, H-A:TYR:484:OH:4347, H-A:GLY:454:N:4049, V-A:ILE:538:CA:4860, V-A:ILE:538:CG2:4863, V-A:TYR:539:CZ:4877, V-A:TYR:539:CE1:4875, V-A:ILE:538:CB:4862, V-B:ASP:366:CG:8184, V-B:TYR:531:CE1:9764, H-B:LYS:534:NZ:9795, H-B:GLY:454:N:9021, V-B:ASP:366:CB:8183, V-B:ARG:545:CZ:9898, V-B:ILE:369:CD1:8210, H-B:ARG:545:NH2:9900, H-A:TYR:539:OH:4878, H-A:ARG:545:NH2:4928, V-A:TYR:484:CZ:4346, V-A:ARG:545:CD:4923, V-B:GLU:543:CD:9880, H-A:ARG:545:NE:4924, V-A:ARG:545:CG:4922, V-A:ARG:545:CZ:4926, H-A:ARG:545:NH1:4927, V-B:LEU:475:CD1:9229, V-B:ILE:369:CG2:8208, H-B:ASP:366:OD1:8185"]

$$$$
1b_Ghoteimi_2023
     RDKit          3D

 34 37  0  0  0  0  0  0  0  0999 V2000
  133.9240  125.4220   66.2800 C   0  0  0  0  0  0  0  0  0  0  0  0
  133.9680  125.0010   64.9220 O   0  0  0  0  0  0  0  0  0  0  0  0
  132.9310  125.3460   64.0770 C   0  0  0  0  0  0  0  0  0  0  0  0
  133.0980  125.0410   62.7270 C   0  0  0  0  0  0  0  0  0  0  0  0
  132.1070  125.3530   61.8010 C   0  0  0  0  0  0  0  0  0  0  0  0
  130.9150  125.9760   62.1970 C   0  0  0  0  0  0  0  0  0  0  0  0
  129.8470  126.3130   61.1940 C   0  0  0  0  0  0  0  0  0  0  0  0
  129.2240  125.3500   60.3930 C   0  0  0  0  0  0  0  0  0  0  0  0
  128.2320  125.7160   59.4750 C   0  0  0  0  0  0  0  0  0  0  0  0
  127.6130  124.6360   58.6500 C   0  0  0  0  0  0  0  0  0  0  0  0
  128.4190  123.7410   57.9410 C   0  0  0  0  0  0  0  0  0  0  0  0
  127.8480  122.7380   57.1630 C   0  0  0  0  0  0  0  0  0  0  0  0
  126.4610  122.6110   57.0760 C   0  0  0  0  0  0  0  0  0  0  0  0
  125.9830  121.5870   56.2810 O   0  0  0  0  0  0  0  0  0  0  0  0
  125.1220  121.8990   55.1920 C   0  0  0  0  0  0  0  0  0  0  0  0
  125.6480  123.5120   57.7800 C   0  0  0  0  0  0  0  0  0  0  0  0
  126.2230  124.5150   58.5560 C   0  0  0  0  0  0  0  0  0  0  0  0
  127.8660  127.0820   59.3870 C   0  0  0  0  0  0  0  0  0  0  0  0
  126.7670  127.5030   58.5120 C   0  0  0  0  0  0  0  0  0  0  0  0
  125.9000  127.8340   57.8210 N   0  0  0  0  0  0  0  0  0  0  0  0
  128.5490  128.0060   60.2090 C   0  0  0  0  0  0  0  0  0  0  0  0
  128.2290  129.7580   60.2260 S   0  0  0  0  0  0  0  0  0  0  0  0
  129.5950  130.5860   59.3440 C   0  0  0  0  0  0  0  0  0  0  0  0
  129.3880  130.7490   57.8320 C   0  0  0  0  0  0  0  0  0  0  0  0
  130.0060  131.6090   57.2000 O   0  0  0  0  0  0  0  0  0  0  0  0
  128.4960  129.8900   57.2900 N   0  0  0  0  0  0  0  0  0  0  0  0
  128.1130  129.8050   55.9560 C   0  0  0  0  0  0  0  0  0  0  0  0
  128.5330  128.7830   55.1070 C   0  0  0  0  0  0  0  0  0  0  0  0
  127.9430  129.0590   53.8950 C   0  0  0  0  0  0  0  0  0  0  0  0
  127.2030  130.1880   54.0100 O   0  0  0  0  0  0  0  0  0  0  0  0
  127.3190  130.6520   55.3210 N   0  0  0  0  0  0  0  0  0  0  0  0
  129.4960  127.6220   61.0990 N   0  0  0  0  0  0  0  0  0  0  0  0
  130.7580  126.2800   63.5590 C   0  0  0  0  0  0  0  0  0  0  0  0
  131.7470  125.9710   64.4880 C   0  0  0  0  0  0  0  0  0  0  0  0
  1  2  1  0
  2  3  1  0
  3  4  2  0
  4  5  1  0
  5  6  2  0
  6  7  1  0
  7  8  2  0
  8  9  1  0
  9 10  1  0
 10 11  2  0
 11 12  1  0
 12 13  2  0
 13 14  1  0
 14 15  1  0
 13 16  1  0
 16 17  2  0
  9 18  2  0
 18 19  1  0
 19 20  3  0
 18 21  1  0
 21 22  1  0
 22 23  1  0
 23 24  1  0
 24 25  2  0
 24 26  1  0
 26 27  1  0
 27 28  1  0
 28 29  2  0
 29 30  1  0
 30 31  1  0
 21 32  2  0
  6 33  1  0
 33 34  2  0
 34  3  1  0
 32  7  1  0
 17 10  1  0
 31 27  2  0
M  END
>  <Binding energies>  (59) 
[-8.21]

>  <Ligand effiencies>  (59) 
[-0.2345714285714286]

>  <Interactions>  (59) 
["V-B:PRO:540:CB:9857, H-B:TYR:531:OH:9767, V-B:MET:535:CE:9807, V-B:PRO:540:N:9856, V-B:PRO:540:CA:9855, H-B:TYR:539:N:9842, V-B:MET:535:CG:9805, V-B:TYR:539:C:9839, V-B:TYR:531:CZ:9766, V-B:LEU:363:CD1:8160, H-A:TYR:484:OH:4347, V-A:ASP:366:CG:3212, H-A:GLY:454:N:4049, V-B:TYR:531:CE1:9764, H-B:LYS:534:NZ:9795, V-A:GLU:543:CD:4908, H-A:TYR:539:OH:4878, H-A:ARG:545:NH2:4928, V-A:ARG:545:CD:4923, H-A:ARG:545:NE:4924, V-A:ARG:545:CG:4922, V-A:ARG:545:CZ:4926, H-A:ARG:545:NH1:4927, V-B:LYS:534:CE:9794, V-B:LYS:534:CD:9793, V-B:ILE:538:CA:9832, V-B:ILE:538:CG1:9836, V-B:ILE:538:CG2:9835, V-B:ILE:538:CB:9834"]

$$$$
1c_Ghoteimi_2023
     RDKit          3D

 34 37  0  0  0  0  0  0  0  0999 V2000
  133.9980  125.3720   66.6220 C   0  0  0  0  0  0  0  0  0  0  0  0
  133.9760  124.9020   65.2790 O   0  0  0  0  0  0  0  0  0  0  0  0
  132.8910  125.2020   64.4760 C   0  0  0  0  0  0  0  0  0  0  0  0
  133.1000  125.1590   63.1010 C   0  0  0  0  0  0  0  0  0  0  0  0
  132.0640  125.4490   62.2170 C   0  0  0  0  0  0  0  0  0  0  0  0
  130.7860  125.7920   62.6850 C   0  0  0  0  0  0  0  0  0  0  0  0
  129.6670  126.1110   61.7360 C   0  0  0  0  0  0  0  0  0  0  0  0
  129.1990  125.1980   60.7850 C   0  0  0  0  0  0  0  0  0  0  0  0
  128.1340  125.5310   59.9390 C   0  0  0  0  0  0  0  0  0  0  0  0
  127.6420  124.4840   58.9950 C   0  0  0  0  0  0  0  0  0  0  0  0
  126.2770  124.2050   58.8910 C   0  0  0  0  0  0  0  0  0  0  0  0
  125.8220  123.2140   58.0260 C   0  0  0  0  0  0  0  0  0  0  0  0
  126.7230  122.4820   57.2520 C   0  0  0  0  0  0  0  0  0  0  0  0
  126.1820  121.5190   56.4220 O   0  0  0  0  0  0  0  0  0  0  0  0
  125.3410  121.9220   55.3460 C   0  0  0  0  0  0  0  0  0  0  0  0
  128.0950  122.7550   57.3590 C   0  0  0  0  0  0  0  0  0  0  0  0
  128.5470  123.7470   58.2250 C   0  0  0  0  0  0  0  0  0  0  0  0
  127.5640  126.8210   60.0500 C   0  0  0  0  0  0  0  0  0  0  0  0
  126.4680  127.2430   59.1700 C   0  0  0  0  0  0  0  0  0  0  0  0
  125.6040  127.5740   58.4760 N   0  0  0  0  0  0  0  0  0  0  0  0
  128.0730  127.6850   61.0420 C   0  0  0  0  0  0  0  0  0  0  0  0
  127.3430  129.2670   61.4050 S   0  0  0  0  0  0  0  0  0  0  0  0
  128.5460  130.0970   62.4930 C   0  0  0  0  0  0  0  0  0  0  0  0
  129.6720  130.7710   61.7020 C   0  0  0  0  0  0  0  0  0  0  0  0
  129.8580  131.9830   61.8220 O   0  0  0  0  0  0  0  0  0  0  0  0
  130.4210  129.9410   60.9440 N   0  0  0  0  0  0  0  0  0  0  0  0
  131.5810  130.2650   60.2590 C   0  0  0  0  0  0  0  0  0  0  0  0
  131.7960  130.2100   58.9620 N   0  0  0  0  0  0  0  0  0  0  0  0
  133.0070  130.6320   58.6540 C   0  0  0  0  0  0  0  0  0  0  0  0
  133.8040  131.0440   59.7170 C   0  0  0  0  0  0  0  0  0  0  0  0
  132.9110  130.8620   61.1980 S   0  0  0  0  0  0  0  0  0  0  0  0
  129.0890  127.3340   61.8650 N   0  0  0  0  0  0  0  0  0  0  0  0
  130.5850  125.8260   64.0730 C   0  0  0  0  0  0  0  0  0  0  0  0
  131.6180  125.5380   64.9590 C   0  0  0  0  0  0  0  0  0  0  0  0
  1  2  1  0
  2  3  1  0
  3  4  2  0
  4  5  1  0
  5  6  2  0
  6  7  1  0
  7  8  2  0
  8  9  1  0
  9 10  1  0
 10 11  2  0
 11 12  1  0
 12 13  2  0
 13 14  1  0
 14 15  1  0
 13 16  1  0
 16 17  2  0
  9 18  2  0
 18 19  1  0
 19 20  3  0
 18 21  1  0
 21 22  1  0
 22 23  1  0
 23 24  1  0
 24 25  2  0
 24 26  1  0
 26 27  1  0
 27 28  2  0
 28 29  1  0
 29 30  2  0
 30 31  1  0
 21 32  2  0
  6 33  1  0
 33 34  2  0
 34  3  1  0
 32  7  1  0
 17 10  1  0
 31 27  1  0
M  END
>  <Binding energies>  (60) 
[-8.53]

>  <Ligand effiencies>  (60) 
[-0.2437142857142857]

>  <Interactions>  (60) 
["V-B:PRO:540:CB:9857, H-B:TYR:531:OH:9767, V-B:MET:535:CE:9807, V-B:PRO:540:N:9856, V-B:PRO:540:CA:9855, H-B:TYR:539:N:9842, V-B:TYR:539:CE2:9848, V-B:MET:535:CG:9805, V-B:TYR:539:C:9839, V-B:LEU:363:CD1:8160, H-A:TYR:484:OH:4347, V-A:ASP:366:CG:3212, H-A:GLY:454:N:4049, V-A:ASP:366:CB:3211, V-A:PRO:540:CA:4883, V-A:PRO:540:CB:4885, V-B:ASP:366:CG:8184, V-B:ASP:366:CB:8183, V-A:LEU:363:CD1:3188, V-A:GLU:543:CD:4908, H-A:ASP:366:OD2:3214, V-B:TYR:539:CZ:9849, V-A:TYR:484:CZ:4346, V-A:ARG:545:CD:4923, H-A:ARG:545:NE:4924, V-A:ARG:545:CG:4922, V-A:ARG:545:CZ:4926, H-A:ALA:541:N:4891, V-A:LEU:363:CA:3184, V-A:LEU:363:CB:3186, V-B:ILE:538:CA:9832, V-B:ILE:538:CG1:9836, V-B:ILE:538:CG2:9835, V-B:ILE:538:CB:9834, H-A:GLU:543:OE2:4910, V-A:ASN:362:CB:3175, V-A:ASN:362:C:3171"]

$$$$
1d_Ghoteimi_2023
     RDKit          3D

 30 32  0  0  0  0  0  0  0  0999 V2000
  124.9100  122.0010   54.7200 C   0  0  0  0  0  0  0  0  0  0  0  0
  125.7680  121.3110   55.6160 O   0  0  0  0  0  0  0  0  0  0  0  0
  126.4030  121.9750   56.6040 C   0  0  0  0  0  0  0  0  0  0  0  0
  127.4830  121.6680   57.1110 O   0  0  0  0  0  0  0  0  0  0  0  0
  125.6260  123.2030   57.0700 C   0  0  0  0  0  0  0  0  0  0  0  0
  125.9240  123.3950   58.8530 S   0  0  0  0  0  0  0  0  0  0  0  0
  127.3340  124.4670   59.0320 C   0  0  0  0  0  0  0  0  0  0  0  0
  127.3590  125.4880   58.1430 N   0  0  0  0  0  0  0  0  0  0  0  0
  128.3820  126.3800   58.1660 C   0  0  0  0  0  0  0  0  0  0  0  0
  128.3330  127.4850   57.1510 C   0  0  0  0  0  0  0  0  0  0  0  0
  127.5430  128.6280   57.3560 C   0  0  0  0  0  0  0  0  0  0  0  0
  127.4930  129.6480   56.4120 C   0  0  0  0  0  0  0  0  0  0  0  0
  128.2290  129.5600   55.2330 C   0  0  0  0  0  0  0  0  0  0  0  0
  128.1160  130.6180   54.3510 O   0  0  0  0  0  0  0  0  0  0  0  0
  129.0710  131.6720   54.4070 C   0  0  0  0  0  0  0  0  0  0  0  0
  129.0220  128.4250   55.0130 C   0  0  0  0  0  0  0  0  0  0  0  0
  129.0700  127.4070   55.9610 C   0  0  0  0  0  0  0  0  0  0  0  0
  129.4110  126.2610   59.1090 C   0  0  0  0  0  0  0  0  0  0  0  0
  129.4170  125.2060   60.0300 C   0  0  0  0  0  0  0  0  0  0  0  0
  130.5490  125.1360   61.0030 C   0  0  0  0  0  0  0  0  0  0  0  0
  130.4010  125.6530   62.2940 C   0  0  0  0  0  0  0  0  0  0  0  0
  131.4510  125.5910   63.2060 C   0  0  0  0  0  0  0  0  0  0  0  0
  132.6660  125.0070   62.8490 C   0  0  0  0  0  0  0  0  0  0  0  0
  133.6530  124.9960   63.8160 O   0  0  0  0  0  0  0  0  0  0  0  0
  133.3180  125.3370   65.1560 C   0  0  0  0  0  0  0  0  0  0  0  0
  132.8150  124.4750   61.5590 C   0  0  0  0  0  0  0  0  0  0  0  0
  131.7630  124.5380   60.6500 C   0  0  0  0  0  0  0  0  0  0  0  0
  128.3600  124.2640   59.9830 C   0  0  0  0  0  0  0  0  0  0  0  0
  128.3700  123.0840   60.8530 C   0  0  0  0  0  0  0  0  0  0  0  0
  128.3800  122.1530   61.5390 N   0  0  0  0  0  0  0  0  0  0  0  0
  1  2  1  0
  2  3  1  0
  3  4  2  0
  3  5  1  0
  5  6  1  0
  6  7  1  0
  7  8  2  0
  8  9  1  0
  9 10  1  0
 10 11  2  0
 11 12  1  0
 12 13  2  0
 13 14  1  0
 14 15  1  0
 13 16  1  0
 16 17  2  0
  9 18  2  0
 18 19  1  0
 19 20  1  0
 20 21  2  0
 21 22  1  0
 22 23  2  0
 23 24  1  0
 24 25  1  0
 23 26  1  0
 26 27  2  0
 19 28  2  0
 28 29  1  0
 29 30  3  0
 28  7  1  0
 17 10  1  0
 27 20  1  0
M  END
>  <Binding energies>  (61) 
[-7.88]

>  <Ligand effiencies>  (61) 
[-0.26266666666666666]

>  <Interactions>  (61) 
["H-B:ALA:541:N:9863, V-B:PRO:540:CB:9857, H-B:TYR:531:OH:9767, V-B:MET:535:CE:9807, V-B:PRO:540:N:9856, V-B:PRO:540:CA:9855, H-B:TYR:539:N:9842, V-B:MET:535:CG:9805, V-B:TYR:539:C:9839, V-B:TYR:531:CE2:9765, V-B:LEU:363:CD1:8160, V-A:ASP:366:CG:3212, H-A:GLY:454:N:4049, V-B:PRO:540:CD:9859, V-A:ILE:538:CA:4860, V-A:ILE:538:CG2:4863, V-A:TYR:539:CE1:4875, V-A:ILE:538:CB:4862, H-B:LYS:534:NZ:9795, H-A:ARG:545:NH2:4928, V-A:ARG:545:CZ:4926, H-A:ARG:545:NH1:4927, V-B:ILE:538:CA:9832, V-B:ILE:538:CG1:9836, V-B:ILE:538:CG2:9835, V-B:ILE:538:CB:9834, V-B:MET:535:CB:9804"]

$$$$
1j_Grossjean_2025
     RDKit          3D

 20 21  0  0  0  0  0  0  0  0999 V2000
  125.9930  129.9320   57.6470 C   0  0  0  0  0  0  0  0  0  0  0  0
  127.1130  129.0830   57.0730 C   0  0  0  0  0  0  0  0  0  0  0  0
  127.5920  127.9590   57.7420 C   0  0  0  0  0  0  0  0  0  0  0  0
  128.6160  127.2070   57.1590 C   0  0  0  0  0  0  0  0  0  0  0  0
  129.1140  125.9690   57.9040 C   0  0  0  0  0  0  0  0  0  0  0  0
  129.1440  127.6090   55.9110 C   0  0  0  0  0  0  0  0  0  0  0  0
  130.1810  126.8060   55.2570 C   0  0  0  0  0  0  0  0  0  0  0  0
  130.9980  126.1690   54.7420 N   0  0  0  0  0  0  0  0  0  0  0  0
  128.6150  128.7780   55.3160 C   0  0  0  0  0  0  0  0  0  0  0  0
  129.1610  129.4290   53.7520 S   0  0  0  0  0  0  0  0  0  0  0  0
  129.4860  131.2030   53.9750 C   0  0  0  0  0  0  0  0  0  0  0  0
  130.0600  131.5120   55.3590 C   0  0  0  0  0  0  0  0  0  0  0  0
  129.6550  132.4990   55.9750 O   0  0  0  0  0  0  0  0  0  0  0  0
  130.9940  130.6460   55.8090 N   0  0  0  0  0  0  0  0  0  0  0  0
  131.6670  130.7100   57.0220 C   0  0  0  0  0  0  0  0  0  0  0  0
  132.9520  130.5290   57.2420 N   0  0  0  0  0  0  0  0  0  0  0  0
  133.2460  130.6650   58.5200 C   0  0  0  0  0  0  0  0  0  0  0  0
  132.1850  130.9650   59.3690 C   0  0  0  0  0  0  0  0  0  0  0  0
  130.7250  131.0740   58.4320 S   0  0  0  0  0  0  0  0  0  0  0  0
  127.6060  129.4890   55.8790 N   0  0  0  0  0  0  0  0  0  0  0  0
  1  2  1  0
  2  3  2  0
  3  4  1  0
  4  5  1  0
  4  6  2  0
  6  7  1  0
  7  8  3  0
  6  9  1  0
  9 10  1  0
 10 11  1  0
 11 12  1  0
 12 13  2  0
 12 14  1  0
 14 15  1  0
 15 16  2  0
 16 17  1  0
 17 18  2  0
 18 19  1  0
  9 20  2  0
 20  2  1  0
 19 15  1  0
M  END
>  <Binding energies>  (62) 
[-6.71]

>  <Ligand effiencies>  (62) 
[-0.31952380952380954]

>  <Interactions>  (62) 
["H-B:TYR:531:OH:9767, V-B:TYR:531:CZ:9766, V-A:ASP:366:CG:3212, V-A:ILE:538:CA:4860, V-A:ASP:366:CB:3211, V-A:ILE:538:CG2:4863, H-B:TYR:539:OH:9850, V-A:PRO:540:CA:4883, H-A:TYR:531:OH:4795, H-A:TYR:539:N:4870, V-A:TYR:539:CZ:4877, V-A:PRO:540:CB:4885, V-A:TYR:539:CE1:4875, V-A:TYR:531:CZ:4794, V-A:ILE:538:CB:4862, V-A:LEU:363:CD1:3188, V-A:LEU:363:CA:3184"]

$$$$
1o_Grossjean_2025
     RDKit          3D

 26 27  0  0  0  0  0  0  0  0999 V2000
  125.0100  121.9950   54.9240 C   0  0  0  0  0  0  0  0  0  0  0  0
  125.5640  121.4820   56.1270 O   0  0  0  0  0  0  0  0  0  0  0  0
  126.6800  122.0300   56.6730 C   0  0  0  0  0  0  0  0  0  0  0  0
  127.7880  121.4860   56.6470 O   0  0  0  0  0  0  0  0  0  0  0  0
  126.4330  123.3670   57.3100 C   0  0  0  0  0  0  0  0  0  0  0  0
  127.4690  124.2890   57.5260 C   0  0  0  0  0  0  0  0  0  0  0  0
  127.2060  125.5220   58.1180 C   0  0  0  0  0  0  0  0  0  0  0  0
  125.9090  125.8570   58.5090 C   0  0  0  0  0  0  0  0  0  0  0  0
  125.7550  127.1320   59.0880 N   0  0  0  0  0  0  0  0  0  0  0  0
  126.0720  128.3500   58.5970 C   0  0  0  0  0  0  0  0  0  0  0  0
  126.5360  128.5650   57.4770 O   0  0  0  0  0  0  0  0  0  0  0  0
  125.7870  129.5350   59.5310 C   0  0  0  0  0  0  0  0  0  0  0  0
  127.0550  130.1080   60.1960 C   0  0  0  0  0  0  0  0  0  0  0  0
  127.5030  131.7720   59.6170 S   0  0  0  0  0  0  0  0  0  0  0  0
  128.8800  131.6280   58.4960 C   0  0  0  0  0  0  0  0  0  0  0  0
  128.5130  131.6190   57.1890 N   0  0  0  0  0  0  0  0  0  0  0  0
  129.4770  131.5220   56.2430 C   0  0  0  0  0  0  0  0  0  0  0  0
  128.9930  131.5330   54.8050 C   0  0  0  0  0  0  0  0  0  0  0  0
  130.8300  131.4180   56.5570 C   0  0  0  0  0  0  0  0  0  0  0  0
  131.2170  131.4000   57.9010 C   0  0  0  0  0  0  0  0  0  0  0  0
  132.7050  131.2700   58.2200 C   0  0  0  0  0  0  0  0  0  0  0  0
  130.2280  131.4960   58.9070 C   0  0  0  0  0  0  0  0  0  0  0  0
  130.6090  131.4190   60.3190 C   0  0  0  0  0  0  0  0  0  0  0  0
  130.9120  131.3590   61.4350 N   0  0  0  0  0  0  0  0  0  0  0  0
  124.8680  124.9430   58.2910 C   0  0  0  0  0  0  0  0  0  0  0  0
  125.1320  123.7110   57.6990 C   0  0  0  0  0  0  0  0  0  0  0  0
  1  2  1  0
  2  3  1  0
  3  4  2  0
  3  5  1  0
  5  6  2  0
  6  7  1  0
  7  8  2  0
  8  9  1  0
  9 10  1  0
 10 11  2  0
 10 12  1  0
 12 13  1  0
 13 14  1  0
 14 15  1  0
 15 16  2  0
 16 17  1  0
 17 18  1  0
 17 19  2  0
 19 20  1  0
 20 21  1  0
 20 22  2  0
 22 23  1  0
 23 24  3  0
  8 25  1  0
 25 26  2  0
 26  5  1  0
 22 15  1  0
M  END
>  <Binding energies>  (63) 
[-7.95]

>  <Ligand effiencies>  (63) 
[-0.29444444444444445]

>  <Interactions>  (63) 
["V-B:PRO:540:CB:9857, H-B:TYR:531:OH:9767, V-B:MET:535:CE:9807, V-B:PRO:540:N:9856, V-B:PRO:540:CA:9855, H-B:TYR:539:N:9842, V-B:MET:535:CG:9805, V-B:TYR:539:C:9839, V-B:TYR:531:CE2:9765, V-B:TYR:531:CZ:9766, V-B:LEU:363:CD1:8160, V-B:PRO:540:CD:9859, V-A:PRO:540:N:4884, V-A:ILE:538:CA:4860, V-A:TYR:539:CD1:4873, V-A:PRO:540:CA:4883, V-A:TYR:539:CZ:4877, V-A:PRO:540:CB:4885, V-A:TYR:539:CE1:4875, V-B:ASP:366:CG:8184, V-B:ASP:366:CB:8183, V-A:PRO:540:C:4881, V-A:TYR:539:C:4867, V-A:LEU:363:CD1:3188, H-A:ALA:541:N:4891, H-B:ASP:366:OD2:8186, V-B:ILE:538:CA:9832, V-B:ILE:538:CG1:9836, V-B:ILE:538:CG2:9835, H-B:ASP:366:OD1:8185, V-B:ILE:538:CB:9834, V-B:MET:535:CB:9804"]

$$$$
1p_Grossjean_2025
     RDKit          3D

 21 22  0  0  0  0  0  0  0  0999 V2000
  130.7090  118.2580   60.6330 C   0  0  0  0  0  0  0  0  0  0  0  0
  131.3390  119.4810   61.2730 C   0  0  0  0  0  0  0  0  0  0  0  0
  132.7120  119.7130   61.2050 C   0  0  0  0  0  0  0  0  0  0  0  0
  133.2410  120.8500   61.8250 C   0  0  0  0  0  0  0  0  0  0  0  0
  134.7490  121.0770   61.7500 C   0  0  0  0  0  0  0  0  0  0  0  0
  132.3710  121.7380   62.4970 C   0  0  0  0  0  0  0  0  0  0  0  0
  132.9050  122.9090   63.1940 C   0  0  0  0  0  0  0  0  0  0  0  0
  133.3290  123.8350   63.7450 N   0  0  0  0  0  0  0  0  0  0  0  0
  130.9880  121.4350   62.4960 C   0  0  0  0  0  0  0  0  0  0  0  0
  129.7580  122.4490   63.2840 S   0  0  0  0  0  0  0  0  0  0  0  0
  129.2500  123.7000   62.0690 C   0  0  0  0  0  0  0  0  0  0  0  0
  129.5280  123.2970   60.6080 C   0  0  0  0  0  0  0  0  0  0  0  0
  128.2790  122.8090   59.8580 C   0  0  0  0  0  0  0  0  0  0  0  0
  127.3200  122.3710   60.4960 O   0  0  0  0  0  0  0  0  0  0  0  0
  128.3280  122.9160   58.5110 N   0  0  0  0  0  0  0  0  0  0  0  0
  127.3420  122.5520   57.6030 C   0  0  0  0  0  0  0  0  0  0  0  0
  126.0760  123.1370   57.5780 C   0  0  0  0  0  0  0  0  0  0  0  0
  125.4110  122.5090   56.5500 C   0  0  0  0  0  0  0  0  0  0  0  0
  126.2320  121.5920   55.9870 O   0  0  0  0  0  0  0  0  0  0  0  0
  127.4530  121.6280   56.6640 N   0  0  0  0  0  0  0  0  0  0  0  0
  130.4880  120.3180   61.9100 N   0  0  0  0  0  0  0  0  0  0  0  0
  1  2  1  0
  2  3  2  0
  3  4  1  0
  4  5  1  0
  4  6  2  0
  6  7  1  0
  7  8  3  0
  6  9  1  0
  9 10  1  0
 10 11  1  0
 11 12  1  0
 12 13  1  0
 13 14  2  0
 13 15  1  0
 15 16  1  0
 16 17  1  0
 17 18  2  0
 18 19  1  0
 19 20  1  0
  9 21  2  0
 21  2  1  0
 20 16  2  0
M  END
>  <Binding energies>  (64) 
[-7.39]

>  <Ligand effiencies>  (64) 
[-0.3359090909090909]

>  <Interactions>  (64) 
["H-B:ALA:541:N:9863, V-B:PRO:540:CB:9857, V-B:MET:535:CE:9807, V-A:ILE:369:CG2:3236, V-B:TYR:539:CD2:9846, V-B:PRO:540:N:9856, V-A:LEU:475:CD1:4257, V-B:PRO:540:CA:9855, H-B:TYR:539:N:9842, V-B:ALA:541:CB:9864, V-B:TYR:539:C:9839, V-A:PRO:482:CG:4326, V-B:LEU:363:CD1:8160, H-A:TYR:484:OH:4347, H-A:GLY:454:N:4049, V-B:PRO:540:CD:9859, V-A:ILE:369:CD1:3238, V-A:SER:385:C:3404, V-A:GLY:454:CA:4048"]

$$$$
2a_Ghoteimi_2023
     RDKit          3D

 48 53  0  0  0  0  0  0  0  0999 V2000
  125.2680  121.7640   56.3660 C   0  0  0  0  0  0  0  0  0  0  0  0
  125.3490  123.2140   55.8780 C   0  0  0  0  0  0  0  0  0  0  0  0
  125.5450  124.0760   56.9910 O   0  0  0  0  0  0  0  0  0  0  0  0
  125.5610  123.5920   58.2600 C   0  0  0  0  0  0  0  0  0  0  0  0
  124.5530  123.5040   58.9670 O   0  0  0  0  0  0  0  0  0  0  0  0
  126.9280  123.1670   58.7150 C   0  0  0  0  0  0  0  0  0  0  0  0
  127.2830  123.1370   60.0710 C   0  0  0  0  0  0  0  0  0  0  0  0
  128.5580  122.7370   60.4590 C   0  0  0  0  0  0  0  0  0  0  0  0
  129.5030  122.3550   59.5040 C   0  0  0  0  0  0  0  0  0  0  0  0
  130.7610  121.9740   60.0080 N   0  0  0  0  0  0  0  0  0  0  0  0
  131.0730  121.2940   61.1330 C   0  0  0  0  0  0  0  0  0  0  0  0
  130.2630  120.9150   61.9790 O   0  0  0  0  0  0  0  0  0  0  0  0
  132.5710  121.0370   61.3450 C   0  0  0  0  0  0  0  0  0  0  0  0
  133.5920  122.5440   61.4130 S   0  0  0  0  0  0  0  0  0  0  0  0
  132.4440  123.9010   61.4500 C   0  0  0  0  0  0  0  0  0  0  0  0
  132.0850  124.2810   62.6980 N   0  0  0  0  0  0  0  0  0  0  0  0
  131.2050  125.3020   62.8570 C   0  0  0  0  0  0  0  0  0  0  0  0
  130.8470  125.6600   64.2640 C   0  0  0  0  0  0  0  0  0  0  0  0
  131.8340  125.8320   65.2420 C   0  0  0  0  0  0  0  0  0  0  0  0
  131.4950  126.1540   66.5530 C   0  0  0  0  0  0  0  0  0  0  0  0
  130.1560  126.3250   66.9340 C   0  0  0  0  0  0  0  0  0  0  0  0
  129.8280  126.6190   68.2620 N   0  0  0  0  0  0  0  0  0  0  0  0
  128.7280  125.9210   68.9560 C   0  0  0  0  0  0  0  0  0  0  0  0
  128.7430  126.1020   70.4890 C   0  0  0  0  0  0  0  0  0  0  0  0
  128.7540  127.4830   70.8140 O   0  0  0  0  0  0  0  0  0  0  0  0
  129.9030  128.1290   70.2910 C   0  0  0  0  0  0  0  0  0  0  0  0
  129.9250  128.0100   68.7520 C   0  0  0  0  0  0  0  0  0  0  0  0
  129.1700  126.1390   65.9520 C   0  0  0  0  0  0  0  0  0  0  0  0
  129.5100  125.8200   64.6410 C   0  0  0  0  0  0  0  0  0  0  0  0
  130.6740  125.9760   61.7550 C   0  0  0  0  0  0  0  0  0  0  0  0
  131.0310  125.6000   60.4530 C   0  0  0  0  0  0  0  0  0  0  0  0
  130.4210  126.3600   59.3200 C   0  0  0  0  0  0  0  0  0  0  0  0
  130.5490  127.7500   59.2550 C   0  0  0  0  0  0  0  0  0  0  0  0
  129.9680  128.4680   58.2150 C   0  0  0  0  0  0  0  0  0  0  0  0
  129.2420  127.8180   57.2050 C   0  0  0  0  0  0  0  0  0  0  0  0
  128.6350  128.5230   56.1620 N   0  0  0  0  0  0  0  0  0  0  0  0
  129.4310  128.8790   54.9700 C   0  0  0  0  0  0  0  0  0  0  0  0
  128.5650  129.2920   53.7600 C   0  0  0  0  0  0  0  0  0  0  0  0
  127.6980  130.3540   54.1230 O   0  0  0  0  0  0  0  0  0  0  0  0
  126.8250  129.9830   55.1790 C   0  0  0  0  0  0  0  0  0  0  0  0
  127.6430  129.5840   56.4250 C   0  0  0  0  0  0  0  0  0  0  0  0
  129.1080  126.4250   57.2840 C   0  0  0  0  0  0  0  0  0  0  0  0
  129.6880  125.7060   58.3250 C   0  0  0  0  0  0  0  0  0  0  0  0
  131.9490  124.5340   60.2880 C   0  0  0  0  0  0  0  0  0  0  0  0
  132.4030  124.1330   58.9530 C   0  0  0  0  0  0  0  0  0  0  0  0
  132.7600  123.8170   57.8980 N   0  0  0  0  0  0  0  0  0  0  0  0
  129.1580  122.3910   58.1450 C   0  0  0  0  0  0  0  0  0  0  0  0
  127.8810  122.7900   57.7580 C   0  0  0  0  0  0  0  0  0  0  0  0
  1  2  1  0
  2  3  1  0
  3  4  1  0
  4  5  2  0
  4  6  1  0
  6  7  2  0
  7  8  1  0
  8  9  2  0
  9 10  1  0
 10 11  1  0
 11 12  2  0
 11 13  1  0
 13 14  1  0
 14 15  1  0
 15 16  2  0
 16 17  1  0
 17 18  1  0
 18 19  2  0
 19 20  1  0
 20 21  2  0
 21 22  1  0
 22 23  1  0
 23 24  1  0
 24 25  1  0
 25 26  1  0
 26 27  1  0
 21 28  1  0
 28 29  2  0
 17 30  2  0
 30 31  1  0
 31 32  1  0
 32 33  2  0
 33 34  1  0
 34 35  2  0
 35 36  1  0
 36 37  1  0
 37 38  1  0
 38 39  1  0
 39 40  1  0
 40 41  1  0
 35 42  1  0
 42 43  2  0
 31 44  2  0
 44 45  1  0
 45 46  3  0
  9 47  1  0
 47 48  2  0
 48  6  1  0
 44 15  1  0
 29 18  1  0
 43 32  1  0
 27 22  1  0
 41 36  1  0
M  END
>  <Binding energies>  (65) 
[-10.34]

>  <Ligand effiencies>  (65) 
[-0.2110204081632653]

>  <Interactions>  (65) 
["V-B:PRO:540:CB:9857, H-B:TYR:531:OH:9767, V-B:MET:535:CE:9807, V-B:TYR:539:CD2:9846, V-B:PRO:540:N:9856, V-A:LEU:475:CD1:4257, V-B:PRO:540:CA:9855, V-B:TYR:539:CE2:9848, V-B:MET:535:CG:9805, V-B:TYR:539:C:9839, V-B:TYR:531:CE2:9765, V-B:TYR:531:CZ:9766, V-B:LEU:363:CD1:8160, V-A:ASP:366:CG:3212, V-B:PRO:540:CD:9859, V-A:ASP:366:CB:3211, H-B:TYR:539:OH:9850, V-A:TYR:539:CZ:4877, V-A:TYR:539:CE1:4875, V-B:TYR:531:CE1:9764, H-B:LYS:534:NZ:9795, V-B:TYR:539:CZ:9849, H-A:TYR:539:OH:4878, V-A:GLU:543:C:4902, V-B:TYR:539:CG:9844, V-A:HIS:456:CE1:4069, V-B:GLU:543:CB:9878, V-B:GLU:543:CG:9879, V-B:GLU:543:CD:9880, V-A:ARG:545:CZ:4926, V-A:GLU:543:CB:4906, V-B:LYS:534:CE:9794, V-B:ILE:538:CG2:9835, V-B:PRO:540:CG:9858, V-B:GLU:543:C:9874"]

$$$$
2aa_Ghoteimi_2023
     RDKit          3D

 48 53  0  0  0  0  0  0  0  0999 V2000
  132.1670  131.7520   56.9020 C   0  0  0  0  0  0  0  0  0  0  0  0
  131.5790  132.1100   55.5340 C   0  0  0  0  0  0  0  0  0  0  0  0
  130.3430  132.7890   55.7160 O   0  0  0  0  0  0  0  0  0  0  0  0
  129.1580  132.1520   55.5300 C   0  0  0  0  0  0  0  0  0  0  0  0
  128.5240  132.1900   54.4700 O   0  0  0  0  0  0  0  0  0  0  0  0
  128.7010  131.3840   56.7370 C   0  0  0  0  0  0  0  0  0  0  0  0
  127.9370  130.2130   56.6240 C   0  0  0  0  0  0  0  0  0  0  0  0
  127.5330  129.5210   57.7620 C   0  0  0  0  0  0  0  0  0  0  0  0
  127.8740  129.9880   59.0330 C   0  0  0  0  0  0  0  0  0  0  0  0
  127.4160  129.2090   60.1130 N   0  0  0  0  0  0  0  0  0  0  0  0
  126.6170  128.1200   60.1170 C   0  0  0  0  0  0  0  0  0  0  0  0
  126.1500  127.5800   59.1120 O   0  0  0  0  0  0  0  0  0  0  0  0
  126.3240  127.5480   61.5100 C   0  0  0  0  0  0  0  0  0  0  0  0
  127.2130  128.1340   62.4680 O   0  0  0  0  0  0  0  0  0  0  0  0
  127.9140  127.3270   63.3530 C   0  0  0  0  0  0  0  0  0  0  0  0
  128.4560  126.1720   62.8740 N   0  0  0  0  0  0  0  0  0  0  0  0
  129.1520  125.3620   63.7110 C   0  0  0  0  0  0  0  0  0  0  0  0
  129.7140  124.1090   63.1160 C   0  0  0  0  0  0  0  0  0  0  0  0
  129.0210  123.4200   62.1160 C   0  0  0  0  0  0  0  0  0  0  0  0
  129.5420  122.2580   61.5540 C   0  0  0  0  0  0  0  0  0  0  0  0
  130.7840  121.7480   61.9630 C   0  0  0  0  0  0  0  0  0  0  0  0
  131.3170  120.5740   61.4190 N   0  0  0  0  0  0  0  0  0  0  0  0
  132.7720  120.3160   61.4190 C   0  0  0  0  0  0  0  0  0  0  0  0
  133.2010  119.1700   60.4790 C   0  0  0  0  0  0  0  0  0  0  0  0
  132.4770  117.9910   60.7870 O   0  0  0  0  0  0  0  0  0  0  0  0
  131.0800  118.1830   60.6270 C   0  0  0  0  0  0  0  0  0  0  0  0
  130.5870  119.2990   61.5730 C   0  0  0  0  0  0  0  0  0  0  0  0
  131.4650  122.4300   62.9820 C   0  0  0  0  0  0  0  0  0  0  0  0
  130.9410  123.5910   63.5450 C   0  0  0  0  0  0  0  0  0  0  0  0
  129.3080  125.6830   65.0630 C   0  0  0  0  0  0  0  0  0  0  0  0
  128.7510  126.8580   65.5830 C   0  0  0  0  0  0  0  0  0  0  0  0
  128.9300  127.1350   67.0410 C   0  0  0  0  0  0  0  0  0  0  0  0
  128.8890  126.0900   67.9670 C   0  0  0  0  0  0  0  0  0  0  0  0
  129.0350  126.3430   69.3280 C   0  0  0  0  0  0  0  0  0  0  0  0
  129.2130  127.6520   69.8040 C   0  0  0  0  0  0  0  0  0  0  0  0
  129.3650  127.9290   71.1650 N   0  0  0  0  0  0  0  0  0  0  0  0
  129.1670  126.8860   72.1890 C   0  0  0  0  0  0  0  0  0  0  0  0
  129.7170  127.2750   73.5780 C   0  0  0  0  0  0  0  0  0  0  0  0
  129.1490  128.5080   73.9960 O   0  0  0  0  0  0  0  0  0  0  0  0
  129.4560  129.5570   73.0910 C   0  0  0  0  0  0  0  0  0  0  0  0
  128.8990  129.2290   71.6910 C   0  0  0  0  0  0  0  0  0  0  0  0
  129.2600  128.6930   68.8660 C   0  0  0  0  0  0  0  0  0  0  0  0
  129.1140  128.4400   67.5050 C   0  0  0  0  0  0  0  0  0  0  0  0
  128.0480  127.7100   64.6990 C   0  0  0  0  0  0  0  0  0  0  0  0
  127.4750  128.9830   65.1430 C   0  0  0  0  0  0  0  0  0  0  0  0
  127.0240  129.9880   65.4950 N   0  0  0  0  0  0  0  0  0  0  0  0
  128.6440  131.1530   59.1530 C   0  0  0  0  0  0  0  0  0  0  0  0
  129.0510  131.8420   58.0140 C   0  0  0  0  0  0  0  0  0  0  0  0
  1  2  1  0
  2  3  1  0
  3  4  1  0
  4  5  2  0
  4  6  1  0
  6  7  2  0
  7  8  1  0
  8  9  2  0
  9 10  1  0
 10 11  1  0
 11 12  2  0
 11 13  1  0
 13 14  1  0
 14 15  1  0
 15 16  2  0
 16 17  1  0
 17 18  1  0
 18 19  2  0
 19 20  1  0
 20 21  2  0
 21 22  1  0
 22 23  1  0
 23 24  1  0
 24 25  1  0
 25 26  1  0
 26 27  1  0
 21 28  1  0
 28 29  2  0
 17 30  2  0
 30 31  1  0
 31 32  1  0
 32 33  2  0
 33 34  1  0
 34 35  2  0
 35 36  1  0
 36 37  1  0
 37 38  1  0
 38 39  1  0
 39 40  1  0
 40 41  1  0
 35 42  1  0
 42 43  2  0
 31 44  2  0
 44 45  1  0
 45 46  3  0
  9 47  1  0
 47 48  2  0
 48  6  1  0
 44 15  1  0
 29 18  1  0
 43 32  1  0
 27 22  1  0
 41 36  1  0
M  END
>  <Binding energies>  (66) 
[-10.36]

>  <Ligand effiencies>  (66) 
[-0.2114285714285714]

>  <Interactions>  (66) 
["V-A:ILE:369:CG2:3236, V-B:TYR:539:CD2:9846, V-A:LEU:475:CD1:4257, H-A:SER:385:OG:3409, H-A:HIS:383:NE2:3393, V-B:ALA:541:CB:9864, V-A:PRO:482:CG:4326, V-A:PRO:540:N:4884, V-A:ILE:538:CA:4860, V-A:TYR:539:CG:4872, V-A:ILE:538:CG2:4863, V-A:TYR:539:CD1:4873, V-A:PRO:540:CA:4883, H-A:TYR:539:N:4870, V-A:TYR:539:CZ:4877, V-A:PRO:540:CB:4885, V-A:TYR:539:CE1:4875, V-A:ILE:538:CB:4862, V-B:ASP:366:CG:8184, H-B:LYS:534:NZ:9795, V-A:PRO:540:CD:4887, V-A:TYR:539:C:4867, V-A:LEU:363:CD1:3188, V-A:GLU:543:CG:4907, V-A:GLU:543:CD:4908, H-B:TYR:484:OH:9319, V-A:GLU:543:C:4902, V-B:HIS:456:CE1:9041, V-A:HIS:456:CE1:4069, V-B:GLU:543:CB:9878, V-B:GLU:543:CG:9879, V-B:GLU:543:CD:9880, V-A:GLU:543:CA:4904, V-A:GLU:543:CB:4906, V-B:HIS:456:CD2:9039, H-A:LYS:547:NZ:4951, V-A:LYS:547:CE:4950"]

$$$$
2b_Ghoteimi_2023
     RDKit          3D

 42 47  0  0  0  0  0  0  0  0999 V2000
  127.5860  132.2040   65.6910 N   0  0  0  0  0  0  0  0  0  0  0  0
  127.5030  131.3230   64.9450 C   0  0  0  0  0  0  0  0  0  0  0  0
  127.3990  130.2030   64.0050 C   0  0  0  0  0  0  0  0  0  0  0  0
  127.6270  128.8730   64.4410 C   0  0  0  0  0  0  0  0  0  0  0  0
  127.9780  128.5090   65.8460 C   0  0  0  0  0  0  0  0  0  0  0  0
  127.9380  129.4730   66.8550 C   0  0  0  0  0  0  0  0  0  0  0  0
  128.2650  129.1390   68.1660 C   0  0  0  0  0  0  0  0  0  0  0  0
  128.6580  127.8340   68.5010 C   0  0  0  0  0  0  0  0  0  0  0  0
  128.9780  127.4710   69.8100 N   0  0  0  0  0  0  0  0  0  0  0  0
  129.1550  128.5290   70.8260 C   0  0  0  0  0  0  0  0  0  0  0  0
  129.8650  128.0350   72.1050 C   0  0  0  0  0  0  0  0  0  0  0  0
  129.1780  126.9170   72.6450 O   0  0  0  0  0  0  0  0  0  0  0  0
  129.1280  125.8370   71.7250 C   0  0  0  0  0  0  0  0  0  0  0  0
  128.3910  126.2740   70.4430 C   0  0  0  0  0  0  0  0  0  0  0  0
  128.6980  126.8730   67.4810 C   0  0  0  0  0  0  0  0  0  0  0  0
  128.3670  127.2060   66.1700 C   0  0  0  0  0  0  0  0  0  0  0  0
  127.5110  127.8360   63.5080 C   0  0  0  0  0  0  0  0  0  0  0  0
  127.1480  128.1100   62.1860 C   0  0  0  0  0  0  0  0  0  0  0  0
  126.9820  127.0360   61.1580 C   0  0  0  0  0  0  0  0  0  0  0  0
  126.7490  127.3610   59.8170 C   0  0  0  0  0  0  0  0  0  0  0  0
  126.6100  126.3670   58.8530 C   0  0  0  0  0  0  0  0  0  0  0  0
  126.6840  125.0080   59.1950 C   0  0  0  0  0  0  0  0  0  0  0  0
  126.5760  123.9980   58.2320 N   0  0  0  0  0  0  0  0  0  0  0  0
  127.4780  122.8290   58.2870 C   0  0  0  0  0  0  0  0  0  0  0  0
  127.5150  122.0150   56.9760 C   0  0  0  0  0  0  0  0  0  0  0  0
  126.2000  121.6270   56.6080 O   0  0  0  0  0  0  0  0  0  0  0  0
  125.3670  122.7540   56.3920 C   0  0  0  0  0  0  0  0  0  0  0  0
  125.2670  123.5940   57.6840 C   0  0  0  0  0  0  0  0  0  0  0  0
  126.9250  124.6870   60.5390 C   0  0  0  0  0  0  0  0  0  0  0  0
  127.0670  125.6820   61.5020 C   0  0  0  0  0  0  0  0  0  0  0  0
  126.9300  129.3840   61.7710 N   0  0  0  0  0  0  0  0  0  0  0  0
  127.0680  130.4070   62.6470 C   0  0  0  0  0  0  0  0  0  0  0  0
  126.7500  132.0050   61.9320 S   0  0  0  0  0  0  0  0  0  0  0  0
  128.2500  132.5180   61.0420 C   0  0  0  0  0  0  0  0  0  0  0  0
  128.2860  131.9730   59.6140 C   0  0  0  0  0  0  0  0  0  0  0  0
  127.4730  131.1100   59.2760 O   0  0  0  0  0  0  0  0  0  0  0  0
  129.2410  132.4970   58.8150 N   0  0  0  0  0  0  0  0  0  0  0  0
  129.4860  132.1910   57.4840 C   0  0  0  0  0  0  0  0  0  0  0  0
  128.8830  131.1210   56.8260 C   0  0  0  0  0  0  0  0  0  0  0  0
  129.3820  131.1610   55.5450 C   0  0  0  0  0  0  0  0  0  0  0  0
  130.2410  132.2030   55.4370 O   0  0  0  0  0  0  0  0  0  0  0  0
  130.2970  132.8500   56.6730 N   0  0  0  0  0  0  0  0  0  0  0  0
  1  2  3  0
  2  3  1  0
  3  4  2  0
  4  5  1  0
  5  6  2  0
  6  7  1  0
  7  8  2  0
  8  9  1  0
  9 10  1  0
 10 11  1  0
 11 12  1  0
 12 13  1  0
 13 14  1  0
  8 15  1  0
 15 16  2  0
  4 17  1  0
 17 18  2  0
 18 19  1  0
 19 20  2  0
 20 21  1  0
 21 22  2  0
 22 23  1  0
 23 24  1  0
 24 25  1  0
 25 26  1  0
 26 27  1  0
 27 28  1  0
 22 29  1  0
 29 30  2  0
 18 31  1  0
 31 32  2  0
 32 33  1  0
 33 34  1  0
 34 35  1  0
 35 36  2  0
 35 37  1  0
 37 38  1  0
 38 39  1  0
 39 40  2  0
 40 41  1  0
 41 42  1  0
 32  3  1  0
 42 38  2  0
 16  5  1  0
 30 19  1  0
 14  9  1  0
 28 23  1  0
M  END
>  <Binding energies>  (67) 
[-10.57]

>  <Ligand effiencies>  (67) 
[-0.2458139534883721]

>  <Interactions>  (67) 
["V-B:PRO:540:CB:9857, V-B:MET:535:CE:9807, V-B:PRO:540:N:9856, V-B:PRO:540:CA:9855, H-B:TYR:539:N:9842, V-B:TYR:539:C:9839, V-B:TYR:531:CE2:9765, V-B:LEU:363:CD1:8160, V-B:TYR:539:CA:9841, V-A:PRO:540:N:4884, V-A:TYR:539:CD1:4873, V-A:PRO:540:CA:4883, H-A:TYR:539:N:4870, V-A:TYR:539:CE1:4875, V-B:ASP:366:CG:8184, V-A:ALA:541:CB:4892, V-A:TYR:539:C:4867, V-A:GLU:543:CG:4907, V-A:GLU:543:CD:4908, H-B:TYR:484:OH:9319, V-A:GLU:543:C:4902, V-B:TYR:539:CG:9844, V-B:HIS:456:CE1:9041, V-A:HIS:456:CE1:4069, V-B:GLU:543:CB:9878, V-B:GLU:543:CD:9880, V-B:TYR:539:CD1:9845, V-A:GLU:543:CB:4906, H-A:TYR:539:O:4868, V-A:TYR:539:CA:4869, V-B:TYR:484:CE2:9317, V-B:GLU:543:C:9874, V-B:HIS:456:CD2:9039, V-A:HIS:456:CD2:4067"]

$$$$
2c_Ghoteimi_2023
     RDKit          3D

 42 47  0  0  0  0  0  0  0  0999 V2000
  129.5230  122.1000   65.3030 N   0  0  0  0  0  0  0  0  0  0  0  0
  129.6110  122.9870   64.5670 C   0  0  0  0  0  0  0  0  0  0  0  0
  129.7230  124.1160   63.6380 C   0  0  0  0  0  0  0  0  0  0  0  0
  129.7480  125.4480   64.1210 C   0  0  0  0  0  0  0  0  0  0  0  0
  129.6610  125.8100   65.5670 C   0  0  0  0  0  0  0  0  0  0  0  0
  128.8220  126.8460   65.9830 C   0  0  0  0  0  0  0  0  0  0  0  0
  128.7320  127.1860   67.3300 C   0  0  0  0  0  0  0  0  0  0  0  0
  129.4890  126.5100   68.2980 C   0  0  0  0  0  0  0  0  0  0  0  0
  129.4000  126.8210   69.6570 N   0  0  0  0  0  0  0  0  0  0  0  0
  129.5270  128.2280   70.0850 C   0  0  0  0  0  0  0  0  0  0  0  0
  129.7970  128.3830   71.5970 C   0  0  0  0  0  0  0  0  0  0  0  0
  128.7890  127.7160   72.3420 O   0  0  0  0  0  0  0  0  0  0  0  0
  128.7480  126.3290   72.0450 C   0  0  0  0  0  0  0  0  0  0  0  0
  128.4520  126.1200   70.5450 C   0  0  0  0  0  0  0  0  0  0  0  0
  130.3320  125.4740   67.8700 C   0  0  0  0  0  0  0  0  0  0  0  0
  130.4200  125.1320   66.5240 C   0  0  0  0  0  0  0  0  0  0  0  0
  129.8600  126.4910   63.1930 C   0  0  0  0  0  0  0  0  0  0  0  0
  129.9720  126.2160   61.8270 C   0  0  0  0  0  0  0  0  0  0  0  0
  130.1110  127.2920   60.7990 C   0  0  0  0  0  0  0  0  0  0  0  0
  130.0250  126.9940   59.4350 C   0  0  0  0  0  0  0  0  0  0  0  0
  130.1480  127.9930   58.4730 C   0  0  0  0  0  0  0  0  0  0  0  0
  130.3740  129.3290   58.8400 C   0  0  0  0  0  0  0  0  0  0  0  0
  130.4750  130.3490   57.8880 N   0  0  0  0  0  0  0  0  0  0  0  0
  129.2940  131.1770   57.5690 C   0  0  0  0  0  0  0  0  0  0  0  0
  129.4370  131.9800   56.2590 C   0  0  0  0  0  0  0  0  0  0  0  0
  130.6120  132.7730   56.3000 O   0  0  0  0  0  0  0  0  0  0  0  0
  131.7740  131.9720   56.4440 C   0  0  0  0  0  0  0  0  0  0  0  0
  131.7010  131.1630   57.7570 C   0  0  0  0  0  0  0  0  0  0  0  0
  130.4460  129.6260   60.2090 C   0  0  0  0  0  0  0  0  0  0  0  0
  130.3210  128.6260   61.1700 C   0  0  0  0  0  0  0  0  0  0  0  0
  129.9510  124.9390   61.3670 N   0  0  0  0  0  0  0  0  0  0  0  0
  129.8110  123.9140   62.2410 C   0  0  0  0  0  0  0  0  0  0  0  0
  129.7920  122.3140   61.4660 S   0  0  0  0  0  0  0  0  0  0  0  0
  130.5400  122.4960   59.8190 C   0  0  0  0  0  0  0  0  0  0  0  0
  129.5210  122.9500   58.7730 C   0  0  0  0  0  0  0  0  0  0  0  0
  129.7680  123.9340   58.0740 O   0  0  0  0  0  0  0  0  0  0  0  0
  128.3920  122.2120   58.7010 N   0  0  0  0  0  0  0  0  0  0  0  0
  127.3290  122.4040   57.8310 C   0  0  0  0  0  0  0  0  0  0  0  0
  126.9740  121.6540   56.8110 N   0  0  0  0  0  0  0  0  0  0  0  0
  125.9070  122.1330   56.2040 C   0  0  0  0  0  0  0  0  0  0  0  0
  125.3710  123.3030   56.7350 C   0  0  0  0  0  0  0  0  0  0  0  0
  126.3250  123.7920   58.1030 S   0  0  0  0  0  0  0  0  0  0  0  0
  1  2  3  0
  2  3  1  0
  3  4  2  0
  4  5  1  0
  5  6  2  0
  6  7  1  0
  7  8  2  0
  8  9  1  0
  9 10  1  0
 10 11  1  0
 11 12  1  0
 12 13  1  0
 13 14  1  0
  8 15  1  0
 15 16  2  0
  4 17  1  0
 17 18  2  0
 18 19  1  0
 19 20  2  0
 20 21  1  0
 21 22  2  0
 22 23  1  0
 23 24  1  0
 24 25  1  0
 25 26  1  0
 26 27  1  0
 27 28  1  0
 22 29  1  0
 29 30  2  0
 18 31  1  0
 31 32  2  0
 32 33  1  0
 33 34  1  0
 34 35  1  0
 35 36  2  0
 35 37  1  0
 37 38  1  0
 38 39  2  0
 39 40  1  0
 40 41  2  0
 41 42  1  0
 32  3  1  0
 42 38  1  0
 16  5  1  0
 30 19  1  0
 14  9  1  0
 28 23  1  0
M  END
>  <Binding energies>  (68) 
[-10.19]

>  <Ligand effiencies>  (68) 
[-0.2369767441860465]

>  <Interactions>  (68) 
["V-B:PRO:540:CB:9857, V-B:MET:535:CE:9807, V-B:TYR:539:CD2:9846, V-B:PRO:540:N:9856, V-B:PRO:540:CA:9855, H-B:TYR:539:N:9842, V-B:ALA:541:CB:9864, V-B:TYR:539:CE2:9848, V-B:TYR:539:C:9839, V-B:TYR:531:CE2:9765, V-B:LEU:363:CD1:8160, H-A:TYR:484:OH:4347, V-B:PRO:540:CD:9859, V-A:PRO:540:N:4884, H-B:TYR:539:OH:9850, V-A:TYR:539:CD1:4873, V-A:PRO:540:CA:4883, H-A:TYR:539:N:4870, V-A:PRO:540:CB:4885, V-A:TYR:539:CE1:4875, V-A:PRO:540:CD:4887, V-A:LEU:363:CD1:3188, V-A:GLU:543:CD:4908, V-B:TYR:539:CZ:9849, H-B:TYR:539:O:9840, V-A:GLU:543:C:4902, V-B:HIS:456:CE1:9041, V-A:TYR:484:CZ:4346, V-A:HIS:456:CE1:4069, V-B:GLU:543:CG:9879, V-B:GLU:543:CD:9880, V-A:TYR:484:CE2:4345, V-B:GLU:543:C:9874, V-B:HIS:456:CD2:9039"]

$$$$
2j_Grossjean_2025
     RDKit          3D

 23 24  0  0  0  0  0  0  0  0999 V2000
  126.2430  129.8640   57.8760 C   0  0  0  0  0  0  0  0  0  0  0  0
  127.2860  129.0000   57.1920 C   0  0  0  0  0  0  0  0  0  0  0  0
  127.7060  127.7910   57.7410 C   0  0  0  0  0  0  0  0  0  0  0  0
  128.6700  127.0250   57.0690 C   0  0  0  0  0  0  0  0  0  0  0  0
  129.1240  125.6910   57.6910 C   0  0  0  0  0  0  0  0  0  0  0  0
  128.5170  125.5050   58.8630 F   0  0  0  0  0  0  0  0  0  0  0  0
  128.8140  124.6790   56.8780 F   0  0  0  0  0  0  0  0  0  0  0  0
  130.4400  125.6430   57.9070 F   0  0  0  0  0  0  0  0  0  0  0  0
  129.1880  127.5140   55.8430 C   0  0  0  0  0  0  0  0  0  0  0  0
  130.1980  126.7560   55.0980 C   0  0  0  0  0  0  0  0  0  0  0  0
  130.9940  126.1560   54.5100 N   0  0  0  0  0  0  0  0  0  0  0  0
  128.7040  128.7530   55.3580 C   0  0  0  0  0  0  0  0  0  0  0  0
  129.2840  129.4640   53.8250 S   0  0  0  0  0  0  0  0  0  0  0  0
  129.6400  131.2310   54.1090 C   0  0  0  0  0  0  0  0  0  0  0  0
  130.2300  131.5570   55.4890 C   0  0  0  0  0  0  0  0  0  0  0  0
  129.8760  132.5660   56.1030 O   0  0  0  0  0  0  0  0  0  0  0  0
  131.1460  130.6710   55.9370 N   0  0  0  0  0  0  0  0  0  0  0  0
  131.8300  130.7230   57.1440 C   0  0  0  0  0  0  0  0  0  0  0  0
  133.1200  130.5660   57.3480 N   0  0  0  0  0  0  0  0  0  0  0  0
  133.4280  130.6820   58.6250 C   0  0  0  0  0  0  0  0  0  0  0  0
  132.3700  130.9400   59.4920 C   0  0  0  0  0  0  0  0  0  0  0  0
  130.8970  131.0330   58.5730 S   0  0  0  0  0  0  0  0  0  0  0  0
  127.7690  129.4780   56.0230 N   0  0  0  0  0  0  0  0  0  0  0  0
  1  2  1  0
  2  3  2  0
  3  4  1  0
  4  5  1  0
  5  6  1  0
  5  7  1  0
  5  8  1  0
  4  9  2  0
  9 10  1  0
 10 11  3  0
  9 12  1  0
 12 13  1  0
 13 14  1  0
 14 15  1  0
 15 16  2  0
 15 17  1  0
 17 18  1  0
 18 19  2  0
 19 20  1  0
 20 21  2  0
 21 22  1  0
 12 23  2  0
 23  2  1  0
 22 18  1  0
M  END
>  <Binding energies>  (69) 
[-6.31]

>  <Ligand effiencies>  (69) 
[-0.26291666666666663]

>  <Interactions>  (69) 
["H-B:TYR:531:OH:9767, V-B:MET:535:CE:9807, V-A:ASP:366:CG:3212, V-A:ILE:538:CA:4860, V-A:ASP:366:CB:3211, V-A:ILE:538:CG2:4863, H-B:TYR:539:OH:9850, V-A:PRO:540:CA:4883, H-A:TYR:531:OH:4795, H-A:TYR:539:N:4870, V-A:PRO:540:CB:4885, V-A:TYR:539:CE1:4875, V-A:TYR:531:CZ:4794, V-A:ILE:538:CB:4862, V-A:LEU:363:CD1:3188, V-A:LEU:363:CA:3184, V-A:LEU:363:CB:3186"]

$$$$
3ab_Grossjean_2025
     RDKit          3D

 33 35  0  0  0  0  0  0  0  0999 V2000
  128.8930  131.2610   54.3970 C   0  0  0  0  0  0  0  0  0  0  0  0
  127.6900  130.5190   54.2530 O   0  0  0  0  0  0  0  0  0  0  0  0
  127.2010  129.7760   55.2790 C   0  0  0  0  0  0  0  0  0  0  0  0
  126.0450  129.8740   55.7000 O   0  0  0  0  0  0  0  0  0  0  0  0
  128.2070  128.8190   55.8500 C   0  0  0  0  0  0  0  0  0  0  0  0
  128.5530  128.8280   57.2100 C   0  0  0  0  0  0  0  0  0  0  0  0
  129.4880  127.9270   57.7120 C   0  0  0  0  0  0  0  0  0  0  0  0
  130.0990  126.9970   56.8570 C   0  0  0  0  0  0  0  0  0  0  0  0
  131.0510  126.0390   57.2550 N   0  0  0  0  0  0  0  0  0  0  0  0
  132.1330  125.5680   56.6000 C   0  0  0  0  0  0  0  0  0  0  0  0
  132.4870  125.9030   55.4700 O   0  0  0  0  0  0  0  0  0  0  0  0
  132.9590  124.5290   57.3610 C   0  0  0  0  0  0  0  0  0  0  0  0
  132.6920  124.6230   59.1570 S   0  0  0  0  0  0  0  0  0  0  0  0
  131.4230  123.4440   59.5710 C   0  0  0  0  0  0  0  0  0  0  0  0
  130.2390  123.6870   58.9610 N   0  0  0  0  0  0  0  0  0  0  0  0
  129.1820  122.8630   59.1830 C   0  0  0  0  0  0  0  0  0  0  0  0
  127.9070  123.2000   58.4680 C   0  0  0  0  0  0  0  0  0  0  0  0
  127.1860  124.3590   58.7940 C   0  0  0  0  0  0  0  0  0  0  0  0
  126.0020  124.6770   58.1330 C   0  0  0  0  0  0  0  0  0  0  0  0
  125.5220  123.8360   57.1340 C   0  0  0  0  0  0  0  0  0  0  0  0
  126.2150  122.6800   56.7940 C   0  0  0  0  0  0  0  0  0  0  0  0
  127.3980  122.3660   57.4580 C   0  0  0  0  0  0  0  0  0  0  0  0
  129.2950  121.7730   60.0530 C   0  0  0  0  0  0  0  0  0  0  0  0
  130.5060  121.5110   60.7110 C   0  0  0  0  0  0  0  0  0  0  0  0
  130.5870  120.3040   61.6650 C   0  0  0  0  0  0  0  0  0  0  0  0
  131.6690  119.5510   61.4560 F   0  0  0  0  0  0  0  0  0  0  0  0
  130.6290  120.7200   62.9310 F   0  0  0  0  0  0  0  0  0  0  0  0
  129.5170  119.5240   61.5030 F   0  0  0  0  0  0  0  0  0  0  0  0
  131.6050  122.3730   60.4740 C   0  0  0  0  0  0  0  0  0  0  0  0
  132.8750  122.1790   61.1790 C   0  0  0  0  0  0  0  0  0  0  0  0
  133.8770  122.0230   61.7370 N   0  0  0  0  0  0  0  0  0  0  0  0
  129.7530  126.9820   55.5050 C   0  0  0  0  0  0  0  0  0  0  0  0
  128.8190  127.8840   55.0050 C   0  0  0  0  0  0  0  0  0  0  0  0
  1  2  1  0
  2  3  1  0
  3  4  2  0
  3  5  1  0
  5  6  2  0
  6  7  1  0
  7  8  2  0
  8  9  1  0
  9 10  1  0
 10 11  2  0
 10 12  1  0
 12 13  1  0
 13 14  1  0
 14 15  2  0
 15 16  1  0
 16 17  1  0
 17 18  2  0
 18 19  1  0
 19 20  2  0
 20 21  1  0
 21 22  2  0
 16 23  2  0
 23 24  1  0
 24 25  1  0
 25 26  1  0
 25 27  1  0
 25 28  1  0
 24 29  2  0
 29 30  1  0
 30 31  3  0
  8 32  1  0
 32 33  2  0
 33  5  1  0
 29 14  1  0
 22 17  1  0
M  END
>  <Binding energies>  (70) 
[-7.87]

>  <Ligand effiencies>  (70) 
[-0.23147058823529412]

>  <Interactions>  (70) 
["H-B:TYR:531:OH:9767, V-B:MET:535:CE:9807, V-B:TYR:539:CD2:9846, V-B:PRO:540:N:9856, V-A:LEU:475:CD1:4257, V-B:PRO:540:CA:9855, V-B:PRO:540:C:9853, V-B:ALA:541:CB:9864, V-B:TYR:539:CE2:9848, V-B:TYR:539:C:9839, V-B:TYR:531:CE2:9765, V-A:PRO:482:CG:4326, V-B:TYR:531:CZ:9766, V-B:LEU:363:CD1:8160, V-A:ASP:366:CA:3209, V-A:ASP:366:CB:3211, V-A:ASP:366:C:3207, H-B:TYR:539:OH:9850, H-A:TYR:531:OH:4795, V-A:TYR:539:CZ:4877, V-B:TYR:531:CE1:9764, H-B:LYS:534:NZ:9795, V-B:TYR:539:CZ:9849, H-A:TYR:539:OH:4878, V-B:ALA:541:CA:9862"]

$$$$
3ac_Grossjean_2025
     RDKit          3D

 31 33  0  0  0  0  0  0  0  0999 V2000
  133.2420  131.3270   61.6990 C   0  0  0  0  0  0  0  0  0  0  0  0
  133.7600  130.9560   60.4250 O   0  0  0  0  0  0  0  0  0  0  0  0
  132.9180  130.9500   59.3300 C   0  0  0  0  0  0  0  0  0  0  0  0
  133.4910  130.6040   58.1060 C   0  0  0  0  0  0  0  0  0  0  0  0
  132.7200  130.5670   56.9480 C   0  0  0  0  0  0  0  0  0  0  0  0
  131.3620  130.8850   56.9960 C   0  0  0  0  0  0  0  0  0  0  0  0
  130.6620  130.7990   55.7780 N   0  0  0  0  0  0  0  0  0  0  0  0
  129.6590  131.5770   55.3160 C   0  0  0  0  0  0  0  0  0  0  0  0
  129.1990  132.5630   55.8930 O   0  0  0  0  0  0  0  0  0  0  0  0
  129.0790  131.1680   53.9610 C   0  0  0  0  0  0  0  0  0  0  0  0
  129.0230  129.3620   53.7530 S   0  0  0  0  0  0  0  0  0  0  0  0
  128.6700  128.6150   55.3330 C   0  0  0  0  0  0  0  0  0  0  0  0
  127.8090  129.3410   56.0860 N   0  0  0  0  0  0  0  0  0  0  0  0
  127.4410  128.8940   57.3140 C   0  0  0  0  0  0  0  0  0  0  0  0
  126.4900  129.7610   58.0850 C   0  0  0  0  0  0  0  0  0  0  0  0
  125.1270  129.8090   57.7470 C   0  0  0  0  0  0  0  0  0  0  0  0
  124.2380  130.6070   58.4620 C   0  0  0  0  0  0  0  0  0  0  0  0
  124.7020  131.3720   59.5280 C   0  0  0  0  0  0  0  0  0  0  0  0
  126.0470  131.3470   59.8800 C   0  0  0  0  0  0  0  0  0  0  0  0
  126.9320  130.5470   59.1620 C   0  0  0  0  0  0  0  0  0  0  0  0
  127.9540  127.6980   57.8240 C   0  0  0  0  0  0  0  0  0  0  0  0
  128.8640  126.9380   57.0750 C   0  0  0  0  0  0  0  0  0  0  0  0
  129.4090  125.6290   57.6780 C   0  0  0  0  0  0  0  0  0  0  0  0
  129.1200  124.5570   56.9360 F   0  0  0  0  0  0  0  0  0  0  0  0
  130.7380  125.6880   57.7870 F   0  0  0  0  0  0  0  0  0  0  0  0
  128.8840  125.4350   58.8890 F   0  0  0  0  0  0  0  0  0  0  0  0
  129.2500  127.4110   55.7960 C   0  0  0  0  0  0  0  0  0  0  0  0
  130.2560  126.6930   55.0100 C   0  0  0  0  0  0  0  0  0  0  0  0
  131.0520  126.1260   54.3900 N   0  0  0  0  0  0  0  0  0  0  0  0
  130.7760  131.2270   58.2250 C   0  0  0  0  0  0  0  0  0  0  0  0
  131.5500  131.2630   59.3810 C   0  0  0  0  0  0  0  0  0  0  0  0
  1  2  1  0
  2  3  1  0
  3  4  2  0
  4  5  1  0
  5  6  2  0
  6  7  1  0
  7  8  1  0
  8  9  2  0
  8 10  1  0
 10 11  1  0
 11 12  1  0
 12 13  2  0
 13 14  1  0
 14 15  1  0
 15 16  2  0
 16 17  1  0
 17 18  2  0
 18 19  1  0
 19 20  2  0
 14 21  2  0
 21 22  1  0
 22 23  1  0
 23 24  1  0
 23 25  1  0
 23 26  1  0
 22 27  2  0
 27 28  1  0
 28 29  3  0
  6 30  1  0
 30 31  2  0
 31  3  1  0
 27 12  1  0
 20 15  1  0
M  END
>  <Binding energies>  (71) 
[-8.36]

>  <Ligand effiencies>  (71) 
[-0.26125]

>  <Interactions>  (71) 
["H-B:TYR:531:OH:9767, V-B:MET:535:CE:9807, V-A:ASP:366:CG:3212, V-A:PRO:540:N:4884, V-A:ILE:538:CA:4860, V-A:ASP:366:CB:3211, V-A:ILE:538:CG2:4863, H-B:TYR:539:OH:9850, V-A:TYR:539:CD1:4873, V-A:PRO:540:CA:4883, H-A:TYR:531:OH:4795, H-A:TYR:539:N:4870, V-A:TYR:539:CZ:4877, V-A:PRO:540:CB:4885, V-A:TYR:539:CE1:4875, V-A:TYR:531:CZ:4794, V-B:ASP:366:CB:8183, V-B:ASP:366:CA:8181, V-A:LEU:363:CD1:3188, V-B:ASP:366:C:8179, V-B:TYR:539:CZ:9849, V-B:LYS:534:CE:9794, V-A:LEU:363:CA:3184, V-A:LEU:363:CB:3186, V-B:ILE:369:CG2:8208, V-A:ASN:362:CB:3175, H-A:LEU:363:N:3185"]

$$$$
3af_Grossjean_2025
     RDKit          3D

 29 31  0  0  0  0  0  0  0  0999 V2000
  126.7010  130.1180   54.3590 N   0  0  0  0  0  0  0  0  0  0  0  0
  127.4970  130.3160   55.1750 C   0  0  0  0  0  0  0  0  0  0  0  0
  128.5070  130.5670   56.2070 C   0  0  0  0  0  0  0  0  0  0  0  0
  129.8140  130.9810   55.8530 C   0  0  0  0  0  0  0  0  0  0  0  0
  130.2390  131.2390   54.3930 C   0  0  0  0  0  0  0  0  0  0  0  0
  131.5150  131.6160   54.2840 F   0  0  0  0  0  0  0  0  0  0  0  0
  130.0850  130.1280   53.6720 F   0  0  0  0  0  0  0  0  0  0  0  0
  129.4920  132.2080   53.8630 F   0  0  0  0  0  0  0  0  0  0  0  0
  130.7620  131.1560   56.8730 C   0  0  0  0  0  0  0  0  0  0  0  0
  130.4150  130.9220   58.2070 C   0  0  0  0  0  0  0  0  0  0  0  0
  131.3930  131.0750   59.3340 C   0  0  0  0  0  0  0  0  0  0  0  0
  132.7680  130.8870   59.1210 C   0  0  0  0  0  0  0  0  0  0  0  0
  133.6810  131.0300   60.1630 C   0  0  0  0  0  0  0  0  0  0  0  0
  133.2290  131.3640   61.4350 C   0  0  0  0  0  0  0  0  0  0  0  0
  131.8720  131.5590   61.6720 C   0  0  0  0  0  0  0  0  0  0  0  0
  130.9630  131.4160   60.6270 C   0  0  0  0  0  0  0  0  0  0  0  0
  129.1620  130.5210   58.5420 N   0  0  0  0  0  0  0  0  0  0  0  0
  128.2230  130.3680   57.5770 C   0  0  0  0  0  0  0  0  0  0  0  0
  126.6390  129.8530   58.2090 S   0  0  0  0  0  0  0  0  0  0  0  0
  126.5160  128.0490   58.0170 C   0  0  0  0  0  0  0  0  0  0  0  0
  127.8910  127.3820   58.0180 C   0  0  0  0  0  0  0  0  0  0  0  0
  128.3560  126.9680   59.0790 O   0  0  0  0  0  0  0  0  0  0  0  0
  128.5000  127.3100   56.8140 N   0  0  0  0  0  0  0  0  0  0  0  0
  129.7560  126.7730   56.4730 C   0  0  0  0  0  0  0  0  0  0  0  0
  130.7720  126.4210   57.3810 C   0  0  0  0  0  0  0  0  0  0  0  0
  131.9760  125.8980   56.9020 C   0  0  0  0  0  0  0  0  0  0  0  0
  132.1350  125.7400   55.5250 C   0  0  0  0  0  0  0  0  0  0  0  0
  131.1720  126.0710   54.6300 N   0  0  0  0  0  0  0  0  0  0  0  0
  130.0080  126.5780   55.1110 C   0  0  0  0  0  0  0  0  0  0  0  0
  1  2  3  0
  2  3  1  0
  3  4  2  0
  4  5  1  0
  5  6  1  0
  5  7  1  0
  5  8  1  0
  4  9  1  0
  9 10  2  0
 10 11  1  0
 11 12  2  0
 12 13  1  0
 13 14  2  0
 14 15  1  0
 15 16  2  0
 10 17  1  0
 17 18  2  0
 18 19  1  0
 19 20  1  0
 20 21  1  0
 21 22  2  0
 21 23  1  0
 23 24  1  0
 24 25  2  0
 25 26  1  0
 26 27  2  0
 27 28  1  0
 28 29  2  0
 18  3  1  0
 29 24  1  0
 16 11  1  0
M  END
>  <Binding energies>  (72) 
[-7.92]

>  <Ligand effiencies>  (72) 
[-0.264]

>  <Interactions>  (72) 
["H-B:TYR:531:OH:9767, V-B:TYR:531:CZ:9766, V-A:ASP:366:CG:3212, V-A:TYR:531:CE1:4792, V-A:ILE:538:CA:4860, V-A:MET:535:CB:4832, V-A:ASP:366:CB:3211, V-A:ILE:538:CG2:4863, V-A:ASN:370:CB:3244, H-B:TYR:539:OH:9850, V-A:PRO:540:CA:4883, H-A:TYR:531:OH:4795, V-A:TYR:539:CZ:4877, V-A:PRO:540:CB:4885, V-A:TYR:539:CE1:4875, V-A:TYR:531:CZ:4794, V-A:ILE:538:CB:4862, V-A:MET:535:CG:4833, V-B:TYR:531:CE1:9764, H-B:LYS:534:NZ:9795, V-A:PRO:540:C:4881, V-A:GLU:543:CD:4908, H-A:TYR:539:OH:4878, V-A:ILE:538:C:4858, V-A:TYR:531:CE2:4793, V-A:LEU:363:CA:3184, V-A:ASN:362:CB:3175, V-A:ASN:362:C:3171, V-A:ALA:541:CA:4890, V-A:VAL:537:C:4850"]

$$$$
3ag_Grossjean_2025
     RDKit          3D

 30 32  0  0  0  0  0  0  0  0999 V2000
  127.0050  126.2300   58.6230 N   0  0  0  0  0  0  0  0  0  0  0  0
  127.6060  125.2920   58.9390 C   0  0  0  0  0  0  0  0  0  0  0  0
  128.3620  124.1030   59.3410 C   0  0  0  0  0  0  0  0  0  0  0  0
  127.8240  123.1830   60.2730 C   0  0  0  0  0  0  0  0  0  0  0  0
  126.4110  123.3350   60.8710 C   0  0  0  0  0  0  0  0  0  0  0  0
  125.4470  123.2290   59.9540 F   0  0  0  0  0  0  0  0  0  0  0  0
  126.2020  122.3890   61.7860 F   0  0  0  0  0  0  0  0  0  0  0  0
  126.2820  124.5310   61.4480 F   0  0  0  0  0  0  0  0  0  0  0  0
  128.6090  122.0890   60.6670 C   0  0  0  0  0  0  0  0  0  0  0  0
  129.9000  121.9250   60.1540 C   0  0  0  0  0  0  0  0  0  0  0  0
  130.7830  120.7770   60.5410 C   0  0  0  0  0  0  0  0  0  0  0  0
  130.2430  119.6280   61.1410 C   0  0  0  0  0  0  0  0  0  0  0  0
  131.0570  118.5590   61.5040 C   0  0  0  0  0  0  0  0  0  0  0  0
  132.4270  118.6240   61.2700 C   0  0  0  0  0  0  0  0  0  0  0  0
  132.9880  119.7520   60.6790 C   0  0  0  0  0  0  0  0  0  0  0  0
  132.1710  120.8200   60.3200 C   0  0  0  0  0  0  0  0  0  0  0  0
  130.4080  122.8020   59.2500 N   0  0  0  0  0  0  0  0  0  0  0  0
  129.6600  123.8550   58.8410 C   0  0  0  0  0  0  0  0  0  0  0  0
  130.4840  124.8940   57.6550 S   0  0  0  0  0  0  0  0  0  0  0  0
  129.3680  125.0830   56.2330 C   0  0  0  0  0  0  0  0  0  0  0  0
  129.8600  126.1470   55.2500 C   0  0  0  0  0  0  0  0  0  0  0  0
  131.0380  126.1480   54.8850 O   0  0  0  0  0  0  0  0  0  0  0  0
  128.9470  127.0380   54.8270 N   0  0  0  0  0  0  0  0  0  0  0  0
  129.1910  128.1120   53.8640 C   0  0  0  0  0  0  0  0  0  0  0  0
  129.1590  129.5100   54.4710 C   0  0  0  0  0  0  0  0  0  0  0  0
  129.1420  130.6290   53.6340 C   0  0  0  0  0  0  0  0  0  0  0  0
  129.0820  131.9080   54.1840 C   0  0  0  0  0  0  0  0  0  0  0  0
  129.0300  132.0610   55.5680 C   0  0  0  0  0  0  0  0  0  0  0  0
  129.0310  130.9500   56.4070 C   0  0  0  0  0  0  0  0  0  0  0  0
  129.0900  129.6710   55.8580 C   0  0  0  0  0  0  0  0  0  0  0  0
  1  2  3  0
  2  3  1  0
  3  4  2  0
  4  5  1  0
  5  6  1  0
  5  7  1  0
  5  8  1  0
  4  9  1  0
  9 10  2  0
 10 11  1  0
 11 12  2  0
 12 13  1  0
 13 14  2  0
 14 15  1  0
 15 16  2  0
 10 17  1  0
 17 18  2  0
 18 19  1  0
 19 20  1  0
 20 21  1  0
 21 22  2  0
 21 23  1  0
 23 24  1  0
 24 25  1  0
 25 26  2  0
 26 27  1  0
 27 28  2  0
 28 29  1  0
 29 30  2  0
 18  3  1  0
 30 25  1  0
 16 11  1  0
M  END
>  <Binding energies>  (73) 
[-8.12]

>  <Ligand effiencies>  (73) 
[-0.2619354838709677]

>  <Interactions>  (73) 
["V-B:PRO:540:CB:9857, H-B:TYR:531:OH:9767, V-B:MET:535:CE:9807, V-A:ILE:369:CG2:3236, V-B:TYR:539:CD2:9846, V-A:LEU:475:CD1:4257, V-B:PRO:540:CA:9855, V-B:PRO:540:C:9853, V-B:ALA:541:CB:9864, V-B:TYR:539:CE2:9848, V-B:TYR:539:C:9839, V-A:PRO:482:CG:4326, V-A:PRO:482:CB:4325, V-A:ILE:538:CA:4860, V-A:TYR:539:CG:4872, V-A:ILE:538:CG2:4863, H-B:TYR:539:OH:9850, V-A:TYR:539:CD1:4873, H-A:TYR:531:OH:4795, V-A:TYR:539:CZ:4877, V-A:TYR:539:CE1:4875, V-A:ILE:538:CB:4862, V-A:MET:535:CG:4833, V-B:GLU:543:CD:9880, H-B:MET:535:SD:9806, V-B:LYS:534:CE:9794, V-B:ALA:541:CA:9862, V-A:MET:535:CE:4835, V-B:ALA:541:C:9860"]

$$$$
3bc_Grossjean_2025
     RDKit          3D

 28 30  0  0  0  0  0  0  0  0999 V2000
  132.6530  131.7500   61.6690 C   0  0  0  0  0  0  0  0  0  0  0  0
  133.4000  131.1180   60.6360 O   0  0  0  0  0  0  0  0  0  0  0  0
  132.8330  130.9820   59.3820 C   0  0  0  0  0  0  0  0  0  0  0  0
  131.4750  131.2840   59.2780 C   0  0  0  0  0  0  0  0  0  0  0  0
  130.8160  131.1760   58.0560 C   0  0  0  0  0  0  0  0  0  0  0  0
  131.5090  130.7560   56.9190 C   0  0  0  0  0  0  0  0  0  0  0  0
  130.7620  130.6900   55.7280 N   0  0  0  0  0  0  0  0  0  0  0  0
  129.7880  131.5130   55.2860 C   0  0  0  0  0  0  0  0  0  0  0  0
  129.4070  132.5280   55.8730 O   0  0  0  0  0  0  0  0  0  0  0  0
  129.1820  131.1210   53.9310 C   0  0  0  0  0  0  0  0  0  0  0  0
  128.7920  129.3490   53.7390 S   0  0  0  0  0  0  0  0  0  0  0  0
  128.5550  128.6660   55.3640 C   0  0  0  0  0  0  0  0  0  0  0  0
  127.6190  129.3160   56.0990 N   0  0  0  0  0  0  0  0  0  0  0  0
  127.3370  128.8970   57.3600 C   0  0  0  0  0  0  0  0  0  0  0  0
  126.3050  129.6840   58.1120 C   0  0  0  0  0  0  0  0  0  0  0  0
  126.6010  130.2370   59.3670 C   0  0  0  0  0  0  0  0  0  0  0  0
  125.6480  130.9690   60.0720 C   0  0  0  0  0  0  0  0  0  0  0  0
  124.3820  131.1550   59.5280 C   0  0  0  0  0  0  0  0  0  0  0  0
  124.0610  130.6150   58.2880 C   0  0  0  0  0  0  0  0  0  0  0  0
  125.0170  129.8830   57.5870 C   0  0  0  0  0  0  0  0  0  0  0  0
  127.9990  127.7980   57.9170 C   0  0  0  0  0  0  0  0  0  0  0  0
  128.9510  127.1010   57.1640 C   0  0  0  0  0  0  0  0  0  0  0  0
  129.6370  125.8970   57.8070 C   0  0  0  0  0  0  0  0  0  0  0  0
  129.2390  127.5280   55.8490 C   0  0  0  0  0  0  0  0  0  0  0  0
  130.1950  126.7850   55.0260 C   0  0  0  0  0  0  0  0  0  0  0  0
  130.9510  126.1960   54.3780 N   0  0  0  0  0  0  0  0  0  0  0  0
  132.8770  130.4630   57.0120 C   0  0  0  0  0  0  0  0  0  0  0  0
  133.5330  130.5720   58.2360 C   0  0  0  0  0  0  0  0  0  0  0  0
  1  2  1  0
  2  3  1  0
  3  4  2  0
  4  5  1  0
  5  6  2  0
  6  7  1  0
  7  8  1  0
  8  9  2  0
  8 10  1  0
 10 11  1  0
 11 12  1  0
 12 13  2  0
 13 14  1  0
 14 15  1  0
 15 16  2  0
 16 17  1  0
 17 18  2  0
 18 19  1  0
 19 20  2  0
 14 21  2  0
 21 22  1  0
 22 23  1  0
 22 24  2  0
 24 25  1  0
 25 26  3  0
  6 27  1  0
 27 28  2  0
 28  3  1  0
 24 12  1  0
 20 15  1  0
M  END
>  <Binding energies>  (74) 
[-8.74]

>  <Ligand effiencies>  (74) 
[-0.30137931034482757]

>  <Interactions>  (74) 
["H-B:TYR:531:OH:9767, V-A:ASP:366:CG:3212, V-A:PRO:540:N:4884, V-A:ASP:366:CB:3211, V-A:ILE:538:CG2:4863, H-B:TYR:539:OH:9850, V-A:PRO:540:CA:4883, H-A:TYR:531:OH:4795, H-A:TYR:539:N:4870, V-A:TYR:539:CZ:4877, V-A:PRO:540:CB:4885, V-A:TYR:539:CE1:4875, V-A:TYR:531:CZ:4794, V-B:ASP:366:CB:8183, V-A:PRO:540:C:4881, V-B:ASP:366:CA:8181, V-A:LEU:363:CD1:3188, V-B:ASP:366:C:8179, V-B:LYS:534:CE:9794, V-A:LEU:363:CA:3184, V-A:LEU:363:CB:3186, V-B:ILE:369:CG2:8208, V-A:ASN:362:CB:3175, V-B:ILE:369:CB:8207, V-A:ALA:541:C:4888"]

$$$$
3bd_Grossjean_2025
     RDKit          3D

 26 28  0  0  0  0  0  0  0  0999 V2000
  129.4560  125.7200   57.7170 C   0  0  0  0  0  0  0  0  0  0  0  0
  128.8980  127.0090   57.1180 C   0  0  0  0  0  0  0  0  0  0  0  0
  127.9870  127.7520   57.8770 C   0  0  0  0  0  0  0  0  0  0  0  0
  127.4490  128.9370   57.3620 C   0  0  0  0  0  0  0  0  0  0  0  0
  126.4730  129.7830   58.1240 C   0  0  0  0  0  0  0  0  0  0  0  0
  126.8940  130.5580   59.2160 C   0  0  0  0  0  0  0  0  0  0  0  0
  125.9920  131.3440   59.9290 C   0  0  0  0  0  0  0  0  0  0  0  0
  124.6510  131.3640   59.5590 C   0  0  0  0  0  0  0  0  0  0  0  0
  124.2070  130.6030   58.4830 C   0  0  0  0  0  0  0  0  0  0  0  0
  125.1120  129.8190   57.7730 C   0  0  0  0  0  0  0  0  0  0  0  0
  127.8120  129.3880   56.1320 N   0  0  0  0  0  0  0  0  0  0  0  0
  128.6930  128.6800   55.3820 C   0  0  0  0  0  0  0  0  0  0  0  0
  129.0770  129.3720   53.7810 S   0  0  0  0  0  0  0  0  0  0  0  0
  129.3170  131.1630   53.9850 C   0  0  0  0  0  0  0  0  0  0  0  0
  129.8610  131.5140   55.3710 C   0  0  0  0  0  0  0  0  0  0  0  0
  129.4190  132.5050   55.9530 O   0  0  0  0  0  0  0  0  0  0  0  0
  130.8190  130.6910   55.8490 N   0  0  0  0  0  0  0  0  0  0  0  0
  131.4870  130.7360   57.0880 C   0  0  0  0  0  0  0  0  0  0  0  0
  130.6880  130.9730   58.2090 C   0  0  0  0  0  0  0  0  0  0  0  0
  131.2610  131.0420   59.4760 C   0  0  0  0  0  0  0  0  0  0  0  0
  132.6360  130.8850   59.6220 C   0  0  0  0  0  0  0  0  0  0  0  0
  133.4450  130.6630   58.5100 C   0  0  0  0  0  0  0  0  0  0  0  0
  132.8750  130.5910   57.2420 C   0  0  0  0  0  0  0  0  0  0  0  0
  129.2660  127.4730   55.8370 C   0  0  0  0  0  0  0  0  0  0  0  0
  130.2190  126.7180   55.0170 C   0  0  0  0  0  0  0  0  0  0  0  0
  130.9720  126.1230   54.3710 N   0  0  0  0  0  0  0  0  0  0  0  0
  1  2  1  0
  2  3  2  0
  3  4  1  0
  4  5  1  0
  5  6  2  0
  6  7  1  0
  7  8  2  0
  8  9  1  0
  9 10  2  0
  4 11  2  0
 11 12  1  0
 12 13  1  0
 13 14  1  0
 14 15  1  0
 15 16  2  0
 15 17  1  0
 17 18  1  0
 18 19  2  0
 19 20  1  0
 20 21  2  0
 21 22  1  0
 22 23  2  0
 12 24  2  0
 24 25  1  0
 25 26  3  0
 24  2  1  0
 10  5  1  0
 23 18  1  0
M  END
>  <Binding energies>  (75) 
[-8.6]

>  <Ligand effiencies>  (75) 
[-0.3185185185185185]

>  <Interactions>  (75) 
["H-B:TYR:531:OH:9767, V-A:ASP:366:CG:3212, V-A:ASP:366:CB:3211, V-A:ILE:538:CG2:4863, H-B:TYR:539:OH:9850, V-A:TYR:539:CD1:4873, V-A:PRO:540:CA:4883, H-A:TYR:531:OH:4795, H-A:TYR:539:N:4870, V-A:TYR:539:CZ:4877, V-A:PRO:540:CB:4885, V-A:TYR:539:CE1:4875, V-B:ASP:366:CB:8183, V-B:ASP:366:CA:8181, V-A:LEU:363:CD1:3188, V-B:ASP:366:C:8179, V-A:LEU:363:CA:3184, V-A:LEU:363:CB:3186, V-B:ILE:369:CG2:8208"]

$$$$
3be_Grossjean_2025
     RDKit          3D

 27 29  0  0  0  0  0  0  0  0999 V2000
  130.7480  131.3270   60.6530 C   0  0  0  0  0  0  0  0  0  0  0  0
  131.5370  131.0560   59.3870 C   0  0  0  0  0  0  0  0  0  0  0  0
  132.9230  130.8820   59.4120 C   0  0  0  0  0  0  0  0  0  0  0  0
  133.5840  130.6390   58.2080 C   0  0  0  0  0  0  0  0  0  0  0  0
  132.8520  130.5740   57.0200 C   0  0  0  0  0  0  0  0  0  0  0  0
  131.4650  130.7530   57.0660 C   0  0  0  0  0  0  0  0  0  0  0  0
  130.7850  130.6860   55.8350 N   0  0  0  0  0  0  0  0  0  0  0  0
  129.8650  131.5360   55.3310 C   0  0  0  0  0  0  0  0  0  0  0  0
  129.4560  132.5470   55.9050 O   0  0  0  0  0  0  0  0  0  0  0  0
  129.3340  131.1570   53.9390 C   0  0  0  0  0  0  0  0  0  0  0  0
  128.8810  129.4010   53.7330 S   0  0  0  0  0  0  0  0  0  0  0  0
  128.6270  128.7030   55.3500 C   0  0  0  0  0  0  0  0  0  0  0  0
  127.6990  129.3620   56.0870 N   0  0  0  0  0  0  0  0  0  0  0  0
  127.4010  128.9340   57.3420 C   0  0  0  0  0  0  0  0  0  0  0  0
  126.3730  129.7270   58.0950 C   0  0  0  0  0  0  0  0  0  0  0  0
  125.0800  129.9010   57.5770 C   0  0  0  0  0  0  0  0  0  0  0  0
  124.1230  130.6370   58.2690 C   0  0  0  0  0  0  0  0  0  0  0  0
  124.4470  131.2130   59.4920 C   0  0  0  0  0  0  0  0  0  0  0  0
  125.7210  131.0580   60.0270 C   0  0  0  0  0  0  0  0  0  0  0  0
  126.6760  130.3210   59.3310 C   0  0  0  0  0  0  0  0  0  0  0  0
  128.0430  127.8190   57.8910 C   0  0  0  0  0  0  0  0  0  0  0  0
  128.9850  127.1130   57.1360 C   0  0  0  0  0  0  0  0  0  0  0  0
  129.6490  125.8920   57.7700 C   0  0  0  0  0  0  0  0  0  0  0  0
  129.2870  127.5470   55.8270 C   0  0  0  0  0  0  0  0  0  0  0  0
  130.2290  126.7920   54.9990 C   0  0  0  0  0  0  0  0  0  0  0  0
  130.9740  126.1930   54.3470 N   0  0  0  0  0  0  0  0  0  0  0  0
  130.8130  130.9950   58.2410 N   0  0  0  0  0  0  0  0  0  0  0  0
  1  2  1  0
  2  3  2  0
  3  4  1  0
  4  5  2  0
  5  6  1  0
  6  7  1  0
  7  8  1  0
  8  9  2  0
  8 10  1  0
 10 11  1  0
 11 12  1  0
 12 13  2  0
 13 14  1  0
 14 15  1  0
 15 16  2  0
 16 17  1  0
 17 18  2  0
 18 19  1  0
 19 20  2  0
 14 21  2  0
 21 22  1  0
 22 23  1  0
 22 24  2  0
 24 25  1  0
 25 26  3  0
  6 27  2  0
 27  2  1  0
 24 12  1  0
 20 15  1  0
M  END
>  <Binding energies>  (76) 
[-8.72]

>  <Ligand effiencies>  (76) 
[-0.31142857142857144]

>  <Interactions>  (76) 
["H-B:TYR:531:OH:9767, V-A:ASP:366:CG:3212, V-A:ASP:366:CB:3211, V-A:ILE:538:CG2:4863, H-B:TYR:539:OH:9850, V-A:PRO:540:CA:4883, H-A:TYR:531:OH:4795, H-A:TYR:539:N:4870, V-A:TYR:539:CZ:4877, V-A:PRO:540:CB:4885, V-A:TYR:539:CE1:4875, V-A:TYR:531:CZ:4794, V-A:ILE:538:CB:4862, V-B:ASP:366:CB:8183, V-B:ASP:366:CA:8181, V-A:LEU:363:CD1:3188, V-B:ASP:366:C:8179, V-A:LEU:363:CA:3184, V-A:LEU:363:CB:3186, V-B:ILE:369:CG2:8208, V-B:ILE:369:CB:8207"]

$$$$
3bf_Grossjean_2025
     RDKit          3D

 26 28  0  0  0  0  0  0  0  0999 V2000
  130.2430  131.1020   54.1450 C   0  0  0  0  0  0  0  0  0  0  0  0
  129.8130  130.8320   55.5850 C   0  0  0  0  0  0  0  0  0  0  0  0
  130.7640  130.9920   56.5980 C   0  0  0  0  0  0  0  0  0  0  0  0
  130.4080  130.7690   57.9330 C   0  0  0  0  0  0  0  0  0  0  0  0
  131.3740  130.9450   59.0660 C   0  0  0  0  0  0  0  0  0  0  0  0
  132.7560  130.8240   58.8550 C   0  0  0  0  0  0  0  0  0  0  0  0
  133.6590  130.9860   59.9020 C   0  0  0  0  0  0  0  0  0  0  0  0
  133.1890  131.2710   61.1800 C   0  0  0  0  0  0  0  0  0  0  0  0
  131.8240  131.3950   61.4160 C   0  0  0  0  0  0  0  0  0  0  0  0
  130.9240  131.2310   60.3660 C   0  0  0  0  0  0  0  0  0  0  0  0
  129.1440  130.3950   58.2640 N   0  0  0  0  0  0  0  0  0  0  0  0
  128.2180  130.2110   57.2910 C   0  0  0  0  0  0  0  0  0  0  0  0
  126.6230  129.7160   57.9100 S   0  0  0  0  0  0  0  0  0  0  0  0
  126.6440  127.9070   58.1460 C   0  0  0  0  0  0  0  0  0  0  0  0
  128.0300  127.2530   58.0540 C   0  0  0  0  0  0  0  0  0  0  0  0
  128.5580  126.7540   59.0500 O   0  0  0  0  0  0  0  0  0  0  0  0
  128.5730  127.2540   56.8170 N   0  0  0  0  0  0  0  0  0  0  0  0
  129.8190  126.7510   56.3990 C   0  0  0  0  0  0  0  0  0  0  0  0
  130.8320  126.6740   57.3600 C   0  0  0  0  0  0  0  0  0  0  0  0
  132.0870  126.1720   57.0110 C   0  0  0  0  0  0  0  0  0  0  0  0
  132.2930  125.7510   55.6970 C   0  0  0  0  0  0  0  0  0  0  0  0
  131.3270  125.8040   54.7460 N   0  0  0  0  0  0  0  0  0  0  0  0
  130.1110  126.2950   55.1010 C   0  0  0  0  0  0  0  0  0  0  0  0
  128.5010  130.4370   55.9260 C   0  0  0  0  0  0  0  0  0  0  0  0
  127.4770  130.3110   54.8860 C   0  0  0  0  0  0  0  0  0  0  0  0
  126.6690  130.2110   54.0630 N   0  0  0  0  0  0  0  0  0  0  0  0
  1  2  1  0
  2  3  2  0
  3  4  1  0
  4  5  1  0
  5  6  2  0
  6  7  1  0
  7  8  2  0
  8  9  1  0
  9 10  2  0
  4 11  2  0
 11 12  1  0
 12 13  1  0
 13 14  1  0
 14 15  1  0
 15 16  2  0
 15 17  1  0
 17 18  1  0
 18 19  2  0
 19 20  1  0
 20 21  2  0
 21 22  1  0
 22 23  2  0
 12 24  2  0
 24 25  1  0
 25 26  3  0
 24  2  1  0
 10  5  1  0
 23 18  1  0
M  END
>  <Binding energies>  (77) 
[-8.29]

>  <Ligand effiencies>  (77) 
[-0.307037037037037]

>  <Interactions>  (77) 
["H-B:TYR:531:OH:9767, V-B:MET:535:CE:9807, V-B:TYR:531:CZ:9766, V-A:ASP:366:CG:3212, V-A:TYR:531:CE1:4792, V-A:ASP:366:CB:3211, V-A:ILE:538:CG2:4863, V-A:ASN:370:CB:3244, H-B:TYR:539:OH:9850, V-A:PRO:540:CA:4883, H-A:TYR:531:OH:4795, V-A:TYR:539:CZ:4877, V-A:PRO:540:CB:4885, V-A:TYR:539:CE1:4875, V-A:TYR:531:CZ:4794, V-A:ILE:538:CB:4862, V-B:TYR:531:CE1:9764, H-B:LYS:534:NZ:9795, V-A:PRO:540:C:4881, V-A:GLU:543:CD:4908, H-A:TYR:539:OH:4878, V-A:LEU:363:CA:3184, V-A:ASN:362:CB:3175, V-A:ASN:362:C:3171"]

$$$$
3bg_Grossjean_2025
     RDKit          3D

 27 29  0  0  0  0  0  0  0  0999 V2000
  129.5260  125.7500   57.8160 C   0  0  0  0  0  0  0  0  0  0  0  0
  128.9340  127.0150   57.1980 C   0  0  0  0  0  0  0  0  0  0  0  0
  128.0180  127.7540   57.9530 C   0  0  0  0  0  0  0  0  0  0  0  0
  127.4570  128.9250   57.4270 C   0  0  0  0  0  0  0  0  0  0  0  0
  126.4760  129.7710   58.1910 C   0  0  0  0  0  0  0  0  0  0  0  0
  126.8840  130.5310   59.3000 C   0  0  0  0  0  0  0  0  0  0  0  0
  125.9830  131.3300   59.9980 C   0  0  0  0  0  0  0  0  0  0  0  0
  124.6520  131.3800   59.5990 C   0  0  0  0  0  0  0  0  0  0  0  0
  124.2160  130.6290   58.5130 C   0  0  0  0  0  0  0  0  0  0  0  0
  125.1210  129.8310   57.8190 C   0  0  0  0  0  0  0  0  0  0  0  0
  127.8090  129.3640   56.1890 N   0  0  0  0  0  0  0  0  0  0  0  0
  128.6990  128.6600   55.4440 C   0  0  0  0  0  0  0  0  0  0  0  0
  129.1010  129.3620   53.8520 S   0  0  0  0  0  0  0  0  0  0  0  0
  128.9240  131.1730   53.9650 C   0  0  0  0  0  0  0  0  0  0  0  0
  129.8650  131.7740   55.0130 C   0  0  0  0  0  0  0  0  0  0  0  0
  129.5720  132.8360   55.5640 O   0  0  0  0  0  0  0  0  0  0  0  0
  130.9990  131.0950   55.2590 N   0  0  0  0  0  0  0  0  0  0  0  0
  132.1140  131.5710   56.0770 C   0  0  0  0  0  0  0  0  0  0  0  0
  131.8540  131.3640   57.5640 C   0  0  0  0  0  0  0  0  0  0  0  0
  130.5620  131.5180   58.0780 C   0  0  0  0  0  0  0  0  0  0  0  0
  130.3250  131.3390   59.4370 C   0  0  0  0  0  0  0  0  0  0  0  0
  131.3800  130.9920   60.2800 C   0  0  0  0  0  0  0  0  0  0  0  0
  132.6660  130.8170   59.7740 C   0  0  0  0  0  0  0  0  0  0  0  0
  132.9020  130.9970   58.4130 C   0  0  0  0  0  0  0  0  0  0  0  0
  129.2860  127.4650   55.9080 C   0  0  0  0  0  0  0  0  0  0  0  0
  130.2490  126.7160   55.0950 C   0  0  0  0  0  0  0  0  0  0  0  0
  131.0090  126.1240   54.4550 N   0  0  0  0  0  0  0  0  0  0  0  0
  1  2  1  0
  2  3  2  0
  3  4  1  0
  4  5  1  0
  5  6  2  0
  6  7  1  0
  7  8  2  0
  8  9  1  0
  9 10  2  0
  4 11  2  0
 11 12  1  0
 12 13  1  0
 13 14  1  0
 14 15  1  0
 15 16  2  0
 15 17  1  0
 17 18  1  0
 18 19  1  0
 19 20  2  0
 20 21  1  0
 21 22  2  0
 22 23  1  0
 23 24  2  0
 12 25  2  0
 25 26  1  0
 26 27  3  0
 25  2  1  0
 10  5  1  0
 24 19  1  0
M  END
>  <Binding energies>  (78) 
[-8.8]

>  <Ligand effiencies>  (78) 
[-0.31428571428571433]

>  <Interactions>  (78) 
["H-B:TYR:531:OH:9767, V-A:ASP:366:CG:3212, V-A:PRO:540:N:4884, V-A:ILE:538:CA:4860, V-A:ILE:538:CG2:4863, H-B:TYR:539:OH:9850, V-A:TYR:539:CD1:4873, V-A:PRO:540:CA:4883, H-A:TYR:531:OH:4795, H-A:TYR:539:N:4870, V-A:PRO:540:CB:4885, V-A:TYR:539:CE1:4875, V-A:TYR:531:CZ:4794, V-A:ILE:538:CB:4862, V-B:ASP:366:CB:8183, V-B:ASP:366:CA:8181, V-A:TYR:539:C:4867, V-A:LEU:363:CD1:3188, V-B:ASP:366:C:8179, V-B:LYS:534:CE:9794, V-A:TYR:531:CE2:4793, V-A:LEU:363:CA:3184, V-B:ILE:369:CG2:8208"]

$$$$
3ca_Grossjean_2025
     RDKit          3D

 31 33  0  0  0  0  0  0  0  0999 V2000
  127.3970  128.0770   67.1140 C   0  0  0  0  0  0  0  0  0  0  0  0
  128.7500  128.6730   67.5130 C   0  0  0  0  0  0  0  0  0  0  0  0
  129.2760  127.9540   68.6220 O   0  0  0  0  0  0  0  0  0  0  0  0
  129.4260  126.6070   68.5770 C   0  0  0  0  0  0  0  0  0  0  0  0
  129.1240  125.8560   69.5100 O   0  0  0  0  0  0  0  0  0  0  0  0
  129.9920  126.1160   67.2750 C   0  0  0  0  0  0  0  0  0  0  0  0
  131.3220  126.4110   66.9520 C   0  0  0  0  0  0  0  0  0  0  0  0
  131.8750  125.9700   65.7530 C   0  0  0  0  0  0  0  0  0  0  0  0
  131.1070  125.2330   64.8490 C   0  0  0  0  0  0  0  0  0  0  0  0
  131.7640  124.8360   63.6680 N   0  0  0  0  0  0  0  0  0  0  0  0
  133.0850  124.7480   63.4050 C   0  0  0  0  0  0  0  0  0  0  0  0
  133.9890  124.9940   64.2030 O   0  0  0  0  0  0  0  0  0  0  0  0
  133.4410  124.2770   61.9900 C   0  0  0  0  0  0  0  0  0  0  0  0
  132.3650  122.9330   61.3900 S   0  0  0  0  0  0  0  0  0  0  0  0
  131.5050  123.4570   59.9130 C   0  0  0  0  0  0  0  0  0  0  0  0
  132.2420  124.1740   59.0270 N   0  0  0  0  0  0  0  0  0  0  0  0
  131.6630  124.5860   57.8780 C   0  0  0  0  0  0  0  0  0  0  0  0
  132.5560  125.3640   56.9330 C   0  0  0  0  0  0  0  0  0  0  0  0
  130.3310  124.3170   57.5720 C   0  0  0  0  0  0  0  0  0  0  0  0
  129.5440  123.5950   58.4790 C   0  0  0  0  0  0  0  0  0  0  0  0
  128.1170  123.3420   58.1140 C   0  0  0  0  0  0  0  0  0  0  0  0
  127.1050  124.1660   58.6230 C   0  0  0  0  0  0  0  0  0  0  0  0
  125.7720  123.9330   58.2960 C   0  0  0  0  0  0  0  0  0  0  0  0
  125.4440  122.8680   57.4600 C   0  0  0  0  0  0  0  0  0  0  0  0
  126.4370  122.0350   56.9520 C   0  0  0  0  0  0  0  0  0  0  0  0
  127.7690  122.2710   57.2810 C   0  0  0  0  0  0  0  0  0  0  0  0
  130.1450  123.1410   59.6810 C   0  0  0  0  0  0  0  0  0  0  0  0
  129.3850  122.3370   60.6440 C   0  0  0  0  0  0  0  0  0  0  0  0
  128.7850  121.7020   61.4030 N   0  0  0  0  0  0  0  0  0  0  0  0
  129.7760  124.9260   65.1680 C   0  0  0  0  0  0  0  0  0  0  0  0
  129.2260  125.3660   66.3690 C   0  0  0  0  0  0  0  0  0  0  0  0
  1  2  1  0
  2  3  1  0
  3  4  1  0
  4  5  2  0
  4  6  1  0
  6  7  2  0
  7  8  1  0
  8  9  2  0
  9 10  1  0
 10 11  1  0
 11 12  2  0
 11 13  1  0
 13 14  1  0
 14 15  1  0
 15 16  2  0
 16 17  1  0
 17 18  1  0
 17 19  2  0
 19 20  1  0
 20 21  1  0
 21 22  2  0
 22 23  1  0
 23 24  2  0
 24 25  1  0
 25 26  2  0
 20 27  2  0
 27 28  1  0
 28 29  3  0
  9 30  1  0
 30 31  2  0
 31  6  1  0
 27 15  1  0
 26 21  1  0
M  END
>  <Binding energies>  (79) 
[-8.8]

>  <Ligand effiencies>  (79) 
[-0.275]

>  <Interactions>  (79) 
["H-B:ALA:541:N:9863, V-B:PRO:540:CB:9857, V-B:MET:535:CE:9807, V-B:TYR:539:CD2:9846, V-B:PRO:540:N:9856, V-B:PRO:540:CA:9855, V-B:TYR:539:CE2:9848, V-B:TYR:539:C:9839, V-B:LEU:363:CD1:8160, V-A:ASP:366:CG:3212, H-A:GLY:454:N:4049, V-B:PRO:540:CD:9859, V-A:ASP:366:CA:3209, V-A:ASP:366:CB:3211, V-A:ASP:366:C:3207, V-A:GLU:543:CG:4907, V-A:GLU:543:CD:4908, V-B:TYR:539:CZ:9849, H-A:ARG:545:NH2:4928, V-B:TYR:539:CG:9844, V-B:HIS:456:CE1:9041, V-A:HIS:456:CE1:4069, V-B:GLU:543:CB:9878, V-B:GLU:543:CG:9879, V-B:GLU:543:CD:9880, H-A:ARG:545:NE:4924, V-A:ARG:545:CZ:4926, H-A:ARG:545:NH1:4927, V-A:GLU:543:CB:4906"]

$$$$
3ce_Grossjean_2025
     RDKit          3D

 27 29  0  0  0  0  0  0  0  0999 V2000
  130.8000  131.2870   60.7570 C   0  0  0  0  0  0  0  0  0  0  0  0
  131.5810  131.0460   59.4790 C   0  0  0  0  0  0  0  0  0  0  0  0
  132.9650  130.8570   59.4920 C   0  0  0  0  0  0  0  0  0  0  0  0
  133.6160  130.6300   58.2800 C   0  0  0  0  0  0  0  0  0  0  0  0
  132.8760  130.5990   57.0950 C   0  0  0  0  0  0  0  0  0  0  0  0
  131.4940  130.8060   57.1510 C   0  0  0  0  0  0  0  0  0  0  0  0
  130.7990  130.7430   55.9310 N   0  0  0  0  0  0  0  0  0  0  0  0
  129.9210  131.6370   55.4230 C   0  0  0  0  0  0  0  0  0  0  0  0
  129.5860  132.6880   55.9710 O   0  0  0  0  0  0  0  0  0  0  0  0
  129.3290  131.2820   54.0600 C   0  0  0  0  0  0  0  0  0  0  0  0
  129.3560  129.4910   53.7530 S   0  0  0  0  0  0  0  0  0  0  0  0
  128.7920  128.7330   55.2600 C   0  0  0  0  0  0  0  0  0  0  0  0
  127.8940  129.4790   55.9480 N   0  0  0  0  0  0  0  0  0  0  0  0
  127.3900  128.9830   57.1020 C   0  0  0  0  0  0  0  0  0  0  0  0
  126.3810  129.8630   57.8140 C   0  0  0  0  0  0  0  0  0  0  0  0
  127.7690  127.7450   57.6140 C   0  0  0  0  0  0  0  0  0  0  0  0
  128.7160  126.9710   56.9300 C   0  0  0  0  0  0  0  0  0  0  0  0
  129.1090  125.6610   57.5310 C   0  0  0  0  0  0  0  0  0  0  0  0
  130.3190  125.5410   58.2250 C   0  0  0  0  0  0  0  0  0  0  0  0
  130.6950  124.3220   58.7830 C   0  0  0  0  0  0  0  0  0  0  0  0
  129.8640  123.2140   58.6430 C   0  0  0  0  0  0  0  0  0  0  0  0
  128.6620  123.3140   57.9470 C   0  0  0  0  0  0  0  0  0  0  0  0
  128.2890  124.5340   57.3910 C   0  0  0  0  0  0  0  0  0  0  0  0
  129.2440  127.4710   55.7130 C   0  0  0  0  0  0  0  0  0  0  0  0
  130.2270  126.7000   54.9460 C   0  0  0  0  0  0  0  0  0  0  0  0
  131.0020  126.0890   54.3410 N   0  0  0  0  0  0  0  0  0  0  0  0
  130.8490  131.0210   58.3360 N   0  0  0  0  0  0  0  0  0  0  0  0
  1  2  1  0
  2  3  2  0
  3  4  1  0
  4  5  2  0
  5  6  1  0
  6  7  1  0
  7  8  1  0
  8  9  2  0
  8 10  1  0
 10 11  1  0
 11 12  1  0
 12 13  2  0
 13 14  1  0
 14 15  1  0
 14 16  2  0
 16 17  1  0
 17 18  1  0
 18 19  2  0
 19 20  1  0
 20 21  2  0
 21 22  1  0
 22 23  2  0
 17 24  2  0
 24 25  1  0
 25 26  3  0
  6 27  2  0
 27  2  1  0
 24 12  1  0
 23 18  1  0
M  END
>  <Binding energies>  (80) 
[-8.41]

>  <Ligand effiencies>  (80) 
[-0.3003571428571429]

>  <Interactions>  (80) 
["H-B:TYR:531:OH:9767, V-B:MET:535:CE:9807, V-B:TYR:539:CD2:9846, V-B:TYR:539:CE2:9848, V-A:ASP:366:CG:3212, V-A:ILE:538:CA:4860, V-A:ASP:366:CB:3211, V-A:ILE:538:CG2:4863, H-B:TYR:539:OH:9850, V-A:PRO:540:CA:4883, H-A:TYR:531:OH:4795, H-A:TYR:539:N:4870, V-A:PRO:540:CB:4885, V-A:TYR:539:CE1:4875, V-A:TYR:531:CZ:4794, V-A:ILE:538:CB:4862, V-A:LEU:363:CD1:3188, V-B:TYR:539:CZ:9849, V-A:LEU:363:CA:3184, V-A:LEU:363:CB:3186"]

$$$$
3cj_Grossjean_2025
     RDKit          3D

 25 27  0  0  0  0  0  0  0  0999 V2000
  126.3560  129.9300   57.9660 C   0  0  0  0  0  0  0  0  0  0  0  0
  127.3640  129.0410   57.2630 C   0  0  0  0  0  0  0  0  0  0  0  0
  127.6450  127.7550   57.7200 C   0  0  0  0  0  0  0  0  0  0  0  0
  128.5670  126.9600   57.0250 C   0  0  0  0  0  0  0  0  0  0  0  0
  128.7880  125.5670   57.5120 C   0  0  0  0  0  0  0  0  0  0  0  0
  130.0080  125.2030   58.0950 C   0  0  0  0  0  0  0  0  0  0  0  0
  130.2180  123.8990   58.5370 C   0  0  0  0  0  0  0  0  0  0  0  0
  129.2090  122.9520   58.3910 C   0  0  0  0  0  0  0  0  0  0  0  0
  127.9940  123.2960   57.8050 C   0  0  0  0  0  0  0  0  0  0  0  0
  127.7860  124.6010   57.3640 C   0  0  0  0  0  0  0  0  0  0  0  0
  129.2110  127.5100   55.8900 C   0  0  0  0  0  0  0  0  0  0  0  0
  130.2070  126.7380   55.1390 C   0  0  0  0  0  0  0  0  0  0  0  0
  130.9910  126.1280   54.5450 N   0  0  0  0  0  0  0  0  0  0  0  0
  128.8620  128.8210   55.4960 C   0  0  0  0  0  0  0  0  0  0  0  0
  129.4950  129.5810   54.0150 S   0  0  0  0  0  0  0  0  0  0  0  0
  129.4910  131.3680   54.3690 C   0  0  0  0  0  0  0  0  0  0  0  0
  130.2360  131.6940   55.6670 C   0  0  0  0  0  0  0  0  0  0  0  0
  129.9210  132.6960   56.3130 O   0  0  0  0  0  0  0  0  0  0  0  0
  131.1850  130.8040   56.0290 N   0  0  0  0  0  0  0  0  0  0  0  0
  131.9020  130.7950   57.2150 C   0  0  0  0  0  0  0  0  0  0  0  0
  133.1940  130.6090   57.3770 N   0  0  0  0  0  0  0  0  0  0  0  0
  133.5390  130.6980   58.6460 C   0  0  0  0  0  0  0  0  0  0  0  0
  132.5120  130.9600   59.5480 C   0  0  0  0  0  0  0  0  0  0  0  0
  131.0150  131.0960   58.6750 S   0  0  0  0  0  0  0  0  0  0  0  0
  127.9480  129.5680   56.1640 N   0  0  0  0  0  0  0  0  0  0  0  0
  1  2  1  0
  2  3  2  0
  3  4  1  0
  4  5  1  0
  5  6  2  0
  6  7  1  0
  7  8  2  0
  8  9  1  0
  9 10  2  0
  4 11  2  0
 11 12  1  0
 12 13  3  0
 11 14  1  0
 14 15  1  0
 15 16  1  0
 16 17  1  0
 17 18  2  0
 17 19  1  0
 19 20  1  0
 20 21  2  0
 21 22  1  0
 22 23  2  0
 23 24  1  0
 14 25  2  0
 25  2  1  0
 10  5  1  0
 24 20  1  0
M  END
>  <Binding energies>  (81) 
[-7.84]

>  <Ligand effiencies>  (81) 
[-0.30153846153846153]

>  <Interactions>  (81) 
["H-B:TYR:531:OH:9767, V-B:MET:535:CE:9807, V-B:TYR:539:CD2:9846, V-B:TYR:539:CE2:9848, V-A:ASP:366:CG:3212, V-A:ILE:538:CA:4860, V-A:ASP:366:CB:3211, V-A:ILE:538:CG2:4863, H-B:TYR:539:OH:9850, V-A:PRO:540:CA:4883, H-A:TYR:531:OH:4795, H-A:TYR:539:N:4870, V-A:PRO:540:CB:4885, V-A:TYR:539:CE1:4875, V-A:ILE:538:CB:4862, V-A:LEU:363:CD1:3188, V-B:TYR:539:CZ:9849, V-A:LEU:363:CA:3184, V-A:LEU:363:CB:3186"]

$$$$
4ba_Grossjean_2025
     RDKit          3D

 28 30  0  0  0  0  0  0  0  0999 V2000
  124.9430  122.0200   54.9910 C   0  0  0  0  0  0  0  0  0  0  0  0
  125.4480  122.3060   56.4180 C   0  0  0  0  0  0  0  0  0  0  0  0
  126.9280  121.9530   56.6720 C   0  0  0  0  0  0  0  0  0  0  0  0
  127.5340  121.2540   55.8560 O   0  0  0  0  0  0  0  0  0  0  0  0
  127.5700  122.4900   57.9170 C   0  0  0  0  0  0  0  0  0  0  0  0
  128.9670  122.5460   58.0020 C   0  0  0  0  0  0  0  0  0  0  0  0
  129.5890  123.0380   59.1450 C   0  0  0  0  0  0  0  0  0  0  0  0
  128.8290  123.4880   60.2260 C   0  0  0  0  0  0  0  0  0  0  0  0
  129.5600  123.9570   61.3350 N   0  0  0  0  0  0  0  0  0  0  0  0
  129.1940  124.8110   62.3220 C   0  0  0  0  0  0  0  0  0  0  0  0
  128.1020  125.3780   62.3770 O   0  0  0  0  0  0  0  0  0  0  0  0
  130.2120  125.0550   63.3460 C   0  0  0  0  0  0  0  0  0  0  0  0
  131.8860  124.5860   63.0610 S   0  0  0  0  0  0  0  0  0  0  0  0
  132.3600  125.1330   64.6520 C   0  0  0  0  0  0  0  0  0  0  0  0
  133.6200  125.0350   65.0730 N   0  0  0  0  0  0  0  0  0  0  0  0
  133.8650  125.4910   66.3230 C   0  0  0  0  0  0  0  0  0  0  0  0
  135.3050  125.3620   66.7860 C   0  0  0  0  0  0  0  0  0  0  0  0
  132.8910  126.0420   67.1510 C   0  0  0  0  0  0  0  0  0  0  0  0
  131.5610  126.1480   66.7130 C   0  0  0  0  0  0  0  0  0  0  0  0
  130.5250  126.7630   67.6590 C   0  0  0  0  0  0  0  0  0  0  0  0
  129.5720  127.4430   67.0190 F   0  0  0  0  0  0  0  0  0  0  0  0
  129.9260  125.8000   68.3610 F   0  0  0  0  0  0  0  0  0  0  0  0
  131.1250  127.6090   68.4960 F   0  0  0  0  0  0  0  0  0  0  0  0
  131.2680  125.6700   65.4000 C   0  0  0  0  0  0  0  0  0  0  0  0
  130.0500  125.6030   64.6300 C   0  0  0  0  0  0  0  0  0  0  0  0
  128.8430  126.0400   65.1140 N   0  0  0  0  0  0  0  0  0  0  0  0
  127.4290  123.4290   60.1530 C   0  0  0  0  0  0  0  0  0  0  0  0
  126.8090  122.9360   59.0080 C   0  0  0  0  0  0  0  0  0  0  0  0
  1  2  1  0
  2  3  1  0
  3  4  2  0
  3  5  1  0
  5  6  2  0
  6  7  1  0
  7  8  2  0
  8  9  1  0
  9 10  1  0
 10 11  2  0
 10 12  1  0
 12 13  1  0
 13 14  1  0
 14 15  2  0
 15 16  1  0
 16 17  1  0
 16 18  2  0
 18 19  1  0
 19 20  1  0
 20 21  1  0
 20 22  1  0
 20 23  1  0
 19 24  2  0
 24 25  1  0
 25 26  1  0
  8 27  1  0
 27 28  2  0
 28  5  1  0
 25 12  2  0
 24 14  1  0
M  END
>  <Binding energies>  (82) 
[-7.08]

>  <Ligand effiencies>  (82) 
[-0.22838709677419355]

>  <Interactions>  (82) 
["V-B:PRO:540:CB:9857, V-B:MET:535:CE:9807, V-B:TYR:539:CD2:9846, V-B:PRO:540:N:9856, V-B:PRO:540:CA:9855, H-B:TYR:539:N:9842, V-B:TYR:539:CE2:9848, V-B:MET:535:CG:9805, V-B:TYR:539:C:9839, V-B:TYR:531:CE2:9765, V-B:LEU:363:CD1:8160, V-B:TYR:539:CA:9841, H-A:TYR:484:OH:4347, H-A:GLY:454:N:4049, V-B:PRO:540:CD:9859, V-A:GLU:543:CD:4908, V-B:TYR:539:CZ:9849, H-A:ARG:545:NH2:4928, V-B:TYR:539:CG:9844, V-A:TYR:484:CZ:4346, V-A:HIS:456:CE1:4069, V-A:ARG:545:CD:4923, V-A:ILE:455:C:4051, V-B:GLU:543:CG:9879, H-B:GLU:543:OE1:9881, V-B:GLU:543:CD:9880, H-B:GLU:543:OE2:9882, H-A:ARG:545:NE:4924, V-A:ARG:545:CG:4922, V-A:ARG:545:CZ:4926, V-A:GLU:543:CB:4906, V-A:TYR:484:CE2:4345, V-B:ILE:538:CA:9832, V-B:ILE:538:CG1:9836, V-B:ILE:538:CG2:9835, V-B:ILE:538:CB:9834, H-A:GLU:543:OE1:4909, V-A:GLY:454:CA:4048, V-A:GLY:453:CA:4043, V-A:GLY:453:C:4041, V-A:GLY:454:C:4046, V-A:ILE:455:CA:4053"]

$$$$
4bb_Grossjean_2025
     RDKit          3D

 27 29  0  0  0  0  0  0  0  0999 V2000
  125.4040  123.3820   56.2970 C   0  0  0  0  0  0  0  0  0  0  0  0
  126.3530  122.4200   57.0150 C   0  0  0  0  0  0  0  0  0  0  0  0
  126.4640  121.2750   56.5720 O   0  0  0  0  0  0  0  0  0  0  0  0
  127.0880  122.9170   58.2240 C   0  0  0  0  0  0  0  0  0  0  0  0
  128.4850  122.8270   58.2640 C   0  0  0  0  0  0  0  0  0  0  0  0
  129.1910  123.2800   59.3750 C   0  0  0  0  0  0  0  0  0  0  0  0
  128.5160  123.8380   60.4620 C   0  0  0  0  0  0  0  0  0  0  0  0
  129.3280  124.2610   61.5340 N   0  0  0  0  0  0  0  0  0  0  0  0
  129.1850  125.3180   62.3700 C   0  0  0  0  0  0  0  0  0  0  0  0
  128.2730  126.1410   62.2950 O   0  0  0  0  0  0  0  0  0  0  0  0
  130.2290  125.4530   63.3890 C   0  0  0  0  0  0  0  0  0  0  0  0
  131.8720  124.9120   63.0530 S   0  0  0  0  0  0  0  0  0  0  0  0
  132.3980  125.3570   64.6600 C   0  0  0  0  0  0  0  0  0  0  0  0
  133.6590  125.1820   65.0520 N   0  0  0  0  0  0  0  0  0  0  0  0
  133.9450  125.5640   66.3180 C   0  0  0  0  0  0  0  0  0  0  0  0
  135.3870  125.3570   66.7440 C   0  0  0  0  0  0  0  0  0  0  0  0
  133.0100  126.1120   67.1920 C   0  0  0  0  0  0  0  0  0  0  0  0
  131.6810  126.3000   66.7840 C   0  0  0  0  0  0  0  0  0  0  0  0
  130.6880  126.9060   67.7810 C   0  0  0  0  0  0  0  0  0  0  0  0
  131.2660  127.7320   68.6570 F   0  0  0  0  0  0  0  0  0  0  0  0
  129.7610  127.6050   67.1250 F   0  0  0  0  0  0  0  0  0  0  0  0
  130.0970  125.9360   68.4770 F   0  0  0  0  0  0  0  0  0  0  0  0
  131.3440  125.9070   65.4530 C   0  0  0  0  0  0  0  0  0  0  0  0
  130.1160  125.9440   64.7010 C   0  0  0  0  0  0  0  0  0  0  0  0
  128.9420  126.4240   65.2220 N   0  0  0  0  0  0  0  0  0  0  0  0
  127.1160  123.9240   60.4320 C   0  0  0  0  0  0  0  0  0  0  0  0
  126.4120  123.4690   59.3210 C   0  0  0  0  0  0  0  0  0  0  0  0
  1  2  1  0
  2  3  2  0
  2  4  1  0
  4  5  2  0
  5  6  1  0
  6  7  2  0
  7  8  1  0
  8  9  1  0
  9 10  2  0
  9 11  1  0
 11 12  1  0
 12 13  1  0
 13 14  2  0
 14 15  1  0
 15 16  1  0
 15 17  2  0
 17 18  1  0
 18 19  1  0
 19 20  1  0
 19 21  1  0
 19 22  1  0
 18 23  2  0
 23 24  1  0
 24 25  1  0
  7 26  1  0
 26 27  2  0
 27  4  1  0
 24 11  2  0
 23 13  1  0
M  END
>  <Binding energies>  (83) 
[-7.2]

>  <Ligand effiencies>  (83) 
[-0.24000000000000002]

>  <Interactions>  (83) 
["V-B:PRO:540:CB:9857, V-B:MET:535:CE:9807, V-B:PRO:540:N:9856, V-B:PRO:540:CA:9855, H-B:TYR:539:N:9842, V-B:TYR:539:CE2:9848, V-B:MET:535:CG:9805, V-B:TYR:539:C:9839, V-B:TYR:531:CE2:9765, V-B:TYR:531:CZ:9766, V-B:LEU:363:CD1:8160, H-A:TYR:484:OH:4347, H-A:GLY:454:N:4049, V-B:PRO:540:CD:9859, V-A:GLU:543:CG:4907, V-A:GLU:543:CD:4908, H-A:ARG:545:NH2:4928, V-A:GLU:543:C:4902, V-A:HIS:456:CE1:4069, V-A:ARG:545:CD:4923, V-A:ILE:455:C:4051, V-B:GLU:543:CG:9879, H-B:GLU:543:OE1:9881, V-B:GLU:543:CD:9880, H-B:GLU:543:OE2:9882, H-A:ARG:545:NE:4924, V-A:ARG:545:CG:4922, V-A:ARG:545:CZ:4926, V-A:GLU:543:CB:4906, V-A:TYR:484:CE2:4345, H-A:GLU:543:OE1:4909, V-A:GLY:454:CA:4048, V-A:GLY:453:CA:4043, V-A:GLY:453:C:4041, V-A:GLY:454:C:4046, V-A:ILE:455:CA:4053"]

$$$$
4bd_Grossjean_2025
     RDKit          3D

 24 26  0  0  0  0  0  0  0  0999 V2000
  129.4970  132.1330   54.3070 C   0  0  0  0  0  0  0  0  0  0  0  0
  129.9530  131.7380   55.7000 C   0  0  0  0  0  0  0  0  0  0  0  0
  131.1660  131.0860   55.9010 C   0  0  0  0  0  0  0  0  0  0  0  0
  131.5740  130.7240   57.1940 C   0  0  0  0  0  0  0  0  0  0  0  0
  132.9160  130.0050   57.3660 C   0  0  0  0  0  0  0  0  0  0  0  0
  133.6190  129.9340   56.2330 F   0  0  0  0  0  0  0  0  0  0  0  0
  133.6650  130.6520   58.2590 F   0  0  0  0  0  0  0  0  0  0  0  0
  132.7090  128.7570   57.7840 F   0  0  0  0  0  0  0  0  0  0  0  0
  130.6980  131.0550   58.2710 C   0  0  0  0  0  0  0  0  0  0  0  0
  130.7740  130.8500   59.6970 C   0  0  0  0  0  0  0  0  0  0  0  0
  131.8410  130.2350   60.2990 N   0  0  0  0  0  0  0  0  0  0  0  0
  129.6630  131.3350   60.4070 C   0  0  0  0  0  0  0  0  0  0  0  0
  129.4060  131.2810   61.8490 C   0  0  0  0  0  0  0  0  0  0  0  0
  130.2150  131.7520   62.6500 O   0  0  0  0  0  0  0  0  0  0  0  0
  128.2350  130.6980   62.2090 N   0  0  0  0  0  0  0  0  0  0  0  0
  127.7160  130.4530   63.4940 C   0  0  0  0  0  0  0  0  0  0  0  0
  127.0690  129.2260   63.6690 C   0  0  0  0  0  0  0  0  0  0  0  0
  126.5300  128.8860   64.9070 C   0  0  0  0  0  0  0  0  0  0  0  0
  126.6450  129.7710   65.9760 C   0  0  0  0  0  0  0  0  0  0  0  0
  127.2980  130.9910   65.8180 C   0  0  0  0  0  0  0  0  0  0  0  0
  127.8380  131.3350   64.5810 C   0  0  0  0  0  0  0  0  0  0  0  0
  128.4850  132.0700   59.3220 S   0  0  0  0  0  0  0  0  0  0  0  0
  129.4820  131.7230   57.9290 C   0  0  0  0  0  0  0  0  0  0  0  0
  129.1010  132.0640   56.6990 N   0  0  0  0  0  0  0  0  0  0  0  0
  1  2  1  0
  2  3  2  0
  3  4  1  0
  4  5  1  0
  5  6  1  0
  5  7  1  0
  5  8  1  0
  4  9  2  0
  9 10  1  0
 10 11  1  0
 10 12  2  0
 12 13  1  0
 13 14  2  0
 13 15  1  0
 15 16  1  0
 16 17  2  0
 17 18  1  0
 18 19  2  0
 19 20  1  0
 20 21  2  0
 12 22  1  0
 22 23  1  0
 23 24  2  0
 24  2  1  0
 23  9  1  0
 21 16  1  0
M  END
>  <Binding energies>  (84) 
[-6.33]

>  <Ligand effiencies>  (84) 
[-0.23444444444444446]

>  <Interactions>  (84) 
["V-A:ASP:366:CG:3212, V-A:PRO:540:N:4884, V-A:ILE:538:CA:4860, V-A:ASP:366:CB:3211, V-A:ILE:538:CG2:4863, V-A:TYR:539:CD1:4873, V-A:PRO:540:CA:4883, H-A:TYR:539:N:4870, V-A:PRO:540:CB:4885, V-A:TYR:539:CE1:4875, V-A:TYR:531:CZ:4794, V-A:ILE:538:CB:4862, V-A:ALA:541:CB:4892, V-A:TYR:539:C:4867, V-A:LEU:363:CD1:3188, V-A:GLU:543:CG:4907, V-A:GLU:543:CD:4908, H-A:ASP:366:OD2:3214, V-A:ILE:538:C:4858, H-A:ALA:541:N:4891, V-A:TYR:531:CE2:4793, V-A:LEU:363:CA:3184, V-A:LEU:363:CB:3186, V-B:TYR:484:CZ:9318, V-B:TYR:484:CE2:9317, H-A:GLU:543:OE2:4910"]

$$$$
4be_Grossjean_2025
     RDKit          3D

 25 27  0  0  0  0  0  0  0  0999 V2000
  128.0250  129.5110   67.2230 C   0  0  0  0  0  0  0  0  0  0  0  0
  127.1690  129.6510   65.9780 C   0  0  0  0  0  0  0  0  0  0  0  0
  125.7820  129.4910   66.0230 C   0  0  0  0  0  0  0  0  0  0  0  0
  125.0590  129.6310   64.8370 C   0  0  0  0  0  0  0  0  0  0  0  0
  125.7330  129.9240   63.6490 C   0  0  0  0  0  0  0  0  0  0  0  0
  127.1240  130.0770   63.6760 C   0  0  0  0  0  0  0  0  0  0  0  0
  127.7420  130.3640   62.4460 N   0  0  0  0  0  0  0  0  0  0  0  0
  128.8270  131.1400   62.1980 C   0  0  0  0  0  0  0  0  0  0  0  0
  129.4620  131.7310   63.0740 O   0  0  0  0  0  0  0  0  0  0  0  0
  129.2050  131.2600   60.7870 C   0  0  0  0  0  0  0  0  0  0  0  0
  128.1120  132.0340   59.6410 S   0  0  0  0  0  0  0  0  0  0  0  0
  129.2200  131.7440   58.3200 C   0  0  0  0  0  0  0  0  0  0  0  0
  128.9380  132.1360   57.0790 N   0  0  0  0  0  0  0  0  0  0  0  0
  129.8740  131.8570   56.1410 C   0  0  0  0  0  0  0  0  0  0  0  0
  129.5330  132.3090   54.7330 C   0  0  0  0  0  0  0  0  0  0  0  0
  131.0730  131.2050   56.4150 C   0  0  0  0  0  0  0  0  0  0  0  0
  131.3760  130.7910   57.7210 C   0  0  0  0  0  0  0  0  0  0  0  0
  132.7100  130.0800   57.9740 C   0  0  0  0  0  0  0  0  0  0  0  0
  133.3270  130.5060   59.0790 F   0  0  0  0  0  0  0  0  0  0  0  0
  132.5040  128.7710   58.1130 F   0  0  0  0  0  0  0  0  0  0  0  0
  133.5350  130.2900   56.9490 F   0  0  0  0  0  0  0  0  0  0  0  0
  130.4080  131.0650   58.7330 C   0  0  0  0  0  0  0  0  0  0  0  0
  130.3650  130.7930   60.1490 C   0  0  0  0  0  0  0  0  0  0  0  0
  131.3740  130.1400   60.8090 N   0  0  0  0  0  0  0  0  0  0  0  0
  127.8380  129.9360   64.8310 N   0  0  0  0  0  0  0  0  0  0  0  0
  1  2  1  0
  2  3  2  0
  3  4  1  0
  4  5  2  0
  5  6  1  0
  6  7  1  0
  7  8  1  0
  8  9  2  0
  8 10  1  0
 10 11  1  0
 11 12  1  0
 12 13  2  0
 13 14  1  0
 14 15  1  0
 14 16  2  0
 16 17  1  0
 17 18  1  0
 18 19  1  0
 18 20  1  0
 18 21  1  0
 17 22  2  0
 22 23  1  0
 23 24  1  0
  6 25  2  0
 25  2  1  0
 23 10  2  0
 22 12  1  0
M  END
>  <Binding energies>  (85) 
[-6.25]

>  <Ligand effiencies>  (85) 
[-0.22321428571428573]

>  <Interactions>  (85) 
["V-A:ASP:366:CG:3212, V-A:PRO:540:N:4884, V-A:ILE:538:CA:4860, V-A:ASP:366:CB:3211, V-A:ILE:538:CG2:4863, V-A:TYR:539:CD1:4873, V-A:PRO:540:CA:4883, H-A:TYR:539:N:4870, V-A:PRO:540:CB:4885, V-A:TYR:539:CE1:4875, V-A:TYR:531:CZ:4794, V-A:ILE:538:CB:4862, V-B:ARG:545:CZ:9898, V-A:ALA:541:CB:4892, V-A:TYR:539:C:4867, V-A:LEU:363:CD1:3188, V-A:GLU:543:CG:4907, V-A:GLU:543:CD:4908, H-A:ASP:366:OD2:3214, V-B:HIS:456:CE1:9041, V-A:GLU:543:CB:4906, V-A:ILE:538:C:4858, H-A:ALA:541:N:4891, V-A:TYR:531:CE2:4793, V-A:LEU:363:CA:3184, V-A:LEU:363:CG:3187, V-B:TYR:484:CZ:9318, V-B:TYR:484:CE2:9317, H-A:GLU:543:OE2:4910"]

$$$$
4bg_Grossjean_2025
     RDKit          3D

 25 27  0  0  0  0  0  0  0  0999 V2000
  128.9320  121.7210   61.1090 C   0  0  0  0  0  0  0  0  0  0  0  0
  129.6480  122.5610   60.0670 C   0  0  0  0  0  0  0  0  0  0  0  0
  131.0370  122.6590   60.0560 C   0  0  0  0  0  0  0  0  0  0  0  0
  131.6870  123.4440   59.0890 C   0  0  0  0  0  0  0  0  0  0  0  0
  133.2170  123.5210   59.1170 C   0  0  0  0  0  0  0  0  0  0  0  0
  133.7750  123.2400   57.9370 F   0  0  0  0  0  0  0  0  0  0  0  0
  133.5990  124.7520   59.4560 F   0  0  0  0  0  0  0  0  0  0  0  0
  133.6980  122.6500   60.0030 F   0  0  0  0  0  0  0  0  0  0  0  0
  130.8650  124.1200   58.1390 C   0  0  0  0  0  0  0  0  0  0  0  0
  131.1620  124.9970   57.0330 C   0  0  0  0  0  0  0  0  0  0  0  0
  132.4410  125.3640   56.6980 N   0  0  0  0  0  0  0  0  0  0  0  0
  130.0290  125.4320   56.3280 C   0  0  0  0  0  0  0  0  0  0  0  0
  129.9600  126.3420   55.1850 C   0  0  0  0  0  0  0  0  0  0  0  0
  130.9080  126.4730   54.4090 O   0  0  0  0  0  0  0  0  0  0  0  0
  128.7880  126.9900   55.0160 N   0  0  0  0  0  0  0  0  0  0  0  0
  128.4970  127.9550   53.9560 C   0  0  0  0  0  0  0  0  0  0  0  0
  128.8490  129.3900   54.3250 C   0  0  0  0  0  0  0  0  0  0  0  0
  128.1630  130.0380   55.3560 C   0  0  0  0  0  0  0  0  0  0  0  0
  128.5130  131.3370   55.7160 C   0  0  0  0  0  0  0  0  0  0  0  0
  129.5580  131.9790   55.0550 C   0  0  0  0  0  0  0  0  0  0  0  0
  130.2580  131.3330   54.0390 C   0  0  0  0  0  0  0  0  0  0  0  0
  129.9070  130.0350   53.6770 C   0  0  0  0  0  0  0  0  0  0  0  0
  128.5480  124.7960   57.0380 S   0  0  0  0  0  0  0  0  0  0  0  0
  129.4540  123.9290   58.2570 C   0  0  0  0  0  0  0  0  0  0  0  0
  128.8420  123.1850   59.1780 N   0  0  0  0  0  0  0  0  0  0  0  0
  1  2  1  0
  2  3  2  0
  3  4  1  0
  4  5  1  0
  5  6  1  0
  5  7  1  0
  5  8  1  0
  4  9  2  0
  9 10  1  0
 10 11  1  0
 10 12  2  0
 12 13  1  0
 13 14  2  0
 13 15  1  0
 15 16  1  0
 16 17  1  0
 17 18  2  0
 18 19  1  0
 19 20  2  0
 20 21  1  0
 21 22  2  0
 12 23  1  0
 23 24  1  0
 24 25  2  0
 25  2  1  0
 24  9  1  0
 22 17  1  0
M  END
>  <Binding energies>  (86) 
[-6.51]

>  <Ligand effiencies>  (86) 
[-0.23249999999999998]

>  <Interactions>  (86) 
["H-B:TYR:531:OH:9767, V-B:MET:535:CE:9807, V-A:ILE:369:CG2:3236, V-B:PRO:540:CA:9855, V-B:PRO:540:C:9853, V-B:ALA:541:CB:9864, V-B:TYR:539:CE2:9848, V-B:TYR:531:CZ:9766, V-A:ASP:366:CG:3212, V-A:ILE:538:CA:4860, V-A:ASP:366:CA:3209, V-A:MET:535:CB:4832, V-A:ASP:366:CB:3211, V-A:ILE:538:CG2:4863, V-A:ASP:366:C:3207, H-B:TYR:539:OH:9850, V-A:TYR:539:CD1:4873, H-A:TYR:531:OH:4795, V-A:TYR:539:CZ:4877, V-A:TYR:539:CE1:4875, V-A:TYR:531:CZ:4794, V-A:ILE:538:CB:4862, V-A:MET:535:CG:4833, V-B:TYR:531:CE1:9764, V-A:ILE:369:CD1:3238, V-B:TYR:539:CZ:9849, V-A:ILE:369:CB:3235, H-B:MET:535:SD:9806, H-A:ASP:366:O:3208, V-A:ILE:369:C:3231"]

$$$$
4ca_Grossjean_2025
     RDKit          3D

 34 37  0  0  0  0  0  0  0  0999 V2000
  127.8170  131.4140   72.4610 C   0  0  0  0  0  0  0  0  0  0  0  0
  128.8120  130.2620   72.6350 C   0  0  0  0  0  0  0  0  0  0  0  0
  128.7440  129.4050   71.5030 O   0  0  0  0  0  0  0  0  0  0  0  0
  129.4900  128.2720   71.4350 C   0  0  0  0  0  0  0  0  0  0  0  0
  130.1090  127.8070   72.3980 O   0  0  0  0  0  0  0  0  0  0  0  0
  129.4850  127.6390   70.0740 C   0  0  0  0  0  0  0  0  0  0  0  0
  128.7660  126.4530   69.8740 C   0  0  0  0  0  0  0  0  0  0  0  0
  128.7390  125.8450   68.6220 C   0  0  0  0  0  0  0  0  0  0  0  0
  129.4330  126.4030   67.5490 C   0  0  0  0  0  0  0  0  0  0  0  0
  129.3290  125.7110   66.3260 N   0  0  0  0  0  0  0  0  0  0  0  0
  130.2990  125.2590   65.4940 C   0  0  0  0  0  0  0  0  0  0  0  0
  131.5060  125.3540   65.7230 O   0  0  0  0  0  0  0  0  0  0  0  0
  129.8220  124.6120   64.2700 C   0  0  0  0  0  0  0  0  0  0  0  0
  128.5370  125.3530   63.3190 S   0  0  0  0  0  0  0  0  0  0  0  0
  128.6180  124.0740   62.1300 C   0  0  0  0  0  0  0  0  0  0  0  0
  127.8240  124.0680   61.0630 N   0  0  0  0  0  0  0  0  0  0  0  0
  127.9690  123.0410   60.1860 C   0  0  0  0  0  0  0  0  0  0  0  0
  127.0650  123.0680   58.9870 C   0  0  0  0  0  0  0  0  0  0  0  0
  127.3790  122.3320   57.8330 C   0  0  0  0  0  0  0  0  0  0  0  0
  126.5480  122.3570   56.7160 C   0  0  0  0  0  0  0  0  0  0  0  0
  125.3870  123.1220   56.7370 C   0  0  0  0  0  0  0  0  0  0  0  0
  125.0520  123.8630   57.8660 C   0  0  0  0  0  0  0  0  0  0  0  0
  125.8860  123.8350   58.9810 C   0  0  0  0  0  0  0  0  0  0  0  0
  128.8940  122.0140   60.3980 C   0  0  0  0  0  0  0  0  0  0  0  0
  129.7340  122.0090   61.5220 C   0  0  0  0  0  0  0  0  0  0  0  0
  130.7280  120.8540   61.6900 C   0  0  0  0  0  0  0  0  0  0  0  0
  130.5690  119.8900   60.7810 F   0  0  0  0  0  0  0  0  0  0  0  0
  131.9740  121.3100   61.5740 F   0  0  0  0  0  0  0  0  0  0  0  0
  130.5730  120.2970   62.8920 F   0  0  0  0  0  0  0  0  0  0  0  0
  129.6020  123.0910   62.4390 C   0  0  0  0  0  0  0  0  0  0  0  0
  130.2770  123.4260   63.6690 C   0  0  0  0  0  0  0  0  0  0  0  0
  131.2750  122.6490   64.2020 N   0  0  0  0  0  0  0  0  0  0  0  0
  130.1500  127.5930   67.7370 C   0  0  0  0  0  0  0  0  0  0  0  0
  130.1750  128.2020   68.9900 C   0  0  0  0  0  0  0  0  0  0  0  0
  1  2  1  0
  2  3  1  0
  3  4  1  0
  4  5  2  0
  4  6  1  0
  6  7  2  0
  7  8  1  0
  8  9  2  0
  9 10  1  0
 10 11  1  0
 11 12  2  0
 11 13  1  0
 13 14  1  0
 14 15  1  0
 15 16  2  0
 16 17  1  0
 17 18  1  0
 18 19  2  0
 19 20  1  0
 20 21  2  0
 21 22  1  0
 22 23  2  0
 17 24  2  0
 24 25  1  0
 25 26  1  0
 26 27  1  0
 26 28  1  0
 26 29  1  0
 25 30  2  0
 30 31  1  0
 31 32  1  0
  9 33  1  0
 33 34  2  0
 34  6  1  0
 31 13  2  0
 30 15  1  0
 23 18  1  0
M  END
>  <Binding energies>  (87) 
[-7.8]

>  <Ligand effiencies>  (87) 
[-0.2108108108108108]

>  <Interactions>  (87) 
["V-B:PRO:540:CB:9857, V-B:MET:535:CE:9807, V-B:TYR:539:CD2:9846, V-B:PRO:540:N:9856, V-A:LEU:475:CD1:4257, V-B:PRO:540:CA:9855, V-B:ALA:541:CB:9864, V-B:TYR:539:C:9839, V-B:TYR:531:CE2:9765, V-B:LEU:363:CD1:8160, H-A:TYR:484:OH:4347, V-B:PRO:540:CD:9859, V-A:GLU:543:CD:4908, V-A:GLU:543:C:4902, V-B:HIS:456:CE1:9041, V-A:TYR:484:CZ:4346, V-A:HIS:456:CE1:4069, V-B:GLU:543:CB:9878, V-B:GLU:543:CG:9879, V-B:GLU:543:CD:9880, H-B:GLU:543:OE2:9882, V-A:GLU:543:CA:4904, V-A:GLU:543:CB:4906, V-B:GLU:543:CA:9876, V-B:GLU:543:C:9874, V-B:ALA:541:CA:9862, V-B:HIS:456:CD2:9039, V-B:TYR:484:CD1:9314, V-B:HIS:456:CG:9037, V-B:TYR:484:CB:9312, V-B:TYR:484:CG:9313, V-B:TYR:484:CD2:9315"]

$$$$
4cb_Grossjean_2025
     RDKit          3D

 33 36  0  0  0  0  0  0  0  0999 V2000
  129.3910  126.3390   73.0950 C   0  0  0  0  0  0  0  0  0  0  0  0
  130.1030  127.3430   72.3860 O   0  0  0  0  0  0  0  0  0  0  0  0
  129.4870  128.1060   71.4480 C   0  0  0  0  0  0  0  0  0  0  0  0
  128.9680  129.2000   71.6920 O   0  0  0  0  0  0  0  0  0  0  0  0
  129.4980  127.4870   70.0790 C   0  0  0  0  0  0  0  0  0  0  0  0
  128.7350  126.3360   69.8420 C   0  0  0  0  0  0  0  0  0  0  0  0
  128.7180  125.7440   68.5820 C   0  0  0  0  0  0  0  0  0  0  0  0
  129.4680  126.2850   67.5370 C   0  0  0  0  0  0  0  0  0  0  0  0
  129.3660  125.6140   66.3030 N   0  0  0  0  0  0  0  0  0  0  0  0
  130.3360  125.2140   65.4440 C   0  0  0  0  0  0  0  0  0  0  0  0
  131.5430  125.3470   65.6530 O   0  0  0  0  0  0  0  0  0  0  0  0
  129.8590  124.5740   64.2150 C   0  0  0  0  0  0  0  0  0  0  0  0
  128.5750  125.3220   63.2670 S   0  0  0  0  0  0  0  0  0  0  0  0
  128.6550  124.0500   62.0710 C   0  0  0  0  0  0  0  0  0  0  0  0
  127.8610  124.0480   61.0040 N   0  0  0  0  0  0  0  0  0  0  0  0
  128.0030  123.0230   60.1230 C   0  0  0  0  0  0  0  0  0  0  0  0
  127.0970  123.0520   58.9270 C   0  0  0  0  0  0  0  0  0  0  0  0
  127.4060  122.3120   57.7750 C   0  0  0  0  0  0  0  0  0  0  0  0
  126.5720  122.3370   56.6590 C   0  0  0  0  0  0  0  0  0  0  0  0
  125.4130  123.1060   56.6820 C   0  0  0  0  0  0  0  0  0  0  0  0
  125.0850  123.8510   57.8100 C   0  0  0  0  0  0  0  0  0  0  0  0
  125.9220  123.8240   58.9210 C   0  0  0  0  0  0  0  0  0  0  0  0
  128.9280  121.9940   60.3320 C   0  0  0  0  0  0  0  0  0  0  0  0
  129.7680  121.9850   61.4560 C   0  0  0  0  0  0  0  0  0  0  0  0
  130.7600  120.8270   61.6210 C   0  0  0  0  0  0  0  0  0  0  0  0
  132.0340  121.2090   61.4970 F   0  0  0  0  0  0  0  0  0  0  0  0
  130.6230  120.2860   62.8310 F   0  0  0  0  0  0  0  0  0  0  0  0
  130.5300  119.8980   60.6940 F   0  0  0  0  0  0  0  0  0  0  0  0
  129.6380  123.0640   62.3770 C   0  0  0  0  0  0  0  0  0  0  0  0
  130.3150  123.3930   63.6080 C   0  0  0  0  0  0  0  0  0  0  0  0
  131.3150  122.6150   64.1340 N   0  0  0  0  0  0  0  0  0  0  0  0
  130.2330  127.4390   67.7640 C   0  0  0  0  0  0  0  0  0  0  0  0
  130.2470  128.0300   69.0240 C   0  0  0  0  0  0  0  0  0  0  0  0
  1  2  1  0
  2  3  1  0
  3  4  2  0
  3  5  1  0
  5  6  2  0
  6  7  1  0
  7  8  2  0
  8  9  1  0
  9 10  1  0
 10 11  2  0
 10 12  1  0
 12 13  1  0
 13 14  1  0
 14 15  2  0
 15 16  1  0
 16 17  1  0
 17 18  2  0
 18 19  1  0
 19 20  2  0
 20 21  1  0
 21 22  2  0
 16 23  2  0
 23 24  1  0
 24 25  1  0
 25 26  1  0
 25 27  1  0
 25 28  1  0
 24 29  2  0
 29 30  1  0
 30 31  1  0
  8 32  1  0
 32 33  2  0
 33  5  1  0
 30 12  2  0
 29 14  1  0
 22 17  1  0
M  END
>  <Binding energies>  (88) 
[-7.63]

>  <Ligand effiencies>  (88) 
[-0.21194444444444444]

>  <Interactions>  (88) 
["V-B:PRO:540:CB:9857, V-B:MET:535:CE:9807, V-B:TYR:539:CD2:9846, V-B:PRO:540:N:9856, V-A:LEU:475:CD1:4257, V-B:PRO:540:CA:9855, V-B:ALA:541:CB:9864, V-B:TYR:539:C:9839, V-B:TYR:531:CE2:9765, V-B:LEU:363:CD1:8160, H-A:TYR:484:OH:4347, V-B:PRO:540:CD:9859, V-A:GLU:543:CD:4908, V-A:GLU:543:C:4902, V-B:HIS:456:CE1:9041, V-A:TYR:484:CZ:4346, V-A:HIS:456:CE1:4069, V-B:GLU:543:CB:9878, V-B:GLU:543:CG:9879, V-B:GLU:543:CD:9880, H-B:GLU:543:OE2:9882, V-A:GLU:543:CB:4906, V-B:GLU:543:CA:9876, V-B:GLU:543:C:9874, V-B:HIS:456:CD2:9039, H-A:HIS:456:ND1:4066"]

$$$$
4cc_Grossjean_2025
     RDKit          3D

 31 34  0  0  0  0  0  0  0  0999 V2000
  130.6890  128.3900   72.0250 C   0  0  0  0  0  0  0  0  0  0  0  0
  129.4660  128.0150   71.4010 O   0  0  0  0  0  0  0  0  0  0  0  0
  129.4930  127.4990   70.1200 C   0  0  0  0  0  0  0  0  0  0  0  0
  128.7440  126.3430   69.8990 C   0  0  0  0  0  0  0  0  0  0  0  0
  128.7090  125.7500   68.6400 C   0  0  0  0  0  0  0  0  0  0  0  0
  129.4340  126.3030   67.5820 C   0  0  0  0  0  0  0  0  0  0  0  0
  129.3250  125.6440   66.3430 N   0  0  0  0  0  0  0  0  0  0  0  0
  130.2990  125.2980   65.4680 C   0  0  0  0  0  0  0  0  0  0  0  0
  131.5000  125.4900   65.6640 O   0  0  0  0  0  0  0  0  0  0  0  0
  129.8380  124.6590   64.2320 C   0  0  0  0  0  0  0  0  0  0  0  0
  128.5680  125.4080   63.2660 S   0  0  0  0  0  0  0  0  0  0  0  0
  128.6390  124.1170   62.0900 C   0  0  0  0  0  0  0  0  0  0  0  0
  127.8490  124.1080   61.0190 N   0  0  0  0  0  0  0  0  0  0  0  0
  127.9830  123.0680   60.1570 C   0  0  0  0  0  0  0  0  0  0  0  0
  127.0770  123.0840   58.9600 C   0  0  0  0  0  0  0  0  0  0  0  0
  127.3990  122.3510   57.8060 C   0  0  0  0  0  0  0  0  0  0  0  0
  126.5650  122.3620   56.6910 C   0  0  0  0  0  0  0  0  0  0  0  0
  125.3930  123.1100   56.7140 C   0  0  0  0  0  0  0  0  0  0  0  0
  125.0520  123.8480   57.8430 C   0  0  0  0  0  0  0  0  0  0  0  0
  125.8890  123.8350   58.9550 C   0  0  0  0  0  0  0  0  0  0  0  0
  128.8970  122.0340   60.3820 C   0  0  0  0  0  0  0  0  0  0  0  0
  129.7340  122.0320   61.5100 C   0  0  0  0  0  0  0  0  0  0  0  0
  130.7160  120.8700   61.6910 C   0  0  0  0  0  0  0  0  0  0  0  0
  130.5910  120.2560   62.8710 F   0  0  0  0  0  0  0  0  0  0  0  0
  130.5140  119.9550   60.7440 F   0  0  0  0  0  0  0  0  0  0  0  0
  131.9680  121.3200   61.6070 F   0  0  0  0  0  0  0  0  0  0  0  0
  129.6080  123.1230   62.4170 C   0  0  0  0  0  0  0  0  0  0  0  0
  130.2750  123.4590   63.6510 C   0  0  0  0  0  0  0  0  0  0  0  0
  131.2540  122.6710   64.2020 N   0  0  0  0  0  0  0  0  0  0  0  0
  130.1800  127.4730   67.7930 C   0  0  0  0  0  0  0  0  0  0  0  0
  130.2110  128.0620   69.0540 C   0  0  0  0  0  0  0  0  0  0  0  0
  1  2  1  0
  2  3  1  0
  3  4  2  0
  4  5  1  0
  5  6  2  0
  6  7  1  0
  7  8  1  0
  8  9  2  0
  8 10  1  0
 10 11  1  0
 11 12  1  0
 12 13  2  0
 13 14  1  0
 14 15  1  0
 15 16  2  0
 16 17  1  0
 17 18  2  0
 18 19  1  0
 19 20  2  0
 14 21  2  0
 21 22  1  0
 22 23  1  0
 23 24  1  0
 23 25  1  0
 23 26  1  0
 22 27  2  0
 27 28  1  0
 28 29  1  0
  6 30  1  0
 30 31  2  0
 31  3  1  0
 28 10  2  0
 27 12  1  0
 20 15  1  0
M  END
>  <Binding energies>  (89) 
[-7.36]

>  <Ligand effiencies>  (89) 
[-0.21647058823529414]

>  <Interactions>  (89) 
["V-B:PRO:540:CB:9857, V-B:MET:535:CE:9807, V-B:TYR:539:CD2:9846, V-B:PRO:540:N:9856, V-A:LEU:475:CD1:4257, V-B:PRO:540:CA:9855, V-B:ALA:541:CB:9864, V-B:TYR:539:C:9839, V-B:TYR:531:CE2:9765, V-B:LEU:363:CD1:8160, H-A:TYR:484:OH:4347, V-B:PRO:540:CD:9859, V-A:GLU:543:CD:4908, V-A:GLU:543:C:4902, V-B:HIS:456:CE1:9041, V-A:TYR:484:CZ:4346, V-A:HIS:456:CE1:4069, V-A:GLY:544:C:4912, V-B:GLU:543:CB:9878, V-B:GLU:543:CG:9879, V-B:GLU:543:CD:9880, H-B:GLU:543:OE2:9882, V-A:GLU:543:CB:4906, V-B:GLU:543:CA:9876, V-B:GLU:543:C:9874, V-B:ALA:541:CA:9862, V-A:GLY:544:CA:4914"]

$$$$
4ce_Grossjean_2025
     RDKit          3D

 30 33  0  0  0  0  0  0  0  0999 V2000
  128.7690  125.7750   71.2120 C   0  0  0  0  0  0  0  0  0  0  0  0
  128.9500  126.5370   69.9130 C   0  0  0  0  0  0  0  0  0  0  0  0
  129.1800  127.9150   69.9000 C   0  0  0  0  0  0  0  0  0  0  0  0
  129.3450  128.5490   68.6670 C   0  0  0  0  0  0  0  0  0  0  0  0
  129.2780  127.7990   67.4920 C   0  0  0  0  0  0  0  0  0  0  0  0
  129.0390  126.4220   67.5760 C   0  0  0  0  0  0  0  0  0  0  0  0
  129.0070  125.7170   66.3590 N   0  0  0  0  0  0  0  0  0  0  0  0
  130.0440  125.2440   65.6250 C   0  0  0  0  0  0  0  0  0  0  0  0
  131.2260  125.3610   65.9540 O   0  0  0  0  0  0  0  0  0  0  0  0
  129.6760  124.5630   64.3810 C   0  0  0  0  0  0  0  0  0  0  0  0
  128.4090  125.2240   63.3500 S   0  0  0  0  0  0  0  0  0  0  0  0
  128.6310  123.9450   62.1820 C   0  0  0  0  0  0  0  0  0  0  0  0
  127.9020  123.8860   61.0700 N   0  0  0  0  0  0  0  0  0  0  0  0
  128.1570  122.8630   60.2130 C   0  0  0  0  0  0  0  0  0  0  0  0
  127.3220  122.8290   58.9670 C   0  0  0  0  0  0  0  0  0  0  0  0
  126.1420  123.5840   58.8750 C   0  0  0  0  0  0  0  0  0  0  0  0
  125.3580  123.5520   57.7240 C   0  0  0  0  0  0  0  0  0  0  0  0
  125.7460  122.7640   56.6460 C   0  0  0  0  0  0  0  0  0  0  0  0
  126.9100  122.0060   56.7120 C   0  0  0  0  0  0  0  0  0  0  0  0
  127.6900  122.0380   57.8650 C   0  0  0  0  0  0  0  0  0  0  0  0
  129.1260  121.8920   60.4870 C   0  0  0  0  0  0  0  0  0  0  0  0
  129.8970  121.9410   61.6600 C   0  0  0  0  0  0  0  0  0  0  0  0
  130.9430  120.8470   61.8960 C   0  0  0  0  0  0  0  0  0  0  0  0
  132.1720  121.3300   62.0890 F   0  0  0  0  0  0  0  0  0  0  0  0
  130.6180  120.1390   62.9790 F   0  0  0  0  0  0  0  0  0  0  0  0
  130.9940  120.0360   60.8400 F   0  0  0  0  0  0  0  0  0  0  0  0
  129.6490  123.0190   62.5580 C   0  0  0  0  0  0  0  0  0  0  0  0
  130.2290  123.3980   63.8230 C   0  0  0  0  0  0  0  0  0  0  0  0
  131.2320  122.6820   64.4230 N   0  0  0  0  0  0  0  0  0  0  0  0
  128.8810  125.7940   68.7780 N   0  0  0  0  0  0  0  0  0  0  0  0
  1  2  1  0
  2  3  2  0
  3  4  1  0
  4  5  2  0
  5  6  1  0
  6  7  1  0
  7  8  1  0
  8  9  2  0
  8 10  1  0
 10 11  1  0
 11 12  1  0
 12 13  2  0
 13 14  1  0
 14 15  1  0
 15 16  2  0
 16 17  1  0
 17 18  2  0
 18 19  1  0
 19 20  2  0
 14 21  2  0
 21 22  1  0
 22 23  1  0
 23 24  1  0
 23 25  1  0
 23 26  1  0
 22 27  2  0
 27 28  1  0
 28 29  1  0
  6 30  2  0
 30  2  1  0
 28 10  2  0
 27 12  1  0
 20 15  1  0
M  END
>  <Binding energies>  (90) 
[-7.25]

>  <Ligand effiencies>  (90) 
[-0.2196969696969697]

>  <Interactions>  (90) 
["V-B:PRO:540:CB:9857, V-B:MET:535:CE:9807, V-B:TYR:539:CD2:9846, V-B:PRO:540:N:9856, V-A:LEU:475:CD1:4257, V-B:PRO:540:CA:9855, V-B:ALA:541:CB:9864, V-B:TYR:539:C:9839, V-B:TYR:531:CE2:9765, V-B:LEU:363:CD1:8160, V-B:TYR:539:CA:9841, H-A:TYR:484:OH:4347, V-B:PRO:540:CD:9859, V-A:GLU:543:CD:4908, V-A:GLU:543:C:4902, V-B:HIS:456:CE1:9041, V-A:TYR:484:CZ:4346, V-A:HIS:456:CE1:4069, V-B:GLU:543:CB:9878, V-B:GLU:543:CG:9879, H-B:GLU:543:OE1:9881, V-B:GLU:543:CD:9880, H-B:GLU:543:OE2:9882, V-A:GLU:543:CA:4904, V-A:GLU:543:CB:4906, V-A:TYR:484:CE2:4345, V-A:LEU:475:CD2:4258, V-B:GLU:543:C:9874, V-B:ALA:541:CA:9862, V-A:LEU:475:CG:4256"]

$$$$
4cf_Grossjean_2025
     RDKit          3D

 29 32  0  0  0  0  0  0  0  0999 V2000
  131.2680  122.7240   64.3060 N   0  0  0  0  0  0  0  0  0  0  0  0
  130.2840  123.5050   63.7560 C   0  0  0  0  0  0  0  0  0  0  0  0
  129.8280  124.6960   64.3440 C   0  0  0  0  0  0  0  0  0  0  0  0
  130.2450  125.3090   65.6080 C   0  0  0  0  0  0  0  0  0  0  0  0
  131.4380  125.3910   65.9010 O   0  0  0  0  0  0  0  0  0  0  0  0
  129.2380  125.7710   66.3890 N   0  0  0  0  0  0  0  0  0  0  0  0
  129.2910  126.3590   67.6670 C   0  0  0  0  0  0  0  0  0  0  0  0
  128.7430  125.8100   68.8420 C   0  0  0  0  0  0  0  0  0  0  0  0
  128.8530  126.5070   70.0470 C   0  0  0  0  0  0  0  0  0  0  0  0
  129.5070  127.7390   70.0490 C   0  0  0  0  0  0  0  0  0  0  0  0
  130.0380  128.2940   68.9300 N   0  0  0  0  0  0  0  0  0  0  0  0
  129.9210  127.6040   67.7650 C   0  0  0  0  0  0  0  0  0  0  0  0
  128.5650  125.4440   63.3680 S   0  0  0  0  0  0  0  0  0  0  0  0
  128.6520  124.1570   62.1890 C   0  0  0  0  0  0  0  0  0  0  0  0
  127.8650  124.1440   61.1140 N   0  0  0  0  0  0  0  0  0  0  0  0
  127.9940  123.0930   60.2630 C   0  0  0  0  0  0  0  0  0  0  0  0
  127.0900  123.1020   59.0650 C   0  0  0  0  0  0  0  0  0  0  0  0
  127.4220  122.3780   57.9100 C   0  0  0  0  0  0  0  0  0  0  0  0
  126.5880  122.3800   56.7950 C   0  0  0  0  0  0  0  0  0  0  0  0
  125.4040  123.1090   56.8210 C   0  0  0  0  0  0  0  0  0  0  0  0
  125.0480  123.8340   57.9540 C   0  0  0  0  0  0  0  0  0  0  0  0
  125.8850  123.8280   59.0670 C   0  0  0  0  0  0  0  0  0  0  0  0
  128.9270  122.0750   60.4810 C   0  0  0  0  0  0  0  0  0  0  0  0
  129.7640  122.0810   61.6080 C   0  0  0  0  0  0  0  0  0  0  0  0
  130.7610  120.9300   61.7880 C   0  0  0  0  0  0  0  0  0  0  0  0
  130.5980  119.9510   60.8950 F   0  0  0  0  0  0  0  0  0  0  0  0
  132.0060  121.3870   61.6560 F   0  0  0  0  0  0  0  0  0  0  0  0
  130.6160  120.3920   62.9990 F   0  0  0  0  0  0  0  0  0  0  0  0
  129.6250  123.1690   62.5180 C   0  0  0  0  0  0  0  0  0  0  0  0
  1  2  1  0
  2  3  2  0
  3  4  1  0
  4  5  2  0
  4  6  1  0
  6  7  1  0
  7  8  2  0
  8  9  1  0
  9 10  2  0
 10 11  1  0
 11 12  2  0
  3 13  1  0
 13 14  1  0
 14 15  2  0
 15 16  1  0
 16 17  1  0
 17 18  2  0
 18 19  1  0
 19 20  2  0
 20 21  1  0
 21 22  2  0
 16 23  2  0
 23 24  1  0
 24 25  1  0
 25 26  1  0
 25 27  1  0
 25 28  1  0
 24 29  2  0
 29  2  1  0
 12  7  1  0
 29 14  1  0
 22 17  1  0
M  END
>  <Binding energies>  (91) 
[-7.2]

>  <Ligand effiencies>  (91) 
[-0.225]

>  <Interactions>  (91) 
["V-B:PRO:540:CB:9857, V-B:MET:535:CE:9807, V-B:TYR:539:CD2:9846, V-B:PRO:540:N:9856, V-A:LEU:475:CD1:4257, V-B:PRO:540:CA:9855, V-B:ALA:541:CB:9864, V-B:TYR:539:C:9839, V-B:TYR:531:CE2:9765, V-B:LEU:363:CD1:8160, H-A:TYR:484:OH:4347, V-B:PRO:540:CD:9859, V-A:GLU:543:CD:4908, V-B:HIS:456:CE1:9041, V-A:TYR:484:CZ:4346, V-A:HIS:456:CE1:4069, V-B:GLU:543:CB:9878, V-B:GLU:543:CG:9879, V-B:GLU:543:CD:9880, H-B:GLU:543:OE2:9882, V-A:GLU:543:CB:4906, V-A:LEU:475:CD2:4258, V-B:GLU:543:CA:9876, V-B:GLU:543:C:9874, V-B:ALA:541:CA:9862, V-A:LEU:475:CG:4256"]

$$$$
4ci_Grossjean_2025
     RDKit          3D

 28 31  0  0  0  0  0  0  0  0999 V2000
  132.2430  123.5000   58.3420 N   0  0  0  0  0  0  0  0  0  0  0  0
  131.4350  123.9250   59.3650 C   0  0  0  0  0  0  0  0  0  0  0  0
  130.0470  124.0940   59.2300 C   0  0  0  0  0  0  0  0  0  0  0  0
  129.2090  123.8570   58.0510 C   0  0  0  0  0  0  0  0  0  0  0  0
  129.5020  124.3540   56.9610 O   0  0  0  0  0  0  0  0  0  0  0  0
  128.1160  123.0820   58.2580 N   0  0  0  0  0  0  0  0  0  0  0  0
  127.1580  122.7040   57.3260 C   0  0  0  0  0  0  0  0  0  0  0  0
  126.0250  123.4670   57.0450 C   0  0  0  0  0  0  0  0  0  0  0  0
  125.3440  122.7570   56.0840 C   0  0  0  0  0  0  0  0  0  0  0  0
  126.0310  121.6240   55.8000 O   0  0  0  0  0  0  0  0  0  0  0  0
  127.1790  121.6020   56.5940 N   0  0  0  0  0  0  0  0  0  0  0  0
  129.3220  124.6390   60.7390 S   0  0  0  0  0  0  0  0  0  0  0  0
  130.8780  124.6470   61.5370 C   0  0  0  0  0  0  0  0  0  0  0  0
  131.0040  125.0020   62.8130 N   0  0  0  0  0  0  0  0  0  0  0  0
  132.2520  124.9740   63.3470 C   0  0  0  0  0  0  0  0  0  0  0  0
  132.3620  125.3850   64.7880 C   0  0  0  0  0  0  0  0  0  0  0  0
  133.6020  125.3700   65.4480 C   0  0  0  0  0  0  0  0  0  0  0  0
  133.7110  125.7500   66.7830 C   0  0  0  0  0  0  0  0  0  0  0  0
  132.5760  126.1520   67.4810 C   0  0  0  0  0  0  0  0  0  0  0  0
  131.3360  126.1710   66.8540 C   0  0  0  0  0  0  0  0  0  0  0  0
  131.2310  125.7890   65.5190 C   0  0  0  0  0  0  0  0  0  0  0  0
  133.3700  124.6060   62.5910 C   0  0  0  0  0  0  0  0  0  0  0  0
  133.2490  124.2290   61.2440 C   0  0  0  0  0  0  0  0  0  0  0  0
  134.5160  123.8370   60.4750 C   0  0  0  0  0  0  0  0  0  0  0  0
  134.7140  122.5180   60.4290 F   0  0  0  0  0  0  0  0  0  0  0  0
  134.4310  124.2720   59.2180 F   0  0  0  0  0  0  0  0  0  0  0  0
  135.5840  124.3820   61.0580 F   0  0  0  0  0  0  0  0  0  0  0  0
  131.9420  124.2430   60.6780 C   0  0  0  0  0  0  0  0  0  0  0  0
  1  2  1  0
  2  3  2  0
  3  4  1  0
  4  5  2  0
  4  6  1  0
  6  7  1  0
  7  8  1  0
  8  9  2  0
  9 10  1  0
 10 11  1  0
  3 12  1  0
 12 13  1  0
 13 14  2  0
 14 15  1  0
 15 16  1  0
 16 17  2  0
 17 18  1  0
 18 19  2  0
 19 20  1  0
 20 21  2  0
 15 22  2  0
 22 23  1  0
 23 24  1  0
 24 25  1  0
 24 26  1  0
 24 27  1  0
 23 28  2  0
 28  2  1  0
 11  7  2  0
 28 13  1  0
 21 16  1  0
M  END
>  <Binding energies>  (92) 
[-7.55]

>  <Ligand effiencies>  (92) 
[-0.24354838709677418]

>  <Interactions>  (92) 
["V-B:MET:535:CE:9807, V-A:ILE:369:CG2:3236, V-B:PRO:540:N:9856, V-B:PRO:540:CA:9855, H-B:TYR:539:N:9842, V-B:TYR:539:CE2:9848, V-B:MET:535:CG:9805, V-B:TYR:539:C:9839, V-B:TYR:531:CE2:9765, V-B:LEU:363:CD1:8160, V-A:ASP:366:CG:3212, V-A:ASP:366:CA:3209, V-A:ASP:366:CB:3211, V-A:ASP:366:C:3207, H-B:TYR:539:OH:9850, V-A:ILE:369:CD1:3238, V-B:TYR:539:CZ:9849, H-B:TYR:539:O:9840, V-A:ILE:369:CB:3235, V-A:TYR:484:CZ:4346, V-A:HIS:456:CE1:4069, V-A:ARG:545:CD:4923, V-A:ARG:545:CG:4922, V-A:ARG:545:CZ:4926, V-A:GLY:453:CA:4043, V-A:ILE:369:CG1:3237, V-A:CYS:365:C:3203"]

$$$$
8a_Ghoteimi_2023
     RDKit          3D

 40 44  0  0  0  0  0  0  0  0999 V2000
  130.6400  117.4220   60.0340 C   0  0  0  0  0  0  0  0  0  0  0  0
  131.7810  117.8880   60.9430 C   0  0  0  0  0  0  0  0  0  0  0  0
  132.6880  118.6850   60.1930 O   0  0  0  0  0  0  0  0  0  0  0  0
  133.5490  119.5370   60.8100 C   0  0  0  0  0  0  0  0  0  0  0  0
  134.7760  119.4680   60.6910 O   0  0  0  0  0  0  0  0  0  0  0  0
  132.8590  120.5670   61.6560 C   0  0  0  0  0  0  0  0  0  0  0  0
  133.6200  121.3590   62.5250 C   0  0  0  0  0  0  0  0  0  0  0  0
  133.0090  122.3220   63.3240 C   0  0  0  0  0  0  0  0  0  0  0  0
  131.6280  122.5130   63.2730 C   0  0  0  0  0  0  0  0  0  0  0  0
  131.1210  123.5110   64.1290 N   0  0  0  0  0  0  0  0  0  0  0  0
  130.7190  124.7780   63.8570 C   0  0  0  0  0  0  0  0  0  0  0  0
  130.7400  125.2870   62.7370 O   0  0  0  0  0  0  0  0  0  0  0  0
  130.2320  125.5390   65.0110 C   0  0  0  0  0  0  0  0  0  0  0  0
  130.9980  125.3540   66.5890 S   0  0  0  0  0  0  0  0  0  0  0  0
  129.8910  126.4970   67.3130 C   0  0  0  0  0  0  0  0  0  0  0  0
  129.9440  126.7980   68.6100 N   0  0  0  0  0  0  0  0  0  0  0  0
  129.0340  127.6950   69.0730 C   0  0  0  0  0  0  0  0  0  0  0  0
  129.0990  128.0020   70.5350 C   0  0  0  0  0  0  0  0  0  0  0  0
  128.7710  129.2750   71.0230 C   0  0  0  0  0  0  0  0  0  0  0  0
  128.8450  129.5580   72.3840 C   0  0  0  0  0  0  0  0  0  0  0  0
  129.2450  128.5780   73.2900 C   0  0  0  0  0  0  0  0  0  0  0  0
  129.2910  128.9500   74.6210 O   0  0  0  0  0  0  0  0  0  0  0  0
  128.1400  128.7530   75.4350 C   0  0  0  0  0  0  0  0  0  0  0  0
  129.5690  127.3000   72.8140 C   0  0  0  0  0  0  0  0  0  0  0  0
  129.4970  127.0200   71.4520 C   0  0  0  0  0  0  0  0  0  0  0  0
  128.0830  128.2900   68.2420 C   0  0  0  0  0  0  0  0  0  0  0  0
  128.0340  127.9900   66.8760 C   0  0  0  0  0  0  0  0  0  0  0  0
  127.0240  128.6760   66.0300 C   0  0  0  0  0  0  0  0  0  0  0  0
  125.6620  128.5270   66.3020 C   0  0  0  0  0  0  0  0  0  0  0  0
  124.7130  129.1840   65.5240 C   0  0  0  0  0  0  0  0  0  0  0  0
  125.1070  130.0060   64.4680 C   0  0  0  0  0  0  0  0  0  0  0  0
  124.0970  130.6180   63.7520 O   0  0  0  0  0  0  0  0  0  0  0  0
  124.0730  130.4890   62.3350 C   0  0  0  0  0  0  0  0  0  0  0  0
  126.4760  130.1630   64.1980 C   0  0  0  0  0  0  0  0  0  0  0  0
  127.4230  129.5050   64.9790 C   0  0  0  0  0  0  0  0  0  0  0  0
  128.9640  127.0360   66.3730 C   0  0  0  0  0  0  0  0  0  0  0  0
  129.1700  126.4570   65.0690 C   0  0  0  0  0  0  0  0  0  0  0  0
  128.3810  126.7690   63.9900 N   0  0  0  0  0  0  0  0  0  0  0  0
  130.8580  121.7280   62.4020 C   0  0  0  0  0  0  0  0  0  0  0  0
  131.4700  120.7650   61.6040 C   0  0  0  0  0  0  0  0  0  0  0  0
  1  2  1  0
  2  3  1  0
  3  4  1  0
  4  5  2  0
  4  6  1  0
  6  7  2  0
  7  8  1  0
  8  9  2  0
  9 10  1  0
 10 11  1  0
 11 12  2  0
 11 13  1  0
 13 14  1  0
 14 15  1  0
 15 16  2  0
 16 17  1  0
 17 18  1  0
 18 19  2  0
 19 20  1  0
 20 21  2  0
 21 22  1  0
 22 23  1  0
 21 24  1  0
 24 25  2  0
 17 26  2  0
 26 27  1  0
 27 28  1  0
 28 29  2  0
 29 30  1  0
 30 31  2  0
 31 32  1  0
 32 33  1  0
 31 34  1  0
 34 35  2  0
 27 36  2  0
 36 37  1  0
 37 38  1  0
  9 39  1  0
 39 40  2  0
 40  6  1  0
 37 13  2  0
 36 15  1  0
 25 18  1  0
 35 28  1  0
M  END
>  <Binding energies>  (93) 
[-8.63]

>  <Ligand effiencies>  (93) 
[-0.20069767441860467]

>  <Interactions>  (93) 
["V-A:ILE:369:CG2:3236, V-B:TYR:539:CD2:9846, V-A:LEU:475:CD1:4257, H-A:SER:385:OG:3409, H-A:HIS:383:NE2:3393, V-B:ALA:541:CB:9864, V-B:TYR:539:C:9839, V-A:PRO:482:CG:4326, H-A:TYR:484:OH:4347, V-B:ASP:366:CG:8184, H-B:GLY:454:N:9021, V-B:ARG:545:CZ:9898, V-B:ILE:369:CD1:8210, V-A:GLU:543:CG:4907, V-A:GLU:543:CD:4908, V-A:SER:385:CA:3406, V-A:GLU:543:C:4902, V-B:HIS:456:CE1:9041, V-A:TYR:484:CZ:4346, V-A:HIS:456:CE1:4069, H-B:GLU:543:OE1:9881, V-B:GLU:543:CD:9880, H-B:GLU:543:OE2:9882, V-A:TYR:484:CE2:4345, V-B:ARG:545:CG:9894, H-A:GLU:543:OE1:4909, V-A:GLY:454:CA:4048, V-B:TYR:539:CB:9843, V-A:HIS:383:CE1:3392, V-B:HIS:456:CD2:9039, H-A:LYS:547:NZ:4951, V-B:ARG:545:CD:9895"]

$$$$
8c_Ghoteimi_2023
     RDKit          3D

 34 38  0  0  0  0  0  0  0  0999 V2000
  130.6140  116.5000   59.9560 C   0  0  0  0  0  0  0  0  0  0  0  0
  131.5870  117.1320   60.7800 O   0  0  0  0  0  0  0  0  0  0  0  0
  131.5370  118.5030   60.9500 C   0  0  0  0  0  0  0  0  0  0  0  0
  130.3030  119.0430   61.3050 C   0  0  0  0  0  0  0  0  0  0  0  0
  130.1590  120.4150   61.4940 C   0  0  0  0  0  0  0  0  0  0  0  0
  131.2480  121.2830   61.3330 C   0  0  0  0  0  0  0  0  0  0  0  0
  131.0990  122.7580   61.5310 C   0  0  0  0  0  0  0  0  0  0  0  0
  131.1270  123.3380   62.8030 C   0  0  0  0  0  0  0  0  0  0  0  0
  130.9870  124.7210   62.9600 C   0  0  0  0  0  0  0  0  0  0  0  0
  131.0120  125.3020   64.3220 C   0  0  0  0  0  0  0  0  0  0  0  0
  129.8200  125.5070   65.0220 C   0  0  0  0  0  0  0  0  0  0  0  0
  129.8460  126.0440   66.3050 C   0  0  0  0  0  0  0  0  0  0  0  0
  131.0580  126.3870   66.9070 C   0  0  0  0  0  0  0  0  0  0  0  0
  130.9870  126.9110   68.1830 O   0  0  0  0  0  0  0  0  0  0  0  0
  129.8490  127.6800   68.5560 C   0  0  0  0  0  0  0  0  0  0  0  0
  132.2540  126.1840   66.2010 C   0  0  0  0  0  0  0  0  0  0  0  0
  132.2280  125.6450   64.9170 C   0  0  0  0  0  0  0  0  0  0  0  0
  130.8240  125.5130   61.7930 C   0  0  0  0  0  0  0  0  0  0  0  0
  130.6600  126.9280   61.5890 C   0  0  0  0  0  0  0  0  0  0  0  0
  130.6370  127.8230   62.6300 N   0  0  0  0  0  0  0  0  0  0  0  0
  130.5300  127.2980   60.2410 C   0  0  0  0  0  0  0  0  0  0  0  0
  130.3540  128.6370   59.6750 C   0  0  0  0  0  0  0  0  0  0  0  0
  129.4260  129.3600   60.0440 O   0  0  0  0  0  0  0  0  0  0  0  0
  131.2670  128.9970   58.7400 N   0  0  0  0  0  0  0  0  0  0  0  0
  131.3290  130.2030   58.0560 C   0  0  0  0  0  0  0  0  0  0  0  0
  130.3570  131.0660   57.8500 N   0  0  0  0  0  0  0  0  0  0  0  0
  130.7740  132.1090   57.1600 C   0  0  0  0  0  0  0  0  0  0  0  0
  132.1140  132.1060   56.7880 C   0  0  0  0  0  0  0  0  0  0  0  0
  132.8610  130.6510   57.3790 S   0  0  0  0  0  0  0  0  0  0  0  0
  130.6110  125.8870   59.1830 S   0  0  0  0  0  0  0  0  0  0  0  0
  130.8170  124.8160   60.5500 C   0  0  0  0  0  0  0  0  0  0  0  0
  130.9470  123.4980   60.3990 N   0  0  0  0  0  0  0  0  0  0  0  0
  132.4870  120.7320   60.9780 C   0  0  0  0  0  0  0  0  0  0  0  0
  132.6340  119.3610   60.7870 C   0  0  0  0  0  0  0  0  0  0  0  0
  1  2  1  0
  2  3  1  0
  3  4  2  0
  4  5  1  0
  5  6  2  0
  6  7  1  0
  7  8  2  0
  8  9  1  0
  9 10  1  0
 10 11  2  0
 11 12  1  0
 12 13  2  0
 13 14  1  0
 14 15  1  0
 13 16  1  0
 16 17  2  0
  9 18  2  0
 18 19  1  0
 19 20  1  0
 19 21  2  0
 21 22  1  0
 22 23  2  0
 22 24  1  0
 24 25  1  0
 25 26  2  0
 26 27  1  0
 27 28  2  0
 28 29  1  0
 21 30  1  0
 30 31  1  0
 31 32  2  0
  6 33  1  0
 33 34  2  0
 34  3  1  0
 32  7  1  0
 17 10  1  0
 31 18  1  0
 29 25  1  0
M  END
>  <Binding energies>  (94) 
[-7.92]

>  <Ligand effiencies>  (94) 
[-0.21405405405405406]

>  <Interactions>  (94) 
["V-A:LEU:475:CD1:4257, H-A:SER:385:OG:3409, H-A:HIS:383:NE2:3393, V-B:ALA:541:CB:9864, V-A:PRO:482:CG:4326, V-A:ASP:366:CG:3212, V-A:PRO:540:N:4884, V-A:ASP:366:CB:3211, V-A:PRO:540:CA:4883, V-A:PRO:540:CB:4885, V-A:PRO:540:CD:4887, V-A:TYR:539:C:4867, V-A:LEU:363:CD1:3188, V-A:GLU:543:CD:4908, H-A:ASP:366:OD2:3214, V-A:HIS:456:CE1:4069, V-B:GLU:543:CG:9879, V-B:GLU:543:CD:9880, V-A:ARG:545:CG:4922, V-A:ARG:545:CZ:4926, V-A:GLU:543:CB:4906, V-A:PRO:540:CG:4886, H-A:GLU:543:OE1:4909, H-A:GLU:543:OE2:4910, V-B:TYR:539:CB:9843, V-A:HIS:383:CE1:3392, V-B:VAL:344:CG1:7972"]

$$$$
8d_Ghoteimi_2023
     RDKit          3D

 30 33  0  0  0  0  0  0  0  0999 V2000
  132.1900  131.5860   61.4750 C   0  0  0  0  0  0  0  0  0  0  0  0
  130.7810  131.4150   61.5390 O   0  0  0  0  0  0  0  0  0  0  0  0
  130.0570  131.1820   60.4130 C   0  0  0  0  0  0  0  0  0  0  0  0
  129.6450  132.0690   59.6620 O   0  0  0  0  0  0  0  0  0  0  0  0
  129.8080  129.7430   60.1760 C   0  0  0  0  0  0  0  0  0  0  0  0
  128.6520  129.2420   58.9410 S   0  0  0  0  0  0  0  0  0  0  0  0
  128.9450  127.5550   59.2960 C   0  0  0  0  0  0  0  0  0  0  0  0
  128.3160  126.5780   58.6420 N   0  0  0  0  0  0  0  0  0  0  0  0
  128.6180  125.3010   58.9960 C   0  0  0  0  0  0  0  0  0  0  0  0
  127.8960  124.2250   58.2490 C   0  0  0  0  0  0  0  0  0  0  0  0
  126.5540  124.3800   57.8710 C   0  0  0  0  0  0  0  0  0  0  0  0
  125.8860  123.3760   57.1770 C   0  0  0  0  0  0  0  0  0  0  0  0
  126.5390  122.1900   56.8430 C   0  0  0  0  0  0  0  0  0  0  0  0
  125.7990  121.2500   56.1530 O   0  0  0  0  0  0  0  0  0  0  0  0
  125.0150  121.6640   55.0390 C   0  0  0  0  0  0  0  0  0  0  0  0
  127.8820  122.0250   57.2130 C   0  0  0  0  0  0  0  0  0  0  0  0
  128.5470  123.0330   57.9070 C   0  0  0  0  0  0  0  0  0  0  0  0
  129.5400  125.0040   60.0050 C   0  0  0  0  0  0  0  0  0  0  0  0
  130.2010  126.0280   60.6890 C   0  0  0  0  0  0  0  0  0  0  0  0
  131.1780  125.6820   61.7470 C   0  0  0  0  0  0  0  0  0  0  0  0
  130.9100  125.9970   63.0810 C   0  0  0  0  0  0  0  0  0  0  0  0
  131.8320  125.6790   64.0750 C   0  0  0  0  0  0  0  0  0  0  0  0
  133.0300  125.0410   63.7520 C   0  0  0  0  0  0  0  0  0  0  0  0
  133.8850  124.7660   64.8020 O   0  0  0  0  0  0  0  0  0  0  0  0
  133.6510  125.3760   66.0660 C   0  0  0  0  0  0  0  0  0  0  0  0
  133.2960  124.7210   62.4100 C   0  0  0  0  0  0  0  0  0  0  0  0
  132.3730  125.0400   61.4180 C   0  0  0  0  0  0  0  0  0  0  0  0
  129.9030  127.3700   60.3340 C   0  0  0  0  0  0  0  0  0  0  0  0
  130.3780  128.6370   60.8170 C   0  0  0  0  0  0  0  0  0  0  0  0
  131.3050  128.7430   61.8230 N   0  0  0  0  0  0  0  0  0  0  0  0
  1  2  1  0
  2  3  1  0
  3  4  2  0
  3  5  1  0
  5  6  1  0
  6  7  1  0
  7  8  2  0
  8  9  1  0
  9 10  1  0
 10 11  2  0
 11 12  1  0
 12 13  2  0
 13 14  1  0
 14 15  1  0
 13 16  1  0
 16 17  2  0
  9 18  2  0
 18 19  1  0
 19 20  1  0
 20 21  2  0
 21 22  1  0
 22 23  2  0
 23 24  1  0
 24 25  1  0
 23 26  1  0
 26 27  2  0
 19 28  2  0
 28 29  1  0
 29 30  1  0
 29  5  2  0
 28  7  1  0
 17 10  1  0
 27 20  1  0
M  END
>  <Binding energies>  (95) 
[-7.56]

>  <Ligand effiencies>  (95) 
[-0.23625]

>  <Interactions>  (95) 
["V-B:PRO:540:CB:9857, V-B:MET:535:CE:9807, V-B:TYR:539:CD2:9846, V-B:PRO:540:N:9856, V-B:PRO:540:CA:9855, H-B:TYR:539:N:9842, V-B:TYR:539:CE2:9848, V-B:MET:535:CG:9805, V-B:TYR:539:C:9839, V-B:TYR:531:CE2:9765, V-B:LEU:363:CD1:8160, V-B:TYR:539:CA:9841, H-A:TYR:484:OH:4347, V-A:ASP:366:CG:3212, H-A:GLY:454:N:4049, V-B:PRO:540:CD:9859, V-A:PRO:540:CA:4883, V-A:PRO:540:CB:4885, V-A:PRO:540:C:4881, V-A:GLU:543:CD:4908, H-A:ASP:366:OD2:3214, V-B:TYR:539:CZ:9849, V-B:TYR:539:CG:9844, V-A:ARG:545:CD:4923, V-B:TYR:539:CE1:9847, V-B:TYR:539:CD1:9845, V-A:ARG:545:CG:4922, V-A:ARG:545:CZ:4926, H-A:ALA:541:N:4891, V-B:ILE:538:CA:9832, V-B:ILE:538:CG1:9836, V-B:ILE:538:CG2:9835, V-B:ILE:538:C:9830, V-B:ILE:538:CB:9834, H-A:GLU:543:OE1:4909, H-A:GLU:543:OE2:4910, H-A:ASP:366:OD1:3213"]

$$$$
9a_Ghoteimi_2023
     RDKit          3D

 48 54  0  0  0  0  0  0  0  0999 V2000
  130.8700  131.7280   54.9580 C   0  0  0  0  0  0  0  0  0  0  0  0
  129.8290  131.2970   53.9200 C   0  0  0  0  0  0  0  0  0  0  0  0
  128.5290  131.6490   54.3780 O   0  0  0  0  0  0  0  0  0  0  0  0
  127.6440  130.6980   54.7720 C   0  0  0  0  0  0  0  0  0  0  0  0
  126.7580  130.2480   54.0390 O   0  0  0  0  0  0  0  0  0  0  0  0
  127.8440  130.2520   56.1920 C   0  0  0  0  0  0  0  0  0  0  0  0
  127.1600  129.1220   56.6580 C   0  0  0  0  0  0  0  0  0  0  0  0
  127.3220  128.6840   57.9690 C   0  0  0  0  0  0  0  0  0  0  0  0
  128.1720  129.3650   58.8410 C   0  0  0  0  0  0  0  0  0  0  0  0
  128.2590  128.8330   60.1430 N   0  0  0  0  0  0  0  0  0  0  0  0
  127.2830  128.4160   60.9880 C   0  0  0  0  0  0  0  0  0  0  0  0
  126.0810  128.4400   60.7230 O   0  0  0  0  0  0  0  0  0  0  0  0
  127.7510  127.9080   62.2810 C   0  0  0  0  0  0  0  0  0  0  0  0
  127.4940  128.8470   63.7520 S   0  0  0  0  0  0  0  0  0  0  0  0
  128.2700  127.6190   64.7250 C   0  0  0  0  0  0  0  0  0  0  0  0
  128.3820  127.7430   66.0470 N   0  0  0  0  0  0  0  0  0  0  0  0
  128.9920  126.7270   66.7130 C   0  0  0  0  0  0  0  0  0  0  0  0
  129.0970  126.8820   68.1950 C   0  0  0  0  0  0  0  0  0  0  0  0
  129.5950  128.0650   68.7530 C   0  0  0  0  0  0  0  0  0  0  0  0
  129.6960  128.2190   70.1330 C   0  0  0  0  0  0  0  0  0  0  0  0
  129.2890  127.2000   71.0080 C   0  0  0  0  0  0  0  0  0  0  0  0
  129.4020  127.3330   72.3960 N   0  0  0  0  0  0  0  0  0  0  0  0
  130.6130  126.8940   73.1170 C   0  0  0  0  0  0  0  0  0  0  0  0
  130.4220  126.7790   74.6440 C   0  0  0  0  0  0  0  0  0  0  0  0
  129.9340  128.0030   75.1670 O   0  0  0  0  0  0  0  0  0  0  0  0
  128.6820  128.3500   74.5950 C   0  0  0  0  0  0  0  0  0  0  0  0
  128.8280  128.5160   73.0690 C   0  0  0  0  0  0  0  0  0  0  0  0
  128.8040  126.0110   70.4440 C   0  0  0  0  0  0  0  0  0  0  0  0
  128.7070  125.8570   69.0640 C   0  0  0  0  0  0  0  0  0  0  0  0
  129.5090  125.6090   66.0540 C   0  0  0  0  0  0  0  0  0  0  0  0
  129.4110  125.4840   64.6640 C   0  0  0  0  0  0  0  0  0  0  0  0
  130.0100  124.2920   64.0100 C   0  0  0  0  0  0  0  0  0  0  0  0
  131.3940  124.1020   64.0080 C   0  0  0  0  0  0  0  0  0  0  0  0
  131.9520  122.9780   63.4070 C   0  0  0  0  0  0  0  0  0  0  0  0
  131.1390  122.0030   62.8080 C   0  0  0  0  0  0  0  0  0  0  0  0
  131.6770  120.8720   62.1890 N   0  0  0  0  0  0  0  0  0  0  0  0
  132.9410  120.9970   61.4350 C   0  0  0  0  0  0  0  0  0  0  0  0
  133.6100  119.6380   61.1360 C   0  0  0  0  0  0  0  0  0  0  0  0
  132.6990  118.7860   60.4600 O   0  0  0  0  0  0  0  0  0  0  0  0
  131.5380  118.5380   61.2360 C   0  0  0  0  0  0  0  0  0  0  0  0
  130.8130  119.8670   61.5380 C   0  0  0  0  0  0  0  0  0  0  0  0
  129.7510  122.2020   62.8190 C   0  0  0  0  0  0  0  0  0  0  0  0
  129.1930  123.3280   63.4160 C   0  0  0  0  0  0  0  0  0  0  0  0
  128.7430  126.5200   63.9510 C   0  0  0  0  0  0  0  0  0  0  0  0
  128.4120  126.7010   62.5590 C   0  0  0  0  0  0  0  0  0  0  0  0
  128.7070  125.7640   61.6020 N   0  0  0  0  0  0  0  0  0  0  0  0
  128.8650  130.4960   58.3830 C   0  0  0  0  0  0  0  0  0  0  0  0
  128.7000  130.9330   57.0710 C   0  0  0  0  0  0  0  0  0  0  0  0
  1  2  1  0
  2  3  1  0
  3  4  1  0
  4  5  2  0
  4  6  1  0
  6  7  2  0
  7  8  1  0
  8  9  2  0
  9 10  1  0
 10 11  1  0
 11 12  2  0
 11 13  1  0
 13 14  1  0
 14 15  1  0
 15 16  2  0
 16 17  1  0
 17 18  1  0
 18 19  2  0
 19 20  1  0
 20 21  2  0
 21 22  1  0
 22 23  1  0
 23 24  1  0
 24 25  1  0
 25 26  1  0
 26 27  1  0
 21 28  1  0
 28 29  2  0
 17 30  2  0
 30 31  1  0
 31 32  1  0
 32 33  2  0
 33 34  1  0
 34 35  2  0
 35 36  1  0
 36 37  1  0
 37 38  1  0
 38 39  1  0
 39 40  1  0
 40 41  1  0
 35 42  1  0
 42 43  2  0
 31 44  2  0
 44 45  1  0
 45 46  1  0
  9 47  1  0
 47 48  2  0
 48  6  1  0
 45 13  2  0
 44 15  1  0
 29 18  1  0
 43 32  1  0
 27 22  1  0
 41 36  1  0
M  END
>  <Binding energies>  (96) 
[-9.53]

>  <Ligand effiencies>  (96) 
[-0.1868627450980392]

>  <Interactions>  (96) 
["V-A:ILE:369:CG2:3236, V-A:LEU:475:CD1:4257, H-A:SER:385:OG:3409, H-A:HIS:383:NE2:3393, V-B:ALA:541:CB:9864, V-A:PRO:482:CG:4326, V-B:TYR:531:CZ:9766, V-A:ILE:538:CA:4860, V-A:ILE:538:CG2:4863, V-A:TYR:539:CD1:4873, V-A:TYR:539:CZ:4877, V-A:TYR:539:CE1:4875, V-A:ILE:538:CB:4862, V-B:TYR:531:CE1:9764, H-B:LYS:534:NZ:9795, V-A:GLU:543:CD:4908, V-A:SER:385:CA:3406, H-A:TYR:539:OH:4878, V-A:SER:385:C:3404, V-A:GLU:543:C:4902, V-B:HIS:456:CE1:9041, V-A:HIS:456:CE1:4069, V-B:GLU:543:CB:9878, V-B:GLU:543:CG:9879, V-B:GLU:543:CD:9880, V-A:GLU:543:CB:4906, V-B:GLU:543:CA:9876, V-B:GLU:543:C:9874, V-B:HIS:456:CD2:9039, H-A:LYS:547:NZ:4951, V-A:HIS:456:CG:4065, V-A:HIS:456:CD2:4067"]

$$$$
9b_Ghoteimi_2023
     RDKit          3D

 42 48  0  0  0  0  0  0  0  0999 V2000
  129.2420  124.3700   61.1980 N   0  0  0  0  0  0  0  0  0  0  0  0
  129.4190  123.9350   62.4870 C   0  0  0  0  0  0  0  0  0  0  0  0
  129.6380  122.5900   62.8260 C   0  0  0  0  0  0  0  0  0  0  0  0
  129.7450  121.4300   61.9380 C   0  0  0  0  0  0  0  0  0  0  0  0
  128.8930  121.2190   61.0730 O   0  0  0  0  0  0  0  0  0  0  0  0
  130.8230  120.6330   62.1480 N   0  0  0  0  0  0  0  0  0  0  0  0
  131.1630  119.4710   61.4670 C   0  0  0  0  0  0  0  0  0  0  0  0
  130.2360  118.4850   61.1360 C   0  0  0  0  0  0  0  0  0  0  0  0
  130.9610  117.5190   60.4760 C   0  0  0  0  0  0  0  0  0  0  0  0
  132.2580  117.9050   60.4140 O   0  0  0  0  0  0  0  0  0  0  0  0
  132.3730  119.1440   61.0460 N   0  0  0  0  0  0  0  0  0  0  0  0
  129.7890  122.3900   64.5710 S   0  0  0  0  0  0  0  0  0  0  0  0
  129.5410  124.0990   64.8350 C   0  0  0  0  0  0  0  0  0  0  0  0
  129.5160  124.6200   66.0610 N   0  0  0  0  0  0  0  0  0  0  0  0
  129.2980  125.9580   66.1580 C   0  0  0  0  0  0  0  0  0  0  0  0
  129.2540  126.5130   67.5450 C   0  0  0  0  0  0  0  0  0  0  0  0
  128.8500  125.7240   68.6280 C   0  0  0  0  0  0  0  0  0  0  0  0
  128.7960  126.2500   69.9150 C   0  0  0  0  0  0  0  0  0  0  0  0
  129.1320  127.5900   70.1640 C   0  0  0  0  0  0  0  0  0  0  0  0
  129.0860  128.1330   71.4530 N   0  0  0  0  0  0  0  0  0  0  0  0
  128.6930  129.5380   71.6830 C   0  0  0  0  0  0  0  0  0  0  0  0
  128.3640  129.8610   73.1550 C   0  0  0  0  0  0  0  0  0  0  0  0
  129.4540  129.4960   73.9860 O   0  0  0  0  0  0  0  0  0  0  0  0
  129.7310  128.1080   73.9020 C   0  0  0  0  0  0  0  0  0  0  0  0
  130.0980  127.7270   72.4510 C   0  0  0  0  0  0  0  0  0  0  0  0
  129.5550  128.3700   69.0790 C   0  0  0  0  0  0  0  0  0  0  0  0
  129.6120  127.8420   67.7920 C   0  0  0  0  0  0  0  0  0  0  0  0
  129.1350  126.7710   65.0340 C   0  0  0  0  0  0  0  0  0  0  0  0
  129.1810  126.2310   63.7430 C   0  0  0  0  0  0  0  0  0  0  0  0
  129.0310  127.1430   62.5800 C   0  0  0  0  0  0  0  0  0  0  0  0
  127.7620  127.4950   62.1200 C   0  0  0  0  0  0  0  0  0  0  0  0
  127.6180  128.3640   61.0430 C   0  0  0  0  0  0  0  0  0  0  0  0
  128.7400  128.9040   60.3960 C   0  0  0  0  0  0  0  0  0  0  0  0
  128.6190  129.7910   59.3230 N   0  0  0  0  0  0  0  0  0  0  0  0
  129.5440  130.9360   59.2230 C   0  0  0  0  0  0  0  0  0  0  0  0
  129.0570  132.0290   58.2480 C   0  0  0  0  0  0  0  0  0  0  0  0
  128.8170  131.4650   56.9680 O   0  0  0  0  0  0  0  0  0  0  0  0
  127.8270  130.4480   57.0190 C   0  0  0  0  0  0  0  0  0  0  0  0
  128.2800  129.3170   57.9660 C   0  0  0  0  0  0  0  0  0  0  0  0
  130.0100  128.5580   60.8790 C   0  0  0  0  0  0  0  0  0  0  0  0
  130.1540  127.6880   61.9570 C   0  0  0  0  0  0  0  0  0  0  0  0
  129.3730  124.8260   63.6190 C   0  0  0  0  0  0  0  0  0  0  0  0
  1  2  1  0
  2  3  2  0
  3  4  1  0
  4  5  2  0
  4  6  1  0
  6  7  1  0
  7  8  1  0
  8  9  2  0
  9 10  1  0
 10 11  1  0
  3 12  1  0
 12 13  1  0
 13 14  2  0
 14 15  1  0
 15 16  1  0
 16 17  2  0
 17 18  1  0
 18 19  2  0
 19 20  1  0
 20 21  1  0
 21 22  1  0
 22 23  1  0
 23 24  1  0
 24 25  1  0
 19 26  1  0
 26 27  2  0
 15 28  2  0
 28 29  1  0
 29 30  1  0
 30 31  2  0
 31 32  1  0
 32 33  2  0
 33 34  1  0
 34 35  1  0
 35 36  1  0
 36 37  1  0
 37 38  1  0
 38 39  1  0
 33 40  1  0
 40 41  2  0
 29 42  2  0
 42  2  1  0
 11  7  2  0
 42 13  1  0
 27 16  1  0
 41 30  1  0
 25 20  1  0
 39 34  1  0
M  END
>  <Binding energies>  (97) 
[-8.39]

>  <Ligand effiencies>  (97) 
[-0.18644444444444447]

>  <Interactions>  (97) 
["H-B:ALA:541:N:9863, V-A:LEU:475:CD1:4257, H-A:SER:385:OG:3409, H-A:HIS:383:NE2:3393, V-B:ALA:541:CB:9864, V-B:TYR:539:C:9839, V-A:PRO:482:CG:4326, V-A:PRO:482:CB:4325, H-A:TYR:484:OH:4347, V-A:PRO:540:N:4884, V-A:TYR:539:CD1:4873, V-A:PRO:540:CA:4883, V-A:TYR:539:CZ:4877, V-A:TYR:539:CE1:4875, V-A:TYR:539:C:4867, V-A:GLU:543:CG:4907, V-A:GLU:543:CD:4908, V-A:GLU:543:C:4902, V-B:HIS:456:CE1:9041, V-A:HIS:456:CE1:4069, V-B:GLU:543:CB:9878, V-B:GLU:543:CG:9879, V-B:GLU:543:CD:9880, V-A:GLU:543:CB:4906, V-A:TYR:484:CE2:4345, V-B:GLU:543:CA:9876, V-B:GLU:543:C:9874, V-A:HIS:383:CE1:3392, V-B:HIS:456:CD2:9039, H-A:LYS:547:NZ:4951, V-A:LYS:547:CE:4950, V-B:HIS:456:CG:9037"]

$$$$
9c_Ghoteimi_2023
     RDKit          3D

 42 48  0  0  0  0  0  0  0  0999 V2000
  128.4130  128.5310   66.9460 N   0  0  0  0  0  0  0  0  0  0  0  0
  128.8730  127.2480   67.1000 C   0  0  0  0  0  0  0  0  0  0  0  0
  129.1590  126.6730   68.3480 C   0  0  0  0  0  0  0  0  0  0  0  0
  129.0200  127.2670   69.6810 C   0  0  0  0  0  0  0  0  0  0  0  0
  129.0450  128.4900   69.8320 O   0  0  0  0  0  0  0  0  0  0  0  0
  128.8730  126.3840   70.6980 N   0  0  0  0  0  0  0  0  0  0  0  0
  128.7380  126.6800   72.0480 C   0  0  0  0  0  0  0  0  0  0  0  0
  127.9050  126.1440   72.9130 N   0  0  0  0  0  0  0  0  0  0  0  0
  128.0480  126.6720   74.1140 C   0  0  0  0  0  0  0  0  0  0  0  0
  129.0170  127.6630   74.2390 C   0  0  0  0  0  0  0  0  0  0  0  0
  129.7770  127.9090   72.6950 S   0  0  0  0  0  0  0  0  0  0  0  0
  129.7570  125.0240   68.1680 S   0  0  0  0  0  0  0  0  0  0  0  0
  129.6380  125.1220   66.4280 C   0  0  0  0  0  0  0  0  0  0  0  0
  130.0030  124.1080   65.6450 N   0  0  0  0  0  0  0  0  0  0  0  0
  129.8870  124.2920   64.3040 C   0  0  0  0  0  0  0  0  0  0  0  0
  130.3230  123.1460   63.4480 C   0  0  0  0  0  0  0  0  0  0  0  0
  129.4060  122.4360   62.6660 C   0  0  0  0  0  0  0  0  0  0  0  0
  129.8150  121.3640   61.8780 C   0  0  0  0  0  0  0  0  0  0  0  0
  131.1580  120.9540   61.8550 C   0  0  0  0  0  0  0  0  0  0  0  0
  131.5870  119.8830   61.0620 N   0  0  0  0  0  0  0  0  0  0  0  0
  132.5780  120.0730   59.9840 C   0  0  0  0  0  0  0  0  0  0  0  0
  133.1880  118.7560   59.4590 C   0  0  0  0  0  0  0  0  0  0  0  0
  132.1550  117.8750   59.0480 O   0  0  0  0  0  0  0  0  0  0  0  0
  131.2910  117.5500   60.1250 C   0  0  0  0  0  0  0  0  0  0  0  0
  130.6250  118.8300   60.6760 C   0  0  0  0  0  0  0  0  0  0  0  0
  132.0760  121.6820   62.6260 C   0  0  0  0  0  0  0  0  0  0  0  0
  131.6660  122.7560   63.4100 C   0  0  0  0  0  0  0  0  0  0  0  0
  129.3840  125.4720   63.7530 C   0  0  0  0  0  0  0  0  0  0  0  0
  128.9790  126.5320   64.5720 C   0  0  0  0  0  0  0  0  0  0  0  0
  128.4220  127.7540   63.9400 C   0  0  0  0  0  0  0  0  0  0  0  0
  129.0840  128.3590   62.8710 C   0  0  0  0  0  0  0  0  0  0  0  0
  128.5550  129.4950   62.2640 C   0  0  0  0  0  0  0  0  0  0  0  0
  127.3500  130.0570   62.7130 C   0  0  0  0  0  0  0  0  0  0  0  0
  126.7950  131.1910   62.1120 N   0  0  0  0  0  0  0  0  0  0  0  0
  127.6830  132.1470   61.4200 C   0  0  0  0  0  0  0  0  0  0  0  0
  127.0160  133.5140   61.1540 C   0  0  0  0  0  0  0  0  0  0  0  0
  125.8100  133.3330   60.4280 O   0  0  0  0  0  0  0  0  0  0  0  0
  124.8860  132.5250   61.1390 C   0  0  0  0  0  0  0  0  0  0  0  0
  125.4980  131.1330   61.4100 C   0  0  0  0  0  0  0  0  0  0  0  0
  126.6830  129.4290   63.7750 C   0  0  0  0  0  0  0  0  0  0  0  0
  127.2110  128.2930   64.3810 C   0  0  0  0  0  0  0  0  0  0  0  0
  129.1240  126.3750   65.9800 C   0  0  0  0  0  0  0  0  0  0  0  0
  1  2  1  0
  2  3  2  0
  3  4  1  0
  4  5  2  0
  4  6  1  0
  6  7  1  0
  7  8  2  0
  8  9  1  0
  9 10  2  0
 10 11  1  0
  3 12  1  0
 12 13  1  0
 13 14  2  0
 14 15  1  0
 15 16  1  0
 16 17  2  0
 17 18  1  0
 18 19  2  0
 19 20  1  0
 20 21  1  0
 21 22  1  0
 22 23  1  0
 23 24  1  0
 24 25  1  0
 19 26  1  0
 26 27  2  0
 15 28  2  0
 28 29  1  0
 29 30  1  0
 30 31  2  0
 31 32  1  0
 32 33  2  0
 33 34  1  0
 34 35  1  0
 35 36  1  0
 36 37  1  0
 37 38  1  0
 38 39  1  0
 33 40  1  0
 40 41  2  0
 29 42  2  0
 42  2  1  0
 11  7  1  0
 42 13  1  0
 27 16  1  0
 41 30  1  0
 25 20  1  0
 39 34  1  0
M  END
>  <Binding energies>  (98) 
[-8.6]

>  <Ligand effiencies>  (98) 
[-0.1911111111111111]

>  <Interactions>  (98) 
["V-A:ILE:369:CG2:3236, V-B:TYR:539:CD2:9846, V-A:LEU:475:CD1:4257, H-A:HIS:383:NE2:3393, V-B:ALA:541:CB:9864, V-B:TYR:539:CE2:9848, V-B:TYR:539:C:9839, V-A:PRO:482:CG:4326, H-A:TYR:484:OH:4347, V-A:TYR:539:CD1:4873, V-A:ALA:541:CB:4892, V-B:ILE:369:CD1:8210, V-A:GLU:543:CG:4907, V-A:GLU:543:CD:4908, V-B:HIS:456:CE1:9041, V-A:TYR:484:CZ:4346, V-A:HIS:456:CE1:4069, V-B:GLU:543:CB:9878, V-B:GLU:543:CG:9879, V-B:GLU:543:CD:9880, V-A:GLU:543:CB:4906, V-A:TYR:484:CE2:4345, V-B:ILE:369:CG2:8208, H-A:GLU:543:OE1:4909, V-A:HIS:383:CE1:3392, V-A:HIS:383:CD2:3391, H-A:HIS:456:NE2:4070, V-B:HIS:456:CD2:9039, H-B:HIS:456:NE2:9042, H-B:GLU:543:O:9875"]

$$$$
RR11_Rahimova_2017
     RDKit          3D

 33 38  0  0  0  0  0  0  0  0999 V2000
  132.8860  125.4030   55.5510 N   0  0  0  0  0  0  0  0  0  0  0  0
  131.7750  126.0790   56.0510 C   0  0  0  0  0  0  0  0  0  0  0  0
  131.9390  127.0430   57.0440 C   0  0  0  0  0  0  0  0  0  0  0  0
  130.8280  127.7200   57.5400 C   0  0  0  0  0  0  0  0  0  0  0  0
  129.5460  127.4410   57.0500 C   0  0  0  0  0  0  0  0  0  0  0  0
  128.3510  128.1750   57.5820 C   0  0  0  0  0  0  0  0  0  0  0  0
  128.1990  128.5360   58.8380 N   0  0  0  0  0  0  0  0  0  0  0  0
  126.9920  129.1830   58.8850 C   0  0  0  0  0  0  0  0  0  0  0  0
  126.3480  129.7760   59.9790 C   0  0  0  0  0  0  0  0  0  0  0  0
  125.1120  130.4000   59.7660 C   0  0  0  0  0  0  0  0  0  0  0  0
  124.3850  131.0480   60.9370 C   0  0  0  0  0  0  0  0  0  0  0  0
  125.1450  130.9220   62.2500 C   0  0  0  0  0  0  0  0  0  0  0  0
  125.6840  132.0670   62.8460 C   0  0  0  0  0  0  0  0  0  0  0  0
  126.3810  132.0040   64.0550 C   0  0  0  0  0  0  0  0  0  0  0  0
  126.5250  130.7540   64.6690 C   0  0  0  0  0  0  0  0  0  0  0  0
  127.1620  130.4290   65.8380 N   0  0  0  0  0  0  0  0  0  0  0  0
  127.0150  129.1280   65.9650 C   0  0  0  0  0  0  0  0  0  0  0  0
  127.5680  128.3170   67.1010 C   0  0  0  0  0  0  0  0  0  0  0  0
  128.7370  128.7200   67.7590 C   0  0  0  0  0  0  0  0  0  0  0  0
  129.2570  127.9630   68.8060 C   0  0  0  0  0  0  0  0  0  0  0  0
  128.6090  126.7950   69.2030 C   0  0  0  0  0  0  0  0  0  0  0  0
  129.1310  126.0340   70.2480 N   0  0  0  0  0  0  0  0  0  0  0  0
  127.4440  126.3840   68.5610 C   0  0  0  0  0  0  0  0  0  0  0  0
  126.9250  127.1420   67.5150 C   0  0  0  0  0  0  0  0  0  0  0  0
  126.2950  128.5860   64.9210 N   0  0  0  0  0  0  0  0  0  0  0  0
  125.9630  129.6060   64.0610 C   0  0  0  0  0  0  0  0  0  0  0  0
  125.2610  129.6630   62.8540 C   0  0  0  0  0  0  0  0  0  0  0  0
  124.5260  130.4060   58.4950 C   0  0  0  0  0  0  0  0  0  0  0  0
  125.1410  129.8190   57.3860 C   0  0  0  0  0  0  0  0  0  0  0  0
  126.3810  129.2150   57.6090 C   0  0  0  0  0  0  0  0  0  0  0  0
  127.2790  128.5570   56.8020 N   0  0  0  0  0  0  0  0  0  0  0  0
  129.3960  126.4680   56.0530 C   0  0  0  0  0  0  0  0  0  0  0  0
  130.5050  125.7890   55.5540 C   0  0  0  0  0  0  0  0  0  0  0  0
  1  2  1  0
  2  3  2  0
  3  4  1  0
  4  5  2  0
  5  6  1  0
  6  7  2  0
  7  8  1  0
  8  9  2  0
  9 10  1  0
 10 11  1  0
 11 12  1  0
 12 13  2  0
 13 14  1  0
 14 15  2  0
 15 16  1  0
 16 17  2  0
 17 18  1  0
 18 19  2  0
 19 20  1  0
 20 21  2  0
 21 22  1  0
 21 23  1  0
 23 24  2  0
 17 25  1  0
 25 26  1  0
 26 27  2  0
 10 28  2  0
 28 29  1  0
 29 30  2  0
 30 31  1  0
  5 32  1  0
 32 33  2  0
 33  2  1  0
 31  6  1  0
 30  8  1  0
 27 12  1  0
 26 15  1  0
 24 18  1  0
M  END
>  <Binding energies>  (99) 
[-8.64]

>  <Ligand effiencies>  (99) 
[-0.22153846153846155]

>  <Interactions>  (99) 
["H-B:TYR:531:OH:9767, V-B:MET:535:CE:9807, V-B:TYR:531:CZ:9766, V-A:ASP:366:CG:3212, V-A:TYR:531:CE1:4792, V-A:ASP:366:CB:3211, V-A:ASN:370:CB:3244, V-A:ASP:366:C:3207, H-B:TYR:539:OH:9850, H-A:TYR:531:OH:4795, V-A:TYR:539:CZ:4877, V-A:TYR:539:CE1:4875, V-A:TYR:531:CZ:4794, V-B:ASP:366:CG:8184, V-B:TYR:531:CE1:9764, V-B:ASP:366:CB:8183, V-B:ARG:545:CZ:9898, V-B:ASP:366:CA:8181, V-B:ILE:369:CD1:8210, V-A:GLU:543:CG:4907, V-A:GLU:543:CD:4908, H-B:TYR:484:OH:9319, V-B:ASP:366:C:8179, V-B:HIS:456:CE1:9041, V-A:HIS:456:CE1:4069, V-B:GLU:543:CB:9878, H-B:GLU:543:OE1:9881, V-B:GLU:543:CD:9880, H-B:GLU:543:OE2:9882, V-A:GLU:543:CB:4906, V-B:LEU:475:CD1:9229, V-B:ILE:369:CG2:8208, V-B:GLU:543:CA:9876, V-B:GLU:543:C:9874, V-B:ARG:545:CG:9894, H-A:ASN:370:OD1:3246, H-A:ASP:366:O:3208, H-A:HIS:456:NE2:4070, V-A:ASN:370:CG:3245, H-B:HIS:456:NE2:9042, H-B:GLU:543:O:9875"]

$$$$
RR16_Rahimova_2017
     RDKit          3D

 44 49  0  0  0  0  0  0  0  0999 V2000
  132.9080  122.6370   64.2010 O   0  0  0  0  0  0  0  0  0  0  0  0
  133.4700  123.1790   62.9580 S   0  0  0  0  0  0  0  0  0  0  0  0
  134.7310  122.6610   62.4140 O   0  0  0  0  0  0  0  0  0  0  0  0
  133.6380  124.9230   63.1660 N   0  0  0  0  0  0  0  0  0  0  0  0
  132.7360  125.6720   64.0730 C   0  0  0  0  0  0  0  0  0  0  0  0
  131.2690  125.2570   63.7890 C   0  0  0  0  0  0  0  0  0  0  0  0
  130.1810  125.8170   64.7260 C   0  0  0  0  0  0  0  0  0  0  0  0
  130.1710  125.1740   66.1240 C   0  0  0  0  0  0  0  0  0  0  0  0
  131.1720  125.7580   67.1380 C   0  0  0  0  0  0  0  0  0  0  0  0
  132.4920  126.3240   66.5790 C   0  0  0  0  0  0  0  0  0  0  0  0
  133.2210  125.4650   65.5270 C   0  0  0  0  0  0  0  0  0  0  0  0
  132.2120  122.9990   61.6990 C   0  0  0  0  0  0  0  0  0  0  0  0
  132.4100  123.5330   60.4240 C   0  0  0  0  0  0  0  0  0  0  0  0
  131.3760  123.4930   59.4920 C   0  0  0  0  0  0  0  0  0  0  0  0
  130.1510  122.9210   59.8400 C   0  0  0  0  0  0  0  0  0  0  0  0
  128.7750  122.9950   58.6940 S   0  0  0  0  0  0  0  0  0  0  0  0
  127.5410  122.8930   59.4840 O   0  0  0  0  0  0  0  0  0  0  0  0
  129.0480  122.0360   57.6170 O   0  0  0  0  0  0  0  0  0  0  0  0
  128.8660  124.6310   58.0130 N   0  0  0  0  0  0  0  0  0  0  0  0
  129.3730  124.6900   56.6180 C   0  0  0  0  0  0  0  0  0  0  0  0
  129.7110  126.1430   56.2270 C   0  0  0  0  0  0  0  0  0  0  0  0
  128.5160  127.0970   56.4770 C   0  0  0  0  0  0  0  0  0  0  0  0
  128.8460  128.5530   56.1380 C   0  0  0  0  0  0  0  0  0  0  0  0
  127.9180  129.3310   55.4310 C   0  0  0  0  0  0  0  0  0  0  0  0
  128.1740  130.6640   55.1080 C   0  0  0  0  0  0  0  0  0  0  0  0
  127.2530  131.4100   54.4190 O   0  0  0  0  0  0  0  0  0  0  0  0
  129.3970  131.2210   55.5130 C   0  0  0  0  0  0  0  0  0  0  0  0
  129.9040  132.4790   55.3590 N   0  0  0  0  0  0  0  0  0  0  0  0
  131.1370  132.5070   55.9730 N   0  0  0  0  0  0  0  0  0  0  0  0
  131.4000  131.2770   56.4560 N   0  0  0  0  0  0  0  0  0  0  0  0
  132.6080  131.0380   57.2350 C   0  0  0  0  0  0  0  0  0  0  0  0
  132.3700  131.1370   58.7350 C   0  0  0  0  0  0  0  0  0  0  0  0
  133.4480  131.0600   59.6240 C   0  0  0  0  0  0  0  0  0  0  0  0
  133.2340  131.1730   60.9980 C   0  0  0  0  0  0  0  0  0  0  0  0
  131.9430  131.3650   61.4910 C   0  0  0  0  0  0  0  0  0  0  0  0
  130.8650  131.4460   60.6100 C   0  0  0  0  0  0  0  0  0  0  0  0
  129.2680  131.6940   61.2160 Cl  0  0  0  0  0  0  0  0  0  0  0  0
  131.0770  131.3280   59.2350 C   0  0  0  0  0  0  0  0  0  0  0  0
  130.3310  130.4280   56.2200 C   0  0  0  0  0  0  0  0  0  0  0  0
  130.0780  129.0900   56.5410 C   0  0  0  0  0  0  0  0  0  0  0  0
  127.9180  126.9320   57.8980 C   0  0  0  0  0  0  0  0  0  0  0  0
  127.6480  125.4530   58.2400 C   0  0  0  0  0  0  0  0  0  0  0  0
  129.9690  122.3510   61.1020 C   0  0  0  0  0  0  0  0  0  0  0  0
  131.0000  122.3930   62.0340 C   0  0  0  0  0  0  0  0  0  0  0  0
  1  2  2  0
  2  3  2  0
  2  4  1  0
  4  5  1  0
  5  6  1  0
  6  7  1  0
  7  8  1  0
  8  9  1  0
  9 10  1  0
 10 11  1  0
  2 12  1  0
 12 13  2  0
 13 14  1  0
 14 15  2  0
 15 16  1  0
 16 17  2  0
 16 18  2  0
 16 19  1  0
 19 20  1  0
 20 21  1  0
 21 22  1  0
 22 23  1  0
 23 24  2  0
 24 25  1  0
 25 26  1  0
 25 27  2  0
 27 28  1  0
 28 29  2  0
 29 30  1  0
 30 31  1  0
 31 32  1  0
 32 33  2  0
 33 34  1  0
 34 35  2  0
 35 36  1  0
 36 37  1  0
 36 38  2  0
 30 39  1  0
 39 40  2  0
 22 41  1  0
 41 42  1  0
 15 43  1  0
 43 44  2  0
 11  5  1  0
 44 12  1  0
 42 19  1  0
 40 23  1  0
 39 27  1  0
 38 32  1  0
M  END
>  <Binding energies>  (100) 
[-12.07]

>  <Ligand effiencies>  (100) 
[-0.25145833333333334]

>  <Interactions>  (100) 
["V-B:MET:535:CE:9807, V-B:TYR:539:CE2:9848, H-A:TYR:484:OH:4347, V-A:ASP:366:CG:3212, H-A:GLY:454:N:4049, V-A:PRO:540:N:4884, V-A:PRO:540:CA:4883, H-A:TYR:539:N:4870, V-A:TYR:539:CZ:4877, V-A:PRO:540:CB:4885, V-A:TYR:539:CE1:4875, V-B:TYR:531:CE1:9764, H-B:LYS:534:NZ:9795, V-A:ALA:541:CB:4892, V-A:PRO:540:C:4881, V-A:LEU:363:CD1:3188, V-A:GLU:543:CD:4908, V-B:TYR:539:CZ:9849, H-A:TYR:539:OH:4878, H-A:ARG:545:NH2:4928, V-A:TYR:484:CZ:4346, V-A:HIS:456:CE1:4069, V-A:ARG:545:CD:4923, V-B:GLU:543:CG:9879, V-A:ARG:545:CG:4922, V-A:ARG:545:CZ:4926, H-A:ARG:545:NH1:4927, V-A:TYR:484:CE2:4345, V-A:LEU:363:CA:3184, V-A:GLY:454:CA:4048, V-A:ASN:362:CB:3175, V-A:ASN:362:C:3171, H-A:ASP:366:OD1:3213, H-B:ASN:370:OD1:8218"]

$$$$
RR18_Rahimova_2017
     RDKit          3D

 36 41  0  0  0  0  0  0  0  0999 V2000
  134.6800  123.8620   60.3740 C   0  0  0  0  0  0  0  0  0  0  0  0
  133.3750  124.1770   59.6870 C   0  0  0  0  0  0  0  0  0  0  0  0
  132.9710  124.2360   58.3630 C   0  0  0  0  0  0  0  0  0  0  0  0
  131.6220  124.5880   58.3690 C   0  0  0  0  0  0  0  0  0  0  0  0
  131.2500  124.7310   59.6960 C   0  0  0  0  0  0  0  0  0  0  0  0
  129.9410  125.0890   60.3950 C   0  0  1  0  0  0  0  0  0  0  0  0
  129.7240  124.2300   61.6770 C   0  0  0  0  0  0  0  0  0  0  0  0
  129.5360  122.7860   61.5750 C   0  0  0  0  0  0  0  0  0  0  0  0
  128.4150  122.2740   61.5980 O   0  0  0  0  0  0  0  0  0  0  0  0
  130.6860  122.0850   61.4410 N   0  0  0  0  0  0  0  0  0  0  0  0
  130.9000  120.6940   61.3370 C   0  0  0  0  0  0  0  0  0  0  0  0
  129.8620  119.7450   61.3690 C   0  0  0  0  0  0  0  0  0  0  0  0
  130.1410  118.3840   61.2680 C   0  0  0  0  0  0  0  0  0  0  0  0
  131.4570  117.9490   61.1400 C   0  0  0  0  0  0  0  0  0  0  0  0
  132.4960  118.8760   61.1190 C   0  0  0  0  0  0  0  0  0  0  0  0
  132.2310  120.2450   61.2180 C   0  0  0  0  0  0  0  0  0  0  0  0
  133.4060  121.2190   61.1940 C   0  0  0  0  0  0  0  0  0  0  0  0
  129.8180  124.8400   62.8870 C   0  0  0  0  0  0  0  0  0  0  0  0
  129.9720  126.1800   63.0730 N   0  0  0  0  0  0  0  0  0  0  0  0
  129.9520  126.9630   62.0580 C   0  0  0  0  0  0  0  0  0  0  0  0
  129.9860  128.7080   62.1500 S   0  0  0  0  0  0  0  0  0  0  0  0
  129.8900  128.8570   60.3670 C   0  0  0  0  0  0  0  0  0  0  0  0
  129.8640  130.0210   59.6290 C   0  0  0  0  0  0  0  0  0  0  0  0
  129.8340  131.3270   60.3030 C   0  0  0  0  0  0  0  0  0  0  0  0
  129.8530  131.5990   61.5030 O   0  0  0  0  0  0  0  0  0  0  0  0
  129.7590  132.2640   59.3530 N   0  0  0  0  0  0  0  0  0  0  0  0
  129.7690  131.7460   58.0930 C   0  0  0  0  0  0  0  0  0  0  0  0
  129.7180  132.4380   56.8840 C   0  0  0  0  0  0  0  0  0  0  0  0
  129.7710  131.7170   55.6940 C   0  0  0  0  0  0  0  0  0  0  0  0
  129.8830  130.3290   55.7340 C   0  0  0  0  0  0  0  0  0  0  0  0
  129.9310  129.6580   56.9580 C   0  0  0  0  0  0  0  0  0  0  0  0
  129.8550  130.3670   58.1720 C   0  0  0  0  0  0  0  0  0  0  0  0
  129.8260  127.5080   59.8040 C   0  0  0  0  0  0  0  0  0  0  0  0
  129.7000  127.2170   58.6190 O   0  0  0  0  0  0  0  0  0  0  0  0
  129.8990  126.5480   60.7660 N   0  0  0  0  0  0  0  0  0  0  0  0
  132.3240  124.4800   60.4920 O   0  0  0  0  0  0  0  0  0  0  0  0
  1  2  1  0
  2  3  2  0
  3  4  1  0
  4  5  2  0
  6  5  1  1
  6  7  1  0
  7  8  1  0
  8  9  2  0
  8 10  1  0
 10 11  1  0
 11 12  2  0
 12 13  1  0
 13 14  2  0
 14 15  1  0
 15 16  2  0
 16 17  1  0
  7 18  2  0
 18 19  1  0
 19 20  2  0
 20 21  1  0
 21 22  1  0
 22 23  2  0
 23 24  1  0
 24 25  2  0
 24 26  1  0
 26 27  1  0
 27 28  2  0
 28 29  1  0
 29 30  2  0
 30 31  1  0
 31 32  2  0
 22 33  1  0
 33 34  2  0
 33 35  1  0
  5 36  1  0
 36  2  1  0
 35  6  1  0
 16 11  1  0
 35 20  1  0
 32 23  1  0
 32 27  1  0
M  END
>  <Binding energies>  (101) 
[-9.14]

>  <Ligand effiencies>  (101) 
[-0.2405263157894737]

>  <Interactions>  (101) 
["H-B:ALA:541:N:9863, V-A:ILE:369:CG2:3236, V-A:LEU:475:CD1:4257, V-B:PRO:540:C:9853, V-B:ALA:541:CB:9864, V-B:TYR:539:CE2:9848, V-B:TYR:539:C:9839, V-A:PRO:482:CG:4326, V-A:PRO:482:CB:4325, V-A:ASP:366:CG:3212, V-A:PRO:540:N:4884, V-A:ASP:366:CA:3209, V-A:ASP:366:CB:3211, V-A:TYR:539:CG:4872, V-A:ASP:366:C:3207, V-A:TYR:539:CD1:4873, V-A:PRO:540:CA:4883, V-A:TYR:539:CE1:4875, V-A:PRO:540:C:4881, V-A:TYR:539:C:4867, V-A:GLU:543:CD:4908, V-A:ILE:369:CD1:3238, V-A:ILE:369:CB:3235, H-A:ALA:541:N:4891, H-A:TYR:539:O:4868, V-A:TYR:539:CA:4869, V-B:ALA:541:CA:9862, V-A:ILE:369:CG1:3237"]

$$$$
RR20_Rahimova_2017
     RDKit          3D

 38 43  0  0  0  0  0  0  0  0999 V2000
  133.2150  130.9160   57.9050 C   0  0  0  0  0  0  0  0  0  0  0  0
  131.8040  130.8100   57.3560 C   0  0  0  0  0  0  0  0  0  0  0  0
  131.1780  129.5650   57.2860 C   0  0  0  0  0  0  0  0  0  0  0  0
  129.8800  129.4670   56.7920 C   0  0  0  0  0  0  0  0  0  0  0  0
  129.2030  130.6100   56.3510 C   0  0  0  0  0  0  0  0  0  0  0  0
  127.7860  130.4840   55.8370 C   0  0  0  0  0  0  0  0  0  0  0  0
  127.6100  130.5750   54.6190 O   0  0  0  0  0  0  0  0  0  0  0  0
  126.7700  130.2630   56.7220 N   0  0  0  0  0  0  0  0  0  0  0  0
  125.5730  129.4930   56.3460 C   0  0  0  0  0  0  0  0  0  0  0  0
  124.7540  129.3290   57.6150 C   0  0  0  0  0  0  0  0  0  0  0  0
  125.7300  129.6940   58.6920 C   0  0  0  0  0  0  0  0  0  0  0  0
  125.5680  129.6470   60.0770 C   0  0  0  0  0  0  0  0  0  0  0  0
  126.5410  130.1870   60.9270 C   0  0  0  0  0  0  0  0  0  0  0  0
  126.3720  130.1290   62.4200 C   0  0  0  0  0  0  0  0  0  0  0  0
  127.1240  129.2820   63.1050 N   0  0  0  0  0  0  0  0  0  0  0  0
  126.9070  129.3300   64.3950 C   0  0  0  0  0  0  0  0  0  0  0  0
  127.5210  128.5880   65.3920 N   0  0  0  0  0  0  0  0  0  0  0  0
  126.9500  128.1210   66.5290 C   0  0  0  0  0  0  0  0  0  0  0  0
  125.7640  128.2840   66.8220 O   0  0  0  0  0  0  0  0  0  0  0  0
  127.8340  127.3110   67.5070 C   0  0  0  0  0  0  0  0  0  0  0  0
  129.2010  127.0880   66.9990 N   0  0  0  0  0  0  0  0  0  0  0  0
  130.2030  127.0680   68.0740 C   0  0  0  0  0  0  0  0  0  0  0  0
  131.6280  127.1020   67.4750 C   0  0  0  0  0  0  0  0  0  0  0  0
  131.8090  126.1250   66.3130 C   0  0  0  0  0  0  0  0  0  0  0  0
  133.0830  125.8180   65.8220 C   0  0  0  0  0  0  0  0  0  0  0  0
  133.2470  124.9590   64.7380 C   0  0  0  0  0  0  0  0  0  0  0  0
  132.1300  124.3910   64.1310 C   0  0  0  0  0  0  0  0  0  0  0  0
  130.8570  124.6810   64.6160 C   0  0  0  0  0  0  0  0  0  0  0  0
  130.6790  125.5440   65.7030 C   0  0  0  0  0  0  0  0  0  0  0  0
  129.2860  125.8160   66.2710 C   0  0  0  0  0  0  0  0  0  0  0  0
  125.7030  130.4610   64.8730 S   0  0  0  0  0  0  0  0  0  0  0  0
  125.4730  130.8930   63.1950 C   0  0  0  0  0  0  0  0  0  0  0  0
  124.4260  131.9110   62.8020 C   0  0  0  0  0  0  0  0  0  0  0  0
  127.6530  130.8240   60.3530 C   0  0  0  0  0  0  0  0  0  0  0  0
  127.8070  130.8890   58.9690 C   0  0  0  0  0  0  0  0  0  0  0  0
  126.8690  130.2700   58.1320 C   0  0  0  0  0  0  0  0  0  0  0  0
  129.8270  131.8600   56.4520 C   0  0  0  0  0  0  0  0  0  0  0  0
  131.1250  131.9590   56.9470 C   0  0  0  0  0  0  0  0  0  0  0  0
  1  2  1  0
  2  3  2  0
  3  4  1  0
  4  5  2  0
  5  6  1  0
  6  7  2  0
  6  8  1  0
  8  9  1  0
  9 10  1  0
 10 11  1  0
 11 12  2  0
 12 13  1  0
 13 14  1  0
 14 15  1  0
 15 16  2  0
 16 17  1  0
 17 18  1  0
 18 19  2  0
 18 20  1  0
 20 21  1  0
 21 22  1  0
 22 23  1  0
 23 24  1  0
 24 25  2  0
 25 26  1  0
 26 27  2  0
 27 28  1  0
 28 29  2  0
 29 30  1  0
 16 31  1  0
 31 32  1  0
 32 33  1  0
 13 34  2  0
 34 35  1  0
 35 36  2  0
  5 37  1  0
 37 38  2  0
 38  2  1  0
 36  8  1  0
 36 11  1  0
 32 14  2  0
 30 21  1  0
 29 24  1  0
M  END
>  <Binding energies>  (102) 
[-10.73]

>  <Ligand effiencies>  (102) 
[-0.2751282051282051]

>  <Interactions>  (102) 
["V-B:TYR:531:CZ:9766, V-A:PRO:540:N:4884, V-A:TYR:539:CD1:4873, V-A:PRO:540:CA:4883, V-A:TYR:539:CZ:4877, V-A:PRO:540:CB:4885, V-A:TYR:539:CE1:4875, V-B:ASP:366:CG:8184, V-B:TYR:531:CE1:9764, H-B:LYS:534:NZ:9795, V-B:ASP:366:CB:8183, V-A:PRO:540:CD:4887, V-B:ASP:366:CA:8181, V-A:TYR:539:C:4867, V-A:LEU:363:CD1:3188, V-B:ILE:369:CD1:8210, V-B:GLY:454:CA:9020, V-A:GLU:543:CD:4908, H-B:ARG:545:NE:9896, H-B:TYR:484:OH:9319, V-B:ASP:366:C:8179, H-A:TYR:539:OH:4878, V-B:HIS:456:CE1:9041, V-A:HIS:456:CE1:4069, V-B:GLU:543:CB:9878, V-A:ARG:545:CD:4923, V-B:GLU:543:CG:9879, V-B:GLU:543:CD:9880, H-B:GLU:543:OE2:9882, V-A:ARG:545:CG:4922, V-A:ARG:545:CZ:4926, V-A:GLU:543:CB:4906, V-A:LEU:363:CA:3184, V-A:LEU:363:CB:3186, V-B:LEU:475:CD1:9229, H-A:GLU:543:OE1:4909"]

$$$$
RR21_Rahimova_2017
     RDKit          3D

 40 45  0  0  0  0  0  0  0  0999 V2000
  124.5890  130.1820   62.4570 C   0  0  0  0  0  0  0  0  0  0  0  0
  124.4440  130.2380   63.8730 O   0  0  0  0  0  0  0  0  0  0  0  0
  125.3750  129.6030   64.6730 C   0  0  0  0  0  0  0  0  0  0  0  0
  126.7280  129.4340   64.3300 C   0  0  0  0  0  0  0  0  0  0  0  0
  127.6040  128.7820   65.1970 C   0  0  0  0  0  0  0  0  0  0  0  0
  127.1550  128.2860   66.4260 C   0  0  0  0  0  0  0  0  0  0  0  0
  128.1000  127.5900   67.3570 C   0  0  0  0  0  0  0  0  0  0  0  0
  128.1700  127.9640   68.6200 N   0  0  0  0  0  0  0  0  0  0  0  0
  129.0840  127.1760   69.2050 N   0  0  0  0  0  0  0  0  0  0  0  0
  129.3950  127.2990   70.5840 C   0  0  0  0  0  0  0  0  0  0  0  0
  130.1960  128.3530   71.0480 C   0  0  0  0  0  0  0  0  0  0  0  0
  130.4900  128.4660   72.4050 C   0  0  0  0  0  0  0  0  0  0  0  0
  129.9860  127.5260   73.3010 C   0  0  0  0  0  0  0  0  0  0  0  0
  129.1930  126.4730   72.8530 C   0  0  0  0  0  0  0  0  0  0  0  0
  128.8970  126.3580   71.4970 C   0  0  0  0  0  0  0  0  0  0  0  0
  129.5860  126.2780   68.2970 C   0  0  0  0  0  0  0  0  0  0  0  0
  128.9810  126.5220   67.0730 C   0  0  0  0  0  0  0  0  0  0  0  0
  129.1570  125.7980   65.8230 C   0  0  0  0  0  0  0  0  0  0  0  0
  130.3100  125.5210   65.1710 C   0  0  0  0  0  0  0  0  0  0  0  0
  131.9650  125.9680   65.6410 S   0  0  0  0  0  0  0  0  0  0  0  0
  132.5780  125.1380   64.2180 C   0  0  0  0  0  0  0  0  0  0  0  0
  133.8130  124.9990   63.8480 N   0  0  0  0  0  0  0  0  0  0  0  0
  134.1770  124.2880   62.6720 C   0  0  0  0  0  0  0  0  0  0  0  0
  135.3230  124.0950   62.2650 O   0  0  0  0  0  0  0  0  0  0  0  0
  133.0050  123.7390   61.9060 C   0  0  0  0  0  0  0  0  0  0  0  0
  133.2740  122.9690   60.6070 C   0  0  0  0  0  0  0  0  0  0  0  0
  132.7090  121.5500   60.5880 C   0  0  0  0  0  0  0  0  0  0  0  0
  133.5620  120.4540   60.7430 C   0  0  0  0  0  0  0  0  0  0  0  0
  133.0440  119.1620   60.7420 C   0  0  0  0  0  0  0  0  0  0  0  0
  131.6710  118.9610   60.5900 C   0  0  0  0  0  0  0  0  0  0  0  0
  131.1100  117.5510   60.6020 C   0  0  0  0  0  0  0  0  0  0  0  0
  130.8140  120.0560   60.4470 C   0  0  0  0  0  0  0  0  0  0  0  0
  131.3320  121.3480   60.4470 C   0  0  0  0  0  0  0  0  0  0  0  0
  131.7770  123.8900   62.2850 N   0  0  0  0  0  0  0  0  0  0  0  0
  131.5620  124.6030   63.4700 N   0  0  0  0  0  0  0  0  0  0  0  0
  130.2950  124.7750   63.9210 C   0  0  0  0  0  0  0  0  0  0  0  0
  129.2810  124.3510   63.3530 O   0  0  0  0  0  0  0  0  0  0  0  0
  125.8080  128.4470   66.7650 C   0  0  0  0  0  0  0  0  0  0  0  0
  124.9290  129.0990   65.8990 C   0  0  0  0  0  0  0  0  0  0  0  0
  123.6310  129.2400   66.2570 F   0  0  0  0  0  0  0  0  0  0  0  0
  1  2  1  0
  2  3  1  0
  3  4  2  0
  4  5  1  0
  5  6  2  0
  6  7  1  0
  7  8  2  0
  8  9  1  0
  9 10  1  0
 10 11  2  0
 11 12  1  0
 12 13  2  0
 13 14  1  0
 14 15  2  0
  9 16  1  0
 16 17  2  0
 17 18  1  0
 18 19  2  0
 19 20  1  0
 20 21  1  0
 21 22  2  0
 22 23  1  0
 23 24  2  0
 23 25  1  0
 25 26  1  0
 26 27  1  0
 27 28  2  0
 28 29  1  0
 29 30  2  0
 30 31  1  0
 30 32  1  0
 32 33  2  0
 25 34  2  0
 34 35  1  0
 35 36  1  0
 36 37  2  0
  6 38  1  0
 38 39  2  0
 39 40  1  0
 39  3  1  0
 17  7  1  0
 36 19  1  0
 15 10  1  0
 35 21  1  0
 33 27  1  0
M  END
>  <Binding energies>  (103) 
[-10.95]

>  <Ligand effiencies>  (103) 
[-0.27375]

>  <Interactions>  (103) 
["V-A:ILE:369:CG2:3236, V-B:TYR:539:CD2:9846, V-A:LEU:475:CD1:4257, V-B:TYR:539:CE2:9848, V-A:PRO:482:CG:4326, H-A:GLY:454:N:4049, V-B:ASP:366:CG:8184, H-B:GLY:454:N:9021, V-B:ARG:545:CZ:9898, V-B:GLY:453:C:9013, V-B:GLY:453:CA:9015, V-B:GLY:454:CA:9020, V-A:GLU:543:CD:4908, H-A:ARG:545:NH2:4928, V-A:GLU:543:C:4902, V-B:HIS:456:CE1:9041, V-A:HIS:456:CE1:4069, V-A:GLY:544:C:4912, V-B:GLU:543:CB:9878, V-B:GLU:543:CG:9879, V-B:GLU:543:CD:9880, V-A:ARG:545:CZ:4926, H-A:ARG:545:NH1:4927, V-B:ARG:545:CG:9894, V-A:GLY:453:CA:4043, V-A:GLY:453:C:4041, V-A:HIS:383:CE1:3392, V-B:HIS:456:CD2:9039, V-A:GLY:544:CA:4914, V-B:ARG:545:CD:9895"]

$$$$
RR23_Rahimova_2017
     RDKit          3D

 39 44  0  0  0  0  0  0  0  0999 V2000
  133.6160  130.8640   61.4160 C   0  0  0  0  0  0  0  0  0  0  0  0
  132.7630  131.0670   60.1770 C   0  0  0  0  0  0  0  0  0  0  0  0
  131.4080  131.3730   60.3040 C   0  0  0  0  0  0  0  0  0  0  0  0
  130.6280  131.5680   59.1660 C   0  0  0  0  0  0  0  0  0  0  0  0
  131.1960  131.4460   57.8930 C   0  0  0  0  0  0  0  0  0  0  0  0
  130.3370  131.6810   56.6710 C   0  0  0  0  0  0  0  0  0  0  0  0
  130.2360  132.8390   56.2580 O   0  0  0  0  0  0  0  0  0  0  0  0
  129.7250  130.6190   56.0660 N   0  0  0  0  0  0  0  0  0  0  0  0
  129.8790  130.3590   54.6260 C   0  0  0  0  0  0  0  0  0  0  0  0
  129.1880  129.0330   54.3540 C   0  0  0  0  0  0  0  0  0  0  0  0
  129.0200  128.4570   55.7280 C   0  0  0  0  0  0  0  0  0  0  0  0
  128.5230  127.2090   56.1020 C   0  0  0  0  0  0  0  0  0  0  0  0
  128.2930  126.9130   57.4540 C   0  0  0  0  0  0  0  0  0  0  0  0
  127.7470  125.5510   57.9100 C   0  0  2  0  0  0  0  0  0  0  0  0
  128.0680  125.2690   59.2920 N   0  0  0  0  0  0  0  0  0  0  0  0
  128.2320  124.0240   59.4960 C   0  0  0  0  0  0  0  0  0  0  0  0
  128.5660  123.4010   60.6590 N   0  0  0  0  0  0  0  0  0  0  0  0
  128.9390  123.9590   61.8360 C   0  0  0  0  0  0  0  0  0  0  0  0
  129.0000  125.1690   62.0680 O   0  0  0  0  0  0  0  0  0  0  0  0
  129.3140  122.9680   62.9490 C   0  0  0  0  0  0  0  0  0  0  0  0
  130.4700  122.1560   62.5070 N   0  0  0  0  0  0  0  0  0  0  0  0
  131.7010  122.5410   63.0240 N   0  0  0  0  0  0  0  0  0  0  0  0
  132.7900  121.9140   62.7140 N   0  0  0  0  0  0  0  0  0  0  0  0
  132.7390  120.8230   61.8420 C   0  0  0  0  0  0  0  0  0  0  0  0
  133.9330  120.1700   61.5270 C   0  0  0  0  0  0  0  0  0  0  0  0
  133.9150  119.0770   60.6590 C   0  0  0  0  0  0  0  0  0  0  0  0
  132.7090  118.6380   60.1070 C   0  0  0  0  0  0  0  0  0  0  0  0
  131.5150  119.2900   60.4210 C   0  0  0  0  0  0  0  0  0  0  0  0
  131.5340  120.3850   61.2930 C   0  0  0  0  0  0  0  0  0  0  0  0
  130.2530  121.1070   61.6420 C   0  0  0  0  0  0  0  0  0  0  0  0
  129.1460  120.7970   61.1930 O   0  0  0  0  0  0  0  0  0  0  0  0
  128.0180  122.9380   58.0930 S   0  0  0  0  0  0  0  0  0  0  0  0
  128.1550  124.3660   57.0040 C   0  0  2  0  0  0  0  0  0  0  0  0
  129.5770  124.4090   56.4060 C   0  0  0  0  0  0  0  0  0  0  0  0
  128.5250  127.9080   58.4120 C   0  0  0  0  0  0  0  0  0  0  0  0
  129.0020  129.1640   58.0360 C   0  0  0  0  0  0  0  0  0  0  0  0
  129.3060  129.4240   56.6930 C   0  0  0  0  0  0  0  0  0  0  0  0
  132.5630  131.1660   57.7730 C   0  0  0  0  0  0  0  0  0  0  0  0
  133.3420  130.9720   58.9100 C   0  0  0  0  0  0  0  0  0  0  0  0
  1  2  1  0
  2  3  2  0
  3  4  1  0
  4  5  2  0
  5  6  1  0
  6  7  2  0
  6  8  1  0
  8  9  1  0
  9 10  1  0
 10 11  1  0
 11 12  2  0
 12 13  1  0
 14 13  1  6
 14 15  1  0
 15 16  2  0
 16 17  1  0
 17 18  1  0
 18 19  2  0
 18 20  1  0
 20 21  1  0
 21 22  1  0
 22 23  2  0
 23 24  1  0
 24 25  2  0
 25 26  1  0
 26 27  2  0
 27 28  1  0
 28 29  2  0
 29 30  1  0
 30 31  2  0
 16 32  1  0
 32 33  1  0
 33 34  1  1
 13 35  2  0
 35 36  1  0
 36 37  2  0
  5 38  1  0
 38 39  2  0
 39  2  1  0
 37  8  1  0
 37 11  1  0
 33 14  1  0
 30 21  1  0
 29 24  1  0
M  END
>  <Binding energies>  (104) 
[-9.98]

>  <Ligand effiencies>  (104) 
[-0.2495]

>  <Interactions>  (104) 
["H-B:ALA:541:N:9863, V-B:MET:535:CE:9807, V-A:ILE:369:CG2:3236, V-B:TYR:539:CD2:9846, V-A:LEU:475:CD1:4257, V-B:ALA:541:CB:9864, V-B:TYR:539:CE2:9848, V-B:TYR:531:CZ:9766, V-A:ASP:366:CG:3212, V-A:PRO:540:N:4884, V-A:PRO:540:CA:4883, H-A:TYR:539:N:4870, V-A:PRO:540:CB:4885, V-A:PRO:540:C:4881, V-A:LEU:363:CD1:3188, V-B:TYR:539:CZ:9849, V-A:SER:385:CA:3406, H-B:TYR:539:O:9840, V-A:SER:385:C:3404, V-A:SER:385:CB:3408, V-A:LEU:363:CA:3184, V-A:LEU:363:CB:3186, V-A:ASN:362:CB:3175, V-A:ASN:362:C:3171, V-A:HIS:383:CD2:3391, V-A:ASN:362:CA:3173"]

$$$$
RR26_Rahimova_2017
     RDKit          3D

 38 44  0  0  0  0  0  0  0  0999 V2000
  133.6610  121.4280   61.5960 C   0  0  0  0  0  0  0  0  0  0  0  0
  132.5680  120.4080   61.3070 C   0  0  0  0  0  0  0  0  0  0  0  0
  132.8990  119.2770   60.5530 C   0  0  0  0  0  0  0  0  0  0  0  0
  131.9490  118.2920   60.2920 C   0  0  0  0  0  0  0  0  0  0  0  0
  130.6570  118.4260   60.7910 C   0  0  0  0  0  0  0  0  0  0  0  0
  130.3150  119.5470   61.5440 C   0  0  0  0  0  0  0  0  0  0  0  0
  131.2560  120.5540   61.8090 C   0  0  0  0  0  0  0  0  0  0  0  0
  130.8000  121.7360   62.6150 C   0  0  0  0  0  0  0  0  0  0  0  0
  130.6260  121.6740   63.9330 N   0  0  0  0  0  0  0  0  0  0  0  0
  130.2500  122.8930   64.2130 C   0  0  0  0  0  0  0  0  0  0  0  0
  129.7990  123.7510   65.6400 S   0  0  0  0  0  0  0  0  0  0  0  0
  129.5510  125.2330   64.6420 C   0  0  0  0  0  0  0  0  0  0  0  0
  129.1500  126.4540   65.0600 C   0  0  0  0  0  0  0  0  0  0  0  0
  128.8250  126.8770   66.4130 C   0  0  0  0  0  0  0  0  0  0  0  0
  129.4780  126.5510   67.5920 C   0  0  0  0  0  0  0  0  0  0  0  0
  128.8500  127.2100   68.6190 N   0  0  0  0  0  0  0  0  0  0  0  0
  129.1680  127.1870   70.0010 C   0  0  0  0  0  0  0  0  0  0  0  0
  129.8820  128.2420   70.5910 C   0  0  0  0  0  0  0  0  0  0  0  0
  130.1900  128.2050   71.9480 C   0  0  0  0  0  0  0  0  0  0  0  0
  129.7860  127.1200   72.7200 C   0  0  0  0  0  0  0  0  0  0  0  0
  129.0740  126.0680   72.1470 C   0  0  0  0  0  0  0  0  0  0  0  0
  128.7660  126.0990   70.7900 C   0  0  0  0  0  0  0  0  0  0  0  0
  127.8450  127.9610   68.1430 N   0  0  0  0  0  0  0  0  0  0  0  0
  127.8160  127.7700   66.8390 C   0  0  0  0  0  0  0  0  0  0  0  0
  126.7870  128.4690   66.0050 C   0  0  0  0  0  0  0  0  0  0  0  0
  125.5180  128.7540   66.5340 C   0  0  0  0  0  0  0  0  0  0  0  0
  124.5510  129.4020   65.7640 C   0  0  0  0  0  0  0  0  0  0  0  0
  124.8470  129.7710   64.4530 C   0  0  0  0  0  0  0  0  0  0  0  0
  126.1170  129.5090   63.9190 C   0  0  0  0  0  0  0  0  0  0  0  0
  127.0790  128.8560   64.6890 C   0  0  0  0  0  0  0  0  0  0  0  0
  126.4400  129.8170   62.6120 O   0  0  0  0  0  0  0  0  0  0  0  0
  125.5780  130.7870   62.0090 C   0  0  0  0  0  0  0  0  0  0  0  0
  124.0960  130.4700   62.3280 C   0  0  0  0  0  0  0  0  0  0  0  0
  123.8790  130.4530   63.7430 O   0  0  0  0  0  0  0  0  0  0  0  0
  129.8240  125.0010   63.2270 C   0  0  0  0  0  0  0  0  0  0  0  0
  129.7500  125.7890   62.2820 O   0  0  0  0  0  0  0  0  0  0  0  0
  130.2090  123.6570   63.1070 N   0  0  0  0  0  0  0  0  0  0  0  0
  130.5710  122.9150   62.0570 N   0  0  0  0  0  0  0  0  0  0  0  0
  1  2  1  0
  2  3  2  0
  3  4  1  0
  4  5  2  0
  5  6  1  0
  6  7  2  0
  7  8  1  0
  8  9  1  0
  9 10  2  0
 10 11  1  0
 11 12  1  0
 12 13  2  0
 13 14  1  0
 14 15  2  0
 15 16  1  0
 16 17  1  0
 17 18  2  0
 18 19  1  0
 19 20  2  0
 20 21  1  0
 21 22  2  0
 16 23  1  0
 23 24  2  0
 24 25  1  0
 25 26  2  0
 26 27  1  0
 27 28  2  0
 28 29  1  0
 29 30  2  0
 29 31  1  0
 31 32  1  0
 32 33  1  0
 33 34  1  0
 12 35  1  0
 35 36  2  0
 35 37  1  0
 37 38  1  0
  7  2  1  0
 38  8  2  0
 37 10  1  0
 24 14  1  0
 30 25  1  0
 22 17  1  0
 34 28  1  0
M  END
>  <Binding energies>  (105) 
[-9.74]

>  <Ligand effiencies>  (105) 
[-0.2563157894736842]

>  <Interactions>  (105) 
["V-A:ILE:369:CG2:3236, V-B:TYR:539:CD2:9846, V-A:LEU:475:CD1:4257, V-B:ALA:541:CB:9864, V-A:PRO:482:CG:4326, H-A:TYR:484:OH:4347, V-B:ASP:366:CG:8184, H-B:GLY:454:N:9021, V-B:ARG:545:CZ:9898, V-B:ILE:369:CD1:8210, V-A:GLU:543:CD:4908, V-A:ILE:369:CD1:3238, V-A:GLU:543:C:4902, V-B:HIS:456:CE1:9041, V-A:TYR:484:CZ:4346, V-A:HIS:456:CE1:4069, V-B:GLU:543:CB:9878, V-B:GLU:543:CG:9879, V-B:GLU:543:CD:9880, V-A:TYR:484:CE2:4345, V-B:GLU:543:C:9874, V-B:ARG:545:CG:9894, V-B:ARG:545:CD:9895"]

$$$$
RR2_Rahimova_2017
     RDKit          3D

 46 50  0  0  0  0  0  0  0  0999 V2000
  129.6090  121.4980   61.0410 C   0  0  0  0  0  0  0  0  0  0  0  0
  128.7630  121.9460   62.0940 O   0  0  0  0  0  0  0  0  0  0  0  0
  128.2500  123.2290   62.0480 C   0  0  0  0  0  0  0  0  0  0  0  0
  128.9080  124.3620   62.5450 C   0  0  0  0  0  0  0  0  0  0  0  0
  128.3110  125.6160   62.4580 C   0  0  0  0  0  0  0  0  0  0  0  0
  127.0450  125.7680   61.8760 C   0  0  0  0  0  0  0  0  0  0  0  0
  126.4130  127.1440   61.7990 C   0  0  0  0  0  0  0  0  0  0  0  0
  126.1700  127.7760   62.8320 O   0  0  0  0  0  0  0  0  0  0  0  0
  126.1360  127.5980   60.5540 N   0  0  0  0  0  0  0  0  0  0  0  0
  125.4720  128.8130   60.4310 N   0  0  0  0  0  0  0  0  0  0  0  0
  125.0130  129.1690   59.2140 C   0  0  0  0  0  0  0  0  0  0  0  0
  125.2870  128.5890   58.1600 O   0  0  0  0  0  0  0  0  0  0  0  0
  124.0660  130.3760   59.1920 C   0  0  0  0  0  0  0  0  0  0  0  0
  124.6470  131.8350   60.1330 S   0  0  0  0  0  0  0  0  0  0  0  0
  124.7140  131.1630   61.7660 C   0  0  0  0  0  0  0  0  0  0  0  0
  123.6450  130.8570   62.4560 N   0  0  0  0  0  0  0  0  0  0  0  0
  124.0640  130.4300   63.7080 N   0  0  0  0  0  0  0  0  0  0  0  0
  125.3750  130.4660   63.7180 C   0  0  0  0  0  0  0  0  0  0  0  0
  126.2000  130.0600   64.8960 C   0  0  0  0  0  0  0  0  0  0  0  0
  127.2100  130.9050   65.3620 C   0  0  0  0  0  0  0  0  0  0  0  0
  127.9880  130.5320   66.4530 C   0  0  0  0  0  0  0  0  0  0  0  0
  127.7510  129.3150   67.1020 C   0  0  0  0  0  0  0  0  0  0  0  0
  128.5100  128.8830   68.2000 N   0  0  0  0  0  0  0  0  0  0  0  0
  128.7990  127.1810   68.6240 S   0  0  0  0  0  0  0  0  0  0  0  0
  127.5250  126.4880   68.4040 O   0  0  0  0  0  0  0  0  0  0  0  0
  129.4600  127.1440   69.9340 O   0  0  0  0  0  0  0  0  0  0  0  0
  129.9380  126.5760   67.3800 C   0  0  0  0  0  0  0  0  0  0  0  0
  129.4830  125.7790   66.3270 C   0  0  0  0  0  0  0  0  0  0  0  0
  130.3870  125.3050   65.3800 C   0  0  0  0  0  0  0  0  0  0  0  0
  131.7410  125.6330   65.4810 C   0  0  0  0  0  0  0  0  0  0  0  0
  132.7260  125.1040   64.4560 C   0  0  0  0  0  0  0  0  0  0  0  0
  132.1930  126.4270   66.5380 C   0  0  0  0  0  0  0  0  0  0  0  0
  131.2910  126.9000   67.4860 C   0  0  0  0  0  0  0  0  0  0  0  0
  126.7390  128.4740   66.6390 C   0  0  0  0  0  0  0  0  0  0  0  0
  125.9650  128.8430   65.5430 C   0  0  0  0  0  0  0  0  0  0  0  0
  125.8590  130.9310   62.5060 N   0  0  0  0  0  0  0  0  0  0  0  0
  127.1980  131.1590   62.1250 C   0  0  0  0  0  0  0  0  0  0  0  0
  128.1810  130.2190   62.4380 C   0  0  0  0  0  0  0  0  0  0  0  0
  129.4990  130.4490   62.0550 C   0  0  0  0  0  0  0  0  0  0  0  0
  129.8470  131.6100   61.3640 C   0  0  0  0  0  0  0  0  0  0  0  0
  131.1800  131.7500   61.0280 O   0  0  0  0  0  0  0  0  0  0  0  0
  132.0260  130.6040   61.0500 C   0  0  0  0  0  0  0  0  0  0  0  0
  128.8510  132.5510   61.0540 C   0  0  0  0  0  0  0  0  0  0  0  0
  127.5310  132.3250   61.4320 C   0  0  0  0  0  0  0  0  0  0  0  0
  126.3950  124.6290   61.3740 C   0  0  0  0  0  0  0  0  0  0  0  0
  126.9950  123.3760   61.4620 C   0  0  0  0  0  0  0  0  0  0  0  0
  1  2  1  0
  2  3  1  0
  3  4  2  0
  4  5  1  0
  5  6  2  0
  6  7  1  0
  7  8  2  0
  7  9  1  0
  9 10  1  0
 10 11  1  0
 11 12  2  0
 11 13  1  0
 13 14  1  0
 14 15  1  0
 15 16  2  0
 16 17  1  0
 17 18  2  0
 18 19  1  0
 19 20  2  0
 20 21  1  0
 21 22  2  0
 22 23  1  0
 23 24  1  0
 24 25  2  0
 24 26  2  0
 24 27  1  0
 27 28  2  0
 28 29  1  0
 29 30  2  0
 30 31  1  0
 30 32  1  0
 32 33  2  0
 22 34  1  0
 34 35  2  0
 18 36  1  0
 36 37  1  0
 37 38  2  0
 38 39  1  0
 39 40  2  0
 40 41  1  0
 41 42  1  0
 40 43  1  0
 43 44  2  0
  6 45  1  0
 45 46  2  0
 46  3  1  0
 36 15  1  0
 44 37  1  0
 35 19  1  0
 33 27  1  0
M  END
>  <Binding energies>  (106) 
[-10.71]

>  <Ligand effiencies>  (106) 
[-0.21857142857142858]

>  <Interactions>  (106) 
["H-B:ALA:541:N:9863, H-B:TYR:531:OH:9767, V-B:PRO:540:CA:9855, V-B:ALA:541:CB:9864, V-A:PRO:540:CA:4883, V-A:TYR:539:CE1:4875, V-B:ASP:366:CG:8184, H-B:GLY:454:N:9021, V-B:ASP:366:CB:8183, V-B:ARG:545:CZ:9898, V-A:ALA:541:CB:4892, V-A:PRO:540:C:4881, V-B:ASP:366:CA:8181, V-B:ILE:369:CD1:8210, V-A:GLU:543:CG:4907, V-A:GLU:543:CD:4908, H-B:ARG:545:NH2:9900, V-B:ASP:366:C:8179, V-B:HIS:456:CE1:9041, V-A:HIS:456:CE1:4069, V-B:GLU:543:CB:9878, V-B:GLU:543:CG:9879, V-B:GLU:543:CD:9880, V-A:ARG:545:CG:4922, V-A:ARG:545:CZ:4926, V-A:GLU:543:CB:4906, H-A:ALA:541:N:4891, V-B:TYR:484:CZ:9318, V-B:ILE:369:CG2:8208, V-B:TYR:484:CE2:9317, H-B:ASP:366:OD2:8186, H-B:ASP:366:OD1:8185, V-B:ILE:369:CB:8207, V-A:ALA:541:CA:4890, H-A:GLU:543:O:4903"]

$$$$
RR33_Rahimova_2017
     RDKit          3D

 18 19  0  0  0  0  0  0  0  0999 V2000
  133.2600  118.7050   59.3210 C   0  0  0  0  0  0  0  0  0  0  0  0
  133.5610  119.0100   60.7910 C   0  0  0  0  0  0  0  0  0  0  0  0
  133.2810  120.3860   61.0390 O   0  0  0  0  0  0  0  0  0  0  0  0
  131.9950  120.8580   60.8640 C   0  0  0  0  0  0  0  0  0  0  0  0
  131.8480  121.9670   60.0320 C   0  0  0  0  0  0  0  0  0  0  0  0
  130.5900  122.5160   59.7990 C   0  0  0  0  0  0  0  0  0  0  0  0
  129.4550  121.9600   60.3980 C   0  0  0  0  0  0  0  0  0  0  0  0
  128.1050  122.5510   60.1480 C   0  0  0  0  0  0  0  0  0  0  0  0
  127.6570  123.0880   59.0350 N   0  0  0  0  0  0  0  0  0  0  0  0
  126.4160  123.4640   59.3020 C   0  0  0  0  0  0  0  0  0  0  0  0
  125.5580  124.1230   58.2430 C   0  0  0  0  0  0  0  0  0  0  0  0
  126.1200  123.9060   56.9180 N   0  0  0  0  0  0  0  0  0  0  0  0
  125.4990  122.7580   56.2800 C   0  0  0  0  0  0  0  0  0  0  0  0
  126.1050  123.1450   60.6180 C   0  0  0  0  0  0  0  0  0  0  0  0
  124.8920  123.3010   61.5020 C   0  0  0  0  0  0  0  0  0  0  0  0
  127.1970  122.5570   61.1590 O   0  0  0  0  0  0  0  0  0  0  0  0
  129.5980  120.8450   61.2300 C   0  0  0  0  0  0  0  0  0  0  0  0
  130.8570  120.2970   61.4640 C   0  0  0  0  0  0  0  0  0  0  0  0
  1  2  1  0
  2  3  1  0
  3  4  1  0
  4  5  2  0
  5  6  1  0
  6  7  2  0
  7  8  1  0
  8  9  2  0
  9 10  1  0
 10 11  1  0
 11 12  1  0
 12 13  1  0
 10 14  2  0
 14 15  1  0
 14 16  1  0
  7 17  1  0
 17 18  2  0
 18  4  1  0
 16  8  1  0
M  END
>  <Binding energies>  (107) 
[-5.26]

>  <Ligand effiencies>  (107) 
[-0.2768421052631579]

>  <Interactions>  (107) 
["H-B:ALA:541:N:9863, V-B:PRO:540:CB:9857, H-B:TYR:531:OH:9767, V-B:MET:535:CE:9807, V-A:ILE:369:CG2:3236, V-B:TYR:539:CD2:9846, V-A:LEU:475:CD1:4257, V-B:PRO:540:CA:9855, V-B:PRO:540:C:9853, V-B:ALA:541:CB:9864, V-B:TYR:539:CE2:9848, V-B:TYR:531:CE2:9765, V-B:LEU:363:CD1:8160, V-A:SER:385:CA:3406, V-A:SER:385:C:3404, V-A:SER:385:CB:3408, V-B:GLU:543:CD:9880, V-B:ALA:541:CA:9862, V-A:HIS:383:CD2:3391, V-B:ASN:362:CB:8147"]

$$$$
RR3_Rahimova_2017
     RDKit          3D

 38 44  0  0  0  0  0  0  0  0999 V2000
  133.7140  122.8640   62.3180 C   0  0  0  0  0  0  0  0  0  0  0  0
  132.6400  122.3310   63.0230 C   0  0  0  0  0  0  0  0  0  0  0  0
  131.9770  123.1120   63.9650 C   0  0  0  0  0  0  0  0  0  0  0  0
  132.3770  124.4330   64.2150 C   0  0  0  0  0  0  0  0  0  0  0  0
  131.6620  125.2720   65.2280 C   0  0  0  0  0  0  0  0  0  0  0  0
  130.2620  125.2950   65.2860 C   0  0  0  0  0  0  0  0  0  0  0  0
  129.5980  126.0780   66.2260 C   0  0  0  0  0  0  0  0  0  0  0  0
  130.3210  126.8650   67.1270 C   0  0  0  0  0  0  0  0  0  0  0  0
  129.6140  127.7130   68.1360 C   0  0  0  0  0  0  0  0  0  0  0  0
  129.8870  127.5750   69.4290 N   0  0  0  0  0  0  0  0  0  0  0  0
  129.1620  128.4650   70.0620 C   0  0  0  0  0  0  0  0  0  0  0  0
  129.1490  128.6660   71.5090 C   0  0  0  0  0  0  0  0  0  0  0  0
  129.7320  127.8320   72.4470 C   0  0  0  0  0  0  0  0  0  0  0  0
  129.5350  128.3280   73.7090 N   0  0  0  0  0  0  0  0  0  0  0  0
  128.8150  129.5010   73.6440 C   0  0  0  0  0  0  0  0  0  0  0  0
  128.3760  130.3600   74.6570 C   0  0  0  0  0  0  0  0  0  0  0  0
  127.6560  131.4880   74.2620 C   0  0  0  0  0  0  0  0  0  0  0  0
  127.3820  131.7520   72.9250 C   0  0  0  0  0  0  0  0  0  0  0  0
  127.8200  130.8970   71.9160 C   0  0  0  0  0  0  0  0  0  0  0  0
  128.5510  129.7450   72.2590 C   0  0  0  0  0  0  0  0  0  0  0  0
  128.4010  129.1890   69.1860 N   0  0  0  0  0  0  0  0  0  0  0  0
  128.6490  128.7130   67.9240 C   0  0  0  0  0  0  0  0  0  0  0  0
  127.9470  129.2280   66.7110 C   0  0  0  0  0  0  0  0  0  0  0  0
  127.9960  130.5870   66.3970 C   0  0  0  0  0  0  0  0  0  0  0  0
  127.3330  131.0720   65.2750 C   0  0  0  0  0  0  0  0  0  0  0  0
  126.6090  130.2110   64.4370 C   0  0  0  0  0  0  0  0  0  0  0  0
  125.8810  130.7390   63.2410 C   0  0  0  0  0  0  0  0  0  0  0  0
  126.4620  131.7160   62.4180 C   0  0  0  0  0  0  0  0  0  0  0  0
  125.7850  132.2040   61.3020 C   0  0  0  0  0  0  0  0  0  0  0  0
  124.5170  131.7190   60.9980 C   0  0  0  0  0  0  0  0  0  0  0  0
  123.9230  130.7510   61.8000 C   0  0  0  0  0  0  0  0  0  0  0  0
  124.6010  130.2660   62.9140 C   0  0  0  0  0  0  0  0  0  0  0  0
  126.5830  128.8460   64.7530 C   0  0  0  0  0  0  0  0  0  0  0  0
  127.2450  128.3570   65.8750 C   0  0  0  0  0  0  0  0  0  0  0  0
  131.7170  126.8380   67.0850 C   0  0  0  0  0  0  0  0  0  0  0  0
  132.3780  126.0550   66.1440 C   0  0  0  0  0  0  0  0  0  0  0  0
  133.4640  124.9490   63.4940 C   0  0  0  0  0  0  0  0  0  0  0  0
  134.1290  124.1720   62.5500 C   0  0  0  0  0  0  0  0  0  0  0  0
  1  2  2  0
  2  3  1  0
  3  4  2  0
  4  5  1  0
  5  6  2  0
  6  7  1  0
  7  8  2  0
  8  9  1  0
  9 10  1  0
 10 11  2  0
 11 12  1  0
 12 13  2  0
 13 14  1  0
 14 15  1  0
 15 16  2  0
 16 17  1  0
 17 18  2  0
 18 19  1  0
 19 20  2  0
 11 21  1  0
 21 22  1  0
 22 23  1  0
 23 24  2  0
 24 25  1  0
 25 26  2  0
 26 27  1  0
 27 28  2  0
 28 29  1  0
 29 30  2  0
 30 31  1  0
 31 32  2  0
 26 33  1  0
 33 34  2  0
  8 35  1  0
 35 36  2  0
  4 37  1  0
 37 38  2  0
 38  1  1  0
 36  5  1  0
 22  9  2  0
 34 23  1  0
 20 12  1  0
 32 27  1  0
 20 15  1  0
M  END
>  <Binding energies>  (108) 
[-9.67]

>  <Ligand effiencies>  (108) 
[-0.24175]

>  <Interactions>  (108) 
["V-A:LEU:475:CD1:4257, V-B:ASP:366:CG:8184, V-B:ILE:369:CD1:8210, V-A:GLU:543:CG:4907, V-A:GLU:543:CD:4908, H-B:TYR:484:OH:9319, V-A:GLU:543:C:4902, V-B:HIS:456:CE1:9041, V-A:HIS:456:CE1:4069, V-B:GLU:543:CG:9879, V-B:GLU:543:CD:9880, V-A:ARG:545:CG:4922, V-A:ARG:545:CZ:4926, V-A:GLU:543:CB:4906, V-B:TYR:484:CZ:9318, V-B:ILE:369:CG2:8208, V-B:TYR:484:CE2:9317, V-A:GLY:454:CA:4048, V-A:GLY:453:CA:4043, V-A:GLY:453:C:4041, V-B:HIS:456:CD2:9039, H-A:GLU:543:O:4903, H-B:HIS:456:NE2:9042, V-B:TYR:484:CD1:9314, V-B:HIS:456:CG:9037, V-B:TYR:484:CB:9312, V-B:TYR:484:CG:9313, V-B:TYR:484:CD2:9315"]

$$$$
RR4_Rahimova_2017
     RDKit          3D

 40 44  0  0  0  0  0  0  0  0999 V2000
  131.7260  131.7410   55.4080 C   0  0  0  0  0  0  0  0  0  0  0  0
  131.9730  132.0620   56.7720 O   0  0  0  0  0  0  0  0  0  0  0  0
  131.0210  131.7450   57.7230 C   0  0  0  0  0  0  0  0  0  0  0  0
  129.7150  132.1500   57.4590 C   0  0  0  0  0  0  0  0  0  0  0  0
  128.6910  131.8730   58.3590 C   0  0  0  0  0  0  0  0  0  0  0  0
  128.9430  131.1830   59.5540 C   0  0  0  0  0  0  0  0  0  0  0  0
  127.8350  130.8870   60.5230 C   0  0  0  0  0  0  0  0  0  0  0  0
  128.0680  130.5660   61.8650 C   0  0  0  0  0  0  0  0  0  0  0  0
  127.0000  130.3020   62.7320 C   0  0  0  0  0  0  0  0  0  0  0  0
  127.3240  129.9950   64.1570 C   0  0  0  0  0  0  0  0  0  0  0  0
  127.3050  128.6730   64.6120 C   0  0  0  0  0  0  0  0  0  0  0  0
  127.6170  128.3770   65.9370 C   0  0  0  0  0  0  0  0  0  0  0  0
  127.9600  129.3930   66.8280 C   0  0  0  0  0  0  0  0  0  0  0  0
  128.2550  129.0040   68.1210 O   0  0  0  0  0  0  0  0  0  0  0  0
  129.1580  127.9240   68.3330 C   0  0  0  0  0  0  0  0  0  0  0  0
  127.9850  130.7200   66.3750 C   0  0  0  0  0  0  0  0  0  0  0  0
  127.6730  131.0140   65.0500 C   0  0  0  0  0  0  0  0  0  0  0  0
  125.6830  130.3380   62.2100 C   0  0  0  0  0  0  0  0  0  0  0  0
  124.5290  130.0700   63.0740 C   0  0  0  0  0  0  0  0  0  0  0  0
  123.6180  129.8590   63.7550 N   0  0  0  0  0  0  0  0  0  0  0  0
  125.5220  130.6400   60.8390 C   0  0  0  0  0  0  0  0  0  0  0  0
  123.9470  130.7170   60.0130 S   0  0  0  0  0  0  0  0  0  0  0  0
  124.2600  130.7160   58.2160 C   0  0  0  0  0  0  0  0  0  0  0  0
  125.0950  129.5300   57.7160 C   0  0  0  0  0  0  0  0  0  0  0  0
  124.5470  128.4860   57.3530 O   0  0  0  0  0  0  0  0  0  0  0  0
  126.4330  129.7340   57.7270 N   0  0  0  0  0  0  0  0  0  0  0  0
  127.4490  128.8600   57.3350 C   0  0  0  0  0  0  0  0  0  0  0  0
  128.1890  127.7150   58.4230 S   0  0  0  0  0  0  0  0  0  0  0  0
  129.2450  127.1270   57.1760 C   0  0  0  0  0  0  0  0  0  0  0  0
  129.0330  127.7980   55.9620 C   0  0  0  0  0  0  0  0  0  0  0  0
  128.0050  128.7680   56.0500 C   0  0  0  0  0  0  0  0  0  0  0  0
  127.5760  129.5890   54.9220 C   0  0  0  0  0  0  0  0  0  0  0  0
  127.2370  130.2410   54.0280 N   0  0  0  0  0  0  0  0  0  0  0  0
  129.8180  127.4330   54.6960 C   0  0  0  0  0  0  0  0  0  0  0  0
  130.4990  126.0550   54.8550 C   0  0  0  0  0  0  0  0  0  0  0  0
  131.2090  125.9120   56.2130 C   0  0  0  0  0  0  0  0  0  0  0  0
  130.2170  125.9750   57.3940 C   0  0  0  0  0  0  0  0  0  0  0  0
  126.5710  130.9230   60.0310 N   0  0  0  0  0  0  0  0  0  0  0  0
  130.2620  130.7750   59.8090 C   0  0  0  0  0  0  0  0  0  0  0  0
  131.2890  131.0510   58.9110 C   0  0  0  0  0  0  0  0  0  0  0  0
  1  2  1  0
  2  3  1  0
  3  4  2  0
  4  5  1  0
  5  6  2  0
  6  7  1  0
  7  8  2  0
  8  9  1  0
  9 10  1  0
 10 11  2  0
 11 12  1  0
 12 13  2  0
 13 14  1  0
 14 15  1  0
 13 16  1  0
 16 17  2  0
  9 18  2  0
 18 19  1  0
 19 20  3  0
 18 21  1  0
 21 22  1  0
 22 23  1  0
 23 24  1  0
 24 25  2  0
 24 26  1  0
 26 27  1  0
 27 28  1  0
 28 29  1  0
 29 30  2  0
 30 31  1  0
 31 32  1  0
 32 33  3  0
 30 34  1  0
 34 35  1  0
 35 36  1  0
 36 37  1  0
 21 38  2  0
  6 39  1  0
 39 40  2  0
 40  3  1  0
 38  7  1  0
 17 10  1  0
 31 27  2  0
 37 29  1  0
M  END
>  <Binding energies>  (109) 
[-10.14]

>  <Ligand effiencies>  (109) 
[-0.24731707317073173]

>  <Interactions>  (109) 
["H-B:TYR:531:OH:9767, V-B:MET:535:CE:9807, V-B:TYR:531:CZ:9766, V-A:PRO:540:N:4884, V-A:ILE:538:CG2:4863, V-A:TYR:539:CD1:4873, V-A:PRO:540:CA:4883, V-A:TYR:539:CZ:4877, V-A:PRO:540:CB:4885, V-A:TYR:539:CE1:4875, V-A:TYR:531:CZ:4794, V-A:ILE:538:CB:4862, V-B:TYR:531:CE1:9764, H-B:LYS:534:NZ:9795, H-B:GLY:454:N:9021, V-B:ASP:366:CB:8183, H-B:ARG:545:NH1:9899, V-B:ASP:366:CA:8181, V-A:TYR:539:C:4867, V-A:LEU:363:CD1:3188, V-A:GLU:543:CG:4907, V-A:GLU:543:CD:4908, H-B:ARG:545:NH2:9900, V-B:ASP:366:C:8179, H-A:TYR:539:OH:4878, V-B:HIS:456:CE1:9041, V-A:GLU:543:CB:4906, V-A:TYR:531:CE2:4793, V-B:TYR:484:CZ:9318, V-B:ILE:369:CG2:8208, V-B:TYR:484:CE2:9317"]

$$$$
RR6_Rahimova_2017
     RDKit          3D

 38 41  0  0  0  0  0  0  0  0999 V2000
  128.4600  129.7840   53.6880 C   0  0  0  0  0  0  0  0  0  0  0  0
  127.6570  130.6130   54.5170 O   0  0  0  0  0  0  0  0  0  0  0  0
  127.9120  130.7280   55.8460 C   0  0  0  0  0  0  0  0  0  0  0  0
  128.5060  131.6900   56.3430 O   0  0  0  0  0  0  0  0  0  0  0  0
  127.4000  129.5690   56.6520 C   0  0  0  0  0  0  0  0  0  0  0  0
  128.2390  128.5250   57.0690 C   0  0  0  0  0  0  0  0  0  0  0  0
  127.7330  127.4590   57.8090 C   0  0  0  0  0  0  0  0  0  0  0  0
  126.3700  127.4190   58.1420 C   0  0  0  0  0  0  0  0  0  0  0  0
  125.7500  126.3790   58.8590 N   0  0  0  0  0  0  0  0  0  0  0  0
  125.5920  125.0810   58.5200 C   0  0  0  0  0  0  0  0  0  0  0  0
  125.9940  124.5610   57.4790 O   0  0  0  0  0  0  0  0  0  0  0  0
  124.7890  124.2310   59.5100 C   0  0  0  0  0  0  0  0  0  0  0  0
  125.8160  123.4130   60.7760 S   0  0  0  0  0  0  0  0  0  0  0  0
  126.8440  124.6750   61.4980 C   0  0  0  0  0  0  0  0  0  0  0  0
  126.3030  125.9160   61.4730 N   0  0  0  0  0  0  0  0  0  0  0  0
  126.9800  126.9570   62.0200 C   0  0  0  0  0  0  0  0  0  0  0  0
  126.2850  128.2870   62.0060 C   0  0  0  0  0  0  0  0  0  0  0  0
  125.7670  128.8440   63.1860 C   0  0  0  0  0  0  0  0  0  0  0  0
  125.1100  130.0710   63.1700 C   0  0  0  0  0  0  0  0  0  0  0  0
  124.9640  130.7690   61.9720 C   0  0  0  0  0  0  0  0  0  0  0  0
  124.2390  132.1030   61.9590 C   0  0  0  0  0  0  0  0  0  0  0  0
  125.4730  130.2350   60.7910 C   0  0  0  0  0  0  0  0  0  0  0  0
  126.1290  129.0080   60.8120 C   0  0  0  0  0  0  0  0  0  0  0  0
  128.2390  126.7660   62.6000 C   0  0  0  0  0  0  0  0  0  0  0  0
  128.8220  125.4910   62.6350 C   0  0  0  0  0  0  0  0  0  0  0  0
  130.1590  125.3550   63.2850 C   0  0  0  0  0  0  0  0  0  0  0  0
  131.2940  125.0970   62.5110 C   0  0  0  0  0  0  0  0  0  0  0  0
  132.5470  124.9840   63.1080 C   0  0  0  0  0  0  0  0  0  0  0  0
  132.6910  125.1320   64.4860 C   0  0  0  0  0  0  0  0  0  0  0  0
  133.9710  125.0060   64.9900 O   0  0  0  0  0  0  0  0  0  0  0  0
  134.2190  125.3550   66.3480 C   0  0  0  0  0  0  0  0  0  0  0  0
  131.5550  125.3970   65.2670 C   0  0  0  0  0  0  0  0  0  0  0  0
  130.3040  125.5090   64.6670 C   0  0  0  0  0  0  0  0  0  0  0  0
  128.1090  124.4090   62.0620 C   0  0  0  0  0  0  0  0  0  0  0  0
  128.6730  123.0560   62.0380 C   0  0  0  0  0  0  0  0  0  0  0  0
  129.1180  121.9880   62.0210 N   0  0  0  0  0  0  0  0  0  0  0  0
  125.5360  128.4640   57.7440 C   0  0  0  0  0  0  0  0  0  0  0  0
  126.0440  129.5270   57.0010 C   0  0  0  0  0  0  0  0  0  0  0  0
  1  2  1  0
  2  3  1  0
  3  4  2  0
  3  5  1  0
  5  6  2  0
  6  7  1  0
  7  8  2  0
  8  9  1  0
  9 10  1  0
 10 11  2  0
 10 12  1  0
 12 13  1  0
 13 14  1  0
 14 15  2  0
 15 16  1  0
 16 17  1  0
 17 18  2  0
 18 19  1  0
 19 20  2  0
 20 21  1  0
 20 22  1  0
 22 23  2  0
 16 24  2  0
 24 25  1  0
 25 26  1  0
 26 27  2  0
 27 28  1  0
 28 29  2  0
 29 30  1  0
 30 31  1  0
 29 32  1  0
 32 33  2  0
 25 34  2  0
 34 35  1  0
 35 36  3  0
  8 37  1  0
 37 38  2  0
 38  5  1  0
 34 14  1  0
 23 17  1  0
 33 26  1  0
M  END
>  <Binding energies>  (110) 
[-9.54]

>  <Ligand effiencies>  (110) 
[-0.2446153846153846]

>  <Interactions>  (110) 
["H-B:ALA:541:N:9863, V-B:PRO:540:CB:9857, H-B:TYR:531:OH:9767, V-B:ALA:541:CB:9864, V-B:TYR:531:CZ:9766, H-A:TYR:484:OH:4347, H-A:GLY:454:N:4049, V-A:TYR:539:CZ:4877, V-A:TYR:539:CE1:4875, V-B:ASP:366:CG:8184, V-B:TYR:531:CE1:9764, H-B:LYS:534:NZ:9795, V-B:ASP:366:CB:8183, V-B:ARG:545:CZ:9898, V-B:ILE:369:CD1:8210, H-B:ARG:545:NH2:9900, H-A:TYR:539:OH:4878, H-A:ARG:545:NH2:4928, V-A:ARG:545:CD:4923, V-B:GLU:543:CD:9880, H-A:ARG:545:NE:4924, V-A:ARG:545:CG:4922, V-A:ARG:545:CZ:4926, H-A:ARG:545:NH1:4927, V-B:LYS:534:CE:9794, V-B:ILE:369:CG2:8208, H-B:ASP:366:OD2:8186, H-B:ASP:366:OD1:8185, V-A:GLY:453:CA:4043, V-A:GLY:453:C:4041"]

$$$$
RR7_Rahimova_2017
     RDKit          3D

 47 53  0  0  0  0  0  0  0  0999 V2000
  132.8160  124.2400   58.1760 C   0  0  0  0  0  0  0  0  0  0  0  0
  131.4520  124.5570   58.4380 O   0  0  0  0  0  0  0  0  0  0  0  0
  131.0280  125.8650   58.3000 C   0  0  0  0  0  0  0  0  0  0  0  0
  130.0890  126.3150   59.2250 C   0  0  0  0  0  0  0  0  0  0  0  0
  129.6060  127.6190   59.1700 C   0  0  0  0  0  0  0  0  0  0  0  0
  130.0450  128.5040   58.1740 C   0  0  0  0  0  0  0  0  0  0  0  0
  129.5460  129.9810   58.1070 C   0  0  0  0  0  0  0  0  0  0  0  0
  128.2480  129.9430   57.4710 O   0  0  0  0  0  0  0  0  0  0  0  0
  127.6670  128.6880   57.1010 C   0  0  0  0  0  0  0  0  0  0  0  0
  126.1550  128.7360   57.3780 C   0  0  1  0  0  0  0  0  0  0  0  0
  125.9520  128.1490   58.6600 O   0  0  0  0  0  0  0  0  0  0  0  0
  125.3350  129.0360   59.5490 C   0  0  1  0  0  0  0  0  0  0  0  0
  125.8070  128.7990   60.9000 N   0  0  0  0  0  0  0  0  0  0  0  0
  126.7170  127.8500   61.3300 C   0  0  0  0  0  0  0  0  0  0  0  0
  126.9310  127.8230   62.6220 N   0  0  0  0  0  0  0  0  0  0  0  0
  126.0850  128.7800   63.1130 C   0  0  0  0  0  0  0  0  0  0  0  0
  125.8270  129.2280   64.4240 C   0  0  0  0  0  0  0  0  0  0  0  0
  126.5390  128.6450   65.4890 N   0  0  0  0  0  0  0  0  0  0  0  0
  127.3450  129.2390   66.4010 C   0  0  0  0  0  0  0  0  0  0  0  0
  127.6020  130.4450   66.4200 O   0  0  0  0  0  0  0  0  0  0  0  0
  127.9720  128.3140   67.4220 C   0  0  0  0  0  0  0  0  0  0  0  0
  128.9700  128.8010   68.2800 C   0  0  0  0  0  0  0  0  0  0  0  0
  129.5550  127.9690   69.2290 C   0  0  0  0  0  0  0  0  0  0  0  0
  129.1450  126.6440   69.3330 C   0  0  0  0  0  0  0  0  0  0  0  0
  128.1530  126.1420   68.4950 C   0  0  0  0  0  0  0  0  0  0  0  0
  127.5670  126.9730   67.5430 C   0  0  0  0  0  0  0  0  0  0  0  0
  124.8940  130.2080   64.6230 N   0  0  0  0  0  0  0  0  0  0  0  0
  124.2550  130.7050   63.5320 C   0  0  0  0  0  0  0  0  0  0  0  0
  124.4280  130.3500   62.2310 N   0  0  0  0  0  0  0  0  0  0  0  0
  125.3510  129.3940   62.0660 C   0  0  0  0  0  0  0  0  0  0  0  0
  125.6300  130.4260   58.9990 C   0  0  0  0  0  0  0  0  0  0  0  0
  125.5630  130.1460   57.5070 C   0  0  2  0  0  0  0  0  0  0  0  0
  124.2380  130.2240   57.0110 O   0  0  0  0  0  0  0  0  0  0  0  0
  129.3420  130.6000   59.5150 C   0  0  0  0  0  0  0  0  0  0  0  0
  128.3890  131.6120   59.7130 C   0  0  0  0  0  0  0  0  0  0  0  0
  128.2080  132.1840   60.9680 C   0  0  0  0  0  0  0  0  0  0  0  0
  128.9800  131.7490   62.0410 C   0  0  0  0  0  0  0  0  0  0  0  0
  129.9310  130.7480   61.8680 C   0  0  0  0  0  0  0  0  0  0  0  0
  130.1120  130.1770   60.6120 C   0  0  0  0  0  0  0  0  0  0  0  0
  130.4680  130.9730   57.3440 C   0  0  0  0  0  0  0  0  0  0  0  0
  130.0130  131.6180   56.1830 C   0  0  0  0  0  0  0  0  0  0  0  0
  130.8340  132.5000   55.4880 C   0  0  0  0  0  0  0  0  0  0  0  0
  132.1270  132.7400   55.9430 C   0  0  0  0  0  0  0  0  0  0  0  0
  132.6050  132.1020   57.0830 C   0  0  0  0  0  0  0  0  0  0  0  0
  131.7810  131.2210   57.7770 C   0  0  0  0  0  0  0  0  0  0  0  0
  131.0010  128.0500   57.2530 C   0  0  0  0  0  0  0  0  0  0  0  0
  131.4840  126.7450   57.3100 C   0  0  0  0  0  0  0  0  0  0  0  0
  1  2  1  0
  2  3  1  0
  3  4  2  0
  4  5  1  0
  5  6  2  0
  6  7  1  0
  7  8  1  0
  8  9  1  0
 10  9  1  1
 10 11  1  0
 11 12  1  0
 12 13  1  1
 13 14  1  0
 14 15  2  0
 15 16  1  0
 16 17  2  0
 17 18  1  0
 18 19  1  0
 19 20  2  0
 19 21  1  0
 21 22  2  0
 22 23  1  0
 23 24  2  0
 24 25  1  0
 25 26  2  0
 17 27  1  0
 27 28  2  0
 28 29  1  0
 29 30  2  0
 12 31  1  0
 31 32  1  0
 32 33  1  1
  7 34  1  0
 34 35  2  0
 35 36  1  0
 36 37  2  0
 37 38  1  0
 38 39  2  0
  7 40  1  0
 40 41  2  0
 41 42  1  0
 42 43  2  0
 43 44  1  0
 44 45  2  0
  6 46  1  0
 46 47  2  0
 47  3  1  0
 32 10  1  0
 39 34  1  0
 45 40  1  0
 30 13  1  0
 30 16  1  0
 26 21  1  0
M  END
>  <Binding energies>  (111) 
[-9.84]

>  <Ligand effiencies>  (111) 
[-0.20081632653061224]

>  <Interactions>  (111) 
["H-B:TYR:531:OH:9767, V-B:TYR:539:CE2:9848, V-B:TYR:531:CZ:9766, V-A:PRO:540:N:4884, V-A:ILE:538:CA:4860, V-A:ASP:366:CA:3209, V-A:ASP:366:CB:3211, V-A:ILE:538:CG2:4863, H-B:TYR:539:OH:9850, V-A:TYR:539:CD1:4873, V-A:PRO:540:CA:4883, V-A:TYR:539:CZ:4877, V-A:PRO:540:CB:4885, V-A:TYR:539:CE1:4875, V-A:ILE:538:CB:4862, V-B:ASP:366:CG:8184, V-B:TYR:531:CE1:9764, H-B:GLY:454:N:9021, V-B:ASP:366:CB:8183, V-B:ARG:545:CZ:9898, V-A:ALA:541:CB:4892, V-A:PRO:540:CD:4887, V-A:LEU:363:CD1:3188, V-A:GLU:543:CG:4907, V-B:GLY:454:CA:9020, V-A:GLU:543:CD:4908, H-B:ARG:545:NH2:9900, H-B:TYR:484:OH:9319, V-B:TYR:539:CZ:9849, H-A:TYR:539:OH:4878, V-A:GLU:543:C:4902, V-B:HIS:456:CE1:9041, V-A:HIS:456:CE1:4069, V-B:GLU:543:CB:9878, V-B:GLU:543:CD:9880, H-B:GLU:543:OE2:9882, V-A:GLU:543:CA:4904, V-A:GLU:543:CB:4906, V-A:ILE:538:C:4858, V-A:PRO:540:CG:4886, V-B:GLU:543:CA:9876, V-B:GLU:543:C:9874, H-B:ASP:366:O:8180"]

$$$$
RR8_A_Rahimova_2017
     RDKit          3D

 42 46  0  0  0  0  0  0  0  0999 V2000
  129.2330  122.1400   62.6530 O   0  0  0  0  0  0  0  0  0  0  0  0
  128.9050  123.1340   61.9950 C   0  0  0  0  0  0  0  0  0  0  0  0
  129.1040  124.4280   62.3970 O   0  0  0  0  0  0  0  0  0  0  0  0
  130.4010  124.9470   62.2930 C   0  0  1  0  0  0  0  0  0  0  0  0
  131.3020  124.2510   63.1040 O   0  0  0  0  0  0  0  0  0  0  0  0
  132.5700  124.0940   62.4730 C   0  0  2  0  0  0  0  0  0  0  0  0
  133.6540  124.6750   63.3980 C   0  0  0  0  0  0  0  0  0  0  0  0
  133.2410  124.5090   64.7480 O   0  0  0  0  0  0  0  0  0  0  0  0
  133.3380  125.6910   65.5310 C   0  0  0  0  0  0  0  0  0  0  0  0
  131.9990  125.9810   66.1940 C   0  0  0  0  0  0  0  0  0  0  0  0
  130.8480  125.3200   65.7580 C   0  0  0  0  0  0  0  0  0  0  0  0
  129.6220  125.5790   66.3670 C   0  0  0  0  0  0  0  0  0  0  0  0
  129.5510  126.4970   67.4130 C   0  0  0  0  0  0  0  0  0  0  0  0
  130.6950  127.1570   67.8570 C   0  0  0  0  0  0  0  0  0  0  0  0
  131.9210  126.8970   67.2500 C   0  0  0  0  0  0  0  0  0  0  0  0
  132.3990  124.8080   61.1260 C   0  0  1  0  0  0  0  0  0  0  0  0
  133.0500  124.1370   60.0490 O   0  0  0  0  0  0  0  0  0  0  0  0
  134.0240  123.1700   60.4230 C   0  0  0  0  0  0  0  0  0  0  0  0
  133.3610  121.8140   60.6200 C   0  0  0  0  0  0  0  0  0  0  0  0
  134.0820  120.7680   61.2030 C   0  0  0  0  0  0  0  0  0  0  0  0
  133.4850  119.5230   61.3780 C   0  0  0  0  0  0  0  0  0  0  0  0
  132.1680  119.3240   60.9670 C   0  0  0  0  0  0  0  0  0  0  0  0
  131.4450  120.3590   60.3790 C   0  0  0  0  0  0  0  0  0  0  0  0
  132.0420  121.6040   60.2020 C   0  0  0  0  0  0  0  0  0  0  0  0
  130.9050  124.7250   60.8730 C   0  0  2  0  0  0  0  0  0  0  0  0
  130.4940  125.7350   59.9550 O   0  0  0  0  0  0  0  0  0  0  0  0
  129.7530  125.2790   58.8280 C   0  0  0  0  0  0  0  0  0  0  0  0
  130.5870  125.4300   57.5650 C   0  0  0  0  0  0  0  0  0  0  0  0
  129.9610  125.5940   56.3240 C   0  0  0  0  0  0  0  0  0  0  0  0
  130.7280  125.7410   55.1720 C   0  0  0  0  0  0  0  0  0  0  0  0
  132.1180  125.7280   55.2620 C   0  0  0  0  0  0  0  0  0  0  0  0
  132.7490  125.5710   56.4930 C   0  0  0  0  0  0  0  0  0  0  0  0
  131.9820  125.4230   57.6470 C   0  0  0  0  0  0  0  0  0  0  0  0
  128.2500  123.0410   60.6480 C   0  0  0  0  0  0  0  0  0  0  0  0
  128.8550  122.3700   59.5730 C   0  0  0  0  0  0  0  0  0  0  0  0
  128.2220  122.3020   58.3350 C   0  0  0  0  0  0  0  0  0  0  0  0
  126.9710  122.9020   58.1380 C   0  0  0  0  0  0  0  0  0  0  0  0
  126.2980  122.8270   56.8190 N   0  0  0  0  0  0  0  0  0  0  0  0
  125.7670  123.8400   56.3710 O   0  0  0  0  0  0  0  0  0  0  0  0
  126.2940  121.7560   56.2200 O   0  0  0  0  0  0  0  0  0  0  0  0
  126.3700  123.5730   59.2100 C   0  0  0  0  0  0  0  0  0  0  0  0
  127.0010  123.6420   60.4490 C   0  0  0  0  0  0  0  0  0  0  0  0
  1  2  2  0
  2  3  1  0
  4  3  1  6
  4  5  1  0
  5  6  1  0
  6  7  1  1
  7  8  1  0
  8  9  1  0
  9 10  1  0
 10 11  2  0
 11 12  1  0
 12 13  2  0
 13 14  1  0
 14 15  2  0
  6 16  1  0
 16 17  1  6
 17 18  1  0
 18 19  1  0
 19 20  2  0
 20 21  1  0
 21 22  2  0
 22 23  1  0
 23 24  2  0
 16 25  1  0
 25 26  1  6
 26 27  1  0
 27 28  1  0
 28 29  2  0
 29 30  1  0
 30 31  2  0
 31 32  1  0
 32 33  2  0
  2 34  1  0
 34 35  2  0
 35 36  1  0
 36 37  2  0
 37 38  1  0
 38 39  2  0
 38 40  1  0
 37 41  1  0
 41 42  2  0
 25  4  1  0
 33 28  1  0
 42 34  1  0
 15 10  1  0
 24 19  1  0
M  CHG  2  38   1  40  -1
M  END
>  <Binding energies>  (112) 
[-10.06]

>  <Ligand effiencies>  (112) 
[-0.23952380952380953]

>  <Interactions>  (112) 
["H-B:ALA:541:N:9863, V-B:PRO:540:CB:9857, H-B:TYR:531:OH:9767, V-B:MET:535:CE:9807, V-A:ILE:369:CG2:3236, V-B:TYR:539:CD2:9846, V-B:PRO:540:N:9856, V-A:LEU:475:CD1:4257, V-B:PRO:540:CA:9855, H-B:TYR:539:N:9842, V-B:TYR:539:CE2:9848, V-B:TYR:539:C:9839, H-A:TYR:484:OH:4347, V-A:ASP:366:CG:3212, H-A:GLY:454:N:4049, V-A:TYR:531:CE1:4792, V-A:ASP:366:CA:3209, V-A:ASP:366:CB:3211, V-A:ASN:370:CB:3244, V-A:ASP:366:C:3207, V-A:TYR:531:CZ:4794, V-A:GLU:543:CD:4908, V-A:ILE:369:CD1:3238, V-A:SER:385:CA:3406, V-A:ILE:369:CB:3235, V-A:SER:385:C:3404, V-A:TYR:484:CZ:4346, V-A:HIS:456:CE1:4069, V-B:GLU:543:CB:9878, V-A:ARG:545:CD:4923, V-B:GLU:543:CG:9879, V-B:GLU:543:CD:9880, V-A:ARG:545:CG:4922, V-A:ARG:545:CZ:4926, V-A:GLU:543:CB:4906, V-A:GLY:453:CA:4043, V-A:GLY:453:C:4041, V-A:ASN:370:CG:3245"]

$$$$
RR8_B_Rahimova_2017
     RDKit          3D

 42 46  0  0  0  0  0  0  0  0999 V2000
  132.3870  125.0740   58.5190 O   0  0  0  0  0  0  0  0  0  0  0  0
  131.5500  124.3640   59.0860 C   0  0  0  0  0  0  0  0  0  0  0  0
  131.7170  123.8120   60.3250 O   0  0  0  0  0  0  0  0  0  0  0  0
  132.0120  124.6700   61.4000 C   0  0  2  0  0  0  0  0  0  0  0  0
  133.1090  124.2180   62.1430 O   0  0  0  0  0  0  0  0  0  0  0  0
  132.6990  123.3800   63.2220 C   0  0  2  0  0  0  0  0  0  0  0  0
  133.3720  122.0020   63.0870 C   0  0  0  0  0  0  0  0  0  0  0  0
  134.2150  122.0030   61.9420 O   0  0  0  0  0  0  0  0  0  0  0  0
  133.5650  121.6860   60.7200 C   0  0  0  0  0  0  0  0  0  0  0  0
  132.5410  120.5890   60.9680 C   0  0  0  0  0  0  0  0  0  0  0  0
  132.9630  119.2620   61.0970 C   0  0  0  0  0  0  0  0  0  0  0  0
  132.0290  118.2500   61.2990 C   0  0  0  0  0  0  0  0  0  0  0  0
  130.6740  118.5680   61.3740 C   0  0  0  0  0  0  0  0  0  0  0  0
  130.2470  119.8880   61.2530 C   0  0  0  0  0  0  0  0  0  0  0  0
  131.1810  120.9010   61.0470 C   0  0  0  0  0  0  0  0  0  0  0  0
  131.1680  123.3770   63.1400 C   0  0  1  0  0  0  0  0  0  0  0  0
  130.6110  123.3340   64.4570 O   0  0  0  0  0  0  0  0  0  0  0  0
  129.7740  124.4260   64.8450 C   0  0  0  0  0  0  0  0  0  0  0  0
  130.4890  125.4000   65.7760 C   0  0  0  0  0  0  0  0  0  0  0  0
  129.7870  126.0220   66.8130 C   0  0  0  0  0  0  0  0  0  0  0  0
  130.4500  126.8860   67.6810 C   0  0  0  0  0  0  0  0  0  0  0  0
  131.8110  127.1280   67.5060 C   0  0  0  0  0  0  0  0  0  0  0  0
  132.5160  126.5150   66.4730 C   0  0  0  0  0  0  0  0  0  0  0  0
  131.8540  125.6480   65.6060 C   0  0  0  0  0  0  0  0  0  0  0  0
  130.8480  124.6650   62.3900 C   0  0  2  0  0  0  0  0  0  0  0  0
  129.5670  124.5750   61.7720 O   0  0  0  0  0  0  0  0  0  0  0  0
  128.8670  123.3590   61.9840 C   0  0  0  0  0  0  0  0  0  0  0  0
  127.4710  123.5060   61.4050 C   0  0  0  0  0  0  0  0  0  0  0  0
  127.2320  124.4030   60.3590 C   0  0  0  0  0  0  0  0  0  0  0  0
  125.9440  124.5440   59.8490 C   0  0  0  0  0  0  0  0  0  0  0  0
  124.9020  123.7900   60.3830 C   0  0  0  0  0  0  0  0  0  0  0  0
  125.1340  122.8930   61.4250 C   0  0  0  0  0  0  0  0  0  0  0  0
  126.4210  122.7510   61.9350 C   0  0  0  0  0  0  0  0  0  0  0  0
  130.2390  123.9830   58.4600 C   0  0  0  0  0  0  0  0  0  0  0  0
  129.5470  124.8530   57.6050 C   0  0  0  0  0  0  0  0  0  0  0  0
  128.3300  124.4760   57.0470 C   0  0  0  0  0  0  0  0  0  0  0  0
  127.7690  123.2270   57.3370 C   0  0  0  0  0  0  0  0  0  0  0  0
  126.4580  122.8370   56.7610 N   0  0  0  0  0  0  0  0  0  0  0  0
  126.2700  121.6590   56.4680 O   0  0  0  0  0  0  0  0  0  0  0  0
  125.6040  123.7060   56.6030 O   0  0  0  0  0  0  0  0  0  0  0  0
  128.4640  122.3550   58.1860 C   0  0  0  0  0  0  0  0  0  0  0  0
  129.6840  122.7280   58.7390 C   0  0  0  0  0  0  0  0  0  0  0  0
  1  2  2  0
  2  3  1  0
  4  3  1  6
  4  5  1  0
  5  6  1  0
  6  7  1  6
  7  8  1  0
  8  9  1  0
  9 10  1  0
 10 11  2  0
 11 12  1  0
 12 13  2  0
 13 14  1  0
 14 15  2  0
  6 16  1  0
 16 17  1  1
 17 18  1  0
 18 19  1  0
 19 20  2  0
 20 21  1  0
 21 22  2  0
 22 23  1  0
 23 24  2  0
 16 25  1  0
 25 26  1  6
 26 27  1  0
 27 28  1  0
 28 29  2  0
 29 30  1  0
 30 31  2  0
 31 32  1  0
 32 33  2  0
  2 34  1  0
 34 35  2  0
 35 36  1  0
 36 37  2  0
 37 38  1  0
 38 39  2  0
 38 40  1  0
 37 41  1  0
 41 42  2  0
 25  4  1  0
 33 28  1  0
 42 34  1  0
 15 10  1  0
 24 19  1  0
M  CHG  2  38   1  40  -1
M  END
>  <Binding energies>  (113) 
[-9.35]

>  <Ligand effiencies>  (113) 
[-0.2226190476190476]

>  <Interactions>  (113) 
["V-B:PRO:540:CB:9857, H-B:TYR:531:OH:9767, V-B:MET:535:CE:9807, V-A:ILE:369:CG2:3236, V-B:TYR:539:CD2:9846, V-B:PRO:540:N:9856, V-A:LEU:475:CD1:4257, V-B:PRO:540:CA:9855, V-B:PRO:540:C:9853, H-B:TYR:539:N:9842, V-B:ALA:541:CB:9864, V-B:TYR:539:CE2:9848, V-B:TYR:539:C:9839, V-A:PRO:482:CG:4326, V-A:PRO:482:CB:4325, H-A:TYR:484:OH:4347, V-A:ASP:366:CG:3212, H-A:GLY:454:N:4049, V-B:ASP:366:CG:8184, V-A:GLU:543:CD:4908, V-A:ILE:369:CD1:3238, V-B:TYR:539:CZ:9849, V-A:HIS:456:CE1:4069, V-A:ARG:545:CD:4923, V-B:GLU:543:CG:9879, V-B:GLU:543:CD:9880, V-A:ARG:545:CG:4922, V-A:ARG:545:CZ:4926, V-A:GLU:543:CB:4906, V-A:GLY:454:CA:4048, V-B:ALA:541:CA:9862, V-B:ASN:362:CB:8147"]

$$$$
RR9_Rahimova_2017
     RDKit          3D

 36 40  0  0  0  0  0  0  0  0999 V2000
  128.7480  125.4340   72.4660 C   0  0  0  0  0  0  0  0  0  0  0  0
  128.9260  126.9460   72.3010 C   0  0  0  0  0  0  0  0  0  0  0  0
  129.7330  127.1900   71.1520 O   0  0  0  0  0  0  0  0  0  0  0  0
  129.1260  127.4380   69.9370 C   0  0  0  0  0  0  0  0  0  0  0  0
  129.1260  128.7610   69.4990 C   0  0  0  0  0  0  0  0  0  0  0  0
  128.5350  129.1070   68.2870 C   0  0  0  0  0  0  0  0  0  0  0  0
  127.9260  128.1370   67.4780 C   0  0  0  0  0  0  0  0  0  0  0  0
  127.2840  128.5040   66.1730 C   0  0  0  0  0  0  0  0  0  0  0  0
  127.7480  127.9890   64.9530 C   0  0  0  0  0  0  0  0  0  0  0  0
  127.1340  128.3260   63.7340 C   0  0  0  0  0  0  0  0  0  0  0  0
  127.6140  127.6620   62.4720 C   0  0  0  0  0  0  0  0  0  0  0  0
  128.4000  128.2430   61.7230 O   0  0  0  0  0  0  0  0  0  0  0  0
  127.1100  126.4370   62.2270 N   0  0  0  0  0  0  0  0  0  0  0  0
  127.3210  125.6480   61.0090 C   0  0  0  0  0  0  0  0  0  0  0  0
  126.2020  124.6100   60.7570 C   0  0  0  0  0  0  0  0  0  0  0  0
  126.3170  123.8570   59.4370 C   0  0  0  0  0  0  0  0  0  0  0  0
  127.4750  123.1290   59.1430 C   0  0  0  0  0  0  0  0  0  0  0  0
  127.5630  122.4140   57.9520 C   0  0  0  0  0  0  0  0  0  0  0  0
  126.4960  122.4320   57.0560 C   0  0  0  0  0  0  0  0  0  0  0  0
  125.3410  123.1580   57.3400 C   0  0  0  0  0  0  0  0  0  0  0  0
  125.2520  123.8730   58.5330 C   0  0  0  0  0  0  0  0  0  0  0  0
  126.0510  129.2370   63.8080 C   0  0  0  0  0  0  0  0  0  0  0  0
  125.1380  129.9140   62.9180 C   0  0  0  0  0  0  0  0  0  0  0  0
  125.0950  129.9170   61.4250 C   0  0  0  0  0  0  0  0  0  0  0  0
  124.4170  130.9320   60.7430 C   0  0  0  0  0  0  0  0  0  0  0  0
  124.3650  130.9240   59.3510 C   0  0  0  0  0  0  0  0  0  0  0  0
  124.9940  129.9030   58.6370 C   0  0  0  0  0  0  0  0  0  0  0  0
  124.9210  129.8840   57.1200 C   0  0  0  0  0  0  0  0  0  0  0  0
  125.6700  128.8870   59.3140 C   0  0  0  0  0  0  0  0  0  0  0  0
  125.7230  128.8980   60.7050 C   0  0  0  0  0  0  0  0  0  0  0  0
  124.2680  130.6230   63.6010 N   0  0  0  0  0  0  0  0  0  0  0  0
  124.5760  130.5110   64.9030 N   0  0  0  0  0  0  0  0  0  0  0  0
  125.6610  129.6880   65.0920 C   0  0  0  0  0  0  0  0  0  0  0  0
  126.2300  129.3650   66.2520 N   0  0  0  0  0  0  0  0  0  0  0  0
  127.9280  126.8080   67.9260 C   0  0  0  0  0  0  0  0  0  0  0  0
  128.5200  126.4590   69.1380 C   0  0  0  0  0  0  0  0  0  0  0  0
  1  2  1  0
  2  3  1  0
  3  4  1  0
  4  5  2  0
  5  6  1  0
  6  7  2  0
  7  8  1  0
  8  9  2  0
  9 10  1  0
 10 11  1  0
 11 12  2  0
 11 13  1  0
 13 14  1  0
 14 15  1  0
 15 16  1  0
 16 17  2  0
 17 18  1  0
 18 19  2  0
 19 20  1  0
 20 21  2  0
 10 22  2  0
 22 23  1  0
 23 24  1  0
 24 25  2  0
 25 26  1  0
 26 27  2  0
 27 28  1  0
 27 29  1  0
 29 30  2  0
 23 31  2  0
 31 32  1  0
 32 33  1  0
 33 34  2  0
  7 35  1  0
 35 36  2  0
 36  4  1  0
 34  8  1  0
 21 16  1  0
 33 22  1  0
 30 24  1  0
M  END
>  <Binding energies>  (114) 
[-9.3]

>  <Ligand effiencies>  (114) 
[-0.24473684210526317]

>  <Interactions>  (114) 
["V-B:PRO:540:CB:9857, V-B:MET:535:CE:9807, V-B:PRO:540:N:9856, V-B:PRO:540:CA:9855, V-B:TYR:539:C:9839, V-B:TYR:531:CE2:9765, V-B:TYR:531:CZ:9766, V-B:LEU:363:CD1:8160, V-B:PRO:540:CD:9859, V-A:TYR:539:CZ:4877, V-A:TYR:539:CE1:4875, V-B:ASP:366:CG:8184, V-B:TYR:531:CE1:9764, H-B:GLY:454:N:9021, V-B:ASP:366:CB:8183, V-B:ASP:366:CA:8181, V-B:ILE:369:CD1:8210, V-A:GLU:543:CG:4907, V-B:GLY:454:CA:9020, V-A:GLU:543:CD:4908, H-B:TYR:484:OH:9319, V-A:GLU:543:C:4902, V-B:HIS:456:CE1:9041, V-A:HIS:456:CE1:4069, V-B:GLU:543:CB:9878, H-B:GLU:543:OE1:9881, V-B:GLU:543:CD:9880, H-B:GLU:543:OE2:9882, V-A:GLU:543:CB:4906, V-B:ILE:369:CG2:8208, V-B:TYR:484:CE2:9317, H-B:ASP:366:OD1:8185, V-B:ILE:369:CB:8207, V-B:HIS:456:CD2:9039, H-A:HIS:456:ND1:4066"]

$$$$
