1a_Grossjean_2025
     RDKit          3D

 26 27  0  0  0  0  0  0  0  0999 V2000
  124.3760  123.7520   58.9120 C   0  0  0  0  0  0  0  0  0  0  0  0
  125.4830  124.5450   58.2120 C   0  0  0  0  0  0  0  0  0  0  0  0
  125.8390  123.8920   56.9990 O   0  0  0  0  0  0  0  0  0  0  0  0
  126.6450  122.7990   57.0020 C   0  0  0  0  0  0  0  0  0  0  0  0
  126.3190  121.7120   56.5150 O   0  0  0  0  0  0  0  0  0  0  0  0
  127.9680  123.0380   57.6720 C   0  0  0  0  0  0  0  0  0  0  0  0
  128.3440  122.2290   58.7510 C   0  0  0  0  0  0  0  0  0  0  0  0
  129.5620  122.4290   59.3950 C   0  0  0  0  0  0  0  0  0  0  0  0
  130.4260  123.4410   58.9770 C   0  0  0  0  0  0  0  0  0  0  0  0
  131.6290  123.5550   59.7020 N   0  0  0  0  0  0  0  0  0  0  0  0
  132.9080  123.4700   59.2800 C   0  0  0  0  0  0  0  0  0  0  0  0
  133.2660  123.2680   58.1200 O   0  0  0  0  0  0  0  0  0  0  0  0
  133.9700  123.6450   60.3680 C   0  0  0  0  0  0  0  0  0  0  0  0
  134.2070  122.1310   61.3440 S   0  0  0  0  0  0  0  0  0  0  0  0
  132.6200  121.3440   61.5050 C   0  0  0  0  0  0  0  0  0  0  0  0
  131.6820  122.1210   62.1040 N   0  0  0  0  0  0  0  0  0  0  0  0
  130.4380  121.6180   62.2820 C   0  0  0  0  0  0  0  0  0  0  0  0
  129.4470  122.5390   62.9700 C   0  0  0  0  0  0  0  0  0  0  0  0
  130.0770  120.3390   61.8660 C   0  0  0  0  0  0  0  0  0  0  0  0
  131.0300  119.5370   61.2280 C   0  0  0  0  0  0  0  0  0  0  0  0
  130.6080  118.1440   60.7670 C   0  0  0  0  0  0  0  0  0  0  0  0
  132.3360  120.0430   61.0280 C   0  0  0  0  0  0  0  0  0  0  0  0
  133.3370  119.2400   60.3200 C   0  0  0  0  0  0  0  0  0  0  0  0
  134.1250  118.6050   59.7600 N   0  0  0  0  0  0  0  0  0  0  0  0
  130.0610  124.2520   57.8920 C   0  0  0  0  0  0  0  0  0  0  0  0
  128.8430  124.0510   57.2490 C   0  0  0  0  0  0  0  0  0  0  0  0
  1  2  1  0
  2  3  1  0
  3  4  1  0
  4  5  2  0
  4  6  1  0
  6  7  2  0
  7  8  1  0
  8  9  2  0
  9 10  1  0
 10 11  1  0
 11 12  2  0
 11 13  1  0
 13 14  1  0
 14 15  1  0
 15 16  2  0
 16 17  1  0
 17 18  1  0
 17 19  2  0
 19 20  1  0
 20 21  1  0
 20 22  2  0
 22 23  1  0
 23 24  3  0
  9 25  1  0
 25 26  2  0
 26  6  1  0
 22 15  1  0
M  END
>  <Binding energies>  (1) 
[-8.1]

>  <Ligand effiencies>  (1) 
[-0.3]

>  <Interactions>  (1) 
["V-B:PRO:540:CB:9857, H-B:TYR:531:OH:9767, V-B:MET:535:CE:9807, V-A:ILE:369:CG2:3236, V-B:TYR:539:CD2:9846, V-B:PRO:540:N:9856, V-A:LEU:475:CD1:4257, V-B:PRO:540:CA:9855, H-A:SER:385:OG:3409, H-A:HIS:383:NE2:3393, H-B:TYR:539:N:9842, V-B:ALA:541:CB:9864, V-B:TYR:539:CE2:9848, V-B:TYR:539:C:9839, V-B:TYR:531:CE2:9765, V-A:PRO:482:CG:4326, V-A:PRO:482:CB:4325, V-B:LEU:363:CD1:8160, V-A:ASP:366:CG:3212, V-A:ASP:366:CA:3209, H-B:TYR:539:OH:9850, V-A:ILE:369:CD1:3238, V-B:TYR:539:CZ:9849, V-B:LEU:363:CA:8156, V-A:ILE:369:CB:3235, V-B:ALA:541:CA:9862, V-B:LEU:363:CB:8158"]

$$$$
1aa_Ghoteimi_2023
     RDKit          3D

 40 43  0  0  0  0  0  0  0  0999 V2000
  129.1660  124.3310   72.8860 C   0  0  0  0  0  0  0  0  0  0  0  0
  129.4800  125.8150   73.0970 C   0  0  0  0  0  0  0  0  0  0  0  0
  128.6140  126.6020   72.2870 O   0  0  0  0  0  0  0  0  0  0  0  0
  129.0990  127.6070   71.5140 C   0  0  0  0  0  0  0  0  0  0  0  0
  129.4460  128.7040   71.9640 O   0  0  0  0  0  0  0  0  0  0  0  0
  129.1720  127.2540   70.0570 C   0  0  0  0  0  0  0  0  0  0  0  0
  129.3320  128.2320   69.0630 C   0  0  0  0  0  0  0  0  0  0  0  0
  129.3970  127.8750   67.7180 C   0  0  0  0  0  0  0  0  0  0  0  0
  129.3050  126.5260   67.3430 C   0  0  0  0  0  0  0  0  0  0  0  0
  129.3570  126.0490   66.0200 N   0  0  0  0  0  0  0  0  0  0  0  0
  130.4170  125.6980   65.2560 C   0  0  0  0  0  0  0  0  0  0  0  0
  131.5920  125.7360   65.6220 O   0  0  0  0  0  0  0  0  0  0  0  0
  130.1240  125.2130   63.8270 C   0  0  0  0  0  0  0  0  0  0  0  0
  128.7510  124.8210   63.7010 O   0  0  0  0  0  0  0  0  0  0  0  0
  127.9990  125.2390   62.6130 C   0  0  0  0  0  0  0  0  0  0  0  0
  127.4970  126.5050   62.6300 N   0  0  0  0  0  0  0  0  0  0  0  0
  126.7430  126.9470   61.5890 C   0  0  0  0  0  0  0  0  0  0  0  0
  126.2300  128.3550   61.6820 C   0  0  0  0  0  0  0  0  0  0  0  0
  125.8620  128.9090   62.9170 C   0  0  0  0  0  0  0  0  0  0  0  0
  125.3840  130.2140   63.0060 C   0  0  0  0  0  0  0  0  0  0  0  0
  125.2600  131.0040   61.8660 C   0  0  0  0  0  0  0  0  0  0  0  0
  124.7760  132.2850   62.0510 O   0  0  0  0  0  0  0  0  0  0  0  0
  125.0250  133.2710   61.0540 C   0  0  0  0  0  0  0  0  0  0  0  0
  125.6280  130.4670   60.6260 C   0  0  0  0  0  0  0  0  0  0  0  0
  126.1070  129.1630   60.5400 C   0  0  0  0  0  0  0  0  0  0  0  0
  126.4920  126.1200   60.4880 C   0  0  0  0  0  0  0  0  0  0  0  0
  127.0060  124.8160   60.4400 C   0  0  0  0  0  0  0  0  0  0  0  0
  126.7120  123.9870   59.2340 C   0  0  0  0  0  0  0  0  0  0  0  0
  127.7530  123.3660   58.5370 C   0  0  0  0  0  0  0  0  0  0  0  0
  127.4850  122.5840   57.4170 C   0  0  0  0  0  0  0  0  0  0  0  0
  126.1760  122.4010   56.9740 C   0  0  0  0  0  0  0  0  0  0  0  0
  126.0060  121.6100   55.8550 O   0  0  0  0  0  0  0  0  0  0  0  0
  125.0160  121.9650   54.8960 C   0  0  0  0  0  0  0  0  0  0  0  0
  125.1280  123.0160   57.6760 C   0  0  0  0  0  0  0  0  0  0  0  0
  125.3970  123.7990   58.7950 C   0  0  0  0  0  0  0  0  0  0  0  0
  127.7730  124.3620   61.5390 C   0  0  0  0  0  0  0  0  0  0  0  0
  128.3130  123.0030   61.5990 C   0  0  0  0  0  0  0  0  0  0  0  0
  128.7410  121.9290   61.6480 N   0  0  0  0  0  0  0  0  0  0  0  0
  129.1440  125.5520   68.3290 C   0  0  0  0  0  0  0  0  0  0  0  0
  129.0790  125.9100   69.6720 C   0  0  0  0  0  0  0  0  0  0  0  0
  1  2  1  0
  2  3  1  0
  3  4  1  0
  4  5  2  0
  4  6  1  0
  6  7  2  0
  7  8  1  0
  8  9  2  0
  9 10  1  0
 10 11  1  0
 11 12  2  0
 11 13  1  0
 13 14  1  0
 14 15  1  0
 15 16  2  0
 16 17  1  0
 17 18  1  0
 18 19  2  0
 19 20  1  0
 20 21  2  0
 21 22  1  0
 22 23  1  0
 21 24  1  0
 24 25  2  0
 17 26  2  0
 26 27  1  0
 27 28  1  0
 28 29  2  0
 29 30  1  0
 30 31  2  0
 31 32  1  0
 32 33  1  0
 31 34  1  0
 34 35  2  0
 27 36  2  0
 36 37  1  0
 37 38  3  0
  9 39  1  0
 39 40  2  0
 40  6  1  0
 36 15  1  0
 25 18  1  0
 35 28  1  0
M  END
>  <Binding energies>  (2) 
[-8.8]

>  <Ligand effiencies>  (2) 
[-0.21463414634146344]

>  <Interactions>  (2) 
["H-B:ALA:541:N:9863, V-B:PRO:540:CB:9857, V-B:MET:535:CE:9807, V-B:PRO:540:N:9856, V-B:PRO:540:CA:9855, H-B:TYR:539:N:9842, V-B:MET:535:CG:9805, V-B:TYR:539:C:9839, V-B:LEU:363:CD1:8160, H-A:TYR:484:OH:4347, V-B:PRO:540:CD:9859, V-B:ASP:366:CG:8184, V-B:ARG:545:CZ:9898, V-A:GLU:543:CD:4908, H-B:ARG:545:NH2:9900, V-A:GLU:543:C:4902, V-B:HIS:456:CE1:9041, V-A:HIS:456:CE1:4069, V-B:GLU:543:CB:9878, V-B:GLU:543:CG:9879, V-B:GLU:543:CD:9880, H-B:GLU:543:OE2:9882, V-A:GLU:543:CB:4906, V-A:TYR:484:CE2:4345, V-B:ILE:369:CG2:8208, V-B:ILE:538:CA:9832, V-B:ILE:538:CG1:9836, V-B:ILE:538:CG2:9835, V-B:ILE:538:CB:9834, V-B:GLU:543:CA:9876, V-B:GLU:543:C:9874, H-A:GLU:543:OE1:4909, V-B:MET:535:CB:9804, V-B:HIS:456:CD2:9039, V-A:HIS:456:CD2:4067"]

$$$$
1b_Grossjean_2025
     RDKit          3D

 25 26  0  0  0  0  0  0  0  0999 V2000
  125.0140  124.2240   58.0920 C   0  0  0  0  0  0  0  0  0  0  0  0
  125.8550  123.9150   56.9900 O   0  0  0  0  0  0  0  0  0  0  0  0
  126.6340  122.8030   56.9960 C   0  0  0  0  0  0  0  0  0  0  0  0
  126.3020  121.7360   56.4690 O   0  0  0  0  0  0  0  0  0  0  0  0
  127.9450  123.0000   57.7030 C   0  0  0  0  0  0  0  0  0  0  0  0
  128.2660  122.3060   58.8790 C   0  0  0  0  0  0  0  0  0  0  0  0
  129.4890  122.5130   59.5100 C   0  0  0  0  0  0  0  0  0  0  0  0
  130.4150  123.4120   58.9820 C   0  0  0  0  0  0  0  0  0  0  0  0
  131.6170  123.5420   59.7030 N   0  0  0  0  0  0  0  0  0  0  0  0
  132.8980  123.5040   59.2750 C   0  0  0  0  0  0  0  0  0  0  0  0
  133.2580  123.3450   58.1090 O   0  0  0  0  0  0  0  0  0  0  0  0
  133.9580  123.6890   60.3620 C   0  0  0  0  0  0  0  0  0  0  0  0
  134.2200  122.1710   61.3290 S   0  0  0  0  0  0  0  0  0  0  0  0
  132.6410  121.3660   61.4920 C   0  0  0  0  0  0  0  0  0  0  0  0
  131.7180  122.1020   62.1590 N   0  0  0  0  0  0  0  0  0  0  0  0
  130.4800  121.5850   62.3390 C   0  0  0  0  0  0  0  0  0  0  0  0
  129.4960  122.4710   63.0810 C   0  0  0  0  0  0  0  0  0  0  0  0
  130.1190  120.3220   61.8750 C   0  0  0  0  0  0  0  0  0  0  0  0
  131.0700  119.5460   61.2060 C   0  0  0  0  0  0  0  0  0  0  0  0
  130.6560  118.1580   60.7210 C   0  0  0  0  0  0  0  0  0  0  0  0
  132.3690  120.0650   61.0060 C   0  0  0  0  0  0  0  0  0  0  0  0
  133.3950  119.2540   60.3460 C   0  0  0  0  0  0  0  0  0  0  0  0
  134.2030  118.6100   59.8240 N   0  0  0  0  0  0  0  0  0  0  0  0
  130.1020  124.1100   57.8060 C   0  0  0  0  0  0  0  0  0  0  0  0
  128.8780  123.9020   57.1750 C   0  0  0  0  0  0  0  0  0  0  0  0
  1  2  1  0
  2  3  1  0
  3  4  2  0
  3  5  1  0
  5  6  2  0
  6  7  1  0
  7  8  2  0
  8  9  1  0
  9 10  1  0
 10 11  2  0
 10 12  1  0
 12 13  1  0
 13 14  1  0
 14 15  2  0
 15 16  1  0
 16 17  1  0
 16 18  2  0
 18 19  1  0
 19 20  1  0
 19 21  2  0
 21 22  1  0
 22 23  3  0
  8 24  1  0
 24 25  2  0
 25  5  1  0
 21 14  1  0
M  END
>  <Binding energies>  (3) 
[-7.85]

>  <Ligand effiencies>  (3) 
[-0.3019230769230769]

>  <Interactions>  (3) 
["H-B:TYR:531:OH:9767, V-B:MET:535:CE:9807, V-A:ILE:369:CG2:3236, V-B:TYR:539:CD2:9846, V-B:PRO:540:N:9856, V-A:LEU:475:CD1:4257, V-B:PRO:540:CA:9855, H-A:SER:385:OG:3409, H-A:HIS:383:NE2:3393, H-B:TYR:539:N:9842, V-B:ALA:541:CB:9864, V-B:TYR:539:CE2:9848, V-B:TYR:539:C:9839, V-B:TYR:531:CE2:9765, V-A:PRO:482:CG:4326, V-B:LEU:363:CD1:8160, V-A:ASP:366:CG:3212, V-A:ASP:366:CA:3209, H-B:TYR:539:OH:9850, V-A:ILE:369:CD1:3238, V-B:TYR:539:CZ:9849, V-B:ALA:541:CA:9862"]

$$$$
1c_Grossjean_2025
     RDKit          3D

 23 24  0  0  0  0  0  0  0  0999 V2000
  124.0710  130.3330   62.9680 C   0  0  0  0  0  0  0  0  0  0  0  0
  124.3190  130.5340   64.3560 O   0  0  0  0  0  0  0  0  0  0  0  0
  125.3030  129.7900   64.9780 C   0  0  0  0  0  0  0  0  0  0  0  0
  126.5590  129.7880   64.3710 C   0  0  0  0  0  0  0  0  0  0  0  0
  127.6150  129.0690   64.9230 C   0  0  0  0  0  0  0  0  0  0  0  0
  127.4250  128.3420   66.1080 C   0  0  0  0  0  0  0  0  0  0  0  0
  128.4190  127.5740   66.7450 N   0  0  0  0  0  0  0  0  0  0  0  0
  128.3130  126.7420   67.8030 C   0  0  0  0  0  0  0  0  0  0  0  0
  127.2730  126.4870   68.4090 O   0  0  0  0  0  0  0  0  0  0  0  0
  129.6170  126.0760   68.2470 C   0  0  0  0  0  0  0  0  0  0  0  0
  131.0650  126.8120   67.4320 S   0  0  0  0  0  0  0  0  0  0  0  0
  131.2260  126.0900   65.8120 C   0  0  0  0  0  0  0  0  0  0  0  0
  130.0720  126.1080   65.0960 N   0  0  0  0  0  0  0  0  0  0  0  0
  130.0720  125.5850   63.8480 C   0  0  0  0  0  0  0  0  0  0  0  0
  128.7500  125.6500   63.1060 C   0  0  0  0  0  0  0  0  0  0  0  0
  131.2060  125.0200   63.2690 C   0  0  0  0  0  0  0  0  0  0  0  0
  132.3940  124.9740   64.0060 C   0  0  0  0  0  0  0  0  0  0  0  0
  133.6190  124.3330   63.3570 C   0  0  0  0  0  0  0  0  0  0  0  0
  132.4170  125.5120   65.3140 C   0  0  0  0  0  0  0  0  0  0  0  0
  133.6370  125.4240   66.1210 C   0  0  0  0  0  0  0  0  0  0  0  0
  134.6000  125.3550   66.7580 N   0  0  0  0  0  0  0  0  0  0  0  0
  126.1670  128.3330   66.7120 C   0  0  0  0  0  0  0  0  0  0  0  0
  125.1130  129.0530   66.1570 C   0  0  0  0  0  0  0  0  0  0  0  0
  1  2  1  0
  2  3  1  0
  3  4  2  0
  4  5  1  0
  5  6  2  0
  6  7  1  0
  7  8  1  0
  8  9  2  0
  8 10  1  0
 10 11  1  0
 11 12  1  0
 12 13  2  0
 13 14  1  0
 14 15  1  0
 14 16  2  0
 16 17  1  0
 17 18  1  0
 17 19  2  0
 19 20  1  0
 20 21  3  0
  6 22  1  0
 22 23  2  0
 23  3  1  0
 19 12  1  0
M  END
>  <Binding energies>  (4) 
[-6.93]

>  <Ligand effiencies>  (4) 
[-0.28875]

>  <Interactions>  (4) 
["H-A:TYR:484:OH:4347, H-A:GLY:454:N:4049, H-B:GLY:454:N:9021, V-B:ARG:545:CZ:9898, V-A:GLU:543:CD:4908, H-B:TYR:484:OH:9319, V-B:HIS:456:CE1:9041, V-A:HIS:456:CE1:4069, V-B:GLU:543:CB:9878, V-A:ARG:545:CD:4923, V-B:GLU:543:CD:9880, H-B:GLU:543:OE2:9882, H-A:ARG:545:NE:4924, V-A:ARG:545:CG:4922, V-A:ARG:545:CZ:4926, V-B:ARG:545:CG:9894, H-A:GLU:543:OE1:4909, V-A:GLY:454:CA:4048, V-A:GLY:453:C:4041, H-A:ILE:455:N:4054, V-B:ARG:545:CD:9895"]

$$$$
1d_Grossjean_2025
     RDKit          3D

 21 22  0  0  0  0  0  0  0  0999 V2000
  125.6070  130.1170   57.5460 C   0  0  0  0  0  0  0  0  0  0  0  0
  126.7670  129.2990   57.0110 C   0  0  0  0  0  0  0  0  0  0  0  0
  127.3120  128.2430   57.7380 C   0  0  0  0  0  0  0  0  0  0  0  0
  128.3740  127.5170   57.1900 C   0  0  0  0  0  0  0  0  0  0  0  0
  128.9450  126.3540   57.9990 C   0  0  0  0  0  0  0  0  0  0  0  0
  128.8750  127.8770   55.9180 C   0  0  0  0  0  0  0  0  0  0  0  0
  129.9540  127.1010   55.3040 C   0  0  0  0  0  0  0  0  0  0  0  0
  130.8070  126.4860   54.8210 N   0  0  0  0  0  0  0  0  0  0  0  0
  128.2770  128.9790   55.2620 C   0  0  0  0  0  0  0  0  0  0  0  0
  128.7790  129.5690   53.6600 S   0  0  0  0  0  0  0  0  0  0  0  0
  129.3000  131.3000   53.8590 C   0  0  0  0  0  0  0  0  0  0  0  0
  129.7580  131.6040   55.2860 C   0  0  0  0  0  0  0  0  0  0  0  0
  129.2050  132.5060   55.9150 O   0  0  0  0  0  0  0  0  0  0  0  0
  130.7470  130.8130   55.7560 N   0  0  0  0  0  0  0  0  0  0  0  0
  131.4030  130.8340   57.0010 C   0  0  0  0  0  0  0  0  0  0  0  0
  132.7110  130.3410   57.0050 C   0  0  0  0  0  0  0  0  0  0  0  0
  133.4520  130.3210   58.1830 C   0  0  0  0  0  0  0  0  0  0  0  0
  132.8870  130.8020   59.3620 C   0  0  0  0  0  0  0  0  0  0  0  0
  131.5880  131.3040   59.3710 C   0  0  0  0  0  0  0  0  0  0  0  0
  130.8440  131.3240   58.1940 C   0  0  0  0  0  0  0  0  0  0  0  0
  127.2320  129.6640   55.7930 N   0  0  0  0  0  0  0  0  0  0  0  0
  1  2  1  0
  2  3  2  0
  3  4  1  0
  4  5  1  0
  4  6  2  0
  6  7  1  0
  7  8  3  0
  6  9  1  0
  9 10  1  0
 10 11  1  0
 11 12  1  0
 12 13  2  0
 12 14  1  0
 14 15  1  0
 15 16  2  0
 16 17  1  0
 17 18  2  0
 18 19  1  0
 19 20  2  0
  9 21  2  0
 21  2  1  0
 20 15  1  0
M  END
>  <Binding energies>  (5) 
[-7.2]

>  <Ligand effiencies>  (5) 
[-0.32727272727272727]

>  <Interactions>  (5) 
["H-B:TYR:531:OH:9767, V-B:TYR:531:CZ:9766, V-A:ASP:366:CG:3212, V-A:PRO:540:N:4884, V-A:ILE:538:CA:4860, V-A:ASP:366:CB:3211, V-A:ILE:538:CG2:4863, V-A:PRO:540:CA:4883, H-A:TYR:531:OH:4795, H-A:TYR:539:N:4870, V-A:TYR:539:CZ:4877, V-A:PRO:540:CB:4885, V-A:TYR:539:CE1:4875, V-A:TYR:531:CZ:4794, V-A:ILE:538:CB:4862, V-B:TYR:531:CE1:9764, H-B:LYS:534:NZ:9795, V-A:LEU:363:CD1:3188, H-A:TYR:539:OH:4878, V-B:LYS:534:CE:9794, V-A:LEU:363:CA:3184"]

$$$$
1e_Grossjean_2025
     RDKit          3D

 22 23  0  0  0  0  0  0  0  0999 V2000
  125.3630  122.3290   55.4970 C   0  0  0  0  0  0  0  0  0  0  0  0
  126.0370  122.8990   56.7310 C   0  0  0  0  0  0  0  0  0  0  0  0
  127.0020  122.1760   57.4380 C   0  0  0  0  0  0  0  0  0  0  0  0
  127.5770  122.7640   58.5650 C   0  0  0  0  0  0  0  0  0  0  0  0
  127.1790  124.0450   58.9560 C   0  0  0  0  0  0  0  0  0  0  0  0
  126.2100  124.7160   58.1990 C   0  0  0  0  0  0  0  0  0  0  0  0
  125.8410  125.9960   58.6480 N   0  0  0  0  0  0  0  0  0  0  0  0
  126.4790  127.1710   58.4540 C   0  0  0  0  0  0  0  0  0  0  0  0
  127.5350  127.3080   57.8350 O   0  0  0  0  0  0  0  0  0  0  0  0
  125.8230  128.3980   59.0910 C   0  0  0  0  0  0  0  0  0  0  0  0
  125.7910  129.8190   57.9570 S   0  0  0  0  0  0  0  0  0  0  0  0
  127.4080  130.5660   57.9330 C   0  0  0  0  0  0  0  0  0  0  0  0
  127.8530  130.9280   59.1630 N   0  0  0  0  0  0  0  0  0  0  0  0
  129.0710  131.5100   59.2710 C   0  0  0  0  0  0  0  0  0  0  0  0
  129.5040  131.8800   60.6770 C   0  0  0  0  0  0  0  0  0  0  0  0
  129.8830  131.7630   58.1680 C   0  0  0  0  0  0  0  0  0  0  0  0
  129.4240  131.4170   56.8930 C   0  0  0  0  0  0  0  0  0  0  0  0
  130.3260  131.7220   55.6980 C   0  0  0  0  0  0  0  0  0  0  0  0
  128.1540  130.8110   56.7550 C   0  0  0  0  0  0  0  0  0  0  0  0
  127.6350  130.4960   55.4230 C   0  0  0  0  0  0  0  0  0  0  0  0
  127.2260  130.2470   54.3680 N   0  0  0  0  0  0  0  0  0  0  0  0
  125.6400  124.1440   57.0970 N   0  0  0  0  0  0  0  0  0  0  0  0
  1  2  1  0
  2  3  2  0
  3  4  1  0
  4  5  2  0
  5  6  1  0
  6  7  1  0
  7  8  1  0
  8  9  2  0
  8 10  1  0
 10 11  1  0
 11 12  1  0
 12 13  2  0
 13 14  1  0
 14 15  1  0
 14 16  2  0
 16 17  1  0
 17 18  1  0
 17 19  2  0
 19 20  1  0
 20 21  3  0
  6 22  2  0
 22  2  1  0
 19 12  1  0
M  END
>  <Binding energies>  (6) 
[-7.81]

>  <Ligand effiencies>  (6) 
[-0.33956521739130435]

>  <Interactions>  (6) 
["V-B:PRO:540:CB:9857, H-B:TYR:531:OH:9767, V-B:MET:535:CE:9807, V-B:PRO:540:N:9856, V-B:PRO:540:CA:9855, V-B:MET:535:CG:9805, V-B:TYR:539:C:9839, V-B:TYR:531:CE2:9765, V-B:LEU:363:CD1:8160, V-B:PRO:540:CD:9859, V-A:PRO:540:N:4884, V-A:ILE:538:CG2:4863, V-A:TYR:539:CD1:4873, V-A:PRO:540:CA:4883, V-A:TYR:539:CZ:4877, V-A:TYR:539:CE1:4875, V-A:ILE:538:CB:4862, V-B:ASP:366:CG:8184, H-B:LYS:534:NZ:9795, V-B:ASP:366:CB:8183, V-A:PRO:540:C:4881, V-A:TYR:539:C:4867, H-A:TYR:539:OH:4878, V-B:ILE:538:CG2:9835, H-B:ASP:366:OD1:8185"]

$$$$
1f_Grossjean_2025
     RDKit          3D

 21 22  0  0  0  0  0  0  0  0999 V2000
  126.1730  129.9820   57.7230 C   0  0  0  0  0  0  0  0  0  0  0  0
  127.2200  129.0790   57.0990 C   0  0  0  0  0  0  0  0  0  0  0  0
  127.6610  127.9230   57.7370 C   0  0  0  0  0  0  0  0  0  0  0  0
  128.6380  127.1360   57.1180 C   0  0  0  0  0  0  0  0  0  0  0  0
  129.1190  125.8820   57.8470 C   0  0  0  0  0  0  0  0  0  0  0  0
  129.1450  127.5270   55.8580 C   0  0  0  0  0  0  0  0  0  0  0  0
  130.2080  126.7460   55.2200 C   0  0  0  0  0  0  0  0  0  0  0  0
  131.0470  126.1270   54.7170 N   0  0  0  0  0  0  0  0  0  0  0  0
  128.6190  128.7010   55.2700 C   0  0  0  0  0  0  0  0  0  0  0  0
  129.1340  129.3480   53.6920 S   0  0  0  0  0  0  0  0  0  0  0  0
  129.5230  131.1200   53.8950 C   0  0  0  0  0  0  0  0  0  0  0  0
  129.9590  131.5280   55.3100 C   0  0  0  0  0  0  0  0  0  0  0  0
  129.4950  132.5390   55.8390 O   0  0  0  0  0  0  0  0  0  0  0  0
  130.8790  130.7140   55.8700 N   0  0  0  0  0  0  0  0  0  0  0  0
  131.4870  130.7840   57.1380 C   0  0  0  0  0  0  0  0  0  0  0  0
  130.8120  130.9470   58.3630 C   0  0  0  0  0  0  0  0  0  0  0  0
  131.5430  130.9960   59.5530 C   0  0  0  0  0  0  0  0  0  0  0  0
  132.9310  130.8770   59.4910 C   0  0  0  0  0  0  0  0  0  0  0  0
  133.6050  130.7140   58.3250 N   0  0  0  0  0  0  0  0  0  0  0  0
  132.8810  130.6680   57.1760 C   0  0  0  0  0  0  0  0  0  0  0  0
  127.6890  129.4700   55.8900 N   0  0  0  0  0  0  0  0  0  0  0  0
  1  2  1  0
  2  3  2  0
  3  4  1  0
  4  5  1  0
  4  6  2  0
  6  7  1  0
  7  8  3  0
  6  9  1  0
  9 10  1  0
 10 11  1  0
 11 12  1  0
 12 13  2  0
 12 14  1  0
 14 15  1  0
 15 16  2  0
 16 17  1  0
 17 18  2  0
 18 19  1  0
 19 20  2  0
  9 21  2  0
 21  2  1  0
 20 15  1  0
M  END
>  <Binding energies>  (7) 
[-6.93]

>  <Ligand effiencies>  (7) 
[-0.315]

>  <Interactions>  (7) 
["H-B:TYR:531:OH:9767, V-A:ASP:366:CG:3212, V-A:ILE:538:CG2:4863, H-B:TYR:539:OH:9850, V-A:PRO:540:CA:4883, H-A:TYR:531:OH:4795, H-A:TYR:539:N:4870, V-A:TYR:539:CZ:4877, V-A:PRO:540:CB:4885, V-A:TYR:539:CE1:4875, V-A:ILE:538:CB:4862, V-A:LEU:363:CD1:3188"]

$$$$
1g_Grossjean_2025
     RDKit          3D

 22 23  0  0  0  0  0  0  0  0999 V2000
  128.9450  132.4340   59.9150 C   0  0  0  0  0  0  0  0  0  0  0  0
  128.5080  131.7730   58.6210 C   0  0  0  0  0  0  0  0  0  0  0  0
  127.5270  130.7830   58.6020 C   0  0  0  0  0  0  0  0  0  0  0  0
  127.1760  130.1980   57.3810 C   0  0  0  0  0  0  0  0  0  0  0  0
  126.1090  129.1040   57.3870 C   0  0  0  0  0  0  0  0  0  0  0  0
  127.8160  130.6300   56.1970 C   0  0  0  0  0  0  0  0  0  0  0  0
  127.5030  129.9950   54.9140 C   0  0  0  0  0  0  0  0  0  0  0  0
  127.2540  129.4910   53.9030 N   0  0  0  0  0  0  0  0  0  0  0  0
  128.7820  131.6580   56.3080 C   0  0  0  0  0  0  0  0  0  0  0  0
  129.6750  132.3270   54.9220 S   0  0  0  0  0  0  0  0  0  0  0  0
  131.2670  131.4540   54.8340 C   0  0  0  0  0  0  0  0  0  0  0  0
  132.1190  131.6890   56.0820 C   0  0  0  0  0  0  0  0  0  0  0  0
  132.2420  132.8260   56.5410 O   0  0  0  0  0  0  0  0  0  0  0  0
  132.7060  130.6030   56.6160 N   0  0  0  0  0  0  0  0  0  0  0  0
  133.5120  130.5880   57.8360 C   0  0  0  0  0  0  0  0  0  0  0  0
  132.6990  130.6160   59.1270 C   0  0  0  0  0  0  0  0  0  0  0  0
  133.1890  131.2950   60.2460 C   0  0  0  0  0  0  0  0  0  0  0  0
  132.4470  131.3220   61.4240 C   0  0  0  0  0  0  0  0  0  0  0  0
  131.2140  130.6730   61.4770 C   0  0  0  0  0  0  0  0  0  0  0  0
  130.7180  129.9990   60.3640 C   0  0  0  0  0  0  0  0  0  0  0  0
  131.4600  129.9710   59.1860 C   0  0  0  0  0  0  0  0  0  0  0  0
  129.1320  132.2040   57.5000 N   0  0  0  0  0  0  0  0  0  0  0  0
  1  2  1  0
  2  3  2  0
  3  4  1  0
  4  5  1  0
  4  6  2  0
  6  7  1  0
  7  8  3  0
  6  9  1  0
  9 10  1  0
 10 11  1  0
 11 12  1  0
 12 13  2  0
 12 14  1  0
 14 15  1  0
 15 16  1  0
 16 17  2  0
 17 18  1  0
 18 19  2  0
 19 20  1  0
 20 21  2  0
  9 22  2  0
 22  2  1  0
 21 16  1  0
M  END
>  <Binding energies>  (8) 
[-7.34]

>  <Ligand effiencies>  (8) 
[-0.31913043478260866]

>  <Interactions>  (8) 
["H-B:TYR:531:OH:9767, V-B:TYR:531:CZ:9766, V-A:ASP:366:CG:3212, V-A:PRO:540:N:4884, V-A:ASP:366:CB:3211, V-A:ILE:538:CG2:4863, V-A:TYR:539:CD1:4873, V-A:PRO:540:CA:4883, H-A:TYR:531:OH:4795, H-A:TYR:539:N:4870, V-A:TYR:539:CZ:4877, V-A:PRO:540:CB:4885, V-A:TYR:539:CE1:4875, V-A:TYR:531:CZ:4794, V-A:ILE:538:CB:4862, V-B:TYR:531:CE1:9764, H-B:LYS:534:NZ:9795, V-A:PRO:540:C:4881, V-A:TYR:539:C:4867, V-A:LEU:363:CD1:3188, V-A:GLU:543:CD:4908, V-A:TYR:531:CE2:4793, V-A:LEU:363:CA:3184, V-A:LEU:363:CB:3186, V-A:ASN:362:CB:3175"]

$$$$
1h_Grossjean_2025
     RDKit          3D

 28 29  0  0  0  0  0  0  0  0999 V2000
  133.2450  131.3680   61.5540 C   0  0  0  0  0  0  0  0  0  0  0  0
  131.8740  131.7460   61.4960 O   0  0  0  0  0  0  0  0  0  0  0  0
  131.1470  131.4870   60.3480 C   0  0  0  0  0  0  0  0  0  0  0  0
  131.7130  131.0260   59.1490 C   0  0  0  0  0  0  0  0  0  0  0  0
  130.9180  130.7990   58.0250 C   0  0  0  0  0  0  0  0  0  0  0  0
  131.5430  130.2760   56.7350 C   0  0  0  0  0  0  0  0  0  0  0  0
  130.6670  130.3750   55.5670 N   0  0  0  0  0  0  0  0  0  0  0  0
  129.9640  131.4660   55.2140 C   0  0  0  0  0  0  0  0  0  0  0  0
  129.9990  132.5310   55.8300 O   0  0  0  0  0  0  0  0  0  0  0  0
  129.0780  131.3340   53.9750 C   0  0  0  0  0  0  0  0  0  0  0  0
  128.3650  129.6680   53.8220 S   0  0  0  0  0  0  0  0  0  0  0  0
  127.7330  129.1870   55.4220 C   0  0  0  0  0  0  0  0  0  0  0  0
  126.5820  129.7980   55.8080 N   0  0  0  0  0  0  0  0  0  0  0  0
  126.0460  129.4770   57.0090 C   0  0  0  0  0  0  0  0  0  0  0  0
  124.7590  130.1970   57.3680 C   0  0  0  0  0  0  0  0  0  0  0  0
  126.6260  128.5460   57.8670 C   0  0  0  0  0  0  0  0  0  0  0  0
  127.8110  127.9120   57.4810 C   0  0  0  0  0  0  0  0  0  0  0  0
  128.4290  126.8930   58.4360 C   0  0  0  0  0  0  0  0  0  0  0  0
  128.3890  128.2320   56.2310 C   0  0  0  0  0  0  0  0  0  0  0  0
  129.6320  127.5860   55.8020 C   0  0  0  0  0  0  0  0  0  0  0  0
  130.6140  127.0750   55.4640 N   0  0  0  0  0  0  0  0  0  0  0  0
  129.5390  130.9980   58.1040 C   0  0  0  0  0  0  0  0  0  0  0  0
  128.9460  131.4530   59.2920 C   0  0  0  0  0  0  0  0  0  0  0  0
  127.5890  131.6740   59.4420 O   0  0  0  0  0  0  0  0  0  0  0  0
  126.8120  130.7610   60.2100 C   0  0  0  0  0  0  0  0  0  0  0  0
  129.7620  131.7050   60.4040 C   0  0  0  0  0  0  0  0  0  0  0  0
  129.1950  132.1450   61.5750 O   0  0  0  0  0  0  0  0  0  0  0  0
  129.1460  131.1620   62.6000 C   0  0  0  0  0  0  0  0  0  0  0  0
  1  2  1  0
  2  3  1  0
  3  4  2  0
  4  5  1  0
  5  6  1  0
  6  7  1  0
  7  8  1  0
  8  9  2  0
  8 10  1  0
 10 11  1  0
 11 12  1  0
 12 13  2  0
 13 14  1  0
 14 15  1  0
 14 16  2  0
 16 17  1  0
 17 18  1  0
 17 19  2  0
 19 20  1  0
 20 21  3  0
  5 22  2  0
 22 23  1  0
 23 24  1  0
 24 25  1  0
 23 26  2  0
 26 27  1  0
 27 28  1  0
 26  3  1  0
 19 12  1  0
M  END
>  <Binding energies>  (9) 
[-7.02]

>  <Ligand effiencies>  (9) 
[-0.24206896551724136]

>  <Interactions>  (9) 
["H-B:TYR:531:OH:9767, V-B:TYR:531:CZ:9766, V-A:ILE:538:CA:4860, V-A:ILE:538:CG2:4863, V-A:PRO:540:CA:4883, H-A:TYR:531:OH:4795, H-A:TYR:539:N:4870, V-A:TYR:539:CZ:4877, V-A:PRO:540:CB:4885, V-A:TYR:539:CE1:4875, V-A:TYR:531:CZ:4794, V-A:ILE:538:CB:4862, V-B:TYR:531:CE1:9764, H-B:LYS:534:NZ:9795, V-B:ASP:366:CB:8183, V-A:ALA:541:CB:4892, V-A:PRO:540:C:4881, V-A:GLU:543:CG:4907, V-A:GLU:543:CD:4908, V-B:ASP:366:C:8179, H-A:TYR:539:OH:4878, V-B:LYS:534:CE:9794, H-A:ALA:541:N:4891, V-A:ASN:362:CB:3175"]

$$$$
1i_Grossjean_2025
     RDKit          3D

 20 21  0  0  0  0  0  0  0  0999 V2000
  132.2460  131.7470   61.7740 C   0  0  0  0  0  0  0  0  0  0  0  0
  131.7710  130.8460   60.6510 C   0  0  0  0  0  0  0  0  0  0  0  0
  130.7740  129.8940   60.8510 C   0  0  0  0  0  0  0  0  0  0  0  0
  130.3690  129.0970   59.7750 C   0  0  0  0  0  0  0  0  0  0  0  0
  129.2610  128.0720   60.0150 C   0  0  0  0  0  0  0  0  0  0  0  0
  130.9850  129.2720   58.5140 C   0  0  0  0  0  0  0  0  0  0  0  0
  130.5410  128.4830   57.3620 C   0  0  0  0  0  0  0  0  0  0  0  0
  130.1880  127.8600   56.4530 N   0  0  0  0  0  0  0  0  0  0  0  0
  132.0060  130.2460   58.4090 C   0  0  0  0  0  0  0  0  0  0  0  0
  132.8870  130.5970   56.9030 S   0  0  0  0  0  0  0  0  0  0  0  0
  132.1460  132.0850   56.1670 C   0  0  0  0  0  0  0  0  0  0  0  0
  130.6230  131.9780   56.0630 C   0  0  0  0  0  0  0  0  0  0  0  0
  129.9200  132.8460   56.5840 O   0  0  0  0  0  0  0  0  0  0  0  0
  130.1590  130.9070   55.3840 N   0  0  0  0  0  0  0  0  0  0  0  0
  128.8340  130.5700   55.1470 C   0  0  0  0  0  0  0  0  0  0  0  0
  127.9750  130.1120   56.1450 C   0  0  0  0  0  0  0  0  0  0  0  0
  126.7740  129.8940   55.5120 C   0  0  0  0  0  0  0  0  0  0  0  0
  126.9020  130.2030   54.2000 O   0  0  0  0  0  0  0  0  0  0  0  0
  128.2130  130.6300   53.9800 N   0  0  0  0  0  0  0  0  0  0  0  0
  132.3780  131.0270   59.4540 N   0  0  0  0  0  0  0  0  0  0  0  0
  1  2  1  0
  2  3  2  0
  3  4  1  0
  4  5  1  0
  4  6  2  0
  6  7  1  0
  7  8  3  0
  6  9  1  0
  9 10  1  0
 10 11  1  0
 11 12  1  0
 12 13  2  0
 12 14  1  0
 14 15  1  0
 15 16  1  0
 16 17  2  0
 17 18  1  0
 18 19  1  0
  9 20  2  0
 20  2  1  0
 19 15  2  0
M  END
>  <Binding energies>  (10) 
[-7.23]

>  <Ligand effiencies>  (10) 
[-0.3442857142857143]

>  <Interactions>  (10) 
["V-B:TYR:531:CZ:9766, V-A:PRO:540:N:4884, V-A:PRO:540:CA:4883, H-A:TYR:531:OH:4795, H-A:TYR:539:N:4870, V-A:TYR:539:CZ:4877, V-A:PRO:540:CB:4885, V-A:TYR:539:CE1:4875, V-A:ILE:538:CB:4862, V-B:TYR:531:CE1:9764, H-B:LYS:534:NZ:9795, V-A:PRO:540:CD:4887, V-A:PRO:540:C:4881, V-A:LEU:363:CD1:3188, V-A:GLU:543:CD:4908, H-A:TYR:539:OH:4878, V-A:ALA:541:CA:4890, V-A:ALA:541:C:4888"]

$$$$
1k_Grossjean_2025
     RDKit          3D

 25 25  0  0  0  0  0  0  0  0999 V2000
  125.3450  121.9860   55.4500 C   0  0  0  0  0  0  0  0  0  0  0  0
  126.4580  121.6290   56.2540 O   0  0  0  0  0  0  0  0  0  0  0  0
  126.6570  122.4960   57.3630 C   0  0  0  0  0  0  0  0  0  0  0  0
  125.5410  123.5490   57.3960 C   0  0  0  0  0  0  0  0  0  0  0  0
  126.1180  124.8490   57.3770 O   0  0  0  0  0  0  0  0  0  0  0  0
  125.4260  125.7930   58.1850 C   0  0  0  0  0  0  0  0  0  0  0  0
  126.4420  126.6910   58.9010 C   0  0  0  0  0  0  0  0  0  0  0  0
  126.6200  127.8910   58.1590 O   0  0  0  0  0  0  0  0  0  0  0  0
  125.4010  128.5370   57.8170 C   0  0  0  0  0  0  0  0  0  0  0  0
  125.6590  129.5670   56.7010 C   0  0  0  0  0  0  0  0  0  0  0  0
  127.0760  129.7880   56.4100 N   0  0  0  0  0  0  0  0  0  0  0  0
  127.5800  130.0990   55.2030 C   0  0  0  0  0  0  0  0  0  0  0  0
  126.8810  130.2380   54.1970 O   0  0  0  0  0  0  0  0  0  0  0  0
  129.1060  130.2680   55.1460 C   0  0  0  0  0  0  0  0  0  0  0  0
  129.7700  131.7400   56.0000 S   0  0  0  0  0  0  0  0  0  0  0  0
  129.5750  131.5330   57.7640 C   0  0  0  0  0  0  0  0  0  0  0  0
  128.2970  131.5370   58.2240 N   0  0  0  0  0  0  0  0  0  0  0  0
  128.0790  131.3950   59.5510 C   0  0  0  0  0  0  0  0  0  0  0  0
  126.6270  131.4190   59.9870 C   0  0  0  0  0  0  0  0  0  0  0  0
  129.1140  131.2350   60.4700 C   0  0  0  0  0  0  0  0  0  0  0  0
  130.4340  131.2210   60.0090 C   0  0  0  0  0  0  0  0  0  0  0  0
  131.5540  131.0450   61.0320 C   0  0  0  0  0  0  0  0  0  0  0  0
  130.6840  131.3730   58.6270 C   0  0  0  0  0  0  0  0  0  0  0  0
  132.0580  131.3660   58.1160 C   0  0  0  0  0  0  0  0  0  0  0  0
  133.1430  131.3610   57.7130 N   0  0  0  0  0  0  0  0  0  0  0  0
  1  2  1  0
  2  3  1  0
  3  4  1  0
  4  5  1  0
  5  6  1  0
  6  7  1  0
  7  8  1  0
  8  9  1  0
  9 10  1  0
 10 11  1  0
 11 12  1  0
 12 13  2  0
 12 14  1  0
 14 15  1  0
 15 16  1  0
 16 17  2  0
 17 18  1  0
 18 19  1  0
 18 20  2  0
 20 21  1  0
 21 22  1  0
 21 23  2  0
 23 24  1  0
 24 25  3  0
 23 16  1  0
M  END
>  <Binding energies>  (11) 
[-6.76]

>  <Ligand effiencies>  (11) 
[-0.26]

>  <Interactions>  (11) 
["V-B:PRO:540:CB:9857, H-B:TYR:531:OH:9767, V-B:MET:535:CE:9807, V-B:PRO:540:N:9856, V-B:PRO:540:CA:9855, H-B:TYR:539:N:9842, V-B:MET:535:CG:9805, V-B:TYR:539:C:9839, V-B:TYR:531:CE2:9765, V-B:TYR:531:CZ:9766, V-B:LEU:363:CD1:8160, V-B:PRO:540:CD:9859, V-A:PRO:540:N:4884, V-A:TYR:539:CD1:4873, V-A:PRO:540:CA:4883, V-A:TYR:539:CZ:4877, V-A:PRO:540:CB:4885, V-A:TYR:539:CE1:4875, V-B:ASP:366:CG:8184, V-B:TYR:531:CE1:9764, H-B:LYS:534:NZ:9795, V-B:ASP:366:CB:8183, V-A:TYR:539:C:4867, H-A:TYR:539:OH:4878, V-B:ILE:538:CA:9832, V-B:ILE:538:CG1:9836, V-B:ILE:538:CG2:9835, V-B:ILE:538:CB:9834"]

$$$$
1l_Grossjean_2025
     RDKit          3D

 17 17  0  0  0  0  0  0  0  0999 V2000
  129.4880  127.6460   54.0050 C   0  0  0  0  0  0  0  0  0  0  0  0
  129.8840  128.9900   53.7710 O   0  0  0  0  0  0  0  0  0  0  0  0
  129.7540  129.7350   54.9420 N   0  0  0  0  0  0  0  0  0  0  0  0
  128.7950  130.6780   55.0130 C   0  0  0  0  0  0  0  0  0  0  0  0
  127.8730  130.7780   54.1990 O   0  0  0  0  0  0  0  0  0  0  0  0
  128.9100  131.6360   56.2070 C   0  0  0  0  0  0  0  0  0  0  0  0
  128.9850  130.8260   57.8420 S   0  0  0  0  0  0  0  0  0  0  0  0
  130.6980  130.7160   58.3290 C   0  0  0  0  0  0  0  0  0  0  0  0
  131.5440  130.2020   57.3990 N   0  0  0  0  0  0  0  0  0  0  0  0
  132.8590  130.0890   57.7030 C   0  0  0  0  0  0  0  0  0  0  0  0
  133.7390  129.5070   56.6130 C   0  0  0  0  0  0  0  0  0  0  0  0
  133.3820  130.4790   58.9330 C   0  0  0  0  0  0  0  0  0  0  0  0
  132.5210  131.0110   59.8990 C   0  0  0  0  0  0  0  0  0  0  0  0
  133.1170  131.4340   61.2410 C   0  0  0  0  0  0  0  0  0  0  0  0
  131.1460  131.1380   59.6030 C   0  0  0  0  0  0  0  0  0  0  0  0
  130.2200  131.6920   60.5960 C   0  0  0  0  0  0  0  0  0  0  0  0
  129.4920  132.1290   61.3810 N   0  0  0  0  0  0  0  0  0  0  0  0
  1  2  1  0
  2  3  1  0
  3  4  1  0
  4  5  2  0
  4  6  1  0
  6  7  1  0
  7  8  1  0
  8  9  2  0
  9 10  1  0
 10 11  1  0
 10 12  2  0
 12 13  1  0
 13 14  1  0
 13 15  2  0
 15 16  1  0
 16 17  3  0
 15  8  1  0
M  END
>  <Binding energies>  (12) 
[-5.94]

>  <Ligand effiencies>  (12) 
[-0.33]

>  <Interactions>  (12) 
["V-A:ASP:366:CG:3212, V-A:ASP:366:CB:3211, V-A:TYR:539:CD1:4873, V-A:PRO:540:CA:4883, H-A:TYR:531:OH:4795, V-A:TYR:539:CZ:4877, V-A:PRO:540:CB:4885, V-A:TYR:539:CE1:4875, V-A:TYR:531:CZ:4794, H-B:LYS:534:NZ:9795, V-A:PRO:540:C:4881, V-A:LEU:363:CD1:3188, H-A:TYR:539:OH:4878, H-A:ALA:541:N:4891, V-A:TYR:531:CE2:4793, V-A:LEU:363:CA:3184, V-A:ASN:362:CB:3175, V-A:MET:535:CE:4835"]

$$$$
1m_Grossjean_2025
     RDKit          3D

 20 20  0  0  0  0  0  0  0  0999 V2000
  131.6810  125.7880   55.7680 C   0  0  0  0  0  0  0  0  0  0  0  0
  130.9740  126.4990   54.7620 O   0  0  0  0  0  0  0  0  0  0  0  0
  129.6950  126.8800   54.9620 C   0  0  0  0  0  0  0  0  0  0  0  0
  128.9280  126.4040   55.8050 O   0  0  0  0  0  0  0  0  0  0  0  0
  129.2860  128.0160   54.0020 C   0  0  0  0  0  0  0  0  0  0  0  0
  129.5260  129.3530   54.5660 N   0  0  0  0  0  0  0  0  0  0  0  0
  128.6260  130.3530   54.6260 C   0  0  0  0  0  0  0  0  0  0  0  0
  127.4790  130.2510   54.1860 O   0  0  0  0  0  0  0  0  0  0  0  0
  129.1220  131.6510   55.2770 C   0  0  0  0  0  0  0  0  0  0  0  0
  130.8010  131.5540   55.9870 S   0  0  0  0  0  0  0  0  0  0  0  0
  130.6480  131.5180   57.7600 C   0  0  0  0  0  0  0  0  0  0  0  0
  129.4580  131.9900   58.2110 N   0  0  0  0  0  0  0  0  0  0  0  0
  129.2260  132.0040   59.5440 C   0  0  0  0  0  0  0  0  0  0  0  0
  127.8680  132.5270   59.9720 C   0  0  0  0  0  0  0  0  0  0  0  0
  130.1650  131.5650   60.4760 C   0  0  0  0  0  0  0  0  0  0  0  0
  131.4050  131.1010   60.0230 C   0  0  0  0  0  0  0  0  0  0  0  0
  132.4240  130.6390   61.0630 C   0  0  0  0  0  0  0  0  0  0  0  0
  131.6700  131.0770   58.6350 C   0  0  0  0  0  0  0  0  0  0  0  0
  132.9790  130.6430   58.1430 C   0  0  0  0  0  0  0  0  0  0  0  0
  134.0130  130.2990   57.7550 N   0  0  0  0  0  0  0  0  0  0  0  0
  1  2  1  0
  2  3  1  0
  3  4  2  0
  3  5  1  0
  5  6  1  0
  6  7  1  0
  7  8  2  0
  7  9  1  0
  9 10  1  0
 10 11  1  0
 11 12  2  0
 12 13  1  0
 13 14  1  0
 13 15  2  0
 15 16  1  0
 16 17  1  0
 16 18  2  0
 18 19  1  0
 19 20  3  0
 18 11  1  0
M  END
>  <Binding energies>  (13) 
[-6.83]

>  <Ligand effiencies>  (13) 
[-0.3252380952380952]

>  <Interactions>  (13) 
["H-B:TYR:531:OH:9767, V-A:ASP:366:CG:3212, V-A:PRO:540:N:4884, V-A:TYR:531:CE1:4792, V-A:ILE:538:CA:4860, V-A:ASP:366:CB:3211, V-A:TYR:539:CD1:4873, V-A:PRO:540:CA:4883, H-A:TYR:531:OH:4795, V-A:PRO:540:CB:4885, V-A:TYR:539:CE1:4875, H-B:LYS:534:NZ:9795, V-A:PRO:540:C:4881, V-A:TYR:539:C:4867, V-A:LEU:363:CD1:3188, H-A:TYR:539:OH:4878, V-A:LEU:363:CA:3184, V-A:MET:535:CE:4835"]

$$$$
1n_Grossjean_2025
     RDKit          3D

 27 28  0  0  0  0  0  0  0  0999 V2000
  125.3270  123.7990   59.3150 C   0  0  0  0  0  0  0  0  0  0  0  0
  124.8270  123.9990   57.8810 C   0  0  0  0  0  0  0  0  0  0  0  0
  125.9200  123.8790   56.9790 O   0  0  0  0  0  0  0  0  0  0  0  0
  126.7670  122.8190   57.0400 C   0  0  0  0  0  0  0  0  0  0  0  0
  126.4780  121.6930   56.6270 O   0  0  0  0  0  0  0  0  0  0  0  0
  128.0970  123.1580   57.6490 C   0  0  0  0  0  0  0  0  0  0  0  0
  128.7170  122.3230   58.5910 C   0  0  0  0  0  0  0  0  0  0  0  0
  129.9490  122.6680   59.1380 C   0  0  0  0  0  0  0  0  0  0  0  0
  130.5830  123.8540   58.7650 C   0  0  0  0  0  0  0  0  0  0  0  0
  131.8220  124.1070   59.3840 N   0  0  0  0  0  0  0  0  0  0  0  0
  133.0410  123.5870   59.1210 C   0  0  0  0  0  0  0  0  0  0  0  0
  133.2910  122.7640   58.2410 O   0  0  0  0  0  0  0  0  0  0  0  0
  134.1830  124.0940   60.0120 C   0  0  0  0  0  0  0  0  0  0  0  0
  133.9740  123.7710   61.5070 C   0  0  0  0  0  0  0  0  0  0  0  0
  134.1500  122.0120   61.9310 S   0  0  0  0  0  0  0  0  0  0  0  0
  132.5530  121.2490   61.7450 C   0  0  0  0  0  0  0  0  0  0  0  0
  131.5360  121.9870   62.2580 N   0  0  0  0  0  0  0  0  0  0  0  0
  130.2730  121.5120   62.1580 C   0  0  0  0  0  0  0  0  0  0  0  0
  129.1880  122.3950   62.7440 C   0  0  0  0  0  0  0  0  0  0  0  0
  129.9730  120.2920   61.5550 C   0  0  0  0  0  0  0  0  0  0  0  0
  131.0170  119.5140   61.0410 C   0  0  0  0  0  0  0  0  0  0  0  0
  130.6660  118.1750   60.3970 C   0  0  0  0  0  0  0  0  0  0  0  0
  132.3450  119.9880   61.1390 C   0  0  0  0  0  0  0  0  0  0  0  0
  133.4570  119.1680   60.6540 C   0  0  0  0  0  0  0  0  0  0  0  0
  134.3340  118.5170   60.2720 N   0  0  0  0  0  0  0  0  0  0  0  0
  129.9750  124.6890   57.8160 C   0  0  0  0  0  0  0  0  0  0  0  0
  128.7440  124.3400   57.2670 C   0  0  0  0  0  0  0  0  0  0  0  0
  1  2  1  0
  2  3  1  0
  3  4  1  0
  4  5  2  0
  4  6  1  0
  6  7  2  0
  7  8  1  0
  8  9  2  0
  9 10  1  0
 10 11  1  0
 11 12  2  0
 11 13  1  0
 13 14  1  0
 14 15  1  0
 15 16  1  0
 16 17  2  0
 17 18  1  0
 18 19  1  0
 18 20  2  0
 20 21  1  0
 21 22  1  0
 21 23  2  0
 23 24  1  0
 24 25  3  0
  9 26  1  0
 26 27  2  0
 27  6  1  0
 23 16  1  0
M  END
>  <Binding energies>  (14) 
[-8.1]

>  <Ligand effiencies>  (14) 
[-0.28928571428571426]

>  <Interactions>  (14) 
["V-B:PRO:540:CB:9857, H-B:TYR:531:OH:9767, V-B:MET:535:CE:9807, V-A:ILE:369:CG2:3236, V-B:TYR:539:CD2:9846, V-B:PRO:540:N:9856, V-A:LEU:475:CD1:4257, V-B:PRO:540:CA:9855, V-B:PRO:540:C:9853, H-A:SER:385:OG:3409, H-A:HIS:383:NE2:3393, H-B:TYR:539:N:9842, V-B:ALA:541:CB:9864, V-B:TYR:539:CE2:9848, V-B:TYR:539:C:9839, V-B:TYR:531:CE2:9765, V-A:PRO:482:CG:4326, V-B:LEU:363:CD1:8160, V-A:ASP:366:CG:3212, H-A:GLY:454:N:4049, V-A:ASP:366:CA:3209, V-A:ASP:366:CB:3211, H-B:TYR:539:OH:9850, V-A:ILE:369:CD1:3238, H-A:ASP:366:OD2:3214, V-B:TYR:539:CZ:9849, V-A:SER:385:CA:3406, V-A:ILE:369:CB:3235, V-B:ALA:541:CA:9862"]

$$$$
1q_Grossjean_2025
     RDKit          3D

 21 21  0  0  0  0  0  0  0  0999 V2000
  131.7430  131.7440   56.2260 C   0  0  0  0  0  0  0  0  0  0  0  0
  130.5700  132.5400   56.1500 O   0  0  0  0  0  0  0  0  0  0  0  0
  129.6720  132.3490   55.1520 C   0  0  0  0  0  0  0  0  0  0  0  0
  128.5540  132.8640   55.0870 O   0  0  0  0  0  0  0  0  0  0  0  0
  130.1470  131.3700   54.0570 C   0  0  0  0  0  0  0  0  0  0  0  0
  129.7660  129.9760   54.3290 N   0  0  0  0  0  0  0  0  0  0  0  0
  128.5120  129.4850   54.3200 C   0  0  0  0  0  0  0  0  0  0  0  0
  127.5200  130.1740   54.0740 O   0  0  0  0  0  0  0  0  0  0  0  0
  128.3750  127.9860   54.6230 C   0  0  0  0  0  0  0  0  0  0  0  0
  128.9910  127.5520   55.9680 C   0  0  0  0  0  0  0  0  0  0  0  0
  129.9570  126.0160   55.8650 S   0  0  0  0  0  0  0  0  0  0  0  0
  129.1960  124.7950   56.9150 C   0  0  0  0  0  0  0  0  0  0  0  0
  127.8810  124.5960   56.6440 N   0  0  0  0  0  0  0  0  0  0  0  0
  127.1940  123.6920   57.3800 C   0  0  0  0  0  0  0  0  0  0  0  0
  125.7250  123.5370   57.0290 C   0  0  0  0  0  0  0  0  0  0  0  0
  127.7830  122.9470   58.3980 C   0  0  0  0  0  0  0  0  0  0  0  0
  129.1430  123.1250   58.6700 C   0  0  0  0  0  0  0  0  0  0  0  0
  129.7710  122.2830   59.7800 C   0  0  0  0  0  0  0  0  0  0  0  0
  129.8830  124.0620   57.9130 C   0  0  0  0  0  0  0  0  0  0  0  0
  131.3200  124.2200   58.1450 C   0  0  0  0  0  0  0  0  0  0  0  0
  132.4560  124.3420   58.3310 N   0  0  0  0  0  0  0  0  0  0  0  0
  1  2  1  0
  2  3  1  0
  3  4  2  0
  3  5  1  0
  5  6  1  0
  6  7  1  0
  7  8  2  0
  7  9  1  0
  9 10  1  0
 10 11  1  0
 11 12  1  0
 12 13  2  0
 13 14  1  0
 14 15  1  0
 14 16  2  0
 16 17  1  0
 17 18  1  0
 17 19  2  0
 19 20  1  0
 20 21  3  0
 19 12  1  0
M  END
>  <Binding energies>  (15) 
[-6.79]

>  <Ligand effiencies>  (15) 
[-0.30863636363636365]

>  <Interactions>  (15) 
["H-B:TYR:531:OH:9767, V-B:MET:535:CE:9807, V-B:TYR:539:CD2:9846, V-B:PRO:540:CA:9855, V-B:TYR:539:CE2:9848, V-B:TYR:539:C:9839, V-B:TYR:531:CE2:9765, V-B:TYR:531:CZ:9766, V-B:LEU:363:CD1:8160, V-A:ILE:538:CA:4860, V-A:ILE:538:CG2:4863, H-B:TYR:539:OH:9850, H-A:TYR:531:OH:4795, H-A:TYR:539:N:4870, V-A:TYR:531:CZ:4794, V-A:ILE:538:CB:4862, V-B:TYR:531:CE1:9764, H-B:LYS:534:NZ:9795, V-A:LEU:363:CD1:3188, V-B:TYR:539:CZ:9849, H-A:TYR:539:OH:4878, V-A:ILE:538:C:4858"]

$$$$
2a_Grossjean_2025
     RDKit          3D

 29 30  0  0  0  0  0  0  0  0999 V2000
  125.6000  123.6620   61.1060 C   0  0  0  0  0  0  0  0  0  0  0  0
  127.0980  123.5420   61.4040 C   0  0  0  0  0  0  0  0  0  0  0  0
  127.6140  122.3830   60.7600 O   0  0  0  0  0  0  0  0  0  0  0  0
  128.7900  122.4240   60.0820 C   0  0  0  0  0  0  0  0  0  0  0  0
  129.7610  121.7140   60.3590 O   0  0  0  0  0  0  0  0  0  0  0  0
  128.7830  123.4060   58.9450 C   0  0  0  0  0  0  0  0  0  0  0  0
  129.8480  124.2920   58.7230 C   0  0  0  0  0  0  0  0  0  0  0  0
  129.8090  125.1910   57.6610 C   0  0  0  0  0  0  0  0  0  0  0  0
  128.7070  125.2290   56.8060 C   0  0  0  0  0  0  0  0  0  0  0  0
  128.7690  126.1860   55.7760 N   0  0  0  0  0  0  0  0  0  0  0  0
  129.8350  126.6620   55.0970 C   0  0  0  0  0  0  0  0  0  0  0  0
  131.0080  126.3400   55.2890 O   0  0  0  0  0  0  0  0  0  0  0  0
  129.5170  127.6900   54.0050 C   0  0  0  0  0  0  0  0  0  0  0  0
  128.2980  128.9420   54.5260 S   0  0  0  0  0  0  0  0  0  0  0  0
  129.0590  130.0820   55.6760 C   0  0  0  0  0  0  0  0  0  0  0  0
  130.1860  130.6970   55.2370 N   0  0  0  0  0  0  0  0  0  0  0  0
  130.8210  131.5630   56.0600 C   0  0  0  0  0  0  0  0  0  0  0  0
  132.0890  132.1890   55.5090 C   0  0  0  0  0  0  0  0  0  0  0  0
  130.3600  131.8580   57.3390 C   0  0  0  0  0  0  0  0  0  0  0  0
  129.1910  131.2410   57.8110 C   0  0  0  0  0  0  0  0  0  0  0  0
  128.6940  131.5790   59.2290 C   0  0  0  0  0  0  0  0  0  0  0  0
  128.6800  130.4800   59.9840 F   0  0  0  0  0  0  0  0  0  0  0  0
  129.5000  132.4810   59.7920 F   0  0  0  0  0  0  0  0  0  0  0  0
  127.4590  132.0860   59.2350 F   0  0  0  0  0  0  0  0  0  0  0  0
  128.5180  130.3280   56.9600 C   0  0  0  0  0  0  0  0  0  0  0  0
  127.2940  129.6520   57.4030 C   0  0  0  0  0  0  0  0  0  0  0  0
  126.3280  129.1190   57.7520 N   0  0  0  0  0  0  0  0  0  0  0  0
  127.6420  124.3420   57.0160 C   0  0  0  0  0  0  0  0  0  0  0  0
  127.6840  123.4400   58.0770 C   0  0  0  0  0  0  0  0  0  0  0  0
  1  2  1  0
  2  3  1  0
  3  4  1  0
  4  5  2  0
  4  6  1  0
  6  7  2  0
  7  8  1  0
  8  9  2  0
  9 10  1  0
 10 11  1  0
 11 12  2  0
 11 13  1  0
 13 14  1  0
 14 15  1  0
 15 16  2  0
 16 17  1  0
 17 18  1  0
 17 19  2  0
 19 20  1  0
 20 21  1  0
 21 22  1  0
 21 23  1  0
 21 24  1  0
 20 25  2  0
 25 26  1  0
 26 27  3  0
  9 28  1  0
 28 29  2  0
 29  6  1  0
 25 15  1  0
M  END
>  <Binding energies>  (16) 
[-6.95]

>  <Ligand effiencies>  (16) 
[-0.23166666666666666]

>  <Interactions>  (16) 
["H-B:ALA:541:N:9863, V-B:PRO:540:CB:9857, H-B:TYR:531:OH:9767, V-B:MET:535:CE:9807, V-B:PRO:540:CA:9855, V-A:PRO:540:N:4884, V-A:ILE:538:CG2:4863, H-B:TYR:539:OH:9850, V-A:TYR:539:CD1:4873, V-A:PRO:540:CA:4883, H-A:TYR:531:OH:4795, V-A:TYR:539:CE1:4875, V-A:ILE:538:CB:4862, V-A:PRO:540:CD:4887, V-A:PRO:540:C:4881, V-A:TYR:539:C:4867, V-A:LEU:363:CD1:3188, V-B:GLU:543:CD:9880, H-B:MET:535:SD:9806, V-A:TYR:531:CE2:4793, V-A:MET:535:CE:4835"]

$$$$
2b_Grossjean_2025
     RDKit          3D

 28 29  0  0  0  0  0  0  0  0999 V2000
  125.3590  121.6620   55.5900 C   0  0  0  0  0  0  0  0  0  0  0  0
  126.4890  121.9100   56.4150 O   0  0  0  0  0  0  0  0  0  0  0  0
  126.6900  123.1290   56.9770 C   0  0  0  0  0  0  0  0  0  0  0  0
  125.8710  124.0510   56.9140 O   0  0  0  0  0  0  0  0  0  0  0  0
  128.0110  123.2460   57.6810 C   0  0  0  0  0  0  0  0  0  0  0  0
  128.4400  122.2950   58.6190 C   0  0  0  0  0  0  0  0  0  0  0  0
  129.6700  122.4350   59.2550 C   0  0  0  0  0  0  0  0  0  0  0  0
  130.4980  123.5190   58.9650 C   0  0  0  0  0  0  0  0  0  0  0  0
  131.7160  123.5650   59.6700 N   0  0  0  0  0  0  0  0  0  0  0  0
  132.9800  123.4180   59.2170 C   0  0  0  0  0  0  0  0  0  0  0  0
  133.2960  123.1790   58.0510 O   0  0  0  0  0  0  0  0  0  0  0  0
  134.0730  123.5490   60.2820 C   0  0  0  0  0  0  0  0  0  0  0  0
  134.1680  122.1080   61.3950 S   0  0  0  0  0  0  0  0  0  0  0  0
  132.5720  121.3090   61.4950 C   0  0  0  0  0  0  0  0  0  0  0  0
  131.5790  122.0440   62.0570 N   0  0  0  0  0  0  0  0  0  0  0  0
  130.3460  121.5000   62.1700 C   0  0  0  0  0  0  0  0  0  0  0  0
  129.2970  122.3810   62.8200 C   0  0  0  0  0  0  0  0  0  0  0  0
  130.0490  120.2160   61.7240 C   0  0  0  0  0  0  0  0  0  0  0  0
  131.0570  119.4400   61.1330 C   0  0  0  0  0  0  0  0  0  0  0  0
  130.7100  118.0220   60.6410 C   0  0  0  0  0  0  0  0  0  0  0  0
  131.3970  117.1160   61.3390 F   0  0  0  0  0  0  0  0  0  0  0  0
  129.4060  117.7890   60.7970 F   0  0  0  0  0  0  0  0  0  0  0  0
  130.9980  117.8380   59.3510 F   0  0  0  0  0  0  0  0  0  0  0  0
  132.3570  119.9950   61.0140 C   0  0  0  0  0  0  0  0  0  0  0  0
  133.4510  119.2280   60.4110 C   0  0  0  0  0  0  0  0  0  0  0  0
  134.3130  118.6220   59.9330 N   0  0  0  0  0  0  0  0  0  0  0  0
  130.0740  124.4780   58.0340 C   0  0  0  0  0  0  0  0  0  0  0  0
  128.8430  124.3390   57.4000 C   0  0  0  0  0  0  0  0  0  0  0  0
  1  2  1  0
  2  3  1  0
  3  4  2  0
  3  5  1  0
  5  6  2  0
  6  7  1  0
  7  8  2  0
  8  9  1  0
  9 10  1  0
 10 11  2  0
 10 12  1  0
 12 13  1  0
 13 14  1  0
 14 15  2  0
 15 16  1  0
 16 17  1  0
 16 18  2  0
 18 19  1  0
 19 20  1  0
 20 21  1  0
 20 22  1  0
 20 23  1  0
 19 24  2  0
 24 25  1  0
 25 26  3  0
  8 27  1  0
 27 28  2  0
 28  5  1  0
 24 14  1  0
M  END
>  <Binding energies>  (17) 
[-7.63]

>  <Ligand effiencies>  (17) 
[-0.2631034482758621]

>  <Interactions>  (17) 
["H-B:TYR:531:OH:9767, V-B:MET:535:CE:9807, V-A:ILE:369:CG2:3236, V-B:TYR:539:CD2:9846, V-B:PRO:540:N:9856, V-A:LEU:475:CD1:4257, V-B:PRO:540:CA:9855, V-B:PRO:540:C:9853, H-A:SER:385:OG:3409, H-A:HIS:383:NE2:3393, H-B:TYR:539:N:9842, V-B:ALA:541:CB:9864, V-B:TYR:539:CE2:9848, V-B:TYR:539:C:9839, V-A:PRO:482:CG:4326, V-A:PRO:482:CB:4325, V-B:LEU:363:CD1:8160, V-A:ASP:366:CG:3212, V-B:PRO:540:CD:9859, V-A:ASP:366:CA:3209, H-B:TYR:539:OH:9850, V-A:ILE:369:CD1:3238, V-B:TYR:539:CZ:9849, V-A:SER:385:CA:3406, V-A:ILE:369:CB:3235, V-B:TYR:539:CG:9844, V-B:ILE:538:CA:9832, V-B:ILE:538:CG1:9836, V-B:ILE:538:CG2:9835, V-B:ILE:538:C:9830, V-B:ILE:538:CB:9834, V-B:TYR:539:CB:9843, V-B:ALA:541:CA:9862, V-A:HIS:383:CE1:3392, V-A:PRO:482:CD:4327"]

$$$$
2c_Grossjean_2025
     RDKit          3D

 26 27  0  0  0  0  0  0  0  0999 V2000
  125.1460  122.0210   55.2980 C   0  0  0  0  0  0  0  0  0  0  0  0
  126.3850  121.6270   55.8770 O   0  0  0  0  0  0  0  0  0  0  0  0
  126.7930  122.2130   57.0600 C   0  0  0  0  0  0  0  0  0  0  0  0
  128.1400  122.0720   57.3920 C   0  0  0  0  0  0  0  0  0  0  0  0
  128.6460  122.6270   58.5650 C   0  0  0  0  0  0  0  0  0  0  0  0
  127.7930  123.3270   59.4310 C   0  0  0  0  0  0  0  0  0  0  0  0
  128.2150  123.9360   60.6270 N   0  0  0  0  0  0  0  0  0  0  0  0
  128.1300  123.4640   61.8890 C   0  0  0  0  0  0  0  0  0  0  0  0
  127.5960  122.3990   62.2040 O   0  0  0  0  0  0  0  0  0  0  0  0
  128.7250  124.3840   62.9660 C   0  0  0  0  0  0  0  0  0  0  0  0
  130.0540  123.6480   63.9800 S   0  0  0  0  0  0  0  0  0  0  0  0
  130.9110  122.4020   63.0250 C   0  0  0  0  0  0  0  0  0  0  0  0
  130.1550  121.3490   62.6210 N   0  0  0  0  0  0  0  0  0  0  0  0
  130.7380  120.3650   61.9030 C   0  0  0  0  0  0  0  0  0  0  0  0
  129.8330  119.2150   61.5040 C   0  0  0  0  0  0  0  0  0  0  0  0
  132.0860  120.3890   61.5500 C   0  0  0  0  0  0  0  0  0  0  0  0
  132.8840  121.4710   61.9490 C   0  0  0  0  0  0  0  0  0  0  0  0
  134.3720  121.4850   61.5490 C   0  0  0  0  0  0  0  0  0  0  0  0
  135.1320  121.6840   62.6270 F   0  0  0  0  0  0  0  0  0  0  0  0
  134.7070  120.3210   60.9920 F   0  0  0  0  0  0  0  0  0  0  0  0
  134.6600  122.4480   60.6710 F   0  0  0  0  0  0  0  0  0  0  0  0
  132.2860  122.5090   62.7080 C   0  0  0  0  0  0  0  0  0  0  0  0
  133.0730  123.6630   63.1550 C   0  0  0  0  0  0  0  0  0  0  0  0
  133.6940  124.5740   63.5070 N   0  0  0  0  0  0  0  0  0  0  0  0
  126.4480  123.4840   59.0960 C   0  0  0  0  0  0  0  0  0  0  0  0
  125.9470  122.9280   57.9220 C   0  0  0  0  0  0  0  0  0  0  0  0
  1  2  1  0
  2  3  1  0
  3  4  2  0
  4  5  1  0
  5  6  2  0
  6  7  1  0
  7  8  1  0
  8  9  2  0
  8 10  1  0
 10 11  1  0
 11 12  1  0
 12 13  2  0
 13 14  1  0
 14 15  1  0
 14 16  2  0
 16 17  1  0
 17 18  1  0
 18 19  1  0
 18 20  1  0
 18 21  1  0
 17 22  2  0
 22 23  1  0
 23 24  3  0
  6 25  1  0
 25 26  2  0
 26  3  1  0
 22 12  1  0
M  END
>  <Binding energies>  (18) 
[-7.33]

>  <Ligand effiencies>  (18) 
[-0.2714814814814815]

>  <Interactions>  (18) 
["H-B:ALA:541:N:9863, V-B:PRO:540:CB:9857, V-B:MET:535:CE:9807, V-A:ILE:369:CG2:3236, V-B:TYR:539:CD2:9846, V-B:PRO:540:N:9856, V-A:LEU:475:CD1:4257, V-B:PRO:540:CA:9855, V-B:PRO:540:C:9853, H-B:TYR:539:N:9842, V-B:ALA:541:CB:9864, V-B:TYR:539:CE2:9848, V-B:MET:535:CG:9805, V-B:TYR:539:C:9839, V-A:PRO:482:CG:4326, V-A:PRO:482:CB:4325, V-B:LEU:363:CD1:8160, V-B:TYR:539:CA:9841, H-A:GLY:454:N:4049, V-B:PRO:540:CD:9859, V-A:ILE:369:CD1:3238, V-B:TYR:539:CZ:9849, V-A:SER:385:CA:3406, V-A:ILE:369:CB:3235, V-A:SER:385:C:3404, H-A:ARG:545:NH2:4928, V-B:TYR:539:CG:9844, V-B:GLU:543:CG:9879, V-B:TYR:539:CE1:9847, V-B:GLU:543:CD:9880, V-B:TYR:539:CD1:9845, V-B:ILE:538:CA:9832, V-B:ILE:538:CG1:9836, V-B:ILE:538:CG2:9835, V-B:ILE:538:CB:9834, V-A:GLY:454:CA:4048, V-A:GLY:453:C:4041, V-B:ALA:541:CA:9862, V-A:ILE:369:CG1:3237"]

$$$$
2d_Ghoteimi_2023
     RDKit          3D

 38 42  0  0  0  0  0  0  0  0999 V2000
  124.0820  130.2020   63.0960 C   0  0  0  0  0  0  0  0  0  0  0  0
  124.1740  129.8560   64.4690 O   0  0  0  0  0  0  0  0  0  0  0  0
  125.3360  129.4040   64.9860 C   0  0  0  0  0  0  0  0  0  0  0  0
  125.4410  128.6160   65.9300 O   0  0  0  0  0  0  0  0  0  0  0  0
  126.5440  129.9930   64.2420 C   0  0  0  0  0  0  0  0  0  0  0  0
  127.1810  128.8260   62.9910 S   0  0  0  0  0  0  0  0  0  0  0  0
  128.0670  127.5310   63.8330 C   0  0  0  0  0  0  0  0  0  0  0  0
  128.1780  127.7390   65.1680 N   0  0  0  0  0  0  0  0  0  0  0  0
  128.8360  126.8330   65.9350 C   0  0  0  0  0  0  0  0  0  0  0  0
  128.9340  127.1390   67.3950 C   0  0  0  0  0  0  0  0  0  0  0  0
  128.9490  126.1070   68.3390 C   0  0  0  0  0  0  0  0  0  0  0  0
  129.0400  126.3840   69.7010 C   0  0  0  0  0  0  0  0  0  0  0  0
  129.1300  127.7050   70.1660 C   0  0  0  0  0  0  0  0  0  0  0  0
  129.2040  128.0020   71.5320 N   0  0  0  0  0  0  0  0  0  0  0  0
  130.2700  127.4430   72.3870 C   0  0  0  0  0  0  0  0  0  0  0  0
  129.9800  127.5690   73.8980 C   0  0  0  0  0  0  0  0  0  0  0  0
  129.7240  128.9250   74.2300 O   0  0  0  0  0  0  0  0  0  0  0  0
  128.6000  129.4300   73.5290 C   0  0  0  0  0  0  0  0  0  0  0  0
  128.8450  129.3540   72.0070 C   0  0  0  0  0  0  0  0  0  0  0  0
  129.1000  128.7360   69.2170 C   0  0  0  0  0  0  0  0  0  0  0  0
  129.0070  128.4590   67.8570 C   0  0  0  0  0  0  0  0  0  0  0  0
  129.3990  125.6850   65.3720 C   0  0  0  0  0  0  0  0  0  0  0  0
  129.2690  125.4290   64.0020 C   0  0  0  0  0  0  0  0  0  0  0  0
  129.8710  124.1680   63.4750 C   0  0  0  0  0  0  0  0  0  0  0  0
  131.2310  123.9110   63.6540 C   0  0  0  0  0  0  0  0  0  0  0  0
  131.8000  122.7330   63.1780 C   0  0  0  0  0  0  0  0  0  0  0  0
  131.0210  121.7770   62.5040 C   0  0  0  0  0  0  0  0  0  0  0  0
  131.5680  120.5820   62.0290 N   0  0  0  0  0  0  0  0  0  0  0  0
  132.7910  120.5710   61.2020 C   0  0  0  0  0  0  0  0  0  0  0  0
  133.4370  119.1740   61.0780 C   0  0  0  0  0  0  0  0  0  0  0  0
  132.4860  118.2410   60.5900 O   0  0  0  0  0  0  0  0  0  0  0  0
  131.3650  118.1330   61.4550 C   0  0  0  0  0  0  0  0  0  0  0  0
  130.6650  119.5030   61.5850 C   0  0  0  0  0  0  0  0  0  0  0  0
  129.6530  122.0360   62.3440 C   0  0  0  0  0  0  0  0  0  0  0  0
  129.0850  123.2140   62.8220 C   0  0  0  0  0  0  0  0  0  0  0  0
  128.5780  126.3730   63.2010 C   0  0  0  0  0  0  0  0  0  0  0  0
  128.4000  126.1410   61.7650 C   0  0  0  0  0  0  0  0  0  0  0  0
  128.2610  125.9540   60.6310 N   0  0  0  0  0  0  0  0  0  0  0  0
  1  2  1  0
  2  3  1  0
  3  4  2  0
  3  5  1  0
  5  6  1  0
  6  7  1  0
  7  8  2  0
  8  9  1  0
  9 10  1  0
 10 11  2  0
 11 12  1  0
 12 13  2  0
 13 14  1  0
 14 15  1  0
 15 16  1  0
 16 17  1  0
 17 18  1  0
 18 19  1  0
 13 20  1  0
 20 21  2  0
  9 22  2  0
 22 23  1  0
 23 24  1  0
 24 25  2  0
 25 26  1  0
 26 27  2  0
 27 28  1  0
 28 29  1  0
 29 30  1  0
 30 31  1  0
 31 32  1  0
 32 33  1  0
 27 34  1  0
 34 35  2  0
 23 36  2  0
 36 37  1  0
 37 38  3  0
 36  7  1  0
 21 10  1  0
 35 24  1  0
 19 14  1  0
 33 28  1  0
M  END
>  <Binding energies>  (19) 
[-8.37]

>  <Ligand effiencies>  (19) 
[-0.22026315789473683]

>  <Interactions>  (19) 
["V-A:ILE:369:CG2:3236, V-A:LEU:475:CD1:4257, H-A:SER:385:OG:3409, H-A:HIS:383:NE2:3393, V-B:ALA:541:CB:9864, V-A:PRO:482:CG:4326, V-A:PRO:482:CB:4325, V-B:ASP:366:CG:8184, H-B:GLY:454:N:9021, H-B:ARG:545:NH1:9899, V-B:ARG:545:CZ:9898, V-A:GLU:543:CG:4907, V-A:GLU:543:CD:4908, H-B:ARG:545:NH2:9900, H-B:ARG:545:NE:9896, H-B:TYR:484:OH:9319, V-A:SER:385:CA:3406, V-A:SER:385:C:3404, V-A:GLU:543:C:4902, V-B:HIS:456:CE1:9041, V-A:HIS:456:CE1:4069, V-B:GLU:543:CB:9878, V-B:GLU:543:CG:9879, V-B:GLU:543:CD:9880, V-A:GLU:543:CB:4906, V-B:HIS:456:CD2:9039, H-A:LYS:547:NZ:4951"]

$$$$
2d_Grossjean_2025
     RDKit          3D

 24 25  0  0  0  0  0  0  0  0999 V2000
  129.8370  131.7080   60.3870 C   0  0  0  0  0  0  0  0  0  0  0  0
  129.2340  131.3800   59.0340 C   0  0  0  0  0  0  0  0  0  0  0  0
  129.8770  131.7210   57.8470 C   0  0  0  0  0  0  0  0  0  0  0  0
  129.2800  131.3910   56.6210 C   0  0  0  0  0  0  0  0  0  0  0  0
  130.0110  131.7680   55.3170 C   0  0  0  0  0  0  0  0  0  0  0  0
  129.1970  132.4610   54.5210 F   0  0  0  0  0  0  0  0  0  0  0  0
  131.0830  132.5140   55.5930 F   0  0  0  0  0  0  0  0  0  0  0  0
  130.4300  130.7020   54.6330 F   0  0  0  0  0  0  0  0  0  0  0  0
  128.0290  130.7230   56.6330 C   0  0  0  0  0  0  0  0  0  0  0  0
  127.3880  130.3160   55.3800 C   0  0  0  0  0  0  0  0  0  0  0  0
  126.8820  129.9940   54.3900 N   0  0  0  0  0  0  0  0  0  0  0  0
  127.4390  130.4390   57.8870 C   0  0  0  0  0  0  0  0  0  0  0  0
  125.8600  129.6360   58.0850 S   0  0  0  0  0  0  0  0  0  0  0  0
  126.0660  128.2040   59.1940 C   0  0  0  0  0  0  0  0  0  0  0  0
  126.5800  126.9550   58.4720 C   0  0  0  0  0  0  0  0  0  0  0  0
  127.5780  127.0470   57.7550 O   0  0  0  0  0  0  0  0  0  0  0  0
  125.8590  125.8310   58.6630 N   0  0  0  0  0  0  0  0  0  0  0  0
  126.0730  124.5390   58.1470 C   0  0  0  0  0  0  0  0  0  0  0  0
  127.3740  124.0430   58.2590 C   0  0  0  0  0  0  0  0  0  0  0  0
  127.6860  122.7760   57.7720 C   0  0  0  0  0  0  0  0  0  0  0  0
  126.6960  122.0070   57.1650 C   0  0  0  0  0  0  0  0  0  0  0  0
  125.3990  122.4970   57.0360 C   0  0  0  0  0  0  0  0  0  0  0  0
  125.0830  123.7620   57.5220 C   0  0  0  0  0  0  0  0  0  0  0  0
  128.0390  130.7460   59.0630 N   0  0  0  0  0  0  0  0  0  0  0  0
  1  2  1  0
  2  3  2  0
  3  4  1  0
  4  5  1  0
  5  6  1  0
  5  7  1  0
  5  8  1  0
  4  9  2  0
  9 10  1  0
 10 11  3  0
  9 12  1  0
 12 13  1  0
 13 14  1  0
 14 15  1  0
 15 16  2  0
 15 17  1  0
 17 18  1  0
 18 19  2  0
 19 20  1  0
 20 21  2  0
 21 22  1  0
 22 23  2  0
 12 24  2  0
 24  2  1  0
 23 18  1  0
M  END
>  <Binding energies>  (20) 
[-7.06]

>  <Ligand effiencies>  (20) 
[-0.2824]

>  <Interactions>  (20) 
["V-B:PRO:540:CB:9857, H-B:TYR:531:OH:9767, V-B:MET:535:CE:9807, V-B:PRO:540:N:9856, V-B:PRO:540:CA:9855, V-B:TYR:539:C:9839, V-B:TYR:531:CE2:9765, V-B:LEU:363:CD1:8160, V-B:TYR:539:CA:9841, V-B:PRO:540:CD:9859, V-A:PRO:540:N:4884, V-A:ILE:538:CA:4860, V-A:ILE:538:CG2:4863, V-A:TYR:539:CD1:4873, V-A:TYR:539:CE2:4876, V-A:PRO:540:CA:4883, V-A:TYR:539:CZ:4877, V-A:TYR:539:CD2:4874, V-A:TYR:539:CE1:4875, V-A:TYR:531:CZ:4794, V-A:ILE:538:CB:4862, V-B:ASP:366:CG:8184, V-B:TYR:531:CE1:9764, H-B:LYS:534:NZ:9795, V-B:ASP:366:CB:8183, V-A:PRO:540:CD:4887, V-A:PRO:540:C:4881, V-A:TYR:539:C:4867, H-A:TYR:539:OH:4878, V-A:ILE:538:C:4858, H-B:ASP:366:OD1:8185"]

$$$$
2e_Grossjean_2025
     RDKit          3D

 25 26  0  0  0  0  0  0  0  0999 V2000
  125.3570  122.1240   55.4810 C   0  0  0  0  0  0  0  0  0  0  0  0
  126.0340  122.7350   56.6930 C   0  0  0  0  0  0  0  0  0  0  0  0
  127.0340  122.0550   57.3920 C   0  0  0  0  0  0  0  0  0  0  0  0
  127.6210  122.6840   58.4920 C   0  0  0  0  0  0  0  0  0  0  0  0
  127.1980  123.9630   58.8620 C   0  0  0  0  0  0  0  0  0  0  0  0
  126.1840  124.5830   58.1230 C   0  0  0  0  0  0  0  0  0  0  0  0
  125.8270  125.8860   58.5120 N   0  0  0  0  0  0  0  0  0  0  0  0
  126.5660  127.0140   58.4230 C   0  0  0  0  0  0  0  0  0  0  0  0
  127.6800  127.0900   57.9020 O   0  0  0  0  0  0  0  0  0  0  0  0
  125.9560  128.2620   59.0690 C   0  0  0  0  0  0  0  0  0  0  0  0
  125.7340  129.6140   57.8690 S   0  0  0  0  0  0  0  0  0  0  0  0
  127.2930  130.4710   57.8240 C   0  0  0  0  0  0  0  0  0  0  0  0
  127.7410  130.8930   59.0330 N   0  0  0  0  0  0  0  0  0  0  0  0
  128.8970  131.5920   59.0840 C   0  0  0  0  0  0  0  0  0  0  0  0
  129.3400  132.0330   60.4660 C   0  0  0  0  0  0  0  0  0  0  0  0
  129.6410  131.9010   57.9460 C   0  0  0  0  0  0  0  0  0  0  0  0
  129.1860  131.4800   56.6880 C   0  0  0  0  0  0  0  0  0  0  0  0
  130.0080  131.8480   55.4390 C   0  0  0  0  0  0  0  0  0  0  0  0
  130.4830  130.7430   54.8610 F   0  0  0  0  0  0  0  0  0  0  0  0
  129.2410  132.4980   54.5640 F   0  0  0  0  0  0  0  0  0  0  0  0
  131.0510  132.6330   55.7200 F   0  0  0  0  0  0  0  0  0  0  0  0
  127.9790  130.7410   56.6180 C   0  0  0  0  0  0  0  0  0  0  0  0
  127.4360  130.2980   55.3300 C   0  0  0  0  0  0  0  0  0  0  0  0
  127.0060  129.9490   54.3140 N   0  0  0  0  0  0  0  0  0  0  0  0
  125.6110  123.9770   57.0420 N   0  0  0  0  0  0  0  0  0  0  0  0
  1  2  1  0
  2  3  2  0
  3  4  1  0
  4  5  2  0
  5  6  1  0
  6  7  1  0
  7  8  1  0
  8  9  2  0
  8 10  1  0
 10 11  1  0
 11 12  1  0
 12 13  2  0
 13 14  1  0
 14 15  1  0
 14 16  2  0
 16 17  1  0
 17 18  1  0
 18 19  1  0
 18 20  1  0
 18 21  1  0
 17 22  2  0
 22 23  1  0
 23 24  3  0
  6 25  2  0
 25  2  1  0
 22 12  1  0
M  END
>  <Binding energies>  (21) 
[-7.68]

>  <Ligand effiencies>  (21) 
[-0.29538461538461536]

>  <Interactions>  (21) 
["V-B:PRO:540:CB:9857, H-B:TYR:531:OH:9767, V-B:MET:535:CE:9807, V-B:PRO:540:N:9856, V-B:PRO:540:CA:9855, V-B:MET:535:CG:9805, V-B:TYR:539:C:9839, V-B:TYR:531:CZ:9766, V-B:LEU:363:CD1:8160, V-B:TYR:539:CA:9841, V-B:PRO:540:CD:9859, V-A:PRO:540:N:4884, V-A:ILE:538:CA:4860, V-A:ILE:538:CG2:4863, V-A:TYR:539:CD1:4873, V-A:TYR:539:CE2:4876, V-A:PRO:540:CA:4883, V-A:TYR:539:CZ:4877, V-A:TYR:539:CD2:4874, V-A:TYR:539:CE1:4875, V-A:TYR:531:CZ:4794, V-A:ILE:538:CB:4862, V-B:ASP:366:CG:8184, V-B:TYR:531:CE1:9764, H-B:LYS:534:NZ:9795, V-B:ASP:366:CB:8183, V-A:PRO:540:CD:4887, V-A:PRO:540:C:4881, V-A:TYR:539:C:4867, H-A:TYR:539:OH:4878, V-A:ILE:538:C:4858, V-B:ILE:538:CA:9832, V-B:ILE:538:CG1:9836, V-B:ILE:538:CG2:9835, H-B:ASP:366:OD1:8185"]

$$$$
2f_Grossjean_2025
     RDKit          3D

 24 25  0  0  0  0  0  0  0  0999 V2000
  126.3310  130.2390   58.1880 C   0  0  0  0  0  0  0  0  0  0  0  0
  127.2530  129.3540   57.3710 C   0  0  0  0  0  0  0  0  0  0  0  0
  127.6870  128.1180   57.8440 C   0  0  0  0  0  0  0  0  0  0  0  0
  128.5470  127.3390   57.0550 C   0  0  0  0  0  0  0  0  0  0  0  0
  129.0250  125.9810   57.6010 C   0  0  0  0  0  0  0  0  0  0  0  0
  128.7240  125.0080   56.7390 F   0  0  0  0  0  0  0  0  0  0  0  0
  130.3460  126.0040   57.7830 F   0  0  0  0  0  0  0  0  0  0  0  0
  128.4640  125.6670   58.7710 F   0  0  0  0  0  0  0  0  0  0  0  0
  128.9410  127.8390   55.7870 C   0  0  0  0  0  0  0  0  0  0  0  0
  129.8820  127.0890   54.9500 C   0  0  0  0  0  0  0  0  0  0  0  0
  130.6240  126.4960   54.2890 N   0  0  0  0  0  0  0  0  0  0  0  0
  128.4290  129.0930   55.3770 C   0  0  0  0  0  0  0  0  0  0  0  0
  128.8090  129.8650   53.8170 S   0  0  0  0  0  0  0  0  0  0  0  0
  130.2180  130.9970   54.0730 C   0  0  0  0  0  0  0  0  0  0  0  0
  130.4200  131.4670   55.5200 C   0  0  0  0  0  0  0  0  0  0  0  0
  129.8790  132.4960   55.9280 O   0  0  0  0  0  0  0  0  0  0  0  0
  131.2330  130.6800   56.2570 N   0  0  0  0  0  0  0  0  0  0  0  0
  131.6230  130.8070   57.6040 C   0  0  0  0  0  0  0  0  0  0  0  0
  130.7480  130.9040   58.7010 C   0  0  0  0  0  0  0  0  0  0  0  0
  131.2680  131.0210   59.9920 C   0  0  0  0  0  0  0  0  0  0  0  0
  132.6530  131.0350   60.1540 C   0  0  0  0  0  0  0  0  0  0  0  0
  133.5190  130.9350   59.1140 N   0  0  0  0  0  0  0  0  0  0  0  0
  132.9980  130.8200   57.8660 C   0  0  0  0  0  0  0  0  0  0  0  0
  127.6180  129.8410   56.1630 N   0  0  0  0  0  0  0  0  0  0  0  0
  1  2  1  0
  2  3  2  0
  3  4  1  0
  4  5  1  0
  5  6  1  0
  5  7  1  0
  5  8  1  0
  4  9  2  0
  9 10  1  0
 10 11  3  0
  9 12  1  0
 12 13  1  0
 13 14  1  0
 14 15  1  0
 15 16  2  0
 15 17  1  0
 17 18  1  0
 18 19  2  0
 19 20  1  0
 20 21  2  0
 21 22  1  0
 22 23  2  0
 12 24  2  0
 24  2  1  0
 23 18  1  0
M  END
>  <Binding energies>  (22) 
[-6.52]

>  <Ligand effiencies>  (22) 
[-0.2608]

>  <Interactions>  (22) 
["H-B:TYR:531:OH:9767, V-B:MET:535:CE:9807, V-A:ILE:538:CG2:4863, V-A:PRO:540:CA:4883, H-A:TYR:531:OH:4795, H-A:TYR:539:N:4870, V-A:TYR:539:CZ:4877, V-A:PRO:540:CB:4885, V-A:TYR:539:CE1:4875, V-A:ILE:538:CB:4862, H-B:LYS:534:NZ:9795, V-A:LEU:363:CD1:3188, V-A:LEU:363:CA:3184, H-A:LEU:363:N:3185"]

$$$$
2g_Grossjean_2025
     RDKit          3D

 25 26  0  0  0  0  0  0  0  0999 V2000
  126.3090  130.1010   57.7910 C   0  0  0  0  0  0  0  0  0  0  0  0
  127.3300  129.1690   57.1670 C   0  0  0  0  0  0  0  0  0  0  0  0
  127.7350  127.9980   57.8040 C   0  0  0  0  0  0  0  0  0  0  0  0
  128.6890  127.1730   57.1880 C   0  0  0  0  0  0  0  0  0  0  0  0
  129.1310  125.8860   57.9120 C   0  0  0  0  0  0  0  0  0  0  0  0
  128.5190  125.7870   59.0940 F   0  0  0  0  0  0  0  0  0  0  0  0
  128.8170  124.8210   57.1730 F   0  0  0  0  0  0  0  0  0  0  0  0
  130.4450  125.8470   58.1390 F   0  0  0  0  0  0  0  0  0  0  0  0
  129.2060  127.5580   55.9250 C   0  0  0  0  0  0  0  0  0  0  0  0
  130.2450  126.7620   55.2660 C   0  0  0  0  0  0  0  0  0  0  0  0
  131.0650  126.1330   54.7470 N   0  0  0  0  0  0  0  0  0  0  0  0
  128.7130  128.7500   55.3400 C   0  0  0  0  0  0  0  0  0  0  0  0
  129.2330  129.3660   53.7530 S   0  0  0  0  0  0  0  0  0  0  0  0
  129.0970  131.1850   53.8000 C   0  0  0  0  0  0  0  0  0  0  0  0
  129.9420  131.8640   54.8870 C   0  0  0  0  0  0  0  0  0  0  0  0
  129.5330  132.8570   55.4910 O   0  0  0  0  0  0  0  0  0  0  0  0
  131.1440  131.3050   55.1180 N   0  0  0  0  0  0  0  0  0  0  0  0
  132.1190  131.7660   56.1070 C   0  0  0  0  0  0  0  0  0  0  0  0
  131.7510  131.4430   57.5520 C   0  0  0  0  0  0  0  0  0  0  0  0
  132.7390  131.0130   58.4420 C   0  0  0  0  0  0  0  0  0  0  0  0
  132.4110  130.7540   59.7710 C   0  0  0  0  0  0  0  0  0  0  0  0
  131.1020  130.9360   60.2070 C   0  0  0  0  0  0  0  0  0  0  0  0
  130.1150  131.3770   59.3270 C   0  0  0  0  0  0  0  0  0  0  0  0
  130.4410  131.6370   57.9990 C   0  0  0  0  0  0  0  0  0  0  0  0
  127.8080  129.5470   55.9590 N   0  0  0  0  0  0  0  0  0  0  0  0
  1  2  1  0
  2  3  2  0
  3  4  1  0
  4  5  1  0
  5  6  1  0
  5  7  1  0
  5  8  1  0
  4  9  2  0
  9 10  1  0
 10 11  3  0
  9 12  1  0
 12 13  1  0
 13 14  1  0
 14 15  1  0
 15 16  2  0
 15 17  1  0
 17 18  1  0
 18 19  1  0
 19 20  2  0
 20 21  1  0
 21 22  2  0
 22 23  1  0
 23 24  2  0
 12 25  2  0
 25  2  1  0
 24 19  1  0
M  END
>  <Binding energies>  (23) 
[-7.04]

>  <Ligand effiencies>  (23) 
[-0.27076923076923076]

>  <Interactions>  (23) 
["H-B:TYR:531:OH:9767, V-B:MET:535:CE:9807, V-A:ASP:366:CG:3212, V-A:PRO:540:N:4884, V-A:ILE:538:CA:4860, V-A:ILE:538:CG2:4863, H-B:TYR:539:OH:9850, V-A:PRO:540:CA:4883, H-A:TYR:531:OH:4795, H-A:TYR:539:N:4870, V-A:TYR:539:CZ:4877, V-A:PRO:540:CB:4885, V-A:TYR:539:CE1:4875, V-A:TYR:531:CZ:4794, V-A:ILE:538:CB:4862, V-A:TYR:539:C:4867, V-A:LEU:363:CD1:3188, V-B:LYS:534:CE:9794, V-A:TYR:531:CE2:4793"]

$$$$
2h_Grossjean_2025
     RDKit          3D

 31 32  0  0  0  0  0  0  0  0999 V2000
  125.5710  121.8570   55.6930 C   0  0  0  0  0  0  0  0  0  0  0  0
  126.1320  121.7050   56.9920 O   0  0  0  0  0  0  0  0  0  0  0  0
  127.1960  122.5040   57.3710 C   0  0  0  0  0  0  0  0  0  0  0  0
  128.4530  122.0070   57.7480 C   0  0  0  0  0  0  0  0  0  0  0  0
  129.4810  122.8750   58.1090 C   0  0  0  0  0  0  0  0  0  0  0  0
  129.2770  124.2560   58.1020 C   0  0  0  0  0  0  0  0  0  0  0  0
  130.4250  125.1890   58.4830 C   0  0  0  0  0  0  0  0  0  0  0  0
  131.7200  124.5150   58.5840 N   0  0  0  0  0  0  0  0  0  0  0  0
  132.4250  124.3680   59.7200 C   0  0  0  0  0  0  0  0  0  0  0  0
  132.0850  124.8650   60.7950 O   0  0  0  0  0  0  0  0  0  0  0  0
  133.7000  123.5210   59.6030 C   0  0  0  0  0  0  0  0  0  0  0  0
  133.9050  122.2540   60.8990 S   0  0  0  0  0  0  0  0  0  0  0  0
  132.3730  121.3510   60.9820 C   0  0  0  0  0  0  0  0  0  0  0  0
  131.3090  122.1140   61.3360 N   0  0  0  0  0  0  0  0  0  0  0  0
  130.0980  121.5240   61.4470 C   0  0  0  0  0  0  0  0  0  0  0  0
  128.9560  122.4360   61.8540 C   0  0  0  0  0  0  0  0  0  0  0  0
  129.8980  120.1660   61.2090 C   0  0  0  0  0  0  0  0  0  0  0  0
  130.9830  119.3650   60.8220 C   0  0  0  0  0  0  0  0  0  0  0  0
  130.7400  117.8670   60.5530 C   0  0  0  0  0  0  0  0  0  0  0  0
  131.0840  117.5680   59.3010 F   0  0  0  0  0  0  0  0  0  0  0  0
  131.4480  117.0760   61.3630 F   0  0  0  0  0  0  0  0  0  0  0  0
  129.4510  117.5730   60.7300 F   0  0  0  0  0  0  0  0  0  0  0  0
  132.2590  119.9700   60.6930 C   0  0  0  0  0  0  0  0  0  0  0  0
  133.4120  119.1910   60.2350 C   0  0  0  0  0  0  0  0  0  0  0  0
  134.3200  118.5740   59.8700 N   0  0  0  0  0  0  0  0  0  0  0  0
  128.0180  124.7660   57.7500 C   0  0  0  0  0  0  0  0  0  0  0  0
  127.8080  126.1250   57.7440 O   0  0  0  0  0  0  0  0  0  0  0  0
  128.5220  126.8230   56.7320 C   0  0  0  0  0  0  0  0  0  0  0  0
  126.9890  123.8890   57.3670 C   0  0  0  0  0  0  0  0  0  0  0  0
  125.7600  124.3870   57.0040 O   0  0  0  0  0  0  0  0  0  0  0  0
  124.8660  124.5780   58.0920 C   0  0  0  0  0  0  0  0  0  0  0  0
  1  2  1  0
  2  3  1  0
  3  4  2  0
  4  5  1  0
  5  6  2  0
  6  7  1  0
  7  8  1  0
  8  9  1  0
  9 10  2  0
  9 11  1  0
 11 12  1  0
 12 13  1  0
 13 14  2  0
 14 15  1  0
 15 16  1  0
 15 17  2  0
 17 18  1  0
 18 19  1  0
 19 20  1  0
 19 21  1  0
 19 22  1  0
 18 23  2  0
 23 24  1  0
 24 25  3  0
  6 26  1  0
 26 27  1  0
 27 28  1  0
 26 29  2  0
 29 30  1  0
 30 31  1  0
 29  3  1  0
 23 13  1  0
M  END
>  <Binding energies>  (24) 
[-6.69]

>  <Ligand effiencies>  (24) 
[-0.2090625]

>  <Interactions>  (24) 
["H-B:TYR:531:OH:9767, V-B:MET:535:CE:9807, V-A:ILE:369:CG2:3236, V-B:TYR:539:CD2:9846, V-B:PRO:540:N:9856, V-A:LEU:475:CD1:4257, V-B:PRO:540:CA:9855, V-B:PRO:540:C:9853, H-A:SER:385:OG:3409, H-A:HIS:383:NE2:3393, H-B:TYR:539:N:9842, V-B:ALA:541:CB:9864, V-B:TYR:539:CE2:9848, V-B:TYR:539:C:9839, V-B:TYR:531:CE2:9765, V-A:PRO:482:CG:4326, V-B:TYR:531:CZ:9766, V-A:PRO:482:CB:4325, V-B:LEU:363:CD1:8160, V-B:TYR:539:CA:9841, V-A:ASP:366:CG:3212, V-B:PRO:540:CD:9859, V-A:ASP:366:CA:3209, V-A:ASP:366:CB:3211, H-B:TYR:539:OH:9850, V-B:ASP:366:CB:8183, V-B:TYR:539:CZ:9849, V-A:ILE:369:CB:3235, V-B:TYR:539:CG:9844, V-B:TYR:539:CE1:9847, V-B:TYR:539:CD1:9845, V-B:ILE:538:CA:9832, V-B:ILE:538:CG2:9835, V-B:TYR:539:CB:9843, V-B:ALA:541:CA:9862, V-A:HIS:383:CE1:3392, V-A:HIS:383:CD2:3391, V-A:PRO:482:CD:4327"]

$$$$
2i_Grossjean_2025
     RDKit          3D

 23 24  0  0  0  0  0  0  0  0999 V2000
  132.6040  131.7610   61.6020 C   0  0  0  0  0  0  0  0  0  0  0  0
  132.0120  130.8810   60.5170 C   0  0  0  0  0  0  0  0  0  0  0  0
  130.9600  130.0070   60.7790 C   0  0  0  0  0  0  0  0  0  0  0  0
  130.4460  129.2160   59.7420 C   0  0  0  0  0  0  0  0  0  0  0  0
  129.2820  128.2540   60.0500 C   0  0  0  0  0  0  0  0  0  0  0  0
  128.9900  128.2930   61.3510 F   0  0  0  0  0  0  0  0  0  0  0  0
  128.2010  128.6050   59.3530 F   0  0  0  0  0  0  0  0  0  0  0  0
  129.5640  126.9860   59.7400 F   0  0  0  0  0  0  0  0  0  0  0  0
  131.0200  129.3350   58.4510 C   0  0  0  0  0  0  0  0  0  0  0  0
  130.5210  128.5320   57.3290 C   0  0  0  0  0  0  0  0  0  0  0  0
  130.1270  127.9000   56.4440 N   0  0  0  0  0  0  0  0  0  0  0  0
  132.0870  130.2450   58.2740 C   0  0  0  0  0  0  0  0  0  0  0  0
  132.8930  130.4740   56.6970 S   0  0  0  0  0  0  0  0  0  0  0  0
  132.1300  131.9040   55.8740 C   0  0  0  0  0  0  0  0  0  0  0  0
  130.6020  131.8310   55.8830 C   0  0  0  0  0  0  0  0  0  0  0  0
  129.9620  132.7380   56.4180 O   0  0  0  0  0  0  0  0  0  0  0  0
  130.0620  130.7340   55.3090 N   0  0  0  0  0  0  0  0  0  0  0  0
  128.7140  130.4310   55.2080 C   0  0  0  0  0  0  0  0  0  0  0  0
  127.7990  130.0440   56.1980 C   0  0  0  0  0  0  0  0  0  0  0  0
  126.6080  129.8800   55.5280 C   0  0  0  0  0  0  0  0  0  0  0  0
  126.7960  130.1590   54.2160 O   0  0  0  0  0  0  0  0  0  0  0  0
  128.1340  130.5120   54.0310 N   0  0  0  0  0  0  0  0  0  0  0  0
  132.5690  131.0030   59.2920 N   0  0  0  0  0  0  0  0  0  0  0  0
  1  2  1  0
  2  3  2  0
  3  4  1  0
  4  5  1  0
  5  6  1  0
  5  7  1  0
  5  8  1  0
  4  9  2  0
  9 10  1  0
 10 11  3  0
  9 12  1  0
 12 13  1  0
 13 14  1  0
 14 15  1  0
 15 16  2  0
 15 17  1  0
 17 18  1  0
 18 19  1  0
 19 20  2  0
 20 21  1  0
 21 22  1  0
 12 23  2  0
 23  2  1  0
 22 18  2  0
M  END
>  <Binding energies>  (25) 
[-6.81]

>  <Ligand effiencies>  (25) 
[-0.28375]

>  <Interactions>  (25) 
["V-B:TYR:531:CZ:9766, V-A:ILE:538:CG2:4863, V-A:PRO:540:CA:4883, H-A:TYR:531:OH:4795, H-A:TYR:539:N:4870, V-A:TYR:539:CZ:4877, V-A:PRO:540:CB:4885, V-A:TYR:539:CE1:4875, V-A:ILE:538:CB:4862, V-B:TYR:531:CE1:9764, H-B:LYS:534:NZ:9795, V-A:PRO:540:C:4881, V-A:LEU:363:CD1:3188, H-A:TYR:539:OH:4878, V-A:ASN:362:CB:3175, V-A:ALA:541:C:4888"]

$$$$
2k_Grossjean_2025
     RDKit          3D

 28 28  0  0  0  0  0  0  0  0999 V2000
  125.4180  121.9700   55.7770 C   0  0  0  0  0  0  0  0  0  0  0  0
  126.5620  121.6280   56.5440 O   0  0  0  0  0  0  0  0  0  0  0  0
  127.1040  122.7220   57.2720 C   0  0  0  0  0  0  0  0  0  0  0  0
  125.9730  123.6520   57.7290 C   0  0  0  0  0  0  0  0  0  0  0  0
  126.4490  124.9900   57.7390 O   0  0  0  0  0  0  0  0  0  0  0  0
  126.9970  125.4050   58.9850 C   0  0  0  0  0  0  0  0  0  0  0  0
  127.1740  126.9290   58.9520 C   0  0  0  0  0  0  0  0  0  0  0  0
  128.5620  127.2030   58.8360 O   0  0  0  0  0  0  0  0  0  0  0  0
  129.2210  127.5110   60.0550 C   0  0  0  0  0  0  0  0  0  0  0  0
  129.3620  129.0400   60.1740 C   0  0  0  0  0  0  0  0  0  0  0  0
  130.7380  129.5040   59.9800 N   0  0  0  0  0  0  0  0  0  0  0  0
  131.1880  130.7480   60.2330 C   0  0  0  0  0  0  0  0  0  0  0  0
  130.4780  131.6450   60.6930 O   0  0  0  0  0  0  0  0  0  0  0  0
  132.6620  131.0060   59.8900 C   0  0  0  0  0  0  0  0  0  0  0  0
  133.1270  130.6960   58.1510 S   0  0  0  0  0  0  0  0  0  0  0  0
  131.8700  129.6930   57.3700 C   0  0  0  0  0  0  0  0  0  0  0  0
  131.9780  128.3540   57.5690 N   0  0  0  0  0  0  0  0  0  0  0  0
  131.0640  127.5340   57.0040 C   0  0  0  0  0  0  0  0  0  0  0  0
  131.2590  126.0530   57.2620 C   0  0  0  0  0  0  0  0  0  0  0  0
  130.0050  128.0070   56.2330 C   0  0  0  0  0  0  0  0  0  0  0  0
  129.8690  129.3880   56.0210 C   0  0  0  0  0  0  0  0  0  0  0  0
  128.6890  129.8950   55.1700 C   0  0  0  0  0  0  0  0  0  0  0  0
  129.0820  130.6090   54.1150 F   0  0  0  0  0  0  0  0  0  0  0  0
  127.9790  128.8620   54.7130 F   0  0  0  0  0  0  0  0  0  0  0  0
  127.8950  130.6720   55.9070 F   0  0  0  0  0  0  0  0  0  0  0  0
  130.8260  130.2590   56.6020 C   0  0  0  0  0  0  0  0  0  0  0  0
  130.7350  131.7100   56.4100 C   0  0  0  0  0  0  0  0  0  0  0  0
  130.6620  132.8560   56.2580 N   0  0  0  0  0  0  0  0  0  0  0  0
  1  2  1  0
  2  3  1  0
  3  4  1  0
  4  5  1  0
  5  6  1  0
  6  7  1  0
  7  8  1  0
  8  9  1  0
  9 10  1  0
 10 11  1  0
 11 12  1  0
 12 13  2  0
 12 14  1  0
 14 15  1  0
 15 16  1  0
 16 17  2  0
 17 18  1  0
 18 19  1  0
 18 20  2  0
 20 21  1  0
 21 22  1  0
 22 23  1  0
 22 24  1  0
 22 25  1  0
 21 26  2  0
 26 27  1  0
 27 28  3  0
 26 16  1  0
M  END
>  <Binding energies>  (26) 
[-6.03]

>  <Ligand effiencies>  (26) 
[-0.20793103448275863]

>  <Interactions>  (26) 
["H-B:TYR:531:OH:9767, V-B:MET:535:CE:9807, V-B:PRO:540:N:9856, V-B:PRO:540:CA:9855, H-B:TYR:539:N:9842, V-B:TYR:539:C:9839, V-B:TYR:531:CZ:9766, V-B:LEU:363:CD1:8160, V-A:ASP:366:CG:3212, V-B:PRO:540:CD:9859, V-A:PRO:540:CA:4883, H-A:TYR:531:OH:4795, H-A:TYR:539:N:4870, V-A:TYR:539:CZ:4877, V-A:PRO:540:CB:4885, V-A:TYR:539:CE1:4875, V-B:TYR:531:CE1:9764, H-A:ASP:366:OD2:3214, H-A:ALA:541:N:4891, V-B:ILE:538:CA:9832, V-B:ILE:538:CG2:9835"]

$$$$
3aa_Grossjean_2025
     RDKit          3D

 34 36  0  0  0  0  0  0  0  0999 V2000
  130.4420  131.8350   55.1450 C   0  0  0  0  0  0  0  0  0  0  0  0
  129.8590  131.0180   53.9870 C   0  0  0  0  0  0  0  0  0  0  0  0
  128.4380  131.0490   54.0540 O   0  0  0  0  0  0  0  0  0  0  0  0
  127.7360  129.9740   54.4950 C   0  0  0  0  0  0  0  0  0  0  0  0
  126.5090  129.8760   54.3970 O   0  0  0  0  0  0  0  0  0  0  0  0
  128.5990  128.9210   55.1310 C   0  0  0  0  0  0  0  0  0  0  0  0
  129.0290  127.7880   54.4250 C   0  0  0  0  0  0  0  0  0  0  0  0
  129.8330  126.8330   55.0430 C   0  0  0  0  0  0  0  0  0  0  0  0
  130.2260  126.9940   56.3730 C   0  0  0  0  0  0  0  0  0  0  0  0
  131.0410  125.9730   56.9010 N   0  0  0  0  0  0  0  0  0  0  0  0
  132.2970  125.6090   56.5590 C   0  0  0  0  0  0  0  0  0  0  0  0
  132.9690  126.1220   55.6640 O   0  0  0  0  0  0  0  0  0  0  0  0
  132.8910  124.4540   57.3650 C   0  0  0  0  0  0  0  0  0  0  0  0
  132.5560  124.6290   59.1430 S   0  0  0  0  0  0  0  0  0  0  0  0
  131.3200  123.4200   59.5620 C   0  0  0  0  0  0  0  0  0  0  0  0
  130.1380  123.6100   58.9270 N   0  0  0  0  0  0  0  0  0  0  0  0
  129.1060  122.7580   59.1580 C   0  0  0  0  0  0  0  0  0  0  0  0
  127.8360  123.0260   58.4080 C   0  0  0  0  0  0  0  0  0  0  0  0
  127.3920  122.1370   57.4160 C   0  0  0  0  0  0  0  0  0  0  0  0
  126.2130  122.3790   56.7140 C   0  0  0  0  0  0  0  0  0  0  0  0
  125.4620  123.5150   56.9970 C   0  0  0  0  0  0  0  0  0  0  0  0
  125.8800  124.4090   57.9770 C   0  0  0  0  0  0  0  0  0  0  0  0
  127.0570  124.1640   58.6780 C   0  0  0  0  0  0  0  0  0  0  0  0
  129.2470  121.6800   60.0380 C   0  0  0  0  0  0  0  0  0  0  0  0
  130.4560  121.4730   60.7200 C   0  0  0  0  0  0  0  0  0  0  0  0
  130.5680  120.2810   61.6890 C   0  0  0  0  0  0  0  0  0  0  0  0
  130.6220  120.6570   62.9680 F   0  0  0  0  0  0  0  0  0  0  0  0
  129.5130  119.4780   61.5540 F   0  0  0  0  0  0  0  0  0  0  0  0
  131.6760  119.5860   61.4270 F   0  0  0  0  0  0  0  0  0  0  0  0
  131.5240  122.3740   60.4880 C   0  0  0  0  0  0  0  0  0  0  0  0
  132.7900  122.2410   61.2160 C   0  0  0  0  0  0  0  0  0  0  0  0
  133.7890  122.1370   61.7910 N   0  0  0  0  0  0  0  0  0  0  0  0
  129.7880  128.1180   57.0890 C   0  0  0  0  0  0  0  0  0  0  0  0
  128.9840  129.0700   56.4700 C   0  0  0  0  0  0  0  0  0  0  0  0
  1  2  1  0
  2  3  1  0
  3  4  1  0
  4  5  2  0
  4  6  1  0
  6  7  2  0
  7  8  1  0
  8  9  2  0
  9 10  1  0
 10 11  1  0
 11 12  2  0
 11 13  1  0
 13 14  1  0
 14 15  1  0
 15 16  2  0
 16 17  1  0
 17 18  1  0
 18 19  2  0
 19 20  1  0
 20 21  2  0
 21 22  1  0
 22 23  2  0
 17 24  2  0
 24 25  1  0
 25 26  1  0
 26 27  1  0
 26 28  1  0
 26 29  1  0
 25 30  2  0
 30 31  1  0
 31 32  3  0
  9 33  1  0
 33 34  2  0
 34  6  1  0
 30 15  1  0
 23 18  1  0
M  END
>  <Binding energies>  (27) 
[-8.82]

>  <Ligand effiencies>  (27) 
[-0.252]

>  <Interactions>  (27) 
["V-B:PRO:540:CB:9857, H-B:TYR:531:OH:9767, V-B:MET:535:CE:9807, V-B:TYR:539:CD2:9846, V-B:PRO:540:N:9856, V-A:LEU:475:CD1:4257, V-B:PRO:540:CA:9855, V-B:PRO:540:C:9853, V-B:ALA:541:CB:9864, V-B:TYR:539:CE2:9848, V-B:TYR:539:C:9839, V-B:TYR:531:CE2:9765, V-A:PRO:482:CG:4326, V-B:LEU:363:CD1:8160, V-B:TYR:539:CA:9841, V-B:PRO:540:CD:9859, V-A:ILE:538:CA:4860, V-A:ASP:366:CA:3209, V-A:ASP:366:CB:3211, V-A:ILE:538:CG2:4863, V-A:ASP:366:C:3207, H-B:TYR:539:OH:9850, H-A:TYR:531:OH:4795, V-A:ILE:538:CB:4862, V-B:TYR:531:CE1:9764, H-B:LYS:534:NZ:9795, V-B:TYR:539:CZ:9849, H-A:TYR:539:OH:4878, V-B:LYS:534:CE:9794, V-B:ALA:541:CA:9862"]

$$$$
3ad_Grossjean_2025
     RDKit          3D

 29 31  0  0  0  0  0  0  0  0999 V2000
  130.5680  126.7070   53.9840 N   0  0  0  0  0  0  0  0  0  0  0  0
  129.8760  127.2440   54.7400 C   0  0  0  0  0  0  0  0  0  0  0  0
  128.9990  127.9220   55.7000 C   0  0  0  0  0  0  0  0  0  0  0  0
  128.6940  127.3250   56.9470 C   0  0  0  0  0  0  0  0  0  0  0  0
  129.2850  125.9730   57.3900 C   0  0  0  0  0  0  0  0  0  0  0  0
  130.6170  125.9420   57.3210 F   0  0  0  0  0  0  0  0  0  0  0  0
  128.9420  125.7190   58.6550 F   0  0  0  0  0  0  0  0  0  0  0  0
  128.8220  124.9930   56.6120 F   0  0  0  0  0  0  0  0  0  0  0  0
  127.8120  127.9930   57.8110 C   0  0  0  0  0  0  0  0  0  0  0  0
  127.2500  129.2190   57.4400 C   0  0  0  0  0  0  0  0  0  0  0  0
  126.2920  129.9670   58.3180 C   0  0  0  0  0  0  0  0  0  0  0  0
  126.7570  130.7300   59.4010 C   0  0  0  0  0  0  0  0  0  0  0  0
  125.8730  131.4270   60.2190 C   0  0  0  0  0  0  0  0  0  0  0  0
  124.5060  131.3720   59.9630 C   0  0  0  0  0  0  0  0  0  0  0  0
  124.0200  130.6270   58.8950 C   0  0  0  0  0  0  0  0  0  0  0  0
  124.9080  129.9310   58.0780 C   0  0  0  0  0  0  0  0  0  0  0  0
  127.5420  129.7830   56.2410 N   0  0  0  0  0  0  0  0  0  0  0  0
  128.4050  129.1680   55.3990 C   0  0  0  0  0  0  0  0  0  0  0  0
  128.6790  130.0560   53.8820 S   0  0  0  0  0  0  0  0  0  0  0  0
  130.2290  130.9860   54.0730 C   0  0  0  0  0  0  0  0  0  0  0  0
  130.4480  131.4550   55.5130 C   0  0  0  0  0  0  0  0  0  0  0  0
  129.8960  132.4860   55.8970 O   0  0  0  0  0  0  0  0  0  0  0  0
  131.2550  130.6720   56.2610 N   0  0  0  0  0  0  0  0  0  0  0  0
  131.6480  130.8070   57.6060 C   0  0  0  0  0  0  0  0  0  0  0  0
  130.6070  130.9350   58.5300 C   0  0  0  0  0  0  0  0  0  0  0  0
  130.8850  131.0790   59.8870 C   0  0  0  0  0  0  0  0  0  0  0  0
  132.2070  131.0990   60.3220 C   0  0  0  0  0  0  0  0  0  0  0  0
  133.2530  130.9800   59.4110 C   0  0  0  0  0  0  0  0  0  0  0  0
  132.9800  130.8370   58.0530 C   0  0  0  0  0  0  0  0  0  0  0  0
  1  2  3  0
  2  3  1  0
  3  4  2  0
  4  5  1  0
  5  6  1  0
  5  7  1  0
  5  8  1  0
  4  9  1  0
  9 10  2  0
 10 11  1  0
 11 12  2  0
 12 13  1  0
 13 14  2  0
 14 15  1  0
 15 16  2  0
 10 17  1  0
 17 18  2  0
 18 19  1  0
 19 20  1  0
 20 21  1  0
 21 22  2  0
 21 23  1  0
 23 24  1  0
 24 25  2  0
 25 26  1  0
 26 27  2  0
 27 28  1  0
 28 29  2  0
 18  3  1  0
 29 24  1  0
 16 11  1  0
M  END
>  <Binding energies>  (28) 
[-8.2]

>  <Ligand effiencies>  (28) 
[-0.2733333333333333]

>  <Interactions>  (28) 
["H-B:TYR:531:OH:9767, V-B:MET:535:CE:9807, V-A:ASP:366:CG:3212, V-A:ILE:538:CG2:4863, V-A:PRO:540:CA:4883, H-A:TYR:531:OH:4795, H-A:TYR:539:N:4870, V-A:PRO:540:CB:4885, V-A:TYR:539:CE1:4875, V-A:TYR:531:CZ:4794, V-A:ILE:538:CB:4862, V-B:ASP:366:CG:8184, H-B:LYS:534:NZ:9795, V-B:ASP:366:CB:8183, V-B:ASP:366:CA:8181, V-A:LEU:363:CD1:3188, V-B:ASP:366:C:8179, V-A:LEU:363:CA:3184, V-B:ILE:369:CG2:8208, V-B:ILE:369:CB:8207"]

$$$$
3ai_Grossjean_2025
     RDKit          3D

 28 30  0  0  0  0  0  0  0  0999 V2000
  127.2090  126.5470   62.6950 N   0  0  0  0  0  0  0  0  0  0  0  0
  127.7970  125.5660   62.5200 C   0  0  0  0  0  0  0  0  0  0  0  0
  128.5430  124.3230   62.2990 C   0  0  0  0  0  0  0  0  0  0  0  0
  129.9130  124.2290   62.6450 C   0  0  0  0  0  0  0  0  0  0  0  0
  130.6850  125.3880   63.3060 C   0  0  0  0  0  0  0  0  0  0  0  0
  131.9710  125.0990   63.5180 F   0  0  0  0  0  0  0  0  0  0  0  0
  130.6390  126.4690   62.5250 F   0  0  0  0  0  0  0  0  0  0  0  0
  130.1440  125.6850   64.4870 F   0  0  0  0  0  0  0  0  0  0  0  0
  130.5940  123.0340   62.3690 C   0  0  0  0  0  0  0  0  0  0  0  0
  129.9290  121.9640   61.7630 C   0  0  0  0  0  0  0  0  0  0  0  0
  130.6090  120.6690   61.4360 C   0  0  0  0  0  0  0  0  0  0  0  0
  131.9690  120.6420   61.0870 C   0  0  0  0  0  0  0  0  0  0  0  0
  132.6080  119.4430   60.7870 C   0  0  0  0  0  0  0  0  0  0  0  0
  131.8950  118.2500   60.8330 C   0  0  0  0  0  0  0  0  0  0  0  0
  130.5480  118.2480   61.1790 C   0  0  0  0  0  0  0  0  0  0  0  0
  129.9110  119.4490   61.4790 C   0  0  0  0  0  0  0  0  0  0  0  0
  128.6170  122.0610   61.4260 N   0  0  0  0  0  0  0  0  0  0  0  0
  127.9320  123.1960   61.7040 C   0  0  0  0  0  0  0  0  0  0  0  0
  126.2220  123.1310   61.2100 S   0  0  0  0  0  0  0  0  0  0  0  0
  125.9010  124.5550   60.1150 C   0  0  0  0  0  0  0  0  0  0  0  0
  125.6200  124.1950   58.6480 C   0  0  0  0  0  0  0  0  0  0  0  0
  124.9520  124.9440   57.9320 O   0  0  0  0  0  0  0  0  0  0  0  0
  126.1560  123.0220   58.2430 N   0  0  0  0  0  0  0  0  0  0  0  0
  126.0710  122.4500   56.9800 C   0  0  0  0  0  0  0  0  0  0  0  0
  125.0670  122.7660   56.0660 C   0  0  0  0  0  0  0  0  0  0  0  0
  125.3340  121.9960   54.9580 C   0  0  0  0  0  0  0  0  0  0  0  0
  126.4430  121.2550   55.1920 O   0  0  0  0  0  0  0  0  0  0  0  0
  126.9010  121.5520   56.4760 N   0  0  0  0  0  0  0  0  0  0  0  0
  1  2  3  0
  2  3  1  0
  3  4  2  0
  4  5  1  0
  5  6  1  0
  5  7  1  0
  5  8  1  0
  4  9  1  0
  9 10  2  0
 10 11  1  0
 11 12  2  0
 12 13  1  0
 13 14  2  0
 14 15  1  0
 15 16  2  0
 10 17  1  0
 17 18  2  0
 18 19  1  0
 19 20  1  0
 20 21  1  0
 21 22  2  0
 21 23  1  0
 23 24  1  0
 24 25  1  0
 25 26  2  0
 26 27  1  0
 27 28  1  0
 18  3  1  0
 28 24  2  0
 16 11  1  0
M  END
>  <Binding energies>  (29) 
[-8.03]

>  <Ligand effiencies>  (29) 
[-0.2768965517241379]

>  <Interactions>  (29) 
["H-B:ALA:541:N:9863, V-B:PRO:540:CB:9857, H-B:TYR:531:OH:9767, V-B:MET:535:CE:9807, V-B:PRO:540:N:9856, V-A:LEU:475:CD1:4257, V-B:PRO:540:CA:9855, V-B:PRO:540:C:9853, H-B:TYR:539:N:9842, V-B:ALA:541:CB:9864, V-B:MET:535:CG:9805, V-B:TYR:531:CE2:9765, V-A:PRO:482:CG:4326, V-A:PRO:482:CB:4325, V-B:LEU:363:CD1:8160, V-B:PRO:540:CD:9859, H-B:ARG:545:NH2:9900, H-B:TYR:539:O:9840, V-B:GLU:543:CD:9880, V-B:ILE:538:CA:9832, V-B:ILE:538:CG1:9836, V-B:ILE:538:CG2:9835, V-B:ILE:538:CB:9834, V-B:ALA:541:CA:9862, V-B:MET:535:CB:9804"]

$$$$
3aj_Grossjean_2025
     RDKit          3D

 28 30  0  0  0  0  0  0  0  0999 V2000
  131.0150  126.1280   54.3490 N   0  0  0  0  0  0  0  0  0  0  0  0
  130.2470  126.6950   55.0030 C   0  0  0  0  0  0  0  0  0  0  0  0
  129.2760  127.4120   55.8340 C   0  0  0  0  0  0  0  0  0  0  0  0
  128.7930  126.8420   57.0380 C   0  0  0  0  0  0  0  0  0  0  0  0
  129.2790  125.4780   57.5660 C   0  0  0  0  0  0  0  0  0  0  0  0
  129.0240  124.4760   56.7210 F   0  0  0  0  0  0  0  0  0  0  0  0
  130.5970  125.5100   57.7670 F   0  0  0  0  0  0  0  0  0  0  0  0
  128.6720  125.1930   58.7180 F   0  0  0  0  0  0  0  0  0  0  0  0
  127.8280  127.5470   57.7730 C   0  0  0  0  0  0  0  0  0  0  0  0
  127.3560  128.7830   57.3180 C   0  0  0  0  0  0  0  0  0  0  0  0
  126.3200  129.5720   58.0590 C   0  0  0  0  0  0  0  0  0  0  0  0
  125.0880  129.8770   57.4600 C   0  0  0  0  0  0  0  0  0  0  0  0
  124.1190  130.6070   58.1440 C   0  0  0  0  0  0  0  0  0  0  0  0
  124.3710  131.0440   59.4400 C   0  0  0  0  0  0  0  0  0  0  0  0
  125.5840  130.7540   60.0570 C   0  0  0  0  0  0  0  0  0  0  0  0
  126.5490  130.0230   59.3700 C   0  0  0  0  0  0  0  0  0  0  0  0
  127.8160  129.3210   56.1600 N   0  0  0  0  0  0  0  0  0  0  0  0
  128.7650  128.6720   55.4450 C   0  0  0  0  0  0  0  0  0  0  0  0
  129.2620  129.5380   53.9720 S   0  0  0  0  0  0  0  0  0  0  0  0
  129.3480  131.3170   54.3720 C   0  0  0  0  0  0  0  0  0  0  0  0
  130.0940  131.6550   55.6710 C   0  0  0  0  0  0  0  0  0  0  0  0
  129.8770  132.7140   56.2660 O   0  0  0  0  0  0  0  0  0  0  0  0
  130.9740  130.7140   56.0770 N   0  0  0  0  0  0  0  0  0  0  0  0
  131.7720  130.7600   57.2130 C   0  0  0  0  0  0  0  0  0  0  0  0
  133.0740  130.5910   57.2930 N   0  0  0  0  0  0  0  0  0  0  0  0
  133.5040  130.7070   58.5340 C   0  0  0  0  0  0  0  0  0  0  0  0
  132.5350  130.9760   59.4980 C   0  0  0  0  0  0  0  0  0  0  0  0
  130.9820  131.0800   58.7250 S   0  0  0  0  0  0  0  0  0  0  0  0
  1  2  3  0
  2  3  1  0
  3  4  2  0
  4  5  1  0
  5  6  1  0
  5  7  1  0
  5  8  1  0
  4  9  1  0
  9 10  2  0
 10 11  1  0
 11 12  2  0
 12 13  1  0
 13 14  2  0
 14 15  1  0
 15 16  2  0
 10 17  1  0
 17 18  2  0
 18 19  1  0
 19 20  1  0
 20 21  1  0
 21 22  2  0
 21 23  1  0
 23 24  1  0
 24 25  2  0
 25 26  1  0
 26 27  2  0
 27 28  1  0
 18  3  1  0
 28 24  1  0
 16 11  1  0
M  END
>  <Binding energies>  (30) 
[-7.72]

>  <Ligand effiencies>  (30) 
[-0.26620689655172414]

>  <Interactions>  (30) 
["H-B:TYR:531:OH:9767, V-B:MET:535:CE:9807, V-A:ASP:366:CG:3212, V-A:ILE:538:CA:4860, V-A:ASP:366:CB:3211, V-A:ILE:538:CG2:4863, H-B:TYR:539:OH:9850, V-A:PRO:540:CA:4883, H-A:TYR:531:OH:4795, H-A:TYR:539:N:4870, V-A:TYR:539:CZ:4877, V-A:PRO:540:CB:4885, V-A:TYR:539:CE1:4875, V-A:TYR:531:CZ:4794, V-B:ASP:366:CB:8183, V-B:ASP:366:CA:8181, V-A:LEU:363:CD1:3188, V-B:ASP:366:C:8179, V-B:TYR:539:CZ:9849, V-A:LEU:363:CA:3184, V-A:LEU:363:CB:3186, V-B:ILE:369:CG2:8208, V-B:ILE:369:CB:8207"]

$$$$
3ak_Grossjean_2025
     RDKit          3D

 33 34  0  0  0  0  0  0  0  0999 V2000
  131.4620  132.0230   55.8670 C   0  0  0  0  0  0  0  0  0  0  0  0
  130.2790  132.7730   56.0930 O   0  0  0  0  0  0  0  0  0  0  0  0
  129.0910  132.0020   55.9780 C   0  0  0  0  0  0  0  0  0  0  0  0
  128.7560  131.8200   54.4930 C   0  0  0  0  0  0  0  0  0  0  0  0
  127.6460  130.9360   54.3740 O   0  0  0  0  0  0  0  0  0  0  0  0
  127.8650  129.6080   54.8400 C   0  0  0  0  0  0  0  0  0  0  0  0
  129.0720  128.9120   54.1850 C   0  0  0  0  0  0  0  0  0  0  0  0
  128.8250  127.5140   54.1170 O   0  0  0  0  0  0  0  0  0  0  0  0
  129.8550  126.7180   54.6890 C   0  0  0  0  0  0  0  0  0  0  0  0
  129.7410  126.7260   56.2240 C   0  0  0  0  0  0  0  0  0  0  0  0
  130.7050  125.8460   56.8880 N   0  0  0  0  0  0  0  0  0  0  0  0
  131.9670  125.6090   56.4830 C   0  0  0  0  0  0  0  0  0  0  0  0
  132.4590  126.1420   55.4870 O   0  0  0  0  0  0  0  0  0  0  0  0
  132.8350  124.6320   57.2940 C   0  0  0  0  0  0  0  0  0  0  0  0
  132.5820  124.6270   59.1070 S   0  0  0  0  0  0  0  0  0  0  0  0
  131.3260  123.4210   59.5080 C   0  0  0  0  0  0  0  0  0  0  0  0
  130.1420  123.5720   58.8640 N   0  0  0  0  0  0  0  0  0  0  0  0
  129.1240  122.7090   59.1070 C   0  0  0  0  0  0  0  0  0  0  0  0
  127.8510  122.9490   58.3510 C   0  0  0  0  0  0  0  0  0  0  0  0
  127.0300  124.0460   58.6570 C   0  0  0  0  0  0  0  0  0  0  0  0
  125.8490  124.2760   57.9560 C   0  0  0  0  0  0  0  0  0  0  0  0
  125.4730  123.4100   56.9350 C   0  0  0  0  0  0  0  0  0  0  0  0
  126.2690  122.3180   56.6090 C   0  0  0  0  0  0  0  0  0  0  0  0
  127.4500  122.0910   57.3110 C   0  0  0  0  0  0  0  0  0  0  0  0
  129.2810  121.6470   60.0040 C   0  0  0  0  0  0  0  0  0  0  0  0
  130.4960  121.4680   60.6820 C   0  0  0  0  0  0  0  0  0  0  0  0
  130.6310  120.2880   61.6650 C   0  0  0  0  0  0  0  0  0  0  0  0
  130.6290  120.7380   62.9200 F   0  0  0  0  0  0  0  0  0  0  0  0
  129.6120  119.4420   61.5070 F   0  0  0  0  0  0  0  0  0  0  0  0
  131.7580  119.5940   61.4890 F   0  0  0  0  0  0  0  0  0  0  0  0
  131.5510  122.3780   60.4320 C   0  0  0  0  0  0  0  0  0  0  0  0
  132.8430  122.2390   61.1120 C   0  0  0  0  0  0  0  0  0  0  0  0
  133.8630  122.1310   61.6500 N   0  0  0  0  0  0  0  0  0  0  0  0
  1  2  1  0
  2  3  1  0
  3  4  1  0
  4  5  1  0
  5  6  1  0
  6  7  1  0
  7  8  1  0
  8  9  1  0
  9 10  1  0
 10 11  1  0
 11 12  1  0
 12 13  2  0
 12 14  1  0
 14 15  1  0
 15 16  1  0
 16 17  2  0
 17 18  1  0
 18 19  1  0
 19 20  2  0
 20 21  1  0
 21 22  2  0
 22 23  1  0
 23 24  2  0
 18 25  2  0
 25 26  1  0
 26 27  1  0
 27 28  1  0
 27 29  1  0
 27 30  1  0
 26 31  2  0
 31 32  1  0
 32 33  3  0
 31 16  1  0
 24 19  1  0
M  END
>  <Binding energies>  (31) 
[-7.9]

>  <Ligand effiencies>  (31) 
[-0.2323529411764706]

>  <Interactions>  (31) 
["H-B:TYR:531:OH:9767, V-B:MET:535:CE:9807, V-B:TYR:539:CD2:9846, V-B:PRO:540:N:9856, V-A:LEU:475:CD1:4257, V-B:PRO:540:CA:9855, V-B:PRO:540:C:9853, V-B:ALA:541:CB:9864, V-B:TYR:539:CE2:9848, V-B:TYR:539:C:9839, V-B:TYR:531:CE2:9765, V-A:PRO:482:CG:4326, V-B:LEU:363:CD1:8160, V-B:TYR:539:CA:9841, V-B:PRO:540:CD:9859, V-A:ILE:538:CA:4860, V-A:ASP:366:CA:3209, V-A:ASP:366:CB:3211, V-A:TYR:539:CG:4872, V-A:ILE:538:CG2:4863, V-A:ASP:366:C:3207, H-B:TYR:539:OH:9850, V-A:TYR:539:CD1:4873, V-A:TYR:539:CE2:4876, H-A:TYR:531:OH:4795, H-A:TYR:539:N:4870, V-A:TYR:539:CZ:4877, V-A:TYR:539:CE1:4875, V-A:ILE:538:CB:4862, V-B:TYR:531:CE1:9764, H-B:LYS:534:NZ:9795, V-A:PRO:540:CD:4887, V-A:LEU:363:CD1:3188, V-B:TYR:539:CZ:9849, H-A:TYR:539:OH:4878, V-B:ALA:541:CA:9862, V-A:MET:535:CE:4835"]

$$$$
3bk_Grossjean_2025
     RDKit          3D

 30 31  0  0  0  0  0  0  0  0999 V2000
  125.3950  121.6390   55.9060 C   0  0  0  0  0  0  0  0  0  0  0  0
  126.6000  121.6660   56.6550 O   0  0  0  0  0  0  0  0  0  0  0  0
  126.8000  122.8820   57.3630 C   0  0  0  0  0  0  0  0  0  0  0  0
  125.4800  123.6640   57.4260 C   0  0  0  0  0  0  0  0  0  0  0  0
  125.7490  125.0150   57.7730 O   0  0  0  0  0  0  0  0  0  0  0  0
  127.1220  125.2790   58.0320 C   0  0  0  0  0  0  0  0  0  0  0  0
  127.2360  126.4760   58.9850 C   0  0  0  0  0  0  0  0  0  0  0  0
  127.1990  127.6820   58.2340 O   0  0  0  0  0  0  0  0  0  0  0  0
  125.8960  128.2340   58.0950 C   0  0  0  0  0  0  0  0  0  0  0  0
  125.9270  129.3610   57.0520 C   0  0  0  0  0  0  0  0  0  0  0  0
  127.2920  129.7460   56.6890 N   0  0  0  0  0  0  0  0  0  0  0  0
  127.6660  130.2760   55.5120 C   0  0  0  0  0  0  0  0  0  0  0  0
  126.8840  130.5190   54.5910 O   0  0  0  0  0  0  0  0  0  0  0  0
  129.1520  130.6070   55.3540 C   0  0  0  0  0  0  0  0  0  0  0  0
  130.2080  129.4610   56.2960 S   0  0  0  0  0  0  0  0  0  0  0  0
  130.5870  130.1900   57.8810 C   0  0  0  0  0  0  0  0  0  0  0  0
  129.5230  130.6100   58.6100 N   0  0  0  0  0  0  0  0  0  0  0  0
  129.7150  131.1810   59.8290 C   0  0  0  0  0  0  0  0  0  0  0  0
  128.4850  131.5970   60.5770 C   0  0  0  0  0  0  0  0  0  0  0  0
  127.2770  131.8290   59.9000 C   0  0  0  0  0  0  0  0  0  0  0  0
  126.1320  132.2210   60.5890 C   0  0  0  0  0  0  0  0  0  0  0  0
  126.1800  132.3860   61.9690 C   0  0  0  0  0  0  0  0  0  0  0  0
  127.3630  132.1580   62.6650 C   0  0  0  0  0  0  0  0  0  0  0  0
  128.5050  131.7650   61.9720 C   0  0  0  0  0  0  0  0  0  0  0  0
  131.0040  131.3390   60.3510 C   0  0  0  0  0  0  0  0  0  0  0  0
  132.1140  130.9130   59.6120 C   0  0  0  0  0  0  0  0  0  0  0  0
  133.5020  131.1050   60.2190 C   0  0  0  0  0  0  0  0  0  0  0  0
  131.9130  130.3240   58.3460 C   0  0  0  0  0  0  0  0  0  0  0  0
  133.0560  129.8660   57.5500 C   0  0  0  0  0  0  0  0  0  0  0  0
  133.9590  129.5050   56.9220 N   0  0  0  0  0  0  0  0  0  0  0  0
  1  2  1  0
  2  3  1  0
  3  4  1  0
  4  5  1  0
  5  6  1  0
  6  7  1  0
  7  8  1  0
  8  9  1  0
  9 10  1  0
 10 11  1  0
 11 12  1  0
 12 13  2  0
 12 14  1  0
 14 15  1  0
 15 16  1  0
 16 17  2  0
 17 18  1  0
 18 19  1  0
 19 20  2  0
 20 21  1  0
 21 22  2  0
 22 23  1  0
 23 24  2  0
 18 25  2  0
 25 26  1  0
 26 27  1  0
 26 28  2  0
 28 29  1  0
 29 30  3  0
 28 16  1  0
 24 19  1  0
M  END
>  <Binding energies>  (32) 
[-6.92]

>  <Ligand effiencies>  (32) 
[-0.2232258064516129]

>  <Interactions>  (32) 
["H-B:TYR:531:OH:9767, V-B:MET:535:CE:9807, V-B:PRO:540:N:9856, V-B:PRO:540:CA:9855, H-B:TYR:539:N:9842, V-B:TYR:531:CE2:9765, V-B:TYR:531:CZ:9766, V-B:LEU:363:CD1:8160, V-A:ASP:366:CG:3212, V-B:PRO:540:CD:9859, V-A:ASP:366:CB:3211, V-A:TYR:539:CD1:4873, V-A:PRO:540:CA:4883, H-A:TYR:531:OH:4795, V-A:TYR:539:CZ:4877, V-A:PRO:540:CB:4885, V-A:TYR:539:CE1:4875, V-B:TYR:531:CE1:9764, H-B:LYS:534:NZ:9795, V-B:ASP:366:CB:8183, V-A:ALA:541:CB:4892, V-A:PRO:540:C:4881, V-A:LEU:363:CD1:3188, H-A:TYR:539:OH:4878, V-A:LEU:363:CA:3184, V-B:ILE:538:CA:9832, V-B:ILE:538:CG2:9835, V-B:ILE:538:C:9830, V-B:ILE:538:CB:9834, V-A:ASN:362:CB:3175, V-A:ASN:362:C:3171"]

$$$$
3cb_Grossjean_2025
     RDKit          3D

 30 32  0  0  0  0  0  0  0  0999 V2000
  130.0570  120.8220   61.1990 C   0  0  0  0  0  0  0  0  0  0  0  0
  129.8420  121.7120   60.1140 O   0  0  0  0  0  0  0  0  0  0  0  0
  128.7250  122.4820   60.0520 C   0  0  0  0  0  0  0  0  0  0  0  0
  127.7760  122.3690   60.8330 O   0  0  0  0  0  0  0  0  0  0  0  0
  128.7570  123.4850   58.9340 C   0  0  0  0  0  0  0  0  0  0  0  0
  127.6500  123.7070   58.1020 C   0  0  0  0  0  0  0  0  0  0  0  0
  127.7120  124.6460   57.0760 C   0  0  0  0  0  0  0  0  0  0  0  0
  128.8800  125.3780   56.8560 C   0  0  0  0  0  0  0  0  0  0  0  0
  128.8310  126.3030   55.7940 N   0  0  0  0  0  0  0  0  0  0  0  0
  129.8200  126.7600   54.9950 C   0  0  0  0  0  0  0  0  0  0  0  0
  130.9980  126.4050   55.0570 O   0  0  0  0  0  0  0  0  0  0  0  0
  129.3660  127.7820   53.9410 C   0  0  0  0  0  0  0  0  0  0  0  0
  128.1950  129.0440   54.5480 S   0  0  0  0  0  0  0  0  0  0  0  0
  129.0700  130.0970   55.6870 C   0  0  0  0  0  0  0  0  0  0  0  0
  130.1700  130.6770   55.1490 N   0  0  0  0  0  0  0  0  0  0  0  0
  130.9140  131.4980   55.9230 C   0  0  0  0  0  0  0  0  0  0  0  0
  132.1230  132.1220   55.2510 C   0  0  0  0  0  0  0  0  0  0  0  0
  130.5980  131.7670   57.2510 C   0  0  0  0  0  0  0  0  0  0  0  0
  129.4740  131.1660   57.8340 C   0  0  0  0  0  0  0  0  0  0  0  0
  129.1810  131.4810   59.2650 C   0  0  0  0  0  0  0  0  0  0  0  0
  130.0680  131.0790   60.2710 C   0  0  0  0  0  0  0  0  0  0  0  0
  129.8090  131.3780   61.6070 C   0  0  0  0  0  0  0  0  0  0  0  0
  128.6580  132.0860   61.9420 C   0  0  0  0  0  0  0  0  0  0  0  0
  127.7690  132.5010   60.9550 C   0  0  0  0  0  0  0  0  0  0  0  0
  128.0320  132.2020   59.6200 C   0  0  0  0  0  0  0  0  0  0  0  0
  128.6900  130.2900   57.0390 C   0  0  0  0  0  0  0  0  0  0  0  0
  127.5600  129.5620   57.6220 C   0  0  0  0  0  0  0  0  0  0  0  0
  126.6670  128.9870   58.0810 N   0  0  0  0  0  0  0  0  0  0  0  0
  129.9900  125.1650   57.6860 C   0  0  0  0  0  0  0  0  0  0  0  0
  129.9270  124.2260   58.7130 C   0  0  0  0  0  0  0  0  0  0  0  0
  1  2  1  0
  2  3  1  0
  3  4  2  0
  3  5  1  0
  5  6  2  0
  6  7  1  0
  7  8  2  0
  8  9  1  0
  9 10  1  0
 10 11  2  0
 10 12  1  0
 12 13  1  0
 13 14  1  0
 14 15  2  0
 15 16  1  0
 16 17  1  0
 16 18  2  0
 18 19  1  0
 19 20  1  0
 20 21  2  0
 21 22  1  0
 22 23  2  0
 23 24  1  0
 24 25  2  0
 19 26  2  0
 26 27  1  0
 27 28  3  0
  8 29  1  0
 29 30  2  0
 30  5  1  0
 26 14  1  0
 25 20  1  0
M  END
>  <Binding energies>  (33) 
[-8.08]

>  <Ligand effiencies>  (33) 
[-0.26064516129032256]

>  <Interactions>  (33) 
["H-B:ALA:541:N:9863, H-B:TYR:531:OH:9767, V-B:MET:535:CE:9807, V-B:PRO:540:CA:9855, V-B:ALA:541:CB:9864, V-A:PRO:540:N:4884, V-A:ILE:538:CG2:4863, H-B:TYR:539:OH:9850, V-A:TYR:539:CD1:4873, V-A:PRO:540:CA:4883, H-A:TYR:531:OH:4795, V-A:TYR:539:CE1:4875, V-A:ILE:538:CB:4862, V-A:ALA:541:CB:4892, V-A:TYR:539:C:4867, V-A:LEU:363:CD1:3188, V-A:GLU:543:CD:4908, H-B:MET:535:SD:9806, V-A:TYR:531:CE2:4793, V-A:MET:535:CE:4835, V-A:ALA:541:CA:4890"]

$$$$
3ch_Grossjean_2025
     RDKit          3D

 32 34  0  0  0  0  0  0  0  0999 V2000
  134.0120  123.9350   59.8170 C   0  0  0  0  0  0  0  0  0  0  0  0
  132.7210  123.8520   60.4110 O   0  0  0  0  0  0  0  0  0  0  0  0
  132.4320  124.6160   61.5270 C   0  0  0  0  0  0  0  0  0  0  0  0
  131.5010  125.6670   61.5400 C   0  0  0  0  0  0  0  0  0  0  0  0
  131.2530  126.3940   62.7140 C   0  0  0  0  0  0  0  0  0  0  0  0
  130.3370  127.4570   62.8250 N   0  0  0  0  0  0  0  0  0  0  0  0
  129.8040  128.2410   61.8630 C   0  0  0  0  0  0  0  0  0  0  0  0
  130.0320  128.1460   60.6570 O   0  0  0  0  0  0  0  0  0  0  0  0
  128.8100  129.2960   62.3470 C   0  0  0  0  0  0  0  0  0  0  0  0
  129.4700  130.9820   62.1980 S   0  0  0  0  0  0  0  0  0  0  0  0
  130.3710  131.0260   60.6640 C   0  0  0  0  0  0  0  0  0  0  0  0
  131.7170  130.9670   60.8150 N   0  0  0  0  0  0  0  0  0  0  0  0
  132.4930  131.0020   59.7080 C   0  0  0  0  0  0  0  0  0  0  0  0
  133.9890  130.9380   59.9490 C   0  0  0  0  0  0  0  0  0  0  0  0
  131.9650  131.0970   58.4230 C   0  0  0  0  0  0  0  0  0  0  0  0
  130.5750  131.1520   58.2460 C   0  0  0  0  0  0  0  0  0  0  0  0
  130.0540  131.2640   56.8490 C   0  0  0  0  0  0  0  0  0  0  0  0
  130.3230  130.2560   55.9150 C   0  0  0  0  0  0  0  0  0  0  0  0
  129.8480  130.3570   54.6100 C   0  0  0  0  0  0  0  0  0  0  0  0
  129.1030  131.4720   54.2330 C   0  0  0  0  0  0  0  0  0  0  0  0
  128.8320  132.4860   55.1480 C   0  0  0  0  0  0  0  0  0  0  0  0
  129.3100  132.3810   56.4520 C   0  0  0  0  0  0  0  0  0  0  0  0
  129.7470  131.0970   59.3960 C   0  0  0  0  0  0  0  0  0  0  0  0
  128.2870  131.0550   59.2650 C   0  0  0  0  0  0  0  0  0  0  0  0
  127.1350  131.0230   59.1630 N   0  0  0  0  0  0  0  0  0  0  0  0
  131.9600  126.0730   63.8740 C   0  0  0  0  0  0  0  0  0  0  0  0
  132.8980  125.0290   63.8850 C   0  0  0  0  0  0  0  0  0  0  0  0
  133.6250  124.6560   65.0030 O   0  0  0  0  0  0  0  0  0  0  0  0
  133.5580  125.4530   66.1800 C   0  0  0  0  0  0  0  0  0  0  0  0
  133.1260  124.3100   62.7050 C   0  0  0  0  0  0  0  0  0  0  0  0
  134.0290  123.2730   62.7080 O   0  0  0  0  0  0  0  0  0  0  0  0
  133.4310  121.9850   62.6560 C   0  0  0  0  0  0  0  0  0  0  0  0
  1  2  1  0
  2  3  1  0
  3  4  2  0
  4  5  1  0
  5  6  1  0
  6  7  1  0
  7  8  2  0
  7  9  1  0
  9 10  1  0
 10 11  1  0
 11 12  2  0
 12 13  1  0
 13 14  1  0
 13 15  2  0
 15 16  1  0
 16 17  1  0
 17 18  2  0
 18 19  1  0
 19 20  2  0
 20 21  1  0
 21 22  2  0
 16 23  2  0
 23 24  1  0
 24 25  3  0
  5 26  2  0
 26 27  1  0
 27 28  1  0
 28 29  1  0
 27 30  2  0
 30 31  1  0
 31 32  1  0
 30  3  1  0
 23 11  1  0
 22 17  1  0
M  END
>  <Binding energies>  (34) 
[-7.67]

>  <Ligand effiencies>  (34) 
[-0.23242424242424242]

>  <Interactions>  (34) 
["V-A:ILE:369:CG2:3236, V-A:LEU:475:CD1:4257, H-A:TYR:484:OH:4347, V-A:ASP:366:CG:3212, H-A:GLY:454:N:4049, V-A:PRO:540:N:4884, V-A:ILE:538:CA:4860, V-A:ASP:366:CA:3209, V-A:ASP:366:CB:3211, V-A:TYR:539:CG:4872, V-A:ILE:538:CG2:4863, V-A:TYR:539:CD1:4873, V-A:TYR:539:CE2:4876, V-A:PRO:540:CA:4883, V-A:TYR:539:CZ:4877, V-A:TYR:539:CD2:4874, V-A:PRO:540:CB:4885, V-A:TYR:539:CE1:4875, V-A:ILE:538:CB:4862, V-A:TYR:539:C:4867, V-A:GLU:543:CD:4908, V-A:ILE:369:CD1:3238, V-A:ILE:369:CB:3235, V-A:ARG:545:CD:4923, V-A:ARG:545:CG:4922, V-A:ARG:545:CZ:4926, V-A:ILE:538:C:4858, V-A:LEU:363:CA:3184, V-A:LEU:363:CB:3186, V-A:TYR:539:CA:4869, H-A:GLU:543:OE1:4909, H-A:GLU:543:OE2:4910, V-A:GLY:454:CA:4048, V-A:ASN:362:CB:3175, V-A:ASN:362:C:3171"]

$$$$
3ci_Grossjean_2025
     RDKit          3D

 25 27  0  0  0  0  0  0  0  0999 V2000
  129.8720  123.4890   65.1130 C   0  0  0  0  0  0  0  0  0  0  0  0
  129.7030  123.1380   63.6470 C   0  0  0  0  0  0  0  0  0  0  0  0
  130.3390  122.0360   63.0810 C   0  0  0  0  0  0  0  0  0  0  0  0
  130.1380  121.7430   61.7250 C   0  0  0  0  0  0  0  0  0  0  0  0
  130.8280  120.5420   61.1640 C   0  0  0  0  0  0  0  0  0  0  0  0
  130.2670  119.2660   61.2980 C   0  0  0  0  0  0  0  0  0  0  0  0
  130.9180  118.1490   60.7810 C   0  0  0  0  0  0  0  0  0  0  0  0
  132.1390  118.3030   60.1320 C   0  0  0  0  0  0  0  0  0  0  0  0
  132.7150  119.5640   59.9980 C   0  0  0  0  0  0  0  0  0  0  0  0
  132.0610  120.6790   60.5150 C   0  0  0  0  0  0  0  0  0  0  0  0
  129.2950  122.5960   60.9680 C   0  0  0  0  0  0  0  0  0  0  0  0
  129.0830  122.3640   59.5350 C   0  0  0  0  0  0  0  0  0  0  0  0
  128.9150  122.1790   58.4040 N   0  0  0  0  0  0  0  0  0  0  0  0
  128.6840  123.6920   61.6240 C   0  0  0  0  0  0  0  0  0  0  0  0
  127.5870  124.8180   60.7720 S   0  0  0  0  0  0  0  0  0  0  0  0
  125.8730  124.2130   60.9040 C   0  0  0  0  0  0  0  0  0  0  0  0
  125.3600  123.5530   59.6190 C   0  0  0  0  0  0  0  0  0  0  0  0
  124.1670  123.2600   59.5270 O   0  0  0  0  0  0  0  0  0  0  0  0
  126.2910  123.3240   58.6660 N   0  0  0  0  0  0  0  0  0  0  0  0
  126.0890  122.7690   57.4090 C   0  0  0  0  0  0  0  0  0  0  0  0
  125.3120  123.3790   56.4250 C   0  0  0  0  0  0  0  0  0  0  0  0
  125.3610  122.5220   55.3480 C   0  0  0  0  0  0  0  0  0  0  0  0
  126.1280  121.4530   55.6690 O   0  0  0  0  0  0  0  0  0  0  0  0
  126.5820  121.6200   56.9780 N   0  0  0  0  0  0  0  0  0  0  0  0
  128.8950  123.9560   62.9380 N   0  0  0  0  0  0  0  0  0  0  0  0
  1  2  1  0
  2  3  2  0
  3  4  1  0
  4  5  1  0
  5  6  2  0
  6  7  1  0
  7  8  2  0
  8  9  1  0
  9 10  2  0
  4 11  2  0
 11 12  1  0
 12 13  3  0
 11 14  1  0
 14 15  1  0
 15 16  1  0
 16 17  1  0
 17 18  2  0
 17 19  1  0
 19 20  1  0
 20 21  1  0
 21 22  2  0
 22 23  1  0
 23 24  1  0
 14 25  2  0
 25  2  1  0
 10  5  1  0
 24 20  2  0
M  END
>  <Binding energies>  (35) 
[-8.16]

>  <Ligand effiencies>  (35) 
[-0.31384615384615383]

>  <Interactions>  (35) 
["V-B:PRO:540:CB:9857, V-B:MET:535:CE:9807, V-A:ILE:369:CG2:3236, V-B:TYR:539:CD2:9846, V-B:PRO:540:N:9856, V-A:LEU:475:CD1:4257, V-B:PRO:540:CA:9855, H-B:TYR:539:N:9842, V-B:ALA:541:CB:9864, V-B:TYR:539:CE2:9848, V-B:MET:535:CG:9805, V-B:TYR:539:C:9839, V-B:TYR:531:CE2:9765, V-A:PRO:482:CG:4326, V-B:TYR:531:CZ:9766, V-B:LEU:363:CD1:8160, V-A:TYR:484:CZ:4346, V-B:GLU:543:CG:9879, V-B:GLU:543:CD:9880, V-A:TYR:484:CE2:4345, H-B:LEU:363:N:8157, V-A:HIS:383:CD2:3391"]

$$$$
3ck_Grossjean_2025
     RDKit          3D

 30 31  0  0  0  0  0  0  0  0999 V2000
  127.6430  129.2630   54.5640 C   0  0  0  0  0  0  0  0  0  0  0  0
  127.7810  130.5790   54.0510 O   0  0  0  0  0  0  0  0  0  0  0  0
  129.0580  131.1500   54.2940 C   0  0  0  0  0  0  0  0  0  0  0  0
  128.8930  132.4780   55.0440 C   0  0  0  0  0  0  0  0  0  0  0  0
  129.7740  132.5010   56.1600 O   0  0  0  0  0  0  0  0  0  0  0  0
  129.1400  132.2240   57.4010 C   0  0  0  0  0  0  0  0  0  0  0  0
  130.1920  131.7300   58.4020 C   0  0  0  0  0  0  0  0  0  0  0  0
  129.8730  130.3950   58.7640 O   0  0  0  0  0  0  0  0  0  0  0  0
  130.8880  129.7150   59.4880 C   0  0  0  0  0  0  0  0  0  0  0  0
  130.4050  129.4490   60.9260 C   0  0  0  0  0  0  0  0  0  0  0  0
  131.0460  128.2930   61.5590 N   0  0  0  0  0  0  0  0  0  0  0  0
  130.4660  127.1000   61.7830 C   0  0  0  0  0  0  0  0  0  0  0  0
  129.3090  126.8370   61.4470 O   0  0  0  0  0  0  0  0  0  0  0  0
  131.3470  126.0580   62.4920 C   0  0  0  0  0  0  0  0  0  0  0  0
  131.0700  124.3250   61.9880 S   0  0  0  0  0  0  0  0  0  0  0  0
  130.5770  124.2860   60.2710 C   0  0  0  0  0  0  0  0  0  0  0  0
  131.4770  124.7950   59.3920 N   0  0  0  0  0  0  0  0  0  0  0  0
  131.1680  124.8020   58.0760 C   0  0  0  0  0  0  0  0  0  0  0  0
  132.2200  125.3880   57.1550 C   0  0  0  0  0  0  0  0  0  0  0  0
  129.9620  124.3070   57.5860 C   0  0  0  0  0  0  0  0  0  0  0  0
  129.0150  123.7830   58.4760 C   0  0  0  0  0  0  0  0  0  0  0  0
  127.7270  123.2850   57.9080 C   0  0  0  0  0  0  0  0  0  0  0  0
  127.7020  122.1150   57.1390 C   0  0  0  0  0  0  0  0  0  0  0  0
  126.5050  121.6510   56.5980 C   0  0  0  0  0  0  0  0  0  0  0  0
  125.3280  122.3610   56.8190 C   0  0  0  0  0  0  0  0  0  0  0  0
  125.3380  123.5310   57.5740 C   0  0  0  0  0  0  0  0  0  0  0  0
  126.5350  123.9920   58.1140 C   0  0  0  0  0  0  0  0  0  0  0  0
  129.3320  123.7580   59.8590 C   0  0  0  0  0  0  0  0  0  0  0  0
  128.3970  123.1830   60.8320 C   0  0  0  0  0  0  0  0  0  0  0  0
  127.6590  122.7280   61.5990 N   0  0  0  0  0  0  0  0  0  0  0  0
  1  2  1  0
  2  3  1  0
  3  4  1  0
  4  5  1  0
  5  6  1  0
  6  7  1  0
  7  8  1  0
  8  9  1  0
  9 10  1  0
 10 11  1  0
 11 12  1  0
 12 13  2  0
 12 14  1  0
 14 15  1  0
 15 16  1  0
 16 17  2  0
 17 18  1  0
 18 19  1  0
 18 20  2  0
 20 21  1  0
 21 22  1  0
 22 23  2  0
 23 24  1  0
 24 25  2  0
 25 26  1  0
 26 27  2  0
 21 28  2  0
 28 29  1  0
 29 30  3  0
 28 16  1  0
 27 22  1  0
M  END
>  <Binding energies>  (36) 
[-7.13]

>  <Ligand effiencies>  (36) 
[-0.23]

>  <Interactions>  (36) 
["H-B:ALA:541:N:9863, V-B:PRO:540:CB:9857, V-B:MET:535:CE:9807, V-B:TYR:539:CD2:9846, V-B:PRO:540:N:9856, V-B:PRO:540:CA:9855, V-B:TYR:539:CE2:9848, V-B:TYR:539:C:9839, V-B:TYR:531:CE2:9765, V-B:TYR:531:CZ:9766, V-B:LEU:363:CD1:8160, V-B:TYR:539:CA:9841, V-A:ASP:366:CG:3212, V-B:PRO:540:CD:9859, V-A:PRO:540:N:4884, V-A:ILE:538:CA:4860, V-A:ASP:366:CB:3211, V-A:TYR:539:CG:4872, V-A:ILE:538:CG2:4863, V-A:TYR:539:CD1:4873, V-A:TYR:539:CE2:4876, V-A:PRO:540:CA:4883, H-A:TYR:539:N:4870, V-A:TYR:539:CZ:4877, V-A:TYR:539:CD2:4874, V-A:TYR:539:CE1:4875, V-A:ILE:538:CB:4862, V-B:TYR:531:CE1:9764, H-B:LYS:534:NZ:9795, V-A:TYR:539:C:4867, V-A:GLU:543:CD:4908, H-A:ASP:366:OD2:3214, V-B:TYR:539:CZ:9849, H-A:TYR:539:OH:4878, V-B:TYR:539:CG:9844, V-B:TYR:539:CD1:9845, V-A:ILE:538:C:4858, V-A:TYR:539:CA:4869, H-A:GLU:543:OE1:4909, H-A:GLU:543:OE2:4910, H-A:ASP:366:OD1:3213"]

$$$$
4aa_Grossjean_2025
     RDKit          3D

 26 28  0  0  0  0  0  0  0  0999 V2000
  130.8220  126.2520   67.4130 C   0  0  0  0  0  0  0  0  0  0  0  0
  132.2440  126.7410   67.1200 C   0  0  0  0  0  0  0  0  0  0  0  0
  133.0960  125.6200   66.9160 O   0  0  0  0  0  0  0  0  0  0  0  0
  133.6310  125.3590   65.6960 C   0  0  0  0  0  0  0  0  0  0  0  0
  134.8450  125.3640   65.4700 O   0  0  0  0  0  0  0  0  0  0  0  0
  132.5980  125.0660   64.6460 C   0  0  0  0  0  0  0  0  0  0  0  0
  132.4810  123.7610   64.1480 C   0  0  0  0  0  0  0  0  0  0  0  0
  131.5370  123.4590   63.1700 C   0  0  0  0  0  0  0  0  0  0  0  0
  130.6860  124.4500   62.6780 C   0  0  0  0  0  0  0  0  0  0  0  0
  129.7750  124.0360   61.6870 N   0  0  0  0  0  0  0  0  0  0  0  0
  128.7510  123.1520   61.7550 C   0  0  0  0  0  0  0  0  0  0  0  0
  128.4690  122.4960   62.7590 O   0  0  0  0  0  0  0  0  0  0  0  0
  127.9830  122.9890   60.5200 C   0  0  0  0  0  0  0  0  0  0  0  0
  128.6100  121.9910   59.2050 S   0  0  0  0  0  0  0  0  0  0  0  0
  127.2220  122.3530   58.2050 C   0  0  0  0  0  0  0  0  0  0  0  0
  127.0880  121.8520   56.9760 N   0  0  0  0  0  0  0  0  0  0  0  0
  125.9670  122.2150   56.3050 C   0  0  0  0  0  0  0  0  0  0  0  0
  125.8360  121.6380   54.9070 C   0  0  0  0  0  0  0  0  0  0  0  0
  124.9870  123.0550   56.8300 C   0  0  0  0  0  0  0  0  0  0  0  0
  125.1310  123.5770   58.1190 C   0  0  0  0  0  0  0  0  0  0  0  0
  124.0340  124.4890   58.6490 C   0  0  0  0  0  0  0  0  0  0  0  0
  126.2950  123.2230   58.8530 C   0  0  0  0  0  0  0  0  0  0  0  0
  126.7550  123.5740   60.1700 C   0  0  0  0  0  0  0  0  0  0  0  0
  126.0420  124.4050   60.9970 N   0  0  0  0  0  0  0  0  0  0  0  0
  130.7990  125.7590   63.1670 C   0  0  0  0  0  0  0  0  0  0  0  0
  131.7470  126.0610   64.1430 C   0  0  0  0  0  0  0  0  0  0  0  0
  1  2  1  0
  2  3  1  0
  3  4  1  0
  4  5  2  0
  4  6  1  0
  6  7  2  0
  7  8  1  0
  8  9  2  0
  9 10  1  0
 10 11  1  0
 11 12  2  0
 11 13  1  0
 13 14  1  0
 14 15  1  0
 15 16  2  0
 16 17  1  0
 17 18  1  0
 17 19  2  0
 19 20  1  0
 20 21  1  0
 20 22  2  0
 22 23  1  0
 23 24  1  0
  9 25  1  0
 25 26  2  0
 26  6  1  0
 23 13  2  0
 22 15  1  0
M  END
>  <Binding energies>  (37) 
[-7.36]

>  <Ligand effiencies>  (37) 
[-0.2537931034482759]

>  <Interactions>  (37) 
["H-B:ALA:541:N:9863, V-B:PRO:540:CB:9857, V-B:MET:535:CE:9807, V-B:TYR:539:CD2:9846, V-B:PRO:540:N:9856, V-B:PRO:540:CA:9855, H-B:TYR:539:N:9842, V-B:TYR:539:CE2:9848, V-B:MET:535:CG:9805, V-B:TYR:539:C:9839, V-B:TYR:531:CE2:9765, V-B:LEU:363:CD1:8160, H-A:TYR:484:OH:4347, H-A:GLY:454:N:4049, V-B:PRO:540:CD:9859, V-B:ASP:366:CG:8184, V-B:ASP:366:CB:8183, V-A:GLU:543:CD:4908, V-B:LEU:363:CA:8156, V-A:HIS:456:CE1:4069, V-A:ARG:545:CD:4923, H-B:GLU:543:OE1:9881, H-B:GLU:543:OE2:9882, H-A:ARG:545:NE:4924, V-A:ARG:545:CG:4922, V-A:ARG:545:CZ:4926, H-A:ARG:545:NH1:4927, V-B:ILE:538:CA:9832, V-B:ILE:538:CG1:9836, V-B:ILE:538:CG2:9835, H-B:ASP:366:OD1:8185, V-B:ILE:538:C:9830, V-B:ILE:538:CB:9834, V-A:GLY:454:CA:4048, V-B:MET:535:CB:9804, V-B:LEU:363:CB:8158"]

$$$$
4ab_Grossjean_2025
     RDKit          3D

 25 27  0  0  0  0  0  0  0  0999 V2000
  124.6610  124.5560   57.6960 C   0  0  0  0  0  0  0  0  0  0  0  0
  125.3370  123.7940   56.7060 O   0  0  0  0  0  0  0  0  0  0  0  0
  126.1430  122.7580   57.0510 C   0  0  0  0  0  0  0  0  0  0  0  0
  126.0910  121.6460   56.5140 O   0  0  0  0  0  0  0  0  0  0  0  0
  127.1020  123.0950   58.1560 C   0  0  0  0  0  0  0  0  0  0  0  0
  126.6150  123.2370   59.4630 C   0  0  0  0  0  0  0  0  0  0  0  0
  127.4790  123.5510   60.5090 C   0  0  0  0  0  0  0  0  0  0  0  0
  128.8430  123.7210   60.2740 C   0  0  0  0  0  0  0  0  0  0  0  0
  129.6210  124.0440   61.4020 N   0  0  0  0  0  0  0  0  0  0  0  0
  129.4120  123.7740   62.7140 C   0  0  0  0  0  0  0  0  0  0  0  0
  128.4170  123.1960   63.1520 O   0  0  0  0  0  0  0  0  0  0  0  0
  130.4610  124.2430   63.6220 C   0  0  0  0  0  0  0  0  0  0  0  0
  132.1340  123.7290   63.3910 S   0  0  0  0  0  0  0  0  0  0  0  0
  132.6540  124.6250   64.8000 C   0  0  0  0  0  0  0  0  0  0  0  0
  133.9270  124.6420   65.1970 N   0  0  0  0  0  0  0  0  0  0  0  0
  134.1960  125.3730   66.3050 C   0  0  0  0  0  0  0  0  0  0  0  0
  135.6490  125.3740   66.7430 C   0  0  0  0  0  0  0  0  0  0  0  0
  133.2320  126.0840   67.0180 C   0  0  0  0  0  0  0  0  0  0  0  0
  131.8970  126.0640   66.5990 C   0  0  0  0  0  0  0  0  0  0  0  0
  130.8820  126.8550   67.4100 C   0  0  0  0  0  0  0  0  0  0  0  0
  131.5750  125.3050   65.4420 C   0  0  0  0  0  0  0  0  0  0  0  0
  130.3360  125.0640   64.7530 C   0  0  0  0  0  0  0  0  0  0  0  0
  129.1460  125.6020   65.1770 N   0  0  0  0  0  0  0  0  0  0  0  0
  129.3390  123.5860   58.9680 C   0  0  0  0  0  0  0  0  0  0  0  0
  128.4740  123.2740   57.9230 C   0  0  0  0  0  0  0  0  0  0  0  0
  1  2  1  0
  2  3  1  0
  3  4  2  0
  3  5  1  0
  5  6  2  0
  6  7  1  0
  7  8  2  0
  8  9  1  0
  9 10  1  0
 10 11  2  0
 10 12  1  0
 12 13  1  0
 13 14  1  0
 14 15  2  0
 15 16  1  0
 16 17  1  0
 16 18  2  0
 18 19  1  0
 19 20  1  0
 19 21  2  0
 21 22  1  0
 22 23  1  0
  8 24  1  0
 24 25  2  0
 25  5  1  0
 22 12  2  0
 21 14  1  0
M  END
>  <Binding energies>  (38) 
[-7.46]

>  <Ligand effiencies>  (38) 
[-0.2664285714285714]

>  <Interactions>  (38) 
["V-B:PRO:540:CB:9857, H-B:TYR:531:OH:9767, V-B:MET:535:CE:9807, V-B:PRO:540:N:9856, V-B:PRO:540:CA:9855, H-B:TYR:539:N:9842, V-B:TYR:539:CE2:9848, V-B:TYR:531:CE2:9765, V-B:TYR:531:CZ:9766, V-B:LEU:363:CD1:8160, H-A:TYR:484:OH:4347, H-A:GLY:454:N:4049, V-B:ASP:366:CB:8183, V-A:GLU:543:CD:4908, V-A:HIS:456:CE1:4069, V-B:GLU:543:CB:9878, V-A:ARG:545:CD:4923, V-A:ILE:455:C:4051, V-B:GLU:543:CG:9879, H-B:GLU:543:OE1:9881, V-B:GLU:543:CD:9880, H-B:GLU:543:OE2:9882, V-A:ARG:545:CG:4922, V-A:ARG:545:CZ:4926, V-A:GLU:543:CB:4906, H-A:GLU:543:OE1:4909, V-A:GLY:454:CA:4048, V-A:GLY:453:CA:4043, V-A:GLY:453:C:4041, V-A:GLY:454:C:4046, V-A:ILE:455:CA:4053, V-A:ARG:545:CB:4921, V-A:VAL:452:CG2:4039"]

$$$$
4ac_Grossjean_2025
     RDKit          3D

 23 25  0  0  0  0  0  0  0  0999 V2000
  133.8330  125.3830   66.6950 C   0  0  0  0  0  0  0  0  0  0  0  0
  134.0460  125.3270   65.2890 O   0  0  0  0  0  0  0  0  0  0  0  0
  132.9900  125.0060   64.4590 C   0  0  0  0  0  0  0  0  0  0  0  0
  133.3170  124.4760   63.2110 C   0  0  0  0  0  0  0  0  0  0  0  0
  132.3190  124.1230   62.3070 C   0  0  0  0  0  0  0  0  0  0  0  0
  130.9750  124.2860   62.6450 C   0  0  0  0  0  0  0  0  0  0  0  0
  130.0370  123.9140   61.6640 N   0  0  0  0  0  0  0  0  0  0  0  0
  128.9580  123.1040   61.7740 C   0  0  0  0  0  0  0  0  0  0  0  0
  128.6420  122.5130   62.8090 O   0  0  0  0  0  0  0  0  0  0  0  0
  128.1590  122.9520   60.5550 C   0  0  0  0  0  0  0  0  0  0  0  0
  128.7880  122.0360   59.1850 S   0  0  0  0  0  0  0  0  0  0  0  0
  127.3370  122.3390   58.2560 C   0  0  0  0  0  0  0  0  0  0  0  0
  127.1800  121.8670   57.0180 N   0  0  0  0  0  0  0  0  0  0  0  0
  126.0090  122.1740   56.4090 C   0  0  0  0  0  0  0  0  0  0  0  0
  125.8500  121.6280   55.0020 C   0  0  0  0  0  0  0  0  0  0  0  0
  125.0030  122.9360   57.0010 C   0  0  0  0  0  0  0  0  0  0  0  0
  125.1720  123.4300   58.2990 C   0  0  0  0  0  0  0  0  0  0  0  0
  124.0460  124.2560   58.9020 C   0  0  0  0  0  0  0  0  0  0  0  0
  126.3860  123.1260   58.9710 C   0  0  0  0  0  0  0  0  0  0  0  0
  126.8790  123.4600   60.2800 C   0  0  0  0  0  0  0  0  0  0  0  0
  126.1500  124.2120   61.1670 N   0  0  0  0  0  0  0  0  0  0  0  0
  130.6370  124.8300   63.8930 C   0  0  0  0  0  0  0  0  0  0  0  0
  131.6390  125.1830   64.7940 C   0  0  0  0  0  0  0  0  0  0  0  0
  1  2  1  0
  2  3  1  0
  3  4  2  0
  4  5  1  0
  5  6  2  0
  6  7  1  0
  7  8  1  0
  8  9  2  0
  8 10  1  0
 10 11  1  0
 11 12  1  0
 12 13  2  0
 13 14  1  0
 14 15  1  0
 14 16  2  0
 16 17  1  0
 17 18  1  0
 17 19  2  0
 19 20  1  0
 20 21  1  0
  6 22  1  0
 22 23  2  0
 23  3  1  0
 20 10  2  0
 19 12  1  0
M  END
>  <Binding energies>  (39) 
[-7.29]

>  <Ligand effiencies>  (39) 
[-0.2803846153846154]

>  <Interactions>  (39) 
["H-B:ALA:541:N:9863, V-B:PRO:540:CB:9857, V-B:MET:535:CE:9807, V-B:TYR:539:CD2:9846, V-B:PRO:540:N:9856, V-B:PRO:540:CA:9855, H-B:TYR:539:N:9842, V-B:TYR:539:CE2:9848, V-B:MET:535:CG:9805, V-B:TYR:539:C:9839, V-B:TYR:531:CE2:9765, V-B:LEU:363:CD1:8160, H-A:TYR:484:OH:4347, H-A:GLY:454:N:4049, V-B:PRO:540:CD:9859, V-B:ASP:366:CG:8184, V-B:ASP:366:CB:8183, V-B:LEU:363:CA:8156, H-A:ARG:545:NH2:4928, V-A:TYR:484:CZ:4346, V-A:ARG:545:CD:4923, H-B:GLU:543:OE1:9881, V-B:GLU:543:CD:9880, H-B:GLU:543:OE2:9882, H-A:ARG:545:NE:4924, V-A:ARG:545:CG:4922, V-A:ARG:545:CZ:4926, H-A:ARG:545:NH1:4927, V-B:ILE:538:CA:9832, V-B:ILE:538:CG1:9836, V-B:ILE:538:CG2:9835, H-B:ASP:366:OD1:8185, V-B:ILE:538:C:9830, V-B:ILE:538:CB:9834, V-B:LEU:363:CB:8158"]

$$$$
4ad_Grossjean_2025
     RDKit          3D

 21 23  0  0  0  0  0  0  0  0999 V2000
  130.2550  132.1250   54.7640 C   0  0  0  0  0  0  0  0  0  0  0  0
  130.5050  131.7860   56.2210 C   0  0  0  0  0  0  0  0  0  0  0  0
  131.7430  131.3080   56.6450 C   0  0  0  0  0  0  0  0  0  0  0  0
  131.9510  131.0000   57.9950 C   0  0  0  0  0  0  0  0  0  0  0  0
  133.3180  130.4780   58.4080 C   0  0  0  0  0  0  0  0  0  0  0  0
  130.8660  131.1920   58.8930 C   0  0  0  0  0  0  0  0  0  0  0  0
  130.7310  130.9840   60.3090 C   0  0  0  0  0  0  0  0  0  0  0  0
  131.7660  130.5170   61.0810 N   0  0  0  0  0  0  0  0  0  0  0  0
  129.4610  131.3020   60.8150 C   0  0  0  0  0  0  0  0  0  0  0  0
  128.9750  131.1960   62.1920 C   0  0  0  0  0  0  0  0  0  0  0  0
  129.5830  131.7400   63.1160 O   0  0  0  0  0  0  0  0  0  0  0  0
  127.8330  130.4820   62.3520 N   0  0  0  0  0  0  0  0  0  0  0  0
  127.1370  130.1600   63.5330 C   0  0  0  0  0  0  0  0  0  0  0  0
  125.7820  129.8520   63.3780 C   0  0  0  0  0  0  0  0  0  0  0  0
  125.0090  129.5100   64.4850 C   0  0  0  0  0  0  0  0  0  0  0  0
  125.5940  129.4670   65.7480 C   0  0  0  0  0  0  0  0  0  0  0  0
  126.9460  129.7580   65.9130 C   0  0  0  0  0  0  0  0  0  0  0  0
  127.7210  130.1020   64.8080 C   0  0  0  0  0  0  0  0  0  0  0  0
  128.3920  131.8770   59.5340 S   0  0  0  0  0  0  0  0  0  0  0  0
  129.6490  131.6870   58.3340 C   0  0  0  0  0  0  0  0  0  0  0  0
  129.4500  131.9820   57.0480 N   0  0  0  0  0  0  0  0  0  0  0  0
  1  2  1  0
  2  3  2  0
  3  4  1  0
  4  5  1  0
  4  6  2  0
  6  7  1  0
  7  8  1  0
  7  9  2  0
  9 10  1  0
 10 11  2  0
 10 12  1  0
 12 13  1  0
 13 14  2  0
 14 15  1  0
 15 16  2  0
 16 17  1  0
 17 18  2  0
  9 19  1  0
 19 20  1  0
 20 21  2  0
 21  2  1  0
 20  6  1  0
 18 13  1  0
M  END
>  <Binding energies>  (40) 
[-6.81]

>  <Ligand effiencies>  (40) 
[-0.28375]

>  <Interactions>  (40) 
["V-A:ASP:366:CG:3212, V-A:PRO:540:N:4884, V-A:ILE:538:CA:4860, V-A:ASP:366:CB:3211, V-A:ILE:538:CG2:4863, V-A:TYR:539:CD1:4873, V-A:PRO:540:CA:4883, H-A:TYR:539:N:4870, V-A:PRO:540:CB:4885, V-A:TYR:539:CE1:4875, V-A:ILE:538:CB:4862, V-B:ARG:545:CZ:9898, V-A:ALA:541:CB:4892, V-A:TYR:539:C:4867, V-A:LEU:363:CD1:3188, V-A:GLU:543:CG:4907, V-A:GLU:543:CD:4908, H-A:ASP:366:OD2:3214, V-A:ILE:538:C:4858, H-A:ALA:541:N:4891, V-A:LEU:363:CA:3184, V-B:TYR:484:CZ:9318, V-B:TYR:484:CE2:9317, H-A:GLU:543:OE2:4910"]

$$$$
4ae_Grossjean_2025
     RDKit          3D

 22 24  0  0  0  0  0  0  0  0999 V2000
  128.0130  129.4900   67.1770 C   0  0  0  0  0  0  0  0  0  0  0  0
  127.2180  129.6540   65.8970 C   0  0  0  0  0  0  0  0  0  0  0  0
  125.8310  129.4830   65.8700 C   0  0  0  0  0  0  0  0  0  0  0  0
  125.1670  129.6430   64.6540 C   0  0  0  0  0  0  0  0  0  0  0  0
  125.8950  129.9640   63.5060 C   0  0  0  0  0  0  0  0  0  0  0  0
  127.2810  130.1290   63.6050 C   0  0  0  0  0  0  0  0  0  0  0  0
  127.9620  130.4320   62.4130 N   0  0  0  0  0  0  0  0  0  0  0  0
  129.0750  131.1880   62.2410 C   0  0  0  0  0  0  0  0  0  0  0  0
  129.6710  131.7500   63.1610 O   0  0  0  0  0  0  0  0  0  0  0  0
  129.5430  131.3080   60.8580 C   0  0  0  0  0  0  0  0  0  0  0  0
  128.4560  131.8900   59.5970 S   0  0  0  0  0  0  0  0  0  0  0  0
  129.6910  131.6970   58.3750 C   0  0  0  0  0  0  0  0  0  0  0  0
  129.4690  131.9910   57.0940 N   0  0  0  0  0  0  0  0  0  0  0  0
  130.5080  131.7910   56.2480 C   0  0  0  0  0  0  0  0  0  0  0  0
  130.2310  132.1260   54.7940 C   0  0  0  0  0  0  0  0  0  0  0  0
  131.7530  131.3110   56.6500 C   0  0  0  0  0  0  0  0  0  0  0  0
  131.9830  131.0040   57.9960 C   0  0  0  0  0  0  0  0  0  0  0  0
  133.3570  130.4800   58.3850 C   0  0  0  0  0  0  0  0  0  0  0  0
  130.9160  131.1990   58.9130 C   0  0  0  0  0  0  0  0  0  0  0  0
  130.8050  130.9880   60.3320 C   0  0  0  0  0  0  0  0  0  0  0  0
  131.8490  130.5140   61.0860 N   0  0  0  0  0  0  0  0  0  0  0  0
  127.9390  129.9680   64.7910 N   0  0  0  0  0  0  0  0  0  0  0  0
  1  2  1  0
  2  3  2  0
  3  4  1  0
  4  5  2  0
  5  6  1  0
  6  7  1  0
  7  8  1  0
  8  9  2  0
  8 10  1  0
 10 11  1  0
 11 12  1  0
 12 13  2  0
 13 14  1  0
 14 15  1  0
 14 16  2  0
 16 17  1  0
 17 18  1  0
 17 19  2  0
 19 20  1  0
 20 21  1  0
  6 22  2  0
 22  2  1  0
 20 10  2  0
 19 12  1  0
M  END
>  <Binding energies>  (41) 
[-6.99]

>  <Ligand effiencies>  (41) 
[-0.2796]

>  <Interactions>  (41) 
["V-A:ASP:366:CG:3212, V-A:PRO:540:N:4884, V-A:ILE:538:CA:4860, V-A:ASP:366:CB:3211, V-A:ILE:538:CG2:4863, V-A:TYR:539:CD1:4873, V-A:PRO:540:CA:4883, H-A:TYR:539:N:4870, V-A:PRO:540:CB:4885, V-A:TYR:539:CE1:4875, V-A:ILE:538:CB:4862, V-B:ARG:545:CZ:9898, V-A:ALA:541:CB:4892, V-A:TYR:539:C:4867, V-A:LEU:363:CD1:3188, V-A:GLU:543:CG:4907, V-A:GLU:543:CD:4908, H-A:ASP:366:OD2:3214, V-B:HIS:456:CE1:9041, V-A:GLU:543:CB:4906, V-A:ILE:538:C:4858, H-A:ALA:541:N:4891, V-A:LEU:363:CA:3184, V-B:TYR:484:CE2:9317, H-A:GLU:543:OE2:4910, H-A:ALA:541:O:4889"]

$$$$
4af_Grossjean_2025
     RDKit          3D

 21 23  0  0  0  0  0  0  0  0999 V2000
  130.2370  132.1210   54.8400 C   0  0  0  0  0  0  0  0  0  0  0  0
  130.4600  131.7920   56.3050 C   0  0  0  0  0  0  0  0  0  0  0  0
  131.7090  131.3800   56.7650 C   0  0  0  0  0  0  0  0  0  0  0  0
  131.8910  131.0790   58.1210 C   0  0  0  0  0  0  0  0  0  0  0  0
  133.2710  130.6320   58.5750 C   0  0  0  0  0  0  0  0  0  0  0  0
  130.7700  131.2080   58.9850 C   0  0  0  0  0  0  0  0  0  0  0  0
  130.6020  130.9840   60.3960 C   0  0  0  0  0  0  0  0  0  0  0  0
  131.6340  130.5650   61.1980 N   0  0  0  0  0  0  0  0  0  0  0  0
  129.3020  131.2330   60.8630 C   0  0  0  0  0  0  0  0  0  0  0  0
  128.7770  131.0810   62.2210 C   0  0  0  0  0  0  0  0  0  0  0  0
  129.4130  131.4980   63.1900 O   0  0  0  0  0  0  0  0  0  0  0  0
  127.5670  130.4770   62.3100 N   0  0  0  0  0  0  0  0  0  0  0  0
  126.8160  130.1400   63.4520 C   0  0  0  0  0  0  0  0  0  0  0  0
  127.3020  129.4340   64.5680 C   0  0  0  0  0  0  0  0  0  0  0  0
  126.4440  129.1480   65.6320 C   0  0  0  0  0  0  0  0  0  0  0  0
  125.1160  129.5710   65.5520 C   0  0  0  0  0  0  0  0  0  0  0  0
  124.6210  130.2460   64.4840 N   0  0  0  0  0  0  0  0  0  0  0  0
  125.4670  130.5160   63.4580 C   0  0  0  0  0  0  0  0  0  0  0  0
  128.2430  131.7540   59.5500 S   0  0  0  0  0  0  0  0  0  0  0  0
  129.5460  131.6380   58.3890 C   0  0  0  0  0  0  0  0  0  0  0  0
  129.3700  131.9270   57.0990 N   0  0  0  0  0  0  0  0  0  0  0  0
  1  2  1  0
  2  3  2  0
  3  4  1  0
  4  5  1  0
  4  6  2  0
  6  7  1  0
  7  8  1  0
  7  9  2  0
  9 10  1  0
 10 11  2  0
 10 12  1  0
 12 13  1  0
 13 14  2  0
 14 15  1  0
 15 16  2  0
 16 17  1  0
 17 18  2  0
  9 19  1  0
 19 20  1  0
 20 21  2  0
 21  2  1  0
 20  6  1  0
 18 13  1  0
M  END
>  <Binding energies>  (42) 
[-6.8]

>  <Ligand effiencies>  (42) 
[-0.2833333333333333]

>  <Interactions>  (42) 
["V-A:ASP:366:CG:3212, V-A:PRO:540:N:4884, V-A:ILE:538:CA:4860, V-A:ASP:366:CB:3211, V-A:ILE:538:CG2:4863, V-A:TYR:539:CD1:4873, V-A:PRO:540:CA:4883, V-A:PRO:540:CB:4885, V-A:TYR:539:CE1:4875, V-A:ILE:538:CB:4862, H-B:GLY:454:N:9021, V-B:ARG:545:CZ:9898, V-A:ALA:541:CB:4892, V-A:TYR:539:C:4867, V-A:LEU:363:CD1:3188, V-A:GLU:543:CD:4908, H-B:TYR:484:OH:9319, H-A:ASP:366:OD2:3214, V-A:ILE:538:C:4858, H-A:ALA:541:N:4891, V-A:LEU:363:CA:3184, H-A:GLU:543:OE2:4910, H-A:ALA:541:O:4889"]

$$$$
4ag_Grossjean_2025
     RDKit          3D

 22 24  0  0  0  0  0  0  0  0999 V2000
  129.8650  131.7490   54.4340 C   0  0  0  0  0  0  0  0  0  0  0  0
  130.1710  131.5200   55.9020 C   0  0  0  0  0  0  0  0  0  0  0  0
  131.3310  130.8560   56.2980 C   0  0  0  0  0  0  0  0  0  0  0  0
  131.5950  130.6570   57.6570 C   0  0  0  0  0  0  0  0  0  0  0  0
  132.8740  129.9270   58.0390 C   0  0  0  0  0  0  0  0  0  0  0  0
  130.6490  131.1510   58.5950 C   0  0  0  0  0  0  0  0  0  0  0  0
  130.6030  131.1220   60.0320 C   0  0  0  0  0  0  0  0  0  0  0  0
  131.5930  130.5420   60.7860 N   0  0  0  0  0  0  0  0  0  0  0  0
  129.4650  131.7330   60.5780 C   0  0  0  0  0  0  0  0  0  0  0  0
  129.1060  131.8920   61.9870 C   0  0  0  0  0  0  0  0  0  0  0  0
  129.9360  131.7260   62.8840 O   0  0  0  0  0  0  0  0  0  0  0  0
  127.8190  132.2100   62.2400 N   0  0  0  0  0  0  0  0  0  0  0  0
  127.2480  132.4410   63.5660 C   0  0  0  0  0  0  0  0  0  0  0  0
  126.7210  131.1810   64.2420 C   0  0  0  0  0  0  0  0  0  0  0  0
  127.4500  130.5900   65.2780 C   0  0  0  0  0  0  0  0  0  0  0  0
  126.9590  129.4530   65.9140 C   0  0  0  0  0  0  0  0  0  0  0  0
  125.7340  128.9160   65.5190 C   0  0  0  0  0  0  0  0  0  0  0  0
  124.9950  129.5090   64.4990 C   0  0  0  0  0  0  0  0  0  0  0  0
  125.4860  130.6460   63.8630 C   0  0  0  0  0  0  0  0  0  0  0  0
  128.4160  132.3760   59.3140 S   0  0  0  0  0  0  0  0  0  0  0  0
  129.5020  131.8140   58.0630 C   0  0  0  0  0  0  0  0  0  0  0  0
  129.2490  132.0060   56.7680 N   0  0  0  0  0  0  0  0  0  0  0  0
  1  2  1  0
  2  3  2  0
  3  4  1  0
  4  5  1  0
  4  6  2  0
  6  7  1  0
  7  8  1  0
  7  9  2  0
  9 10  1  0
 10 11  2  0
 10 12  1  0
 12 13  1  0
 13 14  1  0
 14 15  2  0
 15 16  1  0
 16 17  2  0
 17 18  1  0
 18 19  2  0
  9 20  1  0
 20 21  1  0
 21 22  2  0
 22  2  1  0
 21  6  1  0
 19 14  1  0
M  END
>  <Binding energies>  (43) 
[-6.84]

>  <Ligand effiencies>  (43) 
[-0.2736]

>  <Interactions>  (43) 
["V-A:ASP:366:CG:3212, V-A:PRO:540:N:4884, V-A:ILE:538:CA:4860, V-A:ASP:366:CB:3211, V-A:ILE:538:CG2:4863, V-A:TYR:539:CD1:4873, V-A:PRO:540:CA:4883, H-A:TYR:539:N:4870, V-A:TYR:539:CE1:4875, V-A:ILE:538:CB:4862, V-B:ARG:545:CZ:9898, V-A:ALA:541:CB:4892, V-A:TYR:539:C:4867, V-A:LEU:363:CD1:3188, V-A:GLU:543:CG:4907, V-A:GLU:543:CD:4908, H-A:ASP:366:OD2:3214, H-A:ALA:541:N:4891, V-B:LEU:475:CD1:9229, V-B:TYR:484:CE2:9317, H-A:GLU:543:OE2:4910, V-A:ALA:541:CA:4890"]

$$$$
4ah_Grossjean_2025
     RDKit          3D

 28 30  0  0  0  0  0  0  0  0999 V2000
  128.8460  132.0390   54.8800 C   0  0  0  0  0  0  0  0  0  0  0  0
  129.4950  132.7760   55.9100 O   0  0  0  0  0  0  0  0  0  0  0  0
  129.9150  132.1190   57.0530 C   0  0  0  0  0  0  0  0  0  0  0  0
  129.0430  131.5500   57.9950 C   0  0  0  0  0  0  0  0  0  0  0  0
  129.5380  130.9030   59.1280 C   0  0  0  0  0  0  0  0  0  0  0  0
  128.5780  130.2510   60.1160 C   0  0  0  0  0  0  0  0  0  0  0  0
  128.0250  128.9810   59.6440 N   0  0  0  0  0  0  0  0  0  0  0  0
  128.5010  127.7580   59.9570 C   0  0  0  0  0  0  0  0  0  0  0  0
  129.4990  127.5920   60.6600 O   0  0  0  0  0  0  0  0  0  0  0  0
  127.7850  126.6240   59.3730 C   0  0  0  0  0  0  0  0  0  0  0  0
  128.0430  126.1860   57.6840 S   0  0  0  0  0  0  0  0  0  0  0  0
  126.8770  124.8870   57.7960 C   0  0  0  0  0  0  0  0  0  0  0  0
  126.5960  124.1000   56.7570 N   0  0  0  0  0  0  0  0  0  0  0  0
  125.6760  123.1300   56.9770 C   0  0  0  0  0  0  0  0  0  0  0  0
  125.3680  122.2470   55.7820 C   0  0  0  0  0  0  0  0  0  0  0  0
  125.0380  122.9300   58.1990 C   0  0  0  0  0  0  0  0  0  0  0  0
  125.3340  123.7590   59.2880 C   0  0  0  0  0  0  0  0  0  0  0  0
  124.6110  123.5010   60.6020 C   0  0  0  0  0  0  0  0  0  0  0  0
  126.2930  124.7890   59.0950 C   0  0  0  0  0  0  0  0  0  0  0  0
  126.8200  125.8000   59.9720 C   0  0  0  0  0  0  0  0  0  0  0  0
  126.4110  125.9270   61.2750 N   0  0  0  0  0  0  0  0  0  0  0  0
  130.9180  130.7960   59.3110 C   0  0  0  0  0  0  0  0  0  0  0  0
  131.8130  131.3590   58.3890 C   0  0  0  0  0  0  0  0  0  0  0  0
  133.1890  131.3040   58.5160 O   0  0  0  0  0  0  0  0  0  0  0  0
  133.7610  130.9860   59.7800 C   0  0  0  0  0  0  0  0  0  0  0  0
  131.2980  132.0240   57.2670 C   0  0  0  0  0  0  0  0  0  0  0  0
  132.1630  132.5640   56.3450 O   0  0  0  0  0  0  0  0  0  0  0  0
  132.2890  131.8020   55.1530 C   0  0  0  0  0  0  0  0  0  0  0  0
  1  2  1  0
  2  3  1  0
  3  4  2  0
  4  5  1  0
  5  6  1  0
  6  7  1  0
  7  8  1  0
  8  9  2  0
  8 10  1  0
 10 11  1  0
 11 12  1  0
 12 13  2  0
 13 14  1  0
 14 15  1  0
 14 16  2  0
 16 17  1  0
 17 18  1  0
 17 19  2  0
 19 20  1  0
 20 21  1  0
  5 22  2  0
 22 23  1  0
 23 24  1  0
 24 25  1  0
 23 26  2  0
 26 27  1  0
 27 28  1  0
 26  3  1  0
 20 10  2  0
 19 12  1  0
M  END
>  <Binding energies>  (44) 
[-6.71]

>  <Ligand effiencies>  (44) 
[-0.21645161290322582]

>  <Interactions>  (44) 
["V-B:PRO:540:CB:9857, H-B:TYR:531:OH:9767, V-B:MET:535:CE:9807, V-B:PRO:540:N:9856, V-B:PRO:540:CA:9855, V-B:MET:535:CG:9805, V-B:TYR:531:CE2:9765, V-B:LEU:363:CD1:8160, V-A:ASP:366:CG:3212, V-A:PRO:540:N:4884, V-A:ILE:538:CA:4860, V-A:ILE:538:CG2:4863, V-A:TYR:539:CD1:4873, V-A:TYR:539:CE2:4876, V-A:PRO:540:CA:4883, H-A:TYR:539:N:4870, V-A:TYR:539:CZ:4877, V-A:TYR:539:CD2:4874, V-A:PRO:540:CB:4885, V-A:TYR:539:CE1:4875, V-A:TYR:531:CZ:4794, V-A:ILE:538:CB:4862, V-B:ASP:366:CG:8184, V-A:PRO:540:CD:4887, V-A:TYR:539:C:4867, V-A:LEU:363:CD1:3188, H-B:GLU:543:OE1:9881, H-B:GLU:543:OE2:9882, V-A:TYR:531:CE2:4793, V-A:LEU:363:CA:3184, V-A:LEU:363:CB:3186, H-B:ASP:366:OD2:8186, V-B:ILE:538:CG2:9835, V-B:PRO:540:CG:9858, H-B:ASP:366:OD1:8185, V-A:ASN:362:CB:3175, V-A:ASN:362:C:3171"]

$$$$
4ai_Grossjean_2025
     RDKit          3D

 20 22  0  0  0  0  0  0  0  0999 V2000
  135.5300  124.3080   61.9170 C   0  0  0  0  0  0  0  0  0  0  0  0
  134.3450  123.4390   61.5370 C   0  0  0  0  0  0  0  0  0  0  0  0
  134.3960  122.0540   61.6820 C   0  0  0  0  0  0  0  0  0  0  0  0
  133.2890  121.2720   61.3320 C   0  0  0  0  0  0  0  0  0  0  0  0
  133.3920  119.7650   61.5110 C   0  0  0  0  0  0  0  0  0  0  0  0
  132.1370  121.9390   60.8320 C   0  0  0  0  0  0  0  0  0  0  0  0
  130.8560  121.4600   60.3880 C   0  0  0  0  0  0  0  0  0  0  0  0
  130.5360  120.1260   60.3810 N   0  0  0  0  0  0  0  0  0  0  0  0
  129.9790  122.4760   59.9760 C   0  0  0  0  0  0  0  0  0  0  0  0
  128.6140  122.3470   59.4610 C   0  0  0  0  0  0  0  0  0  0  0  0
  127.6580  122.2460   60.2320 O   0  0  0  0  0  0  0  0  0  0  0  0
  128.4990  122.3660   58.1090 N   0  0  0  0  0  0  0  0  0  0  0  0
  127.3340  122.2730   57.3600 C   0  0  0  0  0  0  0  0  0  0  0  0
  126.3440  123.2560   57.3650 C   0  0  0  0  0  0  0  0  0  0  0  0
  125.3720  122.7900   56.5100 C   0  0  0  0  0  0  0  0  0  0  0  0
  125.7560  121.5900   56.0150 O   0  0  0  0  0  0  0  0  0  0  0  0
  127.0010  121.2730   56.5590 N   0  0  0  0  0  0  0  0  0  0  0  0
  130.7370  124.0640   60.1070 S   0  0  0  0  0  0  0  0  0  0  0  0
  132.2130  123.3610   60.7310 C   0  0  0  0  0  0  0  0  0  0  0  0
  133.2660  124.1090   61.0630 N   0  0  0  0  0  0  0  0  0  0  0  0
  1  2  1  0
  2  3  2  0
  3  4  1  0
  4  5  1  0
  4  6  2  0
  6  7  1  0
  7  8  1  0
  7  9  2  0
  9 10  1  0
 10 11  2  0
 10 12  1  0
 12 13  1  0
 13 14  1  0
 14 15  2  0
 15 16  1  0
 16 17  1  0
  9 18  1  0
 18 19  1  0
 19 20  2  0
 20  2  1  0
 19  6  1  0
 17 13  2  0
M  END
>  <Binding energies>  (45) 
[-6.79]

>  <Ligand effiencies>  (45) 
[-0.2952173913043478]

>  <Interactions>  (45) 
["H-B:ALA:541:N:9863, V-B:MET:535:CE:9807, V-A:ILE:369:CG2:3236, V-B:TYR:539:CD2:9846, V-B:PRO:540:N:9856, V-A:LEU:475:CD1:4257, V-B:PRO:540:CA:9855, H-B:TYR:539:N:9842, V-B:TYR:539:CE2:9848, V-B:TYR:539:C:9839, V-B:TYR:531:CE2:9765, V-B:LEU:363:CD1:8160, V-A:ASP:366:CG:3212, H-B:TYR:539:OH:9850, V-A:ILE:369:CD1:3238, V-B:TYR:539:CZ:9849, H-B:TYR:539:O:9840, V-A:SER:385:C:3404, V-B:TYR:539:CG:9844, V-A:GLY:454:CA:4048, V-A:GLY:453:CA:4043, V-A:GLY:453:C:4041"]

$$$$
4aj_Grossjean_2025
     RDKit          3D

 20 22  0  0  0  0  0  0  0  0999 V2000
  129.5080  132.1220   54.2910 C   0  0  0  0  0  0  0  0  0  0  0  0
  129.9730  131.7850   55.6960 C   0  0  0  0  0  0  0  0  0  0  0  0
  131.2200  131.2050   55.9180 C   0  0  0  0  0  0  0  0  0  0  0  0
  131.6260  130.8980   57.2220 C   0  0  0  0  0  0  0  0  0  0  0  0
  132.9960  130.2660   57.4130 C   0  0  0  0  0  0  0  0  0  0  0  0
  130.7320  131.1990   58.2840 C   0  0  0  0  0  0  0  0  0  0  0  0
  130.8240  131.0210   59.7080 C   0  0  0  0  0  0  0  0  0  0  0  0
  131.9240  130.4640   60.3070 N   0  0  0  0  0  0  0  0  0  0  0  0
  129.6960  131.4720   60.4120 C   0  0  0  0  0  0  0  0  0  0  0  0
  129.4490  131.4360   61.8550 C   0  0  0  0  0  0  0  0  0  0  0  0
  130.3340  131.7500   62.6540 O   0  0  0  0  0  0  0  0  0  0  0  0
  128.2010  131.0530   62.2220 N   0  0  0  0  0  0  0  0  0  0  0  0
  127.7080  130.9470   63.5160 C   0  0  0  0  0  0  0  0  0  0  0  0
  127.9150  131.7620   64.5280 N   0  0  0  0  0  0  0  0  0  0  0  0
  127.2860  131.3560   65.6140 C   0  0  0  0  0  0  0  0  0  0  0  0
  126.5470  130.1810   65.4940 C   0  0  0  0  0  0  0  0  0  0  0  0
  126.6910  129.5870   63.8670 S   0  0  0  0  0  0  0  0  0  0  0  0
  128.4760  132.1190   59.3150 S   0  0  0  0  0  0  0  0  0  0  0  0
  129.4860  131.7950   57.9240 C   0  0  0  0  0  0  0  0  0  0  0  0
  129.0950  132.0880   56.6830 N   0  0  0  0  0  0  0  0  0  0  0  0
  1  2  1  0
  2  3  2  0
  3  4  1  0
  4  5  1  0
  4  6  2  0
  6  7  1  0
  7  8  1  0
  7  9  2  0
  9 10  1  0
 10 11  2  0
 10 12  1  0
 12 13  1  0
 13 14  2  0
 14 15  1  0
 15 16  2  0
 16 17  1  0
  9 18  1  0
 18 19  1  0
 19 20  2  0
 20  2  1  0
 19  6  1  0
 17 13  1  0
M  END
>  <Binding energies>  (46) 
[-6.31]

>  <Ligand effiencies>  (46) 
[-0.2743478260869565]

>  <Interactions>  (46) 
["V-A:ASP:366:CG:3212, V-A:PRO:540:N:4884, V-A:ILE:538:CA:4860, V-A:ASP:366:CB:3211, V-A:ILE:538:CG2:4863, V-A:TYR:539:CD1:4873, V-A:PRO:540:CA:4883, H-A:TYR:539:N:4870, V-A:TYR:539:CE1:4875, V-A:ILE:538:CB:4862, V-A:ALA:541:CB:4892, V-A:TYR:539:C:4867, V-A:LEU:363:CD1:3188, V-A:GLU:543:CG:4907, V-A:GLU:543:CD:4908, H-A:ASP:366:OD2:3214, V-A:ILE:538:C:4858, H-A:ALA:541:N:4891, V-B:TYR:484:CZ:9318, V-B:TYR:484:CE2:9317, H-A:GLU:543:OE2:4910"]

$$$$
4ak_Grossjean_2025
     RDKit          3D

 25 26  0  0  0  0  0  0  0  0999 V2000
  127.7530  122.3860   57.3590 C   0  0  0  0  0  0  0  0  0  0  0  0
  126.9110  121.5860   56.5420 O   0  0  0  0  0  0  0  0  0  0  0  0
  125.7910  122.2910   56.0230 C   0  0  0  0  0  0  0  0  0  0  0  0
  125.0230  122.9520   57.1760 C   0  0  0  0  0  0  0  0  0  0  0  0
  125.5330  124.2610   57.3920 O   0  0  0  0  0  0  0  0  0  0  0  0
  125.1230  124.8390   58.6240 C   0  0  0  0  0  0  0  0  0  0  0  0
  124.2270  123.8490   59.3770 C   0  0  0  0  0  0  0  0  0  0  0  0
  124.5510  123.8790   60.7600 O   0  0  0  0  0  0  0  0  0  0  0  0
  125.6770  123.0830   61.1050 C   0  0  0  0  0  0  0  0  0  0  0  0
  126.9240  123.9790   61.2000 C   0  0  0  0  0  0  0  0  0  0  0  0
  126.6280  125.3560   61.5960 N   0  0  0  0  0  0  0  0  0  0  0  0
  127.4760  126.1830   62.2400 C   0  0  0  0  0  0  0  0  0  0  0  0
  128.6220  125.8480   62.5430 O   0  0  0  0  0  0  0  0  0  0  0  0
  126.9620  127.5150   62.5540 C   0  0  0  0  0  0  0  0  0  0  0  0
  125.9040  128.3510   61.4170 S   0  0  0  0  0  0  0  0  0  0  0  0
  125.7670  129.7280   62.4880 C   0  0  0  0  0  0  0  0  0  0  0  0
  125.0390  130.7990   62.1690 N   0  0  0  0  0  0  0  0  0  0  0  0
  125.0180  131.7980   63.0860 C   0  0  0  0  0  0  0  0  0  0  0  0
  124.1840  133.0080   62.7050 C   0  0  0  0  0  0  0  0  0  0  0  0
  125.6990  131.7500   64.3000 C   0  0  0  0  0  0  0  0  0  0  0  0
  126.4610  130.6230   64.6320 C   0  0  0  0  0  0  0  0  0  0  0  0
  127.1900  130.6190   65.9670 C   0  0  0  0  0  0  0  0  0  0  0  0
  126.5080  129.5560   63.6950 C   0  0  0  0  0  0  0  0  0  0  0  0
  127.1760  128.2830   63.7090 C   0  0  0  0  0  0  0  0  0  0  0  0
  127.9510  127.8720   64.7640 N   0  0  0  0  0  0  0  0  0  0  0  0
  1  2  1  0
  2  3  1  0
  3  4  1  0
  4  5  1  0
  5  6  1  0
  6  7  1  0
  7  8  1  0
  8  9  1  0
  9 10  1  0
 10 11  1  0
 11 12  1  0
 12 13  2  0
 12 14  1  0
 14 15  1  0
 15 16  1  0
 16 17  2  0
 17 18  1  0
 18 19  1  0
 18 20  2  0
 20 21  1  0
 21 22  1  0
 21 23  2  0
 23 24  1  0
 24 25  1  0
 24 14  2  0
 23 16  1  0
M  END
>  <Binding energies>  (47) 
[-5.82]

>  <Ligand effiencies>  (47) 
[-0.20785714285714288]

>  <Interactions>  (47) 
["V-B:PRO:540:CB:9857, H-B:TYR:531:OH:9767, V-B:MET:535:CE:9807, V-B:PRO:540:N:9856, V-B:PRO:540:CA:9855, V-B:PRO:540:C:9853, H-B:TYR:539:N:9842, V-B:TYR:539:C:9839, V-B:TYR:531:CE2:9765, V-B:LEU:363:CD1:8160, V-B:PRO:540:CD:9859, V-B:ASP:366:CG:8184, V-B:ASP:366:CB:8183, V-B:ILE:369:CD1:8210, V-A:GLU:543:CG:4907, V-B:GLY:454:CA:9020, V-A:GLU:543:CD:4908, V-B:LEU:363:CA:8156, H-B:GLU:543:OE1:9881, V-B:GLU:543:CD:9880, H-B:GLU:543:OE2:9882, V-B:TYR:484:CZ:9318, V-B:LEU:475:CD1:9229, V-B:TYR:484:CE2:9317, H-B:ASP:366:OD1:8185, H-A:GLU:543:OE1:4909, H-A:GLU:543:OE2:4910, V-B:LEU:363:CB:8158"]

$$$$
4al_Grossjean_2025
     RDKit          3D

 16 17  0  0  0  0  0  0  0  0999 V2000
  127.2660  129.8300   54.7030 C   0  0  0  0  0  0  0  0  0  0  0  0
  127.9730  131.0220   54.3970 O   0  0  0  0  0  0  0  0  0  0  0  0
  129.3150  131.1070   54.5940 C   0  0  0  0  0  0  0  0  0  0  0  0
  130.1440  131.1620   53.6830 O   0  0  0  0  0  0  0  0  0  0  0  0
  129.6860  131.1290   56.0260 C   0  0  0  0  0  0  0  0  0  0  0  0
  128.4370  131.3290   57.2570 S   0  0  0  0  0  0  0  0  0  0  0  0
  129.6270  131.2500   58.5360 C   0  0  0  0  0  0  0  0  0  0  0  0
  129.2870  131.3470   59.8220 N   0  0  0  0  0  0  0  0  0  0  0  0
  130.3060  131.2700   60.7140 C   0  0  0  0  0  0  0  0  0  0  0  0
  129.8980  131.3830   62.1710 C   0  0  0  0  0  0  0  0  0  0  0  0
  131.6410  131.0990   60.3530 C   0  0  0  0  0  0  0  0  0  0  0  0
  131.9940  130.9970   59.0030 C   0  0  0  0  0  0  0  0  0  0  0  0
  133.4630  130.8120   58.6590 C   0  0  0  0  0  0  0  0  0  0  0  0
  130.9520  131.0740   58.0390 C   0  0  0  0  0  0  0  0  0  0  0  0
  130.9550  131.0090   56.6040 C   0  0  0  0  0  0  0  0  0  0  0  0
  132.1040  130.8430   55.8740 N   0  0  0  0  0  0  0  0  0  0  0  0
  1  2  1  0
  2  3  1  0
  3  4  2  0
  3  5  1  0
  5  6  1  0
  6  7  1  0
  7  8  2  0
  8  9  1  0
  9 10  1  0
  9 11  2  0
 11 12  1  0
 12 13  1  0
 12 14  2  0
 14 15  1  0
 15 16  1  0
 15  5  2  0
 14  7  1  0
M  END
>  <Binding energies>  (48) 
[-5.35]

>  <Ligand effiencies>  (48) 
[-0.2972222222222222]

>  <Interactions>  (48) 
["V-B:TYR:531:CZ:9766, V-A:ASP:366:CG:3212, V-A:ASP:366:CB:3211, V-A:ILE:538:CG2:4863, V-A:TYR:539:CD1:4873, V-A:PRO:540:CA:4883, H-A:TYR:531:OH:4795, V-A:TYR:539:CZ:4877, V-A:PRO:540:CB:4885, V-A:TYR:539:CE1:4875, V-A:TYR:531:CZ:4794, V-B:TYR:531:CE1:9764, H-B:LYS:534:NZ:9795, V-A:ALA:541:CB:4892, V-A:LEU:363:CD1:3188, V-A:GLU:543:CG:4907, V-A:GLU:543:CD:4908, H-A:TYR:539:OH:4878, V-A:TYR:531:CE2:4793, V-A:LEU:363:CA:3184, V-A:LEU:363:CB:3186, V-A:ALA:541:CA:4890"]

$$$$
4bc_Grossjean_2025
     RDKit          3D

 26 28  0  0  0  0  0  0  0  0999 V2000
  125.3860  122.0360   56.3000 C   0  0  0  0  0  0  0  0  0  0  0  0
  126.7810  121.8500   56.5160 O   0  0  0  0  0  0  0  0  0  0  0  0
  127.3610  122.3710   57.6580 C   0  0  0  0  0  0  0  0  0  0  0  0
  128.7480  122.2670   57.7540 C   0  0  0  0  0  0  0  0  0  0  0  0
  129.4210  122.7630   58.8680 C   0  0  0  0  0  0  0  0  0  0  0  0
  128.7120  123.3780   59.9010 C   0  0  0  0  0  0  0  0  0  0  0  0
  129.4740  123.8340   60.9920 N   0  0  0  0  0  0  0  0  0  0  0  0
  129.5200  125.0690   61.5490 C   0  0  0  0  0  0  0  0  0  0  0  0
  128.8840  126.0360   61.1290 O   0  0  0  0  0  0  0  0  0  0  0  0
  130.4010  125.2010   62.7140 C   0  0  0  0  0  0  0  0  0  0  0  0
  132.1230  124.8610   62.5660 S   0  0  0  0  0  0  0  0  0  0  0  0
  132.3870  125.2290   64.2550 C   0  0  0  0  0  0  0  0  0  0  0  0
  133.6000  125.1510   64.8020 N   0  0  0  0  0  0  0  0  0  0  0  0
  133.6790  125.4580   66.1170 C   0  0  0  0  0  0  0  0  0  0  0  0
  135.0690  125.3690   66.7190 C   0  0  0  0  0  0  0  0  0  0  0  0
  132.5840  125.8350   66.8910 C   0  0  0  0  0  0  0  0  0  0  0  0
  131.3050  125.9180   66.3200 C   0  0  0  0  0  0  0  0  0  0  0  0
  130.1310  126.3360   67.2140 C   0  0  0  0  0  0  0  0  0  0  0  0
  129.4260  125.2970   67.6670 F   0  0  0  0  0  0  0  0  0  0  0  0
  130.5870  127.0020   68.2730 F   0  0  0  0  0  0  0  0  0  0  0  0
  129.2960  127.1160   66.5280 F   0  0  0  0  0  0  0  0  0  0  0  0
  131.1870  125.6030   64.9340 C   0  0  0  0  0  0  0  0  0  0  0  0
  130.0680  125.5800   64.0240 C   0  0  0  0  0  0  0  0  0  0  0  0
  128.7920  125.9020   64.4120 N   0  0  0  0  0  0  0  0  0  0  0  0
  127.3140  123.4740   59.8180 C   0  0  0  0  0  0  0  0  0  0  0  0
  126.6450  122.9770   58.7030 C   0  0  0  0  0  0  0  0  0  0  0  0
  1  2  1  0
  2  3  1  0
  3  4  2  0
  4  5  1  0
  5  6  2  0
  6  7  1  0
  7  8  1  0
  8  9  2  0
  8 10  1  0
 10 11  1  0
 11 12  1  0
 12 13  2  0
 13 14  1  0
 14 15  1  0
 14 16  2  0
 16 17  1  0
 17 18  1  0
 18 19  1  0
 18 20  1  0
 18 21  1  0
 17 22  2  0
 22 23  1  0
 23 24  1  0
  6 25  1  0
 25 26  2  0
 26  3  1  0
 23 10  2  0
 22 12  1  0
M  END
>  <Binding energies>  (49) 
[-6.44]

>  <Ligand effiencies>  (49) 
[-0.2220689655172414]

>  <Interactions>  (49) 
["V-B:PRO:540:CB:9857, V-B:MET:535:CE:9807, V-B:TYR:539:CD2:9846, V-B:PRO:540:N:9856, V-B:PRO:540:CA:9855, H-B:TYR:539:N:9842, V-B:TYR:539:CE2:9848, V-B:TYR:539:C:9839, V-B:LEU:363:CD1:8160, H-A:TYR:484:OH:4347, H-A:GLY:454:N:4049, V-B:PRO:540:CD:9859, V-A:GLU:543:CD:4908, V-B:TYR:539:CZ:9849, H-A:ARG:545:NH2:4928, V-B:TYR:539:CG:9844, V-A:TYR:484:CZ:4346, V-A:HIS:456:CE1:4069, V-B:GLU:543:CB:9878, V-A:ARG:545:CD:4923, V-A:ILE:455:C:4051, V-B:GLU:543:CG:9879, V-B:TYR:539:CE1:9847, H-B:GLU:543:OE1:9881, V-B:GLU:543:CD:9880, H-B:GLU:543:OE2:9882, V-B:TYR:539:CD1:9845, H-A:ARG:545:NE:4924, V-A:ARG:545:CG:4922, V-A:ARG:545:CZ:4926, V-A:GLU:543:CB:4906, V-A:TYR:484:CE2:4345, V-B:ILE:538:CG2:9835, H-A:GLU:543:OE1:4909, V-A:GLY:454:CA:4048, V-A:GLY:453:CA:4043, V-A:GLY:453:C:4041"]

$$$$
4bf_Grossjean_2025
     RDKit          3D

 24 26  0  0  0  0  0  0  0  0999 V2000
  129.5010  132.3710   54.7940 C   0  0  0  0  0  0  0  0  0  0  0  0
  129.7930  131.8980   56.2080 C   0  0  0  0  0  0  0  0  0  0  0  0
  131.0100  131.3030   56.5280 C   0  0  0  0  0  0  0  0  0  0  0  0
  131.2650  130.8680   57.8370 C   0  0  0  0  0  0  0  0  0  0  0  0
  132.6190  130.2160   58.1420 C   0  0  0  0  0  0  0  0  0  0  0  0
  133.1090  130.5640   59.3350 F   0  0  0  0  0  0  0  0  0  0  0  0
  132.4940  128.8890   58.1340 F   0  0  0  0  0  0  0  0  0  0  0  0
  133.5130  130.5810   57.2220 F   0  0  0  0  0  0  0  0  0  0  0  0
  130.2330  131.0620   58.8030 C   0  0  0  0  0  0  0  0  0  0  0  0
  130.1320  130.7510   60.2070 C   0  0  0  0  0  0  0  0  0  0  0  0
  131.1480  130.1500   60.9070 N   0  0  0  0  0  0  0  0  0  0  0  0
  128.9090  131.1210   60.7910 C   0  0  0  0  0  0  0  0  0  0  0  0
  128.4610  130.9280   62.1740 C   0  0  0  0  0  0  0  0  0  0  0  0
  129.2170  131.1640   63.1170 O   0  0  0  0  0  0  0  0  0  0  0  0
  127.1830  130.4970   62.3150 N   0  0  0  0  0  0  0  0  0  0  0  0
  126.4720  130.1710   63.4850 C   0  0  0  0  0  0  0  0  0  0  0  0
  127.0460  129.7560   64.6990 C   0  0  0  0  0  0  0  0  0  0  0  0
  126.2220  129.4470   65.7840 C   0  0  0  0  0  0  0  0  0  0  0  0
  124.8400  129.5560   65.6250 C   0  0  0  0  0  0  0  0  0  0  0  0
  124.2610  129.9470   64.4620 N   0  0  0  0  0  0  0  0  0  0  0  0
  125.0750  130.2440   63.4170 C   0  0  0  0  0  0  0  0  0  0  0  0
  127.8380  131.8670   59.6070 S   0  0  0  0  0  0  0  0  0  0  0  0
  129.0320  131.6850   58.3430 C   0  0  0  0  0  0  0  0  0  0  0  0
  128.7950  132.0980   57.0990 N   0  0  0  0  0  0  0  0  0  0  0  0
  1  2  1  0
  2  3  2  0
  3  4  1  0
  4  5  1  0
  5  6  1  0
  5  7  1  0
  5  8  1  0
  4  9  2  0
  9 10  1  0
 10 11  1  0
 10 12  2  0
 12 13  1  0
 13 14  2  0
 13 15  1  0
 15 16  1  0
 16 17  2  0
 17 18  1  0
 18 19  2  0
 19 20  1  0
 20 21  2  0
 12 22  1  0
 22 23  1  0
 23 24  2  0
 24  2  1  0
 23  9  1  0
 21 16  1  0
M  END
>  <Binding energies>  (50) 
[-6.11]

>  <Ligand effiencies>  (50) 
[-0.2262962962962963]

>  <Interactions>  (50) 
["V-A:ASP:366:CG:3212, V-A:ILE:538:CA:4860, V-A:ASP:366:CB:3211, V-A:ILE:538:CG2:4863, V-A:TYR:539:CD1:4873, V-A:PRO:540:CA:4883, H-A:TYR:539:N:4870, V-A:PRO:540:CB:4885, V-A:TYR:539:CE1:4875, V-A:ILE:538:CB:4862, H-B:GLY:454:N:9021, V-B:ARG:545:CZ:9898, V-A:TYR:539:C:4867, V-A:LEU:363:CD1:3188, H-B:ARG:545:NH2:9900, H-A:ASP:366:OD2:3214, V-A:ILE:538:C:4858, V-A:LEU:363:CA:3184, V-A:LEU:363:CG:3187, V-A:LEU:363:CB:3186, H-A:GLU:543:OE2:4910"]

$$$$
4bh_Grossjean_2025
     RDKit          3D

 31 33  0  0  0  0  0  0  0  0999 V2000
  131.6030  120.6350   61.2500 C   0  0  0  0  0  0  0  0  0  0  0  0
  131.1260  121.9740   61.3300 O   0  0  0  0  0  0  0  0  0  0  0  0
  130.0060  122.3400   60.6060 C   0  0  0  0  0  0  0  0  0  0  0  0
  130.0310  122.6890   59.2470 C   0  0  0  0  0  0  0  0  0  0  0  0
  128.8610  123.0520   58.5790 C   0  0  0  0  0  0  0  0  0  0  0  0
  128.9010  123.3830   57.0920 C   0  0  0  0  0  0  0  0  0  0  0  0
  129.0240  124.8150   56.8150 N   0  0  0  0  0  0  0  0  0  0  0  0
  130.0830  125.5850   57.1400 C   0  0  0  0  0  0  0  0  0  0  0  0
  131.0570  125.1480   57.7540 O   0  0  0  0  0  0  0  0  0  0  0  0
  129.9920  126.9950   56.7590 C   0  0  0  0  0  0  0  0  0  0  0  0
  128.8180  127.5090   55.5510 S   0  0  0  0  0  0  0  0  0  0  0  0
  129.3700  129.1640   55.6570 C   0  0  0  0  0  0  0  0  0  0  0  0
  128.8190  130.1290   54.9210 N   0  0  0  0  0  0  0  0  0  0  0  0
  129.3290  131.3700   55.0910 C   0  0  0  0  0  0  0  0  0  0  0  0
  128.6890  132.4540   54.2410 C   0  0  0  0  0  0  0  0  0  0  0  0
  130.3640  131.6690   55.9730 C   0  0  0  0  0  0  0  0  0  0  0  0
  130.9500  130.6570   56.7500 C   0  0  0  0  0  0  0  0  0  0  0  0
  132.0850  131.0330   57.7080 C   0  0  0  0  0  0  0  0  0  0  0  0
  131.7200  130.9960   58.9920 F   0  0  0  0  0  0  0  0  0  0  0  0
  133.1010  130.1850   57.5590 F   0  0  0  0  0  0  0  0  0  0  0  0
  132.5030  132.2720   57.4470 F   0  0  0  0  0  0  0  0  0  0  0  0
  130.4380  129.3350   56.5920 C   0  0  0  0  0  0  0  0  0  0  0  0
  130.7800  128.0710   57.1970 C   0  0  0  0  0  0  0  0  0  0  0  0
  131.7820  127.9380   58.1240 N   0  0  0  0  0  0  0  0  0  0  0  0
  127.6460  123.0400   59.2660 C   0  0  0  0  0  0  0  0  0  0  0  0
  127.5920  122.7030   60.6270 C   0  0  0  0  0  0  0  0  0  0  0  0
  126.4260  122.6840   61.3720 O   0  0  0  0  0  0  0  0  0  0  0  0
  125.4370  123.6830   61.1460 C   0  0  0  0  0  0  0  0  0  0  0  0
  128.7810  122.3610   61.2870 C   0  0  0  0  0  0  0  0  0  0  0  0
  128.7400  122.0110   62.6160 O   0  0  0  0  0  0  0  0  0  0  0  0
  129.1030  123.0620   63.5010 C   0  0  0  0  0  0  0  0  0  0  0  0
  1  2  1  0
  2  3  1  0
  3  4  2  0
  4  5  1  0
  5  6  1  0
  6  7  1  0
  7  8  1  0
  8  9  2  0
  8 10  1  0
 10 11  1  0
 11 12  1  0
 12 13  2  0
 13 14  1  0
 14 15  1  0
 14 16  2  0
 16 17  1  0
 17 18  1  0
 18 19  1  0
 18 20  1  0
 18 21  1  0
 17 22  2  0
 22 23  1  0
 23 24  1  0
  5 25  2  0
 25 26  1  0
 26 27  1  0
 27 28  1  0
 26 29  2  0
 29 30  1  0
 30 31  1  0
 29  3  1  0
 23 10  2  0
 22 12  1  0
M  END
>  <Binding energies>  (51) 
[-5.88]

>  <Ligand effiencies>  (51) 
[-0.17294117647058824]

>  <Interactions>  (51) 
["H-B:ALA:541:N:9863, V-B:PRO:540:CB:9857, H-B:TYR:531:OH:9767, V-B:MET:535:CE:9807, V-B:TYR:539:CD2:9846, V-A:LEU:475:CD1:4257, V-B:PRO:540:CA:9855, V-B:PRO:540:C:9853, V-B:ALA:541:CB:9864, V-B:TYR:539:CE2:9848, V-A:ASP:366:CG:3212, V-A:PRO:540:N:4884, V-A:ILE:538:CA:4860, V-A:ASP:366:CB:3211, V-A:ILE:538:CG2:4863, H-B:TYR:539:OH:9850, V-A:TYR:539:CE2:4876, V-A:PRO:540:CA:4883, V-A:TYR:539:CZ:4877, V-A:TYR:539:CD2:4874, V-A:PRO:540:CB:4885, V-A:TYR:539:CE1:4875, V-A:ILE:538:CB:4862, V-A:PRO:540:CD:4887, V-A:LEU:363:CD1:3188, H-A:ASP:366:OD2:3214, V-B:TYR:539:CZ:9849, V-B:GLU:543:CG:9879, V-B:TYR:539:CE1:9847, V-B:GLU:543:CD:9880, H-B:MET:535:SD:9806, V-A:ILE:538:C:4858, V-A:LEU:363:CA:3184, V-A:PRO:540:CG:4886, V-A:VAL:537:C:4850"]

$$$$
4bi_Grossjean_2025
     RDKit          3D

 23 25  0  0  0  0  0  0  0  0999 V2000
  133.2670  125.1180   64.9960 C   0  0  0  0  0  0  0  0  0  0  0  0
  132.5910  124.2620   63.9400 C   0  0  0  0  0  0  0  0  0  0  0  0
  133.2480  123.1760   63.3680 C   0  0  0  0  0  0  0  0  0  0  0  0
  132.6090  122.3910   62.3950 C   0  0  0  0  0  0  0  0  0  0  0  0
  133.3690  121.2010   61.8000 C   0  0  0  0  0  0  0  0  0  0  0  0
  132.6860  120.0550   61.8740 F   0  0  0  0  0  0  0  0  0  0  0  0
  133.6270  121.4270   60.5130 F   0  0  0  0  0  0  0  0  0  0  0  0
  134.5160  121.0240   62.4560 F   0  0  0  0  0  0  0  0  0  0  0  0
  131.2800  122.7600   62.0280 C   0  0  0  0  0  0  0  0  0  0  0  0
  130.3330  122.2110   61.0890 C   0  0  0  0  0  0  0  0  0  0  0  0
  130.6120  121.1190   60.3080 N   0  0  0  0  0  0  0  0  0  0  0  0
  129.1030  122.8890   61.0510 C   0  0  0  0  0  0  0  0  0  0  0  0
  127.9330  122.6120   60.2130 C   0  0  0  0  0  0  0  0  0  0  0  0
  126.8280  122.4080   60.7220 O   0  0  0  0  0  0  0  0  0  0  0  0
  128.1590  122.6180   58.8760 N   0  0  0  0  0  0  0  0  0  0  0  0
  127.2370  122.4010   57.8610 C   0  0  0  0  0  0  0  0  0  0  0  0
  125.9780  122.9990   57.8360 C   0  0  0  0  0  0  0  0  0  0  0  0
  125.3830  122.5320   56.6860 C   0  0  0  0  0  0  0  0  0  0  0  0
  126.2400  121.6970   56.0510 O   0  0  0  0  0  0  0  0  0  0  0  0
  127.4120  121.6220   56.8070 N   0  0  0  0  0  0  0  0  0  0  0  0
  129.0920  124.2510   62.1680 S   0  0  0  0  0  0  0  0  0  0  0  0
  130.7210  123.8960   62.6910 C   0  0  0  0  0  0  0  0  0  0  0  0
  131.3320  124.6370   63.6150 N   0  0  0  0  0  0  0  0  0  0  0  0
  1  2  1  0
  2  3  2  0
  3  4  1  0
  4  5  1  0
  5  6  1  0
  5  7  1  0
  5  8  1  0
  4  9  2  0
  9 10  1  0
 10 11  1  0
 10 12  2  0
 12 13  1  0
 13 14  2  0
 13 15  1  0
 15 16  1  0
 16 17  1  0
 17 18  2  0
 18 19  1  0
 19 20  1  0
 12 21  1  0
 21 22  1  0
 22 23  2  0
 23  2  1  0
 22  9  1  0
 20 16  2  0
M  END
>  <Binding energies>  (52) 
[-6.27]

>  <Ligand effiencies>  (52) 
[-0.24115384615384614]

>  <Interactions>  (52) 
["H-B:ALA:541:N:9863, V-B:PRO:540:CB:9857, V-B:MET:535:CE:9807, V-A:ILE:369:CG2:3236, V-B:TYR:539:CD2:9846, V-B:PRO:540:N:9856, V-A:LEU:475:CD1:4257, V-B:PRO:540:CA:9855, H-B:TYR:539:N:9842, V-B:TYR:539:CE2:9848, V-B:TYR:539:C:9839, V-B:LEU:363:CD1:8160, V-B:PRO:540:CD:9859, V-A:ILE:369:CD1:3238, H-B:TYR:539:O:9840, V-A:SER:385:C:3404, V-A:ARG:545:CZ:4926, V-A:GLY:454:CA:4048"]

$$$$
4bj_Grossjean_2025
     RDKit          3D

 23 25  0  0  0  0  0  0  0  0999 V2000
  129.4750  132.1030   54.3150 C   0  0  0  0  0  0  0  0  0  0  0  0
  129.9330  131.7290   55.7130 C   0  0  0  0  0  0  0  0  0  0  0  0
  131.1410  131.0680   55.9200 C   0  0  0  0  0  0  0  0  0  0  0  0
  131.5490  130.7220   57.2170 C   0  0  0  0  0  0  0  0  0  0  0  0
  132.8860  129.9920   57.3950 C   0  0  0  0  0  0  0  0  0  0  0  0
  133.6090  129.9490   56.2740 F   0  0  0  0  0  0  0  0  0  0  0  0
  133.6180  130.6110   58.3200 F   0  0  0  0  0  0  0  0  0  0  0  0
  132.6640  128.7340   57.7760 F   0  0  0  0  0  0  0  0  0  0  0  0
  130.6800  131.0790   58.2910 C   0  0  0  0  0  0  0  0  0  0  0  0
  130.7570  130.8910   59.7200 C   0  0  0  0  0  0  0  0  0  0  0  0
  131.8110  130.2580   60.3290 N   0  0  0  0  0  0  0  0  0  0  0  0
  129.6650  131.4200   60.4270 C   0  0  0  0  0  0  0  0  0  0  0  0
  129.4160  131.3980   61.8700 C   0  0  0  0  0  0  0  0  0  0  0  0
  130.2920  131.7410   62.6670 O   0  0  0  0  0  0  0  0  0  0  0  0
  128.1750  130.9970   62.2420 N   0  0  0  0  0  0  0  0  0  0  0  0
  127.6830  130.8990   63.5360 C   0  0  0  0  0  0  0  0  0  0  0  0
  127.8980  131.7130   64.5460 N   0  0  0  0  0  0  0  0  0  0  0  0
  127.2660  131.3160   65.6320 C   0  0  0  0  0  0  0  0  0  0  0  0
  126.5140  130.1510   65.5160 C   0  0  0  0  0  0  0  0  0  0  0  0
  126.6530  129.5490   63.8910 S   0  0  0  0  0  0  0  0  0  0  0  0
  128.4900  132.1490   59.3360 S   0  0  0  0  0  0  0  0  0  0  0  0
  129.4730  131.7590   57.9440 C   0  0  0  0  0  0  0  0  0  0  0  0
  129.0880  132.0820   56.7100 N   0  0  0  0  0  0  0  0  0  0  0  0
  1  2  1  0
  2  3  2  0
  3  4  1  0
  4  5  1  0
  5  6  1  0
  5  7  1  0
  5  8  1  0
  4  9  2  0
  9 10  1  0
 10 11  1  0
 10 12  2  0
 12 13  1  0
 13 14  2  0
 13 15  1  0
 15 16  1  0
 16 17  2  0
 17 18  1  0
 18 19  2  0
 19 20  1  0
 12 21  1  0
 21 22  1  0
 22 23  2  0
 23  2  1  0
 22  9  1  0
 20 16  1  0
M  END
>  <Binding energies>  (53) 
[-5.89]

>  <Ligand effiencies>  (53) 
[-0.22653846153846152]

>  <Interactions>  (53) 
["V-A:ASP:366:CG:3212, V-A:PRO:540:N:4884, V-A:ILE:538:CA:4860, V-A:ASP:366:CB:3211, V-A:ILE:538:CG2:4863, V-A:TYR:539:CD1:4873, V-A:PRO:540:CA:4883, H-A:TYR:539:N:4870, V-A:PRO:540:CB:4885, V-A:TYR:539:CE1:4875, V-A:TYR:531:CZ:4794, V-A:ILE:538:CB:4862, V-A:ALA:541:CB:4892, V-A:TYR:539:C:4867, V-A:LEU:363:CD1:3188, V-A:GLU:543:CG:4907, V-A:GLU:543:CD:4908, H-A:ASP:366:OD2:3214, V-A:ILE:538:C:4858, H-A:ALA:541:N:4891, V-A:TYR:531:CE2:4793, V-A:LEU:363:CA:3184, V-A:LEU:363:CB:3186, V-B:TYR:484:CZ:9318, V-B:TYR:484:CE2:9317, H-A:GLU:543:OE2:4910"]

$$$$
4bk_Grossjean_2025
     RDKit          3D

 28 29  0  0  0  0  0  0  0  0999 V2000
  129.9150  132.1160   57.5700 C   0  0  0  0  0  0  0  0  0  0  0  0
  129.9740  132.4950   56.2040 O   0  0  0  0  0  0  0  0  0  0  0  0
  130.0940  131.3910   55.3150 C   0  0  0  0  0  0  0  0  0  0  0  0
  129.4200  131.7340   53.9810 C   0  0  0  0  0  0  0  0  0  0  0  0
  128.0740  131.2780   54.0010 O   0  0  0  0  0  0  0  0  0  0  0  0
  127.5980  130.9520   55.2990 C   0  0  0  0  0  0  0  0  0  0  0  0
  127.3540  129.4390   55.3890 C   0  0  0  0  0  0  0  0  0  0  0  0
  128.5980  128.7580   55.3010 O   0  0  0  0  0  0  0  0  0  0  0  0
  128.8730  128.2280   54.0100 C   0  0  0  0  0  0  0  0  0  0  0  0
  129.8270  127.0280   54.1430 C   0  0  0  0  0  0  0  0  0  0  0  0
  130.1790  126.7090   55.5280 N   0  0  0  0  0  0  0  0  0  0  0  0
  131.3040  126.0750   55.9200 C   0  0  0  0  0  0  0  0  0  0  0  0
  132.1710  125.7150   55.1210 O   0  0  0  0  0  0  0  0  0  0  0  0
  131.4450  125.8440   57.3580 C   0  0  0  0  0  0  0  0  0  0  0  0
  130.3890  126.6790   58.4950 S   0  0  0  0  0  0  0  0  0  0  0  0
  131.1460  125.8790   59.8520 C   0  0  0  0  0  0  0  0  0  0  0  0
  130.7550  126.1140   61.1040 N   0  0  0  0  0  0  0  0  0  0  0  0
  131.4150  125.4340   62.0700 C   0  0  0  0  0  0  0  0  0  0  0  0
  130.9510  125.7160   63.4880 C   0  0  0  0  0  0  0  0  0  0  0  0
  132.4460  124.5340   61.8170 C   0  0  0  0  0  0  0  0  0  0  0  0
  132.8640  124.2830   60.5010 C   0  0  0  0  0  0  0  0  0  0  0  0
  134.0060  123.2870   60.2720 C   0  0  0  0  0  0  0  0  0  0  0  0
  134.5690  122.8680   61.4070 F   0  0  0  0  0  0  0  0  0  0  0  0
  133.5450  122.2120   59.6330 F   0  0  0  0  0  0  0  0  0  0  0  0
  134.9620  123.8570   59.5400 F   0  0  0  0  0  0  0  0  0  0  0  0
  132.1880  124.9830   59.4570 C   0  0  0  0  0  0  0  0  0  0  0  0
  132.3310  124.9830   58.0220 C   0  0  0  0  0  0  0  0  0  0  0  0
  133.2560  124.2090   57.3690 N   0  0  0  0  0  0  0  0  0  0  0  0
  1  2  1  0
  2  3  1  0
  3  4  1  0
  4  5  1  0
  5  6  1  0
  6  7  1  0
  7  8  1  0
  8  9  1  0
  9 10  1  0
 10 11  1  0
 11 12  1  0
 12 13  2  0
 12 14  1  0
 14 15  1  0
 15 16  1  0
 16 17  2  0
 17 18  1  0
 18 19  1  0
 18 20  2  0
 20 21  1  0
 21 22  1  0
 22 23  1  0
 22 24  1  0
 22 25  1  0
 21 26  2  0
 26 27  1  0
 27 28  1  0
 27 14  2  0
 26 16  1  0
M  END
>  <Binding energies>  (54) 
[-5.85]

>  <Ligand effiencies>  (54) 
[-0.18870967741935482]

>  <Interactions>  (54) 
["H-B:TYR:531:OH:9767, V-A:ILE:369:CG2:3236, V-B:TYR:539:CE2:9848, V-B:TYR:531:CZ:9766, V-A:ASP:366:CG:3212, V-A:PRO:540:N:4884, V-A:ILE:538:CA:4860, V-A:ASP:366:CA:3209, V-A:ASP:366:CB:3211, V-A:ILE:538:CG2:4863, V-A:ASP:366:C:3207, H-B:TYR:539:OH:9850, V-A:TYR:539:CD1:4873, V-A:TYR:539:CE2:4876, V-A:PRO:540:CA:4883, H-A:TYR:531:OH:4795, H-A:TYR:539:N:4870, V-A:TYR:539:CZ:4877, V-A:TYR:539:CE1:4875, V-A:TYR:531:CZ:4794, V-A:ILE:538:CB:4862, V-B:TYR:531:CE1:9764, H-B:LYS:534:NZ:9795, V-A:TYR:539:C:4867, V-A:ILE:369:CD1:3238, V-B:TYR:539:CZ:9849, H-A:TYR:539:OH:4878, V-A:ILE:369:CB:3235, V-A:ILE:369:CG1:3237, V-A:MET:535:CE:4835, H-A:ASP:366:O:3208"]

$$$$
4cd_Grossjean_2025
     RDKit          3D

 29 32  0  0  0  0  0  0  0  0999 V2000
  131.1440  122.6740   64.2230 N   0  0  0  0  0  0  0  0  0  0  0  0
  130.1980  123.4800   63.6420 C   0  0  0  0  0  0  0  0  0  0  0  0
  129.7860  124.7040   64.1940 C   0  0  0  0  0  0  0  0  0  0  0  0
  130.2310  125.3410   65.4380 C   0  0  0  0  0  0  0  0  0  0  0  0
  131.4300  125.4340   65.7010 O   0  0  0  0  0  0  0  0  0  0  0  0
  129.2400  125.8070   66.2370 N   0  0  0  0  0  0  0  0  0  0  0  0
  129.3220  126.4140   67.5040 C   0  0  0  0  0  0  0  0  0  0  0  0
  128.7270  125.7150   68.5580 C   0  0  0  0  0  0  0  0  0  0  0  0
  128.7660  126.2270   69.8510 C   0  0  0  0  0  0  0  0  0  0  0  0
  129.4090  127.4380   70.0950 C   0  0  0  0  0  0  0  0  0  0  0  0
  130.0180  128.1380   69.0570 C   0  0  0  0  0  0  0  0  0  0  0  0
  129.9800  127.6290   67.7610 C   0  0  0  0  0  0  0  0  0  0  0  0
  128.5680  125.4790   63.1840 S   0  0  0  0  0  0  0  0  0  0  0  0
  128.6120  124.1600   62.0390 C   0  0  0  0  0  0  0  0  0  0  0  0
  127.8410  124.1550   60.9540 N   0  0  0  0  0  0  0  0  0  0  0  0
  127.9350  123.0790   60.1300 C   0  0  0  0  0  0  0  0  0  0  0  0
  127.0510  123.1010   58.9170 C   0  0  0  0  0  0  0  0  0  0  0  0
  125.8830  123.8810   58.8920 C   0  0  0  0  0  0  0  0  0  0  0  0
  125.0600  123.9060   57.7700 C   0  0  0  0  0  0  0  0  0  0  0  0
  125.3940  123.1500   56.6520 C   0  0  0  0  0  0  0  0  0  0  0  0
  126.5460  122.3710   56.6480 C   0  0  0  0  0  0  0  0  0  0  0  0
  127.3680  122.3500   57.7710 C   0  0  0  0  0  0  0  0  0  0  0  0
  128.8150  122.0240   60.3880 C   0  0  0  0  0  0  0  0  0  0  0  0
  129.6360  122.0220   61.5280 C   0  0  0  0  0  0  0  0  0  0  0  0
  130.5760  120.8310   61.7530 C   0  0  0  0  0  0  0  0  0  0  0  0
  130.6020  120.4160   63.0210 F   0  0  0  0  0  0  0  0  0  0  0  0
  130.1850  119.8000   61.0040 F   0  0  0  0  0  0  0  0  0  0  0  0
  131.8210  121.1710   61.4190 F   0  0  0  0  0  0  0  0  0  0  0  0
  129.5370  123.1380   62.4060 C   0  0  0  0  0  0  0  0  0  0  0  0
  1  2  1  0
  2  3  2  0
  3  4  1  0
  4  5  2  0
  4  6  1  0
  6  7  1  0
  7  8  2  0
  8  9  1  0
  9 10  2  0
 10 11  1  0
 11 12  2  0
  3 13  1  0
 13 14  1  0
 14 15  2  0
 15 16  1  0
 16 17  1  0
 17 18  2  0
 18 19  1  0
 19 20  2  0
 20 21  1  0
 21 22  2  0
 16 23  2  0
 23 24  1  0
 24 25  1  0
 25 26  1  0
 25 27  1  0
 25 28  1  0
 24 29  2  0
 29  2  1  0
 12  7  1  0
 29 14  1  0
 22 17  1  0
M  END
>  <Binding energies>  (55) 
[-7.53]

>  <Ligand effiencies>  (55) 
[-0.2353125]

>  <Interactions>  (55) 
["V-B:PRO:540:CB:9857, V-B:MET:535:CE:9807, V-B:TYR:539:CD2:9846, V-B:PRO:540:N:9856, V-A:LEU:475:CD1:4257, V-B:PRO:540:CA:9855, V-B:ALA:541:CB:9864, V-B:TYR:539:C:9839, V-B:TYR:531:CE2:9765, V-B:LEU:363:CD1:8160, H-A:TYR:484:OH:4347, V-A:GLU:543:CD:4908, V-A:GLU:543:C:4902, V-B:HIS:456:CE1:9041, V-A:TYR:484:CZ:4346, V-A:HIS:456:CE1:4069, V-B:GLU:543:CB:9878, V-B:GLU:543:CG:9879, V-B:GLU:543:CD:9880, H-B:GLU:543:OE2:9882, V-A:GLU:543:CB:4906, V-A:LEU:475:CD2:4258, V-B:GLU:543:CA:9876, V-B:GLU:543:C:9874, V-B:ALA:541:CA:9862, V-A:LEU:475:CG:4256"]

$$$$
4cg_Grossjean_2025
     RDKit          3D

 30 33  0  0  0  0  0  0  0  0999 V2000
  131.9310  126.0840   64.7930 N   0  0  0  0  0  0  0  0  0  0  0  0
  131.2370  124.9020   64.7640 C   0  0  0  0  0  0  0  0  0  0  0  0
  130.2080  124.5940   65.6640 C   0  0  0  0  0  0  0  0  0  0  0  0
  129.6480  125.4250   66.7290 C   0  0  0  0  0  0  0  0  0  0  0  0
  129.5660  125.0150   67.8890 O   0  0  0  0  0  0  0  0  0  0  0  0
  129.1960  126.6410   66.3550 N   0  0  0  0  0  0  0  0  0  0  0  0
  128.6200  127.6430   67.2500 C   0  0  0  0  0  0  0  0  0  0  0  0
  127.4990  128.4540   66.6110 C   0  0  0  0  0  0  0  0  0  0  0  0
  127.8080  129.5660   65.8240 C   0  0  0  0  0  0  0  0  0  0  0  0
  126.7880  130.2910   65.2130 C   0  0  0  0  0  0  0  0  0  0  0  0
  125.4640  129.8950   65.3830 C   0  0  0  0  0  0  0  0  0  0  0  0
  125.1500  128.7780   66.1540 C   0  0  0  0  0  0  0  0  0  0  0  0
  126.1690  128.0520   66.7630 C   0  0  0  0  0  0  0  0  0  0  0  0
  129.5180  123.0070   65.3330 S   0  0  0  0  0  0  0  0  0  0  0  0
  130.6280  122.7570   64.0060 C   0  0  0  0  0  0  0  0  0  0  0  0
  130.6090  121.6380   63.2870 N   0  0  0  0  0  0  0  0  0  0  0  0
  131.5050  121.5340   62.2720 C   0  0  0  0  0  0  0  0  0  0  0  0
  131.4600  120.2580   61.4800 C   0  0  0  0  0  0  0  0  0  0  0  0
  132.5410  119.8720   60.6710 C   0  0  0  0  0  0  0  0  0  0  0  0
  132.5030  118.6920   59.9350 C   0  0  0  0  0  0  0  0  0  0  0  0
  131.3770  117.8760   59.9960 C   0  0  0  0  0  0  0  0  0  0  0  0
  130.2910  118.2350   60.7860 C   0  0  0  0  0  0  0  0  0  0  0  0
  130.3340  119.4160   61.5210 C   0  0  0  0  0  0  0  0  0  0  0  0
  132.4290  122.5490   61.9960 C   0  0  0  0  0  0  0  0  0  0  0  0
  132.4580  123.7330   62.7490 C   0  0  0  0  0  0  0  0  0  0  0  0
  133.4970  124.8040   62.3940 C   0  0  0  0  0  0  0  0  0  0  0  0
  134.2810  124.4540   61.3720 F   0  0  0  0  0  0  0  0  0  0  0  0
  132.8790  125.9360   62.0550 F   0  0  0  0  0  0  0  0  0  0  0  0
  134.2860  125.0310   63.4420 F   0  0  0  0  0  0  0  0  0  0  0  0
  131.5120  123.8580   63.8070 C   0  0  0  0  0  0  0  0  0  0  0  0
  1  2  1  0
  2  3  2  0
  3  4  1  0
  4  5  2  0
  4  6  1  0
  6  7  1  0
  7  8  1  0
  8  9  2  0
  9 10  1  0
 10 11  2  0
 11 12  1  0
 12 13  2  0
  3 14  1  0
 14 15  1  0
 15 16  2  0
 16 17  1  0
 17 18  1  0
 18 19  2  0
 19 20  1  0
 20 21  2  0
 21 22  1  0
 22 23  2  0
 17 24  2  0
 24 25  1  0
 25 26  1  0
 26 27  1  0
 26 28  1  0
 26 29  1  0
 25 30  2  0
 30  2  1  0
 13  8  1  0
 30 15  1  0
 23 18  1  0
M  END
>  <Binding energies>  (56) 
[-7.8]

>  <Ligand effiencies>  (56) 
[-0.23636363636363636]

>  <Interactions>  (56) 
["V-A:ILE:369:CG2:3236, V-B:TYR:539:CD2:9846, V-A:LEU:475:CD1:4257, V-B:ALA:541:CB:9864, V-B:TYR:539:C:9839, V-A:PRO:482:CG:4326, V-A:PRO:482:CB:4325, H-A:TYR:484:OH:4347, V-A:ASP:366:CG:3212, V-A:ASP:366:CA:3209, V-A:ASP:366:CB:3211, V-B:ARG:545:CZ:9898, V-A:GLU:543:CG:4907, V-A:GLU:543:CD:4908, V-A:ILE:369:CD1:3238, V-B:HIS:456:CE1:9041, V-A:TYR:484:CZ:4346, V-B:GLU:543:CB:9878, V-B:GLU:543:CG:9879, V-B:GLU:543:CD:9880, H-B:GLU:543:OE2:9882, V-A:ARG:545:CZ:4926, V-A:TYR:484:CE2:4345, V-B:ARG:545:CG:9894, H-A:GLU:543:OE1:4909, H-A:GLU:543:OE2:4910, V-A:GLY:453:CA:4043, V-A:GLY:453:C:4041, V-B:TYR:539:CB:9843, V-A:HIS:383:CE1:3392, V-A:HIS:383:CD2:3391, V-B:ARG:545:CD:9895"]

$$$$
4ch_Grossjean_2025
     RDKit          3D

 36 39  0  0  0  0  0  0  0  0999 V2000
  131.8090  132.3320   56.3530 C   0  0  0  0  0  0  0  0  0  0  0  0
  130.4530  132.7610   56.4170 O   0  0  0  0  0  0  0  0  0  0  0  0
  129.4530  131.8220   56.5950 C   0  0  0  0  0  0  0  0  0  0  0  0
  129.0210  131.3640   57.8510 C   0  0  0  0  0  0  0  0  0  0  0  0
  128.0040  130.4140   57.9550 C   0  0  0  0  0  0  0  0  0  0  0  0
  127.5680  129.9090   59.3260 C   0  0  0  0  0  0  0  0  0  0  0  0
  128.2780  128.7120   59.7780 N   0  0  0  0  0  0  0  0  0  0  0  0
  129.6120  128.5210   59.7170 C   0  0  0  0  0  0  0  0  0  0  0  0
  130.3850  129.3780   59.2830 O   0  0  0  0  0  0  0  0  0  0  0  0
  130.1010  127.2420   60.2320 C   0  0  0  0  0  0  0  0  0  0  0  0
  130.2080  125.8440   59.1670 S   0  0  0  0  0  0  0  0  0  0  0  0
  130.8510  124.8560   60.4560 C   0  0  0  0  0  0  0  0  0  0  0  0
  131.1580  123.5760   60.2630 N   0  0  0  0  0  0  0  0  0  0  0  0
  131.6580  122.8890   61.3230 C   0  0  0  0  0  0  0  0  0  0  0  0
  131.9880  121.4450   61.0740 C   0  0  0  0  0  0  0  0  0  0  0  0
  130.9750  120.5130   60.7960 C   0  0  0  0  0  0  0  0  0  0  0  0
  131.2740  119.1730   60.5650 C   0  0  0  0  0  0  0  0  0  0  0  0
  132.5960  118.7440   60.6090 C   0  0  0  0  0  0  0  0  0  0  0  0
  133.6190  119.6450   60.8860 C   0  0  0  0  0  0  0  0  0  0  0  0
  133.3150  120.9830   61.1180 C   0  0  0  0  0  0  0  0  0  0  0  0
  131.8310  123.4870   62.5750 C   0  0  0  0  0  0  0  0  0  0  0  0
  131.5090  124.8370   62.7910 C   0  0  0  0  0  0  0  0  0  0  0  0
  131.7230  125.4280   64.1880 C   0  0  0  0  0  0  0  0  0  0  0  0
  130.6200  125.4070   64.9410 F   0  0  0  0  0  0  0  0  0  0  0  0
  132.6590  124.7350   64.8340 F   0  0  0  0  0  0  0  0  0  0  0  0
  132.1100  126.7000   64.0850 F   0  0  0  0  0  0  0  0  0  0  0  0
  130.9960  125.5690   61.6830 C   0  0  0  0  0  0  0  0  0  0  0  0
  130.5690  126.9380   61.5200 C   0  0  0  0  0  0  0  0  0  0  0  0
  130.6080  127.8550   62.5390 N   0  0  0  0  0  0  0  0  0  0  0  0
  127.4200  129.9010   56.7970 C   0  0  0  0  0  0  0  0  0  0  0  0
  127.8330  130.3390   55.5280 C   0  0  0  0  0  0  0  0  0  0  0  0
  127.2990  129.8750   54.3400 O   0  0  0  0  0  0  0  0  0  0  0  0
  127.9000  128.7590   53.6910 C   0  0  0  0  0  0  0  0  0  0  0  0
  128.8470  131.3050   55.4410 C   0  0  0  0  0  0  0  0  0  0  0  0
  129.2710  131.7310   54.2060 O   0  0  0  0  0  0  0  0  0  0  0  0
  130.2770  130.9120   53.6250 C   0  0  0  0  0  0  0  0  0  0  0  0
  1  2  1  0
  2  3  1  0
  3  4  2  0
  4  5  1  0
  5  6  1  0
  6  7  1  0
  7  8  1  0
  8  9  2  0
  8 10  1  0
 10 11  1  0
 11 12  1  0
 12 13  2  0
 13 14  1  0
 14 15  1  0
 15 16  2  0
 16 17  1  0
 17 18  2  0
 18 19  1  0
 19 20  2  0
 14 21  2  0
 21 22  1  0
 22 23  1  0
 23 24  1  0
 23 25  1  0
 23 26  1  0
 22 27  2  0
 27 28  1  0
 28 29  1  0
  5 30  2  0
 30 31  1  0
 31 32  1  0
 32 33  1  0
 31 34  2  0
 34 35  1  0
 35 36  1  0
 34  3  1  0
 28 10  2  0
 27 12  1  0
 20 15  1  0
M  END
>  <Binding energies>  (57) 
[-7.62]

>  <Ligand effiencies>  (57) 
[-0.19538461538461538]

>  <Interactions>  (57) 
["H-B:TYR:531:OH:9767, V-A:ILE:369:CG2:3236, V-B:TYR:539:CD2:9846, V-A:LEU:475:CD1:4257, V-B:TYR:531:CZ:9766, V-A:PRO:540:N:4884, V-A:MET:535:CB:4832, V-A:ILE:538:CG2:4863, V-A:TYR:539:CD1:4873, V-A:PRO:540:CA:4883, H-A:TYR:539:N:4870, V-A:TYR:539:CZ:4877, V-A:PRO:540:CB:4885, V-A:TYR:539:CE1:4875, V-A:TYR:531:CZ:4794, V-A:ILE:538:CB:4862, V-A:MET:535:CG:4833, V-B:TYR:531:CE1:9764, H-B:LYS:534:NZ:9795, V-A:PRO:540:CD:4887, V-A:LEU:363:CD1:3188, V-A:GLU:543:CD:4908, H-A:ASP:366:OD2:3214, V-A:SER:385:CA:3406, H-A:TYR:539:OH:4878, V-A:SER:385:C:3404, V-A:ARG:545:CZ:4926, V-B:LYS:534:CE:9794, V-A:TYR:531:CE2:4793, V-B:LYS:534:CD:9793, H-A:GLU:543:OE1:4909, H-A:GLU:543:OE2:4910"]

$$$$
4cj_Grossjean_2025
     RDKit          3D

 28 31  0  0  0  0  0  0  0  0999 V2000
  131.2390  122.7380   64.1300 N   0  0  0  0  0  0  0  0  0  0  0  0
  130.2420  123.5030   63.5800 C   0  0  0  0  0  0  0  0  0  0  0  0
  129.7870  124.7010   64.1550 C   0  0  0  0  0  0  0  0  0  0  0  0
  130.2470  125.3590   65.3810 C   0  0  0  0  0  0  0  0  0  0  0  0
  131.4340  125.3150   65.7130 O   0  0  0  0  0  0  0  0  0  0  0  0
  129.2850  125.9910   66.0990 N   0  0  0  0  0  0  0  0  0  0  0  0
  129.4550  126.6860   67.2880 C   0  0  0  0  0  0  0  0  0  0  0  0
  130.4460  127.4840   67.6230 N   0  0  0  0  0  0  0  0  0  0  0  0
  130.2820  127.9800   68.8330 C   0  0  0  0  0  0  0  0  0  0  0  0
  129.1320  127.5840   69.5100 C   0  0  0  0  0  0  0  0  0  0  0  0
  128.2230  126.5030   68.4960 S   0  0  0  0  0  0  0  0  0  0  0  0
  128.5110  125.4300   63.1820 S   0  0  0  0  0  0  0  0  0  0  0  0
  128.5960  124.1290   62.0180 C   0  0  0  0  0  0  0  0  0  0  0  0
  127.8100  124.1060   60.9440 N   0  0  0  0  0  0  0  0  0  0  0  0
  127.9520  123.0590   60.0910 C   0  0  0  0  0  0  0  0  0  0  0  0
  127.0590  123.0710   58.8840 C   0  0  0  0  0  0  0  0  0  0  0  0
  125.8990  123.8610   58.8560 C   0  0  0  0  0  0  0  0  0  0  0  0
  125.0630  123.8720   57.7410 C   0  0  0  0  0  0  0  0  0  0  0  0
  125.3770  123.0870   56.6360 C   0  0  0  0  0  0  0  0  0  0  0  0
  126.5180  122.2940   56.6390 C   0  0  0  0  0  0  0  0  0  0  0  0
  127.3510  122.2870   57.7540 C   0  0  0  0  0  0  0  0  0  0  0  0
  128.8660  122.0280   60.3330 C   0  0  0  0  0  0  0  0  0  0  0  0
  129.6980  122.0410   61.4640 C   0  0  0  0  0  0  0  0  0  0  0  0
  130.6800  120.8800   61.6660 C   0  0  0  0  0  0  0  0  0  0  0  0
  130.5750  120.3090   62.8670 F   0  0  0  0  0  0  0  0  0  0  0  0
  130.4530  119.9360   60.7530 F   0  0  0  0  0  0  0  0  0  0  0  0
  131.9320  121.3210   61.5410 F   0  0  0  0  0  0  0  0  0  0  0  0
  129.5710  123.1440   62.3550 C   0  0  0  0  0  0  0  0  0  0  0  0
  1  2  1  0
  2  3  2  0
  3  4  1  0
  4  5  2  0
  4  6  1  0
  6  7  1  0
  7  8  2  0
  8  9  1  0
  9 10  2  0
 10 11  1  0
  3 12  1  0
 12 13  1  0
 13 14  2  0
 14 15  1  0
 15 16  1  0
 16 17  2  0
 17 18  1  0
 18 19  2  0
 19 20  1  0
 20 21  2  0
 15 22  2  0
 22 23  1  0
 23 24  1  0
 24 25  1  0
 24 26  1  0
 24 27  1  0
 23 28  2  0
 28  2  1  0
 11  7  1  0
 28 13  1  0
 21 16  1  0
M  END
>  <Binding energies>  (58) 
[-6.85]

>  <Ligand effiencies>  (58) 
[-0.22096774193548385]

>  <Interactions>  (58) 
["V-B:PRO:540:CB:9857, V-B:MET:535:CE:9807, V-B:TYR:539:CD2:9846, V-B:PRO:540:N:9856, V-A:LEU:475:CD1:4257, V-B:PRO:540:CA:9855, V-B:ALA:541:CB:9864, V-B:TYR:539:C:9839, V-B:TYR:531:CE2:9765, V-B:LEU:363:CD1:8160, H-A:TYR:484:OH:4347, V-B:PRO:540:CD:9859, V-A:GLU:543:C:4902, V-B:HIS:456:CE1:9041, V-A:TYR:484:CZ:4346, V-A:HIS:456:CE1:4069, V-B:GLU:543:CB:9878, V-B:GLU:543:CG:9879, V-B:GLU:543:CD:9880, H-B:GLU:543:OE2:9882, V-A:GLU:543:CB:4906, H-A:GLU:543:OE1:4909, V-B:ALA:541:CA:9862"]

$$$$
4ck_Grossjean_2025
     RDKit          3D

 33 35  0  0  0  0  0  0  0  0999 V2000
  132.1850  129.4840   57.3850 C   0  0  0  0  0  0  0  0  0  0  0  0
  130.7730  129.5530   57.2600 O   0  0  0  0  0  0  0  0  0  0  0  0
  130.2320  130.8090   57.6450 C   0  0  0  0  0  0  0  0  0  0  0  0
  130.9350  131.9200   56.8550 C   0  0  0  0  0  0  0  0  0  0  0  0
  129.9800  132.5860   56.0410 O   0  0  0  0  0  0  0  0  0  0  0  0
  129.7360  131.9330   54.8020 C   0  0  0  0  0  0  0  0  0  0  0  0
  128.2660  131.4960   54.7450 C   0  0  0  0  0  0  0  0  0  0  0  0
  128.2150  130.0910   54.5380 O   0  0  0  0  0  0  0  0  0  0  0  0
  129.4920  129.4860   54.3810 C   0  0  0  0  0  0  0  0  0  0  0  0
  129.3590  127.9610   54.5090 C   0  0  0  0  0  0  0  0  0  0  0  0
  129.8480  127.4720   55.7980 N   0  0  0  0  0  0  0  0  0  0  0  0
  130.8160  126.5490   55.9770 C   0  0  0  0  0  0  0  0  0  0  0  0
  131.4230  126.0300   55.0380 O   0  0  0  0  0  0  0  0  0  0  0  0
  131.1190  126.2010   57.3660 C   0  0  0  0  0  0  0  0  0  0  0  0
  130.2010  126.9320   58.6800 S   0  0  0  0  0  0  0  0  0  0  0  0
  131.0850  126.0060   59.8690 C   0  0  0  0  0  0  0  0  0  0  0  0
  130.8310  126.1220   61.1700 N   0  0  0  0  0  0  0  0  0  0  0  0
  131.5700  125.3620   62.0200 C   0  0  0  0  0  0  0  0  0  0  0  0
  131.2460  125.5030   63.4790 C   0  0  0  0  0  0  0  0  0  0  0  0
  132.2670  125.6520   64.4320 C   0  0  0  0  0  0  0  0  0  0  0  0
  131.9730  125.7810   65.7870 C   0  0  0  0  0  0  0  0  0  0  0  0
  130.6480  125.7630   66.2100 C   0  0  0  0  0  0  0  0  0  0  0  0
  129.6170  125.6220   65.2880 C   0  0  0  0  0  0  0  0  0  0  0  0
  129.9150  125.4950   63.9330 C   0  0  0  0  0  0  0  0  0  0  0  0
  132.5550  124.4830   61.5580 C   0  0  0  0  0  0  0  0  0  0  0  0
  132.8320  124.3530   60.1880 C   0  0  0  0  0  0  0  0  0  0  0  0
  133.9280  123.3730   59.7510 C   0  0  0  0  0  0  0  0  0  0  0  0
  134.7770  123.8970   58.8660 F   0  0  0  0  0  0  0  0  0  0  0  0
  134.6410  122.9920   60.8110 F   0  0  0  0  0  0  0  0  0  0  0  0
  133.3730  122.3010   59.1860 F   0  0  0  0  0  0  0  0  0  0  0  0
  132.0650  125.1470   59.2890 C   0  0  0  0  0  0  0  0  0  0  0  0
  132.0550  125.2750   57.8510 C   0  0  0  0  0  0  0  0  0  0  0  0
  132.8920  124.5570   57.0360 N   0  0  0  0  0  0  0  0  0  0  0  0
  1  2  1  0
  2  3  1  0
  3  4  1  0
  4  5  1  0
  5  6  1  0
  6  7  1  0
  7  8  1  0
  8  9  1  0
  9 10  1  0
 10 11  1  0
 11 12  1  0
 12 13  2  0
 12 14  1  0
 14 15  1  0
 15 16  1  0
 16 17  2  0
 17 18  1  0
 18 19  1  0
 19 20  2  0
 20 21  1  0
 21 22  2  0
 22 23  1  0
 23 24  2  0
 18 25  2  0
 25 26  1  0
 26 27  1  0
 27 28  1  0
 27 29  1  0
 27 30  1  0
 26 31  2  0
 31 32  1  0
 32 33  1  0
 32 14  2  0
 31 16  1  0
 24 19  1  0
M  END
>  <Binding energies>  (59) 
[-6.27]

>  <Ligand effiencies>  (59) 
[-0.17416666666666666]

>  <Interactions>  (59) 
["V-A:ILE:369:CG2:3236, V-B:TYR:539:CE2:9848, V-A:ASP:366:CG:3212, V-A:PRO:540:N:4884, V-A:ILE:538:CA:4860, V-A:ASP:366:CA:3209, V-A:ASP:366:CB:3211, V-A:ILE:538:CG2:4863, V-A:ASP:366:C:3207, H-B:TYR:539:OH:9850, V-A:TYR:539:CE2:4876, V-A:PRO:540:CA:4883, H-A:TYR:531:OH:4795, H-A:TYR:539:N:4870, V-A:TYR:539:CZ:4877, V-A:TYR:539:CE1:4875, V-A:ILE:538:CB:4862, H-B:LYS:534:NZ:9795, V-A:PRO:540:CD:4887, V-A:TYR:539:C:4867, V-A:ILE:369:CD1:3238, V-B:TYR:539:CZ:9849, V-A:ILE:369:CB:3235, V-B:GLU:543:CG:9879, V-B:GLU:543:CD:9880, V-A:ARG:545:CZ:4926, V-A:ILE:369:CG1:3237, H-A:ASP:366:O:3208"]

$$$$
4dd_Grossjean_2025
     RDKit          3D

 26 29  0  0  0  0  0  0  0  0999 V2000
  130.3290  120.8080   61.9720 C   0  0  0  0  0  0  0  0  0  0  0  0
  129.4540  122.0220   61.6990 C   0  0  0  0  0  0  0  0  0  0  0  0
  128.6620  122.0200   60.5440 C   0  0  0  0  0  0  0  0  0  0  0  0
  127.8350  123.1070   60.2360 C   0  0  0  0  0  0  0  0  0  0  0  0
  126.9810  123.1340   59.0030 C   0  0  0  0  0  0  0  0  0  0  0  0
  127.3240  122.3730   57.8730 C   0  0  0  0  0  0  0  0  0  0  0  0
  126.5340  122.3910   56.7260 C   0  0  0  0  0  0  0  0  0  0  0  0
  125.3870  123.1760   56.6920 C   0  0  0  0  0  0  0  0  0  0  0  0
  125.0220  123.9380   57.7960 C   0  0  0  0  0  0  0  0  0  0  0  0
  125.8140  123.9150   58.9420 C   0  0  0  0  0  0  0  0  0  0  0  0
  127.7710  124.2100   61.0310 N   0  0  0  0  0  0  0  0  0  0  0  0
  128.5190  124.2100   62.1340 C   0  0  0  0  0  0  0  0  0  0  0  0
  128.5190  125.5540   63.2540 S   0  0  0  0  0  0  0  0  0  0  0  0
  129.6820  124.7400   64.3030 C   0  0  0  0  0  0  0  0  0  0  0  0
  130.1360  125.3780   65.5410 C   0  0  0  0  0  0  0  0  0  0  0  0
  131.3380  125.4650   65.7980 O   0  0  0  0  0  0  0  0  0  0  0  0
  129.1530  125.8520   66.3450 N   0  0  0  0  0  0  0  0  0  0  0  0
  129.2450  126.4610   67.6090 C   0  0  0  0  0  0  0  0  0  0  0  0
  128.6850  125.7470   68.6730 C   0  0  0  0  0  0  0  0  0  0  0  0
  128.7370  126.2580   69.9670 C   0  0  0  0  0  0  0  0  0  0  0  0
  129.3580  127.4830   70.2000 C   0  0  0  0  0  0  0  0  0  0  0  0
  129.9300  128.1980   69.1520 C   0  0  0  0  0  0  0  0  0  0  0  0
  129.8790  127.6900   67.8570 C   0  0  0  0  0  0  0  0  0  0  0  0
  130.0420  123.4870   63.7830 C   0  0  0  0  0  0  0  0  0  0  0  0
  130.9340  122.6370   64.3880 N   0  0  0  0  0  0  0  0  0  0  0  0
  129.3870  123.1600   62.5440 C   0  0  0  0  0  0  0  0  0  0  0  0
  1  2  1  0
  2  3  2  0
  3  4  1  0
  4  5  1  0
  5  6  2  0
  6  7  1  0
  7  8  2  0
  8  9  1  0
  9 10  2  0
  4 11  2  0
 11 12  1  0
 12 13  1  0
 13 14  1  0
 14 15  1  0
 15 16  2  0
 15 17  1  0
 17 18  1  0
 18 19  2  0
 19 20  1  0
 20 21  2  0
 21 22  1  0
 22 23  2  0
 14 24  2  0
 24 25  1  0
 24 26  1  0
 26  2  1  0
 10  5  1  0
 26 12  2  0
 23 18  1  0
M  END
>  <Binding energies>  (60) 
[-7.92]

>  <Ligand effiencies>  (60) 
[-0.2731034482758621]

>  <Interactions>  (60) 
["V-B:PRO:540:CB:9857, V-B:MET:535:CE:9807, V-B:PRO:540:N:9856, V-A:LEU:475:CD1:4257, V-B:PRO:540:CA:9855, V-B:PRO:540:C:9853, V-B:ALA:541:CB:9864, V-B:TYR:539:C:9839, V-B:TYR:531:CE2:9765, V-B:LEU:363:CD1:8160, H-A:TYR:484:OH:4347, V-B:PRO:540:CD:9859, V-A:GLU:543:CD:4908, V-A:GLU:543:C:4902, V-B:HIS:456:CE1:9041, V-A:TYR:484:CZ:4346, V-A:HIS:456:CE1:4069, V-B:GLU:543:CB:9878, V-B:GLU:543:CG:9879, V-B:GLU:543:CD:9880, H-B:GLU:543:OE2:9882, V-A:GLU:543:CB:4906, V-A:TYR:484:CE2:4345, V-B:GLU:543:CA:9876, V-B:GLU:543:C:9874"]

$$$$
4dg_Grossjean_2025
     RDKit          3D

 27 30  0  0  0  0  0  0  0  0999 V2000
  132.8600  124.2790   58.7890 C   0  0  0  0  0  0  0  0  0  0  0  0
  131.5180  124.1350   59.4910 C   0  0  0  0  0  0  0  0  0  0  0  0
  130.4030  123.7890   58.7190 C   0  0  0  0  0  0  0  0  0  0  0  0
  129.1400  123.6400   59.3040 C   0  0  0  0  0  0  0  0  0  0  0  0
  127.9260  123.2680   58.5020 C   0  0  0  0  0  0  0  0  0  0  0  0
  126.6690  123.8210   58.7970 C   0  0  0  0  0  0  0  0  0  0  0  0
  125.5390  123.4750   58.0590 C   0  0  0  0  0  0  0  0  0  0  0  0
  125.6500  122.5690   57.0110 C   0  0  0  0  0  0  0  0  0  0  0  0
  126.8820  122.0020   56.6980 C   0  0  0  0  0  0  0  0  0  0  0  0
  128.0080  122.3500   57.4390 C   0  0  0  0  0  0  0  0  0  0  0  0
  128.9450  123.8070   60.6410 N   0  0  0  0  0  0  0  0  0  0  0  0
  130.0050  124.1380   61.3770 C   0  0  0  0  0  0  0  0  0  0  0  0
  129.8920  124.3880   63.1030 S   0  0  0  0  0  0  0  0  0  0  0  0
  131.6150  124.7470   63.2080 C   0  0  0  0  0  0  0  0  0  0  0  0
  132.2120  125.1140   64.4910 C   0  0  0  0  0  0  0  0  0  0  0  0
  133.2520  124.5870   64.8900 O   0  0  0  0  0  0  0  0  0  0  0  0
  131.5340  126.0280   65.2170 N   0  0  0  0  0  0  0  0  0  0  0  0
  131.9520  126.5590   66.5140 C   0  0  0  0  0  0  0  0  0  0  0  0
  130.7990  126.7410   67.4940 C   0  0  0  0  0  0  0  0  0  0  0  0
  129.8990  125.6930   67.7100 C   0  0  0  0  0  0  0  0  0  0  0  0
  128.8640  125.8450   68.6280 C   0  0  0  0  0  0  0  0  0  0  0  0
  128.7370  127.0390   69.3340 C   0  0  0  0  0  0  0  0  0  0  0  0
  129.6390  128.0810   69.1360 C   0  0  0  0  0  0  0  0  0  0  0  0
  130.6760  127.9300   68.2190 C   0  0  0  0  0  0  0  0  0  0  0  0
  132.2260  124.6860   61.9470 C   0  0  0  0  0  0  0  0  0  0  0  0
  133.5580  124.9340   61.7320 N   0  0  0  0  0  0  0  0  0  0  0  0
  131.3270  124.3260   60.8830 C   0  0  0  0  0  0  0  0  0  0  0  0
  1  2  1  0
  2  3  2  0
  3  4  1  0
  4  5  1  0
  5  6  2  0
  6  7  1  0
  7  8  2  0
  8  9  1  0
  9 10  2  0
  4 11  2  0
 11 12  1  0
 12 13  1  0
 13 14  1  0
 14 15  1  0
 15 16  2  0
 15 17  1  0
 17 18  1  0
 18 19  1  0
 19 20  2  0
 20 21  1  0
 21 22  2  0
 22 23  1  0
 23 24  2  0
 14 25  2  0
 25 26  1  0
 25 27  1  0
 27  2  1  0
 10  5  1  0
 27 12  2  0
 24 19  1  0
M  END
>  <Binding energies>  (61) 
[-8.09]

>  <Ligand effiencies>  (61) 
[-0.26966666666666667]

>  <Interactions>  (61) 
["V-B:PRO:540:CB:9857, V-B:MET:535:CE:9807, V-B:TYR:539:CD2:9846, V-B:PRO:540:N:9856, V-B:PRO:540:CA:9855, V-B:TYR:539:CE2:9848, V-B:TYR:539:C:9839, V-B:LEU:363:CD1:8160, V-B:TYR:539:CA:9841, H-A:TYR:484:OH:4347, V-A:ASP:366:CG:3212, H-A:GLY:454:N:4049, V-B:PRO:540:CD:9859, V-A:ASP:366:CA:3209, V-A:ASP:366:CB:3211, V-A:GLU:543:CG:4907, V-A:GLU:543:CD:4908, H-A:ASP:366:OD2:3214, V-B:TYR:539:CZ:9849, V-A:GLU:543:C:4902, V-B:TYR:539:CG:9844, V-B:HIS:456:CE1:9041, V-A:HIS:456:CE1:4069, V-B:GLU:543:CB:9878, V-A:ARG:545:CG:4922, V-A:GLU:543:CB:4906, V-A:TYR:484:CE2:4345, V-B:GLU:543:C:9874, H-A:GLU:543:OE1:4909, H-A:ASP:366:OD1:3213"]

$$$$
4dj_Grossjean_2025
     RDKit          3D

 25 28  0  0  0  0  0  0  0  0999 V2000
  130.3680  120.8030   62.0200 C   0  0  0  0  0  0  0  0  0  0  0  0
  129.4930  122.0170   61.7430 C   0  0  0  0  0  0  0  0  0  0  0  0
  128.7040  122.0110   60.5870 C   0  0  0  0  0  0  0  0  0  0  0  0
  127.8790  123.0980   60.2730 C   0  0  0  0  0  0  0  0  0  0  0  0
  127.0160  123.1170   59.0430 C   0  0  0  0  0  0  0  0  0  0  0  0
  127.3680  122.3740   57.9050 C   0  0  0  0  0  0  0  0  0  0  0  0
  126.5740  122.3870   56.7620 C   0  0  0  0  0  0  0  0  0  0  0  0
  125.4120  123.1510   56.7390 C   0  0  0  0  0  0  0  0  0  0  0  0
  125.0410  123.9000   57.8500 C   0  0  0  0  0  0  0  0  0  0  0  0
  125.8380  123.8830   58.9910 C   0  0  0  0  0  0  0  0  0  0  0  0
  127.7950  124.1920   61.0780 N   0  0  0  0  0  0  0  0  0  0  0  0
  128.5470  124.2000   62.1780 C   0  0  0  0  0  0  0  0  0  0  0  0
  128.5420  125.5450   63.2970 S   0  0  0  0  0  0  0  0  0  0  0  0
  129.7170  124.7420   64.3410 C   0  0  0  0  0  0  0  0  0  0  0  0
  130.1910  125.3970   65.5610 C   0  0  0  0  0  0  0  0  0  0  0  0
  131.3850  125.3600   65.8730 O   0  0  0  0  0  0  0  0  0  0  0  0
  129.2380  126.0180   66.2980 N   0  0  0  0  0  0  0  0  0  0  0  0
  129.4210  126.7050   67.4900 C   0  0  0  0  0  0  0  0  0  0  0  0
  130.3970  127.5300   67.8050 N   0  0  0  0  0  0  0  0  0  0  0  0
  130.2520  128.0060   69.0270 C   0  0  0  0  0  0  0  0  0  0  0  0
  129.1360  127.5670   69.7310 C   0  0  0  0  0  0  0  0  0  0  0  0
  128.2320  126.4700   68.7300 S   0  0  0  0  0  0  0  0  0  0  0  0
  130.0830  123.4910   63.8210 C   0  0  0  0  0  0  0  0  0  0  0  0
  130.9830  122.6480   64.4230 N   0  0  0  0  0  0  0  0  0  0  0  0
  129.4250  123.1560   62.5870 C   0  0  0  0  0  0  0  0  0  0  0  0
  1  2  1  0
  2  3  2  0
  3  4  1  0
  4  5  1  0
  5  6  2  0
  6  7  1  0
  7  8  2  0
  8  9  1  0
  9 10  2  0
  4 11  2  0
 11 12  1  0
 12 13  1  0
 13 14  1  0
 14 15  1  0
 15 16  2  0
 15 17  1  0
 17 18  1  0
 18 19  2  0
 19 20  1  0
 20 21  2  0
 21 22  1  0
 14 23  2  0
 23 24  1  0
 23 25  1  0
 25  2  1  0
 10  5  1  0
 25 12  2  0
 22 18  1  0
M  END
>  <Binding energies>  (62) 
[-7.32]

>  <Ligand effiencies>  (62) 
[-0.26142857142857145]

>  <Interactions>  (62) 
["V-B:PRO:540:CB:9857, V-B:MET:535:CE:9807, V-B:PRO:540:N:9856, V-A:LEU:475:CD1:4257, V-B:PRO:540:CA:9855, V-B:PRO:540:C:9853, V-B:ALA:541:CB:9864, V-B:TYR:539:C:9839, V-B:TYR:531:CE2:9765, V-B:LEU:363:CD1:8160, H-A:TYR:484:OH:4347, V-B:PRO:540:CD:9859, V-A:GLU:543:C:4902, V-B:HIS:456:CE1:9041, V-A:TYR:484:CZ:4346, V-A:HIS:456:CE1:4069, V-B:GLU:543:CB:9878, V-B:GLU:543:CG:9879, V-B:GLU:543:CD:9880, H-B:GLU:543:OE2:9882, V-A:GLU:543:CB:4906, V-A:TYR:484:CE2:4345"]

$$$$
4ea_Grossjean_2025
     RDKit          3D

 31 34  0  0  0  0  0  0  0  0999 V2000
  124.9760  125.6500   58.1190 C   0  0  0  0  0  0  0  0  0  0  0  0
  124.4160  124.2750   57.7400 C   0  0  0  0  0  0  0  0  0  0  0  0
  125.2340  123.6940   56.7340 O   0  0  0  0  0  0  0  0  0  0  0  0
  126.1500  122.7390   57.0390 C   0  0  0  0  0  0  0  0  0  0  0  0
  126.1920  121.6350   56.4850 O   0  0  0  0  0  0  0  0  0  0  0  0
  127.1080  123.1580   58.1170 C   0  0  0  0  0  0  0  0  0  0  0  0
  126.6410  123.2920   59.4310 C   0  0  0  0  0  0  0  0  0  0  0  0
  127.5030  123.6790   60.4520 C   0  0  0  0  0  0  0  0  0  0  0  0
  128.8470  123.9400   60.1840 C   0  0  0  0  0  0  0  0  0  0  0  0
  129.6240  124.3240   61.2940 N   0  0  0  0  0  0  0  0  0  0  0  0
  129.5600  125.4350   62.0690 C   0  0  0  0  0  0  0  0  0  0  0  0
  128.7500  126.3470   61.9080 O   0  0  0  0  0  0  0  0  0  0  0  0
  130.5450  125.4960   63.1530 C   0  0  0  0  0  0  0  0  0  0  0  0
  132.2370  125.0960   62.8470 S   0  0  0  0  0  0  0  0  0  0  0  0
  132.6610  125.4030   64.5150 C   0  0  0  0  0  0  0  0  0  0  0  0
  133.9110  125.2640   64.9620 N   0  0  0  0  0  0  0  0  0  0  0  0
  134.1070  125.5330   66.2760 C   0  0  0  0  0  0  0  0  0  0  0  0
  135.5350  125.3690   66.7620 C   0  0  0  0  0  0  0  0  0  0  0  0
  133.0950  125.9330   67.1450 C   0  0  0  0  0  0  0  0  0  0  0  0
  131.7860  126.0770   66.6730 C   0  0  0  0  0  0  0  0  0  0  0  0
  130.7210  126.5020   67.6090 C   0  0  0  0  0  0  0  0  0  0  0  0
  129.6840  125.6240   67.9390 C   0  0  0  0  0  0  0  0  0  0  0  0
  128.6830  126.0230   68.8210 C   0  0  0  0  0  0  0  0  0  0  0  0
  128.7170  127.3030   69.3700 C   0  0  0  0  0  0  0  0  0  0  0  0
  129.7420  128.1870   69.0440 C   0  0  0  0  0  0  0  0  0  0  0  0
  130.7420  127.7870   68.1620 C   0  0  0  0  0  0  0  0  0  0  0  0
  131.5380  125.8040   65.2990 C   0  0  0  0  0  0  0  0  0  0  0  0
  130.3430  125.8490   64.4970 C   0  0  0  0  0  0  0  0  0  0  0  0
  129.1250  126.2070   65.0170 N   0  0  0  0  0  0  0  0  0  0  0  0
  129.3240  123.8090   58.8700 C   0  0  0  0  0  0  0  0  0  0  0  0
  128.4600  123.4210   57.8490 C   0  0  0  0  0  0  0  0  0  0  0  0
  1  2  1  0
  2  3  1  0
  3  4  1  0
  4  5  2  0
  4  6  1  0
  6  7  2  0
  7  8  1  0
  8  9  2  0
  9 10  1  0
 10 11  1  0
 11 12  2  0
 11 13  1  0
 13 14  1  0
 14 15  1  0
 15 16  2  0
 16 17  1  0
 17 18  1  0
 17 19  2  0
 19 20  1  0
 20 21  1  0
 21 22  2  0
 22 23  1  0
 23 24  2  0
 24 25  1  0
 25 26  2  0
 20 27  2  0
 27 28  1  0
 28 29  1  0
  9 30  1  0
 30 31  2  0
 31  6  1  0
 28 13  2  0
 27 15  1  0
 26 21  1  0
M  END
>  <Binding energies>  (63) 
[-9.08]

>  <Ligand effiencies>  (63) 
[-0.2670588235294118]

>  <Interactions>  (63) 
["V-B:PRO:540:CB:9857, H-B:TYR:531:OH:9767, V-B:MET:535:CE:9807, V-B:PRO:540:N:9856, V-B:PRO:540:CA:9855, H-B:TYR:539:N:9842, V-B:TYR:531:CE2:9765, V-B:TYR:531:CZ:9766, V-B:LEU:363:CD1:8160, H-A:TYR:484:OH:4347, H-A:GLY:454:N:4049, V-B:ASP:366:CG:8184, V-B:ASP:366:CB:8183, V-A:GLU:543:CG:4907, V-A:GLU:543:CD:4908, V-B:LEU:363:CA:8156, H-A:ARG:545:NH2:4928, V-A:GLU:543:C:4902, V-B:HIS:456:CE1:9041, V-A:TYR:484:CZ:4346, V-A:HIS:456:CE1:4069, V-B:GLU:543:CB:9878, V-A:ARG:545:CD:4923, V-A:ILE:455:C:4051, V-B:GLU:543:CG:9879, H-B:GLU:543:OE1:9881, V-B:GLU:543:CD:9880, H-B:GLU:543:OE2:9882, H-A:ARG:545:NE:4924, V-A:ARG:545:CG:4922, V-A:ARG:545:CZ:4926, H-A:ARG:545:NH1:4927, V-A:GLU:543:CB:4906, V-A:TYR:484:CE2:4345, V-B:GLU:543:C:9874, H-A:GLU:543:OE1:4909, V-A:GLY:454:CA:4048, V-A:GLY:453:CA:4043, V-A:GLY:453:C:4041, V-A:GLY:454:C:4046, V-A:ILE:455:CA:4053, V-A:ARG:545:CB:4921"]

$$$$
4eb_Grossjean_2025
     RDKit          3D

 30 33  0  0  0  0  0  0  0  0999 V2000
  124.7290  124.3980   57.4310 C   0  0  0  0  0  0  0  0  0  0  0  0
  125.4620  123.6080   56.5050 O   0  0  0  0  0  0  0  0  0  0  0  0
  126.3380  122.6620   56.9340 C   0  0  0  0  0  0  0  0  0  0  0  0
  126.4930  121.5750   56.3710 O   0  0  0  0  0  0  0  0  0  0  0  0
  127.0980  123.0710   58.1630 C   0  0  0  0  0  0  0  0  0  0  0  0
  128.4530  123.4080   58.0480 C   0  0  0  0  0  0  0  0  0  0  0  0
  129.1850  123.7910   59.1680 C   0  0  0  0  0  0  0  0  0  0  0  0
  128.5800  123.8460   60.4240 C   0  0  0  0  0  0  0  0  0  0  0  0
  129.4170  124.2460   61.4840 N   0  0  0  0  0  0  0  0  0  0  0  0
  129.5240  125.4420   62.1150 C   0  0  0  0  0  0  0  0  0  0  0  0
  128.8540  126.4360   61.8350 O   0  0  0  0  0  0  0  0  0  0  0  0
  130.5170  125.4940   63.1900 C   0  0  0  0  0  0  0  0  0  0  0  0
  132.2140  125.1410   62.8560 S   0  0  0  0  0  0  0  0  0  0  0  0
  132.6500  125.4090   64.5280 C   0  0  0  0  0  0  0  0  0  0  0  0
  133.9070  125.2850   64.9580 N   0  0  0  0  0  0  0  0  0  0  0  0
  134.1110  125.5190   66.2760 C   0  0  0  0  0  0  0  0  0  0  0  0
  135.5490  125.3730   66.7430 C   0  0  0  0  0  0  0  0  0  0  0  0
  133.1000  125.8710   67.1670 C   0  0  0  0  0  0  0  0  0  0  0  0
  131.7830  126.0000   66.7120 C   0  0  0  0  0  0  0  0  0  0  0  0
  130.7180  126.3740   67.6710 C   0  0  0  0  0  0  0  0  0  0  0  0
  129.7840  125.4230   68.0900 C   0  0  0  0  0  0  0  0  0  0  0  0
  128.7830  125.7740   68.9940 C   0  0  0  0  0  0  0  0  0  0  0  0
  128.7170  127.0790   69.4760 C   0  0  0  0  0  0  0  0  0  0  0  0
  129.6420  128.0350   69.0620 C   0  0  0  0  0  0  0  0  0  0  0  0
  130.6410  127.6830   68.1590 C   0  0  0  0  0  0  0  0  0  0  0  0
  131.5260  125.7620   65.3340 C   0  0  0  0  0  0  0  0  0  0  0  0
  130.3230  125.8030   64.5460 C   0  0  0  0  0  0  0  0  0  0  0  0
  129.1030  126.1190   65.0880 N   0  0  0  0  0  0  0  0  0  0  0  0
  127.2230  123.5100   60.5500 C   0  0  0  0  0  0  0  0  0  0  0  0
  126.4930  123.1270   59.4280 C   0  0  0  0  0  0  0  0  0  0  0  0
  1  2  1  0
  2  3  1  0
  3  4  2  0
  3  5  1  0
  5  6  2  0
  6  7  1  0
  7  8  2  0
  8  9  1  0
  9 10  1  0
 10 11  2  0
 10 12  1  0
 12 13  1  0
 13 14  1  0
 14 15  2  0
 15 16  1  0
 16 17  1  0
 16 18  2  0
 18 19  1  0
 19 20  1  0
 20 21  2  0
 21 22  1  0
 22 23  2  0
 23 24  1  0
 24 25  2  0
 19 26  2  0
 26 27  1  0
 27 28  1  0
  8 29  1  0
 29 30  2  0
 30  5  1  0
 27 12  2  0
 26 14  1  0
 25 20  1  0
M  END
>  <Binding energies>  (64) 
[-8.76]

>  <Ligand effiencies>  (64) 
[-0.26545454545454544]

>  <Interactions>  (64) 
["V-B:PRO:540:CB:9857, H-B:TYR:531:OH:9767, V-B:MET:535:CE:9807, V-B:PRO:540:N:9856, V-B:PRO:540:CA:9855, H-B:TYR:539:N:9842, V-B:TYR:531:CE2:9765, V-B:TYR:531:CZ:9766, V-B:LEU:363:CD1:8160, H-A:TYR:484:OH:4347, H-A:GLY:454:N:4049, V-A:GLU:543:CD:4908, H-A:ARG:545:NH2:4928, V-A:GLU:543:C:4902, V-B:HIS:456:CE1:9041, V-A:TYR:484:CZ:4346, V-A:HIS:456:CE1:4069, V-B:GLU:543:CB:9878, V-A:ARG:545:CD:4923, V-A:ILE:455:C:4051, V-B:GLU:543:CG:9879, V-B:GLU:543:CD:9880, H-B:GLU:543:OE2:9882, H-A:ARG:545:NE:4924, V-A:ARG:545:CG:4922, V-A:ARG:545:CZ:4926, H-A:ARG:545:NH1:4927, V-A:GLU:543:CB:4906, V-A:TYR:484:CE2:4345, V-B:GLU:543:CA:9876, V-B:GLU:543:C:9874, H-A:GLU:543:OE1:4909, V-A:GLY:454:CA:4048, V-A:GLY:453:CA:4043, V-A:GLY:453:C:4041, V-A:GLY:454:C:4046, V-A:ILE:455:CA:4053, V-A:ARG:545:CB:4921"]

$$$$
8b_Ghoteimi_2023
     RDKit          3D

 34 38  0  0  0  0  0  0  0  0999 V2000
  130.0980  128.0100   69.5280 C   0  0  0  0  0  0  0  0  0  0  0  0
  131.1630  127.7030   68.6340 O   0  0  0  0  0  0  0  0  0  0  0  0
  130.8980  126.9600   67.5000 C   0  0  0  0  0  0  0  0  0  0  0  0
  129.5550  126.7510   67.1910 C   0  0  0  0  0  0  0  0  0  0  0  0
  129.1930  126.0140   66.0690 C   0  0  0  0  0  0  0  0  0  0  0  0
  130.1680  125.4630   65.2230 C   0  0  0  0  0  0  0  0  0  0  0  0
  129.7840  124.6680   64.0160 C   0  0  0  0  0  0  0  0  0  0  0  0
  130.5460  123.5790   63.5790 C   0  0  0  0  0  0  0  0  0  0  0  0
  130.1660  122.8510   62.4470 C   0  0  0  0  0  0  0  0  0  0  0  0
  131.0000  121.7100   62.0050 C   0  0  0  0  0  0  0  0  0  0  0  0
  130.4590  120.4240   61.9490 C   0  0  0  0  0  0  0  0  0  0  0  0
  131.2410  119.3540   61.5240 C   0  0  0  0  0  0  0  0  0  0  0  0
  132.5720  119.5510   61.1520 C   0  0  0  0  0  0  0  0  0  0  0  0
  133.2710  118.4320   60.7420 O   0  0  0  0  0  0  0  0  0  0  0  0
  134.3620  118.5860   59.8400 C   0  0  0  0  0  0  0  0  0  0  0  0
  133.1140  120.8440   61.2140 C   0  0  0  0  0  0  0  0  0  0  0  0
  132.3310  121.9140   61.6380 C   0  0  0  0  0  0  0  0  0  0  0  0
  128.9840  123.2460   61.7650 C   0  0  0  0  0  0  0  0  0  0  0  0
  128.3120  122.7320   60.5990 C   0  0  0  0  0  0  0  0  0  0  0  0
  128.7810  121.6510   59.8980 N   0  0  0  0  0  0  0  0  0  0  0  0
  127.1460  123.4360   60.2600 C   0  0  0  0  0  0  0  0  0  0  0  0
  126.2230  123.1890   59.1500 C   0  0  0  0  0  0  0  0  0  0  0  0
  125.0110  123.3770   59.2850 O   0  0  0  0  0  0  0  0  0  0  0  0
  126.7980  122.7480   58.0020 N   0  0  0  0  0  0  0  0  0  0  0  0
  126.1660  122.4410   56.8040 C   0  0  0  0  0  0  0  0  0  0  0  0
  125.4570  123.3790   56.0560 C   0  0  0  0  0  0  0  0  0  0  0  0
  124.9900  122.6850   54.9620 C   0  0  0  0  0  0  0  0  0  0  0  0
  125.4010  121.3980   55.0460 O   0  0  0  0  0  0  0  0  0  0  0  0
  126.1470  121.2550   56.2170 N   0  0  0  0  0  0  0  0  0  0  0  0
  126.8500  124.7610   61.3870 S   0  0  0  0  0  0  0  0  0  0  0  0
  128.2860  124.3650   62.3020 C   0  0  0  0  0  0  0  0  0  0  0  0
  128.6490  125.0610   63.3790 N   0  0  0  0  0  0  0  0  0  0  0  0
  131.5160  125.6790   65.5380 C   0  0  0  0  0  0  0  0  0  0  0  0
  131.8820  126.4160   66.6610 C   0  0  0  0  0  0  0  0  0  0  0  0
  1  2  1  0
  2  3  1  0
  3  4  2  0
  4  5  1  0
  5  6  2  0
  6  7  1  0
  7  8  2  0
  8  9  1  0
  9 10  1  0
 10 11  2  0
 11 12  1  0
 12 13  2  0
 13 14  1  0
 14 15  1  0
 13 16  1  0
 16 17  2  0
  9 18  2  0
 18 19  1  0
 19 20  1  0
 19 21  2  0
 21 22  1  0
 22 23  2  0
 22 24  1  0
 24 25  1  0
 25 26  1  0
 26 27  2  0
 27 28  1  0
 28 29  1  0
 21 30  1  0
 30 31  1  0
 31 32  2  0
  6 33  1  0
 33 34  2  0
 34  3  1  0
 32  7  1  0
 17 10  1  0
 31 18  1  0
 29 25  2  0
M  END
>  <Binding energies>  (65) 
[-9.12]

>  <Ligand effiencies>  (65) 
[-0.24648648648648647]

>  <Interactions>  (65) 
["V-B:PRO:540:CB:9857, V-B:MET:535:CE:9807, V-A:ILE:369:CG2:3236, V-B:TYR:539:CD2:9846, V-B:PRO:540:N:9856, V-A:LEU:475:CD1:4257, V-B:PRO:540:CA:9855, V-B:PRO:540:C:9853, H-A:SER:385:OG:3409, H-A:HIS:383:NE2:3393, H-B:TYR:539:N:9842, V-B:ALA:541:CB:9864, V-B:MET:535:CG:9805, V-B:TYR:539:C:9839, V-B:TYR:531:CE2:9765, V-B:TYR:531:CZ:9766, V-B:LEU:363:CD1:8160, V-B:PRO:540:CD:9859, V-A:GLU:543:CD:4908, V-A:SER:385:CA:3406, H-B:TYR:539:O:9840, V-A:SER:385:C:3404, V-A:SER:385:CB:3408, V-A:GLU:543:C:4902, V-A:HIS:456:CE1:4069, V-B:GLU:543:CB:9878, V-B:GLU:543:CG:9879, V-B:GLU:543:CD:9880, V-A:ARG:545:CG:4922, V-A:GLU:543:CB:4906, V-B:ILE:538:CG1:9836, V-A:HIS:383:CD2:3391, V-B:MET:535:CB:9804, H-A:HIS:456:ND1:4066"]

$$$$
9d_Ghoteimi_2023
     RDKit          3D

 38 43  0  0  0  0  0  0  0  0999 V2000
  124.0540  129.9560   63.3430 C   0  0  0  0  0  0  0  0  0  0  0  0
  124.6090  130.6320   64.4630 O   0  0  0  0  0  0  0  0  0  0  0  0
  125.9460  130.8590   64.5460 C   0  0  0  0  0  0  0  0  0  0  0  0
  126.4560  131.9820   64.5440 O   0  0  0  0  0  0  0  0  0  0  0  0
  126.7380  129.6120   64.6350 C   0  0  0  0  0  0  0  0  0  0  0  0
  127.0530  128.6660   63.1810 S   0  0  0  0  0  0  0  0  0  0  0  0
  127.9850  127.5020   64.0930 C   0  0  0  0  0  0  0  0  0  0  0  0
  128.5740  126.4630   63.5020 N   0  0  0  0  0  0  0  0  0  0  0  0
  129.2900  125.6260   64.2970 C   0  0  0  0  0  0  0  0  0  0  0  0
  129.9630  124.4820   63.6080 C   0  0  0  0  0  0  0  0  0  0  0  0
  131.3560  124.4500   63.4820 C   0  0  0  0  0  0  0  0  0  0  0  0
  131.9920  123.3910   62.8400 C   0  0  0  0  0  0  0  0  0  0  0  0
  131.2580  122.3160   62.3120 C   0  0  0  0  0  0  0  0  0  0  0  0
  131.8820  121.2530   61.6500 N   0  0  0  0  0  0  0  0  0  0  0  0
  133.3090  120.9410   61.8710 C   0  0  0  0  0  0  0  0  0  0  0  0
  133.9080  119.9830   60.8210 C   0  0  0  0  0  0  0  0  0  0  0  0
  133.1340  118.7980   60.7470 O   0  0  0  0  0  0  0  0  0  0  0  0
  131.7970  119.0750   60.3640 C   0  0  0  0  0  0  0  0  0  0  0  0
  131.1300  120.0060   61.3990 C   0  0  0  0  0  0  0  0  0  0  0  0
  129.8610  122.3610   62.4280 C   0  0  0  0  0  0  0  0  0  0  0  0
  129.2250  123.4220   63.0670 C   0  0  0  0  0  0  0  0  0  0  0  0
  129.3870  125.8090   65.6780 C   0  0  0  0  0  0  0  0  0  0  0  0
  128.7540  126.8880   66.3060 C   0  0  0  0  0  0  0  0  0  0  0  0
  128.8660  127.0210   67.7830 C   0  0  0  0  0  0  0  0  0  0  0  0
  128.2710  126.0850   68.6310 C   0  0  0  0  0  0  0  0  0  0  0  0
  128.3940  126.2030   70.0130 C   0  0  0  0  0  0  0  0  0  0  0  0
  129.1320  127.2540   70.5820 C   0  0  0  0  0  0  0  0  0  0  0  0
  129.2630  127.4000   71.9650 N   0  0  0  0  0  0  0  0  0  0  0  0
  129.2410  128.7550   72.5490 C   0  0  0  0  0  0  0  0  0  0  0  0
  129.0020  128.7580   74.0740 C   0  0  0  0  0  0  0  0  0  0  0  0
  129.9690  127.9440   74.7190 O   0  0  0  0  0  0  0  0  0  0  0  0
  129.9100  126.5990   74.2660 C   0  0  0  0  0  0  0  0  0  0  0  0
  130.1760  126.5440   72.7470 C   0  0  0  0  0  0  0  0  0  0  0  0
  129.7240  128.1880   69.7210 C   0  0  0  0  0  0  0  0  0  0  0  0
  129.5990  128.0700   68.3400 C   0  0  0  0  0  0  0  0  0  0  0  0
  128.0330  127.8010   65.4870 C   0  0  0  0  0  0  0  0  0  0  0  0
  127.3270  129.0250   65.7620 C   0  0  0  0  0  0  0  0  0  0  0  0
  127.2560  129.5790   67.0140 N   0  0  0  0  0  0  0  0  0  0  0  0
  1  2  1  0
  2  3  1  0
  3  4  2  0
  3  5  1  0
  5  6  1  0
  6  7  1  0
  7  8  2  0
  8  9  1  0
  9 10  1  0
 10 11  2  0
 11 12  1  0
 12 13  2  0
 13 14  1  0
 14 15  1  0
 15 16  1  0
 16 17  1  0
 17 18  1  0
 18 19  1  0
 13 20  1  0
 20 21  2  0
  9 22  2  0
 22 23  1  0
 23 24  1  0
 24 25  2  0
 25 26  1  0
 26 27  2  0
 27 28  1  0
 28 29  1  0
 29 30  1  0
 30 31  1  0
 31 32  1  0
 32 33  1  0
 27 34  1  0
 34 35  2  0
 23 36  2  0
 36 37  1  0
 37 38  1  0
 37  5  2  0
 36  7  1  0
 21 10  1  0
 35 24  1  0
 19 14  1  0
 33 28  1  0
M  END
>  <Binding energies>  (66) 
[-8.06]

>  <Ligand effiencies>  (66) 
[-0.2015]

>  <Interactions>  (66) 
["V-A:ILE:369:CG2:3236, V-B:TYR:539:CD2:9846, V-A:LEU:475:CD1:4257, H-A:SER:385:OG:3409, H-A:HIS:383:NE2:3393, V-B:ALA:541:CB:9864, V-B:ASP:366:CG:8184, H-B:GLY:454:N:9021, V-B:ARG:545:CZ:9898, V-A:GLU:543:CD:4908, H-B:TYR:484:OH:9319, V-A:SER:385:CA:3406, V-A:SER:385:C:3404, V-A:GLU:543:C:4902, V-B:HIS:456:CE1:9041, V-A:HIS:456:CE1:4069, V-B:GLU:543:CB:9878, V-B:GLU:543:CG:9879, V-B:GLU:543:CD:9880, V-A:GLU:543:CB:4906, V-B:TYR:484:CZ:9318, V-B:TYR:484:CE2:9317, V-B:GLU:543:CA:9876, V-B:GLU:543:C:9874, V-B:HIS:456:CD2:9039, H-A:LYS:547:NZ:4951, V-A:HIS:456:CG:4065, V-A:HIS:456:CD2:4067"]

$$$$
RR10_Rahimova_2017
     RDKit          3D

 34 38  0  0  0  0  0  0  0  0999 V2000
  132.1270  132.3900   56.2520 C   0  0  0  0  0  0  0  0  0  0  0  0
  130.6740  132.0860   55.8460 C   0  0  1  0  0  0  0  0  0  0  0  0
  130.6020  131.1130   54.6470 C   0  0  0  0  0  0  0  0  0  0  0  0
  129.1360  130.8490   54.2350 C   0  0  0  0  0  0  0  0  0  0  0  0
  128.2940  130.2780   55.4050 C   0  0  1  0  0  0  0  0  0  0  0  0
  128.7340  128.9190   55.7480 N   0  0  0  0  0  0  0  0  0  0  0  0
  129.2630  128.0300   54.8870 C   0  0  0  0  0  0  0  0  0  0  0  0
  129.4570  128.2820   53.6950 O   0  0  0  0  0  0  0  0  0  0  0  0
  129.6160  126.6390   55.4550 C   0  0  1  0  0  0  0  0  0  0  0  0
  130.9710  126.7190   56.2050 C   0  0  0  0  0  0  0  0  0  0  0  0
  131.2840  125.3490   56.8540 C   0  0  0  0  0  0  0  0  0  0  0  0
  130.1160  124.8240   57.7210 C   0  0  0  0  0  0  0  0  0  0  0  0
  128.8420  124.8400   56.9510 N   0  0  0  0  0  0  0  0  0  0  0  0
  127.5010  123.9870   57.7340 S   0  0  0  0  0  0  0  0  0  0  0  0
  127.9530  122.6280   58.0590 O   0  0  0  0  0  0  0  0  0  0  0  0
  126.2990  124.1900   56.9160 O   0  0  0  0  0  0  0  0  0  0  0  0
  127.2570  124.8360   59.2940 C   0  0  0  0  0  0  0  0  0  0  0  0
  127.4930  124.1520   60.4900 C   0  0  0  0  0  0  0  0  0  0  0  0
  127.3190  124.7550   61.7390 C   0  0  0  0  0  0  0  0  0  0  0  0
  126.8960  126.0870   61.7350 C   0  0  0  0  0  0  0  0  0  0  0  0
  126.6140  127.0000   62.7230 N   0  0  0  0  0  0  0  0  0  0  0  0
  126.2330  128.1780   62.1170 C   0  0  0  0  0  0  0  0  0  0  0  0
  125.8360  129.4130   62.8750 C   0  0  0  0  0  0  0  0  0  0  0  0
  124.9310  130.3270   62.3190 C   0  0  0  0  0  0  0  0  0  0  0  0
  124.5600  131.4700   63.0220 C   0  0  0  0  0  0  0  0  0  0  0  0
  125.0940  131.7060   64.2860 C   0  0  0  0  0  0  0  0  0  0  0  0
  125.9950  130.8080   64.8520 C   0  0  0  0  0  0  0  0  0  0  0  0
  126.3650  129.6650   64.1480 C   0  0  0  0  0  0  0  0  0  0  0  0
  126.2560  128.0870   60.8050 N   0  0  0  0  0  0  0  0  0  0  0  0
  126.6590  126.8050   60.5390 C   0  0  0  0  0  0  0  0  0  0  0  0
  126.8450  126.1740   59.3000 C   0  0  0  0  0  0  0  0  0  0  0  0
  128.4910  126.1790   56.4150 C   0  0  0  0  0  0  0  0  0  0  0  0
  128.3900  131.2560   56.6070 C   0  0  0  0  0  0  0  0  0  0  0  0
  129.8540  131.5150   57.0270 C   0  0  0  0  0  0  0  0  0  0  0  0
  2  1  1  1
  2  3  1  0
  3  4  1  0
  4  5  1  0
  5  6  1  1
  6  7  1  0
  7  8  2  0
  9  7  1  1
  9 10  1  0
 10 11  1  0
 11 12  1  0
 12 13  1  0
 13 14  1  0
 14 15  2  0
 14 16  2  0
 14 17  1  0
 17 18  2  0
 18 19  1  0
 19 20  2  0
 20 21  1  0
 21 22  1  0
 22 23  1  0
 23 24  2  0
 24 25  1  0
 25 26  2  0
 26 27  1  0
 27 28  2  0
 22 29  2  0
 29 30  1  0
 30 31  2  0
 13 32  1  0
  5 33  1  0
 33 34  1  0
 34  2  1  0
 32  9  1  0
 31 17  1  0
 30 20  1  0
 28 23  1  0
M  END
>  <Binding energies>  (67) 
[-9.77]

>  <Ligand effiencies>  (67) 
[-0.2713888888888889]

>  <Interactions>  (67) 
["H-B:TYR:531:OH:9767, V-B:MET:535:CE:9807, V-A:PRO:540:N:4884, V-A:ILE:538:CA:4860, V-A:ILE:538:CG2:4863, V-A:TYR:539:CD1:4873, V-A:PRO:540:CA:4883, H-A:TYR:531:OH:4795, V-A:TYR:539:CZ:4877, V-A:PRO:540:CB:4885, V-A:TYR:539:CE1:4875, V-A:TYR:531:CZ:4794, V-A:ILE:538:CB:4862, V-B:ASP:366:CG:8184, V-B:ARG:545:CZ:9898, V-A:PRO:540:CD:4887, V-A:LEU:363:CD1:3188, V-B:ILE:369:CD1:8210, V-B:GLY:454:CA:9020, V-B:TYR:539:CZ:9849, H-B:GLU:543:OE1:9881, V-B:GLU:543:CD:9880, H-B:GLU:543:OE2:9882, V-A:PRO:540:CG:4886, V-B:LEU:475:CD1:9229"]

$$$$
RR12_Rahimova_2017
     RDKit          3D

 26 28  0  0  0  0  0  0  0  0999 V2000
  126.6060  122.6990   57.1840 C   0  0  0  0  0  0  0  0  0  0  0  0
  128.0880  123.0270   57.4080 C   0  0  0  0  0  0  0  0  0  0  0  0
  128.3710  124.5400   57.3670 C   0  0  0  0  0  0  0  0  0  0  0  0
  129.7950  124.7950   57.1600 N   0  0  0  0  0  0  0  0  0  0  0  0
  130.3770  125.5830   56.1790 C   0  0  0  0  0  0  0  0  0  0  0  0
  129.5950  126.2990   55.0920 C   0  0  0  0  0  0  0  0  0  0  0  0
  129.3400  127.7790   55.4300 C   0  0  0  0  0  0  0  0  0  0  0  0
  129.4950  128.7040   54.2070 C   0  0  0  0  0  0  0  0  0  0  0  0
  129.5970  130.1220   54.5490 N   0  0  0  0  0  0  0  0  0  0  0  0
  128.5590  130.9750   54.6200 C   0  0  0  0  0  0  0  0  0  0  0  0
  127.3930  130.6410   54.3960 O   0  0  0  0  0  0  0  0  0  0  0  0
  128.9100  132.4170   55.0080 C   0  0  0  0  0  0  0  0  0  0  0  0
  130.3020  132.5020   55.3190 O   0  0  0  0  0  0  0  0  0  0  0  0
  130.7590  131.9940   56.5200 C   0  0  0  0  0  0  0  0  0  0  0  0
  132.0880  131.5650   56.5460 C   0  0  0  0  0  0  0  0  0  0  0  0
  132.6400  131.0410   57.7130 C   0  0  0  0  0  0  0  0  0  0  0  0
  131.8590  130.9460   58.8610 C   0  0  0  0  0  0  0  0  0  0  0  0
  130.5310  131.3670   58.8520 C   0  0  0  0  0  0  0  0  0  0  0  0
  129.9810  131.8900   57.6850 C   0  0  0  0  0  0  0  0  0  0  0  0
  131.6830  125.6400   56.2670 N   0  0  0  0  0  0  0  0  0  0  0  0
  131.9950  124.8850   57.3630 C   0  0  0  0  0  0  0  0  0  0  0  0
  133.2540  124.6160   57.9210 C   0  0  0  0  0  0  0  0  0  0  0  0
  133.3110  123.8120   59.0590 C   0  0  0  0  0  0  0  0  0  0  0  0
  132.1530  123.2850   59.6320 C   0  0  0  0  0  0  0  0  0  0  0  0
  130.8860  123.5330   59.1000 C   0  0  0  0  0  0  0  0  0  0  0  0
  130.8300  124.3400   57.9570 C   0  0  0  0  0  0  0  0  0  0  0  0
  1  2  1  0
  2  3  1  0
  3  4  1  0
  4  5  1  0
  5  6  1  0
  6  7  1  0
  7  8  1  0
  8  9  1  0
  9 10  1  0
 10 11  2  0
 10 12  1  0
 12 13  1  0
 13 14  1  0
 14 15  2  0
 15 16  1  0
 16 17  2  0
 17 18  1  0
 18 19  2  0
  5 20  2  0
 20 21  1  0
 21 22  2  0
 22 23  1  0
 23 24  2  0
 24 25  1  0
 25 26  2  0
 26  4  1  0
 19 14  1  0
 26 21  1  0
M  END
>  <Binding energies>  (68) 
[-7.66]

>  <Ligand effiencies>  (68) 
[-0.28370370370370374]

>  <Interactions>  (68) 
["V-B:MET:535:CE:9807, V-A:ILE:369:CG2:3236, V-B:PRO:540:N:9856, V-B:PRO:540:CA:9855, V-B:TYR:539:CE2:9848, V-A:ASP:366:CG:3212, V-A:PRO:540:N:4884, V-A:ILE:538:CA:4860, V-A:ASP:366:CA:3209, V-A:ASP:366:CB:3211, V-A:TYR:539:CG:4872, V-A:ILE:538:CG2:4863, V-A:ASP:366:C:3207, H-B:TYR:539:OH:9850, V-A:TYR:539:CD1:4873, V-A:TYR:539:CE2:4876, V-A:PRO:540:CA:4883, H-A:TYR:531:OH:4795, H-A:TYR:539:N:4870, V-A:TYR:539:CZ:4877, V-A:TYR:539:CD2:4874, V-A:PRO:540:CB:4885, V-A:TYR:539:CE1:4875, V-A:TYR:531:CZ:4794, V-A:ILE:538:CB:4862, H-B:LYS:534:NZ:9795, V-A:TYR:539:C:4867, V-A:LEU:363:CD1:3188, V-B:TYR:539:CZ:9849, H-A:TYR:539:OH:4878, V-A:ILE:538:C:4858"]

$$$$
RR13_Rahimova_2017
     RDKit          3D

 48 54  0  0  0  0  0  0  0  0999 V2000
  133.3310  131.0150   58.1220 Cl  0  0  0  0  0  0  0  0  0  0  0  0
  131.8850  130.8750   57.1800 C   0  0  0  0  0  0  0  0  0  0  0  0
  131.8490  131.5250   55.9440 C   0  0  0  0  0  0  0  0  0  0  0  0
  130.7070  131.4690   55.1490 C   0  0  0  0  0  0  0  0  0  0  0  0
  129.5900  130.7620   55.5870 C   0  0  0  0  0  0  0  0  0  0  0  0
  129.6190  130.1110   56.8190 C   0  0  0  0  0  0  0  0  0  0  0  0
  130.7650  130.1470   57.6290 C   0  0  0  0  0  0  0  0  0  0  0  0
  130.7620  129.4380   59.0020 C   0  0  1  0  0  0  0  0  0  0  0  0
  130.6940  130.4570   60.1490 C   0  0  0  0  0  0  0  0  0  0  0  0
  131.5660  130.6040   61.1220 N   0  0  0  0  0  0  0  0  0  0  0  0
  131.0700  131.6230   61.9280 N   0  0  0  0  0  0  0  0  0  0  0  0
  129.8650  132.0780   61.4300 N   0  0  0  0  0  0  0  0  0  0  0  0
  129.6430  131.3260   60.3460 N   0  0  0  0  0  0  0  0  0  0  0  0
  128.4600  131.5500   59.5230 C   0  0  0  0  0  0  0  0  0  0  0  0
  127.2430  130.8260   60.1290 C   0  0  0  0  0  0  0  0  0  0  0  0
  126.1850  130.5060   59.0840 C   0  0  0  0  0  0  0  0  0  0  0  0
  124.8660  130.9240   59.2770 C   0  0  0  0  0  0  0  0  0  0  0  0
  123.8970  130.6240   58.3230 C   0  0  0  0  0  0  0  0  0  0  0  0
  124.2510  129.9080   57.1810 C   0  0  0  0  0  0  0  0  0  0  0  0
  125.5640  129.4880   56.9840 C   0  0  0  0  0  0  0  0  0  0  0  0
  126.5340  129.7870   57.9380 C   0  0  0  0  0  0  0  0  0  0  0  0
  129.7260  128.3840   59.1200 N   0  0  0  0  0  0  0  0  0  0  0  0
  129.3810  128.1540   60.5350 C   0  0  0  0  0  0  0  0  0  0  0  0
  128.2090  127.1530   60.6590 C   0  0  0  0  0  0  0  0  0  0  0  0
  128.5740  125.8500   60.0790 N   0  0  0  0  0  0  0  0  0  0  0  0
  127.5090  124.8350   60.2490 C   0  0  1  0  0  0  0  0  0  0  0  0
  127.0630  124.1150   58.9580 C   0  0  0  0  0  0  0  0  0  0  0  0
  127.7200  122.9200   58.6320 C   0  0  0  0  0  0  0  0  0  0  0  0
  127.3720  122.1930   57.4940 C   0  0  0  0  0  0  0  0  0  0  0  0
  126.3610  122.6560   56.6570 C   0  0  0  0  0  0  0  0  0  0  0  0
  125.7070  123.8490   56.9540 C   0  0  0  0  0  0  0  0  0  0  0  0
  126.0510  124.5870   58.0900 C   0  0  0  0  0  0  0  0  0  0  0  0
  125.2270  126.0910   58.3340 Cl  0  0  0  0  0  0  0  0  0  0  0  0
  127.8230  123.8100   61.3410 C   0  0  0  0  0  0  0  0  0  0  0  0
  126.9400  123.2420   62.1300 N   0  0  0  0  0  0  0  0  0  0  0  0
  127.6590  122.3760   62.9470 N   0  0  0  0  0  0  0  0  0  0  0  0
  128.9990  122.4220   62.6220 N   0  0  0  0  0  0  0  0  0  0  0  0
  129.0740  123.2980   61.6140 N   0  0  0  0  0  0  0  0  0  0  0  0
  130.3680  123.6200   61.0200 C   0  0  0  0  0  0  0  0  0  0  0  0
  130.6900  122.6440   59.8740 C   0  0  0  0  0  0  0  0  0  0  0  0
  131.2580  121.3280   60.3830 C   0  0  0  0  0  0  0  0  0  0  0  0
  132.6410  121.1290   60.4100 C   0  0  0  0  0  0  0  0  0  0  0  0
  133.1610  119.9270   60.8830 C   0  0  0  0  0  0  0  0  0  0  0  0
  132.2970  118.9280   61.3260 C   0  0  0  0  0  0  0  0  0  0  0  0
  130.9160  119.1210   61.3020 C   0  0  0  0  0  0  0  0  0  0  0  0
  130.3960  120.3230   60.8300 C   0  0  0  0  0  0  0  0  0  0  0  0
  128.9130  126.0840   58.6640 C   0  0  0  0  0  0  0  0  0  0  0  0
  130.0920  127.0770   58.5470 C   0  0  0  0  0  0  0  0  0  0  0  0
  1  2  1  0
  2  3  2  0
  3  4  1  0
  4  5  2  0
  5  6  1  0
  6  7  2  0
  7  8  1  0
  8  9  1  0
  9 10  2  0
 10 11  1  0
 11 12  2  0
 12 13  1  0
 13 14  1  0
 14 15  1  0
 15 16  1  0
 16 17  2  0
 17 18  1  0
 18 19  2  0
 19 20  1  0
 20 21  2  0
  8 22  1  6
 22 23  1  0
 23 24  1  0
 24 25  1  0
 26 25  1  6
 26 27  1  0
 27 28  2  0
 28 29  1  0
 29 30  2  0
 30 31  1  0
 31 32  2  0
 32 33  1  0
 26 34  1  0
 34 35  2  0
 35 36  1  0
 36 37  2  0
 37 38  1  0
 38 39  1  0
 39 40  1  0
 40 41  1  0
 41 42  2  0
 42 43  1  0
 43 44  2  0
 44 45  1  0
 45 46  2  0
 25 47  1  0
 47 48  1  0
  7  2  1  0
 13  9  1  0
 21 16  1  0
 48 22  1  0
 32 27  1  0
 38 34  1  0
 46 41  1  0
M  END
>  <Binding energies>  (69) 
[-12.64]

>  <Ligand effiencies>  (69) 
[-0.26333333333333336]

>  <Interactions>  (69) 
["H-B:ALA:541:N:9863, V-B:MET:535:CE:9807, V-A:ILE:369:CG2:3236, V-B:TYR:539:CD2:9846, V-B:PRO:540:N:9856, V-A:LEU:475:CD1:4257, V-B:PRO:540:CA:9855, V-B:TYR:539:CE2:9848, V-B:TYR:539:C:9839, V-B:TYR:531:CE2:9765, V-B:TYR:531:CZ:9766, V-B:LEU:363:CD1:8160, V-A:ILE:538:CG2:4863, V-A:TYR:539:CD1:4873, V-A:PRO:540:CA:4883, V-A:TYR:539:CZ:4877, V-A:PRO:540:CB:4885, V-A:TYR:539:CE1:4875, V-A:ILE:538:CB:4862, V-B:ASP:366:CG:8184, V-B:TYR:531:CE1:9764, V-B:ASP:366:CB:8183, V-B:ASP:366:CA:8181, V-A:LEU:363:CD1:3188, V-B:ASP:366:C:8179, H-A:ALA:541:N:4891, V-A:LEU:363:CA:3184, V-A:LEU:363:CB:3186, V-B:ILE:369:CG2:8208, V-B:ILE:369:CB:8207"]

$$$$
RR14_Rahimova_2017
     RDKit          3D

 39 43  0  0  0  0  0  0  0  0999 V2000
  129.4640  130.7850   62.2320 C   0  0  0  0  0  0  0  0  0  0  0  0
  130.0960  131.8080   61.4700 O   0  0  0  0  0  0  0  0  0  0  0  0
  130.2760  131.6220   60.1130 C   0  0  0  0  0  0  0  0  0  0  0  0
  129.2560  132.0830   59.2800 C   0  0  0  0  0  0  0  0  0  0  0  0
  129.3370  131.9180   57.9010 C   0  0  0  0  0  0  0  0  0  0  0  0
  130.4460  131.2800   57.3390 C   0  0  0  0  0  0  0  0  0  0  0  0
  130.5080  131.0390   55.8350 C   0  0  0  0  0  0  0  0  0  0  0  0
  129.1960  130.8100   55.2310 N   0  0  0  0  0  0  0  0  0  0  0  0
  128.4190  131.8440   54.8890 N   0  0  0  0  0  0  0  0  0  0  0  0
  127.2680  131.2680   54.3880 N   0  0  0  0  0  0  0  0  0  0  0  0
  127.3660  129.8810   54.4410 N   0  0  0  0  0  0  0  0  0  0  0  0
  128.5420  129.6260   54.9630 C   0  0  0  0  0  0  0  0  0  0  0  0
  129.0950  128.2360   55.2440 C   0  0  0  0  0  0  0  0  0  0  0  0
  129.0560  127.8940   56.6760 N   0  0  0  0  0  0  0  0  0  0  0  0
  128.4640  126.5700   56.9080 C   0  0  0  0  0  0  0  0  0  0  0  0
  127.7230  126.4590   58.2580 C   0  0  0  0  0  0  0  0  0  0  0  0
  126.5150  125.4990   58.2250 C   0  0  0  0  0  0  0  0  0  0  0  0
  126.7290  124.3270   57.3700 N   0  0  0  0  0  0  0  0  0  0  0  0
  125.4450  123.6970   57.0370 C   0  0  0  0  0  0  0  0  0  0  0  0
  125.6380  122.4280   56.1800 C   0  0  0  0  0  0  0  0  0  0  0  0
  126.5280  121.5280   56.8320 O   0  0  0  0  0  0  0  0  0  0  0  0
  127.8110  122.1030   57.0520 C   0  0  0  0  0  0  0  0  0  0  0  0
  127.6830  123.3610   57.9380 C   0  0  0  0  0  0  0  0  0  0  0  0
  130.4090  127.9610   57.2480 C   0  0  0  0  0  0  0  0  0  0  0  0
  130.8740  126.7260   58.0170 C   0  0  0  0  0  0  0  0  0  0  0  0
  130.8380  126.6920   59.3720 C   0  0  0  0  0  0  0  0  0  0  0  0
  131.3190  125.5260   60.1410 C   0  0  0  0  0  0  0  0  0  0  0  0
  131.2790  125.4480   61.5430 C   0  0  0  0  0  0  0  0  0  0  0  0
  130.7240  126.5860   62.3900 C   0  0  0  0  0  0  0  0  0  0  0  0
  131.7580  124.2970   62.1740 C   0  0  0  0  0  0  0  0  0  0  0  0
  132.2690  123.2370   61.4280 C   0  0  0  0  0  0  0  0  0  0  0  0
  132.3110  123.3030   60.0330 C   0  0  0  0  0  0  0  0  0  0  0  0
  132.8740  122.1270   59.2450 C   0  0  0  0  0  0  0  0  0  0  0  0
  131.8330  124.4550   59.3880 C   0  0  0  0  0  0  0  0  0  0  0  0
  131.8580  124.5680   57.9820 N   0  0  0  0  0  0  0  0  0  0  0  0
  131.4290  125.6170   57.2360 C   0  0  0  0  0  0  0  0  0  0  0  0
  131.5250  125.5890   56.0090 O   0  0  0  0  0  0  0  0  0  0  0  0
  131.4860  130.8420   58.1610 C   0  0  0  0  0  0  0  0  0  0  0  0
  131.4020  131.0070   59.5400 C   0  0  0  0  0  0  0  0  0  0  0  0
  1  2  1  0
  2  3  1  0
  3  4  2  0
  4  5  1  0
  5  6  2  0
  6  7  1  0
  7  8  1  0
  8  9  1  0
  9 10  2  0
 10 11  1  0
 11 12  2  0
 12 13  1  0
 13 14  1  0
 14 15  1  0
 15 16  1  0
 16 17  1  0
 17 18  1  0
 18 19  1  0
 19 20  1  0
 20 21  1  0
 21 22  1  0
 22 23  1  0
 14 24  1  0
 24 25  1  0
 25 26  2  0
 26 27  1  0
 27 28  2  0
 28 29  1  0
 28 30  1  0
 30 31  2  0
 31 32  1  0
 32 33  1  0
 32 34  2  0
 34 35  1  0
 35 36  1  0
 36 37  2  0
  6 38  1  0
 38 39  2  0
 39  3  1  0
 12  8  1  0
 23 18  1  0
 36 25  1  0
 34 27  1  0
M  END
>  <Binding energies>  (70) 
[-10.46]

>  <Ligand effiencies>  (70) 
[-0.2615]

>  <Interactions>  (70) 
["H-B:TYR:531:OH:9767, V-B:MET:535:CE:9807, V-A:ILE:369:CG2:3236, V-B:TYR:539:CD2:9846, V-B:PRO:540:N:9856, H-B:TYR:539:N:9842, V-B:TYR:539:CE2:9848, V-B:TYR:539:C:9839, V-B:TYR:531:CE2:9765, V-B:TYR:531:CZ:9766, V-B:LEU:363:CD1:8160, V-B:TYR:539:CA:9841, V-A:ASP:366:CG:3212, V-A:PRO:540:N:4884, H-B:TYR:539:OH:9850, V-A:TYR:539:CD1:4873, V-A:PRO:540:CA:4883, H-A:TYR:531:OH:4795, V-A:PRO:540:CB:4885, V-A:TYR:539:CE1:4875, H-B:LYS:534:NZ:9795, V-A:ALA:541:CB:4892, V-A:PRO:540:C:4881, V-A:TYR:539:C:4867, V-A:GLU:543:CG:4907, V-A:GLU:543:CD:4908, V-B:TYR:539:CZ:9849, H-A:TYR:539:OH:4878, V-B:TYR:539:CG:9844, V-B:TYR:539:CE1:9847, V-B:TYR:539:CD1:9845, H-A:ALA:541:N:4891"]

$$$$
RR15_Rahimova_2017
     RDKit          3D

 45 49  0  0  0  0  0  0  0  0999 V2000
  134.0770  120.5470   61.4700 C   0  0  0  0  0  0  0  0  0  0  0  0
  133.7640  121.9200   61.6800 O   0  0  0  0  0  0  0  0  0  0  0  0
  133.3140  122.6860   60.6190 C   0  0  0  0  0  0  0  0  0  0  0  0
  134.1470  123.5090   59.8450 C   0  0  0  0  0  0  0  0  0  0  0  0
  133.6290  124.2570   58.7910 C   0  0  0  0  0  0  0  0  0  0  0  0
  132.2660  124.2070   58.4810 C   0  0  0  0  0  0  0  0  0  0  0  0
  131.7050  125.0200   57.3470 C   0  0  0  0  0  0  0  0  0  0  0  0
  132.4320  125.4040   56.3060 N   0  0  0  0  0  0  0  0  0  0  0  0
  131.5830  126.1280   55.4930 N   0  0  0  0  0  0  0  0  0  0  0  0
  130.4110  126.0630   56.1260 N   0  0  0  0  0  0  0  0  0  0  0  0
  129.2520  126.8400   55.6910 C   0  0  0  0  0  0  0  0  0  0  0  0
  128.9400  128.0840   56.5610 C   0  0  0  0  0  0  0  0  0  0  0  0
  129.8280  128.9260   56.7130 O   0  0  0  0  0  0  0  0  0  0  0  0
  127.6940  128.2320   57.1070 N   0  0  0  0  0  0  0  0  0  0  0  0
  127.3150  127.5380   58.3540 C   0  0  0  0  0  0  0  0  0  0  0  0
  126.0320  126.6900   58.2230 C   0  0  0  0  0  0  0  0  0  0  0  0
  126.1580  125.2380   58.7420 C   0  0  0  0  0  0  0  0  0  0  0  0
  126.5420  124.2730   57.7060 N   0  0  0  0  0  0  0  0  0  0  0  0
  127.6370  123.3790   58.1120 C   0  0  0  0  0  0  0  0  0  0  0  0
  127.9430  122.3300   57.0230 C   0  0  0  0  0  0  0  0  0  0  0  0
  126.7610  121.6130   56.6850 O   0  0  0  0  0  0  0  0  0  0  0  0
  125.7320  122.4650   56.1920 C   0  0  0  0  0  0  0  0  0  0  0  0
  125.3630  123.5170   57.2610 C   0  0  0  0  0  0  0  0  0  0  0  0
  126.6960  129.2330   56.6190 C   0  0  2  0  0  0  0  0  0  0  0  0
  127.1870  130.0800   55.4030 C   0  0  0  0  0  0  0  0  0  0  0  0
  126.5580  130.0950   54.3450 O   0  0  0  0  0  0  0  0  0  0  0  0
  128.2990  130.8060   55.6110 N   0  0  0  0  0  0  0  0  0  0  0  0
  128.8830  131.7460   54.6600 C   0  0  0  0  0  0  0  0  0  0  0  0
  130.1250  132.4380   55.2530 C   0  0  2  0  0  0  0  0  0  0  0  0
  131.4410  131.6500   55.1300 C   0  0  0  0  0  0  0  0  0  0  0  0
  131.6500  131.0460   56.4970 C   0  0  0  0  0  0  0  0  0  0  0  0
  131.0560  132.1190   57.3930 C   0  0  0  0  0  0  0  0  0  0  0  0
  129.8990  132.5200   56.6670 O   0  0  0  0  0  0  0  0  0  0  0  0
  126.0700  129.9830   57.7890 C   0  0  0  0  0  0  0  0  0  0  0  0
  124.6730  130.0120   57.8820 C   0  0  0  0  0  0  0  0  0  0  0  0
  124.0460  130.6820   58.9290 C   0  0  0  0  0  0  0  0  0  0  0  0
  124.8130  131.3280   59.8940 C   0  0  0  0  0  0  0  0  0  0  0  0
  124.2040  131.9770   60.9110 F   0  0  0  0  0  0  0  0  0  0  0  0
  126.2030  131.3080   59.8190 C   0  0  0  0  0  0  0  0  0  0  0  0
  126.8300  130.6390   58.7710 C   0  0  0  0  0  0  0  0  0  0  0  0
  130.4480  125.4210   57.3000 N   0  0  0  0  0  0  0  0  0  0  0  0
  131.4370  123.3840   59.2530 C   0  0  0  0  0  0  0  0  0  0  0  0
  131.9460  122.6200   60.3180 C   0  0  0  0  0  0  0  0  0  0  0  0
  131.1680  121.7900   61.1070 O   0  0  0  0  0  0  0  0  0  0  0  0
  129.7930  121.6030   60.7890 C   0  0  0  0  0  0  0  0  0  0  0  0
  1  2  1  0
  2  3  1  0
  3  4  2  0
  4  5  1  0
  5  6  2  0
  6  7  1  0
  7  8  1  0
  8  9  2  0
  9 10  1  0
 10 11  1  0
 11 12  1  0
 12 13  2  0
 12 14  1  0
 14 15  1  0
 15 16  1  0
 16 17  1  0
 17 18  1  0
 18 19  1  0
 19 20  1  0
 20 21  1  0
 21 22  1  0
 22 23  1  0
 24 14  1  1
 24 25  1  0
 25 26  2  0
 25 27  1  0
 27 28  1  0
 29 28  1  6
 29 30  1  0
 30 31  1  0
 31 32  1  0
 32 33  1  0
 24 34  1  0
 34 35  2  0
 35 36  1  0
 36 37  2  0
 37 38  1  0
 37 39  1  0
 39 40  2  0
 10 41  1  0
  6 42  1  0
 42 43  2  0
 43 44  1  0
 44 45  1  0
 43  3  1  0
 41  7  2  0
 23 18  1  0
 33 29  1  0
 40 34  1  0
M  END
>  <Binding energies>  (71) 
[-11.12]

>  <Ligand effiencies>  (71) 
[-0.2417391304347826]

>  <Interactions>  (71) 
["H-B:TYR:531:OH:9767, V-B:MET:535:CE:9807, V-A:ILE:369:CG2:3236, V-B:TYR:539:CD2:9846, V-B:PRO:540:N:9856, V-A:LEU:475:CD1:4257, H-B:TYR:539:N:9842, V-B:TYR:539:CE2:9848, V-B:TYR:539:C:9839, V-B:TYR:531:CE2:9765, V-B:TYR:531:CZ:9766, V-B:LEU:363:CD1:8160, V-A:ASP:366:CG:3212, V-A:PRO:540:N:4884, V-A:ILE:538:CA:4860, V-A:ASP:366:CA:3209, V-A:ASP:366:CB:3211, V-A:ILE:538:CG2:4863, V-A:ASP:366:C:3207, H-B:TYR:539:OH:9850, V-A:TYR:539:CD1:4873, V-A:TYR:539:CE2:4876, V-A:PRO:540:CA:4883, H-A:TYR:531:OH:4795, H-A:TYR:539:N:4870, V-A:TYR:539:CZ:4877, V-A:PRO:540:CB:4885, V-A:TYR:539:CE1:4875, V-A:TYR:531:CZ:4794, V-A:ILE:538:CB:4862, V-B:ASP:366:CG:8184, V-B:TYR:531:CE1:9764, H-B:LYS:534:NZ:9795, V-B:ASP:366:CB:8183, V-A:PRO:540:CD:4887, V-B:ASP:366:CA:8181, V-A:TYR:539:C:4867, V-A:LEU:363:CD1:3188, V-B:ILE:369:CD1:8210, V-B:ASP:366:C:8179, V-A:ILE:369:CD1:3238, V-B:TYR:539:CZ:9849, H-A:TYR:539:OH:4878, V-A:ILE:369:CB:3235, V-A:SER:385:C:3404, V-B:TYR:539:CG:9844, V-B:TYR:539:CE1:9847, V-B:TYR:539:CD1:9845, V-A:ILE:538:C:4858, V-A:TYR:531:CE2:4793, V-B:ILE:369:CG2:8208, V-B:ILE:369:CB:8207"]

$$$$
RR17_Rahimova_2017
     RDKit          3D

 38 41  0  0  0  0  0  0  0  0999 V2000
  130.6730  117.1610   59.9350 C   0  0  0  0  0  0  0  0  0  0  0  0
  131.3510  117.6440   61.2200 C   0  0  0  0  0  0  0  0  0  0  0  0
  132.5730  118.2910   60.8770 O   0  0  0  0  0  0  0  0  0  0  0  0
  132.5900  119.6630   60.7090 C   0  0  0  0  0  0  0  0  0  0  0  0
  133.7690  120.3190   61.0580 C   0  0  0  0  0  0  0  0  0  0  0  0
  133.8790  121.7000   60.9250 C   0  0  0  0  0  0  0  0  0  0  0  0
  132.8040  122.4570   60.4380 C   0  0  0  0  0  0  0  0  0  0  0  0
  132.9520  123.9450   60.3040 C   0  0  0  0  0  0  0  0  0  0  0  0
  133.1690  124.4930   59.2190 O   0  0  0  0  0  0  0  0  0  0  0  0
  132.8360  124.7810   61.5980 C   0  0  0  0  0  0  0  0  0  0  0  0
  133.8290  124.0770   62.9640 S   0  0  0  0  0  0  0  0  0  0  0  0
  132.9620  124.7560   64.3510 C   0  0  0  0  0  0  0  0  0  0  0  0
  133.5150  125.4060   65.3480 N   0  0  0  0  0  0  0  0  0  0  0  0
  132.5040  125.7800   66.2250 N   0  0  0  0  0  0  0  0  0  0  0  0
  131.3760  125.3450   65.7210 C   0  0  0  0  0  0  0  0  0  0  0  0
  130.0100  125.5500   66.3580 C   0  0  0  0  0  0  0  0  0  0  0  0
  129.8390  126.8610   66.9790 N   0  0  0  0  0  0  0  0  0  0  0  0
  129.6250  127.0510   68.3560 C   0  0  0  0  0  0  0  0  0  0  0  0
  128.9910  126.0240   69.0550 C   0  0  0  0  0  0  0  0  0  0  0  0
  128.7440  126.1490   70.4190 C   0  0  0  0  0  0  0  0  0  0  0  0
  129.1320  127.3050   71.1020 C   0  0  0  0  0  0  0  0  0  0  0  0
  128.8470  127.4290   72.5990 C   0  0  0  0  0  0  0  0  0  0  0  0
  129.9210  127.1530   73.3420 F   0  0  0  0  0  0  0  0  0  0  0  0
  128.4480  128.6670   72.8960 F   0  0  0  0  0  0  0  0  0  0  0  0
  127.8780  126.5760   72.9310 F   0  0  0  0  0  0  0  0  0  0  0  0
  129.7750  128.3330   70.4050 C   0  0  0  0  0  0  0  0  0  0  0  0
  130.0230  128.2060   69.0410 C   0  0  0  0  0  0  0  0  0  0  0  0
  131.5970  124.6740   64.5360 N   0  0  0  0  0  0  0  0  0  0  0  0
  130.6460  124.0760   63.6960 C   0  0  0  0  0  0  0  0  0  0  0  0
  130.6480  122.6910   63.5320 C   0  0  0  0  0  0  0  0  0  0  0  0
  129.7060  122.0980   62.6960 C   0  0  0  0  0  0  0  0  0  0  0  0
  128.7600  122.8880   62.0220 C   0  0  0  0  0  0  0  0  0  0  0  0
  127.7900  122.3870   61.1750 O   0  0  0  0  0  0  0  0  0  0  0  0
  126.5890  123.1270   60.9800 C   0  0  0  0  0  0  0  0  0  0  0  0
  128.7750  124.2730   62.1970 C   0  0  0  0  0  0  0  0  0  0  0  0
  129.7130  124.8730   63.0320 C   0  0  0  0  0  0  0  0  0  0  0  0
  131.6180  121.7960   60.0870 C   0  0  0  0  0  0  0  0  0  0  0  0
  131.5100  120.4140   60.2200 C   0  0  0  0  0  0  0  0  0  0  0  0
  1  2  1  0
  2  3  1  0
  3  4  1  0
  4  5  2  0
  5  6  1  0
  6  7  2  0
  7  8  1  0
  8  9  2  0
  8 10  1  0
 10 11  1  0
 11 12  1  0
 12 13  2  0
 13 14  1  0
 14 15  2  0
 15 16  1  0
 16 17  1  0
 17 18  1  0
 18 19  2  0
 19 20  1  0
 20 21  2  0
 21 22  1  0
 22 23  1  0
 22 24  1  0
 22 25  1  0
 21 26  1  0
 26 27  2  0
 15 28  1  0
 28 29  1  0
 29 30  2  0
 30 31  1  0
 31 32  2  0
 32 33  1  0
 33 34  1  0
 32 35  1  0
 35 36  2  0
  7 37  1  0
 37 38  2  0
 38  4  1  0
 28 12  1  0
 36 29  1  0
 27 18  1  0
M  END
>  <Binding energies>  (72) 
[-8.67]

>  <Ligand effiencies>  (72) 
[-0.22230769230769232]

>  <Interactions>  (72) 
["H-B:ALA:541:N:9863, V-B:PRO:540:CB:9857, V-A:ILE:369:CG2:3236, V-B:TYR:539:CD2:9846, V-A:LEU:475:CD1:4257, V-B:PRO:540:CA:9855, H-A:SER:385:OG:3409, H-A:HIS:383:NE2:3393, V-B:ALA:541:CB:9864, V-B:TYR:539:CE2:9848, V-B:TYR:539:C:9839, V-A:PRO:482:CG:4326, V-A:PRO:482:CB:4325, H-A:TYR:484:OH:4347, V-A:ASP:366:CG:3212, H-A:GLY:454:N:4049, V-A:GLU:543:CD:4908, V-A:ILE:369:CD1:3238, H-A:ARG:545:NH2:4928, V-A:GLU:543:C:4902, V-B:HIS:456:CE1:9041, V-A:TYR:484:CZ:4346, V-A:HIS:456:CE1:4069, V-B:GLU:543:CB:9878, V-B:GLU:543:CG:9879, V-B:GLU:543:CD:9880, H-A:ARG:545:NE:4924, V-A:ARG:545:CZ:4926, V-A:GLU:543:CB:4906, V-B:GLU:543:C:9874, H-A:GLU:543:OE1:4909, V-B:TYR:539:CB:9843, V-A:HIS:383:CE1:3392, V-B:HIS:456:CD2:9039, V-B:HIS:456:CG:9037"]

$$$$
RR19_Rahimova_2017
     RDKit          3D

 46 51  0  0  0  0  0  0  0  0999 V2000
  132.4570  122.8470   60.2170 O   0  0  0  0  0  0  0  0  0  0  0  0
  131.2910  123.0340   59.8580 C   0  0  0  0  0  0  0  0  0  0  0  0
  130.8880  123.8480   58.8480 N   0  0  0  0  0  0  0  0  0  0  0  0
  131.5620  124.4910   57.8400 C   0  0  0  0  0  0  0  0  0  0  0  0
  133.1810  124.2340   57.4160 S   0  0  0  0  0  0  0  0  0  0  0  0
  130.7050  125.3750   57.2330 N   0  0  0  0  0  0  0  0  0  0  0  0
  130.8050  126.1430   56.1180 C   0  0  0  0  0  0  0  0  0  0  0  0
  131.6880  126.0740   55.2590 O   0  0  0  0  0  0  0  0  0  0  0  0
  129.6840  127.2040   55.9830 C   0  0  2  0  0  0  0  0  0  0  0  0
  129.5280  127.8100   54.5580 C   0  0  0  0  0  0  0  0  0  0  0  0
  129.2010  129.2940   54.5190 C   0  0  0  0  0  0  0  0  0  0  0  0
  127.8790  129.7500   54.7140 C   0  0  0  0  0  0  0  0  0  0  0  0
  127.6120  131.1110   54.7530 C   0  0  0  0  0  0  0  0  0  0  0  0
  128.6440  132.0320   54.6190 C   0  0  0  0  0  0  0  0  0  0  0  0
  129.9540  131.5990   54.4560 C   0  0  0  0  0  0  0  0  0  0  0  0
  130.2420  130.2410   54.4170 C   0  0  0  0  0  0  0  0  0  0  0  0
  129.8180  128.2660   57.0180 N   0  0  0  0  0  0  0  0  0  0  0  0
  128.7350  128.7220   57.7090 C   0  0  0  0  0  0  0  0  0  0  0  0
  127.5610  128.3740   57.5720 O   0  0  0  0  0  0  0  0  0  0  0  0
  129.2680  129.7250   58.6640 C   0  0  0  0  0  0  0  0  0  0  0  0
  128.6220  130.5160   59.6150 C   0  0  0  0  0  0  0  0  0  0  0  0
  129.3900  131.3850   60.3970 C   0  0  0  0  0  0  0  0  0  0  0  0
  130.7790  131.4510   60.2220 C   0  0  0  0  0  0  0  0  0  0  0  0
  131.4080  130.6490   59.2630 C   0  0  0  0  0  0  0  0  0  0  0  0
  130.6240  129.7900   58.4930 C   0  0  0  0  0  0  0  0  0  0  0  0
  130.9950  128.8290   57.4240 C   0  0  0  0  0  0  0  0  0  0  0  0
  132.1270  128.5880   57.0030 O   0  0  0  0  0  0  0  0  0  0  0  0
  130.1360  122.3110   60.6000 C   0  0  2  0  0  0  0  0  0  0  0  0
  130.3390  120.7740   60.7370 C   0  0  0  0  0  0  0  0  0  0  0  0
  131.7950  120.3450   60.7620 C   0  0  0  0  0  0  0  0  0  0  0  0
  132.6290  120.7340   61.8330 C   0  0  0  0  0  0  0  0  0  0  0  0
  133.9320  120.2570   61.9060 C   0  0  0  0  0  0  0  0  0  0  0  0
  134.4110  119.3760   60.9450 C   0  0  0  0  0  0  0  0  0  0  0  0
  133.5880  118.9530   59.9080 C   0  0  0  0  0  0  0  0  0  0  0  0
  132.2830  119.4200   59.8160 C   0  0  0  0  0  0  0  0  0  0  0  0
  128.7870  122.6360   60.0550 N   0  0  0  0  0  0  0  0  0  0  0  0
  127.7940  123.1310   60.8460 C   0  0  0  0  0  0  0  0  0  0  0  0
  127.8450  123.3550   62.0560 O   0  0  0  0  0  0  0  0  0  0  0  0
  126.6380  123.3440   59.9400 C   0  0  0  0  0  0  0  0  0  0  0  0
  125.3530  123.8250   60.1940 C   0  0  0  0  0  0  0  0  0  0  0  0
  124.4520  123.9250   59.1290 C   0  0  0  0  0  0  0  0  0  0  0  0
  124.8420  123.5500   57.8360 C   0  0  0  0  0  0  0  0  0  0  0  0
  126.1360  123.0720   57.6010 C   0  0  0  0  0  0  0  0  0  0  0  0
  127.0190  122.9780   58.6780 C   0  0  0  0  0  0  0  0  0  0  0  0
  128.4280  122.5210   58.7410 C   0  0  0  0  0  0  0  0  0  0  0  0
  129.1270  122.1230   57.8090 O   0  0  0  0  0  0  0  0  0  0  0  0
  1  2  2  0
  2  3  1  0
  3  4  1  0
  4  5  2  0
  4  6  1  0
  6  7  1  0
  7  8  2  0
  7  9  1  0
  9 10  1  6
 10 11  1  0
 11 12  2  0
 12 13  1  0
 13 14  2  0
 14 15  1  0
 15 16  2  0
  9 17  1  0
 17 18  1  0
 18 19  2  0
 18 20  1  0
 20 21  2  0
 21 22  1  0
 22 23  2  0
 23 24  1  0
 24 25  2  0
 25 26  1  0
 26 27  2  0
  2 28  1  0
 28 29  1  6
 29 30  1  0
 30 31  2  0
 31 32  1  0
 32 33  2  0
 33 34  1  0
 34 35  2  0
 28 36  1  0
 36 37  1  0
 37 38  2  0
 37 39  1  0
 39 40  2  0
 40 41  1  0
 41 42  2  0
 42 43  1  0
 43 44  2  0
 44 45  1  0
 45 46  2  0
 16 11  1  0
 26 17  1  0
 35 30  1  0
 45 36  1  0
 25 20  1  0
 44 39  1  0
M  END
>  <Binding energies>  (73) 
[-11.61]

>  <Ligand effiencies>  (73) 
[-0.24187499999999998]

>  <Interactions>  (73) 
["V-B:PRO:540:CB:9857, H-B:TYR:531:OH:9767, V-B:MET:535:CE:9807, V-A:ILE:369:CG2:3236, V-B:TYR:539:CD2:9846, V-B:PRO:540:N:9856, V-A:LEU:475:CD1:4257, V-B:PRO:540:CA:9855, V-B:TYR:539:CE2:9848, V-B:TYR:539:C:9839, V-B:TYR:531:CE2:9765, V-B:LEU:363:CD1:8160, V-A:ILE:538:CA:4860, V-A:ASP:366:CA:3209, V-A:ASP:366:CB:3211, V-A:ILE:538:CG2:4863, V-A:ASP:366:C:3207, H-B:TYR:539:OH:9850, V-A:TYR:539:CE2:4876, V-A:PRO:540:CA:4883, H-A:TYR:531:OH:4795, V-A:TYR:539:CZ:4877, V-A:TYR:539:CD2:4874, V-A:PRO:540:CB:4885, V-A:TYR:539:CE1:4875, V-A:TYR:531:CZ:4794, V-A:ILE:538:CB:4862, V-B:ASP:366:CG:8184, V-B:TYR:531:CE1:9764, V-A:PRO:540:C:4881, V-B:TYR:539:CZ:9849, V-A:SER:385:CA:3406, V-B:LEU:363:CA:8156, V-A:SER:385:C:3404, V-A:SER:385:CB:3408, V-A:HIS:383:CD2:3391"]

$$$$
RR1_Rahimova_2017
     RDKit          3D

 41 44  0  0  0  0  0  0  0  0999 V2000
  133.7010  125.5300   66.0160 C   0  0  0  0  0  0  0  0  0  0  0  0
  133.5310  124.8080   64.8020 O   0  0  0  0  0  0  0  0  0  0  0  0
  132.2600  124.6510   64.2830 C   0  0  0  0  0  0  0  0  0  0  0  0
  131.6750  123.4100   63.9840 C   0  0  0  0  0  0  0  0  0  0  0  0
  130.3890  123.3500   63.4560 C   0  0  0  0  0  0  0  0  0  0  0  0
  129.6650  124.5210   63.2240 C   0  0  0  0  0  0  0  0  0  0  0  0
  128.3920  124.3580   62.6460 N   0  0  0  0  0  0  0  0  0  0  0  0
  127.6400  125.2510   61.9670 C   0  0  0  0  0  0  0  0  0  0  0  0
  127.9390  126.4330   61.7960 O   0  0  0  0  0  0  0  0  0  0  0  0
  126.3300  124.6840   61.3990 C   0  0  0  0  0  0  0  0  0  0  0  0
  126.1490  122.8700   61.5080 S   0  0  0  0  0  0  0  0  0  0  0  0
  127.6490  122.4290   60.6970 C   0  0  0  0  0  0  0  0  0  0  0  0
  128.7480  122.0830   61.3190 N   0  0  0  0  0  0  0  0  0  0  0  0
  129.6040  121.8280   60.3350 C   0  0  0  0  0  0  0  0  0  0  0  0
  131.0130  121.3750   60.5920 C   0  0  0  0  0  0  0  0  0  0  0  0
  131.3150  120.0280   60.8470 C   0  0  0  0  0  0  0  0  0  0  0  0
  132.6340  119.6360   61.0860 C   0  0  0  0  0  0  0  0  0  0  0  0
  133.6310  120.6100   61.0630 C   0  0  0  0  0  0  0  0  0  0  0  0
  133.3740  121.9200   60.8200 N   0  0  0  0  0  0  0  0  0  0  0  0
  132.0850  122.2800   60.5900 C   0  0  0  0  0  0  0  0  0  0  0  0
  129.1300  121.9970   59.1150 N   0  0  0  0  0  0  0  0  0  0  0  0
  127.8720  122.3850   59.3450 N   0  0  0  0  0  0  0  0  0  0  0  0
  126.9640  122.6620   58.2320 C   0  0  0  0  0  0  0  0  0  0  0  0
  127.1600  124.0310   57.5580 C   0  0  0  0  0  0  0  0  0  0  0  0
  126.2100  124.6150   57.0220 O   0  0  0  0  0  0  0  0  0  0  0  0
  128.4170  124.5120   57.6030 N   0  0  0  0  0  0  0  0  0  0  0  0
  128.6400  125.8040   57.1470 N   0  0  0  0  0  0  0  0  0  0  0  0
  129.5780  126.5420   57.7800 C   0  0  0  0  0  0  0  0  0  0  0  0
  130.3190  126.1070   58.6680 O   0  0  0  0  0  0  0  0  0  0  0  0
  129.7050  127.9790   57.3140 C   0  0  0  0  0  0  0  0  0  0  0  0
  130.4650  128.8890   58.0570 C   0  0  0  0  0  0  0  0  0  0  0  0
  130.5850  130.2150   57.6550 C   0  0  0  0  0  0  0  0  0  0  0  0
  129.9400  130.6750   56.4960 C   0  0  0  0  0  0  0  0  0  0  0  0
  130.0070  131.9830   56.0480 O   0  0  0  0  0  0  0  0  0  0  0  0
  131.2760  132.6090   55.9020 C   0  0  0  0  0  0  0  0  0  0  0  0
  129.1680  129.7810   55.7420 C   0  0  0  0  0  0  0  0  0  0  0  0
  128.5360  130.2890   54.6190 O   0  0  0  0  0  0  0  0  0  0  0  0
  128.0310  129.3980   53.6310 C   0  0  0  0  0  0  0  0  0  0  0  0
  129.0600  128.4410   56.1560 C   0  0  0  0  0  0  0  0  0  0  0  0
  130.2460  125.7630   63.5230 C   0  0  0  0  0  0  0  0  0  0  0  0
  131.5320  125.8180   64.0520 C   0  0  0  0  0  0  0  0  0  0  0  0
  1  2  1  0
  2  3  1  0
  3  4  2  0
  4  5  1  0
  5  6  2  0
  6  7  1  0
  7  8  1  0
  8  9  2  0
  8 10  1  0
 10 11  1  0
 11 12  1  0
 12 13  2  0
 13 14  1  0
 14 15  1  0
 15 16  2  0
 16 17  1  0
 17 18  2  0
 18 19  1  0
 19 20  2  0
 14 21  2  0
 21 22  1  0
 22 23  1  0
 23 24  1  0
 24 25  2  0
 24 26  1  0
 26 27  1  0
 27 28  1  0
 28 29  2  0
 28 30  1  0
 30 31  2  0
 31 32  1  0
 32 33  2  0
 33 34  1  0
 34 35  1  0
 33 36  1  0
 36 37  1  0
 37 38  1  0
 36 39  2  0
  6 40  1  0
 40 41  2  0
 41  3  1  0
 22 12  1  0
 39 30  1  0
 20 15  1  0
M  END
>  <Binding energies>  (74) 
[-8.04]

>  <Ligand effiencies>  (74) 
[-0.1827272727272727]

>  <Interactions>  (74) 
["H-B:ALA:541:N:9863, V-B:PRO:540:CB:9857, H-B:TYR:531:OH:9767, V-B:MET:535:CE:9807, V-A:ILE:369:CG2:3236, V-B:TYR:539:CD2:9846, V-B:PRO:540:N:9856, V-A:LEU:475:CD1:4257, V-B:PRO:540:CA:9855, V-B:PRO:540:C:9853, V-B:TYR:539:CE2:9848, V-B:TYR:539:C:9839, H-A:TYR:484:OH:4347, H-A:GLY:454:N:4049, V-A:PRO:540:N:4884, V-A:ILE:538:CA:4860, V-A:ILE:538:CG2:4863, H-A:TYR:539:N:4870, V-A:ILE:538:CB:4862, V-B:TYR:531:CE1:9764, H-B:LYS:534:NZ:9795, V-A:PRO:540:CD:4887, V-A:TYR:539:C:4867, V-A:ARG:545:CD:4923, V-B:GLU:543:CG:9879, H-B:GLU:543:OE1:9881, V-B:GLU:543:CD:9880, H-B:GLU:543:OE2:9882, V-A:ARG:545:CG:4922, V-A:ARG:545:CZ:4926, V-B:LYS:534:CE:9794, V-A:ILE:538:C:4858, V-B:LYS:534:CD:9793"]

$$$$
RR22_Rahimova_2017
     RDKit          3D

 31 36  0  0  0  0  0  0  0  0999 V2000
  123.7800  129.8760   55.7390 O   0  0  0  0  0  0  0  0  0  0  0  0
  124.6510  129.8660   56.6060 C   0  0  0  0  0  0  0  0  0  0  0  0
  124.4840  129.6800   57.9680 N   0  0  0  0  0  0  0  0  0  0  0  0
  125.6170  129.6360   58.8410 C   0  0  1  0  0  0  0  0  0  0  0  0
  125.3700  130.6430   59.8260 O   0  0  0  0  0  0  0  0  0  0  0  0
  125.2980  130.2570   61.1650 C   0  0  0  0  0  0  0  0  0  0  0  0
  124.7030  131.1640   62.0430 C   0  0  0  0  0  0  0  0  0  0  0  0
  124.6310  130.8660   63.4030 C   0  0  0  0  0  0  0  0  0  0  0  0
  125.1610  129.6680   63.8850 C   0  0  0  0  0  0  0  0  0  0  0  0
  125.7570  128.7620   63.0070 C   0  0  0  0  0  0  0  0  0  0  0  0
  125.8140  129.0360   61.6370 C   0  0  0  0  0  0  0  0  0  0  0  0
  126.4760  128.1420   60.6120 C   0  0  1  0  0  0  0  0  0  0  0  0
  126.5080  126.6330   60.7480 C   0  0  0  0  0  0  0  0  0  0  0  0
  126.5220  126.2370   59.2680 C   0  0  0  0  0  0  0  0  0  0  0  0
  126.9390  124.8990   58.8040 C   0  0  0  0  0  0  0  0  0  0  0  0
  128.2430  124.4380   59.0350 C   0  0  0  0  0  0  0  0  0  0  0  0
  128.6300  123.1740   58.5970 C   0  0  0  0  0  0  0  0  0  0  0  0
  127.7170  122.3660   57.9240 C   0  0  0  0  0  0  0  0  0  0  0  0
  126.4190  122.8100   57.6870 C   0  0  0  0  0  0  0  0  0  0  0  0
  126.0300  124.0720   58.1260 C   0  0  0  0  0  0  0  0  0  0  0  0
  126.1100  127.1980   58.5300 N   0  0  0  0  0  0  0  0  0  0  0  0
  125.7760  128.2730   59.3700 N   0  0  0  0  0  0  0  0  0  0  0  0
  126.8150  130.0950   58.0230 C   0  0  0  0  0  0  0  0  0  0  0  0
  127.9760  130.5060   58.5840 C   0  0  0  0  0  0  0  0  0  0  0  0
  129.2130  130.9550   57.9140 C   0  0  0  0  0  0  0  0  0  0  0  0
  130.4670  130.3740   58.1490 C   0  0  0  0  0  0  0  0  0  0  0  0
  131.5940  130.8510   57.4790 C   0  0  0  0  0  0  0  0  0  0  0  0
  131.4370  131.9120   56.5870 C   0  0  0  0  0  0  0  0  0  0  0  0
  130.2390  132.4990   56.3460 N   0  0  0  0  0  0  0  0  0  0  0  0
  129.1540  132.0190   57.0070 C   0  0  0  0  0  0  0  0  0  0  0  0
  126.4260  130.1050   56.2960 S   0  0  0  0  0  0  0  0  0  0  0  0
  1  2  2  0
  2  3  1  0
  4  3  1  6
  4  5  1  0
  5  6  1  0
  6  7  2  0
  7  8  1  0
  8  9  2  0
  9 10  1  0
 10 11  2  0
 11 12  1  0
 12 13  1  1
 13 14  1  0
 14 15  1  0
 15 16  2  0
 16 17  1  0
 17 18  2  0
 18 19  1  0
 19 20  2  0
 14 21  2  0
 21 22  1  0
  4 23  1  0
 23 24  2  0
 24 25  1  0
 25 26  2  0
 26 27  1  0
 27 28  2  0
 28 29  1  0
 29 30  2  0
 23 31  1  0
 31  2  1  0
 22  4  1  0
 30 25  1  0
 11  6  1  0
 22 12  1  0
 20 15  1  0
M  END
>  <Binding energies>  (75) 
[-9.16]

>  <Ligand effiencies>  (75) 
[-0.28625]

>  <Interactions>  (75) 
["V-B:PRO:540:CB:9857, H-B:TYR:531:OH:9767, V-B:MET:535:CE:9807, V-B:PRO:540:N:9856, V-B:PRO:540:CA:9855, V-B:TYR:539:C:9839, V-B:TYR:531:CZ:9766, V-A:PRO:540:N:4884, V-A:TYR:539:CG:4872, V-A:TYR:539:CD1:4873, V-A:PRO:540:CA:4883, H-A:TYR:539:N:4870, V-A:TYR:539:CZ:4877, V-A:PRO:540:CB:4885, V-A:TYR:539:CE1:4875, V-B:ASP:366:CG:8184, V-B:TYR:531:CE1:9764, V-B:ASP:366:CB:8183, V-B:ARG:545:CZ:9898, V-A:PRO:540:CD:4887, V-B:ASP:366:CA:8181, V-A:TYR:539:C:4867, V-B:ILE:369:CD1:8210, V-B:GLY:454:CA:9020, V-B:ASP:366:C:8179, H-A:TYR:539:OH:4878, H-B:ASP:366:O:8180"]

$$$$
RR24_Rahimova_2017
     RDKit          3D

 43 49  0  0  0  0  0  0  0  0999 V2000
  128.4590  132.4740   54.7890 C   0  0  0  0  0  0  0  0  0  0  0  0
  129.4070  131.2660   54.7710 C   0  0  2  0  0  0  0  0  0  0  0  0
  128.6820  129.9210   54.4690 C   0  0  0  0  0  0  0  0  0  0  0  0
  127.4500  129.8260   54.4680 O   0  0  0  0  0  0  0  0  0  0  0  0
  129.5550  128.8970   54.2410 O   0  0  0  0  0  0  0  0  0  0  0  0
  129.5360  127.7920   55.0620 C   0  0  0  0  0  0  0  0  0  0  0  0
  130.2420  126.6470   54.6860 C   0  0  0  0  0  0  0  0  0  0  0  0
  130.2370  125.5280   55.5120 C   0  0  0  0  0  0  0  0  0  0  0  0
  129.5350  125.5490   56.7200 C   0  0  0  0  0  0  0  0  0  0  0  0
  129.5180  124.3060   57.6170 C   0  0  1  0  0  0  0  0  0  0  0  0
  130.7670  124.2320   58.5270 C   0  0  0  0  0  0  0  0  0  0  0  0
  130.6890  124.0420   59.8570 C   0  0  0  0  0  0  0  0  0  0  0  0
  129.4880  123.9020   60.5070 N   0  0  0  0  0  0  0  0  0  0  0  0
  128.2960  123.9500   59.8250 C   0  0  0  0  0  0  0  0  0  0  0  0
  127.2020  123.7850   60.6120 N   0  0  0  0  0  0  0  0  0  0  0  0
  125.9340  123.8810   60.1260 C   0  0  0  0  0  0  0  0  0  0  0  0
  124.9980  124.0420   60.9110 O   0  0  0  0  0  0  0  0  0  0  0  0
  125.8630  123.9500   58.7430 N   0  0  0  0  0  0  0  0  0  0  0  0
  124.5060  123.9640   58.1580 C   0  0  0  0  0  0  0  0  0  0  0  0
  126.9070  124.1210   57.8510 C   0  0  0  0  0  0  0  0  0  0  0  0
  126.7650  124.2280   56.6290 O   0  0  0  0  0  0  0  0  0  0  0  0
  128.2320  124.1420   58.4810 C   0  0  0  0  0  0  0  0  0  0  0  0
  132.0140  124.0160   60.4530 C   0  0  0  0  0  0  0  0  0  0  0  0
  132.4640  123.8570   61.7650 C   0  0  0  0  0  0  0  0  0  0  0  0
  133.8370  123.8790   62.0220 C   0  0  0  0  0  0  0  0  0  0  0  0
  134.7470  124.0570   60.9750 C   0  0  0  0  0  0  0  0  0  0  0  0
  134.2900  124.2160   59.6640 C   0  0  0  0  0  0  0  0  0  0  0  0
  132.9170  124.1940   59.4130 C   0  0  0  0  0  0  0  0  0  0  0  0
  132.1710  124.3330   58.1450 C   0  0  0  0  0  0  0  0  0  0  0  0
  132.5900  124.4980   57.0000 O   0  0  0  0  0  0  0  0  0  0  0  0
  128.8440  126.7040   57.1030 C   0  0  0  0  0  0  0  0  0  0  0  0
  128.8490  127.8250   56.2780 C   0  0  0  0  0  0  0  0  0  0  0  0
  130.2470  131.1940   56.0040 N   0  0  0  0  0  0  0  0  0  0  0  0
  129.6920  131.0120   57.2350 C   0  0  0  0  0  0  0  0  0  0  0  0
  128.4950  130.8970   57.5070 O   0  0  0  0  0  0  0  0  0  0  0  0
  130.8340  130.9840   58.1820 C   0  0  0  0  0  0  0  0  0  0  0  0
  130.8670  130.8280   59.5690 C   0  0  0  0  0  0  0  0  0  0  0  0
  132.1100  130.8380   60.2140 C   0  0  0  0  0  0  0  0  0  0  0  0
  133.2880  131.0000   59.4740 C   0  0  0  0  0  0  0  0  0  0  0  0
  133.2340  131.1540   58.0850 C   0  0  0  0  0  0  0  0  0  0  0  0
  131.9860  131.1430   57.4600 C   0  0  0  0  0  0  0  0  0  0  0  0
  131.6120  131.2770   56.0300 C   0  0  0  0  0  0  0  0  0  0  0  0
  132.3710  131.4260   55.0720 O   0  0  0  0  0  0  0  0  0  0  0  0
  2  1  1  1
  2  3  1  0
  3  4  2  0
  3  5  1  0
  5  6  1  0
  6  7  2  0
  7  8  1  0
  8  9  2  0
 10  9  1  1
 10 11  1  0
 11 12  2  0
 12 13  1  0
 13 14  1  0
 14 15  1  0
 15 16  1  0
 16 17  2  0
 16 18  1  0
 18 19  1  0
 18 20  1  0
 20 21  2  0
 20 22  1  0
 12 23  1  0
 23 24  2  0
 24 25  1  0
 25 26  2  0
 26 27  1  0
 27 28  2  0
 28 29  1  0
 29 30  2  0
  9 31  1  0
 31 32  2  0
  2 33  1  0
 33 34  1  0
 34 35  2  0
 34 36  1  0
 36 37  2  0
 37 38  1  0
 38 39  2  0
 39 40  1  0
 40 41  2  0
 41 42  1  0
 42 43  2  0
 32  6  1  0
 42 33  1  0
 22 10  1  0
 28 23  1  0
 41 36  1  0
 29 11  1  0
 22 14  2  0
M  END
>  <Binding energies>  (76) 
[-11.08]

>  <Ligand effiencies>  (76) 
[-0.24622222222222223]

>  <Interactions>  (76) 
["V-B:PRO:540:CB:9857, H-B:TYR:531:OH:9767, V-B:MET:535:CE:9807, V-A:ILE:369:CG2:3236, V-B:PRO:540:CA:9855, V-B:TYR:539:CE2:9848, V-B:TYR:531:CE2:9765, V-B:LEU:363:CD1:8160, V-A:ASP:366:CG:3212, V-A:TYR:531:CE1:4792, V-A:ILE:538:CA:4860, V-A:ASP:366:CA:3209, V-A:ASP:366:CB:3211, V-A:TYR:539:CG:4872, V-A:ILE:538:CG2:4863, V-A:ASP:366:C:3207, H-B:TYR:539:OH:9850, V-A:TYR:539:CD1:4873, V-A:TYR:539:CE2:4876, V-A:PRO:540:CA:4883, H-A:TYR:531:OH:4795, V-A:TYR:539:CZ:4877, V-A:TYR:539:CD2:4874, V-A:PRO:540:CB:4885, V-A:TYR:539:CE1:4875, V-A:TYR:531:CZ:4794, V-A:ILE:538:CB:4862, H-B:LYS:534:NZ:9795, V-A:LEU:363:CD1:3188, V-A:ILE:369:CD1:3238, V-B:TYR:539:CZ:9849, V-B:LEU:363:CA:8156, H-A:TYR:539:OH:4878, V-A:ILE:369:CB:3235, H-B:GLU:543:OE1:9881, V-A:ILE:538:C:4858, V-A:LEU:363:CA:3184, V-A:LEU:363:CB:3186, V-A:MET:535:CE:4835"]

$$$$
RR25_Rahimova_2017
     RDKit          3D

 39 44  0  0  0  0  0  0  0  0999 V2000
  126.6910  122.5370   60.6680 O   0  0  0  0  0  0  0  0  0  0  0  0
  127.4800  123.2720   61.2640 C   0  0  0  0  0  0  0  0  0  0  0  0
  128.0380  122.7590   62.4090 O   0  0  0  0  0  0  0  0  0  0  0  0
  129.1120  123.3750   63.0260 C   0  0  0  0  0  0  0  0  0  0  0  0
  129.9440  122.5620   63.7950 C   0  0  0  0  0  0  0  0  0  0  0  0
  131.0400  123.1180   64.4510 C   0  0  0  0  0  0  0  0  0  0  0  0
  131.3180  124.4890   64.3520 C   0  0  0  0  0  0  0  0  0  0  0  0
  132.4910  125.0770   65.0460 N   0  0  0  0  0  0  0  0  0  0  0  0
  133.6130  124.8460   64.6020 O   0  0  0  0  0  0  0  0  0  0  0  0
  132.2980  125.7730   66.0380 O   0  0  0  0  0  0  0  0  0  0  0  0
  130.4610  125.2930   63.5830 C   0  0  0  0  0  0  0  0  0  0  0  0
  129.3520  124.7530   62.9250 C   0  0  0  0  0  0  0  0  0  0  0  0
  128.4030  125.5760   62.0730 C   0  0  0  0  0  0  0  0  0  0  0  0
  127.8970  124.7210   60.8780 C   0  0  2  0  0  0  0  0  0  0  0  0
  126.8440  125.5000   60.0370 C   0  0  0  0  0  0  0  0  0  0  0  0
  125.8660  124.8510   59.6550 O   0  0  0  0  0  0  0  0  0  0  0  0
  126.9270  126.8500   59.8380 N   0  0  0  0  0  0  0  0  0  0  0  0
  128.1880  127.6060   59.9890 C   0  0  0  0  0  0  0  0  0  0  0  0
  127.8750  128.9890   60.5970 C   0  0  0  0  0  0  0  0  0  0  0  0
  126.8740  129.7080   59.8030 N   0  0  0  0  0  0  0  0  0  0  0  0
  126.6710  131.0750   60.3030 C   0  0  0  0  0  0  0  0  0  0  0  0
  127.6150  132.1080   59.6300 C   0  0  0  0  0  0  0  0  0  0  0  0
  129.0400  131.6940   59.4810 N   0  0  0  0  0  0  0  0  0  0  0  0
  129.4160  131.3230   58.2080 C   0  0  0  0  0  0  0  0  0  0  0  0
  128.6320  131.2940   57.2520 O   0  0  0  0  0  0  0  0  0  0  0  0
  130.8830  130.9690   58.0600 C   0  0  0  0  0  0  0  0  0  0  0  0
  131.3790  130.6020   56.8020 C   0  0  0  0  0  0  0  0  0  0  0  0
  132.7230  130.2780   56.6280 C   0  0  0  0  0  0  0  0  0  0  0  0
  133.6130  130.3130   57.7010 C   0  0  0  0  0  0  0  0  0  0  0  0
  133.1570  130.6770   58.9910 C   0  0  0  0  0  0  0  0  0  0  0  0
  134.0060  130.7340   60.1220 C   0  0  0  0  0  0  0  0  0  0  0  0
  133.4920  131.1030   61.3640 C   0  0  0  0  0  0  0  0  0  0  0  0
  132.1440  131.4210   61.5150 C   0  0  0  0  0  0  0  0  0  0  0  0
  131.2670  131.3780   60.4240 C   0  0  0  0  0  0  0  0  0  0  0  0
  131.7820  131.0040   59.1560 C   0  0  0  0  0  0  0  0  0  0  0  0
  129.8080  131.7390   60.6270 C   0  0  0  0  0  0  0  0  0  0  0  0
  129.3610  132.0620   61.7330 O   0  0  0  0  0  0  0  0  0  0  0  0
  125.6210  128.9500   59.7790 C   0  0  0  0  0  0  0  0  0  0  0  0
  125.8140  127.5480   59.1540 C   0  0  0  0  0  0  0  0  0  0  0  0
  1  2  2  0
  2  3  1  0
  3  4  1  0
  4  5  2  0
  5  6  1  0
  6  7  2  0
  7  8  1  0
  8  9  2  0
  8 10  1  0
  7 11  1  0
 11 12  2  0
 12 13  1  0
 13 14  1  0
 14 15  1  1
 15 16  2  0
 15 17  1  0
 17 18  1  0
 18 19  1  0
 19 20  1  0
 20 21  1  0
 21 22  1  0
 22 23  1  0
 23 24  1  0
 24 25  2  0
 24 26  1  0
 26 27  2  0
 27 28  1  0
 28 29  2  0
 29 30  1  0
 30 31  2  0
 31 32  1  0
 32 33  2  0
 33 34  1  0
 34 35  2  0
 34 36  1  0
 36 37  2  0
 20 38  1  0
 38 39  1  0
 14  2  1  0
 39 17  1  0
 12  4  1  0
 36 23  1  0
 35 26  1  0
 35 30  1  0
M  CHG  2   8   1  10  -1
M  END
>  <Binding energies>  (77) 
[-10.22]

>  <Ligand effiencies>  (77) 
[-0.2620512820512821]

>  <Interactions>  (77) 
["H-B:ALA:541:N:9863, V-B:PRO:540:CA:9855, V-B:ALA:541:CB:9864, H-A:TYR:484:OH:4347, V-A:ASP:366:CG:3212, H-A:GLY:454:N:4049, V-A:ASP:366:CB:3211, V-A:TYR:539:CD1:4873, V-A:PRO:540:CA:4883, V-A:PRO:540:CB:4885, V-A:TYR:539:CE1:4875, V-A:TYR:531:CZ:4794, V-B:ASP:366:CG:8184, V-B:ASP:366:CB:8183, V-A:PRO:540:C:4881, V-A:LEU:363:CD1:3188, V-A:GLU:543:CD:4908, H-A:ARG:545:NH2:4928, V-A:TYR:484:CZ:4346, V-B:GLU:543:CG:9879, V-B:GLU:543:CD:9880, H-A:ARG:545:NE:4924, V-A:ARG:545:CZ:4926, H-A:ALA:541:N:4891, V-A:TYR:531:CE2:4793, V-A:LEU:363:CA:3184, V-A:LEU:363:CB:3186, V-A:ASN:362:CB:3175, V-A:ASN:362:C:3171, V-A:ASN:362:CA:3173"]

$$$$
RR27_Rahimova_2017
     RDKit          3D

 39 44  0  0  0  0  0  0  0  0999 V2000
  130.6330  122.1940   59.3240 O   0  0  0  0  0  0  0  0  0  0  0  0
  129.6280  122.7700   59.7490 C   0  0  0  0  0  0  0  0  0  0  0  0
  128.9870  123.8830   58.8680 C   0  0  0  0  0  0  0  0  0  0  0  0
  127.6870  123.4330   58.1770 C   0  0  0  0  0  0  0  0  0  0  0  0
  126.4680  124.0980   58.3870 C   0  0  0  0  0  0  0  0  0  0  0  0
  125.3120  123.6660   57.7440 C   0  0  0  0  0  0  0  0  0  0  0  0
  125.3670  122.5680   56.8890 C   0  0  0  0  0  0  0  0  0  0  0  0
  126.5670  121.8970   56.6740 C   0  0  0  0  0  0  0  0  0  0  0  0
  127.7240  122.3290   57.3170 C   0  0  0  0  0  0  0  0  0  0  0  0
  130.0230  124.5420   57.9370 C   0  0  0  0  0  0  0  0  0  0  0  0
  131.3630  124.6940   58.3160 C   0  0  0  0  0  0  0  0  0  0  0  0
  132.2710  125.3050   57.4540 C   0  0  0  0  0  0  0  0  0  0  0  0
  131.8410  125.7700   56.2150 C   0  0  0  0  0  0  0  0  0  0  0  0
  130.5100  125.6360   55.8300 C   0  0  0  0  0  0  0  0  0  0  0  0
  129.6030  125.0260   56.6920 C   0  0  0  0  0  0  0  0  0  0  0  0
  128.9910  122.3560   60.8810 N   0  0  0  0  0  0  0  0  0  0  0  0
  127.9570  123.1460   61.5650 C   0  0  0  0  0  0  0  0  0  0  0  0
  128.6890  124.0870   62.5480 C   0  0  0  0  0  0  0  0  0  0  0  0
  129.6280  123.3180   63.5320 C   0  0  0  0  0  0  0  0  0  0  0  0
  130.4670  124.2170   64.4590 C   0  0  0  0  0  0  0  0  0  0  0  0
  131.8090  124.2560   64.2140 N   0  0  0  0  0  0  0  0  0  0  0  0
  132.5930  125.0570   64.9880 C   0  0  0  0  0  0  0  0  0  0  0  0
  133.9490  125.1840   64.8370 O   0  0  0  0  0  0  0  0  0  0  0  0
  131.9860  125.8110   66.0110 C   0  0  0  0  0  0  0  0  0  0  0  0
  132.4610  126.6910   66.9390 N   0  0  0  0  0  0  0  0  0  0  0  0
  131.3820  127.1150   67.6920 N   0  0  0  0  0  0  0  0  0  0  0  0
  130.2650  126.5130   67.2310 N   0  0  0  0  0  0  0  0  0  0  0  0
  128.9730  126.7630   67.8660 C   0  0  0  0  0  0  0  0  0  0  0  0
  129.0660  127.0250   69.3630 C   0  0  0  0  0  0  0  0  0  0  0  0
  129.4430  128.2860   69.8350 C   0  0  0  0  0  0  0  0  0  0  0  0
  129.5180  128.5290   71.2070 C   0  0  0  0  0  0  0  0  0  0  0  0
  129.2120  127.5140   72.1140 C   0  0  0  0  0  0  0  0  0  0  0  0
  128.8260  126.2560   71.6490 C   0  0  0  0  0  0  0  0  0  0  0  0
  128.4200  125.0060   72.7700 Cl  0  0  0  0  0  0  0  0  0  0  0  0
  128.7580  126.0110   70.2780 C   0  0  0  0  0  0  0  0  0  0  0  0
  130.5910  125.6780   66.1760 C   0  0  0  0  0  0  0  0  0  0  0  0
  129.8010  124.8950   65.4370 N   0  0  0  0  0  0  0  0  0  0  0  0
  130.4690  122.2270   62.8010 C   0  0  0  0  0  0  0  0  0  0  0  0
  129.6420  121.3970   61.7870 C   0  0  0  0  0  0  0  0  0  0  0  0
  1  2  2  0
  2  3  1  0
  3  4  1  0
  4  5  2  0
  5  6  1  0
  6  7  2  0
  7  8  1  0
  8  9  2  0
  3 10  1  0
 10 11  2  0
 11 12  1  0
 12 13  2  0
 13 14  1  0
 14 15  2  0
  2 16  1  0
 16 17  1  0
 17 18  1  0
 18 19  1  0
 19 20  1  0
 20 21  2  0
 21 22  1  0
 22 23  1  0
 22 24  2  0
 24 25  1  0
 25 26  2  0
 26 27  1  0
 27 28  1  0
 28 29  1  0
 29 30  2  0
 30 31  1  0
 31 32  2  0
 32 33  1  0
 33 34  1  0
 33 35  2  0
 27 36  1  0
 36 37  2  0
 19 38  1  0
 38 39  1  0
  9  4  1  0
 15 10  1  0
 39 16  1  0
 37 20  1  0
 36 24  1  0
 35 29  1  0
M  END
>  <Binding energies>  (78) 
[-10.99]

>  <Ligand effiencies>  (78) 
[-0.27475]

>  <Interactions>  (78) 
["V-B:PRO:540:CB:9857, V-B:MET:535:CE:9807, V-B:PRO:540:N:9856, V-A:LEU:475:CD1:4257, V-B:PRO:540:CA:9855, V-B:ALA:541:CB:9864, V-B:TYR:539:CE2:9848, V-B:TYR:539:C:9839, V-B:TYR:531:CE2:9765, V-B:LEU:363:CD1:8160, V-B:TYR:539:CA:9841, H-A:TYR:484:OH:4347, V-A:ASP:366:CG:3212, H-A:GLY:454:N:4049, V-B:PRO:540:CD:9859, V-A:ASP:366:CA:3209, V-A:ASP:366:CB:3211, V-B:TYR:539:CZ:9849, H-A:ARG:545:NH2:4928, V-A:GLU:543:C:4902, V-B:HIS:456:CE1:9041, V-A:HIS:456:CE1:4069, V-B:GLU:543:CB:9878, V-B:GLU:543:CG:9879, V-B:GLU:543:CD:9880, H-A:ARG:545:NE:4924, V-A:ARG:545:CZ:4926, H-A:ARG:545:NH1:4927, V-B:GLU:543:C:9874, V-B:ALA:541:CA:9862, V-B:HIS:456:CD2:9039, V-B:GLY:544:CA:9886"]

$$$$
RR28_Rahimova_2017
     RDKit          3D

 46 49  0  0  0  0  0  0  0  0999 V2000
  130.6040  119.3970   61.1280 C   0  0  0  0  0  0  0  0  0  0  0  0
  130.5540  120.9210   61.1550 C   0  0  0  0  0  0  0  0  0  0  0  0
  131.5230  121.5530   61.5730 O   0  0  0  0  0  0  0  0  0  0  0  0
  129.4170  121.4890   60.7070 N   0  0  0  0  0  0  0  0  0  0  0  0
  129.0830  122.9300   60.6250 C   0  0  0  0  0  0  0  0  0  0  0  0
  129.4850  123.6000   61.9700 C   0  0  0  0  0  0  0  0  0  0  0  0
  129.1430  122.9750   63.1790 C   0  0  0  0  0  0  0  0  0  0  0  0
  129.4830  123.5470   64.4010 C   0  0  0  0  0  0  0  0  0  0  0  0
  130.1730  124.7600   64.4420 C   0  0  0  0  0  0  0  0  0  0  0  0
  130.5330  125.3760   65.7940 C   0  0  0  0  0  0  0  0  0  0  0  0
  130.2270  124.5730   66.8150 F   0  0  0  0  0  0  0  0  0  0  0  0
  131.8400  125.6340   65.8510 F   0  0  0  0  0  0  0  0  0  0  0  0
  129.8630  126.5190   65.9470 F   0  0  0  0  0  0  0  0  0  0  0  0
  130.5180  125.3930   63.2450 C   0  0  0  0  0  0  0  0  0  0  0  0
  130.1770  124.8190   62.0230 C   0  0  0  0  0  0  0  0  0  0  0  0
  127.5700  123.1240   60.2500 C   0  0  0  0  0  0  0  0  0  0  0  0
  127.2220  122.6200   58.8260 C   0  0  0  0  0  0  0  0  0  0  0  0
  128.0790  123.3720   57.8960 N   0  0  0  0  0  0  0  0  0  0  0  0
  127.6240  124.5150   57.3140 C   0  0  0  0  0  0  0  0  0  0  0  0
  126.4470  124.8700   57.4010 O   0  0  0  0  0  0  0  0  0  0  0  0
  128.5710  125.3060   56.3780 C   0  0  0  0  0  0  0  0  0  0  0  0
  129.5120  126.3290   57.0720 C   0  0  0  0  0  0  0  0  0  0  0  0
  128.8600  127.6850   57.4270 C   0  0  0  0  0  0  0  0  0  0  0  0
  128.7710  128.5350   56.5360 O   0  0  0  0  0  0  0  0  0  0  0  0
  128.2850  127.8600   58.6510 N   0  0  0  0  0  0  0  0  0  0  0  0
  128.6220  127.0450   59.8240 C   0  0  0  0  0  0  0  0  0  0  0  0
  129.8630  127.6970   60.4720 C   0  0  0  0  0  0  0  0  0  0  0  0
  129.6840  129.2050   60.8630 C   0  0  0  0  0  0  0  0  0  0  0  0
  131.0140  129.8100   61.0850 N   0  0  0  0  0  0  0  0  0  0  0  0
  131.3280  131.1180   61.1810 C   0  0  0  0  0  0  0  0  0  0  0  0
  132.8030  131.4450   61.3950 C   0  0  0  0  0  0  0  0  0  0  0  0
  130.5070  132.0310   61.1040 O   0  0  0  0  0  0  0  0  0  0  0  0
  128.9130  129.2480   62.2220 C   0  0  0  0  0  0  0  0  0  0  0  0
  128.4960  130.4470   62.8240 C   0  0  0  0  0  0  0  0  0  0  0  0
  127.8110  130.4410   64.0360 C   0  0  0  0  0  0  0  0  0  0  0  0
  127.5280  129.2350   64.6800 C   0  0  0  0  0  0  0  0  0  0  0  0
  126.7730  129.2120   66.0090 C   0  0  0  0  0  0  0  0  0  0  0  0
  126.9650  128.0510   66.6380 F   0  0  0  0  0  0  0  0  0  0  0  0
  127.2250  130.1960   66.7850 F   0  0  0  0  0  0  0  0  0  0  0  0
  125.4600  129.3780   65.8440 F   0  0  0  0  0  0  0  0  0  0  0  0
  127.9430  128.0360   64.1000 C   0  0  0  0  0  0  0  0  0  0  0  0
  128.6270  128.0450   62.8880 C   0  0  0  0  0  0  0  0  0  0  0  0
  128.9280  129.9520   59.6970 C   0  0  0  0  0  0  0  0  0  0  0  0
  127.7570  129.1750   59.0360 C   0  0  0  0  0  0  0  0  0  0  0  0
  129.5110  123.0810   58.0580 C   0  0  0  0  0  0  0  0  0  0  0  0
  129.9190  123.5740   59.4700 C   0  0  0  0  0  0  0  0  0  0  0  0
  1  2  1  0
  2  3  2  0
  2  4  1  0
  4  5  1  0
  5  6  1  0
  6  7  2  0
  7  8  1  0
  8  9  2  0
  9 10  1  0
 10 11  1  0
 10 12  1  0
 10 13  1  0
  9 14  1  0
 14 15  2  0
  5 16  1  0
 16 17  1  0
 17 18  1  0
 18 19  1  0
 19 20  2  0
 19 21  1  0
 21 22  1  0
 22 23  1  0
 23 24  2  0
 23 25  1  0
 25 26  1  0
 26 27  1  0
 27 28  1  0
 28 29  1  0
 29 30  1  0
 30 31  1  0
 30 32  2  0
 28 33  1  0
 33 34  2  0
 34 35  1  0
 35 36  2  0
 36 37  1  0
 37 38  1  0
 37 39  1  0
 37 40  1  0
 36 41  1  0
 41 42  2  0
 28 43  1  0
 43 44  1  0
 18 45  1  0
 45 46  1  0
 46  5  1  0
 15  6  1  0
 44 25  1  0
 42 33  1  0
M  END
>  <Binding energies>  (79) 
[-8.56]

>  <Ligand effiencies>  (79) 
[-0.17833333333333334]

>  <Interactions>  (79) 
["V-B:PRO:540:CB:9857, H-B:TYR:531:OH:9767, V-B:MET:535:CE:9807, V-B:TYR:539:CD2:9846, V-B:PRO:540:N:9856, V-B:PRO:540:CA:9855, V-B:ALA:541:CB:9864, V-B:TYR:539:CE2:9848, V-B:TYR:539:C:9839, V-A:PRO:540:CA:4883, V-A:PRO:540:CB:4885, V-B:ARG:545:CZ:9898, V-A:PRO:540:C:4881, V-A:GLU:543:CG:4907, V-A:GLU:543:CD:4908, H-A:ASP:366:OD2:3214, V-B:TYR:539:CZ:9849, H-B:TYR:539:O:9840, V-B:HIS:456:CE1:9041, V-A:TYR:484:CZ:4346, V-B:GLU:543:CB:9878, V-B:GLU:543:CG:9879, V-B:GLU:543:CD:9880, V-A:TYR:484:CE2:4345, H-A:ALA:541:N:4891, V-B:TYR:484:CZ:9318, V-B:TYR:484:CE2:9317, H-A:GLU:543:OE2:4910, V-A:ASN:362:CB:3175"]

$$$$
RR29_Rahimova_2017
     RDKit          3D

 18 19  0  0  0  0  0  0  0  0999 V2000
  126.5080  126.3360   59.5640 C   0  0  0  0  0  0  0  0  0  0  0  0
  126.8510  126.1110   61.0290 C   0  0  0  0  0  0  0  0  0  0  0  0
  126.6230  124.6520   61.4840 C   0  0  0  0  0  0  0  0  0  0  0  0
  127.7740  123.7270   61.0350 C   0  0  0  0  0  0  0  0  0  0  0  0
  127.5420  123.1490   59.6480 C   0  0  0  0  0  0  0  0  0  0  0  0
  128.6190  122.5970   58.9270 C   0  0  0  0  0  0  0  0  0  0  0  0
  128.4270  122.0580   57.6470 C   0  0  0  0  0  0  0  0  0  0  0  0
  127.1420  122.1010   57.1170 C   0  0  0  0  0  0  0  0  0  0  0  0
  126.0950  122.6380   57.8110 C   0  0  0  0  0  0  0  0  0  0  0  0
  126.2530  123.1700   59.0860 C   0  0  0  0  0  0  0  0  0  0  0  0
  124.9590  122.5170   57.0740 O   0  0  0  0  0  0  0  0  0  0  0  0
  125.3740  122.0810   55.8070 C   0  0  0  0  0  0  0  0  0  0  0  0
  126.6960  121.6270   55.9240 O   0  0  0  0  0  0  0  0  0  0  0  0
  127.2700  127.1050   61.7220 N   0  0  0  0  0  0  0  0  0  0  0  0
  127.4990  126.9230   63.0680 N   0  0  0  0  0  0  0  0  0  0  0  0
  128.7030  127.0520   63.6490 C   0  0  0  0  0  0  0  0  0  0  0  0
  129.8250  127.3900   63.0120 N   0  0  0  0  0  0  0  0  0  0  0  0
  128.7850  126.8300   64.9530 N   0  0  0  0  0  0  0  0  0  0  0  0
  1  2  1  0
  2  3  1  0
  3  4  1  0
  4  5  1  0
  5  6  2  0
  6  7  1  0
  7  8  2  0
  8  9  1  0
  9 10  2  0
  9 11  1  0
 11 12  1  0
 12 13  1  0
  2 14  2  0
 14 15  1  0
 15 16  1  0
 16 17  1  0
 16 18  2  0
 10  5  1  0
 13  8  1  0
M  CHG  1  18   1
M  END
>  <Binding energies>  (80) 
[-7.68]

>  <Ligand effiencies>  (80) 
[-0.33391304347826084]

>  <Interactions>  (80) 
["V-B:PRO:540:CB:9857, V-B:MET:535:CE:9807, V-B:TYR:539:CD2:9846, V-B:PRO:540:N:9856, V-B:PRO:540:CA:9855, H-B:TYR:539:N:9842, V-B:TYR:539:CE2:9848, V-B:TYR:539:C:9839, V-B:LEU:363:CD1:8160, V-B:TYR:539:CA:9841, V-B:PRO:540:CD:9859, V-B:ASP:366:CG:8184, V-A:GLU:543:CD:4908, V-B:TYR:539:CZ:9849, V-B:TYR:539:CG:9844, V-B:TYR:539:CE1:9847, H-B:GLU:543:OE1:9881, V-B:GLU:543:CD:9880, H-B:GLU:543:OE2:9882, V-B:TYR:539:CD1:9845, V-B:ILE:538:CG2:9835, H-A:GLU:543:OE1:4909, H-A:GLU:543:OE2:4910"]

$$$$
RR30_Rahimova_2017
     RDKit          3D

 18 19  0  0  0  0  0  0  0  0999 V2000
  129.1030  132.1480   60.3780 C   0  0  0  0  0  0  0  0  0  0  0  0
  130.1260  131.2440   61.0810 C   0  0  0  0  0  0  0  0  0  0  0  0
  131.4020  131.0940   60.2820 C   0  0  0  0  0  0  0  0  0  0  0  0
  132.6330  131.3180   60.6710 N   0  0  0  0  0  0  0  0  0  0  0  0
  133.4380  131.0420   59.5680 N   0  0  0  0  0  0  0  0  0  0  0  0
  132.6240  130.6860   58.6070 C   0  0  0  0  0  0  0  0  0  0  0  0
  133.0480  130.2020   56.9640 S   0  0  0  0  0  0  0  0  0  0  0  0
  132.3520  131.6050   56.0350 C   0  0  0  0  0  0  0  0  0  0  0  0
  130.8230  131.6400   56.1000 C   0  0  0  0  0  0  0  0  0  0  0  0
  130.2650  132.5800   56.6700 O   0  0  0  0  0  0  0  0  0  0  0  0
  130.1840  130.5890   55.5380 N   0  0  0  0  0  0  0  0  0  0  0  0
  128.8120  130.3970   55.4750 C   0  0  0  0  0  0  0  0  0  0  0  0
  128.0200  130.5180   54.4330 N   0  0  0  0  0  0  0  0  0  0  0  0
  126.6930  130.2480   54.7440 N   0  0  0  0  0  0  0  0  0  0  0  0
  126.5080  129.9300   56.0050 C   0  0  0  0  0  0  0  0  0  0  0  0
  125.1520  129.5970   56.5840 C   0  0  0  0  0  0  0  0  0  0  0  0
  127.9850  129.9350   56.9300 S   0  0  0  0  0  0  0  0  0  0  0  0
  131.3220  130.6920   58.9890 O   0  0  0  0  0  0  0  0  0  0  0  0
  1  2  1  0
  2  3  1  0
  3  4  2  0
  4  5  1  0
  5  6  2  0
  6  7  1  0
  7  8  1  0
  8  9  1  0
  9 10  2  0
  9 11  1  0
 11 12  1  0
 12 13  2  0
 13 14  1  0
 14 15  2  0
 15 16  1  0
 15 17  1  0
  6 18  1  0
 18  3  1  0
 17 12  1  0
M  END
>  <Binding energies>  (81) 
[-6.82]

>  <Ligand effiencies>  (81) 
[-0.3589473684210526]

>  <Interactions>  (81) 
["H-B:TYR:531:OH:9767, V-B:TYR:531:CZ:9766, V-A:ASP:366:CG:3212, V-A:PRO:540:CA:4883, H-A:TYR:531:OH:4795, H-A:TYR:539:N:4870, V-A:TYR:539:CZ:4877, V-A:PRO:540:CB:4885, V-A:TYR:539:CE1:4875, V-B:TYR:531:CE1:9764, H-B:LYS:534:NZ:9795, V-A:TYR:539:C:4867, V-A:LEU:363:CD1:3188, H-A:TYR:539:OH:4878, V-A:TYR:531:CE2:4793, H-A:LEU:363:N:3185"]

$$$$
RR31_Rahimova_2017
     RDKit          3D

 18 19  0  0  0  0  0  0  0  0999 V2000
  125.6190  122.4730   56.3940 C   0  0  0  0  0  0  0  0  0  0  0  0
  126.3370  122.7940   57.6990 C   0  0  0  0  0  0  0  0  0  0  0  0
  127.6580  122.3790   57.8680 C   0  0  0  0  0  0  0  0  0  0  0  0
  128.3430  122.6600   59.0480 C   0  0  0  0  0  0  0  0  0  0  0  0
  127.7300  123.3710   60.0920 C   0  0  0  0  0  0  0  0  0  0  0  0
  128.4000  123.6510   61.2850 N   0  0  0  0  0  0  0  0  0  0  0  0
  128.6330  125.0340   61.7450 C   0  0  0  0  0  0  0  0  0  0  0  0
  129.7220  125.1610   62.8370 C   0  0  0  0  0  0  0  0  0  0  0  0
  129.4110  124.3080   63.9870 N   0  0  0  0  0  0  0  0  0  0  0  0
  130.4080  124.4330   65.0550 C   0  0  0  0  0  0  0  0  0  0  0  0
  129.7770  124.6450   66.4460 C   0  0  0  0  0  0  0  0  0  0  0  0
  129.5430  126.1320   66.7590 C   0  0  0  0  0  0  0  0  0  0  0  0
  128.7500  126.7880   65.6230 N   0  0  0  0  0  0  0  0  0  0  0  0
  129.3730  122.9260   63.5090 C   0  0  0  0  0  0  0  0  0  0  0  0
  128.2680  122.7450   62.4430 C   0  0  0  0  0  0  0  0  0  0  0  0
  126.3980  123.7740   59.9120 C   0  0  0  0  0  0  0  0  0  0  0  0
  125.6990  123.4970   58.7320 C   0  0  0  0  0  0  0  0  0  0  0  0
  124.2530  123.9600   58.6000 C   0  0  0  0  0  0  0  0  0  0  0  0
  1  2  1  0
  2  3  2  0
  3  4  1  0
  4  5  2  0
  5  6  1  0
  6  7  1  0
  7  8  1  0
  8  9  1  0
  9 10  1  0
 10 11  1  0
 11 12  1  0
 12 13  1  0
  9 14  1  0
 14 15  1  0
  5 16  1  0
 16 17  2  0
 17 18  1  0
 17  2  1  0
 15  6  1  0
M  CHG  1  13   1
M  END
>  <Binding energies>  (82) 
[-6.9]

>  <Ligand effiencies>  (82) 
[-0.32857142857142857]

>  <Interactions>  (82) 
["V-B:PRO:540:CB:9857, V-B:MET:535:CE:9807, V-B:PRO:540:N:9856, V-B:PRO:540:CA:9855, V-B:ALA:541:CB:9864, V-B:TYR:539:C:9839, V-B:LEU:363:CD1:8160, V-B:PRO:540:CD:9859, V-A:GLU:543:CD:4908, V-B:LEU:363:CA:8156, V-A:TYR:484:CZ:4346, V-B:GLU:543:CB:9878, V-B:GLU:543:CG:9879, V-B:GLU:543:CD:9880, H-B:GLU:543:OE2:9882, V-A:TYR:484:CE2:4345, H-A:GLU:543:OE1:4909, V-B:ALA:541:CA:9862, V-B:LEU:363:CB:8158"]

$$$$
RR32_Rahimova_2017
     RDKit          3D

 18 20  0  0  0  0  0  0  0  0999 V2000
  130.2140  131.5270   56.5560 C   0  0  0  0  0  0  0  0  0  0  0  0
  130.2070  131.5850   58.0800 C   0  0  0  0  0  0  0  0  0  0  0  0
  129.0000  131.8560   58.7250 C   0  0  0  0  0  0  0  0  0  0  0  0
  128.9550  131.9130   60.1150 C   0  0  0  0  0  0  0  0  0  0  0  0
  127.7550  132.1820   60.7510 N   0  0  0  0  0  0  0  0  0  0  0  0
  127.6270  133.4840   61.4290 C   0  0  0  0  0  0  0  0  0  0  0  0
  126.3280  133.6150   62.2590 C   0  0  0  0  0  0  0  0  0  0  0  0
  125.1590  133.4190   61.4020 N   0  0  0  0  0  0  0  0  0  0  0  0
  123.9330  133.5740   62.1770 C   0  0  0  0  0  0  0  0  0  0  0  0
  125.2350  132.0720   60.8380 C   0  0  0  0  0  0  0  0  0  0  0  0
  126.5190  131.9160   59.9900 C   0  0  0  0  0  0  0  0  0  0  0  0
  130.0520  131.7180   60.8920 N   0  0  0  0  0  0  0  0  0  0  0  0
  131.2450  131.4550   60.2920 C   0  0  0  0  0  0  0  0  0  0  0  0
  132.3720  131.2580   61.1260 C   0  0  0  0  0  0  0  0  0  0  0  0
  133.6170  130.9860   60.5690 C   0  0  0  0  0  0  0  0  0  0  0  0
  133.7690  130.9040   59.1900 C   0  0  0  0  0  0  0  0  0  0  0  0
  132.6810  131.0930   58.3420 C   0  0  0  0  0  0  0  0  0  0  0  0
  131.3870  131.3740   58.8680 C   0  0  0  0  0  0  0  0  0  0  0  0
  1  2  1  0
  2  3  2  0
  3  4  1  0
  4  5  1  0
  5  6  1  0
  6  7  1  0
  7  8  1  0
  8  9  1  0
  8 10  1  0
 10 11  1  0
  4 12  2  0
 12 13  1  0
 13 14  2  0
 14 15  1  0
 15 16  2  0
 16 17  1  0
 17 18  2  0
 18  2  1  0
 11  5  1  0
 18 13  1  0
M  END
>  <Binding energies>  (83) 
[-6.52]

>  <Ligand effiencies>  (83) 
[-0.3622222222222222]

>  <Interactions>  (83) 
["V-A:ASP:366:CG:3212, V-A:PRO:540:N:4884, V-A:ASP:366:CB:3211, V-A:TYR:539:CD1:4873, V-A:PRO:540:CA:4883, V-A:PRO:540:CB:4885, V-A:TYR:539:CE1:4875, V-A:ALA:541:CB:4892, V-A:PRO:540:C:4881, V-A:TYR:539:C:4867, V-A:LEU:363:CD1:3188, V-B:ILE:369:CD1:8210, V-B:GLY:454:CA:9020, H-A:ALA:541:N:4891, V-A:LEU:363:CA:3184, V-A:LEU:363:CB:3186, V-B:LEU:475:CD1:9229, V-B:ILE:369:CG2:8208, V-A:ASN:362:CB:3175, V-A:ASN:362:C:3171"]

$$$$
RR5_Rahimova_2017
     RDKit          3D

 45 50  0  0  0  0  0  0  0  0999 V2000
  127.9830  131.6760   58.6820 O   0  0  0  0  0  0  0  0  0  0  0  0
  127.8470  130.5440   59.1430 C   0  0  0  0  0  0  0  0  0  0  0  0
  126.7040  130.2560   60.1350 C   0  0  0  0  0  0  0  0  0  0  0  0
  125.6490  129.2180   59.6100 C   0  0  2  0  0  0  0  0  0  0  0  0
  126.0180  127.8020   59.8030 N   0  0  0  0  0  0  0  0  0  0  0  0
  127.0540  127.4290   60.6490 C   0  0  0  0  0  0  0  0  0  0  0  0
  127.7370  128.1780   61.3520 O   0  0  0  0  0  0  0  0  0  0  0  0
  127.2080  126.0960   60.5680 O   0  0  0  0  0  0  0  0  0  0  0  0
  126.8260  125.2370   61.6390 C   0  0  0  0  0  0  0  0  0  0  0  0
  126.7370  123.7710   61.1620 C   0  0  0  0  0  0  0  0  0  0  0  0
  126.3240  123.6270   59.7080 C   0  0  0  0  0  0  0  0  0  0  0  0
  125.1710  124.0820   59.0620 C   0  0  0  0  0  0  0  0  0  0  0  0
  125.0050  123.8550   57.6950 C   0  0  0  0  0  0  0  0  0  0  0  0
  125.9860  123.1740   56.9730 C   0  0  0  0  0  0  0  0  0  0  0  0
  127.1380  122.7160   57.6160 C   0  0  0  0  0  0  0  0  0  0  0  0
  127.3010  122.9430   58.9840 C   0  0  0  0  0  0  0  0  0  0  0  0
  128.3890  122.5720   59.9040 C   0  0  0  0  0  0  0  0  0  0  0  0
  129.5790  121.8750   59.6860 C   0  0  0  0  0  0  0  0  0  0  0  0
  130.4430  121.6340   60.7550 C   0  0  0  0  0  0  0  0  0  0  0  0
  130.1190  122.0900   62.0350 C   0  0  0  0  0  0  0  0  0  0  0  0
  128.9310  122.7900   62.2470 C   0  0  0  0  0  0  0  0  0  0  0  0
  128.0650  123.0360   61.1790 C   0  0  0  0  0  0  0  0  0  0  0  0
  125.3220  129.4740   58.1180 C   0  0  0  0  0  0  0  0  0  0  0  0
  125.0410  130.5570   57.6470 O   0  0  0  0  0  0  0  0  0  0  0  0
  125.4180  128.3040   57.4200 O   0  0  0  0  0  0  0  0  0  0  0  0
  128.6200  129.4830   58.8220 N   0  0  0  0  0  0  0  0  0  0  0  0
  129.8020  129.3060   57.9260 C   0  0  0  0  0  0  0  0  0  0  0  0
  129.3910  130.1490   56.6720 C   0  0  0  0  0  0  0  0  0  0  0  0
  129.9670  131.4030   56.4100 C   0  0  0  0  0  0  0  0  0  0  0  0
  129.5950  132.1430   55.2910 C   0  0  0  0  0  0  0  0  0  0  0  0
  128.6310  131.6460   54.4200 C   0  0  0  0  0  0  0  0  0  0  0  0
  128.0440  130.4070   54.6540 C   0  0  0  0  0  0  0  0  0  0  0  0
  128.4250  129.6640   55.7670 C   0  0  0  0  0  0  0  0  0  0  0  0
  131.0450  129.9010   58.6690 C   0  0  0  0  0  0  0  0  0  0  0  0
  130.9830  130.2880   60.0170 C   0  0  0  0  0  0  0  0  0  0  0  0
  132.0960  130.8340   60.6530 C   0  0  0  0  0  0  0  0  0  0  0  0
  133.2830  131.0010   59.9490 C   0  0  0  0  0  0  0  0  0  0  0  0
  133.3700  130.6220   58.6140 C   0  0  0  0  0  0  0  0  0  0  0  0
  132.2610  130.0690   57.9830 C   0  0  0  0  0  0  0  0  0  0  0  0
  129.8940  127.7720   57.6250 C   0  0  0  0  0  0  0  0  0  0  0  0
  128.7530  126.9520   57.6890 C   0  0  0  0  0  0  0  0  0  0  0  0
  128.8300  125.5860   57.4300 C   0  0  0  0  0  0  0  0  0  0  0  0
  130.0530  125.0160   57.0950 C   0  0  0  0  0  0  0  0  0  0  0  0
  131.1950  125.8030   57.0100 C   0  0  0  0  0  0  0  0  0  0  0  0
  131.1140  127.1680   57.2690 C   0  0  0  0  0  0  0  0  0  0  0  0
  1  2  2  0
  2  3  1  0
  4  3  1  6
  4  5  1  0
  5  6  1  0
  6  7  2  0
  6  8  1  0
  8  9  1  0
  9 10  1  0
 10 11  1  0
 11 12  2  0
 12 13  1  0
 13 14  2  0
 14 15  1  0
 15 16  2  0
 16 17  1  0
 17 18  2  0
 18 19  1  0
 19 20  2  0
 20 21  1  0
 21 22  2  0
  4 23  1  0
 23 24  2  0
 23 25  1  0
  2 26  1  0
 26 27  1  0
 27 28  1  0
 28 29  2  0
 29 30  1  0
 30 31  2  0
 31 32  1  0
 32 33  2  0
 27 34  1  0
 34 35  2  0
 35 36  1  0
 36 37  2  0
 37 38  1  0
 38 39  2  0
 27 40  1  0
 40 41  2  0
 41 42  1  0
 42 43  2  0
 43 44  1  0
 44 45  2  0
 22 10  1  0
 33 28  1  0
 39 34  1  0
 45 40  1  0
 16 11  1  0
 22 17  1  0
M  END
>  <Binding energies>  (84) 
[-10.12]

>  <Ligand effiencies>  (84) 
[-0.21083333333333332]

>  <Interactions>  (84) 
["V-B:PRO:540:CB:9857, H-B:TYR:531:OH:9767, V-B:MET:535:CE:9807, V-B:TYR:539:CD2:9846, V-B:PRO:540:N:9856, V-B:PRO:540:CA:9855, V-B:ALA:541:CB:9864, V-B:TYR:539:CE2:9848, V-B:TYR:539:C:9839, V-B:TYR:531:CE2:9765, V-B:LEU:363:CD1:8160, V-A:ASP:366:CG:3212, V-A:ILE:538:CA:4860, V-A:ASP:366:CB:3211, V-A:ILE:538:CG2:4863, V-A:TYR:539:CE2:4876, V-A:PRO:540:CA:4883, V-A:TYR:539:CZ:4877, V-A:PRO:540:CB:4885, V-A:TYR:539:CE1:4875, V-A:ILE:538:CB:4862, V-B:ASP:366:CG:8184, V-B:ASP:366:CB:8183, V-A:LEU:363:CD1:3188, V-B:TYR:539:CZ:9849, H-A:TYR:539:OH:4878, V-B:GLU:543:CD:9880, V-A:ILE:538:C:4858, V-A:LEU:363:CA:3184, H-B:ASP:366:OD1:8185, V-A:ASN:362:C:3171"]

$$$$
1a_Grossjean_2025
     RDKit          3D

 26 27  0  0  0  0  0  0  0  0999 V2000
  124.3760  123.7520   58.9120 C   0  0  0  0  0  0  0  0  0  0  0  0
  125.4830  124.5450   58.2120 C   0  0  0  0  0  0  0  0  0  0  0  0
  125.8390  123.8920   56.9990 O   0  0  0  0  0  0  0  0  0  0  0  0
  126.6450  122.7990   57.0020 C   0  0  0  0  0  0  0  0  0  0  0  0
  126.3190  121.7120   56.5150 O   0  0  0  0  0  0  0  0  0  0  0  0
  127.9680  123.0380   57.6720 C   0  0  0  0  0  0  0  0  0  0  0  0
  128.3440  122.2290   58.7510 C   0  0  0  0  0  0  0  0  0  0  0  0
  129.5620  122.4290   59.3950 C   0  0  0  0  0  0  0  0  0  0  0  0
  130.4260  123.4410   58.9770 C   0  0  0  0  0  0  0  0  0  0  0  0
  131.6290  123.5550   59.7020 N   0  0  0  0  0  0  0  0  0  0  0  0
  132.9080  123.4700   59.2800 C   0  0  0  0  0  0  0  0  0  0  0  0
  133.2660  123.2680   58.1200 O   0  0  0  0  0  0  0  0  0  0  0  0
  133.9700  123.6450   60.3680 C   0  0  0  0  0  0  0  0  0  0  0  0
  134.2070  122.1310   61.3440 S   0  0  0  0  0  0  0  0  0  0  0  0
  132.6200  121.3440   61.5050 C   0  0  0  0  0  0  0  0  0  0  0  0
  131.6820  122.1210   62.1040 N   0  0  0  0  0  0  0  0  0  0  0  0
  130.4380  121.6180   62.2820 C   0  0  0  0  0  0  0  0  0  0  0  0
  129.4470  122.5390   62.9700 C   0  0  0  0  0  0  0  0  0  0  0  0
  130.0770  120.3390   61.8660 C   0  0  0  0  0  0  0  0  0  0  0  0
  131.0300  119.5370   61.2280 C   0  0  0  0  0  0  0  0  0  0  0  0
  130.6080  118.1440   60.7670 C   0  0  0  0  0  0  0  0  0  0  0  0
  132.3360  120.0430   61.0280 C   0  0  0  0  0  0  0  0  0  0  0  0
  133.3370  119.2400   60.3200 C   0  0  0  0  0  0  0  0  0  0  0  0
  134.1250  118.6050   59.7600 N   0  0  0  0  0  0  0  0  0  0  0  0
  130.0610  124.2520   57.8920 C   0  0  0  0  0  0  0  0  0  0  0  0
  128.8430  124.0510   57.2490 C   0  0  0  0  0  0  0  0  0  0  0  0
  1  2  1  0
  2  3  1  0
  3  4  1  0
  4  5  2  0
  4  6  1  0
  6  7  2  0
  7  8  1  0
  8  9  2  0
  9 10  1  0
 10 11  1  0
 11 12  2  0
 11 13  1  0
 13 14  1  0
 14 15  1  0
 15 16  2  0
 16 17  1  0
 17 18  1  0
 17 19  2  0
 19 20  1  0
 20 21  1  0
 20 22  2  0
 22 23  1  0
 23 24  3  0
  9 25  1  0
 25 26  2  0
 26  6  1  0
 22 15  1  0
M  END
>  <Binding energies>  (85) 
[-8.1]

>  <Ligand effiencies>  (85) 
[-0.3]

>  <Interactions>  (85) 
["V-B:PRO:540:CB:9857, H-B:TYR:531:OH:9767, V-B:MET:535:CE:9807, V-A:ILE:369:CG2:3236, V-B:TYR:539:CD2:9846, V-B:PRO:540:N:9856, V-A:LEU:475:CD1:4257, V-B:PRO:540:CA:9855, H-A:SER:385:OG:3409, H-A:HIS:383:NE2:3393, H-B:TYR:539:N:9842, V-B:ALA:541:CB:9864, V-B:TYR:539:CE2:9848, V-B:TYR:539:C:9839, V-B:TYR:531:CE2:9765, V-A:PRO:482:CG:4326, V-A:PRO:482:CB:4325, V-B:LEU:363:CD1:8160, V-A:ASP:366:CG:3212, V-A:ASP:366:CA:3209, H-B:TYR:539:OH:9850, V-A:ILE:369:CD1:3238, V-B:TYR:539:CZ:9849, V-B:LEU:363:CA:8156, V-A:ILE:369:CB:3235, V-B:ALA:541:CA:9862, V-B:LEU:363:CB:8158"]

$$$$
1aa_Ghoteimi_2023
     RDKit          3D

 40 43  0  0  0  0  0  0  0  0999 V2000
  129.1660  124.3310   72.8860 C   0  0  0  0  0  0  0  0  0  0  0  0
  129.4800  125.8150   73.0970 C   0  0  0  0  0  0  0  0  0  0  0  0
  128.6140  126.6020   72.2870 O   0  0  0  0  0  0  0  0  0  0  0  0
  129.0990  127.6070   71.5140 C   0  0  0  0  0  0  0  0  0  0  0  0
  129.4460  128.7040   71.9640 O   0  0  0  0  0  0  0  0  0  0  0  0
  129.1720  127.2540   70.0570 C   0  0  0  0  0  0  0  0  0  0  0  0
  129.3320  128.2320   69.0630 C   0  0  0  0  0  0  0  0  0  0  0  0
  129.3970  127.8750   67.7180 C   0  0  0  0  0  0  0  0  0  0  0  0
  129.3050  126.5260   67.3430 C   0  0  0  0  0  0  0  0  0  0  0  0
  129.3570  126.0490   66.0200 N   0  0  0  0  0  0  0  0  0  0  0  0
  130.4170  125.6980   65.2560 C   0  0  0  0  0  0  0  0  0  0  0  0
  131.5920  125.7360   65.6220 O   0  0  0  0  0  0  0  0  0  0  0  0
  130.1240  125.2130   63.8270 C   0  0  0  0  0  0  0  0  0  0  0  0
  128.7510  124.8210   63.7010 O   0  0  0  0  0  0  0  0  0  0  0  0
  127.9990  125.2390   62.6130 C   0  0  0  0  0  0  0  0  0  0  0  0
  127.4970  126.5050   62.6300 N   0  0  0  0  0  0  0  0  0  0  0  0
  126.7430  126.9470   61.5890 C   0  0  0  0  0  0  0  0  0  0  0  0
  126.2300  128.3550   61.6820 C   0  0  0  0  0  0  0  0  0  0  0  0
  125.8620  128.9090   62.9170 C   0  0  0  0  0  0  0  0  0  0  0  0
  125.3840  130.2140   63.0060 C   0  0  0  0  0  0  0  0  0  0  0  0
  125.2600  131.0040   61.8660 C   0  0  0  0  0  0  0  0  0  0  0  0
  124.7760  132.2850   62.0510 O   0  0  0  0  0  0  0  0  0  0  0  0
  125.0250  133.2710   61.0540 C   0  0  0  0  0  0  0  0  0  0  0  0
  125.6280  130.4670   60.6260 C   0  0  0  0  0  0  0  0  0  0  0  0
  126.1070  129.1630   60.5400 C   0  0  0  0  0  0  0  0  0  0  0  0
  126.4920  126.1200   60.4880 C   0  0  0  0  0  0  0  0  0  0  0  0
  127.0060  124.8160   60.4400 C   0  0  0  0  0  0  0  0  0  0  0  0
  126.7120  123.9870   59.2340 C   0  0  0  0  0  0  0  0  0  0  0  0
  127.7530  123.3660   58.5370 C   0  0  0  0  0  0  0  0  0  0  0  0
  127.4850  122.5840   57.4170 C   0  0  0  0  0  0  0  0  0  0  0  0
  126.1760  122.4010   56.9740 C   0  0  0  0  0  0  0  0  0  0  0  0
  126.0060  121.6100   55.8550 O   0  0  0  0  0  0  0  0  0  0  0  0
  125.0160  121.9650   54.8960 C   0  0  0  0  0  0  0  0  0  0  0  0
  125.1280  123.0160   57.6760 C   0  0  0  0  0  0  0  0  0  0  0  0
  125.3970  123.7990   58.7950 C   0  0  0  0  0  0  0  0  0  0  0  0
  127.7730  124.3620   61.5390 C   0  0  0  0  0  0  0  0  0  0  0  0
  128.3130  123.0030   61.5990 C   0  0  0  0  0  0  0  0  0  0  0  0
  128.7410  121.9290   61.6480 N   0  0  0  0  0  0  0  0  0  0  0  0
  129.1440  125.5520   68.3290 C   0  0  0  0  0  0  0  0  0  0  0  0
  129.0790  125.9100   69.6720 C   0  0  0  0  0  0  0  0  0  0  0  0
  1  2  1  0
  2  3  1  0
  3  4  1  0
  4  5  2  0
  4  6  1  0
  6  7  2  0
  7  8  1  0
  8  9  2  0
  9 10  1  0
 10 11  1  0
 11 12  2  0
 11 13  1  0
 13 14  1  0
 14 15  1  0
 15 16  2  0
 16 17  1  0
 17 18  1  0
 18 19  2  0
 19 20  1  0
 20 21  2  0
 21 22  1  0
 22 23  1  0
 21 24  1  0
 24 25  2  0
 17 26  2  0
 26 27  1  0
 27 28  1  0
 28 29  2  0
 29 30  1  0
 30 31  2  0
 31 32  1  0
 32 33  1  0
 31 34  1  0
 34 35  2  0
 27 36  2  0
 36 37  1  0
 37 38  3  0
  9 39  1  0
 39 40  2  0
 40  6  1  0
 36 15  1  0
 25 18  1  0
 35 28  1  0
M  END
>  <Binding energies>  (86) 
[-8.8]

>  <Ligand effiencies>  (86) 
[-0.21463414634146344]

>  <Interactions>  (86) 
["H-B:ALA:541:N:9863, V-B:PRO:540:CB:9857, V-B:MET:535:CE:9807, V-B:PRO:540:N:9856, V-B:PRO:540:CA:9855, H-B:TYR:539:N:9842, V-B:MET:535:CG:9805, V-B:TYR:539:C:9839, V-B:LEU:363:CD1:8160, H-A:TYR:484:OH:4347, V-B:PRO:540:CD:9859, V-B:ASP:366:CG:8184, V-B:ARG:545:CZ:9898, V-A:GLU:543:CD:4908, H-B:ARG:545:NH2:9900, V-A:GLU:543:C:4902, V-B:HIS:456:CE1:9041, V-A:HIS:456:CE1:4069, V-B:GLU:543:CB:9878, V-B:GLU:543:CG:9879, V-B:GLU:543:CD:9880, H-B:GLU:543:OE2:9882, V-A:GLU:543:CB:4906, V-A:TYR:484:CE2:4345, V-B:ILE:369:CG2:8208, V-B:ILE:538:CA:9832, V-B:ILE:538:CG1:9836, V-B:ILE:538:CG2:9835, V-B:ILE:538:CB:9834, V-B:GLU:543:CA:9876, V-B:GLU:543:C:9874, H-A:GLU:543:OE1:4909, V-B:MET:535:CB:9804, V-B:HIS:456:CD2:9039, V-A:HIS:456:CD2:4067"]

$$$$
1b_Grossjean_2025
     RDKit          3D

 25 26  0  0  0  0  0  0  0  0999 V2000
  125.0140  124.2240   58.0920 C   0  0  0  0  0  0  0  0  0  0  0  0
  125.8550  123.9150   56.9900 O   0  0  0  0  0  0  0  0  0  0  0  0
  126.6340  122.8030   56.9960 C   0  0  0  0  0  0  0  0  0  0  0  0
  126.3020  121.7360   56.4690 O   0  0  0  0  0  0  0  0  0  0  0  0
  127.9450  123.0000   57.7030 C   0  0  0  0  0  0  0  0  0  0  0  0
  128.2660  122.3060   58.8790 C   0  0  0  0  0  0  0  0  0  0  0  0
  129.4890  122.5130   59.5100 C   0  0  0  0  0  0  0  0  0  0  0  0
  130.4150  123.4120   58.9820 C   0  0  0  0  0  0  0  0  0  0  0  0
  131.6170  123.5420   59.7030 N   0  0  0  0  0  0  0  0  0  0  0  0
  132.8980  123.5040   59.2750 C   0  0  0  0  0  0  0  0  0  0  0  0
  133.2580  123.3450   58.1090 O   0  0  0  0  0  0  0  0  0  0  0  0
  133.9580  123.6890   60.3620 C   0  0  0  0  0  0  0  0  0  0  0  0
  134.2200  122.1710   61.3290 S   0  0  0  0  0  0  0  0  0  0  0  0
  132.6410  121.3660   61.4920 C   0  0  0  0  0  0  0  0  0  0  0  0
  131.7180  122.1020   62.1590 N   0  0  0  0  0  0  0  0  0  0  0  0
  130.4800  121.5850   62.3390 C   0  0  0  0  0  0  0  0  0  0  0  0
  129.4960  122.4710   63.0810 C   0  0  0  0  0  0  0  0  0  0  0  0
  130.1190  120.3220   61.8750 C   0  0  0  0  0  0  0  0  0  0  0  0
  131.0700  119.5460   61.2060 C   0  0  0  0  0  0  0  0  0  0  0  0
  130.6560  118.1580   60.7210 C   0  0  0  0  0  0  0  0  0  0  0  0
  132.3690  120.0650   61.0060 C   0  0  0  0  0  0  0  0  0  0  0  0
  133.3950  119.2540   60.3460 C   0  0  0  0  0  0  0  0  0  0  0  0
  134.2030  118.6100   59.8240 N   0  0  0  0  0  0  0  0  0  0  0  0
  130.1020  124.1100   57.8060 C   0  0  0  0  0  0  0  0  0  0  0  0
  128.8780  123.9020   57.1750 C   0  0  0  0  0  0  0  0  0  0  0  0
  1  2  1  0
  2  3  1  0
  3  4  2  0
  3  5  1  0
  5  6  2  0
  6  7  1  0
  7  8  2  0
  8  9  1  0
  9 10  1  0
 10 11  2  0
 10 12  1  0
 12 13  1  0
 13 14  1  0
 14 15  2  0
 15 16  1  0
 16 17  1  0
 16 18  2  0
 18 19  1  0
 19 20  1  0
 19 21  2  0
 21 22  1  0
 22 23  3  0
  8 24  1  0
 24 25  2  0
 25  5  1  0
 21 14  1  0
M  END
>  <Binding energies>  (87) 
[-7.85]

>  <Ligand effiencies>  (87) 
[-0.3019230769230769]

>  <Interactions>  (87) 
["H-B:TYR:531:OH:9767, V-B:MET:535:CE:9807, V-A:ILE:369:CG2:3236, V-B:TYR:539:CD2:9846, V-B:PRO:540:N:9856, V-A:LEU:475:CD1:4257, V-B:PRO:540:CA:9855, H-A:SER:385:OG:3409, H-A:HIS:383:NE2:3393, H-B:TYR:539:N:9842, V-B:ALA:541:CB:9864, V-B:TYR:539:CE2:9848, V-B:TYR:539:C:9839, V-B:TYR:531:CE2:9765, V-A:PRO:482:CG:4326, V-B:LEU:363:CD1:8160, V-A:ASP:366:CG:3212, V-A:ASP:366:CA:3209, H-B:TYR:539:OH:9850, V-A:ILE:369:CD1:3238, V-B:TYR:539:CZ:9849, V-B:ALA:541:CA:9862"]

$$$$
1c_Grossjean_2025
     RDKit          3D

 23 24  0  0  0  0  0  0  0  0999 V2000
  124.0710  130.3330   62.9680 C   0  0  0  0  0  0  0  0  0  0  0  0
  124.3190  130.5340   64.3560 O   0  0  0  0  0  0  0  0  0  0  0  0
  125.3030  129.7900   64.9780 C   0  0  0  0  0  0  0  0  0  0  0  0
  126.5590  129.7880   64.3710 C   0  0  0  0  0  0  0  0  0  0  0  0
  127.6150  129.0690   64.9230 C   0  0  0  0  0  0  0  0  0  0  0  0
  127.4250  128.3420   66.1080 C   0  0  0  0  0  0  0  0  0  0  0  0
  128.4190  127.5740   66.7450 N   0  0  0  0  0  0  0  0  0  0  0  0
  128.3130  126.7420   67.8030 C   0  0  0  0  0  0  0  0  0  0  0  0
  127.2730  126.4870   68.4090 O   0  0  0  0  0  0  0  0  0  0  0  0
  129.6170  126.0760   68.2470 C   0  0  0  0  0  0  0  0  0  0  0  0
  131.0650  126.8120   67.4320 S   0  0  0  0  0  0  0  0  0  0  0  0
  131.2260  126.0900   65.8120 C   0  0  0  0  0  0  0  0  0  0  0  0
  130.0720  126.1080   65.0960 N   0  0  0  0  0  0  0  0  0  0  0  0
  130.0720  125.5850   63.8480 C   0  0  0  0  0  0  0  0  0  0  0  0
  128.7500  125.6500   63.1060 C   0  0  0  0  0  0  0  0  0  0  0  0
  131.2060  125.0200   63.2690 C   0  0  0  0  0  0  0  0  0  0  0  0
  132.3940  124.9740   64.0060 C   0  0  0  0  0  0  0  0  0  0  0  0
  133.6190  124.3330   63.3570 C   0  0  0  0  0  0  0  0  0  0  0  0
  132.4170  125.5120   65.3140 C   0  0  0  0  0  0  0  0  0  0  0  0
  133.6370  125.4240   66.1210 C   0  0  0  0  0  0  0  0  0  0  0  0
  134.6000  125.3550   66.7580 N   0  0  0  0  0  0  0  0  0  0  0  0
  126.1670  128.3330   66.7120 C   0  0  0  0  0  0  0  0  0  0  0  0
  125.1130  129.0530   66.1570 C   0  0  0  0  0  0  0  0  0  0  0  0
  1  2  1  0
  2  3  1  0
  3  4  2  0
  4  5  1  0
  5  6  2  0
  6  7  1  0
  7  8  1  0
  8  9  2  0
  8 10  1  0
 10 11  1  0
 11 12  1  0
 12 13  2  0
 13 14  1  0
 14 15  1  0
 14 16  2  0
 16 17  1  0
 17 18  1  0
 17 19  2  0
 19 20  1  0
 20 21  3  0
  6 22  1  0
 22 23  2  0
 23  3  1  0
 19 12  1  0
M  END
>  <Binding energies>  (88) 
[-6.93]

>  <Ligand effiencies>  (88) 
[-0.28875]

>  <Interactions>  (88) 
["H-A:TYR:484:OH:4347, H-A:GLY:454:N:4049, H-B:GLY:454:N:9021, V-B:ARG:545:CZ:9898, V-A:GLU:543:CD:4908, H-B:TYR:484:OH:9319, V-B:HIS:456:CE1:9041, V-A:HIS:456:CE1:4069, V-B:GLU:543:CB:9878, V-A:ARG:545:CD:4923, V-B:GLU:543:CD:9880, H-B:GLU:543:OE2:9882, H-A:ARG:545:NE:4924, V-A:ARG:545:CG:4922, V-A:ARG:545:CZ:4926, V-B:ARG:545:CG:9894, H-A:GLU:543:OE1:4909, V-A:GLY:454:CA:4048, V-A:GLY:453:C:4041, H-A:ILE:455:N:4054, V-B:ARG:545:CD:9895"]

$$$$
1d_Grossjean_2025
     RDKit          3D

 21 22  0  0  0  0  0  0  0  0999 V2000
  125.6070  130.1170   57.5460 C   0  0  0  0  0  0  0  0  0  0  0  0
  126.7670  129.2990   57.0110 C   0  0  0  0  0  0  0  0  0  0  0  0
  127.3120  128.2430   57.7380 C   0  0  0  0  0  0  0  0  0  0  0  0
  128.3740  127.5170   57.1900 C   0  0  0  0  0  0  0  0  0  0  0  0
  128.9450  126.3540   57.9990 C   0  0  0  0  0  0  0  0  0  0  0  0
  128.8750  127.8770   55.9180 C   0  0  0  0  0  0  0  0  0  0  0  0
  129.9540  127.1010   55.3040 C   0  0  0  0  0  0  0  0  0  0  0  0
  130.8070  126.4860   54.8210 N   0  0  0  0  0  0  0  0  0  0  0  0
  128.2770  128.9790   55.2620 C   0  0  0  0  0  0  0  0  0  0  0  0
  128.7790  129.5690   53.6600 S   0  0  0  0  0  0  0  0  0  0  0  0
  129.3000  131.3000   53.8590 C   0  0  0  0  0  0  0  0  0  0  0  0
  129.7580  131.6040   55.2860 C   0  0  0  0  0  0  0  0  0  0  0  0
  129.2050  132.5060   55.9150 O   0  0  0  0  0  0  0  0  0  0  0  0
  130.7470  130.8130   55.7560 N   0  0  0  0  0  0  0  0  0  0  0  0
  131.4030  130.8340   57.0010 C   0  0  0  0  0  0  0  0  0  0  0  0
  132.7110  130.3410   57.0050 C   0  0  0  0  0  0  0  0  0  0  0  0
  133.4520  130.3210   58.1830 C   0  0  0  0  0  0  0  0  0  0  0  0
  132.8870  130.8020   59.3620 C   0  0  0  0  0  0  0  0  0  0  0  0
  131.5880  131.3040   59.3710 C   0  0  0  0  0  0  0  0  0  0  0  0
  130.8440  131.3240   58.1940 C   0  0  0  0  0  0  0  0  0  0  0  0
  127.2320  129.6640   55.7930 N   0  0  0  0  0  0  0  0  0  0  0  0
  1  2  1  0
  2  3  2  0
  3  4  1  0
  4  5  1  0
  4  6  2  0
  6  7  1  0
  7  8  3  0
  6  9  1  0
  9 10  1  0
 10 11  1  0
 11 12  1  0
 12 13  2  0
 12 14  1  0
 14 15  1  0
 15 16  2  0
 16 17  1  0
 17 18  2  0
 18 19  1  0
 19 20  2  0
  9 21  2  0
 21  2  1  0
 20 15  1  0
M  END
>  <Binding energies>  (89) 
[-7.2]

>  <Ligand effiencies>  (89) 
[-0.32727272727272727]

>  <Interactions>  (89) 
["H-B:TYR:531:OH:9767, V-B:TYR:531:CZ:9766, V-A:ASP:366:CG:3212, V-A:PRO:540:N:4884, V-A:ILE:538:CA:4860, V-A:ASP:366:CB:3211, V-A:ILE:538:CG2:4863, V-A:PRO:540:CA:4883, H-A:TYR:531:OH:4795, H-A:TYR:539:N:4870, V-A:TYR:539:CZ:4877, V-A:PRO:540:CB:4885, V-A:TYR:539:CE1:4875, V-A:TYR:531:CZ:4794, V-A:ILE:538:CB:4862, V-B:TYR:531:CE1:9764, H-B:LYS:534:NZ:9795, V-A:LEU:363:CD1:3188, H-A:TYR:539:OH:4878, V-B:LYS:534:CE:9794, V-A:LEU:363:CA:3184"]

$$$$
1e_Grossjean_2025
     RDKit          3D

 22 23  0  0  0  0  0  0  0  0999 V2000
  125.3630  122.3290   55.4970 C   0  0  0  0  0  0  0  0  0  0  0  0
  126.0370  122.8990   56.7310 C   0  0  0  0  0  0  0  0  0  0  0  0
  127.0020  122.1760   57.4380 C   0  0  0  0  0  0  0  0  0  0  0  0
  127.5770  122.7640   58.5650 C   0  0  0  0  0  0  0  0  0  0  0  0
  127.1790  124.0450   58.9560 C   0  0  0  0  0  0  0  0  0  0  0  0
  126.2100  124.7160   58.1990 C   0  0  0  0  0  0  0  0  0  0  0  0
  125.8410  125.9960   58.6480 N   0  0  0  0  0  0  0  0  0  0  0  0
  126.4790  127.1710   58.4540 C   0  0  0  0  0  0  0  0  0  0  0  0
  127.5350  127.3080   57.8350 O   0  0  0  0  0  0  0  0  0  0  0  0
  125.8230  128.3980   59.0910 C   0  0  0  0  0  0  0  0  0  0  0  0
  125.7910  129.8190   57.9570 S   0  0  0  0  0  0  0  0  0  0  0  0
  127.4080  130.5660   57.9330 C   0  0  0  0  0  0  0  0  0  0  0  0
  127.8530  130.9280   59.1630 N   0  0  0  0  0  0  0  0  0  0  0  0
  129.0710  131.5100   59.2710 C   0  0  0  0  0  0  0  0  0  0  0  0
  129.5040  131.8800   60.6770 C   0  0  0  0  0  0  0  0  0  0  0  0
  129.8830  131.7630   58.1680 C   0  0  0  0  0  0  0  0  0  0  0  0
  129.4240  131.4170   56.8930 C   0  0  0  0  0  0  0  0  0  0  0  0
  130.3260  131.7220   55.6980 C   0  0  0  0  0  0  0  0  0  0  0  0
  128.1540  130.8110   56.7550 C   0  0  0  0  0  0  0  0  0  0  0  0
  127.6350  130.4960   55.4230 C   0  0  0  0  0  0  0  0  0  0  0  0
  127.2260  130.2470   54.3680 N   0  0  0  0  0  0  0  0  0  0  0  0
  125.6400  124.1440   57.0970 N   0  0  0  0  0  0  0  0  0  0  0  0
  1  2  1  0
  2  3  2  0
  3  4  1  0
  4  5  2  0
  5  6  1  0
  6  7  1  0
  7  8  1  0
  8  9  2  0
  8 10  1  0
 10 11  1  0
 11 12  1  0
 12 13  2  0
 13 14  1  0
 14 15  1  0
 14 16  2  0
 16 17  1  0
 17 18  1  0
 17 19  2  0
 19 20  1  0
 20 21  3  0
  6 22  2  0
 22  2  1  0
 19 12  1  0
M  END
>  <Binding energies>  (90) 
[-7.81]

>  <Ligand effiencies>  (90) 
[-0.33956521739130435]

>  <Interactions>  (90) 
["V-B:PRO:540:CB:9857, H-B:TYR:531:OH:9767, V-B:MET:535:CE:9807, V-B:PRO:540:N:9856, V-B:PRO:540:CA:9855, V-B:MET:535:CG:9805, V-B:TYR:539:C:9839, V-B:TYR:531:CE2:9765, V-B:LEU:363:CD1:8160, V-B:PRO:540:CD:9859, V-A:PRO:540:N:4884, V-A:ILE:538:CG2:4863, V-A:TYR:539:CD1:4873, V-A:PRO:540:CA:4883, V-A:TYR:539:CZ:4877, V-A:TYR:539:CE1:4875, V-A:ILE:538:CB:4862, V-B:ASP:366:CG:8184, H-B:LYS:534:NZ:9795, V-B:ASP:366:CB:8183, V-A:PRO:540:C:4881, V-A:TYR:539:C:4867, H-A:TYR:539:OH:4878, V-B:ILE:538:CG2:9835, H-B:ASP:366:OD1:8185"]

$$$$
1f_Grossjean_2025
     RDKit          3D

 21 22  0  0  0  0  0  0  0  0999 V2000
  126.1730  129.9820   57.7230 C   0  0  0  0  0  0  0  0  0  0  0  0
  127.2200  129.0790   57.0990 C   0  0  0  0  0  0  0  0  0  0  0  0
  127.6610  127.9230   57.7370 C   0  0  0  0  0  0  0  0  0  0  0  0
  128.6380  127.1360   57.1180 C   0  0  0  0  0  0  0  0  0  0  0  0
  129.1190  125.8820   57.8470 C   0  0  0  0  0  0  0  0  0  0  0  0
  129.1450  127.5270   55.8580 C   0  0  0  0  0  0  0  0  0  0  0  0
  130.2080  126.7460   55.2200 C   0  0  0  0  0  0  0  0  0  0  0  0
  131.0470  126.1270   54.7170 N   0  0  0  0  0  0  0  0  0  0  0  0
  128.6190  128.7010   55.2700 C   0  0  0  0  0  0  0  0  0  0  0  0
  129.1340  129.3480   53.6920 S   0  0  0  0  0  0  0  0  0  0  0  0
  129.5230  131.1200   53.8950 C   0  0  0  0  0  0  0  0  0  0  0  0
  129.9590  131.5280   55.3100 C   0  0  0  0  0  0  0  0  0  0  0  0
  129.4950  132.5390   55.8390 O   0  0  0  0  0  0  0  0  0  0  0  0
  130.8790  130.7140   55.8700 N   0  0  0  0  0  0  0  0  0  0  0  0
  131.4870  130.7840   57.1380 C   0  0  0  0  0  0  0  0  0  0  0  0
  130.8120  130.9470   58.3630 C   0  0  0  0  0  0  0  0  0  0  0  0
  131.5430  130.9960   59.5530 C   0  0  0  0  0  0  0  0  0  0  0  0
  132.9310  130.8770   59.4910 C   0  0  0  0  0  0  0  0  0  0  0  0
  133.6050  130.7140   58.3250 N   0  0  0  0  0  0  0  0  0  0  0  0
  132.8810  130.6680   57.1760 C   0  0  0  0  0  0  0  0  0  0  0  0
  127.6890  129.4700   55.8900 N   0  0  0  0  0  0  0  0  0  0  0  0
  1  2  1  0
  2  3  2  0
  3  4  1  0
  4  5  1  0
  4  6  2  0
  6  7  1  0
  7  8  3  0
  6  9  1  0
  9 10  1  0
 10 11  1  0
 11 12  1  0
 12 13  2  0
 12 14  1  0
 14 15  1  0
 15 16  2  0
 16 17  1  0
 17 18  2  0
 18 19  1  0
 19 20  2  0
  9 21  2  0
 21  2  1  0
 20 15  1  0
M  END
>  <Binding energies>  (91) 
[-6.93]

>  <Ligand effiencies>  (91) 
[-0.315]

>  <Interactions>  (91) 
["H-B:TYR:531:OH:9767, V-A:ASP:366:CG:3212, V-A:ILE:538:CG2:4863, H-B:TYR:539:OH:9850, V-A:PRO:540:CA:4883, H-A:TYR:531:OH:4795, H-A:TYR:539:N:4870, V-A:TYR:539:CZ:4877, V-A:PRO:540:CB:4885, V-A:TYR:539:CE1:4875, V-A:ILE:538:CB:4862, V-A:LEU:363:CD1:3188"]

$$$$
1g_Grossjean_2025
     RDKit          3D

 22 23  0  0  0  0  0  0  0  0999 V2000
  128.9450  132.4340   59.9150 C   0  0  0  0  0  0  0  0  0  0  0  0
  128.5080  131.7730   58.6210 C   0  0  0  0  0  0  0  0  0  0  0  0
  127.5270  130.7830   58.6020 C   0  0  0  0  0  0  0  0  0  0  0  0
  127.1760  130.1980   57.3810 C   0  0  0  0  0  0  0  0  0  0  0  0
  126.1090  129.1040   57.3870 C   0  0  0  0  0  0  0  0  0  0  0  0
  127.8160  130.6300   56.1970 C   0  0  0  0  0  0  0  0  0  0  0  0
  127.5030  129.9950   54.9140 C   0  0  0  0  0  0  0  0  0  0  0  0
  127.2540  129.4910   53.9030 N   0  0  0  0  0  0  0  0  0  0  0  0
  128.7820  131.6580   56.3080 C   0  0  0  0  0  0  0  0  0  0  0  0
  129.6750  132.3270   54.9220 S   0  0  0  0  0  0  0  0  0  0  0  0
  131.2670  131.4540   54.8340 C   0  0  0  0  0  0  0  0  0  0  0  0
  132.1190  131.6890   56.0820 C   0  0  0  0  0  0  0  0  0  0  0  0
  132.2420  132.8260   56.5410 O   0  0  0  0  0  0  0  0  0  0  0  0
  132.7060  130.6030   56.6160 N   0  0  0  0  0  0  0  0  0  0  0  0
  133.5120  130.5880   57.8360 C   0  0  0  0  0  0  0  0  0  0  0  0
  132.6990  130.6160   59.1270 C   0  0  0  0  0  0  0  0  0  0  0  0
  133.1890  131.2950   60.2460 C   0  0  0  0  0  0  0  0  0  0  0  0
  132.4470  131.3220   61.4240 C   0  0  0  0  0  0  0  0  0  0  0  0
  131.2140  130.6730   61.4770 C   0  0  0  0  0  0  0  0  0  0  0  0
  130.7180  129.9990   60.3640 C   0  0  0  0  0  0  0  0  0  0  0  0
  131.4600  129.9710   59.1860 C   0  0  0  0  0  0  0  0  0  0  0  0
  129.1320  132.2040   57.5000 N   0  0  0  0  0  0  0  0  0  0  0  0
  1  2  1  0
  2  3  2  0
  3  4  1  0
  4  5  1  0
  4  6  2  0
  6  7  1  0
  7  8  3  0
  6  9  1  0
  9 10  1  0
 10 11  1  0
 11 12  1  0
 12 13  2  0
 12 14  1  0
 14 15  1  0
 15 16  1  0
 16 17  2  0
 17 18  1  0
 18 19  2  0
 19 20  1  0
 20 21  2  0
  9 22  2  0
 22  2  1  0
 21 16  1  0
M  END
>  <Binding energies>  (92) 
[-7.34]

>  <Ligand effiencies>  (92) 
[-0.31913043478260866]

>  <Interactions>  (92) 
["H-B:TYR:531:OH:9767, V-B:TYR:531:CZ:9766, V-A:ASP:366:CG:3212, V-A:PRO:540:N:4884, V-A:ASP:366:CB:3211, V-A:ILE:538:CG2:4863, V-A:TYR:539:CD1:4873, V-A:PRO:540:CA:4883, H-A:TYR:531:OH:4795, H-A:TYR:539:N:4870, V-A:TYR:539:CZ:4877, V-A:PRO:540:CB:4885, V-A:TYR:539:CE1:4875, V-A:TYR:531:CZ:4794, V-A:ILE:538:CB:4862, V-B:TYR:531:CE1:9764, H-B:LYS:534:NZ:9795, V-A:PRO:540:C:4881, V-A:TYR:539:C:4867, V-A:LEU:363:CD1:3188, V-A:GLU:543:CD:4908, V-A:TYR:531:CE2:4793, V-A:LEU:363:CA:3184, V-A:LEU:363:CB:3186, V-A:ASN:362:CB:3175"]

$$$$
1h_Grossjean_2025
     RDKit          3D

 28 29  0  0  0  0  0  0  0  0999 V2000
  133.2450  131.3680   61.5540 C   0  0  0  0  0  0  0  0  0  0  0  0
  131.8740  131.7460   61.4960 O   0  0  0  0  0  0  0  0  0  0  0  0
  131.1470  131.4870   60.3480 C   0  0  0  0  0  0  0  0  0  0  0  0
  131.7130  131.0260   59.1490 C   0  0  0  0  0  0  0  0  0  0  0  0
  130.9180  130.7990   58.0250 C   0  0  0  0  0  0  0  0  0  0  0  0
  131.5430  130.2760   56.7350 C   0  0  0  0  0  0  0  0  0  0  0  0
  130.6670  130.3750   55.5670 N   0  0  0  0  0  0  0  0  0  0  0  0
  129.9640  131.4660   55.2140 C   0  0  0  0  0  0  0  0  0  0  0  0
  129.9990  132.5310   55.8300 O   0  0  0  0  0  0  0  0  0  0  0  0
  129.0780  131.3340   53.9750 C   0  0  0  0  0  0  0  0  0  0  0  0
  128.3650  129.6680   53.8220 S   0  0  0  0  0  0  0  0  0  0  0  0
  127.7330  129.1870   55.4220 C   0  0  0  0  0  0  0  0  0  0  0  0
  126.5820  129.7980   55.8080 N   0  0  0  0  0  0  0  0  0  0  0  0
  126.0460  129.4770   57.0090 C   0  0  0  0  0  0  0  0  0  0  0  0
  124.7590  130.1970   57.3680 C   0  0  0  0  0  0  0  0  0  0  0  0
  126.6260  128.5460   57.8670 C   0  0  0  0  0  0  0  0  0  0  0  0
  127.8110  127.9120   57.4810 C   0  0  0  0  0  0  0  0  0  0  0  0
  128.4290  126.8930   58.4360 C   0  0  0  0  0  0  0  0  0  0  0  0
  128.3890  128.2320   56.2310 C   0  0  0  0  0  0  0  0  0  0  0  0
  129.6320  127.5860   55.8020 C   0  0  0  0  0  0  0  0  0  0  0  0
  130.6140  127.0750   55.4640 N   0  0  0  0  0  0  0  0  0  0  0  0
  129.5390  130.9980   58.1040 C   0  0  0  0  0  0  0  0  0  0  0  0
  128.9460  131.4530   59.2920 C   0  0  0  0  0  0  0  0  0  0  0  0
  127.5890  131.6740   59.4420 O   0  0  0  0  0  0  0  0  0  0  0  0
  126.8120  130.7610   60.2100 C   0  0  0  0  0  0  0  0  0  0  0  0
  129.7620  131.7050   60.4040 C   0  0  0  0  0  0  0  0  0  0  0  0
  129.1950  132.1450   61.5750 O   0  0  0  0  0  0  0  0  0  0  0  0
  129.1460  131.1620   62.6000 C   0  0  0  0  0  0  0  0  0  0  0  0
  1  2  1  0
  2  3  1  0
  3  4  2  0
  4  5  1  0
  5  6  1  0
  6  7  1  0
  7  8  1  0
  8  9  2  0
  8 10  1  0
 10 11  1  0
 11 12  1  0
 12 13  2  0
 13 14  1  0
 14 15  1  0
 14 16  2  0
 16 17  1  0
 17 18  1  0
 17 19  2  0
 19 20  1  0
 20 21  3  0
  5 22  2  0
 22 23  1  0
 23 24  1  0
 24 25  1  0
 23 26  2  0
 26 27  1  0
 27 28  1  0
 26  3  1  0
 19 12  1  0
M  END
>  <Binding energies>  (93) 
[-7.02]

>  <Ligand effiencies>  (93) 
[-0.24206896551724136]

>  <Interactions>  (93) 
["H-B:TYR:531:OH:9767, V-B:TYR:531:CZ:9766, V-A:ILE:538:CA:4860, V-A:ILE:538:CG2:4863, V-A:PRO:540:CA:4883, H-A:TYR:531:OH:4795, H-A:TYR:539:N:4870, V-A:TYR:539:CZ:4877, V-A:PRO:540:CB:4885, V-A:TYR:539:CE1:4875, V-A:TYR:531:CZ:4794, V-A:ILE:538:CB:4862, V-B:TYR:531:CE1:9764, H-B:LYS:534:NZ:9795, V-B:ASP:366:CB:8183, V-A:ALA:541:CB:4892, V-A:PRO:540:C:4881, V-A:GLU:543:CG:4907, V-A:GLU:543:CD:4908, V-B:ASP:366:C:8179, H-A:TYR:539:OH:4878, V-B:LYS:534:CE:9794, H-A:ALA:541:N:4891, V-A:ASN:362:CB:3175"]

$$$$
1i_Grossjean_2025
     RDKit          3D

 20 21  0  0  0  0  0  0  0  0999 V2000
  132.2460  131.7470   61.7740 C   0  0  0  0  0  0  0  0  0  0  0  0
  131.7710  130.8460   60.6510 C   0  0  0  0  0  0  0  0  0  0  0  0
  130.7740  129.8940   60.8510 C   0  0  0  0  0  0  0  0  0  0  0  0
  130.3690  129.0970   59.7750 C   0  0  0  0  0  0  0  0  0  0  0  0
  129.2610  128.0720   60.0150 C   0  0  0  0  0  0  0  0  0  0  0  0
  130.9850  129.2720   58.5140 C   0  0  0  0  0  0  0  0  0  0  0  0
  130.5410  128.4830   57.3620 C   0  0  0  0  0  0  0  0  0  0  0  0
  130.1880  127.8600   56.4530 N   0  0  0  0  0  0  0  0  0  0  0  0
  132.0060  130.2460   58.4090 C   0  0  0  0  0  0  0  0  0  0  0  0
  132.8870  130.5970   56.9030 S   0  0  0  0  0  0  0  0  0  0  0  0
  132.1460  132.0850   56.1670 C   0  0  0  0  0  0  0  0  0  0  0  0
  130.6230  131.9780   56.0630 C   0  0  0  0  0  0  0  0  0  0  0  0
  129.9200  132.8460   56.5840 O   0  0  0  0  0  0  0  0  0  0  0  0
  130.1590  130.9070   55.3840 N   0  0  0  0  0  0  0  0  0  0  0  0
  128.8340  130.5700   55.1470 C   0  0  0  0  0  0  0  0  0  0  0  0
  127.9750  130.1120   56.1450 C   0  0  0  0  0  0  0  0  0  0  0  0
  126.7740  129.8940   55.5120 C   0  0  0  0  0  0  0  0  0  0  0  0
  126.9020  130.2030   54.2000 O   0  0  0  0  0  0  0  0  0  0  0  0
  128.2130  130.6300   53.9800 N   0  0  0  0  0  0  0  0  0  0  0  0
  132.3780  131.0270   59.4540 N   0  0  0  0  0  0  0  0  0  0  0  0
  1  2  1  0
  2  3  2  0
  3  4  1  0
  4  5  1  0
  4  6  2  0
  6  7  1  0
  7  8  3  0
  6  9  1  0
  9 10  1  0
 10 11  1  0
 11 12  1  0
 12 13  2  0
 12 14  1  0
 14 15  1  0
 15 16  1  0
 16 17  2  0
 17 18  1  0
 18 19  1  0
  9 20  2  0
 20  2  1  0
 19 15  2  0
M  END
>  <Binding energies>  (94) 
[-7.23]

>  <Ligand effiencies>  (94) 
[-0.3442857142857143]

>  <Interactions>  (94) 
["V-B:TYR:531:CZ:9766, V-A:PRO:540:N:4884, V-A:PRO:540:CA:4883, H-A:TYR:531:OH:4795, H-A:TYR:539:N:4870, V-A:TYR:539:CZ:4877, V-A:PRO:540:CB:4885, V-A:TYR:539:CE1:4875, V-A:ILE:538:CB:4862, V-B:TYR:531:CE1:9764, H-B:LYS:534:NZ:9795, V-A:PRO:540:CD:4887, V-A:PRO:540:C:4881, V-A:LEU:363:CD1:3188, V-A:GLU:543:CD:4908, H-A:TYR:539:OH:4878, V-A:ALA:541:CA:4890, V-A:ALA:541:C:4888"]

$$$$
1k_Grossjean_2025
     RDKit          3D

 25 25  0  0  0  0  0  0  0  0999 V2000
  125.3450  121.9860   55.4500 C   0  0  0  0  0  0  0  0  0  0  0  0
  126.4580  121.6290   56.2540 O   0  0  0  0  0  0  0  0  0  0  0  0
  126.6570  122.4960   57.3630 C   0  0  0  0  0  0  0  0  0  0  0  0
  125.5410  123.5490   57.3960 C   0  0  0  0  0  0  0  0  0  0  0  0
  126.1180  124.8490   57.3770 O   0  0  0  0  0  0  0  0  0  0  0  0
  125.4260  125.7930   58.1850 C   0  0  0  0  0  0  0  0  0  0  0  0
  126.4420  126.6910   58.9010 C   0  0  0  0  0  0  0  0  0  0  0  0
  126.6200  127.8910   58.1590 O   0  0  0  0  0  0  0  0  0  0  0  0
  125.4010  128.5370   57.8170 C   0  0  0  0  0  0  0  0  0  0  0  0
  125.6590  129.5670   56.7010 C   0  0  0  0  0  0  0  0  0  0  0  0
  127.0760  129.7880   56.4100 N   0  0  0  0  0  0  0  0  0  0  0  0
  127.5800  130.0990   55.2030 C   0  0  0  0  0  0  0  0  0  0  0  0
  126.8810  130.2380   54.1970 O   0  0  0  0  0  0  0  0  0  0  0  0
  129.1060  130.2680   55.1460 C   0  0  0  0  0  0  0  0  0  0  0  0
  129.7700  131.7400   56.0000 S   0  0  0  0  0  0  0  0  0  0  0  0
  129.5750  131.5330   57.7640 C   0  0  0  0  0  0  0  0  0  0  0  0
  128.2970  131.5370   58.2240 N   0  0  0  0  0  0  0  0  0  0  0  0
  128.0790  131.3950   59.5510 C   0  0  0  0  0  0  0  0  0  0  0  0
  126.6270  131.4190   59.9870 C   0  0  0  0  0  0  0  0  0  0  0  0
  129.1140  131.2350   60.4700 C   0  0  0  0  0  0  0  0  0  0  0  0
  130.4340  131.2210   60.0090 C   0  0  0  0  0  0  0  0  0  0  0  0
  131.5540  131.0450   61.0320 C   0  0  0  0  0  0  0  0  0  0  0  0
  130.6840  131.3730   58.6270 C   0  0  0  0  0  0  0  0  0  0  0  0
  132.0580  131.3660   58.1160 C   0  0  0  0  0  0  0  0  0  0  0  0
  133.1430  131.3610   57.7130 N   0  0  0  0  0  0  0  0  0  0  0  0
  1  2  1  0
  2  3  1  0
  3  4  1  0
  4  5  1  0
  5  6  1  0
  6  7  1  0
  7  8  1  0
  8  9  1  0
  9 10  1  0
 10 11  1  0
 11 12  1  0
 12 13  2  0
 12 14  1  0
 14 15  1  0
 15 16  1  0
 16 17  2  0
 17 18  1  0
 18 19  1  0
 18 20  2  0
 20 21  1  0
 21 22  1  0
 21 23  2  0
 23 24  1  0
 24 25  3  0
 23 16  1  0
M  END
>  <Binding energies>  (95) 
[-6.76]

>  <Ligand effiencies>  (95) 
[-0.26]

>  <Interactions>  (95) 
["V-B:PRO:540:CB:9857, H-B:TYR:531:OH:9767, V-B:MET:535:CE:9807, V-B:PRO:540:N:9856, V-B:PRO:540:CA:9855, H-B:TYR:539:N:9842, V-B:MET:535:CG:9805, V-B:TYR:539:C:9839, V-B:TYR:531:CE2:9765, V-B:TYR:531:CZ:9766, V-B:LEU:363:CD1:8160, V-B:PRO:540:CD:9859, V-A:PRO:540:N:4884, V-A:TYR:539:CD1:4873, V-A:PRO:540:CA:4883, V-A:TYR:539:CZ:4877, V-A:PRO:540:CB:4885, V-A:TYR:539:CE1:4875, V-B:ASP:366:CG:8184, V-B:TYR:531:CE1:9764, H-B:LYS:534:NZ:9795, V-B:ASP:366:CB:8183, V-A:TYR:539:C:4867, H-A:TYR:539:OH:4878, V-B:ILE:538:CA:9832, V-B:ILE:538:CG1:9836, V-B:ILE:538:CG2:9835, V-B:ILE:538:CB:9834"]

$$$$
1l_Grossjean_2025
     RDKit          3D

 17 17  0  0  0  0  0  0  0  0999 V2000
  129.4880  127.6460   54.0050 C   0  0  0  0  0  0  0  0  0  0  0  0
  129.8840  128.9900   53.7710 O   0  0  0  0  0  0  0  0  0  0  0  0
  129.7540  129.7350   54.9420 N   0  0  0  0  0  0  0  0  0  0  0  0
  128.7950  130.6780   55.0130 C   0  0  0  0  0  0  0  0  0  0  0  0
  127.8730  130.7780   54.1990 O   0  0  0  0  0  0  0  0  0  0  0  0
  128.9100  131.6360   56.2070 C   0  0  0  0  0  0  0  0  0  0  0  0
  128.9850  130.8260   57.8420 S   0  0  0  0  0  0  0  0  0  0  0  0
  130.6980  130.7160   58.3290 C   0  0  0  0  0  0  0  0  0  0  0  0
  131.5440  130.2020   57.3990 N   0  0  0  0  0  0  0  0  0  0  0  0
  132.8590  130.0890   57.7030 C   0  0  0  0  0  0  0  0  0  0  0  0
  133.7390  129.5070   56.6130 C   0  0  0  0  0  0  0  0  0  0  0  0
  133.3820  130.4790   58.9330 C   0  0  0  0  0  0  0  0  0  0  0  0
  132.5210  131.0110   59.8990 C   0  0  0  0  0  0  0  0  0  0  0  0
  133.1170  131.4340   61.2410 C   0  0  0  0  0  0  0  0  0  0  0  0
  131.1460  131.1380   59.6030 C   0  0  0  0  0  0  0  0  0  0  0  0
  130.2200  131.6920   60.5960 C   0  0  0  0  0  0  0  0  0  0  0  0
  129.4920  132.1290   61.3810 N   0  0  0  0  0  0  0  0  0  0  0  0
  1  2  1  0
  2  3  1  0
  3  4  1  0
  4  5  2  0
  4  6  1  0
  6  7  1  0
  7  8  1  0
  8  9  2  0
  9 10  1  0
 10 11  1  0
 10 12  2  0
 12 13  1  0
 13 14  1  0
 13 15  2  0
 15 16  1  0
 16 17  3  0
 15  8  1  0
M  END
>  <Binding energies>  (96) 
[-5.94]

>  <Ligand effiencies>  (96) 
[-0.33]

>  <Interactions>  (96) 
["V-A:ASP:366:CG:3212, V-A:ASP:366:CB:3211, V-A:TYR:539:CD1:4873, V-A:PRO:540:CA:4883, H-A:TYR:531:OH:4795, V-A:TYR:539:CZ:4877, V-A:PRO:540:CB:4885, V-A:TYR:539:CE1:4875, V-A:TYR:531:CZ:4794, H-B:LYS:534:NZ:9795, V-A:PRO:540:C:4881, V-A:LEU:363:CD1:3188, H-A:TYR:539:OH:4878, H-A:ALA:541:N:4891, V-A:TYR:531:CE2:4793, V-A:LEU:363:CA:3184, V-A:ASN:362:CB:3175, V-A:MET:535:CE:4835"]

$$$$
1m_Grossjean_2025
     RDKit          3D

 20 20  0  0  0  0  0  0  0  0999 V2000
  131.6810  125.7880   55.7680 C   0  0  0  0  0  0  0  0  0  0  0  0
  130.9740  126.4990   54.7620 O   0  0  0  0  0  0  0  0  0  0  0  0
  129.6950  126.8800   54.9620 C   0  0  0  0  0  0  0  0  0  0  0  0
  128.9280  126.4040   55.8050 O   0  0  0  0  0  0  0  0  0  0  0  0
  129.2860  128.0160   54.0020 C   0  0  0  0  0  0  0  0  0  0  0  0
  129.5260  129.3530   54.5660 N   0  0  0  0  0  0  0  0  0  0  0  0
  128.6260  130.3530   54.6260 C   0  0  0  0  0  0  0  0  0  0  0  0
  127.4790  130.2510   54.1860 O   0  0  0  0  0  0  0  0  0  0  0  0
  129.1220  131.6510   55.2770 C   0  0  0  0  0  0  0  0  0  0  0  0
  130.8010  131.5540   55.9870 S   0  0  0  0  0  0  0  0  0  0  0  0
  130.6480  131.5180   57.7600 C   0  0  0  0  0  0  0  0  0  0  0  0
  129.4580  131.9900   58.2110 N   0  0  0  0  0  0  0  0  0  0  0  0
  129.2260  132.0040   59.5440 C   0  0  0  0  0  0  0  0  0  0  0  0
  127.8680  132.5270   59.9720 C   0  0  0  0  0  0  0  0  0  0  0  0
  130.1650  131.5650   60.4760 C   0  0  0  0  0  0  0  0  0  0  0  0
  131.4050  131.1010   60.0230 C   0  0  0  0  0  0  0  0  0  0  0  0
  132.4240  130.6390   61.0630 C   0  0  0  0  0  0  0  0  0  0  0  0
  131.6700  131.0770   58.6350 C   0  0  0  0  0  0  0  0  0  0  0  0
  132.9790  130.6430   58.1430 C   0  0  0  0  0  0  0  0  0  0  0  0
  134.0130  130.2990   57.7550 N   0  0  0  0  0  0  0  0  0  0  0  0
  1  2  1  0
  2  3  1  0
  3  4  2  0
  3  5  1  0
  5  6  1  0
  6  7  1  0
  7  8  2  0
  7  9  1  0
  9 10  1  0
 10 11  1  0
 11 12  2  0
 12 13  1  0
 13 14  1  0
 13 15  2  0
 15 16  1  0
 16 17  1  0
 16 18  2  0
 18 19  1  0
 19 20  3  0
 18 11  1  0
M  END
>  <Binding energies>  (97) 
[-6.83]

>  <Ligand effiencies>  (97) 
[-0.3252380952380952]

>  <Interactions>  (97) 
["H-B:TYR:531:OH:9767, V-A:ASP:366:CG:3212, V-A:PRO:540:N:4884, V-A:TYR:531:CE1:4792, V-A:ILE:538:CA:4860, V-A:ASP:366:CB:3211, V-A:TYR:539:CD1:4873, V-A:PRO:540:CA:4883, H-A:TYR:531:OH:4795, V-A:PRO:540:CB:4885, V-A:TYR:539:CE1:4875, H-B:LYS:534:NZ:9795, V-A:PRO:540:C:4881, V-A:TYR:539:C:4867, V-A:LEU:363:CD1:3188, H-A:TYR:539:OH:4878, V-A:LEU:363:CA:3184, V-A:MET:535:CE:4835"]

$$$$
1n_Grossjean_2025
     RDKit          3D

 27 28  0  0  0  0  0  0  0  0999 V2000
  125.3270  123.7990   59.3150 C   0  0  0  0  0  0  0  0  0  0  0  0
  124.8270  123.9990   57.8810 C   0  0  0  0  0  0  0  0  0  0  0  0
  125.9200  123.8790   56.9790 O   0  0  0  0  0  0  0  0  0  0  0  0
  126.7670  122.8190   57.0400 C   0  0  0  0  0  0  0  0  0  0  0  0
  126.4780  121.6930   56.6270 O   0  0  0  0  0  0  0  0  0  0  0  0
  128.0970  123.1580   57.6490 C   0  0  0  0  0  0  0  0  0  0  0  0
  128.7170  122.3230   58.5910 C   0  0  0  0  0  0  0  0  0  0  0  0
  129.9490  122.6680   59.1380 C   0  0  0  0  0  0  0  0  0  0  0  0
  130.5830  123.8540   58.7650 C   0  0  0  0  0  0  0  0  0  0  0  0
  131.8220  124.1070   59.3840 N   0  0  0  0  0  0  0  0  0  0  0  0
  133.0410  123.5870   59.1210 C   0  0  0  0  0  0  0  0  0  0  0  0
  133.2910  122.7640   58.2410 O   0  0  0  0  0  0  0  0  0  0  0  0
  134.1830  124.0940   60.0120 C   0  0  0  0  0  0  0  0  0  0  0  0
  133.9740  123.7710   61.5070 C   0  0  0  0  0  0  0  0  0  0  0  0
  134.1500  122.0120   61.9310 S   0  0  0  0  0  0  0  0  0  0  0  0
  132.5530  121.2490   61.7450 C   0  0  0  0  0  0  0  0  0  0  0  0
  131.5360  121.9870   62.2580 N   0  0  0  0  0  0  0  0  0  0  0  0
  130.2730  121.5120   62.1580 C   0  0  0  0  0  0  0  0  0  0  0  0
  129.1880  122.3950   62.7440 C   0  0  0  0  0  0  0  0  0  0  0  0
  129.9730  120.2920   61.5550 C   0  0  0  0  0  0  0  0  0  0  0  0
  131.0170  119.5140   61.0410 C   0  0  0  0  0  0  0  0  0  0  0  0
  130.6660  118.1750   60.3970 C   0  0  0  0  0  0  0  0  0  0  0  0
  132.3450  119.9880   61.1390 C   0  0  0  0  0  0  0  0  0  0  0  0
  133.4570  119.1680   60.6540 C   0  0  0  0  0  0  0  0  0  0  0  0
  134.3340  118.5170   60.2720 N   0  0  0  0  0  0  0  0  0  0  0  0
  129.9750  124.6890   57.8160 C   0  0  0  0  0  0  0  0  0  0  0  0
  128.7440  124.3400   57.2670 C   0  0  0  0  0  0  0  0  0  0  0  0
  1  2  1  0
  2  3  1  0
  3  4  1  0
  4  5  2  0
  4  6  1  0
  6  7  2  0
  7  8  1  0
  8  9  2  0
  9 10  1  0
 10 11  1  0
 11 12  2  0
 11 13  1  0
 13 14  1  0
 14 15  1  0
 15 16  1  0
 16 17  2  0
 17 18  1  0
 18 19  1  0
 18 20  2  0
 20 21  1  0
 21 22  1  0
 21 23  2  0
 23 24  1  0
 24 25  3  0
  9 26  1  0
 26 27  2  0
 27  6  1  0
 23 16  1  0
M  END
>  <Binding energies>  (98) 
[-8.1]

>  <Ligand effiencies>  (98) 
[-0.28928571428571426]

>  <Interactions>  (98) 
["V-B:PRO:540:CB:9857, H-B:TYR:531:OH:9767, V-B:MET:535:CE:9807, V-A:ILE:369:CG2:3236, V-B:TYR:539:CD2:9846, V-B:PRO:540:N:9856, V-A:LEU:475:CD1:4257, V-B:PRO:540:CA:9855, V-B:PRO:540:C:9853, H-A:SER:385:OG:3409, H-A:HIS:383:NE2:3393, H-B:TYR:539:N:9842, V-B:ALA:541:CB:9864, V-B:TYR:539:CE2:9848, V-B:TYR:539:C:9839, V-B:TYR:531:CE2:9765, V-A:PRO:482:CG:4326, V-B:LEU:363:CD1:8160, V-A:ASP:366:CG:3212, H-A:GLY:454:N:4049, V-A:ASP:366:CA:3209, V-A:ASP:366:CB:3211, H-B:TYR:539:OH:9850, V-A:ILE:369:CD1:3238, H-A:ASP:366:OD2:3214, V-B:TYR:539:CZ:9849, V-A:SER:385:CA:3406, V-A:ILE:369:CB:3235, V-B:ALA:541:CA:9862"]

$$$$
1q_Grossjean_2025
     RDKit          3D

 21 21  0  0  0  0  0  0  0  0999 V2000
  131.7430  131.7440   56.2260 C   0  0  0  0  0  0  0  0  0  0  0  0
  130.5700  132.5400   56.1500 O   0  0  0  0  0  0  0  0  0  0  0  0
  129.6720  132.3490   55.1520 C   0  0  0  0  0  0  0  0  0  0  0  0
  128.5540  132.8640   55.0870 O   0  0  0  0  0  0  0  0  0  0  0  0
  130.1470  131.3700   54.0570 C   0  0  0  0  0  0  0  0  0  0  0  0
  129.7660  129.9760   54.3290 N   0  0  0  0  0  0  0  0  0  0  0  0
  128.5120  129.4850   54.3200 C   0  0  0  0  0  0  0  0  0  0  0  0
  127.5200  130.1740   54.0740 O   0  0  0  0  0  0  0  0  0  0  0  0
  128.3750  127.9860   54.6230 C   0  0  0  0  0  0  0  0  0  0  0  0
  128.9910  127.5520   55.9680 C   0  0  0  0  0  0  0  0  0  0  0  0
  129.9570  126.0160   55.8650 S   0  0  0  0  0  0  0  0  0  0  0  0
  129.1960  124.7950   56.9150 C   0  0  0  0  0  0  0  0  0  0  0  0
  127.8810  124.5960   56.6440 N   0  0  0  0  0  0  0  0  0  0  0  0
  127.1940  123.6920   57.3800 C   0  0  0  0  0  0  0  0  0  0  0  0
  125.7250  123.5370   57.0290 C   0  0  0  0  0  0  0  0  0  0  0  0
  127.7830  122.9470   58.3980 C   0  0  0  0  0  0  0  0  0  0  0  0
  129.1430  123.1250   58.6700 C   0  0  0  0  0  0  0  0  0  0  0  0
  129.7710  122.2830   59.7800 C   0  0  0  0  0  0  0  0  0  0  0  0
  129.8830  124.0620   57.9130 C   0  0  0  0  0  0  0  0  0  0  0  0
  131.3200  124.2200   58.1450 C   0  0  0  0  0  0  0  0  0  0  0  0
  132.4560  124.3420   58.3310 N   0  0  0  0  0  0  0  0  0  0  0  0
  1  2  1  0
  2  3  1  0
  3  4  2  0
  3  5  1  0
  5  6  1  0
  6  7  1  0
  7  8  2  0
  7  9  1  0
  9 10  1  0
 10 11  1  0
 11 12  1  0
 12 13  2  0
 13 14  1  0
 14 15  1  0
 14 16  2  0
 16 17  1  0
 17 18  1  0
 17 19  2  0
 19 20  1  0
 20 21  3  0
 19 12  1  0
M  END
>  <Binding energies>  (99) 
[-6.79]

>  <Ligand effiencies>  (99) 
[-0.30863636363636365]

>  <Interactions>  (99) 
["H-B:TYR:531:OH:9767, V-B:MET:535:CE:9807, V-B:TYR:539:CD2:9846, V-B:PRO:540:CA:9855, V-B:TYR:539:CE2:9848, V-B:TYR:539:C:9839, V-B:TYR:531:CE2:9765, V-B:TYR:531:CZ:9766, V-B:LEU:363:CD1:8160, V-A:ILE:538:CA:4860, V-A:ILE:538:CG2:4863, H-B:TYR:539:OH:9850, H-A:TYR:531:OH:4795, H-A:TYR:539:N:4870, V-A:TYR:531:CZ:4794, V-A:ILE:538:CB:4862, V-B:TYR:531:CE1:9764, H-B:LYS:534:NZ:9795, V-A:LEU:363:CD1:3188, V-B:TYR:539:CZ:9849, H-A:TYR:539:OH:4878, V-A:ILE:538:C:4858"]

$$$$
2a_Grossjean_2025
     RDKit          3D

 29 30  0  0  0  0  0  0  0  0999 V2000
  125.6000  123.6620   61.1060 C   0  0  0  0  0  0  0  0  0  0  0  0
  127.0980  123.5420   61.4040 C   0  0  0  0  0  0  0  0  0  0  0  0
  127.6140  122.3830   60.7600 O   0  0  0  0  0  0  0  0  0  0  0  0
  128.7900  122.4240   60.0820 C   0  0  0  0  0  0  0  0  0  0  0  0
  129.7610  121.7140   60.3590 O   0  0  0  0  0  0  0  0  0  0  0  0
  128.7830  123.4060   58.9450 C   0  0  0  0  0  0  0  0  0  0  0  0
  129.8480  124.2920   58.7230 C   0  0  0  0  0  0  0  0  0  0  0  0
  129.8090  125.1910   57.6610 C   0  0  0  0  0  0  0  0  0  0  0  0
  128.7070  125.2290   56.8060 C   0  0  0  0  0  0  0  0  0  0  0  0
  128.7690  126.1860   55.7760 N   0  0  0  0  0  0  0  0  0  0  0  0
  129.8350  126.6620   55.0970 C   0  0  0  0  0  0  0  0  0  0  0  0
  131.0080  126.3400   55.2890 O   0  0  0  0  0  0  0  0  0  0  0  0
  129.5170  127.6900   54.0050 C   0  0  0  0  0  0  0  0  0  0  0  0
  128.2980  128.9420   54.5260 S   0  0  0  0  0  0  0  0  0  0  0  0
  129.0590  130.0820   55.6760 C   0  0  0  0  0  0  0  0  0  0  0  0
  130.1860  130.6970   55.2370 N   0  0  0  0  0  0  0  0  0  0  0  0
  130.8210  131.5630   56.0600 C   0  0  0  0  0  0  0  0  0  0  0  0
  132.0890  132.1890   55.5090 C   0  0  0  0  0  0  0  0  0  0  0  0
  130.3600  131.8580   57.3390 C   0  0  0  0  0  0  0  0  0  0  0  0
  129.1910  131.2410   57.8110 C   0  0  0  0  0  0  0  0  0  0  0  0
  128.6940  131.5790   59.2290 C   0  0  0  0  0  0  0  0  0  0  0  0
  128.6800  130.4800   59.9840 F   0  0  0  0  0  0  0  0  0  0  0  0
  129.5000  132.4810   59.7920 F   0  0  0  0  0  0  0  0  0  0  0  0
  127.4590  132.0860   59.2350 F   0  0  0  0  0  0  0  0  0  0  0  0
  128.5180  130.3280   56.9600 C   0  0  0  0  0  0  0  0  0  0  0  0
  127.2940  129.6520   57.4030 C   0  0  0  0  0  0  0  0  0  0  0  0
  126.3280  129.1190   57.7520 N   0  0  0  0  0  0  0  0  0  0  0  0
  127.6420  124.3420   57.0160 C   0  0  0  0  0  0  0  0  0  0  0  0
  127.6840  123.4400   58.0770 C   0  0  0  0  0  0  0  0  0  0  0  0
  1  2  1  0
  2  3  1  0
  3  4  1  0
  4  5  2  0
  4  6  1  0
  6  7  2  0
  7  8  1  0
  8  9  2  0
  9 10  1  0
 10 11  1  0
 11 12  2  0
 11 13  1  0
 13 14  1  0
 14 15  1  0
 15 16  2  0
 16 17  1  0
 17 18  1  0
 17 19  2  0
 19 20  1  0
 20 21  1  0
 21 22  1  0
 21 23  1  0
 21 24  1  0
 20 25  2  0
 25 26  1  0
 26 27  3  0
  9 28  1  0
 28 29  2  0
 29  6  1  0
 25 15  1  0
M  END
>  <Binding energies>  (100) 
[-6.95]

>  <Ligand effiencies>  (100) 
[-0.23166666666666666]

>  <Interactions>  (100) 
["H-B:ALA:541:N:9863, V-B:PRO:540:CB:9857, H-B:TYR:531:OH:9767, V-B:MET:535:CE:9807, V-B:PRO:540:CA:9855, V-A:PRO:540:N:4884, V-A:ILE:538:CG2:4863, H-B:TYR:539:OH:9850, V-A:TYR:539:CD1:4873, V-A:PRO:540:CA:4883, H-A:TYR:531:OH:4795, V-A:TYR:539:CE1:4875, V-A:ILE:538:CB:4862, V-A:PRO:540:CD:4887, V-A:PRO:540:C:4881, V-A:TYR:539:C:4867, V-A:LEU:363:CD1:3188, V-B:GLU:543:CD:9880, H-B:MET:535:SD:9806, V-A:TYR:531:CE2:4793, V-A:MET:535:CE:4835"]

$$$$
2b_Grossjean_2025
     RDKit          3D

 28 29  0  0  0  0  0  0  0  0999 V2000
  125.3590  121.6620   55.5900 C   0  0  0  0  0  0  0  0  0  0  0  0
  126.4890  121.9100   56.4150 O   0  0  0  0  0  0  0  0  0  0  0  0
  126.6900  123.1290   56.9770 C   0  0  0  0  0  0  0  0  0  0  0  0
  125.8710  124.0510   56.9140 O   0  0  0  0  0  0  0  0  0  0  0  0
  128.0110  123.2460   57.6810 C   0  0  0  0  0  0  0  0  0  0  0  0
  128.4400  122.2950   58.6190 C   0  0  0  0  0  0  0  0  0  0  0  0
  129.6700  122.4350   59.2550 C   0  0  0  0  0  0  0  0  0  0  0  0
  130.4980  123.5190   58.9650 C   0  0  0  0  0  0  0  0  0  0  0  0
  131.7160  123.5650   59.6700 N   0  0  0  0  0  0  0  0  0  0  0  0
  132.9800  123.4180   59.2170 C   0  0  0  0  0  0  0  0  0  0  0  0
  133.2960  123.1790   58.0510 O   0  0  0  0  0  0  0  0  0  0  0  0
  134.0730  123.5490   60.2820 C   0  0  0  0  0  0  0  0  0  0  0  0
  134.1680  122.1080   61.3950 S   0  0  0  0  0  0  0  0  0  0  0  0
  132.5720  121.3090   61.4950 C   0  0  0  0  0  0  0  0  0  0  0  0
  131.5790  122.0440   62.0570 N   0  0  0  0  0  0  0  0  0  0  0  0
  130.3460  121.5000   62.1700 C   0  0  0  0  0  0  0  0  0  0  0  0
  129.2970  122.3810   62.8200 C   0  0  0  0  0  0  0  0  0  0  0  0
  130.0490  120.2160   61.7240 C   0  0  0  0  0  0  0  0  0  0  0  0
  131.0570  119.4400   61.1330 C   0  0  0  0  0  0  0  0  0  0  0  0
  130.7100  118.0220   60.6410 C   0  0  0  0  0  0  0  0  0  0  0  0
  131.3970  117.1160   61.3390 F   0  0  0  0  0  0  0  0  0  0  0  0
  129.4060  117.7890   60.7970 F   0  0  0  0  0  0  0  0  0  0  0  0
  130.9980  117.8380   59.3510 F   0  0  0  0  0  0  0  0  0  0  0  0
  132.3570  119.9950   61.0140 C   0  0  0  0  0  0  0  0  0  0  0  0
  133.4510  119.2280   60.4110 C   0  0  0  0  0  0  0  0  0  0  0  0
  134.3130  118.6220   59.9330 N   0  0  0  0  0  0  0  0  0  0  0  0
  130.0740  124.4780   58.0340 C   0  0  0  0  0  0  0  0  0  0  0  0
  128.8430  124.3390   57.4000 C   0  0  0  0  0  0  0  0  0  0  0  0
  1  2  1  0
  2  3  1  0
  3  4  2  0
  3  5  1  0
  5  6  2  0
  6  7  1  0
  7  8  2  0
  8  9  1  0
  9 10  1  0
 10 11  2  0
 10 12  1  0
 12 13  1  0
 13 14  1  0
 14 15  2  0
 15 16  1  0
 16 17  1  0
 16 18  2  0
 18 19  1  0
 19 20  1  0
 20 21  1  0
 20 22  1  0
 20 23  1  0
 19 24  2  0
 24 25  1  0
 25 26  3  0
  8 27  1  0
 27 28  2  0
 28  5  1  0
 24 14  1  0
M  END
>  <Binding energies>  (101) 
[-7.63]

>  <Ligand effiencies>  (101) 
[-0.2631034482758621]

>  <Interactions>  (101) 
["H-B:TYR:531:OH:9767, V-B:MET:535:CE:9807, V-A:ILE:369:CG2:3236, V-B:TYR:539:CD2:9846, V-B:PRO:540:N:9856, V-A:LEU:475:CD1:4257, V-B:PRO:540:CA:9855, V-B:PRO:540:C:9853, H-A:SER:385:OG:3409, H-A:HIS:383:NE2:3393, H-B:TYR:539:N:9842, V-B:ALA:541:CB:9864, V-B:TYR:539:CE2:9848, V-B:TYR:539:C:9839, V-A:PRO:482:CG:4326, V-A:PRO:482:CB:4325, V-B:LEU:363:CD1:8160, V-A:ASP:366:CG:3212, V-B:PRO:540:CD:9859, V-A:ASP:366:CA:3209, H-B:TYR:539:OH:9850, V-A:ILE:369:CD1:3238, V-B:TYR:539:CZ:9849, V-A:SER:385:CA:3406, V-A:ILE:369:CB:3235, V-B:TYR:539:CG:9844, V-B:ILE:538:CA:9832, V-B:ILE:538:CG1:9836, V-B:ILE:538:CG2:9835, V-B:ILE:538:C:9830, V-B:ILE:538:CB:9834, V-B:TYR:539:CB:9843, V-B:ALA:541:CA:9862, V-A:HIS:383:CE1:3392, V-A:PRO:482:CD:4327"]

$$$$
2c_Grossjean_2025
     RDKit          3D

 26 27  0  0  0  0  0  0  0  0999 V2000
  125.1460  122.0210   55.2980 C   0  0  0  0  0  0  0  0  0  0  0  0
  126.3850  121.6270   55.8770 O   0  0  0  0  0  0  0  0  0  0  0  0
  126.7930  122.2130   57.0600 C   0  0  0  0  0  0  0  0  0  0  0  0
  128.1400  122.0720   57.3920 C   0  0  0  0  0  0  0  0  0  0  0  0
  128.6460  122.6270   58.5650 C   0  0  0  0  0  0  0  0  0  0  0  0
  127.7930  123.3270   59.4310 C   0  0  0  0  0  0  0  0  0  0  0  0
  128.2150  123.9360   60.6270 N   0  0  0  0  0  0  0  0  0  0  0  0
  128.1300  123.4640   61.8890 C   0  0  0  0  0  0  0  0  0  0  0  0
  127.5960  122.3990   62.2040 O   0  0  0  0  0  0  0  0  0  0  0  0
  128.7250  124.3840   62.9660 C   0  0  0  0  0  0  0  0  0  0  0  0
  130.0540  123.6480   63.9800 S   0  0  0  0  0  0  0  0  0  0  0  0
  130.9110  122.4020   63.0250 C   0  0  0  0  0  0  0  0  0  0  0  0
  130.1550  121.3490   62.6210 N   0  0  0  0  0  0  0  0  0  0  0  0
  130.7380  120.3650   61.9030 C   0  0  0  0  0  0  0  0  0  0  0  0
  129.8330  119.2150   61.5040 C   0  0  0  0  0  0  0  0  0  0  0  0
  132.0860  120.3890   61.5500 C   0  0  0  0  0  0  0  0  0  0  0  0
  132.8840  121.4710   61.9490 C   0  0  0  0  0  0  0  0  0  0  0  0
  134.3720  121.4850   61.5490 C   0  0  0  0  0  0  0  0  0  0  0  0
  135.1320  121.6840   62.6270 F   0  0  0  0  0  0  0  0  0  0  0  0
  134.7070  120.3210   60.9920 F   0  0  0  0  0  0  0  0  0  0  0  0
  134.6600  122.4480   60.6710 F   0  0  0  0  0  0  0  0  0  0  0  0
  132.2860  122.5090   62.7080 C   0  0  0  0  0  0  0  0  0  0  0  0
  133.0730  123.6630   63.1550 C   0  0  0  0  0  0  0  0  0  0  0  0
  133.6940  124.5740   63.5070 N   0  0  0  0  0  0  0  0  0  0  0  0
  126.4480  123.4840   59.0960 C   0  0  0  0  0  0  0  0  0  0  0  0
  125.9470  122.9280   57.9220 C   0  0  0  0  0  0  0  0  0  0  0  0
  1  2  1  0
  2  3  1  0
  3  4  2  0
  4  5  1  0
  5  6  2  0
  6  7  1  0
  7  8  1  0
  8  9  2  0
  8 10  1  0
 10 11  1  0
 11 12  1  0
 12 13  2  0
 13 14  1  0
 14 15  1  0
 14 16  2  0
 16 17  1  0
 17 18  1  0
 18 19  1  0
 18 20  1  0
 18 21  1  0
 17 22  2  0
 22 23  1  0
 23 24  3  0
  6 25  1  0
 25 26  2  0
 26  3  1  0
 22 12  1  0
M  END
>  <Binding energies>  (102) 
[-7.33]

>  <Ligand effiencies>  (102) 
[-0.2714814814814815]

>  <Interactions>  (102) 
["H-B:ALA:541:N:9863, V-B:PRO:540:CB:9857, V-B:MET:535:CE:9807, V-A:ILE:369:CG2:3236, V-B:TYR:539:CD2:9846, V-B:PRO:540:N:9856, V-A:LEU:475:CD1:4257, V-B:PRO:540:CA:9855, V-B:PRO:540:C:9853, H-B:TYR:539:N:9842, V-B:ALA:541:CB:9864, V-B:TYR:539:CE2:9848, V-B:MET:535:CG:9805, V-B:TYR:539:C:9839, V-A:PRO:482:CG:4326, V-A:PRO:482:CB:4325, V-B:LEU:363:CD1:8160, V-B:TYR:539:CA:9841, H-A:GLY:454:N:4049, V-B:PRO:540:CD:9859, V-A:ILE:369:CD1:3238, V-B:TYR:539:CZ:9849, V-A:SER:385:CA:3406, V-A:ILE:369:CB:3235, V-A:SER:385:C:3404, H-A:ARG:545:NH2:4928, V-B:TYR:539:CG:9844, V-B:GLU:543:CG:9879, V-B:TYR:539:CE1:9847, V-B:GLU:543:CD:9880, V-B:TYR:539:CD1:9845, V-B:ILE:538:CA:9832, V-B:ILE:538:CG1:9836, V-B:ILE:538:CG2:9835, V-B:ILE:538:CB:9834, V-A:GLY:454:CA:4048, V-A:GLY:453:C:4041, V-B:ALA:541:CA:9862, V-A:ILE:369:CG1:3237"]

$$$$
2d_Ghoteimi_2023
     RDKit          3D

 38 42  0  0  0  0  0  0  0  0999 V2000
  124.0820  130.2020   63.0960 C   0  0  0  0  0  0  0  0  0  0  0  0
  124.1740  129.8560   64.4690 O   0  0  0  0  0  0  0  0  0  0  0  0
  125.3360  129.4040   64.9860 C   0  0  0  0  0  0  0  0  0  0  0  0
  125.4410  128.6160   65.9300 O   0  0  0  0  0  0  0  0  0  0  0  0
  126.5440  129.9930   64.2420 C   0  0  0  0  0  0  0  0  0  0  0  0
  127.1810  128.8260   62.9910 S   0  0  0  0  0  0  0  0  0  0  0  0
  128.0670  127.5310   63.8330 C   0  0  0  0  0  0  0  0  0  0  0  0
  128.1780  127.7390   65.1680 N   0  0  0  0  0  0  0  0  0  0  0  0
  128.8360  126.8330   65.9350 C   0  0  0  0  0  0  0  0  0  0  0  0
  128.9340  127.1390   67.3950 C   0  0  0  0  0  0  0  0  0  0  0  0
  128.9490  126.1070   68.3390 C   0  0  0  0  0  0  0  0  0  0  0  0
  129.0400  126.3840   69.7010 C   0  0  0  0  0  0  0  0  0  0  0  0
  129.1300  127.7050   70.1660 C   0  0  0  0  0  0  0  0  0  0  0  0
  129.2040  128.0020   71.5320 N   0  0  0  0  0  0  0  0  0  0  0  0
  130.2700  127.4430   72.3870 C   0  0  0  0  0  0  0  0  0  0  0  0
  129.9800  127.5690   73.8980 C   0  0  0  0  0  0  0  0  0  0  0  0
  129.7240  128.9250   74.2300 O   0  0  0  0  0  0  0  0  0  0  0  0
  128.6000  129.4300   73.5290 C   0  0  0  0  0  0  0  0  0  0  0  0
  128.8450  129.3540   72.0070 C   0  0  0  0  0  0  0  0  0  0  0  0
  129.1000  128.7360   69.2170 C   0  0  0  0  0  0  0  0  0  0  0  0
  129.0070  128.4590   67.8570 C   0  0  0  0  0  0  0  0  0  0  0  0
  129.3990  125.6850   65.3720 C   0  0  0  0  0  0  0  0  0  0  0  0
  129.2690  125.4290   64.0020 C   0  0  0  0  0  0  0  0  0  0  0  0
  129.8710  124.1680   63.4750 C   0  0  0  0  0  0  0  0  0  0  0  0
  131.2310  123.9110   63.6540 C   0  0  0  0  0  0  0  0  0  0  0  0
  131.8000  122.7330   63.1780 C   0  0  0  0  0  0  0  0  0  0  0  0
  131.0210  121.7770   62.5040 C   0  0  0  0  0  0  0  0  0  0  0  0
  131.5680  120.5820   62.0290 N   0  0  0  0  0  0  0  0  0  0  0  0
  132.7910  120.5710   61.2020 C   0  0  0  0  0  0  0  0  0  0  0  0
  133.4370  119.1740   61.0780 C   0  0  0  0  0  0  0  0  0  0  0  0
  132.4860  118.2410   60.5900 O   0  0  0  0  0  0  0  0  0  0  0  0
  131.3650  118.1330   61.4550 C   0  0  0  0  0  0  0  0  0  0  0  0
  130.6650  119.5030   61.5850 C   0  0  0  0  0  0  0  0  0  0  0  0
  129.6530  122.0360   62.3440 C   0  0  0  0  0  0  0  0  0  0  0  0
  129.0850  123.2140   62.8220 C   0  0  0  0  0  0  0  0  0  0  0  0
  128.5780  126.3730   63.2010 C   0  0  0  0  0  0  0  0  0  0  0  0
  128.4000  126.1410   61.7650 C   0  0  0  0  0  0  0  0  0  0  0  0
  128.2610  125.9540   60.6310 N   0  0  0  0  0  0  0  0  0  0  0  0
  1  2  1  0
  2  3  1  0
  3  4  2  0
  3  5  1  0
  5  6  1  0
  6  7  1  0
  7  8  2  0
  8  9  1  0
  9 10  1  0
 10 11  2  0
 11 12  1  0
 12 13  2  0
 13 14  1  0
 14 15  1  0
 15 16  1  0
 16 17  1  0
 17 18  1  0
 18 19  1  0
 13 20  1  0
 20 21  2  0
  9 22  2  0
 22 23  1  0
 23 24  1  0
 24 25  2  0
 25 26  1  0
 26 27  2  0
 27 28  1  0
 28 29  1  0
 29 30  1  0
 30 31  1  0
 31 32  1  0
 32 33  1  0
 27 34  1  0
 34 35  2  0
 23 36  2  0
 36 37  1  0
 37 38  3  0
 36  7  1  0
 21 10  1  0
 35 24  1  0
 19 14  1  0
 33 28  1  0
M  END
>  <Binding energies>  (103) 
[-8.37]

>  <Ligand effiencies>  (103) 
[-0.22026315789473683]

>  <Interactions>  (103) 
["V-A:ILE:369:CG2:3236, V-A:LEU:475:CD1:4257, H-A:SER:385:OG:3409, H-A:HIS:383:NE2:3393, V-B:ALA:541:CB:9864, V-A:PRO:482:CG:4326, V-A:PRO:482:CB:4325, V-B:ASP:366:CG:8184, H-B:GLY:454:N:9021, H-B:ARG:545:NH1:9899, V-B:ARG:545:CZ:9898, V-A:GLU:543:CG:4907, V-A:GLU:543:CD:4908, H-B:ARG:545:NH2:9900, H-B:ARG:545:NE:9896, H-B:TYR:484:OH:9319, V-A:SER:385:CA:3406, V-A:SER:385:C:3404, V-A:GLU:543:C:4902, V-B:HIS:456:CE1:9041, V-A:HIS:456:CE1:4069, V-B:GLU:543:CB:9878, V-B:GLU:543:CG:9879, V-B:GLU:543:CD:9880, V-A:GLU:543:CB:4906, V-B:HIS:456:CD2:9039, H-A:LYS:547:NZ:4951"]

$$$$
2d_Grossjean_2025
     RDKit          3D

 24 25  0  0  0  0  0  0  0  0999 V2000
  129.8370  131.7080   60.3870 C   0  0  0  0  0  0  0  0  0  0  0  0
  129.2340  131.3800   59.0340 C   0  0  0  0  0  0  0  0  0  0  0  0
  129.8770  131.7210   57.8470 C   0  0  0  0  0  0  0  0  0  0  0  0
  129.2800  131.3910   56.6210 C   0  0  0  0  0  0  0  0  0  0  0  0
  130.0110  131.7680   55.3170 C   0  0  0  0  0  0  0  0  0  0  0  0
  129.1970  132.4610   54.5210 F   0  0  0  0  0  0  0  0  0  0  0  0
  131.0830  132.5140   55.5930 F   0  0  0  0  0  0  0  0  0  0  0  0
  130.4300  130.7020   54.6330 F   0  0  0  0  0  0  0  0  0  0  0  0
  128.0290  130.7230   56.6330 C   0  0  0  0  0  0  0  0  0  0  0  0
  127.3880  130.3160   55.3800 C   0  0  0  0  0  0  0  0  0  0  0  0
  126.8820  129.9940   54.3900 N   0  0  0  0  0  0  0  0  0  0  0  0
  127.4390  130.4390   57.8870 C   0  0  0  0  0  0  0  0  0  0  0  0
  125.8600  129.6360   58.0850 S   0  0  0  0  0  0  0  0  0  0  0  0
  126.0660  128.2040   59.1940 C   0  0  0  0  0  0  0  0  0  0  0  0
  126.5800  126.9550   58.4720 C   0  0  0  0  0  0  0  0  0  0  0  0
  127.5780  127.0470   57.7550 O   0  0  0  0  0  0  0  0  0  0  0  0
  125.8590  125.8310   58.6630 N   0  0  0  0  0  0  0  0  0  0  0  0
  126.0730  124.5390   58.1470 C   0  0  0  0  0  0  0  0  0  0  0  0
  127.3740  124.0430   58.2590 C   0  0  0  0  0  0  0  0  0  0  0  0
  127.6860  122.7760   57.7720 C   0  0  0  0  0  0  0  0  0  0  0  0
  126.6960  122.0070   57.1650 C   0  0  0  0  0  0  0  0  0  0  0  0
  125.3990  122.4970   57.0360 C   0  0  0  0  0  0  0  0  0  0  0  0
  125.0830  123.7620   57.5220 C   0  0  0  0  0  0  0  0  0  0  0  0
  128.0390  130.7460   59.0630 N   0  0  0  0  0  0  0  0  0  0  0  0
  1  2  1  0
  2  3  2  0
  3  4  1  0
  4  5  1  0
  5  6  1  0
  5  7  1  0
  5  8  1  0
  4  9  2  0
  9 10  1  0
 10 11  3  0
  9 12  1  0
 12 13  1  0
 13 14  1  0
 14 15  1  0
 15 16  2  0
 15 17  1  0
 17 18  1  0
 18 19  2  0
 19 20  1  0
 20 21  2  0
 21 22  1  0
 22 23  2  0
 12 24  2  0
 24  2  1  0
 23 18  1  0
M  END
>  <Binding energies>  (104) 
[-7.06]

>  <Ligand effiencies>  (104) 
[-0.2824]

>  <Interactions>  (104) 
["V-B:PRO:540:CB:9857, H-B:TYR:531:OH:9767, V-B:MET:535:CE:9807, V-B:PRO:540:N:9856, V-B:PRO:540:CA:9855, V-B:TYR:539:C:9839, V-B:TYR:531:CE2:9765, V-B:LEU:363:CD1:8160, V-B:TYR:539:CA:9841, V-B:PRO:540:CD:9859, V-A:PRO:540:N:4884, V-A:ILE:538:CA:4860, V-A:ILE:538:CG2:4863, V-A:TYR:539:CD1:4873, V-A:TYR:539:CE2:4876, V-A:PRO:540:CA:4883, V-A:TYR:539:CZ:4877, V-A:TYR:539:CD2:4874, V-A:TYR:539:CE1:4875, V-A:TYR:531:CZ:4794, V-A:ILE:538:CB:4862, V-B:ASP:366:CG:8184, V-B:TYR:531:CE1:9764, H-B:LYS:534:NZ:9795, V-B:ASP:366:CB:8183, V-A:PRO:540:CD:4887, V-A:PRO:540:C:4881, V-A:TYR:539:C:4867, H-A:TYR:539:OH:4878, V-A:ILE:538:C:4858, H-B:ASP:366:OD1:8185"]

$$$$
2e_Grossjean_2025
     RDKit          3D

 25 26  0  0  0  0  0  0  0  0999 V2000
  125.3570  122.1240   55.4810 C   0  0  0  0  0  0  0  0  0  0  0  0
  126.0340  122.7350   56.6930 C   0  0  0  0  0  0  0  0  0  0  0  0
  127.0340  122.0550   57.3920 C   0  0  0  0  0  0  0  0  0  0  0  0
  127.6210  122.6840   58.4920 C   0  0  0  0  0  0  0  0  0  0  0  0
  127.1980  123.9630   58.8620 C   0  0  0  0  0  0  0  0  0  0  0  0
  126.1840  124.5830   58.1230 C   0  0  0  0  0  0  0  0  0  0  0  0
  125.8270  125.8860   58.5120 N   0  0  0  0  0  0  0  0  0  0  0  0
  126.5660  127.0140   58.4230 C   0  0  0  0  0  0  0  0  0  0  0  0
  127.6800  127.0900   57.9020 O   0  0  0  0  0  0  0  0  0  0  0  0
  125.9560  128.2620   59.0690 C   0  0  0  0  0  0  0  0  0  0  0  0
  125.7340  129.6140   57.8690 S   0  0  0  0  0  0  0  0  0  0  0  0
  127.2930  130.4710   57.8240 C   0  0  0  0  0  0  0  0  0  0  0  0
  127.7410  130.8930   59.0330 N   0  0  0  0  0  0  0  0  0  0  0  0
  128.8970  131.5920   59.0840 C   0  0  0  0  0  0  0  0  0  0  0  0
  129.3400  132.0330   60.4660 C   0  0  0  0  0  0  0  0  0  0  0  0
  129.6410  131.9010   57.9460 C   0  0  0  0  0  0  0  0  0  0  0  0
  129.1860  131.4800   56.6880 C   0  0  0  0  0  0  0  0  0  0  0  0
  130.0080  131.8480   55.4390 C   0  0  0  0  0  0  0  0  0  0  0  0
  130.4830  130.7430   54.8610 F   0  0  0  0  0  0  0  0  0  0  0  0
  129.2410  132.4980   54.5640 F   0  0  0  0  0  0  0  0  0  0  0  0
  131.0510  132.6330   55.7200 F   0  0  0  0  0  0  0  0  0  0  0  0
  127.9790  130.7410   56.6180 C   0  0  0  0  0  0  0  0  0  0  0  0
  127.4360  130.2980   55.3300 C   0  0  0  0  0  0  0  0  0  0  0  0
  127.0060  129.9490   54.3140 N   0  0  0  0  0  0  0  0  0  0  0  0
  125.6110  123.9770   57.0420 N   0  0  0  0  0  0  0  0  0  0  0  0
  1  2  1  0
  2  3  2  0
  3  4  1  0
  4  5  2  0
  5  6  1  0
  6  7  1  0
  7  8  1  0
  8  9  2  0
  8 10  1  0
 10 11  1  0
 11 12  1  0
 12 13  2  0
 13 14  1  0
 14 15  1  0
 14 16  2  0
 16 17  1  0
 17 18  1  0
 18 19  1  0
 18 20  1  0
 18 21  1  0
 17 22  2  0
 22 23  1  0
 23 24  3  0
  6 25  2  0
 25  2  1  0
 22 12  1  0
M  END
>  <Binding energies>  (105) 
[-7.68]

>  <Ligand effiencies>  (105) 
[-0.29538461538461536]

>  <Interactions>  (105) 
["V-B:PRO:540:CB:9857, H-B:TYR:531:OH:9767, V-B:MET:535:CE:9807, V-B:PRO:540:N:9856, V-B:PRO:540:CA:9855, V-B:MET:535:CG:9805, V-B:TYR:539:C:9839, V-B:TYR:531:CZ:9766, V-B:LEU:363:CD1:8160, V-B:TYR:539:CA:9841, V-B:PRO:540:CD:9859, V-A:PRO:540:N:4884, V-A:ILE:538:CA:4860, V-A:ILE:538:CG2:4863, V-A:TYR:539:CD1:4873, V-A:TYR:539:CE2:4876, V-A:PRO:540:CA:4883, V-A:TYR:539:CZ:4877, V-A:TYR:539:CD2:4874, V-A:TYR:539:CE1:4875, V-A:TYR:531:CZ:4794, V-A:ILE:538:CB:4862, V-B:ASP:366:CG:8184, V-B:TYR:531:CE1:9764, H-B:LYS:534:NZ:9795, V-B:ASP:366:CB:8183, V-A:PRO:540:CD:4887, V-A:PRO:540:C:4881, V-A:TYR:539:C:4867, H-A:TYR:539:OH:4878, V-A:ILE:538:C:4858, V-B:ILE:538:CA:9832, V-B:ILE:538:CG1:9836, V-B:ILE:538:CG2:9835, H-B:ASP:366:OD1:8185"]

$$$$
2f_Grossjean_2025
     RDKit          3D

 24 25  0  0  0  0  0  0  0  0999 V2000
  126.3310  130.2390   58.1880 C   0  0  0  0  0  0  0  0  0  0  0  0
  127.2530  129.3540   57.3710 C   0  0  0  0  0  0  0  0  0  0  0  0
  127.6870  128.1180   57.8440 C   0  0  0  0  0  0  0  0  0  0  0  0
  128.5470  127.3390   57.0550 C   0  0  0  0  0  0  0  0  0  0  0  0
  129.0250  125.9810   57.6010 C   0  0  0  0  0  0  0  0  0  0  0  0
  128.7240  125.0080   56.7390 F   0  0  0  0  0  0  0  0  0  0  0  0
  130.3460  126.0040   57.7830 F   0  0  0  0  0  0  0  0  0  0  0  0
  128.4640  125.6670   58.7710 F   0  0  0  0  0  0  0  0  0  0  0  0
  128.9410  127.8390   55.7870 C   0  0  0  0  0  0  0  0  0  0  0  0
  129.8820  127.0890   54.9500 C   0  0  0  0  0  0  0  0  0  0  0  0
  130.6240  126.4960   54.2890 N   0  0  0  0  0  0  0  0  0  0  0  0
  128.4290  129.0930   55.3770 C   0  0  0  0  0  0  0  0  0  0  0  0
  128.8090  129.8650   53.8170 S   0  0  0  0  0  0  0  0  0  0  0  0
  130.2180  130.9970   54.0730 C   0  0  0  0  0  0  0  0  0  0  0  0
  130.4200  131.4670   55.5200 C   0  0  0  0  0  0  0  0  0  0  0  0
  129.8790  132.4960   55.9280 O   0  0  0  0  0  0  0  0  0  0  0  0
  131.2330  130.6800   56.2570 N   0  0  0  0  0  0  0  0  0  0  0  0
  131.6230  130.8070   57.6040 C   0  0  0  0  0  0  0  0  0  0  0  0
  130.7480  130.9040   58.7010 C   0  0  0  0  0  0  0  0  0  0  0  0
  131.2680  131.0210   59.9920 C   0  0  0  0  0  0  0  0  0  0  0  0
  132.6530  131.0350   60.1540 C   0  0  0  0  0  0  0  0  0  0  0  0
  133.5190  130.9350   59.1140 N   0  0  0  0  0  0  0  0  0  0  0  0
  132.9980  130.8200   57.8660 C   0  0  0  0  0  0  0  0  0  0  0  0
  127.6180  129.8410   56.1630 N   0  0  0  0  0  0  0  0  0  0  0  0
  1  2  1  0
  2  3  2  0
  3  4  1  0
  4  5  1  0
  5  6  1  0
  5  7  1  0
  5  8  1  0
  4  9  2  0
  9 10  1  0
 10 11  3  0
  9 12  1  0
 12 13  1  0
 13 14  1  0
 14 15  1  0
 15 16  2  0
 15 17  1  0
 17 18  1  0
 18 19  2  0
 19 20  1  0
 20 21  2  0
 21 22  1  0
 22 23  2  0
 12 24  2  0
 24  2  1  0
 23 18  1  0
M  END
>  <Binding energies>  (106) 
[-6.52]

>  <Ligand effiencies>  (106) 
[-0.2608]

>  <Interactions>  (106) 
["H-B:TYR:531:OH:9767, V-B:MET:535:CE:9807, V-A:ILE:538:CG2:4863, V-A:PRO:540:CA:4883, H-A:TYR:531:OH:4795, H-A:TYR:539:N:4870, V-A:TYR:539:CZ:4877, V-A:PRO:540:CB:4885, V-A:TYR:539:CE1:4875, V-A:ILE:538:CB:4862, H-B:LYS:534:NZ:9795, V-A:LEU:363:CD1:3188, V-A:LEU:363:CA:3184, H-A:LEU:363:N:3185"]

$$$$
2g_Grossjean_2025
     RDKit          3D

 25 26  0  0  0  0  0  0  0  0999 V2000
  126.3090  130.1010   57.7910 C   0  0  0  0  0  0  0  0  0  0  0  0
  127.3300  129.1690   57.1670 C   0  0  0  0  0  0  0  0  0  0  0  0
  127.7350  127.9980   57.8040 C   0  0  0  0  0  0  0  0  0  0  0  0
  128.6890  127.1730   57.1880 C   0  0  0  0  0  0  0  0  0  0  0  0
  129.1310  125.8860   57.9120 C   0  0  0  0  0  0  0  0  0  0  0  0
  128.5190  125.7870   59.0940 F   0  0  0  0  0  0  0  0  0  0  0  0
  128.8170  124.8210   57.1730 F   0  0  0  0  0  0  0  0  0  0  0  0
  130.4450  125.8470   58.1390 F   0  0  0  0  0  0  0  0  0  0  0  0
  129.2060  127.5580   55.9250 C   0  0  0  0  0  0  0  0  0  0  0  0
  130.2450  126.7620   55.2660 C   0  0  0  0  0  0  0  0  0  0  0  0
  131.0650  126.1330   54.7470 N   0  0  0  0  0  0  0  0  0  0  0  0
  128.7130  128.7500   55.3400 C   0  0  0  0  0  0  0  0  0  0  0  0
  129.2330  129.3660   53.7530 S   0  0  0  0  0  0  0  0  0  0  0  0
  129.0970  131.1850   53.8000 C   0  0  0  0  0  0  0  0  0  0  0  0
  129.9420  131.8640   54.8870 C   0  0  0  0  0  0  0  0  0  0  0  0
  129.5330  132.8570   55.4910 O   0  0  0  0  0  0  0  0  0  0  0  0
  131.1440  131.3050   55.1180 N   0  0  0  0  0  0  0  0  0  0  0  0
  132.1190  131.7660   56.1070 C   0  0  0  0  0  0  0  0  0  0  0  0
  131.7510  131.4430   57.5520 C   0  0  0  0  0  0  0  0  0  0  0  0
  132.7390  131.0130   58.4420 C   0  0  0  0  0  0  0  0  0  0  0  0
  132.4110  130.7540   59.7710 C   0  0  0  0  0  0  0  0  0  0  0  0
  131.1020  130.9360   60.2070 C   0  0  0  0  0  0  0  0  0  0  0  0
  130.1150  131.3770   59.3270 C   0  0  0  0  0  0  0  0  0  0  0  0
  130.4410  131.6370   57.9990 C   0  0  0  0  0  0  0  0  0  0  0  0
  127.8080  129.5470   55.9590 N   0  0  0  0  0  0  0  0  0  0  0  0
  1  2  1  0
  2  3  2  0
  3  4  1  0
  4  5  1  0
  5  6  1  0
  5  7  1  0
  5  8  1  0
  4  9  2  0
  9 10  1  0
 10 11  3  0
  9 12  1  0
 12 13  1  0
 13 14  1  0
 14 15  1  0
 15 16  2  0
 15 17  1  0
 17 18  1  0
 18 19  1  0
 19 20  2  0
 20 21  1  0
 21 22  2  0
 22 23  1  0
 23 24  2  0
 12 25  2  0
 25  2  1  0
 24 19  1  0
M  END
>  <Binding energies>  (107) 
[-7.04]

>  <Ligand effiencies>  (107) 
[-0.27076923076923076]

>  <Interactions>  (107) 
["H-B:TYR:531:OH:9767, V-B:MET:535:CE:9807, V-A:ASP:366:CG:3212, V-A:PRO:540:N:4884, V-A:ILE:538:CA:4860, V-A:ILE:538:CG2:4863, H-B:TYR:539:OH:9850, V-A:PRO:540:CA:4883, H-A:TYR:531:OH:4795, H-A:TYR:539:N:4870, V-A:TYR:539:CZ:4877, V-A:PRO:540:CB:4885, V-A:TYR:539:CE1:4875, V-A:TYR:531:CZ:4794, V-A:ILE:538:CB:4862, V-A:TYR:539:C:4867, V-A:LEU:363:CD1:3188, V-B:LYS:534:CE:9794, V-A:TYR:531:CE2:4793"]

$$$$
2h_Grossjean_2025
     RDKit          3D

 31 32  0  0  0  0  0  0  0  0999 V2000
  125.5710  121.8570   55.6930 C   0  0  0  0  0  0  0  0  0  0  0  0
  126.1320  121.7050   56.9920 O   0  0  0  0  0  0  0  0  0  0  0  0
  127.1960  122.5040   57.3710 C   0  0  0  0  0  0  0  0  0  0  0  0
  128.4530  122.0070   57.7480 C   0  0  0  0  0  0  0  0  0  0  0  0
  129.4810  122.8750   58.1090 C   0  0  0  0  0  0  0  0  0  0  0  0
  129.2770  124.2560   58.1020 C   0  0  0  0  0  0  0  0  0  0  0  0
  130.4250  125.1890   58.4830 C   0  0  0  0  0  0  0  0  0  0  0  0
  131.7200  124.5150   58.5840 N   0  0  0  0  0  0  0  0  0  0  0  0
  132.4250  124.3680   59.7200 C   0  0  0  0  0  0  0  0  0  0  0  0
  132.0850  124.8650   60.7950 O   0  0  0  0  0  0  0  0  0  0  0  0
  133.7000  123.5210   59.6030 C   0  0  0  0  0  0  0  0  0  0  0  0
  133.9050  122.2540   60.8990 S   0  0  0  0  0  0  0  0  0  0  0  0
  132.3730  121.3510   60.9820 C   0  0  0  0  0  0  0  0  0  0  0  0
  131.3090  122.1140   61.3360 N   0  0  0  0  0  0  0  0  0  0  0  0
  130.0980  121.5240   61.4470 C   0  0  0  0  0  0  0  0  0  0  0  0
  128.9560  122.4360   61.8540 C   0  0  0  0  0  0  0  0  0  0  0  0
  129.8980  120.1660   61.2090 C   0  0  0  0  0  0  0  0  0  0  0  0
  130.9830  119.3650   60.8220 C   0  0  0  0  0  0  0  0  0  0  0  0
  130.7400  117.8670   60.5530 C   0  0  0  0  0  0  0  0  0  0  0  0
  131.0840  117.5680   59.3010 F   0  0  0  0  0  0  0  0  0  0  0  0
  131.4480  117.0760   61.3630 F   0  0  0  0  0  0  0  0  0  0  0  0
  129.4510  117.5730   60.7300 F   0  0  0  0  0  0  0  0  0  0  0  0
  132.2590  119.9700   60.6930 C   0  0  0  0  0  0  0  0  0  0  0  0
  133.4120  119.1910   60.2350 C   0  0  0  0  0  0  0  0  0  0  0  0
  134.3200  118.5740   59.8700 N   0  0  0  0  0  0  0  0  0  0  0  0
  128.0180  124.7660   57.7500 C   0  0  0  0  0  0  0  0  0  0  0  0
  127.8080  126.1250   57.7440 O   0  0  0  0  0  0  0  0  0  0  0  0
  128.5220  126.8230   56.7320 C   0  0  0  0  0  0  0  0  0  0  0  0
  126.9890  123.8890   57.3670 C   0  0  0  0  0  0  0  0  0  0  0  0
  125.7600  124.3870   57.0040 O   0  0  0  0  0  0  0  0  0  0  0  0
  124.8660  124.5780   58.0920 C   0  0  0  0  0  0  0  0  0  0  0  0
  1  2  1  0
  2  3  1  0
  3  4  2  0
  4  5  1  0
  5  6  2  0
  6  7  1  0
  7  8  1  0
  8  9  1  0
  9 10  2  0
  9 11  1  0
 11 12  1  0
 12 13  1  0
 13 14  2  0
 14 15  1  0
 15 16  1  0
 15 17  2  0
 17 18  1  0
 18 19  1  0
 19 20  1  0
 19 21  1  0
 19 22  1  0
 18 23  2  0
 23 24  1  0
 24 25  3  0
  6 26  1  0
 26 27  1  0
 27 28  1  0
 26 29  2  0
 29 30  1  0
 30 31  1  0
 29  3  1  0
 23 13  1  0
M  END
>  <Binding energies>  (108) 
[-6.69]

>  <Ligand effiencies>  (108) 
[-0.2090625]

>  <Interactions>  (108) 
["H-B:TYR:531:OH:9767, V-B:MET:535:CE:9807, V-A:ILE:369:CG2:3236, V-B:TYR:539:CD2:9846, V-B:PRO:540:N:9856, V-A:LEU:475:CD1:4257, V-B:PRO:540:CA:9855, V-B:PRO:540:C:9853, H-A:SER:385:OG:3409, H-A:HIS:383:NE2:3393, H-B:TYR:539:N:9842, V-B:ALA:541:CB:9864, V-B:TYR:539:CE2:9848, V-B:TYR:539:C:9839, V-B:TYR:531:CE2:9765, V-A:PRO:482:CG:4326, V-B:TYR:531:CZ:9766, V-A:PRO:482:CB:4325, V-B:LEU:363:CD1:8160, V-B:TYR:539:CA:9841, V-A:ASP:366:CG:3212, V-B:PRO:540:CD:9859, V-A:ASP:366:CA:3209, V-A:ASP:366:CB:3211, H-B:TYR:539:OH:9850, V-B:ASP:366:CB:8183, V-B:TYR:539:CZ:9849, V-A:ILE:369:CB:3235, V-B:TYR:539:CG:9844, V-B:TYR:539:CE1:9847, V-B:TYR:539:CD1:9845, V-B:ILE:538:CA:9832, V-B:ILE:538:CG2:9835, V-B:TYR:539:CB:9843, V-B:ALA:541:CA:9862, V-A:HIS:383:CE1:3392, V-A:HIS:383:CD2:3391, V-A:PRO:482:CD:4327"]

$$$$
2i_Grossjean_2025
     RDKit          3D

 23 24  0  0  0  0  0  0  0  0999 V2000
  132.6040  131.7610   61.6020 C   0  0  0  0  0  0  0  0  0  0  0  0
  132.0120  130.8810   60.5170 C   0  0  0  0  0  0  0  0  0  0  0  0
  130.9600  130.0070   60.7790 C   0  0  0  0  0  0  0  0  0  0  0  0
  130.4460  129.2160   59.7420 C   0  0  0  0  0  0  0  0  0  0  0  0
  129.2820  128.2540   60.0500 C   0  0  0  0  0  0  0  0  0  0  0  0
  128.9900  128.2930   61.3510 F   0  0  0  0  0  0  0  0  0  0  0  0
  128.2010  128.6050   59.3530 F   0  0  0  0  0  0  0  0  0  0  0  0
  129.5640  126.9860   59.7400 F   0  0  0  0  0  0  0  0  0  0  0  0
  131.0200  129.3350   58.4510 C   0  0  0  0  0  0  0  0  0  0  0  0
  130.5210  128.5320   57.3290 C   0  0  0  0  0  0  0  0  0  0  0  0
  130.1270  127.9000   56.4440 N   0  0  0  0  0  0  0  0  0  0  0  0
  132.0870  130.2450   58.2740 C   0  0  0  0  0  0  0  0  0  0  0  0
  132.8930  130.4740   56.6970 S   0  0  0  0  0  0  0  0  0  0  0  0
  132.1300  131.9040   55.8740 C   0  0  0  0  0  0  0  0  0  0  0  0
  130.6020  131.8310   55.8830 C   0  0  0  0  0  0  0  0  0  0  0  0
  129.9620  132.7380   56.4180 O   0  0  0  0  0  0  0  0  0  0  0  0
  130.0620  130.7340   55.3090 N   0  0  0  0  0  0  0  0  0  0  0  0
  128.7140  130.4310   55.2080 C   0  0  0  0  0  0  0  0  0  0  0  0
  127.7990  130.0440   56.1980 C   0  0  0  0  0  0  0  0  0  0  0  0
  126.6080  129.8800   55.5280 C   0  0  0  0  0  0  0  0  0  0  0  0
  126.7960  130.1590   54.2160 O   0  0  0  0  0  0  0  0  0  0  0  0
  128.1340  130.5120   54.0310 N   0  0  0  0  0  0  0  0  0  0  0  0
  132.5690  131.0030   59.2920 N   0  0  0  0  0  0  0  0  0  0  0  0
  1  2  1  0
  2  3  2  0
  3  4  1  0
  4  5  1  0
  5  6  1  0
  5  7  1  0
  5  8  1  0
  4  9  2  0
  9 10  1  0
 10 11  3  0
  9 12  1  0
 12 13  1  0
 13 14  1  0
 14 15  1  0
 15 16  2  0
 15 17  1  0
 17 18  1  0
 18 19  1  0
 19 20  2  0
 20 21  1  0
 21 22  1  0
 12 23  2  0
 23  2  1  0
 22 18  2  0
M  END
>  <Binding energies>  (109) 
[-6.81]

>  <Ligand effiencies>  (109) 
[-0.28375]

>  <Interactions>  (109) 
["V-B:TYR:531:CZ:9766, V-A:ILE:538:CG2:4863, V-A:PRO:540:CA:4883, H-A:TYR:531:OH:4795, H-A:TYR:539:N:4870, V-A:TYR:539:CZ:4877, V-A:PRO:540:CB:4885, V-A:TYR:539:CE1:4875, V-A:ILE:538:CB:4862, V-B:TYR:531:CE1:9764, H-B:LYS:534:NZ:9795, V-A:PRO:540:C:4881, V-A:LEU:363:CD1:3188, H-A:TYR:539:OH:4878, V-A:ASN:362:CB:3175, V-A:ALA:541:C:4888"]

$$$$
2k_Grossjean_2025
     RDKit          3D

 28 28  0  0  0  0  0  0  0  0999 V2000
  125.4180  121.9700   55.7770 C   0  0  0  0  0  0  0  0  0  0  0  0
  126.5620  121.6280   56.5440 O   0  0  0  0  0  0  0  0  0  0  0  0
  127.1040  122.7220   57.2720 C   0  0  0  0  0  0  0  0  0  0  0  0
  125.9730  123.6520   57.7290 C   0  0  0  0  0  0  0  0  0  0  0  0
  126.4490  124.9900   57.7390 O   0  0  0  0  0  0  0  0  0  0  0  0
  126.9970  125.4050   58.9850 C   0  0  0  0  0  0  0  0  0  0  0  0
  127.1740  126.9290   58.9520 C   0  0  0  0  0  0  0  0  0  0  0  0
  128.5620  127.2030   58.8360 O   0  0  0  0  0  0  0  0  0  0  0  0
  129.2210  127.5110   60.0550 C   0  0  0  0  0  0  0  0  0  0  0  0
  129.3620  129.0400   60.1740 C   0  0  0  0  0  0  0  0  0  0  0  0
  130.7380  129.5040   59.9800 N   0  0  0  0  0  0  0  0  0  0  0  0
  131.1880  130.7480   60.2330 C   0  0  0  0  0  0  0  0  0  0  0  0
  130.4780  131.6450   60.6930 O   0  0  0  0  0  0  0  0  0  0  0  0
  132.6620  131.0060   59.8900 C   0  0  0  0  0  0  0  0  0  0  0  0
  133.1270  130.6960   58.1510 S   0  0  0  0  0  0  0  0  0  0  0  0
  131.8700  129.6930   57.3700 C   0  0  0  0  0  0  0  0  0  0  0  0
  131.9780  128.3540   57.5690 N   0  0  0  0  0  0  0  0  0  0  0  0
  131.0640  127.5340   57.0040 C   0  0  0  0  0  0  0  0  0  0  0  0
  131.2590  126.0530   57.2620 C   0  0  0  0  0  0  0  0  0  0  0  0
  130.0050  128.0070   56.2330 C   0  0  0  0  0  0  0  0  0  0  0  0
  129.8690  129.3880   56.0210 C   0  0  0  0  0  0  0  0  0  0  0  0
  128.6890  129.8950   55.1700 C   0  0  0  0  0  0  0  0  0  0  0  0
  129.0820  130.6090   54.1150 F   0  0  0  0  0  0  0  0  0  0  0  0
  127.9790  128.8620   54.7130 F   0  0  0  0  0  0  0  0  0  0  0  0
  127.8950  130.6720   55.9070 F   0  0  0  0  0  0  0  0  0  0  0  0
  130.8260  130.2590   56.6020 C   0  0  0  0  0  0  0  0  0  0  0  0
  130.7350  131.7100   56.4100 C   0  0  0  0  0  0  0  0  0  0  0  0
  130.6620  132.8560   56.2580 N   0  0  0  0  0  0  0  0  0  0  0  0
  1  2  1  0
  2  3  1  0
  3  4  1  0
  4  5  1  0
  5  6  1  0
  6  7  1  0
  7  8  1  0
  8  9  1  0
  9 10  1  0
 10 11  1  0
 11 12  1  0
 12 13  2  0
 12 14  1  0
 14 15  1  0
 15 16  1  0
 16 17  2  0
 17 18  1  0
 18 19  1  0
 18 20  2  0
 20 21  1  0
 21 22  1  0
 22 23  1  0
 22 24  1  0
 22 25  1  0
 21 26  2  0
 26 27  1  0
 27 28  3  0
 26 16  1  0
M  END
>  <Binding energies>  (110) 
[-6.03]

>  <Ligand effiencies>  (110) 
[-0.20793103448275863]

>  <Interactions>  (110) 
["H-B:TYR:531:OH:9767, V-B:MET:535:CE:9807, V-B:PRO:540:N:9856, V-B:PRO:540:CA:9855, H-B:TYR:539:N:9842, V-B:TYR:539:C:9839, V-B:TYR:531:CZ:9766, V-B:LEU:363:CD1:8160, V-A:ASP:366:CG:3212, V-B:PRO:540:CD:9859, V-A:PRO:540:CA:4883, H-A:TYR:531:OH:4795, H-A:TYR:539:N:4870, V-A:TYR:539:CZ:4877, V-A:PRO:540:CB:4885, V-A:TYR:539:CE1:4875, V-B:TYR:531:CE1:9764, H-A:ASP:366:OD2:3214, H-A:ALA:541:N:4891, V-B:ILE:538:CA:9832, V-B:ILE:538:CG2:9835"]

$$$$
3aa_Grossjean_2025
     RDKit          3D

 34 36  0  0  0  0  0  0  0  0999 V2000
  130.4420  131.8350   55.1450 C   0  0  0  0  0  0  0  0  0  0  0  0
  129.8590  131.0180   53.9870 C   0  0  0  0  0  0  0  0  0  0  0  0
  128.4380  131.0490   54.0540 O   0  0  0  0  0  0  0  0  0  0  0  0
  127.7360  129.9740   54.4950 C   0  0  0  0  0  0  0  0  0  0  0  0
  126.5090  129.8760   54.3970 O   0  0  0  0  0  0  0  0  0  0  0  0
  128.5990  128.9210   55.1310 C   0  0  0  0  0  0  0  0  0  0  0  0
  129.0290  127.7880   54.4250 C   0  0  0  0  0  0  0  0  0  0  0  0
  129.8330  126.8330   55.0430 C   0  0  0  0  0  0  0  0  0  0  0  0
  130.2260  126.9940   56.3730 C   0  0  0  0  0  0  0  0  0  0  0  0
  131.0410  125.9730   56.9010 N   0  0  0  0  0  0  0  0  0  0  0  0
  132.2970  125.6090   56.5590 C   0  0  0  0  0  0  0  0  0  0  0  0
  132.9690  126.1220   55.6640 O   0  0  0  0  0  0  0  0  0  0  0  0
  132.8910  124.4540   57.3650 C   0  0  0  0  0  0  0  0  0  0  0  0
  132.5560  124.6290   59.1430 S   0  0  0  0  0  0  0  0  0  0  0  0
  131.3200  123.4200   59.5620 C   0  0  0  0  0  0  0  0  0  0  0  0
  130.1380  123.6100   58.9270 N   0  0  0  0  0  0  0  0  0  0  0  0
  129.1060  122.7580   59.1580 C   0  0  0  0  0  0  0  0  0  0  0  0
  127.8360  123.0260   58.4080 C   0  0  0  0  0  0  0  0  0  0  0  0
  127.3920  122.1370   57.4160 C   0  0  0  0  0  0  0  0  0  0  0  0
  126.2130  122.3790   56.7140 C   0  0  0  0  0  0  0  0  0  0  0  0
  125.4620  123.5150   56.9970 C   0  0  0  0  0  0  0  0  0  0  0  0
  125.8800  124.4090   57.9770 C   0  0  0  0  0  0  0  0  0  0  0  0
  127.0570  124.1640   58.6780 C   0  0  0  0  0  0  0  0  0  0  0  0
  129.2470  121.6800   60.0380 C   0  0  0  0  0  0  0  0  0  0  0  0
  130.4560  121.4730   60.7200 C   0  0  0  0  0  0  0  0  0  0  0  0
  130.5680  120.2810   61.6890 C   0  0  0  0  0  0  0  0  0  0  0  0
  130.6220  120.6570   62.9680 F   0  0  0  0  0  0  0  0  0  0  0  0
  129.5130  119.4780   61.5540 F   0  0  0  0  0  0  0  0  0  0  0  0
  131.6760  119.5860   61.4270 F   0  0  0  0  0  0  0  0  0  0  0  0
  131.5240  122.3740   60.4880 C   0  0  0  0  0  0  0  0  0  0  0  0
  132.7900  122.2410   61.2160 C   0  0  0  0  0  0  0  0  0  0  0  0
  133.7890  122.1370   61.7910 N   0  0  0  0  0  0  0  0  0  0  0  0
  129.7880  128.1180   57.0890 C   0  0  0  0  0  0  0  0  0  0  0  0
  128.9840  129.0700   56.4700 C   0  0  0  0  0  0  0  0  0  0  0  0
  1  2  1  0
  2  3  1  0
  3  4  1  0
  4  5  2  0
  4  6  1  0
  6  7  2  0
  7  8  1  0
  8  9  2  0
  9 10  1  0
 10 11  1  0
 11 12  2  0
 11 13  1  0
 13 14  1  0
 14 15  1  0
 15 16  2  0
 16 17  1  0
 17 18  1  0
 18 19  2  0
 19 20  1  0
 20 21  2  0
 21 22  1  0
 22 23  2  0
 17 24  2  0
 24 25  1  0
 25 26  1  0
 26 27  1  0
 26 28  1  0
 26 29  1  0
 25 30  2  0
 30 31  1  0
 31 32  3  0
  9 33  1  0
 33 34  2  0
 34  6  1  0
 30 15  1  0
 23 18  1  0
M  END
>  <Binding energies>  (111) 
[-8.82]

>  <Ligand effiencies>  (111) 
[-0.252]

>  <Interactions>  (111) 
["V-B:PRO:540:CB:9857, H-B:TYR:531:OH:9767, V-B:MET:535:CE:9807, V-B:TYR:539:CD2:9846, V-B:PRO:540:N:9856, V-A:LEU:475:CD1:4257, V-B:PRO:540:CA:9855, V-B:PRO:540:C:9853, V-B:ALA:541:CB:9864, V-B:TYR:539:CE2:9848, V-B:TYR:539:C:9839, V-B:TYR:531:CE2:9765, V-A:PRO:482:CG:4326, V-B:LEU:363:CD1:8160, V-B:TYR:539:CA:9841, V-B:PRO:540:CD:9859, V-A:ILE:538:CA:4860, V-A:ASP:366:CA:3209, V-A:ASP:366:CB:3211, V-A:ILE:538:CG2:4863, V-A:ASP:366:C:3207, H-B:TYR:539:OH:9850, H-A:TYR:531:OH:4795, V-A:ILE:538:CB:4862, V-B:TYR:531:CE1:9764, H-B:LYS:534:NZ:9795, V-B:TYR:539:CZ:9849, H-A:TYR:539:OH:4878, V-B:LYS:534:CE:9794, V-B:ALA:541:CA:9862"]

$$$$
3ad_Grossjean_2025
     RDKit          3D

 29 31  0  0  0  0  0  0  0  0999 V2000
  130.5680  126.7070   53.9840 N   0  0  0  0  0  0  0  0  0  0  0  0
  129.8760  127.2440   54.7400 C   0  0  0  0  0  0  0  0  0  0  0  0
  128.9990  127.9220   55.7000 C   0  0  0  0  0  0  0  0  0  0  0  0
  128.6940  127.3250   56.9470 C   0  0  0  0  0  0  0  0  0  0  0  0
  129.2850  125.9730   57.3900 C   0  0  0  0  0  0  0  0  0  0  0  0
  130.6170  125.9420   57.3210 F   0  0  0  0  0  0  0  0  0  0  0  0
  128.9420  125.7190   58.6550 F   0  0  0  0  0  0  0  0  0  0  0  0
  128.8220  124.9930   56.6120 F   0  0  0  0  0  0  0  0  0  0  0  0
  127.8120  127.9930   57.8110 C   0  0  0  0  0  0  0  0  0  0  0  0
  127.2500  129.2190   57.4400 C   0  0  0  0  0  0  0  0  0  0  0  0
  126.2920  129.9670   58.3180 C   0  0  0  0  0  0  0  0  0  0  0  0
  126.7570  130.7300   59.4010 C   0  0  0  0  0  0  0  0  0  0  0  0
  125.8730  131.4270   60.2190 C   0  0  0  0  0  0  0  0  0  0  0  0
  124.5060  131.3720   59.9630 C   0  0  0  0  0  0  0  0  0  0  0  0
  124.0200  130.6270   58.8950 C   0  0  0  0  0  0  0  0  0  0  0  0
  124.9080  129.9310   58.0780 C   0  0  0  0  0  0  0  0  0  0  0  0
  127.5420  129.7830   56.2410 N   0  0  0  0  0  0  0  0  0  0  0  0
  128.4050  129.1680   55.3990 C   0  0  0  0  0  0  0  0  0  0  0  0
  128.6790  130.0560   53.8820 S   0  0  0  0  0  0  0  0  0  0  0  0
  130.2290  130.9860   54.0730 C   0  0  0  0  0  0  0  0  0  0  0  0
  130.4480  131.4550   55.5130 C   0  0  0  0  0  0  0  0  0  0  0  0
  129.8960  132.4860   55.8970 O   0  0  0  0  0  0  0  0  0  0  0  0
  131.2550  130.6720   56.2610 N   0  0  0  0  0  0  0  0  0  0  0  0
  131.6480  130.8070   57.6060 C   0  0  0  0  0  0  0  0  0  0  0  0
  130.6070  130.9350   58.5300 C   0  0  0  0  0  0  0  0  0  0  0  0
  130.8850  131.0790   59.8870 C   0  0  0  0  0  0  0  0  0  0  0  0
  132.2070  131.0990   60.3220 C   0  0  0  0  0  0  0  0  0  0  0  0
  133.2530  130.9800   59.4110 C   0  0  0  0  0  0  0  0  0  0  0  0
  132.9800  130.8370   58.0530 C   0  0  0  0  0  0  0  0  0  0  0  0
  1  2  3  0
  2  3  1  0
  3  4  2  0
  4  5  1  0
  5  6  1  0
  5  7  1  0
  5  8  1  0
  4  9  1  0
  9 10  2  0
 10 11  1  0
 11 12  2  0
 12 13  1  0
 13 14  2  0
 14 15  1  0
 15 16  2  0
 10 17  1  0
 17 18  2  0
 18 19  1  0
 19 20  1  0
 20 21  1  0
 21 22  2  0
 21 23  1  0
 23 24  1  0
 24 25  2  0
 25 26  1  0
 26 27  2  0
 27 28  1  0
 28 29  2  0
 18  3  1  0
 29 24  1  0
 16 11  1  0
M  END
>  <Binding energies>  (112) 
[-8.2]

>  <Ligand effiencies>  (112) 
[-0.2733333333333333]

>  <Interactions>  (112) 
["H-B:TYR:531:OH:9767, V-B:MET:535:CE:9807, V-A:ASP:366:CG:3212, V-A:ILE:538:CG2:4863, V-A:PRO:540:CA:4883, H-A:TYR:531:OH:4795, H-A:TYR:539:N:4870, V-A:PRO:540:CB:4885, V-A:TYR:539:CE1:4875, V-A:TYR:531:CZ:4794, V-A:ILE:538:CB:4862, V-B:ASP:366:CG:8184, H-B:LYS:534:NZ:9795, V-B:ASP:366:CB:8183, V-B:ASP:366:CA:8181, V-A:LEU:363:CD1:3188, V-B:ASP:366:C:8179, V-A:LEU:363:CA:3184, V-B:ILE:369:CG2:8208, V-B:ILE:369:CB:8207"]

$$$$
3ai_Grossjean_2025
     RDKit          3D

 28 30  0  0  0  0  0  0  0  0999 V2000
  127.2090  126.5470   62.6950 N   0  0  0  0  0  0  0  0  0  0  0  0
  127.7970  125.5660   62.5200 C   0  0  0  0  0  0  0  0  0  0  0  0
  128.5430  124.3230   62.2990 C   0  0  0  0  0  0  0  0  0  0  0  0
  129.9130  124.2290   62.6450 C   0  0  0  0  0  0  0  0  0  0  0  0
  130.6850  125.3880   63.3060 C   0  0  0  0  0  0  0  0  0  0  0  0
  131.9710  125.0990   63.5180 F   0  0  0  0  0  0  0  0  0  0  0  0
  130.6390  126.4690   62.5250 F   0  0  0  0  0  0  0  0  0  0  0  0
  130.1440  125.6850   64.4870 F   0  0  0  0  0  0  0  0  0  0  0  0
  130.5940  123.0340   62.3690 C   0  0  0  0  0  0  0  0  0  0  0  0
  129.9290  121.9640   61.7630 C   0  0  0  0  0  0  0  0  0  0  0  0
  130.6090  120.6690   61.4360 C   0  0  0  0  0  0  0  0  0  0  0  0
  131.9690  120.6420   61.0870 C   0  0  0  0  0  0  0  0  0  0  0  0
  132.6080  119.4430   60.7870 C   0  0  0  0  0  0  0  0  0  0  0  0
  131.8950  118.2500   60.8330 C   0  0  0  0  0  0  0  0  0  0  0  0
  130.5480  118.2480   61.1790 C   0  0  0  0  0  0  0  0  0  0  0  0
  129.9110  119.4490   61.4790 C   0  0  0  0  0  0  0  0  0  0  0  0
  128.6170  122.0610   61.4260 N   0  0  0  0  0  0  0  0  0  0  0  0
  127.9320  123.1960   61.7040 C   0  0  0  0  0  0  0  0  0  0  0  0
  126.2220  123.1310   61.2100 S   0  0  0  0  0  0  0  0  0  0  0  0
  125.9010  124.5550   60.1150 C   0  0  0  0  0  0  0  0  0  0  0  0
  125.6200  124.1950   58.6480 C   0  0  0  0  0  0  0  0  0  0  0  0
  124.9520  124.9440   57.9320 O   0  0  0  0  0  0  0  0  0  0  0  0
  126.1560  123.0220   58.2430 N   0  0  0  0  0  0  0  0  0  0  0  0
  126.0710  122.4500   56.9800 C   0  0  0  0  0  0  0  0  0  0  0  0
  125.0670  122.7660   56.0660 C   0  0  0  0  0  0  0  0  0  0  0  0
  125.3340  121.9960   54.9580 C   0  0  0  0  0  0  0  0  0  0  0  0
  126.4430  121.2550   55.1920 O   0  0  0  0  0  0  0  0  0  0  0  0
  126.9010  121.5520   56.4760 N   0  0  0  0  0  0  0  0  0  0  0  0
  1  2  3  0
  2  3  1  0
  3  4  2  0
  4  5  1  0
  5  6  1  0
  5  7  1  0
  5  8  1  0
  4  9  1  0
  9 10  2  0
 10 11  1  0
 11 12  2  0
 12 13  1  0
 13 14  2  0
 14 15  1  0
 15 16  2  0
 10 17  1  0
 17 18  2  0
 18 19  1  0
 19 20  1  0
 20 21  1  0
 21 22  2  0
 21 23  1  0
 23 24  1  0
 24 25  1  0
 25 26  2  0
 26 27  1  0
 27 28  1  0
 18  3  1  0
 28 24  2  0
 16 11  1  0
M  END
>  <Binding energies>  (113) 
[-8.03]

>  <Ligand effiencies>  (113) 
[-0.2768965517241379]

>  <Interactions>  (113) 
["H-B:ALA:541:N:9863, V-B:PRO:540:CB:9857, H-B:TYR:531:OH:9767, V-B:MET:535:CE:9807, V-B:PRO:540:N:9856, V-A:LEU:475:CD1:4257, V-B:PRO:540:CA:9855, V-B:PRO:540:C:9853, H-B:TYR:539:N:9842, V-B:ALA:541:CB:9864, V-B:MET:535:CG:9805, V-B:TYR:531:CE2:9765, V-A:PRO:482:CG:4326, V-A:PRO:482:CB:4325, V-B:LEU:363:CD1:8160, V-B:PRO:540:CD:9859, H-B:ARG:545:NH2:9900, H-B:TYR:539:O:9840, V-B:GLU:543:CD:9880, V-B:ILE:538:CA:9832, V-B:ILE:538:CG1:9836, V-B:ILE:538:CG2:9835, V-B:ILE:538:CB:9834, V-B:ALA:541:CA:9862, V-B:MET:535:CB:9804"]

$$$$
3aj_Grossjean_2025
     RDKit          3D

 28 30  0  0  0  0  0  0  0  0999 V2000
  131.0150  126.1280   54.3490 N   0  0  0  0  0  0  0  0  0  0  0  0
  130.2470  126.6950   55.0030 C   0  0  0  0  0  0  0  0  0  0  0  0
  129.2760  127.4120   55.8340 C   0  0  0  0  0  0  0  0  0  0  0  0
  128.7930  126.8420   57.0380 C   0  0  0  0  0  0  0  0  0  0  0  0
  129.2790  125.4780   57.5660 C   0  0  0  0  0  0  0  0  0  0  0  0
  129.0240  124.4760   56.7210 F   0  0  0  0  0  0  0  0  0  0  0  0
  130.5970  125.5100   57.7670 F   0  0  0  0  0  0  0  0  0  0  0  0
  128.6720  125.1930   58.7180 F   0  0  0  0  0  0  0  0  0  0  0  0
  127.8280  127.5470   57.7730 C   0  0  0  0  0  0  0  0  0  0  0  0
  127.3560  128.7830   57.3180 C   0  0  0  0  0  0  0  0  0  0  0  0
  126.3200  129.5720   58.0590 C   0  0  0  0  0  0  0  0  0  0  0  0
  125.0880  129.8770   57.4600 C   0  0  0  0  0  0  0  0  0  0  0  0
  124.1190  130.6070   58.1440 C   0  0  0  0  0  0  0  0  0  0  0  0
  124.3710  131.0440   59.4400 C   0  0  0  0  0  0  0  0  0  0  0  0
  125.5840  130.7540   60.0570 C   0  0  0  0  0  0  0  0  0  0  0  0
  126.5490  130.0230   59.3700 C   0  0  0  0  0  0  0  0  0  0  0  0
  127.8160  129.3210   56.1600 N   0  0  0  0  0  0  0  0  0  0  0  0
  128.7650  128.6720   55.4450 C   0  0  0  0  0  0  0  0  0  0  0  0
  129.2620  129.5380   53.9720 S   0  0  0  0  0  0  0  0  0  0  0  0
  129.3480  131.3170   54.3720 C   0  0  0  0  0  0  0  0  0  0  0  0
  130.0940  131.6550   55.6710 C   0  0  0  0  0  0  0  0  0  0  0  0
  129.8770  132.7140   56.2660 O   0  0  0  0  0  0  0  0  0  0  0  0
  130.9740  130.7140   56.0770 N   0  0  0  0  0  0  0  0  0  0  0  0
  131.7720  130.7600   57.2130 C   0  0  0  0  0  0  0  0  0  0  0  0
  133.0740  130.5910   57.2930 N   0  0  0  0  0  0  0  0  0  0  0  0
  133.5040  130.7070   58.5340 C   0  0  0  0  0  0  0  0  0  0  0  0
  132.5350  130.9760   59.4980 C   0  0  0  0  0  0  0  0  0  0  0  0
  130.9820  131.0800   58.7250 S   0  0  0  0  0  0  0  0  0  0  0  0
  1  2  3  0
  2  3  1  0
  3  4  2  0
  4  5  1  0
  5  6  1  0
  5  7  1  0
  5  8  1  0
  4  9  1  0
  9 10  2  0
 10 11  1  0
 11 12  2  0
 12 13  1  0
 13 14  2  0
 14 15  1  0
 15 16  2  0
 10 17  1  0
 17 18  2  0
 18 19  1  0
 19 20  1  0
 20 21  1  0
 21 22  2  0
 21 23  1  0
 23 24  1  0
 24 25  2  0
 25 26  1  0
 26 27  2  0
 27 28  1  0
 18  3  1  0
 28 24  1  0
 16 11  1  0
M  END
>  <Binding energies>  (114) 
[-7.72]

>  <Ligand effiencies>  (114) 
[-0.26620689655172414]

>  <Interactions>  (114) 
["H-B:TYR:531:OH:9767, V-B:MET:535:CE:9807, V-A:ASP:366:CG:3212, V-A:ILE:538:CA:4860, V-A:ASP:366:CB:3211, V-A:ILE:538:CG2:4863, H-B:TYR:539:OH:9850, V-A:PRO:540:CA:4883, H-A:TYR:531:OH:4795, H-A:TYR:539:N:4870, V-A:TYR:539:CZ:4877, V-A:PRO:540:CB:4885, V-A:TYR:539:CE1:4875, V-A:TYR:531:CZ:4794, V-B:ASP:366:CB:8183, V-B:ASP:366:CA:8181, V-A:LEU:363:CD1:3188, V-B:ASP:366:C:8179, V-B:TYR:539:CZ:9849, V-A:LEU:363:CA:3184, V-A:LEU:363:CB:3186, V-B:ILE:369:CG2:8208, V-B:ILE:369:CB:8207"]

$$$$
3ak_Grossjean_2025
     RDKit          3D

 33 34  0  0  0  0  0  0  0  0999 V2000
  131.4620  132.0230   55.8670 C   0  0  0  0  0  0  0  0  0  0  0  0
  130.2790  132.7730   56.0930 O   0  0  0  0  0  0  0  0  0  0  0  0
  129.0910  132.0020   55.9780 C   0  0  0  0  0  0  0  0  0  0  0  0
  128.7560  131.8200   54.4930 C   0  0  0  0  0  0  0  0  0  0  0  0
  127.6460  130.9360   54.3740 O   0  0  0  0  0  0  0  0  0  0  0  0
  127.8650  129.6080   54.8400 C   0  0  0  0  0  0  0  0  0  0  0  0
  129.0720  128.9120   54.1850 C   0  0  0  0  0  0  0  0  0  0  0  0
  128.8250  127.5140   54.1170 O   0  0  0  0  0  0  0  0  0  0  0  0
  129.8550  126.7180   54.6890 C   0  0  0  0  0  0  0  0  0  0  0  0
  129.7410  126.7260   56.2240 C   0  0  0  0  0  0  0  0  0  0  0  0
  130.7050  125.8460   56.8880 N   0  0  0  0  0  0  0  0  0  0  0  0
  131.9670  125.6090   56.4830 C   0  0  0  0  0  0  0  0  0  0  0  0
  132.4590  126.1420   55.4870 O   0  0  0  0  0  0  0  0  0  0  0  0
  132.8350  124.6320   57.2940 C   0  0  0  0  0  0  0  0  0  0  0  0
  132.5820  124.6270   59.1070 S   0  0  0  0  0  0  0  0  0  0  0  0
  131.3260  123.4210   59.5080 C   0  0  0  0  0  0  0  0  0  0  0  0
  130.1420  123.5720   58.8640 N   0  0  0  0  0  0  0  0  0  0  0  0
  129.1240  122.7090   59.1070 C   0  0  0  0  0  0  0  0  0  0  0  0
  127.8510  122.9490   58.3510 C   0  0  0  0  0  0  0  0  0  0  0  0
  127.0300  124.0460   58.6570 C   0  0  0  0  0  0  0  0  0  0  0  0
  125.8490  124.2760   57.9560 C   0  0  0  0  0  0  0  0  0  0  0  0
  125.4730  123.4100   56.9350 C   0  0  0  0  0  0  0  0  0  0  0  0
  126.2690  122.3180   56.6090 C   0  0  0  0  0  0  0  0  0  0  0  0
  127.4500  122.0910   57.3110 C   0  0  0  0  0  0  0  0  0  0  0  0
  129.2810  121.6470   60.0040 C   0  0  0  0  0  0  0  0  0  0  0  0
  130.4960  121.4680   60.6820 C   0  0  0  0  0  0  0  0  0  0  0  0
  130.6310  120.2880   61.6650 C   0  0  0  0  0  0  0  0  0  0  0  0
  130.6290  120.7380   62.9200 F   0  0  0  0  0  0  0  0  0  0  0  0
  129.6120  119.4420   61.5070 F   0  0  0  0  0  0  0  0  0  0  0  0
  131.7580  119.5940   61.4890 F   0  0  0  0  0  0  0  0  0  0  0  0
  131.5510  122.3780   60.4320 C   0  0  0  0  0  0  0  0  0  0  0  0
  132.8430  122.2390   61.1120 C   0  0  0  0  0  0  0  0  0  0  0  0
  133.8630  122.1310   61.6500 N   0  0  0  0  0  0  0  0  0  0  0  0
  1  2  1  0
  2  3  1  0
  3  4  1  0
  4  5  1  0
  5  6  1  0
  6  7  1  0
  7  8  1  0
  8  9  1  0
  9 10  1  0
 10 11  1  0
 11 12  1  0
 12 13  2  0
 12 14  1  0
 14 15  1  0
 15 16  1  0
 16 17  2  0
 17 18  1  0
 18 19  1  0
 19 20  2  0
 20 21  1  0
 21 22  2  0
 22 23  1  0
 23 24  2  0
 18 25  2  0
 25 26  1  0
 26 27  1  0
 27 28  1  0
 27 29  1  0
 27 30  1  0
 26 31  2  0
 31 32  1  0
 32 33  3  0
 31 16  1  0
 24 19  1  0
M  END
>  <Binding energies>  (115) 
[-7.9]

>  <Ligand effiencies>  (115) 
[-0.2323529411764706]

>  <Interactions>  (115) 
["H-B:TYR:531:OH:9767, V-B:MET:535:CE:9807, V-B:TYR:539:CD2:9846, V-B:PRO:540:N:9856, V-A:LEU:475:CD1:4257, V-B:PRO:540:CA:9855, V-B:PRO:540:C:9853, V-B:ALA:541:CB:9864, V-B:TYR:539:CE2:9848, V-B:TYR:539:C:9839, V-B:TYR:531:CE2:9765, V-A:PRO:482:CG:4326, V-B:LEU:363:CD1:8160, V-B:TYR:539:CA:9841, V-B:PRO:540:CD:9859, V-A:ILE:538:CA:4860, V-A:ASP:366:CA:3209, V-A:ASP:366:CB:3211, V-A:TYR:539:CG:4872, V-A:ILE:538:CG2:4863, V-A:ASP:366:C:3207, H-B:TYR:539:OH:9850, V-A:TYR:539:CD1:4873, V-A:TYR:539:CE2:4876, H-A:TYR:531:OH:4795, H-A:TYR:539:N:4870, V-A:TYR:539:CZ:4877, V-A:TYR:539:CE1:4875, V-A:ILE:538:CB:4862, V-B:TYR:531:CE1:9764, H-B:LYS:534:NZ:9795, V-A:PRO:540:CD:4887, V-A:LEU:363:CD1:3188, V-B:TYR:539:CZ:9849, H-A:TYR:539:OH:4878, V-B:ALA:541:CA:9862, V-A:MET:535:CE:4835"]

$$$$
3bk_Grossjean_2025
     RDKit          3D

 30 31  0  0  0  0  0  0  0  0999 V2000
  125.3950  121.6390   55.9060 C   0  0  0  0  0  0  0  0  0  0  0  0
  126.6000  121.6660   56.6550 O   0  0  0  0  0  0  0  0  0  0  0  0
  126.8000  122.8820   57.3630 C   0  0  0  0  0  0  0  0  0  0  0  0
  125.4800  123.6640   57.4260 C   0  0  0  0  0  0  0  0  0  0  0  0
  125.7490  125.0150   57.7730 O   0  0  0  0  0  0  0  0  0  0  0  0
  127.1220  125.2790   58.0320 C   0  0  0  0  0  0  0  0  0  0  0  0
  127.2360  126.4760   58.9850 C   0  0  0  0  0  0  0  0  0  0  0  0
  127.1990  127.6820   58.2340 O   0  0  0  0  0  0  0  0  0  0  0  0
  125.8960  128.2340   58.0950 C   0  0  0  0  0  0  0  0  0  0  0  0
  125.9270  129.3610   57.0520 C   0  0  0  0  0  0  0  0  0  0  0  0
  127.2920  129.7460   56.6890 N   0  0  0  0  0  0  0  0  0  0  0  0
  127.6660  130.2760   55.5120 C   0  0  0  0  0  0  0  0  0  0  0  0
  126.8840  130.5190   54.5910 O   0  0  0  0  0  0  0  0  0  0  0  0
  129.1520  130.6070   55.3540 C   0  0  0  0  0  0  0  0  0  0  0  0
  130.2080  129.4610   56.2960 S   0  0  0  0  0  0  0  0  0  0  0  0
  130.5870  130.1900   57.8810 C   0  0  0  0  0  0  0  0  0  0  0  0
  129.5230  130.6100   58.6100 N   0  0  0  0  0  0  0  0  0  0  0  0
  129.7150  131.1810   59.8290 C   0  0  0  0  0  0  0  0  0  0  0  0
  128.4850  131.5970   60.5770 C   0  0  0  0  0  0  0  0  0  0  0  0
  127.2770  131.8290   59.9000 C   0  0  0  0  0  0  0  0  0  0  0  0
  126.1320  132.2210   60.5890 C   0  0  0  0  0  0  0  0  0  0  0  0
  126.1800  132.3860   61.9690 C   0  0  0  0  0  0  0  0  0  0  0  0
  127.3630  132.1580   62.6650 C   0  0  0  0  0  0  0  0  0  0  0  0
  128.5050  131.7650   61.9720 C   0  0  0  0  0  0  0  0  0  0  0  0
  131.0040  131.3390   60.3510 C   0  0  0  0  0  0  0  0  0  0  0  0
  132.1140  130.9130   59.6120 C   0  0  0  0  0  0  0  0  0  0  0  0
  133.5020  131.1050   60.2190 C   0  0  0  0  0  0  0  0  0  0  0  0
  131.9130  130.3240   58.3460 C   0  0  0  0  0  0  0  0  0  0  0  0
  133.0560  129.8660   57.5500 C   0  0  0  0  0  0  0  0  0  0  0  0
  133.9590  129.5050   56.9220 N   0  0  0  0  0  0  0  0  0  0  0  0
  1  2  1  0
  2  3  1  0
  3  4  1  0
  4  5  1  0
  5  6  1  0
  6  7  1  0
  7  8  1  0
  8  9  1  0
  9 10  1  0
 10 11  1  0
 11 12  1  0
 12 13  2  0
 12 14  1  0
 14 15  1  0
 15 16  1  0
 16 17  2  0
 17 18  1  0
 18 19  1  0
 19 20  2  0
 20 21  1  0
 21 22  2  0
 22 23  1  0
 23 24  2  0
 18 25  2  0
 25 26  1  0
 26 27  1  0
 26 28  2  0
 28 29  1  0
 29 30  3  0
 28 16  1  0
 24 19  1  0
M  END
>  <Binding energies>  (116) 
[-6.92]

>  <Ligand effiencies>  (116) 
[-0.2232258064516129]

>  <Interactions>  (116) 
["H-B:TYR:531:OH:9767, V-B:MET:535:CE:9807, V-B:PRO:540:N:9856, V-B:PRO:540:CA:9855, H-B:TYR:539:N:9842, V-B:TYR:531:CE2:9765, V-B:TYR:531:CZ:9766, V-B:LEU:363:CD1:8160, V-A:ASP:366:CG:3212, V-B:PRO:540:CD:9859, V-A:ASP:366:CB:3211, V-A:TYR:539:CD1:4873, V-A:PRO:540:CA:4883, H-A:TYR:531:OH:4795, V-A:TYR:539:CZ:4877, V-A:PRO:540:CB:4885, V-A:TYR:539:CE1:4875, V-B:TYR:531:CE1:9764, H-B:LYS:534:NZ:9795, V-B:ASP:366:CB:8183, V-A:ALA:541:CB:4892, V-A:PRO:540:C:4881, V-A:LEU:363:CD1:3188, H-A:TYR:539:OH:4878, V-A:LEU:363:CA:3184, V-B:ILE:538:CA:9832, V-B:ILE:538:CG2:9835, V-B:ILE:538:C:9830, V-B:ILE:538:CB:9834, V-A:ASN:362:CB:3175, V-A:ASN:362:C:3171"]

$$$$
3cb_Grossjean_2025
     RDKit          3D

 30 32  0  0  0  0  0  0  0  0999 V2000
  130.0570  120.8220   61.1990 C   0  0  0  0  0  0  0  0  0  0  0  0
  129.8420  121.7120   60.1140 O   0  0  0  0  0  0  0  0  0  0  0  0
  128.7250  122.4820   60.0520 C   0  0  0  0  0  0  0  0  0  0  0  0
  127.7760  122.3690   60.8330 O   0  0  0  0  0  0  0  0  0  0  0  0
  128.7570  123.4850   58.9340 C   0  0  0  0  0  0  0  0  0  0  0  0
  127.6500  123.7070   58.1020 C   0  0  0  0  0  0  0  0  0  0  0  0
  127.7120  124.6460   57.0760 C   0  0  0  0  0  0  0  0  0  0  0  0
  128.8800  125.3780   56.8560 C   0  0  0  0  0  0  0  0  0  0  0  0
  128.8310  126.3030   55.7940 N   0  0  0  0  0  0  0  0  0  0  0  0
  129.8200  126.7600   54.9950 C   0  0  0  0  0  0  0  0  0  0  0  0
  130.9980  126.4050   55.0570 O   0  0  0  0  0  0  0  0  0  0  0  0
  129.3660  127.7820   53.9410 C   0  0  0  0  0  0  0  0  0  0  0  0
  128.1950  129.0440   54.5480 S   0  0  0  0  0  0  0  0  0  0  0  0
  129.0700  130.0970   55.6870 C   0  0  0  0  0  0  0  0  0  0  0  0
  130.1700  130.6770   55.1490 N   0  0  0  0  0  0  0  0  0  0  0  0
  130.9140  131.4980   55.9230 C   0  0  0  0  0  0  0  0  0  0  0  0
  132.1230  132.1220   55.2510 C   0  0  0  0  0  0  0  0  0  0  0  0
  130.5980  131.7670   57.2510 C   0  0  0  0  0  0  0  0  0  0  0  0
  129.4740  131.1660   57.8340 C   0  0  0  0  0  0  0  0  0  0  0  0
  129.1810  131.4810   59.2650 C   0  0  0  0  0  0  0  0  0  0  0  0
  130.0680  131.0790   60.2710 C   0  0  0  0  0  0  0  0  0  0  0  0
  129.8090  131.3780   61.6070 C   0  0  0  0  0  0  0  0  0  0  0  0
  128.6580  132.0860   61.9420 C   0  0  0  0  0  0  0  0  0  0  0  0
  127.7690  132.5010   60.9550 C   0  0  0  0  0  0  0  0  0  0  0  0
  128.0320  132.2020   59.6200 C   0  0  0  0  0  0  0  0  0  0  0  0
  128.6900  130.2900   57.0390 C   0  0  0  0  0  0  0  0  0  0  0  0
  127.5600  129.5620   57.6220 C   0  0  0  0  0  0  0  0  0  0  0  0
  126.6670  128.9870   58.0810 N   0  0  0  0  0  0  0  0  0  0  0  0
  129.9900  125.1650   57.6860 C   0  0  0  0  0  0  0  0  0  0  0  0
  129.9270  124.2260   58.7130 C   0  0  0  0  0  0  0  0  0  0  0  0
  1  2  1  0
  2  3  1  0
  3  4  2  0
  3  5  1  0
  5  6  2  0
  6  7  1  0
  7  8  2  0
  8  9  1  0
  9 10  1  0
 10 11  2  0
 10 12  1  0
 12 13  1  0
 13 14  1  0
 14 15  2  0
 15 16  1  0
 16 17  1  0
 16 18  2  0
 18 19  1  0
 19 20  1  0
 20 21  2  0
 21 22  1  0
 22 23  2  0
 23 24  1  0
 24 25  2  0
 19 26  2  0
 26 27  1  0
 27 28  3  0
  8 29  1  0
 29 30  2  0
 30  5  1  0
 26 14  1  0
 25 20  1  0
M  END
>  <Binding energies>  (117) 
[-8.08]

>  <Ligand effiencies>  (117) 
[-0.26064516129032256]

>  <Interactions>  (117) 
["H-B:ALA:541:N:9863, H-B:TYR:531:OH:9767, V-B:MET:535:CE:9807, V-B:PRO:540:CA:9855, V-B:ALA:541:CB:9864, V-A:PRO:540:N:4884, V-A:ILE:538:CG2:4863, H-B:TYR:539:OH:9850, V-A:TYR:539:CD1:4873, V-A:PRO:540:CA:4883, H-A:TYR:531:OH:4795, V-A:TYR:539:CE1:4875, V-A:ILE:538:CB:4862, V-A:ALA:541:CB:4892, V-A:TYR:539:C:4867, V-A:LEU:363:CD1:3188, V-A:GLU:543:CD:4908, H-B:MET:535:SD:9806, V-A:TYR:531:CE2:4793, V-A:MET:535:CE:4835, V-A:ALA:541:CA:4890"]

$$$$
3ch_Grossjean_2025
     RDKit          3D

 32 34  0  0  0  0  0  0  0  0999 V2000
  134.0120  123.9350   59.8170 C   0  0  0  0  0  0  0  0  0  0  0  0
  132.7210  123.8520   60.4110 O   0  0  0  0  0  0  0  0  0  0  0  0
  132.4320  124.6160   61.5270 C   0  0  0  0  0  0  0  0  0  0  0  0
  131.5010  125.6670   61.5400 C   0  0  0  0  0  0  0  0  0  0  0  0
  131.2530  126.3940   62.7140 C   0  0  0  0  0  0  0  0  0  0  0  0
  130.3370  127.4570   62.8250 N   0  0  0  0  0  0  0  0  0  0  0  0
  129.8040  128.2410   61.8630 C   0  0  0  0  0  0  0  0  0  0  0  0
  130.0320  128.1460   60.6570 O   0  0  0  0  0  0  0  0  0  0  0  0
  128.8100  129.2960   62.3470 C   0  0  0  0  0  0  0  0  0  0  0  0
  129.4700  130.9820   62.1980 S   0  0  0  0  0  0  0  0  0  0  0  0
  130.3710  131.0260   60.6640 C   0  0  0  0  0  0  0  0  0  0  0  0
  131.7170  130.9670   60.8150 N   0  0  0  0  0  0  0  0  0  0  0  0
  132.4930  131.0020   59.7080 C   0  0  0  0  0  0  0  0  0  0  0  0
  133.9890  130.9380   59.9490 C   0  0  0  0  0  0  0  0  0  0  0  0
  131.9650  131.0970   58.4230 C   0  0  0  0  0  0  0  0  0  0  0  0
  130.5750  131.1520   58.2460 C   0  0  0  0  0  0  0  0  0  0  0  0
  130.0540  131.2640   56.8490 C   0  0  0  0  0  0  0  0  0  0  0  0
  130.3230  130.2560   55.9150 C   0  0  0  0  0  0  0  0  0  0  0  0
  129.8480  130.3570   54.6100 C   0  0  0  0  0  0  0  0  0  0  0  0
  129.1030  131.4720   54.2330 C   0  0  0  0  0  0  0  0  0  0  0  0
  128.8320  132.4860   55.1480 C   0  0  0  0  0  0  0  0  0  0  0  0
  129.3100  132.3810   56.4520 C   0  0  0  0  0  0  0  0  0  0  0  0
  129.7470  131.0970   59.3960 C   0  0  0  0  0  0  0  0  0  0  0  0
  128.2870  131.0550   59.2650 C   0  0  0  0  0  0  0  0  0  0  0  0
  127.1350  131.0230   59.1630 N   0  0  0  0  0  0  0  0  0  0  0  0
  131.9600  126.0730   63.8740 C   0  0  0  0  0  0  0  0  0  0  0  0
  132.8980  125.0290   63.8850 C   0  0  0  0  0  0  0  0  0  0  0  0
  133.6250  124.6560   65.0030 O   0  0  0  0  0  0  0  0  0  0  0  0
  133.5580  125.4530   66.1800 C   0  0  0  0  0  0  0  0  0  0  0  0
  133.1260  124.3100   62.7050 C   0  0  0  0  0  0  0  0  0  0  0  0
  134.0290  123.2730   62.7080 O   0  0  0  0  0  0  0  0  0  0  0  0
  133.4310  121.9850   62.6560 C   0  0  0  0  0  0  0  0  0  0  0  0
  1  2  1  0
  2  3  1  0
  3  4  2  0
  4  5  1  0
  5  6  1  0
  6  7  1  0
  7  8  2  0
  7  9  1  0
  9 10  1  0
 10 11  1  0
 11 12  2  0
 12 13  1  0
 13 14  1  0
 13 15  2  0
 15 16  1  0
 16 17  1  0
 17 18  2  0
 18 19  1  0
 19 20  2  0
 20 21  1  0
 21 22  2  0
 16 23  2  0
 23 24  1  0
 24 25  3  0
  5 26  2  0
 26 27  1  0
 27 28  1  0
 28 29  1  0
 27 30  2  0
 30 31  1  0
 31 32  1  0
 30  3  1  0
 23 11  1  0
 22 17  1  0
M  END
>  <Binding energies>  (118) 
[-7.67]

>  <Ligand effiencies>  (118) 
[-0.23242424242424242]

>  <Interactions>  (118) 
["V-A:ILE:369:CG2:3236, V-A:LEU:475:CD1:4257, H-A:TYR:484:OH:4347, V-A:ASP:366:CG:3212, H-A:GLY:454:N:4049, V-A:PRO:540:N:4884, V-A:ILE:538:CA:4860, V-A:ASP:366:CA:3209, V-A:ASP:366:CB:3211, V-A:TYR:539:CG:4872, V-A:ILE:538:CG2:4863, V-A:TYR:539:CD1:4873, V-A:TYR:539:CE2:4876, V-A:PRO:540:CA:4883, V-A:TYR:539:CZ:4877, V-A:TYR:539:CD2:4874, V-A:PRO:540:CB:4885, V-A:TYR:539:CE1:4875, V-A:ILE:538:CB:4862, V-A:TYR:539:C:4867, V-A:GLU:543:CD:4908, V-A:ILE:369:CD1:3238, V-A:ILE:369:CB:3235, V-A:ARG:545:CD:4923, V-A:ARG:545:CG:4922, V-A:ARG:545:CZ:4926, V-A:ILE:538:C:4858, V-A:LEU:363:CA:3184, V-A:LEU:363:CB:3186, V-A:TYR:539:CA:4869, H-A:GLU:543:OE1:4909, H-A:GLU:543:OE2:4910, V-A:GLY:454:CA:4048, V-A:ASN:362:CB:3175, V-A:ASN:362:C:3171"]

$$$$
3ci_Grossjean_2025
     RDKit          3D

 25 27  0  0  0  0  0  0  0  0999 V2000
  129.8720  123.4890   65.1130 C   0  0  0  0  0  0  0  0  0  0  0  0
  129.7030  123.1380   63.6470 C   0  0  0  0  0  0  0  0  0  0  0  0
  130.3390  122.0360   63.0810 C   0  0  0  0  0  0  0  0  0  0  0  0
  130.1380  121.7430   61.7250 C   0  0  0  0  0  0  0  0  0  0  0  0
  130.8280  120.5420   61.1640 C   0  0  0  0  0  0  0  0  0  0  0  0
  130.2670  119.2660   61.2980 C   0  0  0  0  0  0  0  0  0  0  0  0
  130.9180  118.1490   60.7810 C   0  0  0  0  0  0  0  0  0  0  0  0
  132.1390  118.3030   60.1320 C   0  0  0  0  0  0  0  0  0  0  0  0
  132.7150  119.5640   59.9980 C   0  0  0  0  0  0  0  0  0  0  0  0
  132.0610  120.6790   60.5150 C   0  0  0  0  0  0  0  0  0  0  0  0
  129.2950  122.5960   60.9680 C   0  0  0  0  0  0  0  0  0  0  0  0
  129.0830  122.3640   59.5350 C   0  0  0  0  0  0  0  0  0  0  0  0
  128.9150  122.1790   58.4040 N   0  0  0  0  0  0  0  0  0  0  0  0
  128.6840  123.6920   61.6240 C   0  0  0  0  0  0  0  0  0  0  0  0
  127.5870  124.8180   60.7720 S   0  0  0  0  0  0  0  0  0  0  0  0
  125.8730  124.2130   60.9040 C   0  0  0  0  0  0  0  0  0  0  0  0
  125.3600  123.5530   59.6190 C   0  0  0  0  0  0  0  0  0  0  0  0
  124.1670  123.2600   59.5270 O   0  0  0  0  0  0  0  0  0  0  0  0
  126.2910  123.3240   58.6660 N   0  0  0  0  0  0  0  0  0  0  0  0
  126.0890  122.7690   57.4090 C   0  0  0  0  0  0  0  0  0  0  0  0
  125.3120  123.3790   56.4250 C   0  0  0  0  0  0  0  0  0  0  0  0
  125.3610  122.5220   55.3480 C   0  0  0  0  0  0  0  0  0  0  0  0
  126.1280  121.4530   55.6690 O   0  0  0  0  0  0  0  0  0  0  0  0
  126.5820  121.6200   56.9780 N   0  0  0  0  0  0  0  0  0  0  0  0
  128.8950  123.9560   62.9380 N   0  0  0  0  0  0  0  0  0  0  0  0
  1  2  1  0
  2  3  2  0
  3  4  1  0
  4  5  1  0
  5  6  2  0
  6  7  1  0
  7  8  2  0
  8  9  1  0
  9 10  2  0
  4 11  2  0
 11 12  1  0
 12 13  3  0
 11 14  1  0
 14 15  1  0
 15 16  1  0
 16 17  1  0
 17 18  2  0
 17 19  1  0
 19 20  1  0
 20 21  1  0
 21 22  2  0
 22 23  1  0
 23 24  1  0
 14 25  2  0
 25  2  1  0
 10  5  1  0
 24 20  2  0
M  END
>  <Binding energies>  (119) 
[-8.16]

>  <Ligand effiencies>  (119) 
[-0.31384615384615383]

>  <Interactions>  (119) 
["V-B:PRO:540:CB:9857, V-B:MET:535:CE:9807, V-A:ILE:369:CG2:3236, V-B:TYR:539:CD2:9846, V-B:PRO:540:N:9856, V-A:LEU:475:CD1:4257, V-B:PRO:540:CA:9855, H-B:TYR:539:N:9842, V-B:ALA:541:CB:9864, V-B:TYR:539:CE2:9848, V-B:MET:535:CG:9805, V-B:TYR:539:C:9839, V-B:TYR:531:CE2:9765, V-A:PRO:482:CG:4326, V-B:TYR:531:CZ:9766, V-B:LEU:363:CD1:8160, V-A:TYR:484:CZ:4346, V-B:GLU:543:CG:9879, V-B:GLU:543:CD:9880, V-A:TYR:484:CE2:4345, H-B:LEU:363:N:8157, V-A:HIS:383:CD2:3391"]

$$$$
3ck_Grossjean_2025
     RDKit          3D

 30 31  0  0  0  0  0  0  0  0999 V2000
  127.6430  129.2630   54.5640 C   0  0  0  0  0  0  0  0  0  0  0  0
  127.7810  130.5790   54.0510 O   0  0  0  0  0  0  0  0  0  0  0  0
  129.0580  131.1500   54.2940 C   0  0  0  0  0  0  0  0  0  0  0  0
  128.8930  132.4780   55.0440 C   0  0  0  0  0  0  0  0  0  0  0  0
  129.7740  132.5010   56.1600 O   0  0  0  0  0  0  0  0  0  0  0  0
  129.1400  132.2240   57.4010 C   0  0  0  0  0  0  0  0  0  0  0  0
  130.1920  131.7300   58.4020 C   0  0  0  0  0  0  0  0  0  0  0  0
  129.8730  130.3950   58.7640 O   0  0  0  0  0  0  0  0  0  0  0  0
  130.8880  129.7150   59.4880 C   0  0  0  0  0  0  0  0  0  0  0  0
  130.4050  129.4490   60.9260 C   0  0  0  0  0  0  0  0  0  0  0  0
  131.0460  128.2930   61.5590 N   0  0  0  0  0  0  0  0  0  0  0  0
  130.4660  127.1000   61.7830 C   0  0  0  0  0  0  0  0  0  0  0  0
  129.3090  126.8370   61.4470 O   0  0  0  0  0  0  0  0  0  0  0  0
  131.3470  126.0580   62.4920 C   0  0  0  0  0  0  0  0  0  0  0  0
  131.0700  124.3250   61.9880 S   0  0  0  0  0  0  0  0  0  0  0  0
  130.5770  124.2860   60.2710 C   0  0  0  0  0  0  0  0  0  0  0  0
  131.4770  124.7950   59.3920 N   0  0  0  0  0  0  0  0  0  0  0  0
  131.1680  124.8020   58.0760 C   0  0  0  0  0  0  0  0  0  0  0  0
  132.2200  125.3880   57.1550 C   0  0  0  0  0  0  0  0  0  0  0  0
  129.9620  124.3070   57.5860 C   0  0  0  0  0  0  0  0  0  0  0  0
  129.0150  123.7830   58.4760 C   0  0  0  0  0  0  0  0  0  0  0  0
  127.7270  123.2850   57.9080 C   0  0  0  0  0  0  0  0  0  0  0  0
  127.7020  122.1150   57.1390 C   0  0  0  0  0  0  0  0  0  0  0  0
  126.5050  121.6510   56.5980 C   0  0  0  0  0  0  0  0  0  0  0  0
  125.3280  122.3610   56.8190 C   0  0  0  0  0  0  0  0  0  0  0  0
  125.3380  123.5310   57.5740 C   0  0  0  0  0  0  0  0  0  0  0  0
  126.5350  123.9920   58.1140 C   0  0  0  0  0  0  0  0  0  0  0  0
  129.3320  123.7580   59.8590 C   0  0  0  0  0  0  0  0  0  0  0  0
  128.3970  123.1830   60.8320 C   0  0  0  0  0  0  0  0  0  0  0  0
  127.6590  122.7280   61.5990 N   0  0  0  0  0  0  0  0  0  0  0  0
  1  2  1  0
  2  3  1  0
  3  4  1  0
  4  5  1  0
  5  6  1  0
  6  7  1  0
  7  8  1  0
  8  9  1  0
  9 10  1  0
 10 11  1  0
 11 12  1  0
 12 13  2  0
 12 14  1  0
 14 15  1  0
 15 16  1  0
 16 17  2  0
 17 18  1  0
 18 19  1  0
 18 20  2  0
 20 21  1  0
 21 22  1  0
 22 23  2  0
 23 24  1  0
 24 25  2  0
 25 26  1  0
 26 27  2  0
 21 28  2  0
 28 29  1  0
 29 30  3  0
 28 16  1  0
 27 22  1  0
M  END
>  <Binding energies>  (120) 
[-7.13]

>  <Ligand effiencies>  (120) 
[-0.23]

>  <Interactions>  (120) 
["H-B:ALA:541:N:9863, V-B:PRO:540:CB:9857, V-B:MET:535:CE:9807, V-B:TYR:539:CD2:9846, V-B:PRO:540:N:9856, V-B:PRO:540:CA:9855, V-B:TYR:539:CE2:9848, V-B:TYR:539:C:9839, V-B:TYR:531:CE2:9765, V-B:TYR:531:CZ:9766, V-B:LEU:363:CD1:8160, V-B:TYR:539:CA:9841, V-A:ASP:366:CG:3212, V-B:PRO:540:CD:9859, V-A:PRO:540:N:4884, V-A:ILE:538:CA:4860, V-A:ASP:366:CB:3211, V-A:TYR:539:CG:4872, V-A:ILE:538:CG2:4863, V-A:TYR:539:CD1:4873, V-A:TYR:539:CE2:4876, V-A:PRO:540:CA:4883, H-A:TYR:539:N:4870, V-A:TYR:539:CZ:4877, V-A:TYR:539:CD2:4874, V-A:TYR:539:CE1:4875, V-A:ILE:538:CB:4862, V-B:TYR:531:CE1:9764, H-B:LYS:534:NZ:9795, V-A:TYR:539:C:4867, V-A:GLU:543:CD:4908, H-A:ASP:366:OD2:3214, V-B:TYR:539:CZ:9849, H-A:TYR:539:OH:4878, V-B:TYR:539:CG:9844, V-B:TYR:539:CD1:9845, V-A:ILE:538:C:4858, V-A:TYR:539:CA:4869, H-A:GLU:543:OE1:4909, H-A:GLU:543:OE2:4910, H-A:ASP:366:OD1:3213"]

$$$$
4aa_Grossjean_2025
     RDKit          3D

 26 28  0  0  0  0  0  0  0  0999 V2000
  130.8220  126.2520   67.4130 C   0  0  0  0  0  0  0  0  0  0  0  0
  132.2440  126.7410   67.1200 C   0  0  0  0  0  0  0  0  0  0  0  0
  133.0960  125.6200   66.9160 O   0  0  0  0  0  0  0  0  0  0  0  0
  133.6310  125.3590   65.6960 C   0  0  0  0  0  0  0  0  0  0  0  0
  134.8450  125.3640   65.4700 O   0  0  0  0  0  0  0  0  0  0  0  0
  132.5980  125.0660   64.6460 C   0  0  0  0  0  0  0  0  0  0  0  0
  132.4810  123.7610   64.1480 C   0  0  0  0  0  0  0  0  0  0  0  0
  131.5370  123.4590   63.1700 C   0  0  0  0  0  0  0  0  0  0  0  0
  130.6860  124.4500   62.6780 C   0  0  0  0  0  0  0  0  0  0  0  0
  129.7750  124.0360   61.6870 N   0  0  0  0  0  0  0  0  0  0  0  0
  128.7510  123.1520   61.7550 C   0  0  0  0  0  0  0  0  0  0  0  0
  128.4690  122.4960   62.7590 O   0  0  0  0  0  0  0  0  0  0  0  0
  127.9830  122.9890   60.5200 C   0  0  0  0  0  0  0  0  0  0  0  0
  128.6100  121.9910   59.2050 S   0  0  0  0  0  0  0  0  0  0  0  0
  127.2220  122.3530   58.2050 C   0  0  0  0  0  0  0  0  0  0  0  0
  127.0880  121.8520   56.9760 N   0  0  0  0  0  0  0  0  0  0  0  0
  125.9670  122.2150   56.3050 C   0  0  0  0  0  0  0  0  0  0  0  0
  125.8360  121.6380   54.9070 C   0  0  0  0  0  0  0  0  0  0  0  0
  124.9870  123.0550   56.8300 C   0  0  0  0  0  0  0  0  0  0  0  0
  125.1310  123.5770   58.1190 C   0  0  0  0  0  0  0  0  0  0  0  0
  124.0340  124.4890   58.6490 C   0  0  0  0  0  0  0  0  0  0  0  0
  126.2950  123.2230   58.8530 C   0  0  0  0  0  0  0  0  0  0  0  0
  126.7550  123.5740   60.1700 C   0  0  0  0  0  0  0  0  0  0  0  0
  126.0420  124.4050   60.9970 N   0  0  0  0  0  0  0  0  0  0  0  0
  130.7990  125.7590   63.1670 C   0  0  0  0  0  0  0  0  0  0  0  0
  131.7470  126.0610   64.1430 C   0  0  0  0  0  0  0  0  0  0  0  0
  1  2  1  0
  2  3  1  0
  3  4  1  0
  4  5  2  0
  4  6  1  0
  6  7  2  0
  7  8  1  0
  8  9  2  0
  9 10  1  0
 10 11  1  0
 11 12  2  0
 11 13  1  0
 13 14  1  0
 14 15  1  0
 15 16  2  0
 16 17  1  0
 17 18  1  0
 17 19  2  0
 19 20  1  0
 20 21  1  0
 20 22  2  0
 22 23  1  0
 23 24  1  0
  9 25  1  0
 25 26  2  0
 26  6  1  0
 23 13  2  0
 22 15  1  0
M  END
>  <Binding energies>  (121) 
[-7.36]

>  <Ligand effiencies>  (121) 
[-0.2537931034482759]

>  <Interactions>  (121) 
["H-B:ALA:541:N:9863, V-B:PRO:540:CB:9857, V-B:MET:535:CE:9807, V-B:TYR:539:CD2:9846, V-B:PRO:540:N:9856, V-B:PRO:540:CA:9855, H-B:TYR:539:N:9842, V-B:TYR:539:CE2:9848, V-B:MET:535:CG:9805, V-B:TYR:539:C:9839, V-B:TYR:531:CE2:9765, V-B:LEU:363:CD1:8160, H-A:TYR:484:OH:4347, H-A:GLY:454:N:4049, V-B:PRO:540:CD:9859, V-B:ASP:366:CG:8184, V-B:ASP:366:CB:8183, V-A:GLU:543:CD:4908, V-B:LEU:363:CA:8156, V-A:HIS:456:CE1:4069, V-A:ARG:545:CD:4923, H-B:GLU:543:OE1:9881, H-B:GLU:543:OE2:9882, H-A:ARG:545:NE:4924, V-A:ARG:545:CG:4922, V-A:ARG:545:CZ:4926, H-A:ARG:545:NH1:4927, V-B:ILE:538:CA:9832, V-B:ILE:538:CG1:9836, V-B:ILE:538:CG2:9835, H-B:ASP:366:OD1:8185, V-B:ILE:538:C:9830, V-B:ILE:538:CB:9834, V-A:GLY:454:CA:4048, V-B:MET:535:CB:9804, V-B:LEU:363:CB:8158"]

$$$$
4ab_Grossjean_2025
     RDKit          3D

 25 27  0  0  0  0  0  0  0  0999 V2000
  124.6610  124.5560   57.6960 C   0  0  0  0  0  0  0  0  0  0  0  0
  125.3370  123.7940   56.7060 O   0  0  0  0  0  0  0  0  0  0  0  0
  126.1430  122.7580   57.0510 C   0  0  0  0  0  0  0  0  0  0  0  0
  126.0910  121.6460   56.5140 O   0  0  0  0  0  0  0  0  0  0  0  0
  127.1020  123.0950   58.1560 C   0  0  0  0  0  0  0  0  0  0  0  0
  126.6150  123.2370   59.4630 C   0  0  0  0  0  0  0  0  0  0  0  0
  127.4790  123.5510   60.5090 C   0  0  0  0  0  0  0  0  0  0  0  0
  128.8430  123.7210   60.2740 C   0  0  0  0  0  0  0  0  0  0  0  0
  129.6210  124.0440   61.4020 N   0  0  0  0  0  0  0  0  0  0  0  0
  129.4120  123.7740   62.7140 C   0  0  0  0  0  0  0  0  0  0  0  0
  128.4170  123.1960   63.1520 O   0  0  0  0  0  0  0  0  0  0  0  0
  130.4610  124.2430   63.6220 C   0  0  0  0  0  0  0  0  0  0  0  0
  132.1340  123.7290   63.3910 S   0  0  0  0  0  0  0  0  0  0  0  0
  132.6540  124.6250   64.8000 C   0  0  0  0  0  0  0  0  0  0  0  0
  133.9270  124.6420   65.1970 N   0  0  0  0  0  0  0  0  0  0  0  0
  134.1960  125.3730   66.3050 C   0  0  0  0  0  0  0  0  0  0  0  0
  135.6490  125.3740   66.7430 C   0  0  0  0  0  0  0  0  0  0  0  0
  133.2320  126.0840   67.0180 C   0  0  0  0  0  0  0  0  0  0  0  0
  131.8970  126.0640   66.5990 C   0  0  0  0  0  0  0  0  0  0  0  0
  130.8820  126.8550   67.4100 C   0  0  0  0  0  0  0  0  0  0  0  0
  131.5750  125.3050   65.4420 C   0  0  0  0  0  0  0  0  0  0  0  0
  130.3360  125.0640   64.7530 C   0  0  0  0  0  0  0  0  0  0  0  0
  129.1460  125.6020   65.1770 N   0  0  0  0  0  0  0  0  0  0  0  0
  129.3390  123.5860   58.9680 C   0  0  0  0  0  0  0  0  0  0  0  0
  128.4740  123.2740   57.9230 C   0  0  0  0  0  0  0  0  0  0  0  0
  1  2  1  0
  2  3  1  0
  3  4  2  0
  3  5  1  0
  5  6  2  0
  6  7  1  0
  7  8  2  0
  8  9  1  0
  9 10  1  0
 10 11  2  0
 10 12  1  0
 12 13  1  0
 13 14  1  0
 14 15  2  0
 15 16  1  0
 16 17  1  0
 16 18  2  0
 18 19  1  0
 19 20  1  0
 19 21  2  0
 21 22  1  0
 22 23  1  0
  8 24  1  0
 24 25  2  0
 25  5  1  0
 22 12  2  0
 21 14  1  0
M  END
>  <Binding energies>  (122) 
[-7.46]

>  <Ligand effiencies>  (122) 
[-0.2664285714285714]

>  <Interactions>  (122) 
["V-B:PRO:540:CB:9857, H-B:TYR:531:OH:9767, V-B:MET:535:CE:9807, V-B:PRO:540:N:9856, V-B:PRO:540:CA:9855, H-B:TYR:539:N:9842, V-B:TYR:539:CE2:9848, V-B:TYR:531:CE2:9765, V-B:TYR:531:CZ:9766, V-B:LEU:363:CD1:8160, H-A:TYR:484:OH:4347, H-A:GLY:454:N:4049, V-B:ASP:366:CB:8183, V-A:GLU:543:CD:4908, V-A:HIS:456:CE1:4069, V-B:GLU:543:CB:9878, V-A:ARG:545:CD:4923, V-A:ILE:455:C:4051, V-B:GLU:543:CG:9879, H-B:GLU:543:OE1:9881, V-B:GLU:543:CD:9880, H-B:GLU:543:OE2:9882, V-A:ARG:545:CG:4922, V-A:ARG:545:CZ:4926, V-A:GLU:543:CB:4906, H-A:GLU:543:OE1:4909, V-A:GLY:454:CA:4048, V-A:GLY:453:CA:4043, V-A:GLY:453:C:4041, V-A:GLY:454:C:4046, V-A:ILE:455:CA:4053, V-A:ARG:545:CB:4921, V-A:VAL:452:CG2:4039"]

$$$$
4ac_Grossjean_2025
     RDKit          3D

 23 25  0  0  0  0  0  0  0  0999 V2000
  133.8330  125.3830   66.6950 C   0  0  0  0  0  0  0  0  0  0  0  0
  134.0460  125.3270   65.2890 O   0  0  0  0  0  0  0  0  0  0  0  0
  132.9900  125.0060   64.4590 C   0  0  0  0  0  0  0  0  0  0  0  0
  133.3170  124.4760   63.2110 C   0  0  0  0  0  0  0  0  0  0  0  0
  132.3190  124.1230   62.3070 C   0  0  0  0  0  0  0  0  0  0  0  0
  130.9750  124.2860   62.6450 C   0  0  0  0  0  0  0  0  0  0  0  0
  130.0370  123.9140   61.6640 N   0  0  0  0  0  0  0  0  0  0  0  0
  128.9580  123.1040   61.7740 C   0  0  0  0  0  0  0  0  0  0  0  0
  128.6420  122.5130   62.8090 O   0  0  0  0  0  0  0  0  0  0  0  0
  128.1590  122.9520   60.5550 C   0  0  0  0  0  0  0  0  0  0  0  0
  128.7880  122.0360   59.1850 S   0  0  0  0  0  0  0  0  0  0  0  0
  127.3370  122.3390   58.2560 C   0  0  0  0  0  0  0  0  0  0  0  0
  127.1800  121.8670   57.0180 N   0  0  0  0  0  0  0  0  0  0  0  0
  126.0090  122.1740   56.4090 C   0  0  0  0  0  0  0  0  0  0  0  0
  125.8500  121.6280   55.0020 C   0  0  0  0  0  0  0  0  0  0  0  0
  125.0030  122.9360   57.0010 C   0  0  0  0  0  0  0  0  0  0  0  0
  125.1720  123.4300   58.2990 C   0  0  0  0  0  0  0  0  0  0  0  0
  124.0460  124.2560   58.9020 C   0  0  0  0  0  0  0  0  0  0  0  0
  126.3860  123.1260   58.9710 C   0  0  0  0  0  0  0  0  0  0  0  0
  126.8790  123.4600   60.2800 C   0  0  0  0  0  0  0  0  0  0  0  0
  126.1500  124.2120   61.1670 N   0  0  0  0  0  0  0  0  0  0  0  0
  130.6370  124.8300   63.8930 C   0  0  0  0  0  0  0  0  0  0  0  0
  131.6390  125.1830   64.7940 C   0  0  0  0  0  0  0  0  0  0  0  0
  1  2  1  0
  2  3  1  0
  3  4  2  0
  4  5  1  0
  5  6  2  0
  6  7  1  0
  7  8  1  0
  8  9  2  0
  8 10  1  0
 10 11  1  0
 11 12  1  0
 12 13  2  0
 13 14  1  0
 14 15  1  0
 14 16  2  0
 16 17  1  0
 17 18  1  0
 17 19  2  0
 19 20  1  0
 20 21  1  0
  6 22  1  0
 22 23  2  0
 23  3  1  0
 20 10  2  0
 19 12  1  0
M  END
>  <Binding energies>  (123) 
[-7.29]

>  <Ligand effiencies>  (123) 
[-0.2803846153846154]

>  <Interactions>  (123) 
["H-B:ALA:541:N:9863, V-B:PRO:540:CB:9857, V-B:MET:535:CE:9807, V-B:TYR:539:CD2:9846, V-B:PRO:540:N:9856, V-B:PRO:540:CA:9855, H-B:TYR:539:N:9842, V-B:TYR:539:CE2:9848, V-B:MET:535:CG:9805, V-B:TYR:539:C:9839, V-B:TYR:531:CE2:9765, V-B:LEU:363:CD1:8160, H-A:TYR:484:OH:4347, H-A:GLY:454:N:4049, V-B:PRO:540:CD:9859, V-B:ASP:366:CG:8184, V-B:ASP:366:CB:8183, V-B:LEU:363:CA:8156, H-A:ARG:545:NH2:4928, V-A:TYR:484:CZ:4346, V-A:ARG:545:CD:4923, H-B:GLU:543:OE1:9881, V-B:GLU:543:CD:9880, H-B:GLU:543:OE2:9882, H-A:ARG:545:NE:4924, V-A:ARG:545:CG:4922, V-A:ARG:545:CZ:4926, H-A:ARG:545:NH1:4927, V-B:ILE:538:CA:9832, V-B:ILE:538:CG1:9836, V-B:ILE:538:CG2:9835, H-B:ASP:366:OD1:8185, V-B:ILE:538:C:9830, V-B:ILE:538:CB:9834, V-B:LEU:363:CB:8158"]

$$$$
4ad_Grossjean_2025
     RDKit          3D

 21 23  0  0  0  0  0  0  0  0999 V2000
  130.2550  132.1250   54.7640 C   0  0  0  0  0  0  0  0  0  0  0  0
  130.5050  131.7860   56.2210 C   0  0  0  0  0  0  0  0  0  0  0  0
  131.7430  131.3080   56.6450 C   0  0  0  0  0  0  0  0  0  0  0  0
  131.9510  131.0000   57.9950 C   0  0  0  0  0  0  0  0  0  0  0  0
  133.3180  130.4780   58.4080 C   0  0  0  0  0  0  0  0  0  0  0  0
  130.8660  131.1920   58.8930 C   0  0  0  0  0  0  0  0  0  0  0  0
  130.7310  130.9840   60.3090 C   0  0  0  0  0  0  0  0  0  0  0  0
  131.7660  130.5170   61.0810 N   0  0  0  0  0  0  0  0  0  0  0  0
  129.4610  131.3020   60.8150 C   0  0  0  0  0  0  0  0  0  0  0  0
  128.9750  131.1960   62.1920 C   0  0  0  0  0  0  0  0  0  0  0  0
  129.5830  131.7400   63.1160 O   0  0  0  0  0  0  0  0  0  0  0  0
  127.8330  130.4820   62.3520 N   0  0  0  0  0  0  0  0  0  0  0  0
  127.1370  130.1600   63.5330 C   0  0  0  0  0  0  0  0  0  0  0  0
  125.7820  129.8520   63.3780 C   0  0  0  0  0  0  0  0  0  0  0  0
  125.0090  129.5100   64.4850 C   0  0  0  0  0  0  0  0  0  0  0  0
  125.5940  129.4670   65.7480 C   0  0  0  0  0  0  0  0  0  0  0  0
  126.9460  129.7580   65.9130 C   0  0  0  0  0  0  0  0  0  0  0  0
  127.7210  130.1020   64.8080 C   0  0  0  0  0  0  0  0  0  0  0  0
  128.3920  131.8770   59.5340 S   0  0  0  0  0  0  0  0  0  0  0  0
  129.6490  131.6870   58.3340 C   0  0  0  0  0  0  0  0  0  0  0  0
  129.4500  131.9820   57.0480 N   0  0  0  0  0  0  0  0  0  0  0  0
  1  2  1  0
  2  3  2  0
  3  4  1  0
  4  5  1  0
  4  6  2  0
  6  7  1  0
  7  8  1  0
  7  9  2  0
  9 10  1  0
 10 11  2  0
 10 12  1  0
 12 13  1  0
 13 14  2  0
 14 15  1  0
 15 16  2  0
 16 17  1  0
 17 18  2  0
  9 19  1  0
 19 20  1  0
 20 21  2  0
 21  2  1  0
 20  6  1  0
 18 13  1  0
M  END
>  <Binding energies>  (124) 
[-6.81]

>  <Ligand effiencies>  (124) 
[-0.28375]

>  <Interactions>  (124) 
["V-A:ASP:366:CG:3212, V-A:PRO:540:N:4884, V-A:ILE:538:CA:4860, V-A:ASP:366:CB:3211, V-A:ILE:538:CG2:4863, V-A:TYR:539:CD1:4873, V-A:PRO:540:CA:4883, H-A:TYR:539:N:4870, V-A:PRO:540:CB:4885, V-A:TYR:539:CE1:4875, V-A:ILE:538:CB:4862, V-B:ARG:545:CZ:9898, V-A:ALA:541:CB:4892, V-A:TYR:539:C:4867, V-A:LEU:363:CD1:3188, V-A:GLU:543:CG:4907, V-A:GLU:543:CD:4908, H-A:ASP:366:OD2:3214, V-A:ILE:538:C:4858, H-A:ALA:541:N:4891, V-A:LEU:363:CA:3184, V-B:TYR:484:CZ:9318, V-B:TYR:484:CE2:9317, H-A:GLU:543:OE2:4910"]

$$$$
4ae_Grossjean_2025
     RDKit          3D

 22 24  0  0  0  0  0  0  0  0999 V2000
  128.0130  129.4900   67.1770 C   0  0  0  0  0  0  0  0  0  0  0  0
  127.2180  129.6540   65.8970 C   0  0  0  0  0  0  0  0  0  0  0  0
  125.8310  129.4830   65.8700 C   0  0  0  0  0  0  0  0  0  0  0  0
  125.1670  129.6430   64.6540 C   0  0  0  0  0  0  0  0  0  0  0  0
  125.8950  129.9640   63.5060 C   0  0  0  0  0  0  0  0  0  0  0  0
  127.2810  130.1290   63.6050 C   0  0  0  0  0  0  0  0  0  0  0  0
  127.9620  130.4320   62.4130 N   0  0  0  0  0  0  0  0  0  0  0  0
  129.0750  131.1880   62.2410 C   0  0  0  0  0  0  0  0  0  0  0  0
  129.6710  131.7500   63.1610 O   0  0  0  0  0  0  0  0  0  0  0  0
  129.5430  131.3080   60.8580 C   0  0  0  0  0  0  0  0  0  0  0  0
  128.4560  131.8900   59.5970 S   0  0  0  0  0  0  0  0  0  0  0  0
  129.6910  131.6970   58.3750 C   0  0  0  0  0  0  0  0  0  0  0  0
  129.4690  131.9910   57.0940 N   0  0  0  0  0  0  0  0  0  0  0  0
  130.5080  131.7910   56.2480 C   0  0  0  0  0  0  0  0  0  0  0  0
  130.2310  132.1260   54.7940 C   0  0  0  0  0  0  0  0  0  0  0  0
  131.7530  131.3110   56.6500 C   0  0  0  0  0  0  0  0  0  0  0  0
  131.9830  131.0040   57.9960 C   0  0  0  0  0  0  0  0  0  0  0  0
  133.3570  130.4800   58.3850 C   0  0  0  0  0  0  0  0  0  0  0  0
  130.9160  131.1990   58.9130 C   0  0  0  0  0  0  0  0  0  0  0  0
  130.8050  130.9880   60.3320 C   0  0  0  0  0  0  0  0  0  0  0  0
  131.8490  130.5140   61.0860 N   0  0  0  0  0  0  0  0  0  0  0  0
  127.9390  129.9680   64.7910 N   0  0  0  0  0  0  0  0  0  0  0  0
  1  2  1  0
  2  3  2  0
  3  4  1  0
  4  5  2  0
  5  6  1  0
  6  7  1  0
  7  8  1  0
  8  9  2  0
  8 10  1  0
 10 11  1  0
 11 12  1  0
 12 13  2  0
 13 14  1  0
 14 15  1  0
 14 16  2  0
 16 17  1  0
 17 18  1  0
 17 19  2  0
 19 20  1  0
 20 21  1  0
  6 22  2  0
 22  2  1  0
 20 10  2  0
 19 12  1  0
M  END
>  <Binding energies>  (125) 
[-6.99]

>  <Ligand effiencies>  (125) 
[-0.2796]

>  <Interactions>  (125) 
["V-A:ASP:366:CG:3212, V-A:PRO:540:N:4884, V-A:ILE:538:CA:4860, V-A:ASP:366:CB:3211, V-A:ILE:538:CG2:4863, V-A:TYR:539:CD1:4873, V-A:PRO:540:CA:4883, H-A:TYR:539:N:4870, V-A:PRO:540:CB:4885, V-A:TYR:539:CE1:4875, V-A:ILE:538:CB:4862, V-B:ARG:545:CZ:9898, V-A:ALA:541:CB:4892, V-A:TYR:539:C:4867, V-A:LEU:363:CD1:3188, V-A:GLU:543:CG:4907, V-A:GLU:543:CD:4908, H-A:ASP:366:OD2:3214, V-B:HIS:456:CE1:9041, V-A:GLU:543:CB:4906, V-A:ILE:538:C:4858, H-A:ALA:541:N:4891, V-A:LEU:363:CA:3184, V-B:TYR:484:CE2:9317, H-A:GLU:543:OE2:4910, H-A:ALA:541:O:4889"]

$$$$
4af_Grossjean_2025
     RDKit          3D

 21 23  0  0  0  0  0  0  0  0999 V2000
  130.2370  132.1210   54.8400 C   0  0  0  0  0  0  0  0  0  0  0  0
  130.4600  131.7920   56.3050 C   0  0  0  0  0  0  0  0  0  0  0  0
  131.7090  131.3800   56.7650 C   0  0  0  0  0  0  0  0  0  0  0  0
  131.8910  131.0790   58.1210 C   0  0  0  0  0  0  0  0  0  0  0  0
  133.2710  130.6320   58.5750 C   0  0  0  0  0  0  0  0  0  0  0  0
  130.7700  131.2080   58.9850 C   0  0  0  0  0  0  0  0  0  0  0  0
  130.6020  130.9840   60.3960 C   0  0  0  0  0  0  0  0  0  0  0  0
  131.6340  130.5650   61.1980 N   0  0  0  0  0  0  0  0  0  0  0  0
  129.3020  131.2330   60.8630 C   0  0  0  0  0  0  0  0  0  0  0  0
  128.7770  131.0810   62.2210 C   0  0  0  0  0  0  0  0  0  0  0  0
  129.4130  131.4980   63.1900 O   0  0  0  0  0  0  0  0  0  0  0  0
  127.5670  130.4770   62.3100 N   0  0  0  0  0  0  0  0  0  0  0  0
  126.8160  130.1400   63.4520 C   0  0  0  0  0  0  0  0  0  0  0  0
  127.3020  129.4340   64.5680 C   0  0  0  0  0  0  0  0  0  0  0  0
  126.4440  129.1480   65.6320 C   0  0  0  0  0  0  0  0  0  0  0  0
  125.1160  129.5710   65.5520 C   0  0  0  0  0  0  0  0  0  0  0  0
  124.6210  130.2460   64.4840 N   0  0  0  0  0  0  0  0  0  0  0  0
  125.4670  130.5160   63.4580 C   0  0  0  0  0  0  0  0  0  0  0  0
  128.2430  131.7540   59.5500 S   0  0  0  0  0  0  0  0  0  0  0  0
  129.5460  131.6380   58.3890 C   0  0  0  0  0  0  0  0  0  0  0  0
  129.3700  131.9270   57.0990 N   0  0  0  0  0  0  0  0  0  0  0  0
  1  2  1  0
  2  3  2  0
  3  4  1  0
  4  5  1  0
  4  6  2  0
  6  7  1  0
  7  8  1  0
  7  9  2  0
  9 10  1  0
 10 11  2  0
 10 12  1  0
 12 13  1  0
 13 14  2  0
 14 15  1  0
 15 16  2  0
 16 17  1  0
 17 18  2  0
  9 19  1  0
 19 20  1  0
 20 21  2  0
 21  2  1  0
 20  6  1  0
 18 13  1  0
M  END
>  <Binding energies>  (126) 
[-6.8]

>  <Ligand effiencies>  (126) 
[-0.2833333333333333]

>  <Interactions>  (126) 
["V-A:ASP:366:CG:3212, V-A:PRO:540:N:4884, V-A:ILE:538:CA:4860, V-A:ASP:366:CB:3211, V-A:ILE:538:CG2:4863, V-A:TYR:539:CD1:4873, V-A:PRO:540:CA:4883, V-A:PRO:540:CB:4885, V-A:TYR:539:CE1:4875, V-A:ILE:538:CB:4862, H-B:GLY:454:N:9021, V-B:ARG:545:CZ:9898, V-A:ALA:541:CB:4892, V-A:TYR:539:C:4867, V-A:LEU:363:CD1:3188, V-A:GLU:543:CD:4908, H-B:TYR:484:OH:9319, H-A:ASP:366:OD2:3214, V-A:ILE:538:C:4858, H-A:ALA:541:N:4891, V-A:LEU:363:CA:3184, H-A:GLU:543:OE2:4910, H-A:ALA:541:O:4889"]

$$$$
4ag_Grossjean_2025
     RDKit          3D

 22 24  0  0  0  0  0  0  0  0999 V2000
  129.8650  131.7490   54.4340 C   0  0  0  0  0  0  0  0  0  0  0  0
  130.1710  131.5200   55.9020 C   0  0  0  0  0  0  0  0  0  0  0  0
  131.3310  130.8560   56.2980 C   0  0  0  0  0  0  0  0  0  0  0  0
  131.5950  130.6570   57.6570 C   0  0  0  0  0  0  0  0  0  0  0  0
  132.8740  129.9270   58.0390 C   0  0  0  0  0  0  0  0  0  0  0  0
  130.6490  131.1510   58.5950 C   0  0  0  0  0  0  0  0  0  0  0  0
  130.6030  131.1220   60.0320 C   0  0  0  0  0  0  0  0  0  0  0  0
  131.5930  130.5420   60.7860 N   0  0  0  0  0  0  0  0  0  0  0  0
  129.4650  131.7330   60.5780 C   0  0  0  0  0  0  0  0  0  0  0  0
  129.1060  131.8920   61.9870 C   0  0  0  0  0  0  0  0  0  0  0  0
  129.9360  131.7260   62.8840 O   0  0  0  0  0  0  0  0  0  0  0  0
  127.8190  132.2100   62.2400 N   0  0  0  0  0  0  0  0  0  0  0  0
  127.2480  132.4410   63.5660 C   0  0  0  0  0  0  0  0  0  0  0  0
  126.7210  131.1810   64.2420 C   0  0  0  0  0  0  0  0  0  0  0  0
  127.4500  130.5900   65.2780 C   0  0  0  0  0  0  0  0  0  0  0  0
  126.9590  129.4530   65.9140 C   0  0  0  0  0  0  0  0  0  0  0  0
  125.7340  128.9160   65.5190 C   0  0  0  0  0  0  0  0  0  0  0  0
  124.9950  129.5090   64.4990 C   0  0  0  0  0  0  0  0  0  0  0  0
  125.4860  130.6460   63.8630 C   0  0  0  0  0  0  0  0  0  0  0  0
  128.4160  132.3760   59.3140 S   0  0  0  0  0  0  0  0  0  0  0  0
  129.5020  131.8140   58.0630 C   0  0  0  0  0  0  0  0  0  0  0  0
  129.2490  132.0060   56.7680 N   0  0  0  0  0  0  0  0  0  0  0  0
  1  2  1  0
  2  3  2  0
  3  4  1  0
  4  5  1  0
  4  6  2  0
  6  7  1  0
  7  8  1  0
  7  9  2  0
  9 10  1  0
 10 11  2  0
 10 12  1  0
 12 13  1  0
 13 14  1  0
 14 15  2  0
 15 16  1  0
 16 17  2  0
 17 18  1  0
 18 19  2  0
  9 20  1  0
 20 21  1  0
 21 22  2  0
 22  2  1  0
 21  6  1  0
 19 14  1  0
M  END
>  <Binding energies>  (127) 
[-6.84]

>  <Ligand effiencies>  (127) 
[-0.2736]

>  <Interactions>  (127) 
["V-A:ASP:366:CG:3212, V-A:PRO:540:N:4884, V-A:ILE:538:CA:4860, V-A:ASP:366:CB:3211, V-A:ILE:538:CG2:4863, V-A:TYR:539:CD1:4873, V-A:PRO:540:CA:4883, H-A:TYR:539:N:4870, V-A:TYR:539:CE1:4875, V-A:ILE:538:CB:4862, V-B:ARG:545:CZ:9898, V-A:ALA:541:CB:4892, V-A:TYR:539:C:4867, V-A:LEU:363:CD1:3188, V-A:GLU:543:CG:4907, V-A:GLU:543:CD:4908, H-A:ASP:366:OD2:3214, H-A:ALA:541:N:4891, V-B:LEU:475:CD1:9229, V-B:TYR:484:CE2:9317, H-A:GLU:543:OE2:4910, V-A:ALA:541:CA:4890"]

$$$$
4ah_Grossjean_2025
     RDKit          3D

 28 30  0  0  0  0  0  0  0  0999 V2000
  128.8460  132.0390   54.8800 C   0  0  0  0  0  0  0  0  0  0  0  0
  129.4950  132.7760   55.9100 O   0  0  0  0  0  0  0  0  0  0  0  0
  129.9150  132.1190   57.0530 C   0  0  0  0  0  0  0  0  0  0  0  0
  129.0430  131.5500   57.9950 C   0  0  0  0  0  0  0  0  0  0  0  0
  129.5380  130.9030   59.1280 C   0  0  0  0  0  0  0  0  0  0  0  0
  128.5780  130.2510   60.1160 C   0  0  0  0  0  0  0  0  0  0  0  0
  128.0250  128.9810   59.6440 N   0  0  0  0  0  0  0  0  0  0  0  0
  128.5010  127.7580   59.9570 C   0  0  0  0  0  0  0  0  0  0  0  0
  129.4990  127.5920   60.6600 O   0  0  0  0  0  0  0  0  0  0  0  0
  127.7850  126.6240   59.3730 C   0  0  0  0  0  0  0  0  0  0  0  0
  128.0430  126.1860   57.6840 S   0  0  0  0  0  0  0  0  0  0  0  0
  126.8770  124.8870   57.7960 C   0  0  0  0  0  0  0  0  0  0  0  0
  126.5960  124.1000   56.7570 N   0  0  0  0  0  0  0  0  0  0  0  0
  125.6760  123.1300   56.9770 C   0  0  0  0  0  0  0  0  0  0  0  0
  125.3680  122.2470   55.7820 C   0  0  0  0  0  0  0  0  0  0  0  0
  125.0380  122.9300   58.1990 C   0  0  0  0  0  0  0  0  0  0  0  0
  125.3340  123.7590   59.2880 C   0  0  0  0  0  0  0  0  0  0  0  0
  124.6110  123.5010   60.6020 C   0  0  0  0  0  0  0  0  0  0  0  0
  126.2930  124.7890   59.0950 C   0  0  0  0  0  0  0  0  0  0  0  0
  126.8200  125.8000   59.9720 C   0  0  0  0  0  0  0  0  0  0  0  0
  126.4110  125.9270   61.2750 N   0  0  0  0  0  0  0  0  0  0  0  0
  130.9180  130.7960   59.3110 C   0  0  0  0  0  0  0  0  0  0  0  0
  131.8130  131.3590   58.3890 C   0  0  0  0  0  0  0  0  0  0  0  0
  133.1890  131.3040   58.5160 O   0  0  0  0  0  0  0  0  0  0  0  0
  133.7610  130.9860   59.7800 C   0  0  0  0  0  0  0  0  0  0  0  0
  131.2980  132.0240   57.2670 C   0  0  0  0  0  0  0  0  0  0  0  0
  132.1630  132.5640   56.3450 O   0  0  0  0  0  0  0  0  0  0  0  0
  132.2890  131.8020   55.1530 C   0  0  0  0  0  0  0  0  0  0  0  0
  1  2  1  0
  2  3  1  0
  3  4  2  0
  4  5  1  0
  5  6  1  0
  6  7  1  0
  7  8  1  0
  8  9  2  0
  8 10  1  0
 10 11  1  0
 11 12  1  0
 12 13  2  0
 13 14  1  0
 14 15  1  0
 14 16  2  0
 16 17  1  0
 17 18  1  0
 17 19  2  0
 19 20  1  0
 20 21  1  0
  5 22  2  0
 22 23  1  0
 23 24  1  0
 24 25  1  0
 23 26  2  0
 26 27  1  0
 27 28  1  0
 26  3  1  0
 20 10  2  0
 19 12  1  0
M  END
>  <Binding energies>  (128) 
[-6.71]

>  <Ligand effiencies>  (128) 
[-0.21645161290322582]

>  <Interactions>  (128) 
["V-B:PRO:540:CB:9857, H-B:TYR:531:OH:9767, V-B:MET:535:CE:9807, V-B:PRO:540:N:9856, V-B:PRO:540:CA:9855, V-B:MET:535:CG:9805, V-B:TYR:531:CE2:9765, V-B:LEU:363:CD1:8160, V-A:ASP:366:CG:3212, V-A:PRO:540:N:4884, V-A:ILE:538:CA:4860, V-A:ILE:538:CG2:4863, V-A:TYR:539:CD1:4873, V-A:TYR:539:CE2:4876, V-A:PRO:540:CA:4883, H-A:TYR:539:N:4870, V-A:TYR:539:CZ:4877, V-A:TYR:539:CD2:4874, V-A:PRO:540:CB:4885, V-A:TYR:539:CE1:4875, V-A:TYR:531:CZ:4794, V-A:ILE:538:CB:4862, V-B:ASP:366:CG:8184, V-A:PRO:540:CD:4887, V-A:TYR:539:C:4867, V-A:LEU:363:CD1:3188, H-B:GLU:543:OE1:9881, H-B:GLU:543:OE2:9882, V-A:TYR:531:CE2:4793, V-A:LEU:363:CA:3184, V-A:LEU:363:CB:3186, H-B:ASP:366:OD2:8186, V-B:ILE:538:CG2:9835, V-B:PRO:540:CG:9858, H-B:ASP:366:OD1:8185, V-A:ASN:362:CB:3175, V-A:ASN:362:C:3171"]

$$$$
4ai_Grossjean_2025
     RDKit          3D

 20 22  0  0  0  0  0  0  0  0999 V2000
  135.5300  124.3080   61.9170 C   0  0  0  0  0  0  0  0  0  0  0  0
  134.3450  123.4390   61.5370 C   0  0  0  0  0  0  0  0  0  0  0  0
  134.3960  122.0540   61.6820 C   0  0  0  0  0  0  0  0  0  0  0  0
  133.2890  121.2720   61.3320 C   0  0  0  0  0  0  0  0  0  0  0  0
  133.3920  119.7650   61.5110 C   0  0  0  0  0  0  0  0  0  0  0  0
  132.1370  121.9390   60.8320 C   0  0  0  0  0  0  0  0  0  0  0  0
  130.8560  121.4600   60.3880 C   0  0  0  0  0  0  0  0  0  0  0  0
  130.5360  120.1260   60.3810 N   0  0  0  0  0  0  0  0  0  0  0  0
  129.9790  122.4760   59.9760 C   0  0  0  0  0  0  0  0  0  0  0  0
  128.6140  122.3470   59.4610 C   0  0  0  0  0  0  0  0  0  0  0  0
  127.6580  122.2460   60.2320 O   0  0  0  0  0  0  0  0  0  0  0  0
  128.4990  122.3660   58.1090 N   0  0  0  0  0  0  0  0  0  0  0  0
  127.3340  122.2730   57.3600 C   0  0  0  0  0  0  0  0  0  0  0  0
  126.3440  123.2560   57.3650 C   0  0  0  0  0  0  0  0  0  0  0  0
  125.3720  122.7900   56.5100 C   0  0  0  0  0  0  0  0  0  0  0  0
  125.7560  121.5900   56.0150 O   0  0  0  0  0  0  0  0  0  0  0  0
  127.0010  121.2730   56.5590 N   0  0  0  0  0  0  0  0  0  0  0  0
  130.7370  124.0640   60.1070 S   0  0  0  0  0  0  0  0  0  0  0  0
  132.2130  123.3610   60.7310 C   0  0  0  0  0  0  0  0  0  0  0  0
  133.2660  124.1090   61.0630 N   0  0  0  0  0  0  0  0  0  0  0  0
  1  2  1  0
  2  3  2  0
  3  4  1  0
  4  5  1  0
  4  6  2  0
  6  7  1  0
  7  8  1  0
  7  9  2  0
  9 10  1  0
 10 11  2  0
 10 12  1  0
 12 13  1  0
 13 14  1  0
 14 15  2  0
 15 16  1  0
 16 17  1  0
  9 18  1  0
 18 19  1  0
 19 20  2  0
 20  2  1  0
 19  6  1  0
 17 13  2  0
M  END
>  <Binding energies>  (129) 
[-6.79]

>  <Ligand effiencies>  (129) 
[-0.2952173913043478]

>  <Interactions>  (129) 
["H-B:ALA:541:N:9863, V-B:MET:535:CE:9807, V-A:ILE:369:CG2:3236, V-B:TYR:539:CD2:9846, V-B:PRO:540:N:9856, V-A:LEU:475:CD1:4257, V-B:PRO:540:CA:9855, H-B:TYR:539:N:9842, V-B:TYR:539:CE2:9848, V-B:TYR:539:C:9839, V-B:TYR:531:CE2:9765, V-B:LEU:363:CD1:8160, V-A:ASP:366:CG:3212, H-B:TYR:539:OH:9850, V-A:ILE:369:CD1:3238, V-B:TYR:539:CZ:9849, H-B:TYR:539:O:9840, V-A:SER:385:C:3404, V-B:TYR:539:CG:9844, V-A:GLY:454:CA:4048, V-A:GLY:453:CA:4043, V-A:GLY:453:C:4041"]

$$$$
4aj_Grossjean_2025
     RDKit          3D

 20 22  0  0  0  0  0  0  0  0999 V2000
  129.5080  132.1220   54.2910 C   0  0  0  0  0  0  0  0  0  0  0  0
  129.9730  131.7850   55.6960 C   0  0  0  0  0  0  0  0  0  0  0  0
  131.2200  131.2050   55.9180 C   0  0  0  0  0  0  0  0  0  0  0  0
  131.6260  130.8980   57.2220 C   0  0  0  0  0  0  0  0  0  0  0  0
  132.9960  130.2660   57.4130 C   0  0  0  0  0  0  0  0  0  0  0  0
  130.7320  131.1990   58.2840 C   0  0  0  0  0  0  0  0  0  0  0  0
  130.8240  131.0210   59.7080 C   0  0  0  0  0  0  0  0  0  0  0  0
  131.9240  130.4640   60.3070 N   0  0  0  0  0  0  0  0  0  0  0  0
  129.6960  131.4720   60.4120 C   0  0  0  0  0  0  0  0  0  0  0  0
  129.4490  131.4360   61.8550 C   0  0  0  0  0  0  0  0  0  0  0  0
  130.3340  131.7500   62.6540 O   0  0  0  0  0  0  0  0  0  0  0  0
  128.2010  131.0530   62.2220 N   0  0  0  0  0  0  0  0  0  0  0  0
  127.7080  130.9470   63.5160 C   0  0  0  0  0  0  0  0  0  0  0  0
  127.9150  131.7620   64.5280 N   0  0  0  0  0  0  0  0  0  0  0  0
  127.2860  131.3560   65.6140 C   0  0  0  0  0  0  0  0  0  0  0  0
  126.5470  130.1810   65.4940 C   0  0  0  0  0  0  0  0  0  0  0  0
  126.6910  129.5870   63.8670 S   0  0  0  0  0  0  0  0  0  0  0  0
  128.4760  132.1190   59.3150 S   0  0  0  0  0  0  0  0  0  0  0  0
  129.4860  131.7950   57.9240 C   0  0  0  0  0  0  0  0  0  0  0  0
  129.0950  132.0880   56.6830 N   0  0  0  0  0  0  0  0  0  0  0  0
  1  2  1  0
  2  3  2  0
  3  4  1  0
  4  5  1  0
  4  6  2  0
  6  7  1  0
  7  8  1  0
  7  9  2  0
  9 10  1  0
 10 11  2  0
 10 12  1  0
 12 13  1  0
 13 14  2  0
 14 15  1  0
 15 16  2  0
 16 17  1  0
  9 18  1  0
 18 19  1  0
 19 20  2  0
 20  2  1  0
 19  6  1  0
 17 13  1  0
M  END
>  <Binding energies>  (130) 
[-6.31]

>  <Ligand effiencies>  (130) 
[-0.2743478260869565]

>  <Interactions>  (130) 
["V-A:ASP:366:CG:3212, V-A:PRO:540:N:4884, V-A:ILE:538:CA:4860, V-A:ASP:366:CB:3211, V-A:ILE:538:CG2:4863, V-A:TYR:539:CD1:4873, V-A:PRO:540:CA:4883, H-A:TYR:539:N:4870, V-A:TYR:539:CE1:4875, V-A:ILE:538:CB:4862, V-A:ALA:541:CB:4892, V-A:TYR:539:C:4867, V-A:LEU:363:CD1:3188, V-A:GLU:543:CG:4907, V-A:GLU:543:CD:4908, H-A:ASP:366:OD2:3214, V-A:ILE:538:C:4858, H-A:ALA:541:N:4891, V-B:TYR:484:CZ:9318, V-B:TYR:484:CE2:9317, H-A:GLU:543:OE2:4910"]

$$$$
4ak_Grossjean_2025
     RDKit          3D

 25 26  0  0  0  0  0  0  0  0999 V2000
  127.7530  122.3860   57.3590 C   0  0  0  0  0  0  0  0  0  0  0  0
  126.9110  121.5860   56.5420 O   0  0  0  0  0  0  0  0  0  0  0  0
  125.7910  122.2910   56.0230 C   0  0  0  0  0  0  0  0  0  0  0  0
  125.0230  122.9520   57.1760 C   0  0  0  0  0  0  0  0  0  0  0  0
  125.5330  124.2610   57.3920 O   0  0  0  0  0  0  0  0  0  0  0  0
  125.1230  124.8390   58.6240 C   0  0  0  0  0  0  0  0  0  0  0  0
  124.2270  123.8490   59.3770 C   0  0  0  0  0  0  0  0  0  0  0  0
  124.5510  123.8790   60.7600 O   0  0  0  0  0  0  0  0  0  0  0  0
  125.6770  123.0830   61.1050 C   0  0  0  0  0  0  0  0  0  0  0  0
  126.9240  123.9790   61.2000 C   0  0  0  0  0  0  0  0  0  0  0  0
  126.6280  125.3560   61.5960 N   0  0  0  0  0  0  0  0  0  0  0  0
  127.4760  126.1830   62.2400 C   0  0  0  0  0  0  0  0  0  0  0  0
  128.6220  125.8480   62.5430 O   0  0  0  0  0  0  0  0  0  0  0  0
  126.9620  127.5150   62.5540 C   0  0  0  0  0  0  0  0  0  0  0  0
  125.9040  128.3510   61.4170 S   0  0  0  0  0  0  0  0  0  0  0  0
  125.7670  129.7280   62.4880 C   0  0  0  0  0  0  0  0  0  0  0  0
  125.0390  130.7990   62.1690 N   0  0  0  0  0  0  0  0  0  0  0  0
  125.0180  131.7980   63.0860 C   0  0  0  0  0  0  0  0  0  0  0  0
  124.1840  133.0080   62.7050 C   0  0  0  0  0  0  0  0  0  0  0  0
  125.6990  131.7500   64.3000 C   0  0  0  0  0  0  0  0  0  0  0  0
  126.4610  130.6230   64.6320 C   0  0  0  0  0  0  0  0  0  0  0  0
  127.1900  130.6190   65.9670 C   0  0  0  0  0  0  0  0  0  0  0  0
  126.5080  129.5560   63.6950 C   0  0  0  0  0  0  0  0  0  0  0  0
  127.1760  128.2830   63.7090 C   0  0  0  0  0  0  0  0  0  0  0  0
  127.9510  127.8720   64.7640 N   0  0  0  0  0  0  0  0  0  0  0  0
  1  2  1  0
  2  3  1  0
  3  4  1  0
  4  5  1  0
  5  6  1  0
  6  7  1  0
  7  8  1  0
  8  9  1  0
  9 10  1  0
 10 11  1  0
 11 12  1  0
 12 13  2  0
 12 14  1  0
 14 15  1  0
 15 16  1  0
 16 17  2  0
 17 18  1  0
 18 19  1  0
 18 20  2  0
 20 21  1  0
 21 22  1  0
 21 23  2  0
 23 24  1  0
 24 25  1  0
 24 14  2  0
 23 16  1  0
M  END
>  <Binding energies>  (131) 
[-5.82]

>  <Ligand effiencies>  (131) 
[-0.20785714285714288]

>  <Interactions>  (131) 
["V-B:PRO:540:CB:9857, H-B:TYR:531:OH:9767, V-B:MET:535:CE:9807, V-B:PRO:540:N:9856, V-B:PRO:540:CA:9855, V-B:PRO:540:C:9853, H-B:TYR:539:N:9842, V-B:TYR:539:C:9839, V-B:TYR:531:CE2:9765, V-B:LEU:363:CD1:8160, V-B:PRO:540:CD:9859, V-B:ASP:366:CG:8184, V-B:ASP:366:CB:8183, V-B:ILE:369:CD1:8210, V-A:GLU:543:CG:4907, V-B:GLY:454:CA:9020, V-A:GLU:543:CD:4908, V-B:LEU:363:CA:8156, H-B:GLU:543:OE1:9881, V-B:GLU:543:CD:9880, H-B:GLU:543:OE2:9882, V-B:TYR:484:CZ:9318, V-B:LEU:475:CD1:9229, V-B:TYR:484:CE2:9317, H-B:ASP:366:OD1:8185, H-A:GLU:543:OE1:4909, H-A:GLU:543:OE2:4910, V-B:LEU:363:CB:8158"]

$$$$
4al_Grossjean_2025
     RDKit          3D

 16 17  0  0  0  0  0  0  0  0999 V2000
  127.2660  129.8300   54.7030 C   0  0  0  0  0  0  0  0  0  0  0  0
  127.9730  131.0220   54.3970 O   0  0  0  0  0  0  0  0  0  0  0  0
  129.3150  131.1070   54.5940 C   0  0  0  0  0  0  0  0  0  0  0  0
  130.1440  131.1620   53.6830 O   0  0  0  0  0  0  0  0  0  0  0  0
  129.6860  131.1290   56.0260 C   0  0  0  0  0  0  0  0  0  0  0  0
  128.4370  131.3290   57.2570 S   0  0  0  0  0  0  0  0  0  0  0  0
  129.6270  131.2500   58.5360 C   0  0  0  0  0  0  0  0  0  0  0  0
  129.2870  131.3470   59.8220 N   0  0  0  0  0  0  0  0  0  0  0  0
  130.3060  131.2700   60.7140 C   0  0  0  0  0  0  0  0  0  0  0  0
  129.8980  131.3830   62.1710 C   0  0  0  0  0  0  0  0  0  0  0  0
  131.6410  131.0990   60.3530 C   0  0  0  0  0  0  0  0  0  0  0  0
  131.9940  130.9970   59.0030 C   0  0  0  0  0  0  0  0  0  0  0  0
  133.4630  130.8120   58.6590 C   0  0  0  0  0  0  0  0  0  0  0  0
  130.9520  131.0740   58.0390 C   0  0  0  0  0  0  0  0  0  0  0  0
  130.9550  131.0090   56.6040 C   0  0  0  0  0  0  0  0  0  0  0  0
  132.1040  130.8430   55.8740 N   0  0  0  0  0  0  0  0  0  0  0  0
  1  2  1  0
  2  3  1  0
  3  4  2  0
  3  5  1  0
  5  6  1  0
  6  7  1  0
  7  8  2  0
  8  9  1  0
  9 10  1  0
  9 11  2  0
 11 12  1  0
 12 13  1  0
 12 14  2  0
 14 15  1  0
 15 16  1  0
 15  5  2  0
 14  7  1  0
M  END
>  <Binding energies>  (132) 
[-5.35]

>  <Ligand effiencies>  (132) 
[-0.2972222222222222]

>  <Interactions>  (132) 
["V-B:TYR:531:CZ:9766, V-A:ASP:366:CG:3212, V-A:ASP:366:CB:3211, V-A:ILE:538:CG2:4863, V-A:TYR:539:CD1:4873, V-A:PRO:540:CA:4883, H-A:TYR:531:OH:4795, V-A:TYR:539:CZ:4877, V-A:PRO:540:CB:4885, V-A:TYR:539:CE1:4875, V-A:TYR:531:CZ:4794, V-B:TYR:531:CE1:9764, H-B:LYS:534:NZ:9795, V-A:ALA:541:CB:4892, V-A:LEU:363:CD1:3188, V-A:GLU:543:CG:4907, V-A:GLU:543:CD:4908, H-A:TYR:539:OH:4878, V-A:TYR:531:CE2:4793, V-A:LEU:363:CA:3184, V-A:LEU:363:CB:3186, V-A:ALA:541:CA:4890"]

$$$$
4bc_Grossjean_2025
     RDKit          3D

 26 28  0  0  0  0  0  0  0  0999 V2000
  125.3860  122.0360   56.3000 C   0  0  0  0  0  0  0  0  0  0  0  0
  126.7810  121.8500   56.5160 O   0  0  0  0  0  0  0  0  0  0  0  0
  127.3610  122.3710   57.6580 C   0  0  0  0  0  0  0  0  0  0  0  0
  128.7480  122.2670   57.7540 C   0  0  0  0  0  0  0  0  0  0  0  0
  129.4210  122.7630   58.8680 C   0  0  0  0  0  0  0  0  0  0  0  0
  128.7120  123.3780   59.9010 C   0  0  0  0  0  0  0  0  0  0  0  0
  129.4740  123.8340   60.9920 N   0  0  0  0  0  0  0  0  0  0  0  0
  129.5200  125.0690   61.5490 C   0  0  0  0  0  0  0  0  0  0  0  0
  128.8840  126.0360   61.1290 O   0  0  0  0  0  0  0  0  0  0  0  0
  130.4010  125.2010   62.7140 C   0  0  0  0  0  0  0  0  0  0  0  0
  132.1230  124.8610   62.5660 S   0  0  0  0  0  0  0  0  0  0  0  0
  132.3870  125.2290   64.2550 C   0  0  0  0  0  0  0  0  0  0  0  0
  133.6000  125.1510   64.8020 N   0  0  0  0  0  0  0  0  0  0  0  0
  133.6790  125.4580   66.1170 C   0  0  0  0  0  0  0  0  0  0  0  0
  135.0690  125.3690   66.7190 C   0  0  0  0  0  0  0  0  0  0  0  0
  132.5840  125.8350   66.8910 C   0  0  0  0  0  0  0  0  0  0  0  0
  131.3050  125.9180   66.3200 C   0  0  0  0  0  0  0  0  0  0  0  0
  130.1310  126.3360   67.2140 C   0  0  0  0  0  0  0  0  0  0  0  0
  129.4260  125.2970   67.6670 F   0  0  0  0  0  0  0  0  0  0  0  0
  130.5870  127.0020   68.2730 F   0  0  0  0  0  0  0  0  0  0  0  0
  129.2960  127.1160   66.5280 F   0  0  0  0  0  0  0  0  0  0  0  0
  131.1870  125.6030   64.9340 C   0  0  0  0  0  0  0  0  0  0  0  0
  130.0680  125.5800   64.0240 C   0  0  0  0  0  0  0  0  0  0  0  0
  128.7920  125.9020   64.4120 N   0  0  0  0  0  0  0  0  0  0  0  0
  127.3140  123.4740   59.8180 C   0  0  0  0  0  0  0  0  0  0  0  0
  126.6450  122.9770   58.7030 C   0  0  0  0  0  0  0  0  0  0  0  0
  1  2  1  0
  2  3  1  0
  3  4  2  0
  4  5  1  0
  5  6  2  0
  6  7  1  0
  7  8  1  0
  8  9  2  0
  8 10  1  0
 10 11  1  0
 11 12  1  0
 12 13  2  0
 13 14  1  0
 14 15  1  0
 14 16  2  0
 16 17  1  0
 17 18  1  0
 18 19  1  0
 18 20  1  0
 18 21  1  0
 17 22  2  0
 22 23  1  0
 23 24  1  0
  6 25  1  0
 25 26  2  0
 26  3  1  0
 23 10  2  0
 22 12  1  0
M  END
>  <Binding energies>  (133) 
[-6.44]

>  <Ligand effiencies>  (133) 
[-0.2220689655172414]

>  <Interactions>  (133) 
["V-B:PRO:540:CB:9857, V-B:MET:535:CE:9807, V-B:TYR:539:CD2:9846, V-B:PRO:540:N:9856, V-B:PRO:540:CA:9855, H-B:TYR:539:N:9842, V-B:TYR:539:CE2:9848, V-B:TYR:539:C:9839, V-B:LEU:363:CD1:8160, H-A:TYR:484:OH:4347, H-A:GLY:454:N:4049, V-B:PRO:540:CD:9859, V-A:GLU:543:CD:4908, V-B:TYR:539:CZ:9849, H-A:ARG:545:NH2:4928, V-B:TYR:539:CG:9844, V-A:TYR:484:CZ:4346, V-A:HIS:456:CE1:4069, V-B:GLU:543:CB:9878, V-A:ARG:545:CD:4923, V-A:ILE:455:C:4051, V-B:GLU:543:CG:9879, V-B:TYR:539:CE1:9847, H-B:GLU:543:OE1:9881, V-B:GLU:543:CD:9880, H-B:GLU:543:OE2:9882, V-B:TYR:539:CD1:9845, H-A:ARG:545:NE:4924, V-A:ARG:545:CG:4922, V-A:ARG:545:CZ:4926, V-A:GLU:543:CB:4906, V-A:TYR:484:CE2:4345, V-B:ILE:538:CG2:9835, H-A:GLU:543:OE1:4909, V-A:GLY:454:CA:4048, V-A:GLY:453:CA:4043, V-A:GLY:453:C:4041"]

$$$$
4bf_Grossjean_2025
     RDKit          3D

 24 26  0  0  0  0  0  0  0  0999 V2000
  129.5010  132.3710   54.7940 C   0  0  0  0  0  0  0  0  0  0  0  0
  129.7930  131.8980   56.2080 C   0  0  0  0  0  0  0  0  0  0  0  0
  131.0100  131.3030   56.5280 C   0  0  0  0  0  0  0  0  0  0  0  0
  131.2650  130.8680   57.8370 C   0  0  0  0  0  0  0  0  0  0  0  0
  132.6190  130.2160   58.1420 C   0  0  0  0  0  0  0  0  0  0  0  0
  133.1090  130.5640   59.3350 F   0  0  0  0  0  0  0  0  0  0  0  0
  132.4940  128.8890   58.1340 F   0  0  0  0  0  0  0  0  0  0  0  0
  133.5130  130.5810   57.2220 F   0  0  0  0  0  0  0  0  0  0  0  0
  130.2330  131.0620   58.8030 C   0  0  0  0  0  0  0  0  0  0  0  0
  130.1320  130.7510   60.2070 C   0  0  0  0  0  0  0  0  0  0  0  0
  131.1480  130.1500   60.9070 N   0  0  0  0  0  0  0  0  0  0  0  0
  128.9090  131.1210   60.7910 C   0  0  0  0  0  0  0  0  0  0  0  0
  128.4610  130.9280   62.1740 C   0  0  0  0  0  0  0  0  0  0  0  0
  129.2170  131.1640   63.1170 O   0  0  0  0  0  0  0  0  0  0  0  0
  127.1830  130.4970   62.3150 N   0  0  0  0  0  0  0  0  0  0  0  0
  126.4720  130.1710   63.4850 C   0  0  0  0  0  0  0  0  0  0  0  0
  127.0460  129.7560   64.6990 C   0  0  0  0  0  0  0  0  0  0  0  0
  126.2220  129.4470   65.7840 C   0  0  0  0  0  0  0  0  0  0  0  0
  124.8400  129.5560   65.6250 C   0  0  0  0  0  0  0  0  0  0  0  0
  124.2610  129.9470   64.4620 N   0  0  0  0  0  0  0  0  0  0  0  0
  125.0750  130.2440   63.4170 C   0  0  0  0  0  0  0  0  0  0  0  0
  127.8380  131.8670   59.6070 S   0  0  0  0  0  0  0  0  0  0  0  0
  129.0320  131.6850   58.3430 C   0  0  0  0  0  0  0  0  0  0  0  0
  128.7950  132.0980   57.0990 N   0  0  0  0  0  0  0  0  0  0  0  0
  1  2  1  0
  2  3  2  0
  3  4  1  0
  4  5  1  0
  5  6  1  0
  5  7  1  0
  5  8  1  0
  4  9  2  0
  9 10  1  0
 10 11  1  0
 10 12  2  0
 12 13  1  0
 13 14  2  0
 13 15  1  0
 15 16  1  0
 16 17  2  0
 17 18  1  0
 18 19  2  0
 19 20  1  0
 20 21  2  0
 12 22  1  0
 22 23  1  0
 23 24  2  0
 24  2  1  0
 23  9  1  0
 21 16  1  0
M  END
>  <Binding energies>  (134) 
[-6.11]

>  <Ligand effiencies>  (134) 
[-0.2262962962962963]

>  <Interactions>  (134) 
["V-A:ASP:366:CG:3212, V-A:ILE:538:CA:4860, V-A:ASP:366:CB:3211, V-A:ILE:538:CG2:4863, V-A:TYR:539:CD1:4873, V-A:PRO:540:CA:4883, H-A:TYR:539:N:4870, V-A:PRO:540:CB:4885, V-A:TYR:539:CE1:4875, V-A:ILE:538:CB:4862, H-B:GLY:454:N:9021, V-B:ARG:545:CZ:9898, V-A:TYR:539:C:4867, V-A:LEU:363:CD1:3188, H-B:ARG:545:NH2:9900, H-A:ASP:366:OD2:3214, V-A:ILE:538:C:4858, V-A:LEU:363:CA:3184, V-A:LEU:363:CG:3187, V-A:LEU:363:CB:3186, H-A:GLU:543:OE2:4910"]

$$$$
4bh_Grossjean_2025
     RDKit          3D

 31 33  0  0  0  0  0  0  0  0999 V2000
  131.6030  120.6350   61.2500 C   0  0  0  0  0  0  0  0  0  0  0  0
  131.1260  121.9740   61.3300 O   0  0  0  0  0  0  0  0  0  0  0  0
  130.0060  122.3400   60.6060 C   0  0  0  0  0  0  0  0  0  0  0  0
  130.0310  122.6890   59.2470 C   0  0  0  0  0  0  0  0  0  0  0  0
  128.8610  123.0520   58.5790 C   0  0  0  0  0  0  0  0  0  0  0  0
  128.9010  123.3830   57.0920 C   0  0  0  0  0  0  0  0  0  0  0  0
  129.0240  124.8150   56.8150 N   0  0  0  0  0  0  0  0  0  0  0  0
  130.0830  125.5850   57.1400 C   0  0  0  0  0  0  0  0  0  0  0  0
  131.0570  125.1480   57.7540 O   0  0  0  0  0  0  0  0  0  0  0  0
  129.9920  126.9950   56.7590 C   0  0  0  0  0  0  0  0  0  0  0  0
  128.8180  127.5090   55.5510 S   0  0  0  0  0  0  0  0  0  0  0  0
  129.3700  129.1640   55.6570 C   0  0  0  0  0  0  0  0  0  0  0  0
  128.8190  130.1290   54.9210 N   0  0  0  0  0  0  0  0  0  0  0  0
  129.3290  131.3700   55.0910 C   0  0  0  0  0  0  0  0  0  0  0  0
  128.6890  132.4540   54.2410 C   0  0  0  0  0  0  0  0  0  0  0  0
  130.3640  131.6690   55.9730 C   0  0  0  0  0  0  0  0  0  0  0  0
  130.9500  130.6570   56.7500 C   0  0  0  0  0  0  0  0  0  0  0  0
  132.0850  131.0330   57.7080 C   0  0  0  0  0  0  0  0  0  0  0  0
  131.7200  130.9960   58.9920 F   0  0  0  0  0  0  0  0  0  0  0  0
  133.1010  130.1850   57.5590 F   0  0  0  0  0  0  0  0  0  0  0  0
  132.5030  132.2720   57.4470 F   0  0  0  0  0  0  0  0  0  0  0  0
  130.4380  129.3350   56.5920 C   0  0  0  0  0  0  0  0  0  0  0  0
  130.7800  128.0710   57.1970 C   0  0  0  0  0  0  0  0  0  0  0  0
  131.7820  127.9380   58.1240 N   0  0  0  0  0  0  0  0  0  0  0  0
  127.6460  123.0400   59.2660 C   0  0  0  0  0  0  0  0  0  0  0  0
  127.5920  122.7030   60.6270 C   0  0  0  0  0  0  0  0  0  0  0  0
  126.4260  122.6840   61.3720 O   0  0  0  0  0  0  0  0  0  0  0  0
  125.4370  123.6830   61.1460 C   0  0  0  0  0  0  0  0  0  0  0  0
  128.7810  122.3610   61.2870 C   0  0  0  0  0  0  0  0  0  0  0  0
  128.7400  122.0110   62.6160 O   0  0  0  0  0  0  0  0  0  0  0  0
  129.1030  123.0620   63.5010 C   0  0  0  0  0  0  0  0  0  0  0  0
  1  2  1  0
  2  3  1  0
  3  4  2  0
  4  5  1  0
  5  6  1  0
  6  7  1  0
  7  8  1  0
  8  9  2  0
  8 10  1  0
 10 11  1  0
 11 12  1  0
 12 13  2  0
 13 14  1  0
 14 15  1  0
 14 16  2  0
 16 17  1  0
 17 18  1  0
 18 19  1  0
 18 20  1  0
 18 21  1  0
 17 22  2  0
 22 23  1  0
 23 24  1  0
  5 25  2  0
 25 26  1  0
 26 27  1  0
 27 28  1  0
 26 29  2  0
 29 30  1  0
 30 31  1  0
 29  3  1  0
 23 10  2  0
 22 12  1  0
M  END
>  <Binding energies>  (135) 
[-5.88]

>  <Ligand effiencies>  (135) 
[-0.17294117647058824]

>  <Interactions>  (135) 
["H-B:ALA:541:N:9863, V-B:PRO:540:CB:9857, H-B:TYR:531:OH:9767, V-B:MET:535:CE:9807, V-B:TYR:539:CD2:9846, V-A:LEU:475:CD1:4257, V-B:PRO:540:CA:9855, V-B:PRO:540:C:9853, V-B:ALA:541:CB:9864, V-B:TYR:539:CE2:9848, V-A:ASP:366:CG:3212, V-A:PRO:540:N:4884, V-A:ILE:538:CA:4860, V-A:ASP:366:CB:3211, V-A:ILE:538:CG2:4863, H-B:TYR:539:OH:9850, V-A:TYR:539:CE2:4876, V-A:PRO:540:CA:4883, V-A:TYR:539:CZ:4877, V-A:TYR:539:CD2:4874, V-A:PRO:540:CB:4885, V-A:TYR:539:CE1:4875, V-A:ILE:538:CB:4862, V-A:PRO:540:CD:4887, V-A:LEU:363:CD1:3188, H-A:ASP:366:OD2:3214, V-B:TYR:539:CZ:9849, V-B:GLU:543:CG:9879, V-B:TYR:539:CE1:9847, V-B:GLU:543:CD:9880, H-B:MET:535:SD:9806, V-A:ILE:538:C:4858, V-A:LEU:363:CA:3184, V-A:PRO:540:CG:4886, V-A:VAL:537:C:4850"]

$$$$
4bi_Grossjean_2025
     RDKit          3D

 23 25  0  0  0  0  0  0  0  0999 V2000
  133.2670  125.1180   64.9960 C   0  0  0  0  0  0  0  0  0  0  0  0
  132.5910  124.2620   63.9400 C   0  0  0  0  0  0  0  0  0  0  0  0
  133.2480  123.1760   63.3680 C   0  0  0  0  0  0  0  0  0  0  0  0
  132.6090  122.3910   62.3950 C   0  0  0  0  0  0  0  0  0  0  0  0
  133.3690  121.2010   61.8000 C   0  0  0  0  0  0  0  0  0  0  0  0
  132.6860  120.0550   61.8740 F   0  0  0  0  0  0  0  0  0  0  0  0
  133.6270  121.4270   60.5130 F   0  0  0  0  0  0  0  0  0  0  0  0
  134.5160  121.0240   62.4560 F   0  0  0  0  0  0  0  0  0  0  0  0
  131.2800  122.7600   62.0280 C   0  0  0  0  0  0  0  0  0  0  0  0
  130.3330  122.2110   61.0890 C   0  0  0  0  0  0  0  0  0  0  0  0
  130.6120  121.1190   60.3080 N   0  0  0  0  0  0  0  0  0  0  0  0
  129.1030  122.8890   61.0510 C   0  0  0  0  0  0  0  0  0  0  0  0
  127.9330  122.6120   60.2130 C   0  0  0  0  0  0  0  0  0  0  0  0
  126.8280  122.4080   60.7220 O   0  0  0  0  0  0  0  0  0  0  0  0
  128.1590  122.6180   58.8760 N   0  0  0  0  0  0  0  0  0  0  0  0
  127.2370  122.4010   57.8610 C   0  0  0  0  0  0  0  0  0  0  0  0
  125.9780  122.9990   57.8360 C   0  0  0  0  0  0  0  0  0  0  0  0
  125.3830  122.5320   56.6860 C   0  0  0  0  0  0  0  0  0  0  0  0
  126.2400  121.6970   56.0510 O   0  0  0  0  0  0  0  0  0  0  0  0
  127.4120  121.6220   56.8070 N   0  0  0  0  0  0  0  0  0  0  0  0
  129.0920  124.2510   62.1680 S   0  0  0  0  0  0  0  0  0  0  0  0
  130.7210  123.8960   62.6910 C   0  0  0  0  0  0  0  0  0  0  0  0
  131.3320  124.6370   63.6150 N   0  0  0  0  0  0  0  0  0  0  0  0
  1  2  1  0
  2  3  2  0
  3  4  1  0
  4  5  1  0
  5  6  1  0
  5  7  1  0
  5  8  1  0
  4  9  2  0
  9 10  1  0
 10 11  1  0
 10 12  2  0
 12 13  1  0
 13 14  2  0
 13 15  1  0
 15 16  1  0
 16 17  1  0
 17 18  2  0
 18 19  1  0
 19 20  1  0
 12 21  1  0
 21 22  1  0
 22 23  2  0
 23  2  1  0
 22  9  1  0
 20 16  2  0
M  END
>  <Binding energies>  (136) 
[-6.27]

>  <Ligand effiencies>  (136) 
[-0.24115384615384614]

>  <Interactions>  (136) 
["H-B:ALA:541:N:9863, V-B:PRO:540:CB:9857, V-B:MET:535:CE:9807, V-A:ILE:369:CG2:3236, V-B:TYR:539:CD2:9846, V-B:PRO:540:N:9856, V-A:LEU:475:CD1:4257, V-B:PRO:540:CA:9855, H-B:TYR:539:N:9842, V-B:TYR:539:CE2:9848, V-B:TYR:539:C:9839, V-B:LEU:363:CD1:8160, V-B:PRO:540:CD:9859, V-A:ILE:369:CD1:3238, H-B:TYR:539:O:9840, V-A:SER:385:C:3404, V-A:ARG:545:CZ:4926, V-A:GLY:454:CA:4048"]

$$$$
4bj_Grossjean_2025
     RDKit          3D

 23 25  0  0  0  0  0  0  0  0999 V2000
  129.4750  132.1030   54.3150 C   0  0  0  0  0  0  0  0  0  0  0  0
  129.9330  131.7290   55.7130 C   0  0  0  0  0  0  0  0  0  0  0  0
  131.1410  131.0680   55.9200 C   0  0  0  0  0  0  0  0  0  0  0  0
  131.5490  130.7220   57.2170 C   0  0  0  0  0  0  0  0  0  0  0  0
  132.8860  129.9920   57.3950 C   0  0  0  0  0  0  0  0  0  0  0  0
  133.6090  129.9490   56.2740 F   0  0  0  0  0  0  0  0  0  0  0  0
  133.6180  130.6110   58.3200 F   0  0  0  0  0  0  0  0  0  0  0  0
  132.6640  128.7340   57.7760 F   0  0  0  0  0  0  0  0  0  0  0  0
  130.6800  131.0790   58.2910 C   0  0  0  0  0  0  0  0  0  0  0  0
  130.7570  130.8910   59.7200 C   0  0  0  0  0  0  0  0  0  0  0  0
  131.8110  130.2580   60.3290 N   0  0  0  0  0  0  0  0  0  0  0  0
  129.6650  131.4200   60.4270 C   0  0  0  0  0  0  0  0  0  0  0  0
  129.4160  131.3980   61.8700 C   0  0  0  0  0  0  0  0  0  0  0  0
  130.2920  131.7410   62.6670 O   0  0  0  0  0  0  0  0  0  0  0  0
  128.1750  130.9970   62.2420 N   0  0  0  0  0  0  0  0  0  0  0  0
  127.6830  130.8990   63.5360 C   0  0  0  0  0  0  0  0  0  0  0  0
  127.8980  131.7130   64.5460 N   0  0  0  0  0  0  0  0  0  0  0  0
  127.2660  131.3160   65.6320 C   0  0  0  0  0  0  0  0  0  0  0  0
  126.5140  130.1510   65.5160 C   0  0  0  0  0  0  0  0  0  0  0  0
  126.6530  129.5490   63.8910 S   0  0  0  0  0  0  0  0  0  0  0  0
  128.4900  132.1490   59.3360 S   0  0  0  0  0  0  0  0  0  0  0  0
  129.4730  131.7590   57.9440 C   0  0  0  0  0  0  0  0  0  0  0  0
  129.0880  132.0820   56.7100 N   0  0  0  0  0  0  0  0  0  0  0  0
  1  2  1  0
  2  3  2  0
  3  4  1  0
  4  5  1  0
  5  6  1  0
  5  7  1  0
  5  8  1  0
  4  9  2  0
  9 10  1  0
 10 11  1  0
 10 12  2  0
 12 13  1  0
 13 14  2  0
 13 15  1  0
 15 16  1  0
 16 17  2  0
 17 18  1  0
 18 19  2  0
 19 20  1  0
 12 21  1  0
 21 22  1  0
 22 23  2  0
 23  2  1  0
 22  9  1  0
 20 16  1  0
M  END
>  <Binding energies>  (137) 
[-5.89]

>  <Ligand effiencies>  (137) 
[-0.22653846153846152]

>  <Interactions>  (137) 
["V-A:ASP:366:CG:3212, V-A:PRO:540:N:4884, V-A:ILE:538:CA:4860, V-A:ASP:366:CB:3211, V-A:ILE:538:CG2:4863, V-A:TYR:539:CD1:4873, V-A:PRO:540:CA:4883, H-A:TYR:539:N:4870, V-A:PRO:540:CB:4885, V-A:TYR:539:CE1:4875, V-A:TYR:531:CZ:4794, V-A:ILE:538:CB:4862, V-A:ALA:541:CB:4892, V-A:TYR:539:C:4867, V-A:LEU:363:CD1:3188, V-A:GLU:543:CG:4907, V-A:GLU:543:CD:4908, H-A:ASP:366:OD2:3214, V-A:ILE:538:C:4858, H-A:ALA:541:N:4891, V-A:TYR:531:CE2:4793, V-A:LEU:363:CA:3184, V-A:LEU:363:CB:3186, V-B:TYR:484:CZ:9318, V-B:TYR:484:CE2:9317, H-A:GLU:543:OE2:4910"]

$$$$
4bk_Grossjean_2025
     RDKit          3D

 28 29  0  0  0  0  0  0  0  0999 V2000
  129.9150  132.1160   57.5700 C   0  0  0  0  0  0  0  0  0  0  0  0
  129.9740  132.4950   56.2040 O   0  0  0  0  0  0  0  0  0  0  0  0
  130.0940  131.3910   55.3150 C   0  0  0  0  0  0  0  0  0  0  0  0
  129.4200  131.7340   53.9810 C   0  0  0  0  0  0  0  0  0  0  0  0
  128.0740  131.2780   54.0010 O   0  0  0  0  0  0  0  0  0  0  0  0
  127.5980  130.9520   55.2990 C   0  0  0  0  0  0  0  0  0  0  0  0
  127.3540  129.4390   55.3890 C   0  0  0  0  0  0  0  0  0  0  0  0
  128.5980  128.7580   55.3010 O   0  0  0  0  0  0  0  0  0  0  0  0
  128.8730  128.2280   54.0100 C   0  0  0  0  0  0  0  0  0  0  0  0
  129.8270  127.0280   54.1430 C   0  0  0  0  0  0  0  0  0  0  0  0
  130.1790  126.7090   55.5280 N   0  0  0  0  0  0  0  0  0  0  0  0
  131.3040  126.0750   55.9200 C   0  0  0  0  0  0  0  0  0  0  0  0
  132.1710  125.7150   55.1210 O   0  0  0  0  0  0  0  0  0  0  0  0
  131.4450  125.8440   57.3580 C   0  0  0  0  0  0  0  0  0  0  0  0
  130.3890  126.6790   58.4950 S   0  0  0  0  0  0  0  0  0  0  0  0
  131.1460  125.8790   59.8520 C   0  0  0  0  0  0  0  0  0  0  0  0
  130.7550  126.1140   61.1040 N   0  0  0  0  0  0  0  0  0  0  0  0
  131.4150  125.4340   62.0700 C   0  0  0  0  0  0  0  0  0  0  0  0
  130.9510  125.7160   63.4880 C   0  0  0  0  0  0  0  0  0  0  0  0
  132.4460  124.5340   61.8170 C   0  0  0  0  0  0  0  0  0  0  0  0
  132.8640  124.2830   60.5010 C   0  0  0  0  0  0  0  0  0  0  0  0
  134.0060  123.2870   60.2720 C   0  0  0  0  0  0  0  0  0  0  0  0
  134.5690  122.8680   61.4070 F   0  0  0  0  0  0  0  0  0  0  0  0
  133.5450  122.2120   59.6330 F   0  0  0  0  0  0  0  0  0  0  0  0
  134.9620  123.8570   59.5400 F   0  0  0  0  0  0  0  0  0  0  0  0
  132.1880  124.9830   59.4570 C   0  0  0  0  0  0  0  0  0  0  0  0
  132.3310  124.9830   58.0220 C   0  0  0  0  0  0  0  0  0  0  0  0
  133.2560  124.2090   57.3690 N   0  0  0  0  0  0  0  0  0  0  0  0
  1  2  1  0
  2  3  1  0
  3  4  1  0
  4  5  1  0
  5  6  1  0
  6  7  1  0
  7  8  1  0
  8  9  1  0
  9 10  1  0
 10 11  1  0
 11 12  1  0
 12 13  2  0
 12 14  1  0
 14 15  1  0
 15 16  1  0
 16 17  2  0
 17 18  1  0
 18 19  1  0
 18 20  2  0
 20 21  1  0
 21 22  1  0
 22 23  1  0
 22 24  1  0
 22 25  1  0
 21 26  2  0
 26 27  1  0
 27 28  1  0
 27 14  2  0
 26 16  1  0
M  END
>  <Binding energies>  (138) 
[-5.85]

>  <Ligand effiencies>  (138) 
[-0.18870967741935482]

>  <Interactions>  (138) 
["H-B:TYR:531:OH:9767, V-A:ILE:369:CG2:3236, V-B:TYR:539:CE2:9848, V-B:TYR:531:CZ:9766, V-A:ASP:366:CG:3212, V-A:PRO:540:N:4884, V-A:ILE:538:CA:4860, V-A:ASP:366:CA:3209, V-A:ASP:366:CB:3211, V-A:ILE:538:CG2:4863, V-A:ASP:366:C:3207, H-B:TYR:539:OH:9850, V-A:TYR:539:CD1:4873, V-A:TYR:539:CE2:4876, V-A:PRO:540:CA:4883, H-A:TYR:531:OH:4795, H-A:TYR:539:N:4870, V-A:TYR:539:CZ:4877, V-A:TYR:539:CE1:4875, V-A:TYR:531:CZ:4794, V-A:ILE:538:CB:4862, V-B:TYR:531:CE1:9764, H-B:LYS:534:NZ:9795, V-A:TYR:539:C:4867, V-A:ILE:369:CD1:3238, V-B:TYR:539:CZ:9849, H-A:TYR:539:OH:4878, V-A:ILE:369:CB:3235, V-A:ILE:369:CG1:3237, V-A:MET:535:CE:4835, H-A:ASP:366:O:3208"]

$$$$
4cd_Grossjean_2025
     RDKit          3D

 29 32  0  0  0  0  0  0  0  0999 V2000
  131.1440  122.6740   64.2230 N   0  0  0  0  0  0  0  0  0  0  0  0
  130.1980  123.4800   63.6420 C   0  0  0  0  0  0  0  0  0  0  0  0
  129.7860  124.7040   64.1940 C   0  0  0  0  0  0  0  0  0  0  0  0
  130.2310  125.3410   65.4380 C   0  0  0  0  0  0  0  0  0  0  0  0
  131.4300  125.4340   65.7010 O   0  0  0  0  0  0  0  0  0  0  0  0
  129.2400  125.8070   66.2370 N   0  0  0  0  0  0  0  0  0  0  0  0
  129.3220  126.4140   67.5040 C   0  0  0  0  0  0  0  0  0  0  0  0
  128.7270  125.7150   68.5580 C   0  0  0  0  0  0  0  0  0  0  0  0
  128.7660  126.2270   69.8510 C   0  0  0  0  0  0  0  0  0  0  0  0
  129.4090  127.4380   70.0950 C   0  0  0  0  0  0  0  0  0  0  0  0
  130.0180  128.1380   69.0570 C   0  0  0  0  0  0  0  0  0  0  0  0
  129.9800  127.6290   67.7610 C   0  0  0  0  0  0  0  0  0  0  0  0
  128.5680  125.4790   63.1840 S   0  0  0  0  0  0  0  0  0  0  0  0
  128.6120  124.1600   62.0390 C   0  0  0  0  0  0  0  0  0  0  0  0
  127.8410  124.1550   60.9540 N   0  0  0  0  0  0  0  0  0  0  0  0
  127.9350  123.0790   60.1300 C   0  0  0  0  0  0  0  0  0  0  0  0
  127.0510  123.1010   58.9170 C   0  0  0  0  0  0  0  0  0  0  0  0
  125.8830  123.8810   58.8920 C   0  0  0  0  0  0  0  0  0  0  0  0
  125.0600  123.9060   57.7700 C   0  0  0  0  0  0  0  0  0  0  0  0
  125.3940  123.1500   56.6520 C   0  0  0  0  0  0  0  0  0  0  0  0
  126.5460  122.3710   56.6480 C   0  0  0  0  0  0  0  0  0  0  0  0
  127.3680  122.3500   57.7710 C   0  0  0  0  0  0  0  0  0  0  0  0
  128.8150  122.0240   60.3880 C   0  0  0  0  0  0  0  0  0  0  0  0
  129.6360  122.0220   61.5280 C   0  0  0  0  0  0  0  0  0  0  0  0
  130.5760  120.8310   61.7530 C   0  0  0  0  0  0  0  0  0  0  0  0
  130.6020  120.4160   63.0210 F   0  0  0  0  0  0  0  0  0  0  0  0
  130.1850  119.8000   61.0040 F   0  0  0  0  0  0  0  0  0  0  0  0
  131.8210  121.1710   61.4190 F   0  0  0  0  0  0  0  0  0  0  0  0
  129.5370  123.1380   62.4060 C   0  0  0  0  0  0  0  0  0  0  0  0
  1  2  1  0
  2  3  2  0
  3  4  1  0
  4  5  2  0
  4  6  1  0
  6  7  1  0
  7  8  2  0
  8  9  1  0
  9 10  2  0
 10 11  1  0
 11 12  2  0
  3 13  1  0
 13 14  1  0
 14 15  2  0
 15 16  1  0
 16 17  1  0
 17 18  2  0
 18 19  1  0
 19 20  2  0
 20 21  1  0
 21 22  2  0
 16 23  2  0
 23 24  1  0
 24 25  1  0
 25 26  1  0
 25 27  1  0
 25 28  1  0
 24 29  2  0
 29  2  1  0
 12  7  1  0
 29 14  1  0
 22 17  1  0
M  END
>  <Binding energies>  (139) 
[-7.53]

>  <Ligand effiencies>  (139) 
[-0.2353125]

>  <Interactions>  (139) 
["V-B:PRO:540:CB:9857, V-B:MET:535:CE:9807, V-B:TYR:539:CD2:9846, V-B:PRO:540:N:9856, V-A:LEU:475:CD1:4257, V-B:PRO:540:CA:9855, V-B:ALA:541:CB:9864, V-B:TYR:539:C:9839, V-B:TYR:531:CE2:9765, V-B:LEU:363:CD1:8160, H-A:TYR:484:OH:4347, V-A:GLU:543:CD:4908, V-A:GLU:543:C:4902, V-B:HIS:456:CE1:9041, V-A:TYR:484:CZ:4346, V-A:HIS:456:CE1:4069, V-B:GLU:543:CB:9878, V-B:GLU:543:CG:9879, V-B:GLU:543:CD:9880, H-B:GLU:543:OE2:9882, V-A:GLU:543:CB:4906, V-A:LEU:475:CD2:4258, V-B:GLU:543:CA:9876, V-B:GLU:543:C:9874, V-B:ALA:541:CA:9862, V-A:LEU:475:CG:4256"]

$$$$
4cg_Grossjean_2025
     RDKit          3D

 30 33  0  0  0  0  0  0  0  0999 V2000
  131.9310  126.0840   64.7930 N   0  0  0  0  0  0  0  0  0  0  0  0
  131.2370  124.9020   64.7640 C   0  0  0  0  0  0  0  0  0  0  0  0
  130.2080  124.5940   65.6640 C   0  0  0  0  0  0  0  0  0  0  0  0
  129.6480  125.4250   66.7290 C   0  0  0  0  0  0  0  0  0  0  0  0
  129.5660  125.0150   67.8890 O   0  0  0  0  0  0  0  0  0  0  0  0
  129.1960  126.6410   66.3550 N   0  0  0  0  0  0  0  0  0  0  0  0
  128.6200  127.6430   67.2500 C   0  0  0  0  0  0  0  0  0  0  0  0
  127.4990  128.4540   66.6110 C   0  0  0  0  0  0  0  0  0  0  0  0
  127.8080  129.5660   65.8240 C   0  0  0  0  0  0  0  0  0  0  0  0
  126.7880  130.2910   65.2130 C   0  0  0  0  0  0  0  0  0  0  0  0
  125.4640  129.8950   65.3830 C   0  0  0  0  0  0  0  0  0  0  0  0
  125.1500  128.7780   66.1540 C   0  0  0  0  0  0  0  0  0  0  0  0
  126.1690  128.0520   66.7630 C   0  0  0  0  0  0  0  0  0  0  0  0
  129.5180  123.0070   65.3330 S   0  0  0  0  0  0  0  0  0  0  0  0
  130.6280  122.7570   64.0060 C   0  0  0  0  0  0  0  0  0  0  0  0
  130.6090  121.6380   63.2870 N   0  0  0  0  0  0  0  0  0  0  0  0
  131.5050  121.5340   62.2720 C   0  0  0  0  0  0  0  0  0  0  0  0
  131.4600  120.2580   61.4800 C   0  0  0  0  0  0  0  0  0  0  0  0
  132.5410  119.8720   60.6710 C   0  0  0  0  0  0  0  0  0  0  0  0
  132.5030  118.6920   59.9350 C   0  0  0  0  0  0  0  0  0  0  0  0
  131.3770  117.8760   59.9960 C   0  0  0  0  0  0  0  0  0  0  0  0
  130.2910  118.2350   60.7860 C   0  0  0  0  0  0  0  0  0  0  0  0
  130.3340  119.4160   61.5210 C   0  0  0  0  0  0  0  0  0  0  0  0
  132.4290  122.5490   61.9960 C   0  0  0  0  0  0  0  0  0  0  0  0
  132.4580  123.7330   62.7490 C   0  0  0  0  0  0  0  0  0  0  0  0
  133.4970  124.8040   62.3940 C   0  0  0  0  0  0  0  0  0  0  0  0
  134.2810  124.4540   61.3720 F   0  0  0  0  0  0  0  0  0  0  0  0
  132.8790  125.9360   62.0550 F   0  0  0  0  0  0  0  0  0  0  0  0
  134.2860  125.0310   63.4420 F   0  0  0  0  0  0  0  0  0  0  0  0
  131.5120  123.8580   63.8070 C   0  0  0  0  0  0  0  0  0  0  0  0
  1  2  1  0
  2  3  2  0
  3  4  1  0
  4  5  2  0
  4  6  1  0
  6  7  1  0
  7  8  1  0
  8  9  2  0
  9 10  1  0
 10 11  2  0
 11 12  1  0
 12 13  2  0
  3 14  1  0
 14 15  1  0
 15 16  2  0
 16 17  1  0
 17 18  1  0
 18 19  2  0
 19 20  1  0
 20 21  2  0
 21 22  1  0
 22 23  2  0
 17 24  2  0
 24 25  1  0
 25 26  1  0
 26 27  1  0
 26 28  1  0
 26 29  1  0
 25 30  2  0
 30  2  1  0
 13  8  1  0
 30 15  1  0
 23 18  1  0
M  END
>  <Binding energies>  (140) 
[-7.8]

>  <Ligand effiencies>  (140) 
[-0.23636363636363636]

>  <Interactions>  (140) 
["V-A:ILE:369:CG2:3236, V-B:TYR:539:CD2:9846, V-A:LEU:475:CD1:4257, V-B:ALA:541:CB:9864, V-B:TYR:539:C:9839, V-A:PRO:482:CG:4326, V-A:PRO:482:CB:4325, H-A:TYR:484:OH:4347, V-A:ASP:366:CG:3212, V-A:ASP:366:CA:3209, V-A:ASP:366:CB:3211, V-B:ARG:545:CZ:9898, V-A:GLU:543:CG:4907, V-A:GLU:543:CD:4908, V-A:ILE:369:CD1:3238, V-B:HIS:456:CE1:9041, V-A:TYR:484:CZ:4346, V-B:GLU:543:CB:9878, V-B:GLU:543:CG:9879, V-B:GLU:543:CD:9880, H-B:GLU:543:OE2:9882, V-A:ARG:545:CZ:4926, V-A:TYR:484:CE2:4345, V-B:ARG:545:CG:9894, H-A:GLU:543:OE1:4909, H-A:GLU:543:OE2:4910, V-A:GLY:453:CA:4043, V-A:GLY:453:C:4041, V-B:TYR:539:CB:9843, V-A:HIS:383:CE1:3392, V-A:HIS:383:CD2:3391, V-B:ARG:545:CD:9895"]

$$$$
4ch_Grossjean_2025
     RDKit          3D

 36 39  0  0  0  0  0  0  0  0999 V2000
  131.8090  132.3320   56.3530 C   0  0  0  0  0  0  0  0  0  0  0  0
  130.4530  132.7610   56.4170 O   0  0  0  0  0  0  0  0  0  0  0  0
  129.4530  131.8220   56.5950 C   0  0  0  0  0  0  0  0  0  0  0  0
  129.0210  131.3640   57.8510 C   0  0  0  0  0  0  0  0  0  0  0  0
  128.0040  130.4140   57.9550 C   0  0  0  0  0  0  0  0  0  0  0  0
  127.5680  129.9090   59.3260 C   0  0  0  0  0  0  0  0  0  0  0  0
  128.2780  128.7120   59.7780 N   0  0  0  0  0  0  0  0  0  0  0  0
  129.6120  128.5210   59.7170 C   0  0  0  0  0  0  0  0  0  0  0  0
  130.3850  129.3780   59.2830 O   0  0  0  0  0  0  0  0  0  0  0  0
  130.1010  127.2420   60.2320 C   0  0  0  0  0  0  0  0  0  0  0  0
  130.2080  125.8440   59.1670 S   0  0  0  0  0  0  0  0  0  0  0  0
  130.8510  124.8560   60.4560 C   0  0  0  0  0  0  0  0  0  0  0  0
  131.1580  123.5760   60.2630 N   0  0  0  0  0  0  0  0  0  0  0  0
  131.6580  122.8890   61.3230 C   0  0  0  0  0  0  0  0  0  0  0  0
  131.9880  121.4450   61.0740 C   0  0  0  0  0  0  0  0  0  0  0  0
  130.9750  120.5130   60.7960 C   0  0  0  0  0  0  0  0  0  0  0  0
  131.2740  119.1730   60.5650 C   0  0  0  0  0  0  0  0  0  0  0  0
  132.5960  118.7440   60.6090 C   0  0  0  0  0  0  0  0  0  0  0  0
  133.6190  119.6450   60.8860 C   0  0  0  0  0  0  0  0  0  0  0  0
  133.3150  120.9830   61.1180 C   0  0  0  0  0  0  0  0  0  0  0  0
  131.8310  123.4870   62.5750 C   0  0  0  0  0  0  0  0  0  0  0  0
  131.5090  124.8370   62.7910 C   0  0  0  0  0  0  0  0  0  0  0  0
  131.7230  125.4280   64.1880 C   0  0  0  0  0  0  0  0  0  0  0  0
  130.6200  125.4070   64.9410 F   0  0  0  0  0  0  0  0  0  0  0  0
  132.6590  124.7350   64.8340 F   0  0  0  0  0  0  0  0  0  0  0  0
  132.1100  126.7000   64.0850 F   0  0  0  0  0  0  0  0  0  0  0  0
  130.9960  125.5690   61.6830 C   0  0  0  0  0  0  0  0  0  0  0  0
  130.5690  126.9380   61.5200 C   0  0  0  0  0  0  0  0  0  0  0  0
  130.6080  127.8550   62.5390 N   0  0  0  0  0  0  0  0  0  0  0  0
  127.4200  129.9010   56.7970 C   0  0  0  0  0  0  0  0  0  0  0  0
  127.8330  130.3390   55.5280 C   0  0  0  0  0  0  0  0  0  0  0  0
  127.2990  129.8750   54.3400 O   0  0  0  0  0  0  0  0  0  0  0  0
  127.9000  128.7590   53.6910 C   0  0  0  0  0  0  0  0  0  0  0  0
  128.8470  131.3050   55.4410 C   0  0  0  0  0  0  0  0  0  0  0  0
  129.2710  131.7310   54.2060 O   0  0  0  0  0  0  0  0  0  0  0  0
  130.2770  130.9120   53.6250 C   0  0  0  0  0  0  0  0  0  0  0  0
  1  2  1  0
  2  3  1  0
  3  4  2  0
  4  5  1  0
  5  6  1  0
  6  7  1  0
  7  8  1  0
  8  9  2  0
  8 10  1  0
 10 11  1  0
 11 12  1  0
 12 13  2  0
 13 14  1  0
 14 15  1  0
 15 16  2  0
 16 17  1  0
 17 18  2  0
 18 19  1  0
 19 20  2  0
 14 21  2  0
 21 22  1  0
 22 23  1  0
 23 24  1  0
 23 25  1  0
 23 26  1  0
 22 27  2  0
 27 28  1  0
 28 29  1  0
  5 30  2  0
 30 31  1  0
 31 32  1  0
 32 33  1  0
 31 34  2  0
 34 35  1  0
 35 36  1  0
 34  3  1  0
 28 10  2  0
 27 12  1  0
 20 15  1  0
M  END
>  <Binding energies>  (141) 
[-7.62]

>  <Ligand effiencies>  (141) 
[-0.19538461538461538]

>  <Interactions>  (141) 
["H-B:TYR:531:OH:9767, V-A:ILE:369:CG2:3236, V-B:TYR:539:CD2:9846, V-A:LEU:475:CD1:4257, V-B:TYR:531:CZ:9766, V-A:PRO:540:N:4884, V-A:MET:535:CB:4832, V-A:ILE:538:CG2:4863, V-A:TYR:539:CD1:4873, V-A:PRO:540:CA:4883, H-A:TYR:539:N:4870, V-A:TYR:539:CZ:4877, V-A:PRO:540:CB:4885, V-A:TYR:539:CE1:4875, V-A:TYR:531:CZ:4794, V-A:ILE:538:CB:4862, V-A:MET:535:CG:4833, V-B:TYR:531:CE1:9764, H-B:LYS:534:NZ:9795, V-A:PRO:540:CD:4887, V-A:LEU:363:CD1:3188, V-A:GLU:543:CD:4908, H-A:ASP:366:OD2:3214, V-A:SER:385:CA:3406, H-A:TYR:539:OH:4878, V-A:SER:385:C:3404, V-A:ARG:545:CZ:4926, V-B:LYS:534:CE:9794, V-A:TYR:531:CE2:4793, V-B:LYS:534:CD:9793, H-A:GLU:543:OE1:4909, H-A:GLU:543:OE2:4910"]

$$$$
4cj_Grossjean_2025
     RDKit          3D

 28 31  0  0  0  0  0  0  0  0999 V2000
  131.2390  122.7380   64.1300 N   0  0  0  0  0  0  0  0  0  0  0  0
  130.2420  123.5030   63.5800 C   0  0  0  0  0  0  0  0  0  0  0  0
  129.7870  124.7010   64.1550 C   0  0  0  0  0  0  0  0  0  0  0  0
  130.2470  125.3590   65.3810 C   0  0  0  0  0  0  0  0  0  0  0  0
  131.4340  125.3150   65.7130 O   0  0  0  0  0  0  0  0  0  0  0  0
  129.2850  125.9910   66.0990 N   0  0  0  0  0  0  0  0  0  0  0  0
  129.4550  126.6860   67.2880 C   0  0  0  0  0  0  0  0  0  0  0  0
  130.4460  127.4840   67.6230 N   0  0  0  0  0  0  0  0  0  0  0  0
  130.2820  127.9800   68.8330 C   0  0  0  0  0  0  0  0  0  0  0  0
  129.1320  127.5840   69.5100 C   0  0  0  0  0  0  0  0  0  0  0  0
  128.2230  126.5030   68.4960 S   0  0  0  0  0  0  0  0  0  0  0  0
  128.5110  125.4300   63.1820 S   0  0  0  0  0  0  0  0  0  0  0  0
  128.5960  124.1290   62.0180 C   0  0  0  0  0  0  0  0  0  0  0  0
  127.8100  124.1060   60.9440 N   0  0  0  0  0  0  0  0  0  0  0  0
  127.9520  123.0590   60.0910 C   0  0  0  0  0  0  0  0  0  0  0  0
  127.0590  123.0710   58.8840 C   0  0  0  0  0  0  0  0  0  0  0  0
  125.8990  123.8610   58.8560 C   0  0  0  0  0  0  0  0  0  0  0  0
  125.0630  123.8720   57.7410 C   0  0  0  0  0  0  0  0  0  0  0  0
  125.3770  123.0870   56.6360 C   0  0  0  0  0  0  0  0  0  0  0  0
  126.5180  122.2940   56.6390 C   0  0  0  0  0  0  0  0  0  0  0  0
  127.3510  122.2870   57.7540 C   0  0  0  0  0  0  0  0  0  0  0  0
  128.8660  122.0280   60.3330 C   0  0  0  0  0  0  0  0  0  0  0  0
  129.6980  122.0410   61.4640 C   0  0  0  0  0  0  0  0  0  0  0  0
  130.6800  120.8800   61.6660 C   0  0  0  0  0  0  0  0  0  0  0  0
  130.5750  120.3090   62.8670 F   0  0  0  0  0  0  0  0  0  0  0  0
  130.4530  119.9360   60.7530 F   0  0  0  0  0  0  0  0  0  0  0  0
  131.9320  121.3210   61.5410 F   0  0  0  0  0  0  0  0  0  0  0  0
  129.5710  123.1440   62.3550 C   0  0  0  0  0  0  0  0  0  0  0  0
  1  2  1  0
  2  3  2  0
  3  4  1  0
  4  5  2  0
  4  6  1  0
  6  7  1  0
  7  8  2  0
  8  9  1  0
  9 10  2  0
 10 11  1  0
  3 12  1  0
 12 13  1  0
 13 14  2  0
 14 15  1  0
 15 16  1  0
 16 17  2  0
 17 18  1  0
 18 19  2  0
 19 20  1  0
 20 21  2  0
 15 22  2  0
 22 23  1  0
 23 24  1  0
 24 25  1  0
 24 26  1  0
 24 27  1  0
 23 28  2  0
 28  2  1  0
 11  7  1  0
 28 13  1  0
 21 16  1  0
M  END
>  <Binding energies>  (142) 
[-6.85]

>  <Ligand effiencies>  (142) 
[-0.22096774193548385]

>  <Interactions>  (142) 
["V-B:PRO:540:CB:9857, V-B:MET:535:CE:9807, V-B:TYR:539:CD2:9846, V-B:PRO:540:N:9856, V-A:LEU:475:CD1:4257, V-B:PRO:540:CA:9855, V-B:ALA:541:CB:9864, V-B:TYR:539:C:9839, V-B:TYR:531:CE2:9765, V-B:LEU:363:CD1:8160, H-A:TYR:484:OH:4347, V-B:PRO:540:CD:9859, V-A:GLU:543:C:4902, V-B:HIS:456:CE1:9041, V-A:TYR:484:CZ:4346, V-A:HIS:456:CE1:4069, V-B:GLU:543:CB:9878, V-B:GLU:543:CG:9879, V-B:GLU:543:CD:9880, H-B:GLU:543:OE2:9882, V-A:GLU:543:CB:4906, H-A:GLU:543:OE1:4909, V-B:ALA:541:CA:9862"]

$$$$
4ck_Grossjean_2025
     RDKit          3D

 33 35  0  0  0  0  0  0  0  0999 V2000
  132.1850  129.4840   57.3850 C   0  0  0  0  0  0  0  0  0  0  0  0
  130.7730  129.5530   57.2600 O   0  0  0  0  0  0  0  0  0  0  0  0
  130.2320  130.8090   57.6450 C   0  0  0  0  0  0  0  0  0  0  0  0
  130.9350  131.9200   56.8550 C   0  0  0  0  0  0  0  0  0  0  0  0
  129.9800  132.5860   56.0410 O   0  0  0  0  0  0  0  0  0  0  0  0
  129.7360  131.9330   54.8020 C   0  0  0  0  0  0  0  0  0  0  0  0
  128.2660  131.4960   54.7450 C   0  0  0  0  0  0  0  0  0  0  0  0
  128.2150  130.0910   54.5380 O   0  0  0  0  0  0  0  0  0  0  0  0
  129.4920  129.4860   54.3810 C   0  0  0  0  0  0  0  0  0  0  0  0
  129.3590  127.9610   54.5090 C   0  0  0  0  0  0  0  0  0  0  0  0
  129.8480  127.4720   55.7980 N   0  0  0  0  0  0  0  0  0  0  0  0
  130.8160  126.5490   55.9770 C   0  0  0  0  0  0  0  0  0  0  0  0
  131.4230  126.0300   55.0380 O   0  0  0  0  0  0  0  0  0  0  0  0
  131.1190  126.2010   57.3660 C   0  0  0  0  0  0  0  0  0  0  0  0
  130.2010  126.9320   58.6800 S   0  0  0  0  0  0  0  0  0  0  0  0
  131.0850  126.0060   59.8690 C   0  0  0  0  0  0  0  0  0  0  0  0
  130.8310  126.1220   61.1700 N   0  0  0  0  0  0  0  0  0  0  0  0
  131.5700  125.3620   62.0200 C   0  0  0  0  0  0  0  0  0  0  0  0
  131.2460  125.5030   63.4790 C   0  0  0  0  0  0  0  0  0  0  0  0
  132.2670  125.6520   64.4320 C   0  0  0  0  0  0  0  0  0  0  0  0
  131.9730  125.7810   65.7870 C   0  0  0  0  0  0  0  0  0  0  0  0
  130.6480  125.7630   66.2100 C   0  0  0  0  0  0  0  0  0  0  0  0
  129.6170  125.6220   65.2880 C   0  0  0  0  0  0  0  0  0  0  0  0
  129.9150  125.4950   63.9330 C   0  0  0  0  0  0  0  0  0  0  0  0
  132.5550  124.4830   61.5580 C   0  0  0  0  0  0  0  0  0  0  0  0
  132.8320  124.3530   60.1880 C   0  0  0  0  0  0  0  0  0  0  0  0
  133.9280  123.3730   59.7510 C   0  0  0  0  0  0  0  0  0  0  0  0
  134.7770  123.8970   58.8660 F   0  0  0  0  0  0  0  0  0  0  0  0
  134.6410  122.9920   60.8110 F   0  0  0  0  0  0  0  0  0  0  0  0
  133.3730  122.3010   59.1860 F   0  0  0  0  0  0  0  0  0  0  0  0
  132.0650  125.1470   59.2890 C   0  0  0  0  0  0  0  0  0  0  0  0
  132.0550  125.2750   57.8510 C   0  0  0  0  0  0  0  0  0  0  0  0
  132.8920  124.5570   57.0360 N   0  0  0  0  0  0  0  0  0  0  0  0
  1  2  1  0
  2  3  1  0
  3  4  1  0
  4  5  1  0
  5  6  1  0
  6  7  1  0
  7  8  1  0
  8  9  1  0
  9 10  1  0
 10 11  1  0
 11 12  1  0
 12 13  2  0
 12 14  1  0
 14 15  1  0
 15 16  1  0
 16 17  2  0
 17 18  1  0
 18 19  1  0
 19 20  2  0
 20 21  1  0
 21 22  2  0
 22 23  1  0
 23 24  2  0
 18 25  2  0
 25 26  1  0
 26 27  1  0
 27 28  1  0
 27 29  1  0
 27 30  1  0
 26 31  2  0
 31 32  1  0
 32 33  1  0
 32 14  2  0
 31 16  1  0
 24 19  1  0
M  END
>  <Binding energies>  (143) 
[-6.27]

>  <Ligand effiencies>  (143) 
[-0.17416666666666666]

>  <Interactions>  (143) 
["V-A:ILE:369:CG2:3236, V-B:TYR:539:CE2:9848, V-A:ASP:366:CG:3212, V-A:PRO:540:N:4884, V-A:ILE:538:CA:4860, V-A:ASP:366:CA:3209, V-A:ASP:366:CB:3211, V-A:ILE:538:CG2:4863, V-A:ASP:366:C:3207, H-B:TYR:539:OH:9850, V-A:TYR:539:CE2:4876, V-A:PRO:540:CA:4883, H-A:TYR:531:OH:4795, H-A:TYR:539:N:4870, V-A:TYR:539:CZ:4877, V-A:TYR:539:CE1:4875, V-A:ILE:538:CB:4862, H-B:LYS:534:NZ:9795, V-A:PRO:540:CD:4887, V-A:TYR:539:C:4867, V-A:ILE:369:CD1:3238, V-B:TYR:539:CZ:9849, V-A:ILE:369:CB:3235, V-B:GLU:543:CG:9879, V-B:GLU:543:CD:9880, V-A:ARG:545:CZ:4926, V-A:ILE:369:CG1:3237, H-A:ASP:366:O:3208"]

$$$$
4dd_Grossjean_2025
     RDKit          3D

 26 29  0  0  0  0  0  0  0  0999 V2000
  130.3290  120.8080   61.9720 C   0  0  0  0  0  0  0  0  0  0  0  0
  129.4540  122.0220   61.6990 C   0  0  0  0  0  0  0  0  0  0  0  0
  128.6620  122.0200   60.5440 C   0  0  0  0  0  0  0  0  0  0  0  0
  127.8350  123.1070   60.2360 C   0  0  0  0  0  0  0  0  0  0  0  0
  126.9810  123.1340   59.0030 C   0  0  0  0  0  0  0  0  0  0  0  0
  127.3240  122.3730   57.8730 C   0  0  0  0  0  0  0  0  0  0  0  0
  126.5340  122.3910   56.7260 C   0  0  0  0  0  0  0  0  0  0  0  0
  125.3870  123.1760   56.6920 C   0  0  0  0  0  0  0  0  0  0  0  0
  125.0220  123.9380   57.7960 C   0  0  0  0  0  0  0  0  0  0  0  0
  125.8140  123.9150   58.9420 C   0  0  0  0  0  0  0  0  0  0  0  0
  127.7710  124.2100   61.0310 N   0  0  0  0  0  0  0  0  0  0  0  0
  128.5190  124.2100   62.1340 C   0  0  0  0  0  0  0  0  0  0  0  0
  128.5190  125.5540   63.2540 S   0  0  0  0  0  0  0  0  0  0  0  0
  129.6820  124.7400   64.3030 C   0  0  0  0  0  0  0  0  0  0  0  0
  130.1360  125.3780   65.5410 C   0  0  0  0  0  0  0  0  0  0  0  0
  131.3380  125.4650   65.7980 O   0  0  0  0  0  0  0  0  0  0  0  0
  129.1530  125.8520   66.3450 N   0  0  0  0  0  0  0  0  0  0  0  0
  129.2450  126.4610   67.6090 C   0  0  0  0  0  0  0  0  0  0  0  0
  128.6850  125.7470   68.6730 C   0  0  0  0  0  0  0  0  0  0  0  0
  128.7370  126.2580   69.9670 C   0  0  0  0  0  0  0  0  0  0  0  0
  129.3580  127.4830   70.2000 C   0  0  0  0  0  0  0  0  0  0  0  0
  129.9300  128.1980   69.1520 C   0  0  0  0  0  0  0  0  0  0  0  0
  129.8790  127.6900   67.8570 C   0  0  0  0  0  0  0  0  0  0  0  0
  130.0420  123.4870   63.7830 C   0  0  0  0  0  0  0  0  0  0  0  0
  130.9340  122.6370   64.3880 N   0  0  0  0  0  0  0  0  0  0  0  0
  129.3870  123.1600   62.5440 C   0  0  0  0  0  0  0  0  0  0  0  0
  1  2  1  0
  2  3  2  0
  3  4  1  0
  4  5  1  0
  5  6  2  0
  6  7  1  0
  7  8  2  0
  8  9  1  0
  9 10  2  0
  4 11  2  0
 11 12  1  0
 12 13  1  0
 13 14  1  0
 14 15  1  0
 15 16  2  0
 15 17  1  0
 17 18  1  0
 18 19  2  0
 19 20  1  0
 20 21  2  0
 21 22  1  0
 22 23  2  0
 14 24  2  0
 24 25  1  0
 24 26  1  0
 26  2  1  0
 10  5  1  0
 26 12  2  0
 23 18  1  0
M  END
>  <Binding energies>  (144) 
[-7.92]

>  <Ligand effiencies>  (144) 
[-0.2731034482758621]

>  <Interactions>  (144) 
["V-B:PRO:540:CB:9857, V-B:MET:535:CE:9807, V-B:PRO:540:N:9856, V-A:LEU:475:CD1:4257, V-B:PRO:540:CA:9855, V-B:PRO:540:C:9853, V-B:ALA:541:CB:9864, V-B:TYR:539:C:9839, V-B:TYR:531:CE2:9765, V-B:LEU:363:CD1:8160, H-A:TYR:484:OH:4347, V-B:PRO:540:CD:9859, V-A:GLU:543:CD:4908, V-A:GLU:543:C:4902, V-B:HIS:456:CE1:9041, V-A:TYR:484:CZ:4346, V-A:HIS:456:CE1:4069, V-B:GLU:543:CB:9878, V-B:GLU:543:CG:9879, V-B:GLU:543:CD:9880, H-B:GLU:543:OE2:9882, V-A:GLU:543:CB:4906, V-A:TYR:484:CE2:4345, V-B:GLU:543:CA:9876, V-B:GLU:543:C:9874"]

$$$$
4dg_Grossjean_2025
     RDKit          3D

 27 30  0  0  0  0  0  0  0  0999 V2000
  132.8600  124.2790   58.7890 C   0  0  0  0  0  0  0  0  0  0  0  0
  131.5180  124.1350   59.4910 C   0  0  0  0  0  0  0  0  0  0  0  0
  130.4030  123.7890   58.7190 C   0  0  0  0  0  0  0  0  0  0  0  0
  129.1400  123.6400   59.3040 C   0  0  0  0  0  0  0  0  0  0  0  0
  127.9260  123.2680   58.5020 C   0  0  0  0  0  0  0  0  0  0  0  0
  126.6690  123.8210   58.7970 C   0  0  0  0  0  0  0  0  0  0  0  0
  125.5390  123.4750   58.0590 C   0  0  0  0  0  0  0  0  0  0  0  0
  125.6500  122.5690   57.0110 C   0  0  0  0  0  0  0  0  0  0  0  0
  126.8820  122.0020   56.6980 C   0  0  0  0  0  0  0  0  0  0  0  0
  128.0080  122.3500   57.4390 C   0  0  0  0  0  0  0  0  0  0  0  0
  128.9450  123.8070   60.6410 N   0  0  0  0  0  0  0  0  0  0  0  0
  130.0050  124.1380   61.3770 C   0  0  0  0  0  0  0  0  0  0  0  0
  129.8920  124.3880   63.1030 S   0  0  0  0  0  0  0  0  0  0  0  0
  131.6150  124.7470   63.2080 C   0  0  0  0  0  0  0  0  0  0  0  0
  132.2120  125.1140   64.4910 C   0  0  0  0  0  0  0  0  0  0  0  0
  133.2520  124.5870   64.8900 O   0  0  0  0  0  0  0  0  0  0  0  0
  131.5340  126.0280   65.2170 N   0  0  0  0  0  0  0  0  0  0  0  0
  131.9520  126.5590   66.5140 C   0  0  0  0  0  0  0  0  0  0  0  0
  130.7990  126.7410   67.4940 C   0  0  0  0  0  0  0  0  0  0  0  0
  129.8990  125.6930   67.7100 C   0  0  0  0  0  0  0  0  0  0  0  0
  128.8640  125.8450   68.6280 C   0  0  0  0  0  0  0  0  0  0  0  0
  128.7370  127.0390   69.3340 C   0  0  0  0  0  0  0  0  0  0  0  0
  129.6390  128.0810   69.1360 C   0  0  0  0  0  0  0  0  0  0  0  0
  130.6760  127.9300   68.2190 C   0  0  0  0  0  0  0  0  0  0  0  0
  132.2260  124.6860   61.9470 C   0  0  0  0  0  0  0  0  0  0  0  0
  133.5580  124.9340   61.7320 N   0  0  0  0  0  0  0  0  0  0  0  0
  131.3270  124.3260   60.8830 C   0  0  0  0  0  0  0  0  0  0  0  0
  1  2  1  0
  2  3  2  0
  3  4  1  0
  4  5  1  0
  5  6  2  0
  6  7  1  0
  7  8  2  0
  8  9  1  0
  9 10  2  0
  4 11  2  0
 11 12  1  0
 12 13  1  0
 13 14  1  0
 14 15  1  0
 15 16  2  0
 15 17  1  0
 17 18  1  0
 18 19  1  0
 19 20  2  0
 20 21  1  0
 21 22  2  0
 22 23  1  0
 23 24  2  0
 14 25  2  0
 25 26  1  0
 25 27  1  0
 27  2  1  0
 10  5  1  0
 27 12  2  0
 24 19  1  0
M  END
>  <Binding energies>  (145) 
[-8.09]

>  <Ligand effiencies>  (145) 
[-0.26966666666666667]

>  <Interactions>  (145) 
["V-B:PRO:540:CB:9857, V-B:MET:535:CE:9807, V-B:TYR:539:CD2:9846, V-B:PRO:540:N:9856, V-B:PRO:540:CA:9855, V-B:TYR:539:CE2:9848, V-B:TYR:539:C:9839, V-B:LEU:363:CD1:8160, V-B:TYR:539:CA:9841, H-A:TYR:484:OH:4347, V-A:ASP:366:CG:3212, H-A:GLY:454:N:4049, V-B:PRO:540:CD:9859, V-A:ASP:366:CA:3209, V-A:ASP:366:CB:3211, V-A:GLU:543:CG:4907, V-A:GLU:543:CD:4908, H-A:ASP:366:OD2:3214, V-B:TYR:539:CZ:9849, V-A:GLU:543:C:4902, V-B:TYR:539:CG:9844, V-B:HIS:456:CE1:9041, V-A:HIS:456:CE1:4069, V-B:GLU:543:CB:9878, V-A:ARG:545:CG:4922, V-A:GLU:543:CB:4906, V-A:TYR:484:CE2:4345, V-B:GLU:543:C:9874, H-A:GLU:543:OE1:4909, H-A:ASP:366:OD1:3213"]

$$$$
4dj_Grossjean_2025
     RDKit          3D

 25 28  0  0  0  0  0  0  0  0999 V2000
  130.3680  120.8030   62.0200 C   0  0  0  0  0  0  0  0  0  0  0  0
  129.4930  122.0170   61.7430 C   0  0  0  0  0  0  0  0  0  0  0  0
  128.7040  122.0110   60.5870 C   0  0  0  0  0  0  0  0  0  0  0  0
  127.8790  123.0980   60.2730 C   0  0  0  0  0  0  0  0  0  0  0  0
  127.0160  123.1170   59.0430 C   0  0  0  0  0  0  0  0  0  0  0  0
  127.3680  122.3740   57.9050 C   0  0  0  0  0  0  0  0  0  0  0  0
  126.5740  122.3870   56.7620 C   0  0  0  0  0  0  0  0  0  0  0  0
  125.4120  123.1510   56.7390 C   0  0  0  0  0  0  0  0  0  0  0  0
  125.0410  123.9000   57.8500 C   0  0  0  0  0  0  0  0  0  0  0  0
  125.8380  123.8830   58.9910 C   0  0  0  0  0  0  0  0  0  0  0  0
  127.7950  124.1920   61.0780 N   0  0  0  0  0  0  0  0  0  0  0  0
  128.5470  124.2000   62.1780 C   0  0  0  0  0  0  0  0  0  0  0  0
  128.5420  125.5450   63.2970 S   0  0  0  0  0  0  0  0  0  0  0  0
  129.7170  124.7420   64.3410 C   0  0  0  0  0  0  0  0  0  0  0  0
  130.1910  125.3970   65.5610 C   0  0  0  0  0  0  0  0  0  0  0  0
  131.3850  125.3600   65.8730 O   0  0  0  0  0  0  0  0  0  0  0  0
  129.2380  126.0180   66.2980 N   0  0  0  0  0  0  0  0  0  0  0  0
  129.4210  126.7050   67.4900 C   0  0  0  0  0  0  0  0  0  0  0  0
  130.3970  127.5300   67.8050 N   0  0  0  0  0  0  0  0  0  0  0  0
  130.2520  128.0060   69.0270 C   0  0  0  0  0  0  0  0  0  0  0  0
  129.1360  127.5670   69.7310 C   0  0  0  0  0  0  0  0  0  0  0  0
  128.2320  126.4700   68.7300 S   0  0  0  0  0  0  0  0  0  0  0  0
  130.0830  123.4910   63.8210 C   0  0  0  0  0  0  0  0  0  0  0  0
  130.9830  122.6480   64.4230 N   0  0  0  0  0  0  0  0  0  0  0  0
  129.4250  123.1560   62.5870 C   0  0  0  0  0  0  0  0  0  0  0  0
  1  2  1  0
  2  3  2  0
  3  4  1  0
  4  5  1  0
  5  6  2  0
  6  7  1  0
  7  8  2  0
  8  9  1  0
  9 10  2  0
  4 11  2  0
 11 12  1  0
 12 13  1  0
 13 14  1  0
 14 15  1  0
 15 16  2  0
 15 17  1  0
 17 18  1  0
 18 19  2  0
 19 20  1  0
 20 21  2  0
 21 22  1  0
 14 23  2  0
 23 24  1  0
 23 25  1  0
 25  2  1  0
 10  5  1  0
 25 12  2  0
 22 18  1  0
M  END
>  <Binding energies>  (146) 
[-7.32]

>  <Ligand effiencies>  (146) 
[-0.26142857142857145]

>  <Interactions>  (146) 
["V-B:PRO:540:CB:9857, V-B:MET:535:CE:9807, V-B:PRO:540:N:9856, V-A:LEU:475:CD1:4257, V-B:PRO:540:CA:9855, V-B:PRO:540:C:9853, V-B:ALA:541:CB:9864, V-B:TYR:539:C:9839, V-B:TYR:531:CE2:9765, V-B:LEU:363:CD1:8160, H-A:TYR:484:OH:4347, V-B:PRO:540:CD:9859, V-A:GLU:543:C:4902, V-B:HIS:456:CE1:9041, V-A:TYR:484:CZ:4346, V-A:HIS:456:CE1:4069, V-B:GLU:543:CB:9878, V-B:GLU:543:CG:9879, V-B:GLU:543:CD:9880, H-B:GLU:543:OE2:9882, V-A:GLU:543:CB:4906, V-A:TYR:484:CE2:4345"]

$$$$
4ea_Grossjean_2025
     RDKit          3D

 31 34  0  0  0  0  0  0  0  0999 V2000
  124.9760  125.6500   58.1190 C   0  0  0  0  0  0  0  0  0  0  0  0
  124.4160  124.2750   57.7400 C   0  0  0  0  0  0  0  0  0  0  0  0
  125.2340  123.6940   56.7340 O   0  0  0  0  0  0  0  0  0  0  0  0
  126.1500  122.7390   57.0390 C   0  0  0  0  0  0  0  0  0  0  0  0
  126.1920  121.6350   56.4850 O   0  0  0  0  0  0  0  0  0  0  0  0
  127.1080  123.1580   58.1170 C   0  0  0  0  0  0  0  0  0  0  0  0
  126.6410  123.2920   59.4310 C   0  0  0  0  0  0  0  0  0  0  0  0
  127.5030  123.6790   60.4520 C   0  0  0  0  0  0  0  0  0  0  0  0
  128.8470  123.9400   60.1840 C   0  0  0  0  0  0  0  0  0  0  0  0
  129.6240  124.3240   61.2940 N   0  0  0  0  0  0  0  0  0  0  0  0
  129.5600  125.4350   62.0690 C   0  0  0  0  0  0  0  0  0  0  0  0
  128.7500  126.3470   61.9080 O   0  0  0  0  0  0  0  0  0  0  0  0
  130.5450  125.4960   63.1530 C   0  0  0  0  0  0  0  0  0  0  0  0
  132.2370  125.0960   62.8470 S   0  0  0  0  0  0  0  0  0  0  0  0
  132.6610  125.4030   64.5150 C   0  0  0  0  0  0  0  0  0  0  0  0
  133.9110  125.2640   64.9620 N   0  0  0  0  0  0  0  0  0  0  0  0
  134.1070  125.5330   66.2760 C   0  0  0  0  0  0  0  0  0  0  0  0
  135.5350  125.3690   66.7620 C   0  0  0  0  0  0  0  0  0  0  0  0
  133.0950  125.9330   67.1450 C   0  0  0  0  0  0  0  0  0  0  0  0
  131.7860  126.0770   66.6730 C   0  0  0  0  0  0  0  0  0  0  0  0
  130.7210  126.5020   67.6090 C   0  0  0  0  0  0  0  0  0  0  0  0
  129.6840  125.6240   67.9390 C   0  0  0  0  0  0  0  0  0  0  0  0
  128.6830  126.0230   68.8210 C   0  0  0  0  0  0  0  0  0  0  0  0
  128.7170  127.3030   69.3700 C   0  0  0  0  0  0  0  0  0  0  0  0
  129.7420  128.1870   69.0440 C   0  0  0  0  0  0  0  0  0  0  0  0
  130.7420  127.7870   68.1620 C   0  0  0  0  0  0  0  0  0  0  0  0
  131.5380  125.8040   65.2990 C   0  0  0  0  0  0  0  0  0  0  0  0
  130.3430  125.8490   64.4970 C   0  0  0  0  0  0  0  0  0  0  0  0
  129.1250  126.2070   65.0170 N   0  0  0  0  0  0  0  0  0  0  0  0
  129.3240  123.8090   58.8700 C   0  0  0  0  0  0  0  0  0  0  0  0
  128.4600  123.4210   57.8490 C   0  0  0  0  0  0  0  0  0  0  0  0
  1  2  1  0
  2  3  1  0
  3  4  1  0
  4  5  2  0
  4  6  1  0
  6  7  2  0
  7  8  1  0
  8  9  2  0
  9 10  1  0
 10 11  1  0
 11 12  2  0
 11 13  1  0
 13 14  1  0
 14 15  1  0
 15 16  2  0
 16 17  1  0
 17 18  1  0
 17 19  2  0
 19 20  1  0
 20 21  1  0
 21 22  2  0
 22 23  1  0
 23 24  2  0
 24 25  1  0
 25 26  2  0
 20 27  2  0
 27 28  1  0
 28 29  1  0
  9 30  1  0
 30 31  2  0
 31  6  1  0
 28 13  2  0
 27 15  1  0
 26 21  1  0
M  END
>  <Binding energies>  (147) 
[-9.08]

>  <Ligand effiencies>  (147) 
[-0.2670588235294118]

>  <Interactions>  (147) 
["V-B:PRO:540:CB:9857, H-B:TYR:531:OH:9767, V-B:MET:535:CE:9807, V-B:PRO:540:N:9856, V-B:PRO:540:CA:9855, H-B:TYR:539:N:9842, V-B:TYR:531:CE2:9765, V-B:TYR:531:CZ:9766, V-B:LEU:363:CD1:8160, H-A:TYR:484:OH:4347, H-A:GLY:454:N:4049, V-B:ASP:366:CG:8184, V-B:ASP:366:CB:8183, V-A:GLU:543:CG:4907, V-A:GLU:543:CD:4908, V-B:LEU:363:CA:8156, H-A:ARG:545:NH2:4928, V-A:GLU:543:C:4902, V-B:HIS:456:CE1:9041, V-A:TYR:484:CZ:4346, V-A:HIS:456:CE1:4069, V-B:GLU:543:CB:9878, V-A:ARG:545:CD:4923, V-A:ILE:455:C:4051, V-B:GLU:543:CG:9879, H-B:GLU:543:OE1:9881, V-B:GLU:543:CD:9880, H-B:GLU:543:OE2:9882, H-A:ARG:545:NE:4924, V-A:ARG:545:CG:4922, V-A:ARG:545:CZ:4926, H-A:ARG:545:NH1:4927, V-A:GLU:543:CB:4906, V-A:TYR:484:CE2:4345, V-B:GLU:543:C:9874, H-A:GLU:543:OE1:4909, V-A:GLY:454:CA:4048, V-A:GLY:453:CA:4043, V-A:GLY:453:C:4041, V-A:GLY:454:C:4046, V-A:ILE:455:CA:4053, V-A:ARG:545:CB:4921"]

$$$$
4eb_Grossjean_2025
     RDKit          3D

 30 33  0  0  0  0  0  0  0  0999 V2000
  124.7290  124.3980   57.4310 C   0  0  0  0  0  0  0  0  0  0  0  0
  125.4620  123.6080   56.5050 O   0  0  0  0  0  0  0  0  0  0  0  0
  126.3380  122.6620   56.9340 C   0  0  0  0  0  0  0  0  0  0  0  0
  126.4930  121.5750   56.3710 O   0  0  0  0  0  0  0  0  0  0  0  0
  127.0980  123.0710   58.1630 C   0  0  0  0  0  0  0  0  0  0  0  0
  128.4530  123.4080   58.0480 C   0  0  0  0  0  0  0  0  0  0  0  0
  129.1850  123.7910   59.1680 C   0  0  0  0  0  0  0  0  0  0  0  0
  128.5800  123.8460   60.4240 C   0  0  0  0  0  0  0  0  0  0  0  0
  129.4170  124.2460   61.4840 N   0  0  0  0  0  0  0  0  0  0  0  0
  129.5240  125.4420   62.1150 C   0  0  0  0  0  0  0  0  0  0  0  0
  128.8540  126.4360   61.8350 O   0  0  0  0  0  0  0  0  0  0  0  0
  130.5170  125.4940   63.1900 C   0  0  0  0  0  0  0  0  0  0  0  0
  132.2140  125.1410   62.8560 S   0  0  0  0  0  0  0  0  0  0  0  0
  132.6500  125.4090   64.5280 C   0  0  0  0  0  0  0  0  0  0  0  0
  133.9070  125.2850   64.9580 N   0  0  0  0  0  0  0  0  0  0  0  0
  134.1110  125.5190   66.2760 C   0  0  0  0  0  0  0  0  0  0  0  0
  135.5490  125.3730   66.7430 C   0  0  0  0  0  0  0  0  0  0  0  0
  133.1000  125.8710   67.1670 C   0  0  0  0  0  0  0  0  0  0  0  0
  131.7830  126.0000   66.7120 C   0  0  0  0  0  0  0  0  0  0  0  0
  130.7180  126.3740   67.6710 C   0  0  0  0  0  0  0  0  0  0  0  0
  129.7840  125.4230   68.0900 C   0  0  0  0  0  0  0  0  0  0  0  0
  128.7830  125.7740   68.9940 C   0  0  0  0  0  0  0  0  0  0  0  0
  128.7170  127.0790   69.4760 C   0  0  0  0  0  0  0  0  0  0  0  0
  129.6420  128.0350   69.0620 C   0  0  0  0  0  0  0  0  0  0  0  0
  130.6410  127.6830   68.1590 C   0  0  0  0  0  0  0  0  0  0  0  0
  131.5260  125.7620   65.3340 C   0  0  0  0  0  0  0  0  0  0  0  0
  130.3230  125.8030   64.5460 C   0  0  0  0  0  0  0  0  0  0  0  0
  129.1030  126.1190   65.0880 N   0  0  0  0  0  0  0  0  0  0  0  0
  127.2230  123.5100   60.5500 C   0  0  0  0  0  0  0  0  0  0  0  0
  126.4930  123.1270   59.4280 C   0  0  0  0  0  0  0  0  0  0  0  0
  1  2  1  0
  2  3  1  0
  3  4  2  0
  3  5  1  0
  5  6  2  0
  6  7  1  0
  7  8  2  0
  8  9  1  0
  9 10  1  0
 10 11  2  0
 10 12  1  0
 12 13  1  0
 13 14  1  0
 14 15  2  0
 15 16  1  0
 16 17  1  0
 16 18  2  0
 18 19  1  0
 19 20  1  0
 20 21  2  0
 21 22  1  0
 22 23  2  0
 23 24  1  0
 24 25  2  0
 19 26  2  0
 26 27  1  0
 27 28  1  0
  8 29  1  0
 29 30  2  0
 30  5  1  0
 27 12  2  0
 26 14  1  0
 25 20  1  0
M  END
>  <Binding energies>  (148) 
[-8.76]

>  <Ligand effiencies>  (148) 
[-0.26545454545454544]

>  <Interactions>  (148) 
["V-B:PRO:540:CB:9857, H-B:TYR:531:OH:9767, V-B:MET:535:CE:9807, V-B:PRO:540:N:9856, V-B:PRO:540:CA:9855, H-B:TYR:539:N:9842, V-B:TYR:531:CE2:9765, V-B:TYR:531:CZ:9766, V-B:LEU:363:CD1:8160, H-A:TYR:484:OH:4347, H-A:GLY:454:N:4049, V-A:GLU:543:CD:4908, H-A:ARG:545:NH2:4928, V-A:GLU:543:C:4902, V-B:HIS:456:CE1:9041, V-A:TYR:484:CZ:4346, V-A:HIS:456:CE1:4069, V-B:GLU:543:CB:9878, V-A:ARG:545:CD:4923, V-A:ILE:455:C:4051, V-B:GLU:543:CG:9879, V-B:GLU:543:CD:9880, H-B:GLU:543:OE2:9882, H-A:ARG:545:NE:4924, V-A:ARG:545:CG:4922, V-A:ARG:545:CZ:4926, H-A:ARG:545:NH1:4927, V-A:GLU:543:CB:4906, V-A:TYR:484:CE2:4345, V-B:GLU:543:CA:9876, V-B:GLU:543:C:9874, H-A:GLU:543:OE1:4909, V-A:GLY:454:CA:4048, V-A:GLY:453:CA:4043, V-A:GLY:453:C:4041, V-A:GLY:454:C:4046, V-A:ILE:455:CA:4053, V-A:ARG:545:CB:4921"]

$$$$
8b_Ghoteimi_2023
     RDKit          3D

 34 38  0  0  0  0  0  0  0  0999 V2000
  130.0980  128.0100   69.5280 C   0  0  0  0  0  0  0  0  0  0  0  0
  131.1630  127.7030   68.6340 O   0  0  0  0  0  0  0  0  0  0  0  0
  130.8980  126.9600   67.5000 C   0  0  0  0  0  0  0  0  0  0  0  0
  129.5550  126.7510   67.1910 C   0  0  0  0  0  0  0  0  0  0  0  0
  129.1930  126.0140   66.0690 C   0  0  0  0  0  0  0  0  0  0  0  0
  130.1680  125.4630   65.2230 C   0  0  0  0  0  0  0  0  0  0  0  0
  129.7840  124.6680   64.0160 C   0  0  0  0  0  0  0  0  0  0  0  0
  130.5460  123.5790   63.5790 C   0  0  0  0  0  0  0  0  0  0  0  0
  130.1660  122.8510   62.4470 C   0  0  0  0  0  0  0  0  0  0  0  0
  131.0000  121.7100   62.0050 C   0  0  0  0  0  0  0  0  0  0  0  0
  130.4590  120.4240   61.9490 C   0  0  0  0  0  0  0  0  0  0  0  0
  131.2410  119.3540   61.5240 C   0  0  0  0  0  0  0  0  0  0  0  0
  132.5720  119.5510   61.1520 C   0  0  0  0  0  0  0  0  0  0  0  0
  133.2710  118.4320   60.7420 O   0  0  0  0  0  0  0  0  0  0  0  0
  134.3620  118.5860   59.8400 C   0  0  0  0  0  0  0  0  0  0  0  0
  133.1140  120.8440   61.2140 C   0  0  0  0  0  0  0  0  0  0  0  0
  132.3310  121.9140   61.6380 C   0  0  0  0  0  0  0  0  0  0  0  0
  128.9840  123.2460   61.7650 C   0  0  0  0  0  0  0  0  0  0  0  0
  128.3120  122.7320   60.5990 C   0  0  0  0  0  0  0  0  0  0  0  0
  128.7810  121.6510   59.8980 N   0  0  0  0  0  0  0  0  0  0  0  0
  127.1460  123.4360   60.2600 C   0  0  0  0  0  0  0  0  0  0  0  0
  126.2230  123.1890   59.1500 C   0  0  0  0  0  0  0  0  0  0  0  0
  125.0110  123.3770   59.2850 O   0  0  0  0  0  0  0  0  0  0  0  0
  126.7980  122.7480   58.0020 N   0  0  0  0  0  0  0  0  0  0  0  0
  126.1660  122.4410   56.8040 C   0  0  0  0  0  0  0  0  0  0  0  0
  125.4570  123.3790   56.0560 C   0  0  0  0  0  0  0  0  0  0  0  0
  124.9900  122.6850   54.9620 C   0  0  0  0  0  0  0  0  0  0  0  0
  125.4010  121.3980   55.0460 O   0  0  0  0  0  0  0  0  0  0  0  0
  126.1470  121.2550   56.2170 N   0  0  0  0  0  0  0  0  0  0  0  0
  126.8500  124.7610   61.3870 S   0  0  0  0  0  0  0  0  0  0  0  0
  128.2860  124.3650   62.3020 C   0  0  0  0  0  0  0  0  0  0  0  0
  128.6490  125.0610   63.3790 N   0  0  0  0  0  0  0  0  0  0  0  0
  131.5160  125.6790   65.5380 C   0  0  0  0  0  0  0  0  0  0  0  0
  131.8820  126.4160   66.6610 C   0  0  0  0  0  0  0  0  0  0  0  0
  1  2  1  0
  2  3  1  0
  3  4  2  0
  4  5  1  0
  5  6  2  0
  6  7  1  0
  7  8  2  0
  8  9  1  0
  9 10  1  0
 10 11  2  0
 11 12  1  0
 12 13  2  0
 13 14  1  0
 14 15  1  0
 13 16  1  0
 16 17  2  0
  9 18  2  0
 18 19  1  0
 19 20  1  0
 19 21  2  0
 21 22  1  0
 22 23  2  0
 22 24  1  0
 24 25  1  0
 25 26  1  0
 26 27  2  0
 27 28  1  0
 28 29  1  0
 21 30  1  0
 30 31  1  0
 31 32  2  0
  6 33  1  0
 33 34  2  0
 34  3  1  0
 32  7  1  0
 17 10  1  0
 31 18  1  0
 29 25  2  0
M  END
>  <Binding energies>  (149) 
[-9.12]

>  <Ligand effiencies>  (149) 
[-0.24648648648648647]

>  <Interactions>  (149) 
["V-B:PRO:540:CB:9857, V-B:MET:535:CE:9807, V-A:ILE:369:CG2:3236, V-B:TYR:539:CD2:9846, V-B:PRO:540:N:9856, V-A:LEU:475:CD1:4257, V-B:PRO:540:CA:9855, V-B:PRO:540:C:9853, H-A:SER:385:OG:3409, H-A:HIS:383:NE2:3393, H-B:TYR:539:N:9842, V-B:ALA:541:CB:9864, V-B:MET:535:CG:9805, V-B:TYR:539:C:9839, V-B:TYR:531:CE2:9765, V-B:TYR:531:CZ:9766, V-B:LEU:363:CD1:8160, V-B:PRO:540:CD:9859, V-A:GLU:543:CD:4908, V-A:SER:385:CA:3406, H-B:TYR:539:O:9840, V-A:SER:385:C:3404, V-A:SER:385:CB:3408, V-A:GLU:543:C:4902, V-A:HIS:456:CE1:4069, V-B:GLU:543:CB:9878, V-B:GLU:543:CG:9879, V-B:GLU:543:CD:9880, V-A:ARG:545:CG:4922, V-A:GLU:543:CB:4906, V-B:ILE:538:CG1:9836, V-A:HIS:383:CD2:3391, V-B:MET:535:CB:9804, H-A:HIS:456:ND1:4066"]

$$$$
9d_Ghoteimi_2023
     RDKit          3D

 38 43  0  0  0  0  0  0  0  0999 V2000
  124.0540  129.9560   63.3430 C   0  0  0  0  0  0  0  0  0  0  0  0
  124.6090  130.6320   64.4630 O   0  0  0  0  0  0  0  0  0  0  0  0
  125.9460  130.8590   64.5460 C   0  0  0  0  0  0  0  0  0  0  0  0
  126.4560  131.9820   64.5440 O   0  0  0  0  0  0  0  0  0  0  0  0
  126.7380  129.6120   64.6350 C   0  0  0  0  0  0  0  0  0  0  0  0
  127.0530  128.6660   63.1810 S   0  0  0  0  0  0  0  0  0  0  0  0
  127.9850  127.5020   64.0930 C   0  0  0  0  0  0  0  0  0  0  0  0
  128.5740  126.4630   63.5020 N   0  0  0  0  0  0  0  0  0  0  0  0
  129.2900  125.6260   64.2970 C   0  0  0  0  0  0  0  0  0  0  0  0
  129.9630  124.4820   63.6080 C   0  0  0  0  0  0  0  0  0  0  0  0
  131.3560  124.4500   63.4820 C   0  0  0  0  0  0  0  0  0  0  0  0
  131.9920  123.3910   62.8400 C   0  0  0  0  0  0  0  0  0  0  0  0
  131.2580  122.3160   62.3120 C   0  0  0  0  0  0  0  0  0  0  0  0
  131.8820  121.2530   61.6500 N   0  0  0  0  0  0  0  0  0  0  0  0
  133.3090  120.9410   61.8710 C   0  0  0  0  0  0  0  0  0  0  0  0
  133.9080  119.9830   60.8210 C   0  0  0  0  0  0  0  0  0  0  0  0
  133.1340  118.7980   60.7470 O   0  0  0  0  0  0  0  0  0  0  0  0
  131.7970  119.0750   60.3640 C   0  0  0  0  0  0  0  0  0  0  0  0
  131.1300  120.0060   61.3990 C   0  0  0  0  0  0  0  0  0  0  0  0
  129.8610  122.3610   62.4280 C   0  0  0  0  0  0  0  0  0  0  0  0
  129.2250  123.4220   63.0670 C   0  0  0  0  0  0  0  0  0  0  0  0
  129.3870  125.8090   65.6780 C   0  0  0  0  0  0  0  0  0  0  0  0
  128.7540  126.8880   66.3060 C   0  0  0  0  0  0  0  0  0  0  0  0
  128.8660  127.0210   67.7830 C   0  0  0  0  0  0  0  0  0  0  0  0
  128.2710  126.0850   68.6310 C   0  0  0  0  0  0  0  0  0  0  0  0
  128.3940  126.2030   70.0130 C   0  0  0  0  0  0  0  0  0  0  0  0
  129.1320  127.2540   70.5820 C   0  0  0  0  0  0  0  0  0  0  0  0
  129.2630  127.4000   71.9650 N   0  0  0  0  0  0  0  0  0  0  0  0
  129.2410  128.7550   72.5490 C   0  0  0  0  0  0  0  0  0  0  0  0
  129.0020  128.7580   74.0740 C   0  0  0  0  0  0  0  0  0  0  0  0
  129.9690  127.9440   74.7190 O   0  0  0  0  0  0  0  0  0  0  0  0
  129.9100  126.5990   74.2660 C   0  0  0  0  0  0  0  0  0  0  0  0
  130.1760  126.5440   72.7470 C   0  0  0  0  0  0  0  0  0  0  0  0
  129.7240  128.1880   69.7210 C   0  0  0  0  0  0  0  0  0  0  0  0
  129.5990  128.0700   68.3400 C   0  0  0  0  0  0  0  0  0  0  0  0
  128.0330  127.8010   65.4870 C   0  0  0  0  0  0  0  0  0  0  0  0
  127.3270  129.0250   65.7620 C   0  0  0  0  0  0  0  0  0  0  0  0
  127.2560  129.5790   67.0140 N   0  0  0  0  0  0  0  0  0  0  0  0
  1  2  1  0
  2  3  1  0
  3  4  2  0
  3  5  1  0
  5  6  1  0
  6  7  1  0
  7  8  2  0
  8  9  1  0
  9 10  1  0
 10 11  2  0
 11 12  1  0
 12 13  2  0
 13 14  1  0
 14 15  1  0
 15 16  1  0
 16 17  1  0
 17 18  1  0
 18 19  1  0
 13 20  1  0
 20 21  2  0
  9 22  2  0
 22 23  1  0
 23 24  1  0
 24 25  2  0
 25 26  1  0
 26 27  2  0
 27 28  1  0
 28 29  1  0
 29 30  1  0
 30 31  1  0
 31 32  1  0
 32 33  1  0
 27 34  1  0
 34 35  2  0
 23 36  2  0
 36 37  1  0
 37 38  1  0
 37  5  2  0
 36  7  1  0
 21 10  1  0
 35 24  1  0
 19 14  1  0
 33 28  1  0
M  END
>  <Binding energies>  (150) 
[-8.06]

>  <Ligand effiencies>  (150) 
[-0.2015]

>  <Interactions>  (150) 
["V-A:ILE:369:CG2:3236, V-B:TYR:539:CD2:9846, V-A:LEU:475:CD1:4257, H-A:SER:385:OG:3409, H-A:HIS:383:NE2:3393, V-B:ALA:541:CB:9864, V-B:ASP:366:CG:8184, H-B:GLY:454:N:9021, V-B:ARG:545:CZ:9898, V-A:GLU:543:CD:4908, H-B:TYR:484:OH:9319, V-A:SER:385:CA:3406, V-A:SER:385:C:3404, V-A:GLU:543:C:4902, V-B:HIS:456:CE1:9041, V-A:HIS:456:CE1:4069, V-B:GLU:543:CB:9878, V-B:GLU:543:CG:9879, V-B:GLU:543:CD:9880, V-A:GLU:543:CB:4906, V-B:TYR:484:CZ:9318, V-B:TYR:484:CE2:9317, V-B:GLU:543:CA:9876, V-B:GLU:543:C:9874, V-B:HIS:456:CD2:9039, H-A:LYS:547:NZ:4951, V-A:HIS:456:CG:4065, V-A:HIS:456:CD2:4067"]

$$$$
RR10_Rahimova_2017
     RDKit          3D

 34 38  0  0  0  0  0  0  0  0999 V2000
  132.1270  132.3900   56.2520 C   0  0  0  0  0  0  0  0  0  0  0  0
  130.6740  132.0860   55.8460 C   0  0  1  0  0  0  0  0  0  0  0  0
  130.6020  131.1130   54.6470 C   0  0  0  0  0  0  0  0  0  0  0  0
  129.1360  130.8490   54.2350 C   0  0  0  0  0  0  0  0  0  0  0  0
  128.2940  130.2780   55.4050 C   0  0  1  0  0  0  0  0  0  0  0  0
  128.7340  128.9190   55.7480 N   0  0  0  0  0  0  0  0  0  0  0  0
  129.2630  128.0300   54.8870 C   0  0  0  0  0  0  0  0  0  0  0  0
  129.4570  128.2820   53.6950 O   0  0  0  0  0  0  0  0  0  0  0  0
  129.6160  126.6390   55.4550 C   0  0  1  0  0  0  0  0  0  0  0  0
  130.9710  126.7190   56.2050 C   0  0  0  0  0  0  0  0  0  0  0  0
  131.2840  125.3490   56.8540 C   0  0  0  0  0  0  0  0  0  0  0  0
  130.1160  124.8240   57.7210 C   0  0  0  0  0  0  0  0  0  0  0  0
  128.8420  124.8400   56.9510 N   0  0  0  0  0  0  0  0  0  0  0  0
  127.5010  123.9870   57.7340 S   0  0  0  0  0  0  0  0  0  0  0  0
  127.9530  122.6280   58.0590 O   0  0  0  0  0  0  0  0  0  0  0  0
  126.2990  124.1900   56.9160 O   0  0  0  0  0  0  0  0  0  0  0  0
  127.2570  124.8360   59.2940 C   0  0  0  0  0  0  0  0  0  0  0  0
  127.4930  124.1520   60.4900 C   0  0  0  0  0  0  0  0  0  0  0  0
  127.3190  124.7550   61.7390 C   0  0  0  0  0  0  0  0  0  0  0  0
  126.8960  126.0870   61.7350 C   0  0  0  0  0  0  0  0  0  0  0  0
  126.6140  127.0000   62.7230 N   0  0  0  0  0  0  0  0  0  0  0  0
  126.2330  128.1780   62.1170 C   0  0  0  0  0  0  0  0  0  0  0  0
  125.8360  129.4130   62.8750 C   0  0  0  0  0  0  0  0  0  0  0  0
  124.9310  130.3270   62.3190 C   0  0  0  0  0  0  0  0  0  0  0  0
  124.5600  131.4700   63.0220 C   0  0  0  0  0  0  0  0  0  0  0  0
  125.0940  131.7060   64.2860 C   0  0  0  0  0  0  0  0  0  0  0  0
  125.9950  130.8080   64.8520 C   0  0  0  0  0  0  0  0  0  0  0  0
  126.3650  129.6650   64.1480 C   0  0  0  0  0  0  0  0  0  0  0  0
  126.2560  128.0870   60.8050 N   0  0  0  0  0  0  0  0  0  0  0  0
  126.6590  126.8050   60.5390 C   0  0  0  0  0  0  0  0  0  0  0  0
  126.8450  126.1740   59.3000 C   0  0  0  0  0  0  0  0  0  0  0  0
  128.4910  126.1790   56.4150 C   0  0  0  0  0  0  0  0  0  0  0  0
  128.3900  131.2560   56.6070 C   0  0  0  0  0  0  0  0  0  0  0  0
  129.8540  131.5150   57.0270 C   0  0  0  0  0  0  0  0  0  0  0  0
  2  1  1  1
  2  3  1  0
  3  4  1  0
  4  5  1  0
  5  6  1  1
  6  7  1  0
  7  8  2  0
  9  7  1  1
  9 10  1  0
 10 11  1  0
 11 12  1  0
 12 13  1  0
 13 14  1  0
 14 15  2  0
 14 16  2  0
 14 17  1  0
 17 18  2  0
 18 19  1  0
 19 20  2  0
 20 21  1  0
 21 22  1  0
 22 23  1  0
 23 24  2  0
 24 25  1  0
 25 26  2  0
 26 27  1  0
 27 28  2  0
 22 29  2  0
 29 30  1  0
 30 31  2  0
 13 32  1  0
  5 33  1  0
 33 34  1  0
 34  2  1  0
 32  9  1  0
 31 17  1  0
 30 20  1  0
 28 23  1  0
M  END
>  <Binding energies>  (151) 
[-9.77]

>  <Ligand effiencies>  (151) 
[-0.2713888888888889]

>  <Interactions>  (151) 
["H-B:TYR:531:OH:9767, V-B:MET:535:CE:9807, V-A:PRO:540:N:4884, V-A:ILE:538:CA:4860, V-A:ILE:538:CG2:4863, V-A:TYR:539:CD1:4873, V-A:PRO:540:CA:4883, H-A:TYR:531:OH:4795, V-A:TYR:539:CZ:4877, V-A:PRO:540:CB:4885, V-A:TYR:539:CE1:4875, V-A:TYR:531:CZ:4794, V-A:ILE:538:CB:4862, V-B:ASP:366:CG:8184, V-B:ARG:545:CZ:9898, V-A:PRO:540:CD:4887, V-A:LEU:363:CD1:3188, V-B:ILE:369:CD1:8210, V-B:GLY:454:CA:9020, V-B:TYR:539:CZ:9849, H-B:GLU:543:OE1:9881, V-B:GLU:543:CD:9880, H-B:GLU:543:OE2:9882, V-A:PRO:540:CG:4886, V-B:LEU:475:CD1:9229"]

$$$$
RR12_Rahimova_2017
     RDKit          3D

 26 28  0  0  0  0  0  0  0  0999 V2000
  126.6060  122.6990   57.1840 C   0  0  0  0  0  0  0  0  0  0  0  0
  128.0880  123.0270   57.4080 C   0  0  0  0  0  0  0  0  0  0  0  0
  128.3710  124.5400   57.3670 C   0  0  0  0  0  0  0  0  0  0  0  0
  129.7950  124.7950   57.1600 N   0  0  0  0  0  0  0  0  0  0  0  0
  130.3770  125.5830   56.1790 C   0  0  0  0  0  0  0  0  0  0  0  0
  129.5950  126.2990   55.0920 C   0  0  0  0  0  0  0  0  0  0  0  0
  129.3400  127.7790   55.4300 C   0  0  0  0  0  0  0  0  0  0  0  0
  129.4950  128.7040   54.2070 C   0  0  0  0  0  0  0  0  0  0  0  0
  129.5970  130.1220   54.5490 N   0  0  0  0  0  0  0  0  0  0  0  0
  128.5590  130.9750   54.6200 C   0  0  0  0  0  0  0  0  0  0  0  0
  127.3930  130.6410   54.3960 O   0  0  0  0  0  0  0  0  0  0  0  0
  128.9100  132.4170   55.0080 C   0  0  0  0  0  0  0  0  0  0  0  0
  130.3020  132.5020   55.3190 O   0  0  0  0  0  0  0  0  0  0  0  0
  130.7590  131.9940   56.5200 C   0  0  0  0  0  0  0  0  0  0  0  0
  132.0880  131.5650   56.5460 C   0  0  0  0  0  0  0  0  0  0  0  0
  132.6400  131.0410   57.7130 C   0  0  0  0  0  0  0  0  0  0  0  0
  131.8590  130.9460   58.8610 C   0  0  0  0  0  0  0  0  0  0  0  0
  130.5310  131.3670   58.8520 C   0  0  0  0  0  0  0  0  0  0  0  0
  129.9810  131.8900   57.6850 C   0  0  0  0  0  0  0  0  0  0  0  0
  131.6830  125.6400   56.2670 N   0  0  0  0  0  0  0  0  0  0  0  0
  131.9950  124.8850   57.3630 C   0  0  0  0  0  0  0  0  0  0  0  0
  133.2540  124.6160   57.9210 C   0  0  0  0  0  0  0  0  0  0  0  0
  133.3110  123.8120   59.0590 C   0  0  0  0  0  0  0  0  0  0  0  0
  132.1530  123.2850   59.6320 C   0  0  0  0  0  0  0  0  0  0  0  0
  130.8860  123.5330   59.1000 C   0  0  0  0  0  0  0  0  0  0  0  0
  130.8300  124.3400   57.9570 C   0  0  0  0  0  0  0  0  0  0  0  0
  1  2  1  0
  2  3  1  0
  3  4  1  0
  4  5  1  0
  5  6  1  0
  6  7  1  0
  7  8  1  0
  8  9  1  0
  9 10  1  0
 10 11  2  0
 10 12  1  0
 12 13  1  0
 13 14  1  0
 14 15  2  0
 15 16  1  0
 16 17  2  0
 17 18  1  0
 18 19  2  0
  5 20  2  0
 20 21  1  0
 21 22  2  0
 22 23  1  0
 23 24  2  0
 24 25  1  0
 25 26  2  0
 26  4  1  0
 19 14  1  0
 26 21  1  0
M  END
>  <Binding energies>  (152) 
[-7.66]

>  <Ligand effiencies>  (152) 
[-0.28370370370370374]

>  <Interactions>  (152) 
["V-B:MET:535:CE:9807, V-A:ILE:369:CG2:3236, V-B:PRO:540:N:9856, V-B:PRO:540:CA:9855, V-B:TYR:539:CE2:9848, V-A:ASP:366:CG:3212, V-A:PRO:540:N:4884, V-A:ILE:538:CA:4860, V-A:ASP:366:CA:3209, V-A:ASP:366:CB:3211, V-A:TYR:539:CG:4872, V-A:ILE:538:CG2:4863, V-A:ASP:366:C:3207, H-B:TYR:539:OH:9850, V-A:TYR:539:CD1:4873, V-A:TYR:539:CE2:4876, V-A:PRO:540:CA:4883, H-A:TYR:531:OH:4795, H-A:TYR:539:N:4870, V-A:TYR:539:CZ:4877, V-A:TYR:539:CD2:4874, V-A:PRO:540:CB:4885, V-A:TYR:539:CE1:4875, V-A:TYR:531:CZ:4794, V-A:ILE:538:CB:4862, H-B:LYS:534:NZ:9795, V-A:TYR:539:C:4867, V-A:LEU:363:CD1:3188, V-B:TYR:539:CZ:9849, H-A:TYR:539:OH:4878, V-A:ILE:538:C:4858"]

$$$$
RR13_Rahimova_2017
     RDKit          3D

 48 54  0  0  0  0  0  0  0  0999 V2000
  133.3310  131.0150   58.1220 Cl  0  0  0  0  0  0  0  0  0  0  0  0
  131.8850  130.8750   57.1800 C   0  0  0  0  0  0  0  0  0  0  0  0
  131.8490  131.5250   55.9440 C   0  0  0  0  0  0  0  0  0  0  0  0
  130.7070  131.4690   55.1490 C   0  0  0  0  0  0  0  0  0  0  0  0
  129.5900  130.7620   55.5870 C   0  0  0  0  0  0  0  0  0  0  0  0
  129.6190  130.1110   56.8190 C   0  0  0  0  0  0  0  0  0  0  0  0
  130.7650  130.1470   57.6290 C   0  0  0  0  0  0  0  0  0  0  0  0
  130.7620  129.4380   59.0020 C   0  0  1  0  0  0  0  0  0  0  0  0
  130.6940  130.4570   60.1490 C   0  0  0  0  0  0  0  0  0  0  0  0
  131.5660  130.6040   61.1220 N   0  0  0  0  0  0  0  0  0  0  0  0
  131.0700  131.6230   61.9280 N   0  0  0  0  0  0  0  0  0  0  0  0
  129.8650  132.0780   61.4300 N   0  0  0  0  0  0  0  0  0  0  0  0
  129.6430  131.3260   60.3460 N   0  0  0  0  0  0  0  0  0  0  0  0
  128.4600  131.5500   59.5230 C   0  0  0  0  0  0  0  0  0  0  0  0
  127.2430  130.8260   60.1290 C   0  0  0  0  0  0  0  0  0  0  0  0
  126.1850  130.5060   59.0840 C   0  0  0  0  0  0  0  0  0  0  0  0
  124.8660  130.9240   59.2770 C   0  0  0  0  0  0  0  0  0  0  0  0
  123.8970  130.6240   58.3230 C   0  0  0  0  0  0  0  0  0  0  0  0
  124.2510  129.9080   57.1810 C   0  0  0  0  0  0  0  0  0  0  0  0
  125.5640  129.4880   56.9840 C   0  0  0  0  0  0  0  0  0  0  0  0
  126.5340  129.7870   57.9380 C   0  0  0  0  0  0  0  0  0  0  0  0
  129.7260  128.3840   59.1200 N   0  0  0  0  0  0  0  0  0  0  0  0
  129.3810  128.1540   60.5350 C   0  0  0  0  0  0  0  0  0  0  0  0
  128.2090  127.1530   60.6590 C   0  0  0  0  0  0  0  0  0  0  0  0
  128.5740  125.8500   60.0790 N   0  0  0  0  0  0  0  0  0  0  0  0
  127.5090  124.8350   60.2490 C   0  0  1  0  0  0  0  0  0  0  0  0
  127.0630  124.1150   58.9580 C   0  0  0  0  0  0  0  0  0  0  0  0
  127.7200  122.9200   58.6320 C   0  0  0  0  0  0  0  0  0  0  0  0
  127.3720  122.1930   57.4940 C   0  0  0  0  0  0  0  0  0  0  0  0
  126.3610  122.6560   56.6570 C   0  0  0  0  0  0  0  0  0  0  0  0
  125.7070  123.8490   56.9540 C   0  0  0  0  0  0  0  0  0  0  0  0
  126.0510  124.5870   58.0900 C   0  0  0  0  0  0  0  0  0  0  0  0
  125.2270  126.0910   58.3340 Cl  0  0  0  0  0  0  0  0  0  0  0  0
  127.8230  123.8100   61.3410 C   0  0  0  0  0  0  0  0  0  0  0  0
  126.9400  123.2420   62.1300 N   0  0  0  0  0  0  0  0  0  0  0  0
  127.6590  122.3760   62.9470 N   0  0  0  0  0  0  0  0  0  0  0  0
  128.9990  122.4220   62.6220 N   0  0  0  0  0  0  0  0  0  0  0  0
  129.0740  123.2980   61.6140 N   0  0  0  0  0  0  0  0  0  0  0  0
  130.3680  123.6200   61.0200 C   0  0  0  0  0  0  0  0  0  0  0  0
  130.6900  122.6440   59.8740 C   0  0  0  0  0  0  0  0  0  0  0  0
  131.2580  121.3280   60.3830 C   0  0  0  0  0  0  0  0  0  0  0  0
  132.6410  121.1290   60.4100 C   0  0  0  0  0  0  0  0  0  0  0  0
  133.1610  119.9270   60.8830 C   0  0  0  0  0  0  0  0  0  0  0  0
  132.2970  118.9280   61.3260 C   0  0  0  0  0  0  0  0  0  0  0  0
  130.9160  119.1210   61.3020 C   0  0  0  0  0  0  0  0  0  0  0  0
  130.3960  120.3230   60.8300 C   0  0  0  0  0  0  0  0  0  0  0  0
  128.9130  126.0840   58.6640 C   0  0  0  0  0  0  0  0  0  0  0  0
  130.0920  127.0770   58.5470 C   0  0  0  0  0  0  0  0  0  0  0  0
  1  2  1  0
  2  3  2  0
  3  4  1  0
  4  5  2  0
  5  6  1  0
  6  7  2  0
  7  8  1  0
  8  9  1  0
  9 10  2  0
 10 11  1  0
 11 12  2  0
 12 13  1  0
 13 14  1  0
 14 15  1  0
 15 16  1  0
 16 17  2  0
 17 18  1  0
 18 19  2  0
 19 20  1  0
 20 21  2  0
  8 22  1  6
 22 23  1  0
 23 24  1  0
 24 25  1  0
 26 25  1  6
 26 27  1  0
 27 28  2  0
 28 29  1  0
 29 30  2  0
 30 31  1  0
 31 32  2  0
 32 33  1  0
 26 34  1  0
 34 35  2  0
 35 36  1  0
 36 37  2  0
 37 38  1  0
 38 39  1  0
 39 40  1  0
 40 41  1  0
 41 42  2  0
 42 43  1  0
 43 44  2  0
 44 45  1  0
 45 46  2  0
 25 47  1  0
 47 48  1  0
  7  2  1  0
 13  9  1  0
 21 16  1  0
 48 22  1  0
 32 27  1  0
 38 34  1  0
 46 41  1  0
M  END
>  <Binding energies>  (153) 
[-12.64]

>  <Ligand effiencies>  (153) 
[-0.26333333333333336]

>  <Interactions>  (153) 
["H-B:ALA:541:N:9863, V-B:MET:535:CE:9807, V-A:ILE:369:CG2:3236, V-B:TYR:539:CD2:9846, V-B:PRO:540:N:9856, V-A:LEU:475:CD1:4257, V-B:PRO:540:CA:9855, V-B:TYR:539:CE2:9848, V-B:TYR:539:C:9839, V-B:TYR:531:CE2:9765, V-B:TYR:531:CZ:9766, V-B:LEU:363:CD1:8160, V-A:ILE:538:CG2:4863, V-A:TYR:539:CD1:4873, V-A:PRO:540:CA:4883, V-A:TYR:539:CZ:4877, V-A:PRO:540:CB:4885, V-A:TYR:539:CE1:4875, V-A:ILE:538:CB:4862, V-B:ASP:366:CG:8184, V-B:TYR:531:CE1:9764, V-B:ASP:366:CB:8183, V-B:ASP:366:CA:8181, V-A:LEU:363:CD1:3188, V-B:ASP:366:C:8179, H-A:ALA:541:N:4891, V-A:LEU:363:CA:3184, V-A:LEU:363:CB:3186, V-B:ILE:369:CG2:8208, V-B:ILE:369:CB:8207"]

$$$$
RR14_Rahimova_2017
     RDKit          3D

 39 43  0  0  0  0  0  0  0  0999 V2000
  129.4640  130.7850   62.2320 C   0  0  0  0  0  0  0  0  0  0  0  0
  130.0960  131.8080   61.4700 O   0  0  0  0  0  0  0  0  0  0  0  0
  130.2760  131.6220   60.1130 C   0  0  0  0  0  0  0  0  0  0  0  0
  129.2560  132.0830   59.2800 C   0  0  0  0  0  0  0  0  0  0  0  0
  129.3370  131.9180   57.9010 C   0  0  0  0  0  0  0  0  0  0  0  0
  130.4460  131.2800   57.3390 C   0  0  0  0  0  0  0  0  0  0  0  0
  130.5080  131.0390   55.8350 C   0  0  0  0  0  0  0  0  0  0  0  0
  129.1960  130.8100   55.2310 N   0  0  0  0  0  0  0  0  0  0  0  0
  128.4190  131.8440   54.8890 N   0  0  0  0  0  0  0  0  0  0  0  0
  127.2680  131.2680   54.3880 N   0  0  0  0  0  0  0  0  0  0  0  0
  127.3660  129.8810   54.4410 N   0  0  0  0  0  0  0  0  0  0  0  0
  128.5420  129.6260   54.9630 C   0  0  0  0  0  0  0  0  0  0  0  0
  129.0950  128.2360   55.2440 C   0  0  0  0  0  0  0  0  0  0  0  0
  129.0560  127.8940   56.6760 N   0  0  0  0  0  0  0  0  0  0  0  0
  128.4640  126.5700   56.9080 C   0  0  0  0  0  0  0  0  0  0  0  0
  127.7230  126.4590   58.2580 C   0  0  0  0  0  0  0  0  0  0  0  0
  126.5150  125.4990   58.2250 C   0  0  0  0  0  0  0  0  0  0  0  0
  126.7290  124.3270   57.3700 N   0  0  0  0  0  0  0  0  0  0  0  0
  125.4450  123.6970   57.0370 C   0  0  0  0  0  0  0  0  0  0  0  0
  125.6380  122.4280   56.1800 C   0  0  0  0  0  0  0  0  0  0  0  0
  126.5280  121.5280   56.8320 O   0  0  0  0  0  0  0  0  0  0  0  0
  127.8110  122.1030   57.0520 C   0  0  0  0  0  0  0  0  0  0  0  0
  127.6830  123.3610   57.9380 C   0  0  0  0  0  0  0  0  0  0  0  0
  130.4090  127.9610   57.2480 C   0  0  0  0  0  0  0  0  0  0  0  0
  130.8740  126.7260   58.0170 C   0  0  0  0  0  0  0  0  0  0  0  0
  130.8380  126.6920   59.3720 C   0  0  0  0  0  0  0  0  0  0  0  0
  131.3190  125.5260   60.1410 C   0  0  0  0  0  0  0  0  0  0  0  0
  131.2790  125.4480   61.5430 C   0  0  0  0  0  0  0  0  0  0  0  0
  130.7240  126.5860   62.3900 C   0  0  0  0  0  0  0  0  0  0  0  0
  131.7580  124.2970   62.1740 C   0  0  0  0  0  0  0  0  0  0  0  0
  132.2690  123.2370   61.4280 C   0  0  0  0  0  0  0  0  0  0  0  0
  132.3110  123.3030   60.0330 C   0  0  0  0  0  0  0  0  0  0  0  0
  132.8740  122.1270   59.2450 C   0  0  0  0  0  0  0  0  0  0  0  0
  131.8330  124.4550   59.3880 C   0  0  0  0  0  0  0  0  0  0  0  0
  131.8580  124.5680   57.9820 N   0  0  0  0  0  0  0  0  0  0  0  0
  131.4290  125.6170   57.2360 C   0  0  0  0  0  0  0  0  0  0  0  0
  131.5250  125.5890   56.0090 O   0  0  0  0  0  0  0  0  0  0  0  0
  131.4860  130.8420   58.1610 C   0  0  0  0  0  0  0  0  0  0  0  0
  131.4020  131.0070   59.5400 C   0  0  0  0  0  0  0  0  0  0  0  0
  1  2  1  0
  2  3  1  0
  3  4  2  0
  4  5  1  0
  5  6  2  0
  6  7  1  0
  7  8  1  0
  8  9  1  0
  9 10  2  0
 10 11  1  0
 11 12  2  0
 12 13  1  0
 13 14  1  0
 14 15  1  0
 15 16  1  0
 16 17  1  0
 17 18  1  0
 18 19  1  0
 19 20  1  0
 20 21  1  0
 21 22  1  0
 22 23  1  0
 14 24  1  0
 24 25  1  0
 25 26  2  0
 26 27  1  0
 27 28  2  0
 28 29  1  0
 28 30  1  0
 30 31  2  0
 31 32  1  0
 32 33  1  0
 32 34  2  0
 34 35  1  0
 35 36  1  0
 36 37  2  0
  6 38  1  0
 38 39  2  0
 39  3  1  0
 12  8  1  0
 23 18  1  0
 36 25  1  0
 34 27  1  0
M  END
>  <Binding energies>  (154) 
[-10.46]

>  <Ligand effiencies>  (154) 
[-0.2615]

>  <Interactions>  (154) 
["H-B:TYR:531:OH:9767, V-B:MET:535:CE:9807, V-A:ILE:369:CG2:3236, V-B:TYR:539:CD2:9846, V-B:PRO:540:N:9856, H-B:TYR:539:N:9842, V-B:TYR:539:CE2:9848, V-B:TYR:539:C:9839, V-B:TYR:531:CE2:9765, V-B:TYR:531:CZ:9766, V-B:LEU:363:CD1:8160, V-B:TYR:539:CA:9841, V-A:ASP:366:CG:3212, V-A:PRO:540:N:4884, H-B:TYR:539:OH:9850, V-A:TYR:539:CD1:4873, V-A:PRO:540:CA:4883, H-A:TYR:531:OH:4795, V-A:PRO:540:CB:4885, V-A:TYR:539:CE1:4875, H-B:LYS:534:NZ:9795, V-A:ALA:541:CB:4892, V-A:PRO:540:C:4881, V-A:TYR:539:C:4867, V-A:GLU:543:CG:4907, V-A:GLU:543:CD:4908, V-B:TYR:539:CZ:9849, H-A:TYR:539:OH:4878, V-B:TYR:539:CG:9844, V-B:TYR:539:CE1:9847, V-B:TYR:539:CD1:9845, H-A:ALA:541:N:4891"]

$$$$
RR15_Rahimova_2017
     RDKit          3D

 45 49  0  0  0  0  0  0  0  0999 V2000
  134.0770  120.5470   61.4700 C   0  0  0  0  0  0  0  0  0  0  0  0
  133.7640  121.9200   61.6800 O   0  0  0  0  0  0  0  0  0  0  0  0
  133.3140  122.6860   60.6190 C   0  0  0  0  0  0  0  0  0  0  0  0
  134.1470  123.5090   59.8450 C   0  0  0  0  0  0  0  0  0  0  0  0
  133.6290  124.2570   58.7910 C   0  0  0  0  0  0  0  0  0  0  0  0
  132.2660  124.2070   58.4810 C   0  0  0  0  0  0  0  0  0  0  0  0
  131.7050  125.0200   57.3470 C   0  0  0  0  0  0  0  0  0  0  0  0
  132.4320  125.4040   56.3060 N   0  0  0  0  0  0  0  0  0  0  0  0
  131.5830  126.1280   55.4930 N   0  0  0  0  0  0  0  0  0  0  0  0
  130.4110  126.0630   56.1260 N   0  0  0  0  0  0  0  0  0  0  0  0
  129.2520  126.8400   55.6910 C   0  0  0  0  0  0  0  0  0  0  0  0
  128.9400  128.0840   56.5610 C   0  0  0  0  0  0  0  0  0  0  0  0
  129.8280  128.9260   56.7130 O   0  0  0  0  0  0  0  0  0  0  0  0
  127.6940  128.2320   57.1070 N   0  0  0  0  0  0  0  0  0  0  0  0
  127.3150  127.5380   58.3540 C   0  0  0  0  0  0  0  0  0  0  0  0
  126.0320  126.6900   58.2230 C   0  0  0  0  0  0  0  0  0  0  0  0
  126.1580  125.2380   58.7420 C   0  0  0  0  0  0  0  0  0  0  0  0
  126.5420  124.2730   57.7060 N   0  0  0  0  0  0  0  0  0  0  0  0
  127.6370  123.3790   58.1120 C   0  0  0  0  0  0  0  0  0  0  0  0
  127.9430  122.3300   57.0230 C   0  0  0  0  0  0  0  0  0  0  0  0
  126.7610  121.6130   56.6850 O   0  0  0  0  0  0  0  0  0  0  0  0
  125.7320  122.4650   56.1920 C   0  0  0  0  0  0  0  0  0  0  0  0
  125.3630  123.5170   57.2610 C   0  0  0  0  0  0  0  0  0  0  0  0
  126.6960  129.2330   56.6190 C   0  0  2  0  0  0  0  0  0  0  0  0
  127.1870  130.0800   55.4030 C   0  0  0  0  0  0  0  0  0  0  0  0
  126.5580  130.0950   54.3450 O   0  0  0  0  0  0  0  0  0  0  0  0
  128.2990  130.8060   55.6110 N   0  0  0  0  0  0  0  0  0  0  0  0
  128.8830  131.7460   54.6600 C   0  0  0  0  0  0  0  0  0  0  0  0
  130.1250  132.4380   55.2530 C   0  0  2  0  0  0  0  0  0  0  0  0
  131.4410  131.6500   55.1300 C   0  0  0  0  0  0  0  0  0  0  0  0
  131.6500  131.0460   56.4970 C   0  0  0  0  0  0  0  0  0  0  0  0
  131.0560  132.1190   57.3930 C   0  0  0  0  0  0  0  0  0  0  0  0
  129.8990  132.5200   56.6670 O   0  0  0  0  0  0  0  0  0  0  0  0
  126.0700  129.9830   57.7890 C   0  0  0  0  0  0  0  0  0  0  0  0
  124.6730  130.0120   57.8820 C   0  0  0  0  0  0  0  0  0  0  0  0
  124.0460  130.6820   58.9290 C   0  0  0  0  0  0  0  0  0  0  0  0
  124.8130  131.3280   59.8940 C   0  0  0  0  0  0  0  0  0  0  0  0
  124.2040  131.9770   60.9110 F   0  0  0  0  0  0  0  0  0  0  0  0
  126.2030  131.3080   59.8190 C   0  0  0  0  0  0  0  0  0  0  0  0
  126.8300  130.6390   58.7710 C   0  0  0  0  0  0  0  0  0  0  0  0
  130.4480  125.4210   57.3000 N   0  0  0  0  0  0  0  0  0  0  0  0
  131.4370  123.3840   59.2530 C   0  0  0  0  0  0  0  0  0  0  0  0
  131.9460  122.6200   60.3180 C   0  0  0  0  0  0  0  0  0  0  0  0
  131.1680  121.7900   61.1070 O   0  0  0  0  0  0  0  0  0  0  0  0
  129.7930  121.6030   60.7890 C   0  0  0  0  0  0  0  0  0  0  0  0
  1  2  1  0
  2  3  1  0
  3  4  2  0
  4  5  1  0
  5  6  2  0
  6  7  1  0
  7  8  1  0
  8  9  2  0
  9 10  1  0
 10 11  1  0
 11 12  1  0
 12 13  2  0
 12 14  1  0
 14 15  1  0
 15 16  1  0
 16 17  1  0
 17 18  1  0
 18 19  1  0
 19 20  1  0
 20 21  1  0
 21 22  1  0
 22 23  1  0
 24 14  1  1
 24 25  1  0
 25 26  2  0
 25 27  1  0
 27 28  1  0
 29 28  1  6
 29 30  1  0
 30 31  1  0
 31 32  1  0
 32 33  1  0
 24 34  1  0
 34 35  2  0
 35 36  1  0
 36 37  2  0
 37 38  1  0
 37 39  1  0
 39 40  2  0
 10 41  1  0
  6 42  1  0
 42 43  2  0
 43 44  1  0
 44 45  1  0
 43  3  1  0
 41  7  2  0
 23 18  1  0
 33 29  1  0
 40 34  1  0
M  END
>  <Binding energies>  (155) 
[-11.12]

>  <Ligand effiencies>  (155) 
[-0.2417391304347826]

>  <Interactions>  (155) 
["H-B:TYR:531:OH:9767, V-B:MET:535:CE:9807, V-A:ILE:369:CG2:3236, V-B:TYR:539:CD2:9846, V-B:PRO:540:N:9856, V-A:LEU:475:CD1:4257, H-B:TYR:539:N:9842, V-B:TYR:539:CE2:9848, V-B:TYR:539:C:9839, V-B:TYR:531:CE2:9765, V-B:TYR:531:CZ:9766, V-B:LEU:363:CD1:8160, V-A:ASP:366:CG:3212, V-A:PRO:540:N:4884, V-A:ILE:538:CA:4860, V-A:ASP:366:CA:3209, V-A:ASP:366:CB:3211, V-A:ILE:538:CG2:4863, V-A:ASP:366:C:3207, H-B:TYR:539:OH:9850, V-A:TYR:539:CD1:4873, V-A:TYR:539:CE2:4876, V-A:PRO:540:CA:4883, H-A:TYR:531:OH:4795, H-A:TYR:539:N:4870, V-A:TYR:539:CZ:4877, V-A:PRO:540:CB:4885, V-A:TYR:539:CE1:4875, V-A:TYR:531:CZ:4794, V-A:ILE:538:CB:4862, V-B:ASP:366:CG:8184, V-B:TYR:531:CE1:9764, H-B:LYS:534:NZ:9795, V-B:ASP:366:CB:8183, V-A:PRO:540:CD:4887, V-B:ASP:366:CA:8181, V-A:TYR:539:C:4867, V-A:LEU:363:CD1:3188, V-B:ILE:369:CD1:8210, V-B:ASP:366:C:8179, V-A:ILE:369:CD1:3238, V-B:TYR:539:CZ:9849, H-A:TYR:539:OH:4878, V-A:ILE:369:CB:3235, V-A:SER:385:C:3404, V-B:TYR:539:CG:9844, V-B:TYR:539:CE1:9847, V-B:TYR:539:CD1:9845, V-A:ILE:538:C:4858, V-A:TYR:531:CE2:4793, V-B:ILE:369:CG2:8208, V-B:ILE:369:CB:8207"]

$$$$
RR17_Rahimova_2017
     RDKit          3D

 38 41  0  0  0  0  0  0  0  0999 V2000
  130.6730  117.1610   59.9350 C   0  0  0  0  0  0  0  0  0  0  0  0
  131.3510  117.6440   61.2200 C   0  0  0  0  0  0  0  0  0  0  0  0
  132.5730  118.2910   60.8770 O   0  0  0  0  0  0  0  0  0  0  0  0
  132.5900  119.6630   60.7090 C   0  0  0  0  0  0  0  0  0  0  0  0
  133.7690  120.3190   61.0580 C   0  0  0  0  0  0  0  0  0  0  0  0
  133.8790  121.7000   60.9250 C   0  0  0  0  0  0  0  0  0  0  0  0
  132.8040  122.4570   60.4380 C   0  0  0  0  0  0  0  0  0  0  0  0
  132.9520  123.9450   60.3040 C   0  0  0  0  0  0  0  0  0  0  0  0
  133.1690  124.4930   59.2190 O   0  0  0  0  0  0  0  0  0  0  0  0
  132.8360  124.7810   61.5980 C   0  0  0  0  0  0  0  0  0  0  0  0
  133.8290  124.0770   62.9640 S   0  0  0  0  0  0  0  0  0  0  0  0
  132.9620  124.7560   64.3510 C   0  0  0  0  0  0  0  0  0  0  0  0
  133.5150  125.4060   65.3480 N   0  0  0  0  0  0  0  0  0  0  0  0
  132.5040  125.7800   66.2250 N   0  0  0  0  0  0  0  0  0  0  0  0
  131.3760  125.3450   65.7210 C   0  0  0  0  0  0  0  0  0  0  0  0
  130.0100  125.5500   66.3580 C   0  0  0  0  0  0  0  0  0  0  0  0
  129.8390  126.8610   66.9790 N   0  0  0  0  0  0  0  0  0  0  0  0
  129.6250  127.0510   68.3560 C   0  0  0  0  0  0  0  0  0  0  0  0
  128.9910  126.0240   69.0550 C   0  0  0  0  0  0  0  0  0  0  0  0
  128.7440  126.1490   70.4190 C   0  0  0  0  0  0  0  0  0  0  0  0
  129.1320  127.3050   71.1020 C   0  0  0  0  0  0  0  0  0  0  0  0
  128.8470  127.4290   72.5990 C   0  0  0  0  0  0  0  0  0  0  0  0
  129.9210  127.1530   73.3420 F   0  0  0  0  0  0  0  0  0  0  0  0
  128.4480  128.6670   72.8960 F   0  0  0  0  0  0  0  0  0  0  0  0
  127.8780  126.5760   72.9310 F   0  0  0  0  0  0  0  0  0  0  0  0
  129.7750  128.3330   70.4050 C   0  0  0  0  0  0  0  0  0  0  0  0
  130.0230  128.2060   69.0410 C   0  0  0  0  0  0  0  0  0  0  0  0
  131.5970  124.6740   64.5360 N   0  0  0  0  0  0  0  0  0  0  0  0
  130.6460  124.0760   63.6960 C   0  0  0  0  0  0  0  0  0  0  0  0
  130.6480  122.6910   63.5320 C   0  0  0  0  0  0  0  0  0  0  0  0
  129.7060  122.0980   62.6960 C   0  0  0  0  0  0  0  0  0  0  0  0
  128.7600  122.8880   62.0220 C   0  0  0  0  0  0  0  0  0  0  0  0
  127.7900  122.3870   61.1750 O   0  0  0  0  0  0  0  0  0  0  0  0
  126.5890  123.1270   60.9800 C   0  0  0  0  0  0  0  0  0  0  0  0
  128.7750  124.2730   62.1970 C   0  0  0  0  0  0  0  0  0  0  0  0
  129.7130  124.8730   63.0320 C   0  0  0  0  0  0  0  0  0  0  0  0
  131.6180  121.7960   60.0870 C   0  0  0  0  0  0  0  0  0  0  0  0
  131.5100  120.4140   60.2200 C   0  0  0  0  0  0  0  0  0  0  0  0
  1  2  1  0
  2  3  1  0
  3  4  1  0
  4  5  2  0
  5  6  1  0
  6  7  2  0
  7  8  1  0
  8  9  2  0
  8 10  1  0
 10 11  1  0
 11 12  1  0
 12 13  2  0
 13 14  1  0
 14 15  2  0
 15 16  1  0
 16 17  1  0
 17 18  1  0
 18 19  2  0
 19 20  1  0
 20 21  2  0
 21 22  1  0
 22 23  1  0
 22 24  1  0
 22 25  1  0
 21 26  1  0
 26 27  2  0
 15 28  1  0
 28 29  1  0
 29 30  2  0
 30 31  1  0
 31 32  2  0
 32 33  1  0
 33 34  1  0
 32 35  1  0
 35 36  2  0
  7 37  1  0
 37 38  2  0
 38  4  1  0
 28 12  1  0
 36 29  1  0
 27 18  1  0
M  END
>  <Binding energies>  (156) 
[-8.67]

>  <Ligand effiencies>  (156) 
[-0.22230769230769232]

>  <Interactions>  (156) 
["H-B:ALA:541:N:9863, V-B:PRO:540:CB:9857, V-A:ILE:369:CG2:3236, V-B:TYR:539:CD2:9846, V-A:LEU:475:CD1:4257, V-B:PRO:540:CA:9855, H-A:SER:385:OG:3409, H-A:HIS:383:NE2:3393, V-B:ALA:541:CB:9864, V-B:TYR:539:CE2:9848, V-B:TYR:539:C:9839, V-A:PRO:482:CG:4326, V-A:PRO:482:CB:4325, H-A:TYR:484:OH:4347, V-A:ASP:366:CG:3212, H-A:GLY:454:N:4049, V-A:GLU:543:CD:4908, V-A:ILE:369:CD1:3238, H-A:ARG:545:NH2:4928, V-A:GLU:543:C:4902, V-B:HIS:456:CE1:9041, V-A:TYR:484:CZ:4346, V-A:HIS:456:CE1:4069, V-B:GLU:543:CB:9878, V-B:GLU:543:CG:9879, V-B:GLU:543:CD:9880, H-A:ARG:545:NE:4924, V-A:ARG:545:CZ:4926, V-A:GLU:543:CB:4906, V-B:GLU:543:C:9874, H-A:GLU:543:OE1:4909, V-B:TYR:539:CB:9843, V-A:HIS:383:CE1:3392, V-B:HIS:456:CD2:9039, V-B:HIS:456:CG:9037"]

$$$$
RR19_Rahimova_2017
     RDKit          3D

 46 51  0  0  0  0  0  0  0  0999 V2000
  132.4570  122.8470   60.2170 O   0  0  0  0  0  0  0  0  0  0  0  0
  131.2910  123.0340   59.8580 C   0  0  0  0  0  0  0  0  0  0  0  0
  130.8880  123.8480   58.8480 N   0  0  0  0  0  0  0  0  0  0  0  0
  131.5620  124.4910   57.8400 C   0  0  0  0  0  0  0  0  0  0  0  0
  133.1810  124.2340   57.4160 S   0  0  0  0  0  0  0  0  0  0  0  0
  130.7050  125.3750   57.2330 N   0  0  0  0  0  0  0  0  0  0  0  0
  130.8050  126.1430   56.1180 C   0  0  0  0  0  0  0  0  0  0  0  0
  131.6880  126.0740   55.2590 O   0  0  0  0  0  0  0  0  0  0  0  0
  129.6840  127.2040   55.9830 C   0  0  2  0  0  0  0  0  0  0  0  0
  129.5280  127.8100   54.5580 C   0  0  0  0  0  0  0  0  0  0  0  0
  129.2010  129.2940   54.5190 C   0  0  0  0  0  0  0  0  0  0  0  0
  127.8790  129.7500   54.7140 C   0  0  0  0  0  0  0  0  0  0  0  0
  127.6120  131.1110   54.7530 C   0  0  0  0  0  0  0  0  0  0  0  0
  128.6440  132.0320   54.6190 C   0  0  0  0  0  0  0  0  0  0  0  0
  129.9540  131.5990   54.4560 C   0  0  0  0  0  0  0  0  0  0  0  0
  130.2420  130.2410   54.4170 C   0  0  0  0  0  0  0  0  0  0  0  0
  129.8180  128.2660   57.0180 N   0  0  0  0  0  0  0  0  0  0  0  0
  128.7350  128.7220   57.7090 C   0  0  0  0  0  0  0  0  0  0  0  0
  127.5610  128.3740   57.5720 O   0  0  0  0  0  0  0  0  0  0  0  0
  129.2680  129.7250   58.6640 C   0  0  0  0  0  0  0  0  0  0  0  0
  128.6220  130.5160   59.6150 C   0  0  0  0  0  0  0  0  0  0  0  0
  129.3900  131.3850   60.3970 C   0  0  0  0  0  0  0  0  0  0  0  0
  130.7790  131.4510   60.2220 C   0  0  0  0  0  0  0  0  0  0  0  0
  131.4080  130.6490   59.2630 C   0  0  0  0  0  0  0  0  0  0  0  0
  130.6240  129.7900   58.4930 C   0  0  0  0  0  0  0  0  0  0  0  0
  130.9950  128.8290   57.4240 C   0  0  0  0  0  0  0  0  0  0  0  0
  132.1270  128.5880   57.0030 O   0  0  0  0  0  0  0  0  0  0  0  0
  130.1360  122.3110   60.6000 C   0  0  2  0  0  0  0  0  0  0  0  0
  130.3390  120.7740   60.7370 C   0  0  0  0  0  0  0  0  0  0  0  0
  131.7950  120.3450   60.7620 C   0  0  0  0  0  0  0  0  0  0  0  0
  132.6290  120.7340   61.8330 C   0  0  0  0  0  0  0  0  0  0  0  0
  133.9320  120.2570   61.9060 C   0  0  0  0  0  0  0  0  0  0  0  0
  134.4110  119.3760   60.9450 C   0  0  0  0  0  0  0  0  0  0  0  0
  133.5880  118.9530   59.9080 C   0  0  0  0  0  0  0  0  0  0  0  0
  132.2830  119.4200   59.8160 C   0  0  0  0  0  0  0  0  0  0  0  0
  128.7870  122.6360   60.0550 N   0  0  0  0  0  0  0  0  0  0  0  0
  127.7940  123.1310   60.8460 C   0  0  0  0  0  0  0  0  0  0  0  0
  127.8450  123.3550   62.0560 O   0  0  0  0  0  0  0  0  0  0  0  0
  126.6380  123.3440   59.9400 C   0  0  0  0  0  0  0  0  0  0  0  0
  125.3530  123.8250   60.1940 C   0  0  0  0  0  0  0  0  0  0  0  0
  124.4520  123.9250   59.1290 C   0  0  0  0  0  0  0  0  0  0  0  0
  124.8420  123.5500   57.8360 C   0  0  0  0  0  0  0  0  0  0  0  0
  126.1360  123.0720   57.6010 C   0  0  0  0  0  0  0  0  0  0  0  0
  127.0190  122.9780   58.6780 C   0  0  0  0  0  0  0  0  0  0  0  0
  128.4280  122.5210   58.7410 C   0  0  0  0  0  0  0  0  0  0  0  0
  129.1270  122.1230   57.8090 O   0  0  0  0  0  0  0  0  0  0  0  0
  1  2  2  0
  2  3  1  0
  3  4  1  0
  4  5  2  0
  4  6  1  0
  6  7  1  0
  7  8  2  0
  7  9  1  0
  9 10  1  6
 10 11  1  0
 11 12  2  0
 12 13  1  0
 13 14  2  0
 14 15  1  0
 15 16  2  0
  9 17  1  0
 17 18  1  0
 18 19  2  0
 18 20  1  0
 20 21  2  0
 21 22  1  0
 22 23  2  0
 23 24  1  0
 24 25  2  0
 25 26  1  0
 26 27  2  0
  2 28  1  0
 28 29  1  6
 29 30  1  0
 30 31  2  0
 31 32  1  0
 32 33  2  0
 33 34  1  0
 34 35  2  0
 28 36  1  0
 36 37  1  0
 37 38  2  0
 37 39  1  0
 39 40  2  0
 40 41  1  0
 41 42  2  0
 42 43  1  0
 43 44  2  0
 44 45  1  0
 45 46  2  0
 16 11  1  0
 26 17  1  0
 35 30  1  0
 45 36  1  0
 25 20  1  0
 44 39  1  0
M  END
>  <Binding energies>  (157) 
[-11.61]

>  <Ligand effiencies>  (157) 
[-0.24187499999999998]

>  <Interactions>  (157) 
["V-B:PRO:540:CB:9857, H-B:TYR:531:OH:9767, V-B:MET:535:CE:9807, V-A:ILE:369:CG2:3236, V-B:TYR:539:CD2:9846, V-B:PRO:540:N:9856, V-A:LEU:475:CD1:4257, V-B:PRO:540:CA:9855, V-B:TYR:539:CE2:9848, V-B:TYR:539:C:9839, V-B:TYR:531:CE2:9765, V-B:LEU:363:CD1:8160, V-A:ILE:538:CA:4860, V-A:ASP:366:CA:3209, V-A:ASP:366:CB:3211, V-A:ILE:538:CG2:4863, V-A:ASP:366:C:3207, H-B:TYR:539:OH:9850, V-A:TYR:539:CE2:4876, V-A:PRO:540:CA:4883, H-A:TYR:531:OH:4795, V-A:TYR:539:CZ:4877, V-A:TYR:539:CD2:4874, V-A:PRO:540:CB:4885, V-A:TYR:539:CE1:4875, V-A:TYR:531:CZ:4794, V-A:ILE:538:CB:4862, V-B:ASP:366:CG:8184, V-B:TYR:531:CE1:9764, V-A:PRO:540:C:4881, V-B:TYR:539:CZ:9849, V-A:SER:385:CA:3406, V-B:LEU:363:CA:8156, V-A:SER:385:C:3404, V-A:SER:385:CB:3408, V-A:HIS:383:CD2:3391"]

$$$$
RR1_Rahimova_2017
     RDKit          3D

 41 44  0  0  0  0  0  0  0  0999 V2000
  133.7010  125.5300   66.0160 C   0  0  0  0  0  0  0  0  0  0  0  0
  133.5310  124.8080   64.8020 O   0  0  0  0  0  0  0  0  0  0  0  0
  132.2600  124.6510   64.2830 C   0  0  0  0  0  0  0  0  0  0  0  0
  131.6750  123.4100   63.9840 C   0  0  0  0  0  0  0  0  0  0  0  0
  130.3890  123.3500   63.4560 C   0  0  0  0  0  0  0  0  0  0  0  0
  129.6650  124.5210   63.2240 C   0  0  0  0  0  0  0  0  0  0  0  0
  128.3920  124.3580   62.6460 N   0  0  0  0  0  0  0  0  0  0  0  0
  127.6400  125.2510   61.9670 C   0  0  0  0  0  0  0  0  0  0  0  0
  127.9390  126.4330   61.7960 O   0  0  0  0  0  0  0  0  0  0  0  0
  126.3300  124.6840   61.3990 C   0  0  0  0  0  0  0  0  0  0  0  0
  126.1490  122.8700   61.5080 S   0  0  0  0  0  0  0  0  0  0  0  0
  127.6490  122.4290   60.6970 C   0  0  0  0  0  0  0  0  0  0  0  0
  128.7480  122.0830   61.3190 N   0  0  0  0  0  0  0  0  0  0  0  0
  129.6040  121.8280   60.3350 C   0  0  0  0  0  0  0  0  0  0  0  0
  131.0130  121.3750   60.5920 C   0  0  0  0  0  0  0  0  0  0  0  0
  131.3150  120.0280   60.8470 C   0  0  0  0  0  0  0  0  0  0  0  0
  132.6340  119.6360   61.0860 C   0  0  0  0  0  0  0  0  0  0  0  0
  133.6310  120.6100   61.0630 C   0  0  0  0  0  0  0  0  0  0  0  0
  133.3740  121.9200   60.8200 N   0  0  0  0  0  0  0  0  0  0  0  0
  132.0850  122.2800   60.5900 C   0  0  0  0  0  0  0  0  0  0  0  0
  129.1300  121.9970   59.1150 N   0  0  0  0  0  0  0  0  0  0  0  0
  127.8720  122.3850   59.3450 N   0  0  0  0  0  0  0  0  0  0  0  0
  126.9640  122.6620   58.2320 C   0  0  0  0  0  0  0  0  0  0  0  0
  127.1600  124.0310   57.5580 C   0  0  0  0  0  0  0  0  0  0  0  0
  126.2100  124.6150   57.0220 O   0  0  0  0  0  0  0  0  0  0  0  0
  128.4170  124.5120   57.6030 N   0  0  0  0  0  0  0  0  0  0  0  0
  128.6400  125.8040   57.1470 N   0  0  0  0  0  0  0  0  0  0  0  0
  129.5780  126.5420   57.7800 C   0  0  0  0  0  0  0  0  0  0  0  0
  130.3190  126.1070   58.6680 O   0  0  0  0  0  0  0  0  0  0  0  0
  129.7050  127.9790   57.3140 C   0  0  0  0  0  0  0  0  0  0  0  0
  130.4650  128.8890   58.0570 C   0  0  0  0  0  0  0  0  0  0  0  0
  130.5850  130.2150   57.6550 C   0  0  0  0  0  0  0  0  0  0  0  0
  129.9400  130.6750   56.4960 C   0  0  0  0  0  0  0  0  0  0  0  0
  130.0070  131.9830   56.0480 O   0  0  0  0  0  0  0  0  0  0  0  0
  131.2760  132.6090   55.9020 C   0  0  0  0  0  0  0  0  0  0  0  0
  129.1680  129.7810   55.7420 C   0  0  0  0  0  0  0  0  0  0  0  0
  128.5360  130.2890   54.6190 O   0  0  0  0  0  0  0  0  0  0  0  0
  128.0310  129.3980   53.6310 C   0  0  0  0  0  0  0  0  0  0  0  0
  129.0600  128.4410   56.1560 C   0  0  0  0  0  0  0  0  0  0  0  0
  130.2460  125.7630   63.5230 C   0  0  0  0  0  0  0  0  0  0  0  0
  131.5320  125.8180   64.0520 C   0  0  0  0  0  0  0  0  0  0  0  0
  1  2  1  0
  2  3  1  0
  3  4  2  0
  4  5  1  0
  5  6  2  0
  6  7  1  0
  7  8  1  0
  8  9  2  0
  8 10  1  0
 10 11  1  0
 11 12  1  0
 12 13  2  0
 13 14  1  0
 14 15  1  0
 15 16  2  0
 16 17  1  0
 17 18  2  0
 18 19  1  0
 19 20  2  0
 14 21  2  0
 21 22  1  0
 22 23  1  0
 23 24  1  0
 24 25  2  0
 24 26  1  0
 26 27  1  0
 27 28  1  0
 28 29  2  0
 28 30  1  0
 30 31  2  0
 31 32  1  0
 32 33  2  0
 33 34  1  0
 34 35  1  0
 33 36  1  0
 36 37  1  0
 37 38  1  0
 36 39  2  0
  6 40  1  0
 40 41  2  0
 41  3  1  0
 22 12  1  0
 39 30  1  0
 20 15  1  0
M  END
>  <Binding energies>  (158) 
[-8.04]

>  <Ligand effiencies>  (158) 
[-0.1827272727272727]

>  <Interactions>  (158) 
["H-B:ALA:541:N:9863, V-B:PRO:540:CB:9857, H-B:TYR:531:OH:9767, V-B:MET:535:CE:9807, V-A:ILE:369:CG2:3236, V-B:TYR:539:CD2:9846, V-B:PRO:540:N:9856, V-A:LEU:475:CD1:4257, V-B:PRO:540:CA:9855, V-B:PRO:540:C:9853, V-B:TYR:539:CE2:9848, V-B:TYR:539:C:9839, H-A:TYR:484:OH:4347, H-A:GLY:454:N:4049, V-A:PRO:540:N:4884, V-A:ILE:538:CA:4860, V-A:ILE:538:CG2:4863, H-A:TYR:539:N:4870, V-A:ILE:538:CB:4862, V-B:TYR:531:CE1:9764, H-B:LYS:534:NZ:9795, V-A:PRO:540:CD:4887, V-A:TYR:539:C:4867, V-A:ARG:545:CD:4923, V-B:GLU:543:CG:9879, H-B:GLU:543:OE1:9881, V-B:GLU:543:CD:9880, H-B:GLU:543:OE2:9882, V-A:ARG:545:CG:4922, V-A:ARG:545:CZ:4926, V-B:LYS:534:CE:9794, V-A:ILE:538:C:4858, V-B:LYS:534:CD:9793"]

$$$$
RR22_Rahimova_2017
     RDKit          3D

 31 36  0  0  0  0  0  0  0  0999 V2000
  123.7800  129.8760   55.7390 O   0  0  0  0  0  0  0  0  0  0  0  0
  124.6510  129.8660   56.6060 C   0  0  0  0  0  0  0  0  0  0  0  0
  124.4840  129.6800   57.9680 N   0  0  0  0  0  0  0  0  0  0  0  0
  125.6170  129.6360   58.8410 C   0  0  1  0  0  0  0  0  0  0  0  0
  125.3700  130.6430   59.8260 O   0  0  0  0  0  0  0  0  0  0  0  0
  125.2980  130.2570   61.1650 C   0  0  0  0  0  0  0  0  0  0  0  0
  124.7030  131.1640   62.0430 C   0  0  0  0  0  0  0  0  0  0  0  0
  124.6310  130.8660   63.4030 C   0  0  0  0  0  0  0  0  0  0  0  0
  125.1610  129.6680   63.8850 C   0  0  0  0  0  0  0  0  0  0  0  0
  125.7570  128.7620   63.0070 C   0  0  0  0  0  0  0  0  0  0  0  0
  125.8140  129.0360   61.6370 C   0  0  0  0  0  0  0  0  0  0  0  0
  126.4760  128.1420   60.6120 C   0  0  1  0  0  0  0  0  0  0  0  0
  126.5080  126.6330   60.7480 C   0  0  0  0  0  0  0  0  0  0  0  0
  126.5220  126.2370   59.2680 C   0  0  0  0  0  0  0  0  0  0  0  0
  126.9390  124.8990   58.8040 C   0  0  0  0  0  0  0  0  0  0  0  0
  128.2430  124.4380   59.0350 C   0  0  0  0  0  0  0  0  0  0  0  0
  128.6300  123.1740   58.5970 C   0  0  0  0  0  0  0  0  0  0  0  0
  127.7170  122.3660   57.9240 C   0  0  0  0  0  0  0  0  0  0  0  0
  126.4190  122.8100   57.6870 C   0  0  0  0  0  0  0  0  0  0  0  0
  126.0300  124.0720   58.1260 C   0  0  0  0  0  0  0  0  0  0  0  0
  126.1100  127.1980   58.5300 N   0  0  0  0  0  0  0  0  0  0  0  0
  125.7760  128.2730   59.3700 N   0  0  0  0  0  0  0  0  0  0  0  0
  126.8150  130.0950   58.0230 C   0  0  0  0  0  0  0  0  0  0  0  0
  127.9760  130.5060   58.5840 C   0  0  0  0  0  0  0  0  0  0  0  0
  129.2130  130.9550   57.9140 C   0  0  0  0  0  0  0  0  0  0  0  0
  130.4670  130.3740   58.1490 C   0  0  0  0  0  0  0  0  0  0  0  0
  131.5940  130.8510   57.4790 C   0  0  0  0  0  0  0  0  0  0  0  0
  131.4370  131.9120   56.5870 C   0  0  0  0  0  0  0  0  0  0  0  0
  130.2390  132.4990   56.3460 N   0  0  0  0  0  0  0  0  0  0  0  0
  129.1540  132.0190   57.0070 C   0  0  0  0  0  0  0  0  0  0  0  0
  126.4260  130.1050   56.2960 S   0  0  0  0  0  0  0  0  0  0  0  0
  1  2  2  0
  2  3  1  0
  4  3  1  6
  4  5  1  0
  5  6  1  0
  6  7  2  0
  7  8  1  0
  8  9  2  0
  9 10  1  0
 10 11  2  0
 11 12  1  0
 12 13  1  1
 13 14  1  0
 14 15  1  0
 15 16  2  0
 16 17  1  0
 17 18  2  0
 18 19  1  0
 19 20  2  0
 14 21  2  0
 21 22  1  0
  4 23  1  0
 23 24  2  0
 24 25  1  0
 25 26  2  0
 26 27  1  0
 27 28  2  0
 28 29  1  0
 29 30  2  0
 23 31  1  0
 31  2  1  0
 22  4  1  0
 30 25  1  0
 11  6  1  0
 22 12  1  0
 20 15  1  0
M  END
>  <Binding energies>  (159) 
[-9.16]

>  <Ligand effiencies>  (159) 
[-0.28625]

>  <Interactions>  (159) 
["V-B:PRO:540:CB:9857, H-B:TYR:531:OH:9767, V-B:MET:535:CE:9807, V-B:PRO:540:N:9856, V-B:PRO:540:CA:9855, V-B:TYR:539:C:9839, V-B:TYR:531:CZ:9766, V-A:PRO:540:N:4884, V-A:TYR:539:CG:4872, V-A:TYR:539:CD1:4873, V-A:PRO:540:CA:4883, H-A:TYR:539:N:4870, V-A:TYR:539:CZ:4877, V-A:PRO:540:CB:4885, V-A:TYR:539:CE1:4875, V-B:ASP:366:CG:8184, V-B:TYR:531:CE1:9764, V-B:ASP:366:CB:8183, V-B:ARG:545:CZ:9898, V-A:PRO:540:CD:4887, V-B:ASP:366:CA:8181, V-A:TYR:539:C:4867, V-B:ILE:369:CD1:8210, V-B:GLY:454:CA:9020, V-B:ASP:366:C:8179, H-A:TYR:539:OH:4878, H-B:ASP:366:O:8180"]

$$$$
RR24_Rahimova_2017
     RDKit          3D

 43 49  0  0  0  0  0  0  0  0999 V2000
  128.4590  132.4740   54.7890 C   0  0  0  0  0  0  0  0  0  0  0  0
  129.4070  131.2660   54.7710 C   0  0  2  0  0  0  0  0  0  0  0  0
  128.6820  129.9210   54.4690 C   0  0  0  0  0  0  0  0  0  0  0  0
  127.4500  129.8260   54.4680 O   0  0  0  0  0  0  0  0  0  0  0  0
  129.5550  128.8970   54.2410 O   0  0  0  0  0  0  0  0  0  0  0  0
  129.5360  127.7920   55.0620 C   0  0  0  0  0  0  0  0  0  0  0  0
  130.2420  126.6470   54.6860 C   0  0  0  0  0  0  0  0  0  0  0  0
  130.2370  125.5280   55.5120 C   0  0  0  0  0  0  0  0  0  0  0  0
  129.5350  125.5490   56.7200 C   0  0  0  0  0  0  0  0  0  0  0  0
  129.5180  124.3060   57.6170 C   0  0  1  0  0  0  0  0  0  0  0  0
  130.7670  124.2320   58.5270 C   0  0  0  0  0  0  0  0  0  0  0  0
  130.6890  124.0420   59.8570 C   0  0  0  0  0  0  0  0  0  0  0  0
  129.4880  123.9020   60.5070 N   0  0  0  0  0  0  0  0  0  0  0  0
  128.2960  123.9500   59.8250 C   0  0  0  0  0  0  0  0  0  0  0  0
  127.2020  123.7850   60.6120 N   0  0  0  0  0  0  0  0  0  0  0  0
  125.9340  123.8810   60.1260 C   0  0  0  0  0  0  0  0  0  0  0  0
  124.9980  124.0420   60.9110 O   0  0  0  0  0  0  0  0  0  0  0  0
  125.8630  123.9500   58.7430 N   0  0  0  0  0  0  0  0  0  0  0  0
  124.5060  123.9640   58.1580 C   0  0  0  0  0  0  0  0  0  0  0  0
  126.9070  124.1210   57.8510 C   0  0  0  0  0  0  0  0  0  0  0  0
  126.7650  124.2280   56.6290 O   0  0  0  0  0  0  0  0  0  0  0  0
  128.2320  124.1420   58.4810 C   0  0  0  0  0  0  0  0  0  0  0  0
  132.0140  124.0160   60.4530 C   0  0  0  0  0  0  0  0  0  0  0  0
  132.4640  123.8570   61.7650 C   0  0  0  0  0  0  0  0  0  0  0  0
  133.8370  123.8790   62.0220 C   0  0  0  0  0  0  0  0  0  0  0  0
  134.7470  124.0570   60.9750 C   0  0  0  0  0  0  0  0  0  0  0  0
  134.2900  124.2160   59.6640 C   0  0  0  0  0  0  0  0  0  0  0  0
  132.9170  124.1940   59.4130 C   0  0  0  0  0  0  0  0  0  0  0  0
  132.1710  124.3330   58.1450 C   0  0  0  0  0  0  0  0  0  0  0  0
  132.5900  124.4980   57.0000 O   0  0  0  0  0  0  0  0  0  0  0  0
  128.8440  126.7040   57.1030 C   0  0  0  0  0  0  0  0  0  0  0  0
  128.8490  127.8250   56.2780 C   0  0  0  0  0  0  0  0  0  0  0  0
  130.2470  131.1940   56.0040 N   0  0  0  0  0  0  0  0  0  0  0  0
  129.6920  131.0120   57.2350 C   0  0  0  0  0  0  0  0  0  0  0  0
  128.4950  130.8970   57.5070 O   0  0  0  0  0  0  0  0  0  0  0  0
  130.8340  130.9840   58.1820 C   0  0  0  0  0  0  0  0  0  0  0  0
  130.8670  130.8280   59.5690 C   0  0  0  0  0  0  0  0  0  0  0  0
  132.1100  130.8380   60.2140 C   0  0  0  0  0  0  0  0  0  0  0  0
  133.2880  131.0000   59.4740 C   0  0  0  0  0  0  0  0  0  0  0  0
  133.2340  131.1540   58.0850 C   0  0  0  0  0  0  0  0  0  0  0  0
  131.9860  131.1430   57.4600 C   0  0  0  0  0  0  0  0  0  0  0  0
  131.6120  131.2770   56.0300 C   0  0  0  0  0  0  0  0  0  0  0  0
  132.3710  131.4260   55.0720 O   0  0  0  0  0  0  0  0  0  0  0  0
  2  1  1  1
  2  3  1  0
  3  4  2  0
  3  5  1  0
  5  6  1  0
  6  7  2  0
  7  8  1  0
  8  9  2  0
 10  9  1  1
 10 11  1  0
 11 12  2  0
 12 13  1  0
 13 14  1  0
 14 15  1  0
 15 16  1  0
 16 17  2  0
 16 18  1  0
 18 19  1  0
 18 20  1  0
 20 21  2  0
 20 22  1  0
 12 23  1  0
 23 24  2  0
 24 25  1  0
 25 26  2  0
 26 27  1  0
 27 28  2  0
 28 29  1  0
 29 30  2  0
  9 31  1  0
 31 32  2  0
  2 33  1  0
 33 34  1  0
 34 35  2  0
 34 36  1  0
 36 37  2  0
 37 38  1  0
 38 39  2  0
 39 40  1  0
 40 41  2  0
 41 42  1  0
 42 43  2  0
 32  6  1  0
 42 33  1  0
 22 10  1  0
 28 23  1  0
 41 36  1  0
 29 11  1  0
 22 14  2  0
M  END
>  <Binding energies>  (160) 
[-11.08]

>  <Ligand effiencies>  (160) 
[-0.24622222222222223]

>  <Interactions>  (160) 
["V-B:PRO:540:CB:9857, H-B:TYR:531:OH:9767, V-B:MET:535:CE:9807, V-A:ILE:369:CG2:3236, V-B:PRO:540:CA:9855, V-B:TYR:539:CE2:9848, V-B:TYR:531:CE2:9765, V-B:LEU:363:CD1:8160, V-A:ASP:366:CG:3212, V-A:TYR:531:CE1:4792, V-A:ILE:538:CA:4860, V-A:ASP:366:CA:3209, V-A:ASP:366:CB:3211, V-A:TYR:539:CG:4872, V-A:ILE:538:CG2:4863, V-A:ASP:366:C:3207, H-B:TYR:539:OH:9850, V-A:TYR:539:CD1:4873, V-A:TYR:539:CE2:4876, V-A:PRO:540:CA:4883, H-A:TYR:531:OH:4795, V-A:TYR:539:CZ:4877, V-A:TYR:539:CD2:4874, V-A:PRO:540:CB:4885, V-A:TYR:539:CE1:4875, V-A:TYR:531:CZ:4794, V-A:ILE:538:CB:4862, H-B:LYS:534:NZ:9795, V-A:LEU:363:CD1:3188, V-A:ILE:369:CD1:3238, V-B:TYR:539:CZ:9849, V-B:LEU:363:CA:8156, H-A:TYR:539:OH:4878, V-A:ILE:369:CB:3235, H-B:GLU:543:OE1:9881, V-A:ILE:538:C:4858, V-A:LEU:363:CA:3184, V-A:LEU:363:CB:3186, V-A:MET:535:CE:4835"]

$$$$
RR25_Rahimova_2017
     RDKit          3D

 39 44  0  0  0  0  0  0  0  0999 V2000
  126.6910  122.5370   60.6680 O   0  0  0  0  0  0  0  0  0  0  0  0
  127.4800  123.2720   61.2640 C   0  0  0  0  0  0  0  0  0  0  0  0
  128.0380  122.7590   62.4090 O   0  0  0  0  0  0  0  0  0  0  0  0
  129.1120  123.3750   63.0260 C   0  0  0  0  0  0  0  0  0  0  0  0
  129.9440  122.5620   63.7950 C   0  0  0  0  0  0  0  0  0  0  0  0
  131.0400  123.1180   64.4510 C   0  0  0  0  0  0  0  0  0  0  0  0
  131.3180  124.4890   64.3520 C   0  0  0  0  0  0  0  0  0  0  0  0
  132.4910  125.0770   65.0460 N   0  0  0  0  0  0  0  0  0  0  0  0
  133.6130  124.8460   64.6020 O   0  0  0  0  0  0  0  0  0  0  0  0
  132.2980  125.7730   66.0380 O   0  0  0  0  0  0  0  0  0  0  0  0
  130.4610  125.2930   63.5830 C   0  0  0  0  0  0  0  0  0  0  0  0
  129.3520  124.7530   62.9250 C   0  0  0  0  0  0  0  0  0  0  0  0
  128.4030  125.5760   62.0730 C   0  0  0  0  0  0  0  0  0  0  0  0
  127.8970  124.7210   60.8780 C   0  0  2  0  0  0  0  0  0  0  0  0
  126.8440  125.5000   60.0370 C   0  0  0  0  0  0  0  0  0  0  0  0
  125.8660  124.8510   59.6550 O   0  0  0  0  0  0  0  0  0  0  0  0
  126.9270  126.8500   59.8380 N   0  0  0  0  0  0  0  0  0  0  0  0
  128.1880  127.6060   59.9890 C   0  0  0  0  0  0  0  0  0  0  0  0
  127.8750  128.9890   60.5970 C   0  0  0  0  0  0  0  0  0  0  0  0
  126.8740  129.7080   59.8030 N   0  0  0  0  0  0  0  0  0  0  0  0
  126.6710  131.0750   60.3030 C   0  0  0  0  0  0  0  0  0  0  0  0
  127.6150  132.1080   59.6300 C   0  0  0  0  0  0  0  0  0  0  0  0
  129.0400  131.6940   59.4810 N   0  0  0  0  0  0  0  0  0  0  0  0
  129.4160  131.3230   58.2080 C   0  0  0  0  0  0  0  0  0  0  0  0
  128.6320  131.2940   57.2520 O   0  0  0  0  0  0  0  0  0  0  0  0
  130.8830  130.9690   58.0600 C   0  0  0  0  0  0  0  0  0  0  0  0
  131.3790  130.6020   56.8020 C   0  0  0  0  0  0  0  0  0  0  0  0
  132.7230  130.2780   56.6280 C   0  0  0  0  0  0  0  0  0  0  0  0
  133.6130  130.3130   57.7010 C   0  0  0  0  0  0  0  0  0  0  0  0
  133.1570  130.6770   58.9910 C   0  0  0  0  0  0  0  0  0  0  0  0
  134.0060  130.7340   60.1220 C   0  0  0  0  0  0  0  0  0  0  0  0
  133.4920  131.1030   61.3640 C   0  0  0  0  0  0  0  0  0  0  0  0
  132.1440  131.4210   61.5150 C   0  0  0  0  0  0  0  0  0  0  0  0
  131.2670  131.3780   60.4240 C   0  0  0  0  0  0  0  0  0  0  0  0
  131.7820  131.0040   59.1560 C   0  0  0  0  0  0  0  0  0  0  0  0
  129.8080  131.7390   60.6270 C   0  0  0  0  0  0  0  0  0  0  0  0
  129.3610  132.0620   61.7330 O   0  0  0  0  0  0  0  0  0  0  0  0
  125.6210  128.9500   59.7790 C   0  0  0  0  0  0  0  0  0  0  0  0
  125.8140  127.5480   59.1540 C   0  0  0  0  0  0  0  0  0  0  0  0
  1  2  2  0
  2  3  1  0
  3  4  1  0
  4  5  2  0
  5  6  1  0
  6  7  2  0
  7  8  1  0
  8  9  2  0
  8 10  1  0
  7 11  1  0
 11 12  2  0
 12 13  1  0
 13 14  1  0
 14 15  1  1
 15 16  2  0
 15 17  1  0
 17 18  1  0
 18 19  1  0
 19 20  1  0
 20 21  1  0
 21 22  1  0
 22 23  1  0
 23 24  1  0
 24 25  2  0
 24 26  1  0
 26 27  2  0
 27 28  1  0
 28 29  2  0
 29 30  1  0
 30 31  2  0
 31 32  1  0
 32 33  2  0
 33 34  1  0
 34 35  2  0
 34 36  1  0
 36 37  2  0
 20 38  1  0
 38 39  1  0
 14  2  1  0
 39 17  1  0
 12  4  1  0
 36 23  1  0
 35 26  1  0
 35 30  1  0
M  CHG  2   8   1  10  -1
M  END
>  <Binding energies>  (161) 
[-10.22]

>  <Ligand effiencies>  (161) 
[-0.2620512820512821]

>  <Interactions>  (161) 
["H-B:ALA:541:N:9863, V-B:PRO:540:CA:9855, V-B:ALA:541:CB:9864, H-A:TYR:484:OH:4347, V-A:ASP:366:CG:3212, H-A:GLY:454:N:4049, V-A:ASP:366:CB:3211, V-A:TYR:539:CD1:4873, V-A:PRO:540:CA:4883, V-A:PRO:540:CB:4885, V-A:TYR:539:CE1:4875, V-A:TYR:531:CZ:4794, V-B:ASP:366:CG:8184, V-B:ASP:366:CB:8183, V-A:PRO:540:C:4881, V-A:LEU:363:CD1:3188, V-A:GLU:543:CD:4908, H-A:ARG:545:NH2:4928, V-A:TYR:484:CZ:4346, V-B:GLU:543:CG:9879, V-B:GLU:543:CD:9880, H-A:ARG:545:NE:4924, V-A:ARG:545:CZ:4926, H-A:ALA:541:N:4891, V-A:TYR:531:CE2:4793, V-A:LEU:363:CA:3184, V-A:LEU:363:CB:3186, V-A:ASN:362:CB:3175, V-A:ASN:362:C:3171, V-A:ASN:362:CA:3173"]

$$$$
RR27_Rahimova_2017
     RDKit          3D

 39 44  0  0  0  0  0  0  0  0999 V2000
  130.6330  122.1940   59.3240 O   0  0  0  0  0  0  0  0  0  0  0  0
  129.6280  122.7700   59.7490 C   0  0  0  0  0  0  0  0  0  0  0  0
  128.9870  123.8830   58.8680 C   0  0  0  0  0  0  0  0  0  0  0  0
  127.6870  123.4330   58.1770 C   0  0  0  0  0  0  0  0  0  0  0  0
  126.4680  124.0980   58.3870 C   0  0  0  0  0  0  0  0  0  0  0  0
  125.3120  123.6660   57.7440 C   0  0  0  0  0  0  0  0  0  0  0  0
  125.3670  122.5680   56.8890 C   0  0  0  0  0  0  0  0  0  0  0  0
  126.5670  121.8970   56.6740 C   0  0  0  0  0  0  0  0  0  0  0  0
  127.7240  122.3290   57.3170 C   0  0  0  0  0  0  0  0  0  0  0  0
  130.0230  124.5420   57.9370 C   0  0  0  0  0  0  0  0  0  0  0  0
  131.3630  124.6940   58.3160 C   0  0  0  0  0  0  0  0  0  0  0  0
  132.2710  125.3050   57.4540 C   0  0  0  0  0  0  0  0  0  0  0  0
  131.8410  125.7700   56.2150 C   0  0  0  0  0  0  0  0  0  0  0  0
  130.5100  125.6360   55.8300 C   0  0  0  0  0  0  0  0  0  0  0  0
  129.6030  125.0260   56.6920 C   0  0  0  0  0  0  0  0  0  0  0  0
  128.9910  122.3560   60.8810 N   0  0  0  0  0  0  0  0  0  0  0  0
  127.9570  123.1460   61.5650 C   0  0  0  0  0  0  0  0  0  0  0  0
  128.6890  124.0870   62.5480 C   0  0  0  0  0  0  0  0  0  0  0  0
  129.6280  123.3180   63.5320 C   0  0  0  0  0  0  0  0  0  0  0  0
  130.4670  124.2170   64.4590 C   0  0  0  0  0  0  0  0  0  0  0  0
  131.8090  124.2560   64.2140 N   0  0  0  0  0  0  0  0  0  0  0  0
  132.5930  125.0570   64.9880 C   0  0  0  0  0  0  0  0  0  0  0  0
  133.9490  125.1840   64.8370 O   0  0  0  0  0  0  0  0  0  0  0  0
  131.9860  125.8110   66.0110 C   0  0  0  0  0  0  0  0  0  0  0  0
  132.4610  126.6910   66.9390 N   0  0  0  0  0  0  0  0  0  0  0  0
  131.3820  127.1150   67.6920 N   0  0  0  0  0  0  0  0  0  0  0  0
  130.2650  126.5130   67.2310 N   0  0  0  0  0  0  0  0  0  0  0  0
  128.9730  126.7630   67.8660 C   0  0  0  0  0  0  0  0  0  0  0  0
  129.0660  127.0250   69.3630 C   0  0  0  0  0  0  0  0  0  0  0  0
  129.4430  128.2860   69.8350 C   0  0  0  0  0  0  0  0  0  0  0  0
  129.5180  128.5290   71.2070 C   0  0  0  0  0  0  0  0  0  0  0  0
  129.2120  127.5140   72.1140 C   0  0  0  0  0  0  0  0  0  0  0  0
  128.8260  126.2560   71.6490 C   0  0  0  0  0  0  0  0  0  0  0  0
  128.4200  125.0060   72.7700 Cl  0  0  0  0  0  0  0  0  0  0  0  0
  128.7580  126.0110   70.2780 C   0  0  0  0  0  0  0  0  0  0  0  0
  130.5910  125.6780   66.1760 C   0  0  0  0  0  0  0  0  0  0  0  0
  129.8010  124.8950   65.4370 N   0  0  0  0  0  0  0  0  0  0  0  0
  130.4690  122.2270   62.8010 C   0  0  0  0  0  0  0  0  0  0  0  0
  129.6420  121.3970   61.7870 C   0  0  0  0  0  0  0  0  0  0  0  0
  1  2  2  0
  2  3  1  0
  3  4  1  0
  4  5  2  0
  5  6  1  0
  6  7  2  0
  7  8  1  0
  8  9  2  0
  3 10  1  0
 10 11  2  0
 11 12  1  0
 12 13  2  0
 13 14  1  0
 14 15  2  0
  2 16  1  0
 16 17  1  0
 17 18  1  0
 18 19  1  0
 19 20  1  0
 20 21  2  0
 21 22  1  0
 22 23  1  0
 22 24  2  0
 24 25  1  0
 25 26  2  0
 26 27  1  0
 27 28  1  0
 28 29  1  0
 29 30  2  0
 30 31  1  0
 31 32  2  0
 32 33  1  0
 33 34  1  0
 33 35  2  0
 27 36  1  0
 36 37  2  0
 19 38  1  0
 38 39  1  0
  9  4  1  0
 15 10  1  0
 39 16  1  0
 37 20  1  0
 36 24  1  0
 35 29  1  0
M  END
>  <Binding energies>  (162) 
[-10.99]

>  <Ligand effiencies>  (162) 
[-0.27475]

>  <Interactions>  (162) 
["V-B:PRO:540:CB:9857, V-B:MET:535:CE:9807, V-B:PRO:540:N:9856, V-A:LEU:475:CD1:4257, V-B:PRO:540:CA:9855, V-B:ALA:541:CB:9864, V-B:TYR:539:CE2:9848, V-B:TYR:539:C:9839, V-B:TYR:531:CE2:9765, V-B:LEU:363:CD1:8160, V-B:TYR:539:CA:9841, H-A:TYR:484:OH:4347, V-A:ASP:366:CG:3212, H-A:GLY:454:N:4049, V-B:PRO:540:CD:9859, V-A:ASP:366:CA:3209, V-A:ASP:366:CB:3211, V-B:TYR:539:CZ:9849, H-A:ARG:545:NH2:4928, V-A:GLU:543:C:4902, V-B:HIS:456:CE1:9041, V-A:HIS:456:CE1:4069, V-B:GLU:543:CB:9878, V-B:GLU:543:CG:9879, V-B:GLU:543:CD:9880, H-A:ARG:545:NE:4924, V-A:ARG:545:CZ:4926, H-A:ARG:545:NH1:4927, V-B:GLU:543:C:9874, V-B:ALA:541:CA:9862, V-B:HIS:456:CD2:9039, V-B:GLY:544:CA:9886"]

$$$$
RR28_Rahimova_2017
     RDKit          3D

 46 49  0  0  0  0  0  0  0  0999 V2000
  130.6040  119.3970   61.1280 C   0  0  0  0  0  0  0  0  0  0  0  0
  130.5540  120.9210   61.1550 C   0  0  0  0  0  0  0  0  0  0  0  0
  131.5230  121.5530   61.5730 O   0  0  0  0  0  0  0  0  0  0  0  0
  129.4170  121.4890   60.7070 N   0  0  0  0  0  0  0  0  0  0  0  0
  129.0830  122.9300   60.6250 C   0  0  0  0  0  0  0  0  0  0  0  0
  129.4850  123.6000   61.9700 C   0  0  0  0  0  0  0  0  0  0  0  0
  129.1430  122.9750   63.1790 C   0  0  0  0  0  0  0  0  0  0  0  0
  129.4830  123.5470   64.4010 C   0  0  0  0  0  0  0  0  0  0  0  0
  130.1730  124.7600   64.4420 C   0  0  0  0  0  0  0  0  0  0  0  0
  130.5330  125.3760   65.7940 C   0  0  0  0  0  0  0  0  0  0  0  0
  130.2270  124.5730   66.8150 F   0  0  0  0  0  0  0  0  0  0  0  0
  131.8400  125.6340   65.8510 F   0  0  0  0  0  0  0  0  0  0  0  0
  129.8630  126.5190   65.9470 F   0  0  0  0  0  0  0  0  0  0  0  0
  130.5180  125.3930   63.2450 C   0  0  0  0  0  0  0  0  0  0  0  0
  130.1770  124.8190   62.0230 C   0  0  0  0  0  0  0  0  0  0  0  0
  127.5700  123.1240   60.2500 C   0  0  0  0  0  0  0  0  0  0  0  0
  127.2220  122.6200   58.8260 C   0  0  0  0  0  0  0  0  0  0  0  0
  128.0790  123.3720   57.8960 N   0  0  0  0  0  0  0  0  0  0  0  0
  127.6240  124.5150   57.3140 C   0  0  0  0  0  0  0  0  0  0  0  0
  126.4470  124.8700   57.4010 O   0  0  0  0  0  0  0  0  0  0  0  0
  128.5710  125.3060   56.3780 C   0  0  0  0  0  0  0  0  0  0  0  0
  129.5120  126.3290   57.0720 C   0  0  0  0  0  0  0  0  0  0  0  0
  128.8600  127.6850   57.4270 C   0  0  0  0  0  0  0  0  0  0  0  0
  128.7710  128.5350   56.5360 O   0  0  0  0  0  0  0  0  0  0  0  0
  128.2850  127.8600   58.6510 N   0  0  0  0  0  0  0  0  0  0  0  0
  128.6220  127.0450   59.8240 C   0  0  0  0  0  0  0  0  0  0  0  0
  129.8630  127.6970   60.4720 C   0  0  0  0  0  0  0  0  0  0  0  0
  129.6840  129.2050   60.8630 C   0  0  0  0  0  0  0  0  0  0  0  0
  131.0140  129.8100   61.0850 N   0  0  0  0  0  0  0  0  0  0  0  0
  131.3280  131.1180   61.1810 C   0  0  0  0  0  0  0  0  0  0  0  0
  132.8030  131.4450   61.3950 C   0  0  0  0  0  0  0  0  0  0  0  0
  130.5070  132.0310   61.1040 O   0  0  0  0  0  0  0  0  0  0  0  0
  128.9130  129.2480   62.2220 C   0  0  0  0  0  0  0  0  0  0  0  0
  128.4960  130.4470   62.8240 C   0  0  0  0  0  0  0  0  0  0  0  0
  127.8110  130.4410   64.0360 C   0  0  0  0  0  0  0  0  0  0  0  0
  127.5280  129.2350   64.6800 C   0  0  0  0  0  0  0  0  0  0  0  0
  126.7730  129.2120   66.0090 C   0  0  0  0  0  0  0  0  0  0  0  0
  126.9650  128.0510   66.6380 F   0  0  0  0  0  0  0  0  0  0  0  0
  127.2250  130.1960   66.7850 F   0  0  0  0  0  0  0  0  0  0  0  0
  125.4600  129.3780   65.8440 F   0  0  0  0  0  0  0  0  0  0  0  0
  127.9430  128.0360   64.1000 C   0  0  0  0  0  0  0  0  0  0  0  0
  128.6270  128.0450   62.8880 C   0  0  0  0  0  0  0  0  0  0  0  0
  128.9280  129.9520   59.6970 C   0  0  0  0  0  0  0  0  0  0  0  0
  127.7570  129.1750   59.0360 C   0  0  0  0  0  0  0  0  0  0  0  0
  129.5110  123.0810   58.0580 C   0  0  0  0  0  0  0  0  0  0  0  0
  129.9190  123.5740   59.4700 C   0  0  0  0  0  0  0  0  0  0  0  0
  1  2  1  0
  2  3  2  0
  2  4  1  0
  4  5  1  0
  5  6  1  0
  6  7  2  0
  7  8  1  0
  8  9  2  0
  9 10  1  0
 10 11  1  0
 10 12  1  0
 10 13  1  0
  9 14  1  0
 14 15  2  0
  5 16  1  0
 16 17  1  0
 17 18  1  0
 18 19  1  0
 19 20  2  0
 19 21  1  0
 21 22  1  0
 22 23  1  0
 23 24  2  0
 23 25  1  0
 25 26  1  0
 26 27  1  0
 27 28  1  0
 28 29  1  0
 29 30  1  0
 30 31  1  0
 30 32  2  0
 28 33  1  0
 33 34  2  0
 34 35  1  0
 35 36  2  0
 36 37  1  0
 37 38  1  0
 37 39  1  0
 37 40  1  0
 36 41  1  0
 41 42  2  0
 28 43  1  0
 43 44  1  0
 18 45  1  0
 45 46  1  0
 46  5  1  0
 15  6  1  0
 44 25  1  0
 42 33  1  0
M  END
>  <Binding energies>  (163) 
[-8.56]

>  <Ligand effiencies>  (163) 
[-0.17833333333333334]

>  <Interactions>  (163) 
["V-B:PRO:540:CB:9857, H-B:TYR:531:OH:9767, V-B:MET:535:CE:9807, V-B:TYR:539:CD2:9846, V-B:PRO:540:N:9856, V-B:PRO:540:CA:9855, V-B:ALA:541:CB:9864, V-B:TYR:539:CE2:9848, V-B:TYR:539:C:9839, V-A:PRO:540:CA:4883, V-A:PRO:540:CB:4885, V-B:ARG:545:CZ:9898, V-A:PRO:540:C:4881, V-A:GLU:543:CG:4907, V-A:GLU:543:CD:4908, H-A:ASP:366:OD2:3214, V-B:TYR:539:CZ:9849, H-B:TYR:539:O:9840, V-B:HIS:456:CE1:9041, V-A:TYR:484:CZ:4346, V-B:GLU:543:CB:9878, V-B:GLU:543:CG:9879, V-B:GLU:543:CD:9880, V-A:TYR:484:CE2:4345, H-A:ALA:541:N:4891, V-B:TYR:484:CZ:9318, V-B:TYR:484:CE2:9317, H-A:GLU:543:OE2:4910, V-A:ASN:362:CB:3175"]

$$$$
RR29_Rahimova_2017
     RDKit          3D

 18 19  0  0  0  0  0  0  0  0999 V2000
  126.5080  126.3360   59.5640 C   0  0  0  0  0  0  0  0  0  0  0  0
  126.8510  126.1110   61.0290 C   0  0  0  0  0  0  0  0  0  0  0  0
  126.6230  124.6520   61.4840 C   0  0  0  0  0  0  0  0  0  0  0  0
  127.7740  123.7270   61.0350 C   0  0  0  0  0  0  0  0  0  0  0  0
  127.5420  123.1490   59.6480 C   0  0  0  0  0  0  0  0  0  0  0  0
  128.6190  122.5970   58.9270 C   0  0  0  0  0  0  0  0  0  0  0  0
  128.4270  122.0580   57.6470 C   0  0  0  0  0  0  0  0  0  0  0  0
  127.1420  122.1010   57.1170 C   0  0  0  0  0  0  0  0  0  0  0  0
  126.0950  122.6380   57.8110 C   0  0  0  0  0  0  0  0  0  0  0  0
  126.2530  123.1700   59.0860 C   0  0  0  0  0  0  0  0  0  0  0  0
  124.9590  122.5170   57.0740 O   0  0  0  0  0  0  0  0  0  0  0  0
  125.3740  122.0810   55.8070 C   0  0  0  0  0  0  0  0  0  0  0  0
  126.6960  121.6270   55.9240 O   0  0  0  0  0  0  0  0  0  0  0  0
  127.2700  127.1050   61.7220 N   0  0  0  0  0  0  0  0  0  0  0  0
  127.4990  126.9230   63.0680 N   0  0  0  0  0  0  0  0  0  0  0  0
  128.7030  127.0520   63.6490 C   0  0  0  0  0  0  0  0  0  0  0  0
  129.8250  127.3900   63.0120 N   0  0  0  0  0  0  0  0  0  0  0  0
  128.7850  126.8300   64.9530 N   0  0  0  0  0  0  0  0  0  0  0  0
  1  2  1  0
  2  3  1  0
  3  4  1  0
  4  5  1  0
  5  6  2  0
  6  7  1  0
  7  8  2  0
  8  9  1  0
  9 10  2  0
  9 11  1  0
 11 12  1  0
 12 13  1  0
  2 14  2  0
 14 15  1  0
 15 16  1  0
 16 17  1  0
 16 18  2  0
 10  5  1  0
 13  8  1  0
M  CHG  1  18   1
M  END
>  <Binding energies>  (164) 
[-7.68]

>  <Ligand effiencies>  (164) 
[-0.33391304347826084]

>  <Interactions>  (164) 
["V-B:PRO:540:CB:9857, V-B:MET:535:CE:9807, V-B:TYR:539:CD2:9846, V-B:PRO:540:N:9856, V-B:PRO:540:CA:9855, H-B:TYR:539:N:9842, V-B:TYR:539:CE2:9848, V-B:TYR:539:C:9839, V-B:LEU:363:CD1:8160, V-B:TYR:539:CA:9841, V-B:PRO:540:CD:9859, V-B:ASP:366:CG:8184, V-A:GLU:543:CD:4908, V-B:TYR:539:CZ:9849, V-B:TYR:539:CG:9844, V-B:TYR:539:CE1:9847, H-B:GLU:543:OE1:9881, V-B:GLU:543:CD:9880, H-B:GLU:543:OE2:9882, V-B:TYR:539:CD1:9845, V-B:ILE:538:CG2:9835, H-A:GLU:543:OE1:4909, H-A:GLU:543:OE2:4910"]

$$$$
RR30_Rahimova_2017
     RDKit          3D

 18 19  0  0  0  0  0  0  0  0999 V2000
  129.1030  132.1480   60.3780 C   0  0  0  0  0  0  0  0  0  0  0  0
  130.1260  131.2440   61.0810 C   0  0  0  0  0  0  0  0  0  0  0  0
  131.4020  131.0940   60.2820 C   0  0  0  0  0  0  0  0  0  0  0  0
  132.6330  131.3180   60.6710 N   0  0  0  0  0  0  0  0  0  0  0  0
  133.4380  131.0420   59.5680 N   0  0  0  0  0  0  0  0  0  0  0  0
  132.6240  130.6860   58.6070 C   0  0  0  0  0  0  0  0  0  0  0  0
  133.0480  130.2020   56.9640 S   0  0  0  0  0  0  0  0  0  0  0  0
  132.3520  131.6050   56.0350 C   0  0  0  0  0  0  0  0  0  0  0  0
  130.8230  131.6400   56.1000 C   0  0  0  0  0  0  0  0  0  0  0  0
  130.2650  132.5800   56.6700 O   0  0  0  0  0  0  0  0  0  0  0  0
  130.1840  130.5890   55.5380 N   0  0  0  0  0  0  0  0  0  0  0  0
  128.8120  130.3970   55.4750 C   0  0  0  0  0  0  0  0  0  0  0  0
  128.0200  130.5180   54.4330 N   0  0  0  0  0  0  0  0  0  0  0  0
  126.6930  130.2480   54.7440 N   0  0  0  0  0  0  0  0  0  0  0  0
  126.5080  129.9300   56.0050 C   0  0  0  0  0  0  0  0  0  0  0  0
  125.1520  129.5970   56.5840 C   0  0  0  0  0  0  0  0  0  0  0  0
  127.9850  129.9350   56.9300 S   0  0  0  0  0  0  0  0  0  0  0  0
  131.3220  130.6920   58.9890 O   0  0  0  0  0  0  0  0  0  0  0  0
  1  2  1  0
  2  3  1  0
  3  4  2  0
  4  5  1  0
  5  6  2  0
  6  7  1  0
  7  8  1  0
  8  9  1  0
  9 10  2  0
  9 11  1  0
 11 12  1  0
 12 13  2  0
 13 14  1  0
 14 15  2  0
 15 16  1  0
 15 17  1  0
  6 18  1  0
 18  3  1  0
 17 12  1  0
M  END
>  <Binding energies>  (165) 
[-6.82]

>  <Ligand effiencies>  (165) 
[-0.3589473684210526]

>  <Interactions>  (165) 
["H-B:TYR:531:OH:9767, V-B:TYR:531:CZ:9766, V-A:ASP:366:CG:3212, V-A:PRO:540:CA:4883, H-A:TYR:531:OH:4795, H-A:TYR:539:N:4870, V-A:TYR:539:CZ:4877, V-A:PRO:540:CB:4885, V-A:TYR:539:CE1:4875, V-B:TYR:531:CE1:9764, H-B:LYS:534:NZ:9795, V-A:TYR:539:C:4867, V-A:LEU:363:CD1:3188, H-A:TYR:539:OH:4878, V-A:TYR:531:CE2:4793, H-A:LEU:363:N:3185"]

$$$$
RR31_Rahimova_2017
     RDKit          3D

 18 19  0  0  0  0  0  0  0  0999 V2000
  125.6190  122.4730   56.3940 C   0  0  0  0  0  0  0  0  0  0  0  0
  126.3370  122.7940   57.6990 C   0  0  0  0  0  0  0  0  0  0  0  0
  127.6580  122.3790   57.8680 C   0  0  0  0  0  0  0  0  0  0  0  0
  128.3430  122.6600   59.0480 C   0  0  0  0  0  0  0  0  0  0  0  0
  127.7300  123.3710   60.0920 C   0  0  0  0  0  0  0  0  0  0  0  0
  128.4000  123.6510   61.2850 N   0  0  0  0  0  0  0  0  0  0  0  0
  128.6330  125.0340   61.7450 C   0  0  0  0  0  0  0  0  0  0  0  0
  129.7220  125.1610   62.8370 C   0  0  0  0  0  0  0  0  0  0  0  0
  129.4110  124.3080   63.9870 N   0  0  0  0  0  0  0  0  0  0  0  0
  130.4080  124.4330   65.0550 C   0  0  0  0  0  0  0  0  0  0  0  0
  129.7770  124.6450   66.4460 C   0  0  0  0  0  0  0  0  0  0  0  0
  129.5430  126.1320   66.7590 C   0  0  0  0  0  0  0  0  0  0  0  0
  128.7500  126.7880   65.6230 N   0  0  0  0  0  0  0  0  0  0  0  0
  129.3730  122.9260   63.5090 C   0  0  0  0  0  0  0  0  0  0  0  0
  128.2680  122.7450   62.4430 C   0  0  0  0  0  0  0  0  0  0  0  0
  126.3980  123.7740   59.9120 C   0  0  0  0  0  0  0  0  0  0  0  0
  125.6990  123.4970   58.7320 C   0  0  0  0  0  0  0  0  0  0  0  0
  124.2530  123.9600   58.6000 C   0  0  0  0  0  0  0  0  0  0  0  0
  1  2  1  0
  2  3  2  0
  3  4  1  0
  4  5  2  0
  5  6  1  0
  6  7  1  0
  7  8  1  0
  8  9  1  0
  9 10  1  0
 10 11  1  0
 11 12  1  0
 12 13  1  0
  9 14  1  0
 14 15  1  0
  5 16  1  0
 16 17  2  0
 17 18  1  0
 17  2  1  0
 15  6  1  0
M  CHG  1  13   1
M  END
>  <Binding energies>  (166) 
[-6.9]

>  <Ligand effiencies>  (166) 
[-0.32857142857142857]

>  <Interactions>  (166) 
["V-B:PRO:540:CB:9857, V-B:MET:535:CE:9807, V-B:PRO:540:N:9856, V-B:PRO:540:CA:9855, V-B:ALA:541:CB:9864, V-B:TYR:539:C:9839, V-B:LEU:363:CD1:8160, V-B:PRO:540:CD:9859, V-A:GLU:543:CD:4908, V-B:LEU:363:CA:8156, V-A:TYR:484:CZ:4346, V-B:GLU:543:CB:9878, V-B:GLU:543:CG:9879, V-B:GLU:543:CD:9880, H-B:GLU:543:OE2:9882, V-A:TYR:484:CE2:4345, H-A:GLU:543:OE1:4909, V-B:ALA:541:CA:9862, V-B:LEU:363:CB:8158"]

$$$$
RR32_Rahimova_2017
     RDKit          3D

 18 20  0  0  0  0  0  0  0  0999 V2000
  130.2140  131.5270   56.5560 C   0  0  0  0  0  0  0  0  0  0  0  0
  130.2070  131.5850   58.0800 C   0  0  0  0  0  0  0  0  0  0  0  0
  129.0000  131.8560   58.7250 C   0  0  0  0  0  0  0  0  0  0  0  0
  128.9550  131.9130   60.1150 C   0  0  0  0  0  0  0  0  0  0  0  0
  127.7550  132.1820   60.7510 N   0  0  0  0  0  0  0  0  0  0  0  0
  127.6270  133.4840   61.4290 C   0  0  0  0  0  0  0  0  0  0  0  0
  126.3280  133.6150   62.2590 C   0  0  0  0  0  0  0  0  0  0  0  0
  125.1590  133.4190   61.4020 N   0  0  0  0  0  0  0  0  0  0  0  0
  123.9330  133.5740   62.1770 C   0  0  0  0  0  0  0  0  0  0  0  0
  125.2350  132.0720   60.8380 C   0  0  0  0  0  0  0  0  0  0  0  0
  126.5190  131.9160   59.9900 C   0  0  0  0  0  0  0  0  0  0  0  0
  130.0520  131.7180   60.8920 N   0  0  0  0  0  0  0  0  0  0  0  0
  131.2450  131.4550   60.2920 C   0  0  0  0  0  0  0  0  0  0  0  0
  132.3720  131.2580   61.1260 C   0  0  0  0  0  0  0  0  0  0  0  0
  133.6170  130.9860   60.5690 C   0  0  0  0  0  0  0  0  0  0  0  0
  133.7690  130.9040   59.1900 C   0  0  0  0  0  0  0  0  0  0  0  0
  132.6810  131.0930   58.3420 C   0  0  0  0  0  0  0  0  0  0  0  0
  131.3870  131.3740   58.8680 C   0  0  0  0  0  0  0  0  0  0  0  0
  1  2  1  0
  2  3  2  0
  3  4  1  0
  4  5  1  0
  5  6  1  0
  6  7  1  0
  7  8  1  0
  8  9  1  0
  8 10  1  0
 10 11  1  0
  4 12  2  0
 12 13  1  0
 13 14  2  0
 14 15  1  0
 15 16  2  0
 16 17  1  0
 17 18  2  0
 18  2  1  0
 11  5  1  0
 18 13  1  0
M  END
>  <Binding energies>  (167) 
[-6.52]

>  <Ligand effiencies>  (167) 
[-0.3622222222222222]

>  <Interactions>  (167) 
["V-A:ASP:366:CG:3212, V-A:PRO:540:N:4884, V-A:ASP:366:CB:3211, V-A:TYR:539:CD1:4873, V-A:PRO:540:CA:4883, V-A:PRO:540:CB:4885, V-A:TYR:539:CE1:4875, V-A:ALA:541:CB:4892, V-A:PRO:540:C:4881, V-A:TYR:539:C:4867, V-A:LEU:363:CD1:3188, V-B:ILE:369:CD1:8210, V-B:GLY:454:CA:9020, H-A:ALA:541:N:4891, V-A:LEU:363:CA:3184, V-A:LEU:363:CB:3186, V-B:LEU:475:CD1:9229, V-B:ILE:369:CG2:8208, V-A:ASN:362:CB:3175, V-A:ASN:362:C:3171"]

$$$$
RR5_Rahimova_2017
     RDKit          3D

 45 50  0  0  0  0  0  0  0  0999 V2000
  127.9830  131.6760   58.6820 O   0  0  0  0  0  0  0  0  0  0  0  0
  127.8470  130.5440   59.1430 C   0  0  0  0  0  0  0  0  0  0  0  0
  126.7040  130.2560   60.1350 C   0  0  0  0  0  0  0  0  0  0  0  0
  125.6490  129.2180   59.6100 C   0  0  2  0  0  0  0  0  0  0  0  0
  126.0180  127.8020   59.8030 N   0  0  0  0  0  0  0  0  0  0  0  0
  127.0540  127.4290   60.6490 C   0  0  0  0  0  0  0  0  0  0  0  0
  127.7370  128.1780   61.3520 O   0  0  0  0  0  0  0  0  0  0  0  0
  127.2080  126.0960   60.5680 O   0  0  0  0  0  0  0  0  0  0  0  0
  126.8260  125.2370   61.6390 C   0  0  0  0  0  0  0  0  0  0  0  0
  126.7370  123.7710   61.1620 C   0  0  0  0  0  0  0  0  0  0  0  0
  126.3240  123.6270   59.7080 C   0  0  0  0  0  0  0  0  0  0  0  0
  125.1710  124.0820   59.0620 C   0  0  0  0  0  0  0  0  0  0  0  0
  125.0050  123.8550   57.6950 C   0  0  0  0  0  0  0  0  0  0  0  0
  125.9860  123.1740   56.9730 C   0  0  0  0  0  0  0  0  0  0  0  0
  127.1380  122.7160   57.6160 C   0  0  0  0  0  0  0  0  0  0  0  0
  127.3010  122.9430   58.9840 C   0  0  0  0  0  0  0  0  0  0  0  0
  128.3890  122.5720   59.9040 C   0  0  0  0  0  0  0  0  0  0  0  0
  129.5790  121.8750   59.6860 C   0  0  0  0  0  0  0  0  0  0  0  0
  130.4430  121.6340   60.7550 C   0  0  0  0  0  0  0  0  0  0  0  0
  130.1190  122.0900   62.0350 C   0  0  0  0  0  0  0  0  0  0  0  0
  128.9310  122.7900   62.2470 C   0  0  0  0  0  0  0  0  0  0  0  0
  128.0650  123.0360   61.1790 C   0  0  0  0  0  0  0  0  0  0  0  0
  125.3220  129.4740   58.1180 C   0  0  0  0  0  0  0  0  0  0  0  0
  125.0410  130.5570   57.6470 O   0  0  0  0  0  0  0  0  0  0  0  0
  125.4180  128.3040   57.4200 O   0  0  0  0  0  0  0  0  0  0  0  0
  128.6200  129.4830   58.8220 N   0  0  0  0  0  0  0  0  0  0  0  0
  129.8020  129.3060   57.9260 C   0  0  0  0  0  0  0  0  0  0  0  0
  129.3910  130.1490   56.6720 C   0  0  0  0  0  0  0  0  0  0  0  0
  129.9670  131.4030   56.4100 C   0  0  0  0  0  0  0  0  0  0  0  0
  129.5950  132.1430   55.2910 C   0  0  0  0  0  0  0  0  0  0  0  0
  128.6310  131.6460   54.4200 C   0  0  0  0  0  0  0  0  0  0  0  0
  128.0440  130.4070   54.6540 C   0  0  0  0  0  0  0  0  0  0  0  0
  128.4250  129.6640   55.7670 C   0  0  0  0  0  0  0  0  0  0  0  0
  131.0450  129.9010   58.6690 C   0  0  0  0  0  0  0  0  0  0  0  0
  130.9830  130.2880   60.0170 C   0  0  0  0  0  0  0  0  0  0  0  0
  132.0960  130.8340   60.6530 C   0  0  0  0  0  0  0  0  0  0  0  0
  133.2830  131.0010   59.9490 C   0  0  0  0  0  0  0  0  0  0  0  0
  133.3700  130.6220   58.6140 C   0  0  0  0  0  0  0  0  0  0  0  0
  132.2610  130.0690   57.9830 C   0  0  0  0  0  0  0  0  0  0  0  0
  129.8940  127.7720   57.6250 C   0  0  0  0  0  0  0  0  0  0  0  0
  128.7530  126.9520   57.6890 C   0  0  0  0  0  0  0  0  0  0  0  0
  128.8300  125.5860   57.4300 C   0  0  0  0  0  0  0  0  0  0  0  0
  130.0530  125.0160   57.0950 C   0  0  0  0  0  0  0  0  0  0  0  0
  131.1950  125.8030   57.0100 C   0  0  0  0  0  0  0  0  0  0  0  0
  131.1140  127.1680   57.2690 C   0  0  0  0  0  0  0  0  0  0  0  0
  1  2  2  0
  2  3  1  0
  4  3  1  6
  4  5  1  0
  5  6  1  0
  6  7  2  0
  6  8  1  0
  8  9  1  0
  9 10  1  0
 10 11  1  0
 11 12  2  0
 12 13  1  0
 13 14  2  0
 14 15  1  0
 15 16  2  0
 16 17  1  0
 17 18  2  0
 18 19  1  0
 19 20  2  0
 20 21  1  0
 21 22  2  0
  4 23  1  0
 23 24  2  0
 23 25  1  0
  2 26  1  0
 26 27  1  0
 27 28  1  0
 28 29  2  0
 29 30  1  0
 30 31  2  0
 31 32  1  0
 32 33  2  0
 27 34  1  0
 34 35  2  0
 35 36  1  0
 36 37  2  0
 37 38  1  0
 38 39  2  0
 27 40  1  0
 40 41  2  0
 41 42  1  0
 42 43  2  0
 43 44  1  0
 44 45  2  0
 22 10  1  0
 33 28  1  0
 39 34  1  0
 45 40  1  0
 16 11  1  0
 22 17  1  0
M  END
>  <Binding energies>  (168) 
[-10.12]

>  <Ligand effiencies>  (168) 
[-0.21083333333333332]

>  <Interactions>  (168) 
["V-B:PRO:540:CB:9857, H-B:TYR:531:OH:9767, V-B:MET:535:CE:9807, V-B:TYR:539:CD2:9846, V-B:PRO:540:N:9856, V-B:PRO:540:CA:9855, V-B:ALA:541:CB:9864, V-B:TYR:539:CE2:9848, V-B:TYR:539:C:9839, V-B:TYR:531:CE2:9765, V-B:LEU:363:CD1:8160, V-A:ASP:366:CG:3212, V-A:ILE:538:CA:4860, V-A:ASP:366:CB:3211, V-A:ILE:538:CG2:4863, V-A:TYR:539:CE2:4876, V-A:PRO:540:CA:4883, V-A:TYR:539:CZ:4877, V-A:PRO:540:CB:4885, V-A:TYR:539:CE1:4875, V-A:ILE:538:CB:4862, V-B:ASP:366:CG:8184, V-B:ASP:366:CB:8183, V-A:LEU:363:CD1:3188, V-B:TYR:539:CZ:9849, H-A:TYR:539:OH:4878, V-B:GLU:543:CD:9880, V-A:ILE:538:C:4858, V-A:LEU:363:CA:3184, H-B:ASP:366:OD1:8185, V-A:ASN:362:C:3171"]

$$$$
