1a_Grossjean_2025
     RDKit          3D

 26 27  0  0  0  0  0  0  0  0999 V2000
  130.1540  132.3930   73.2760 C   0  0  0  0  0  0  0  0  0  0  0  0
  129.2970  131.1330   73.4230 C   0  0  0  0  0  0  0  0  0  0  0  0
  130.0460  129.9990   73.0050 O   0  0  0  0  0  0  0  0  0  0  0  0
  129.4630  128.7770   72.8910 C   0  0  0  0  0  0  0  0  0  0  0  0
  128.8860  128.2100   73.8240 O   0  0  0  0  0  0  0  0  0  0  0  0
  129.6030  128.1780   71.5220 C   0  0  0  0  0  0  0  0  0  0  0  0
  130.8270  128.2910   70.8490 C   0  0  0  0  0  0  0  0  0  0  0  0
  130.9870  127.7500   69.5770 C   0  0  0  0  0  0  0  0  0  0  0  0
  129.9310  127.0870   68.9500 C   0  0  0  0  0  0  0  0  0  0  0  0
  130.2040  126.5820   67.6640 N   0  0  0  0  0  0  0  0  0  0  0  0
  130.0910  125.3260   67.1830 C   0  0  0  0  0  0  0  0  0  0  0  0
  129.7060  124.3470   67.8220 O   0  0  0  0  0  0  0  0  0  0  0  0
  130.4860  125.1480   65.7150 C   0  0  0  0  0  0  0  0  0  0  0  0
  130.2490  123.4390   65.1440 S   0  0  0  0  0  0  0  0  0  0  0  0
  130.8740  123.3400   63.4810 C   0  0  0  0  0  0  0  0  0  0  0  0
  129.9720  122.8710   62.5840 N   0  0  0  0  0  0  0  0  0  0  0  0
  130.3450  122.7490   61.2880 C   0  0  0  0  0  0  0  0  0  0  0  0
  129.2880  122.2060   60.3450 C   0  0  0  0  0  0  0  0  0  0  0  0
  131.6160  123.0970   60.8360 C   0  0  0  0  0  0  0  0  0  0  0  0
  132.5480  123.6020   61.7500 C   0  0  0  0  0  0  0  0  0  0  0  0
  133.9300  123.9910   61.2290 C   0  0  0  0  0  0  0  0  0  0  0  0
  132.1790  123.7400   63.1080 C   0  0  0  0  0  0  0  0  0  0  0  0
  133.1220  124.3120   64.0730 C   0  0  0  0  0  0  0  0  0  0  0  0
  133.8680  124.7640   64.8340 N   0  0  0  0  0  0  0  0  0  0  0  0
  128.7040  126.9620   69.6200 C   0  0  0  0  0  0  0  0  0  0  0  0
  128.5450  127.5040   70.8920 C   0  0  0  0  0  0  0  0  0  0  0  0
  1  2  1  0
  2  3  1  0
  3  4  1  0
  4  5  2  0
  4  6  1  0
  6  7  2  0
  7  8  1  0
  8  9  2  0
  9 10  1  0
 10 11  1  0
 11 12  2  0
 11 13  1  0
 13 14  1  0
 14 15  1  0
 15 16  2  0
 16 17  1  0
 17 18  1  0
 17 19  2  0
 19 20  1  0
 20 21  1  0
 20 22  2  0
 22 23  1  0
 23 24  3  0
  9 25  1  0
 25 26  2  0
 26  6  1  0
 22 15  1  0
M  END
>  <Binding energies>  (1) 
[-7.91]

>  <Ligand effiencies>  (1) 
[-0.292962962962963]

>  <Interactions>  (1) 
["V-B:TYR:539:CD2:9846, V-A:GLU:543:CD:4908, H-A:GLY:454:N:4050, H-A:TYR:484:OH:4348, V-B:TYR:539:CE2:9848, H-A:ARG:545:NE:4924, V-A:ARG:545:CZ:4926, V-A:LEU:475:CD2:4259, V-B:PRO:540:CA:9855, V-A:ILE:369:CD1:3239, V-A:GLY:454:CA:4049, H-A:GLU:543:OE2:4910, V-B:GLU:543:CB:9878, V-B:GLU:543:CG:9879, V-A:TYR:484:CE2:4346, V-B:HIS:456:CD2:9039, V-A:GLY:544:C:4912, V-A:LYS:547:CE:4950, V-A:HIS:456:CE1:4070, H-B:LYS:547:NZ:9923, V-B:HIS:456:CE1:9041, H-A:LYS:547:NZ:4951, H-A:GLU:543:OE1:4909, H-A:ARG:545:NH2:4928, V-A:GLU:543:CB:4906, V-A:GLU:543:C:4902, V-A:GLY:544:CA:4914"]

$$$$
1aa_Ghoteimi_2023
     RDKit          3D

 40 43  0  0  0  0  0  0  0  0999 V2000
  131.7820  126.5150   74.9680 C   0  0  0  0  0  0  0  0  0  0  0  0
  130.6970  125.8460   74.1190 C   0  0  0  0  0  0  0  0  0  0  0  0
  129.5250  126.6510   74.1280 O   0  0  0  0  0  0  0  0  0  0  0  0
  129.5050  127.8680   73.5270 C   0  0  0  0  0  0  0  0  0  0  0  0
  129.4040  128.9320   74.1460 O   0  0  0  0  0  0  0  0  0  0  0  0
  129.6200  127.7930   72.0310 C   0  0  0  0  0  0  0  0  0  0  0  0
  130.8200  128.0790   71.3630 C   0  0  0  0  0  0  0  0  0  0  0  0
  130.8960  128.0010   69.9740 C   0  0  0  0  0  0  0  0  0  0  0  0
  129.7690  127.6300   69.2270 C   0  0  0  0  0  0  0  0  0  0  0  0
  129.7270  127.5190   67.8250 N   0  0  0  0  0  0  0  0  0  0  0  0
  128.6740  127.5240   66.9760 C   0  0  0  0  0  0  0  0  0  0  0  0
  127.4970  127.6420   67.3160 O   0  0  0  0  0  0  0  0  0  0  0  0
  128.9770  127.3750   65.4770 C   0  0  0  0  0  0  0  0  0  0  0  0
  129.5650  126.0950   65.2090 O   0  0  0  0  0  0  0  0  0  0  0  0
  129.9480  125.7540   63.9190 C   0  0  0  0  0  0  0  0  0  0  0  0
  130.1770  126.7620   63.0320 N   0  0  0  0  0  0  0  0  0  0  0  0
  130.5410  126.4680   61.7560 C   0  0  0  0  0  0  0  0  0  0  0  0
  130.7760  127.6350   60.8400 C   0  0  0  0  0  0  0  0  0  0  0  0
  130.5990  128.9520   61.2890 C   0  0  0  0  0  0  0  0  0  0  0  0
  130.8150  130.0360   60.4420 C   0  0  0  0  0  0  0  0  0  0  0  0
  131.2160  129.8370   59.1230 C   0  0  0  0  0  0  0  0  0  0  0  0
  131.4060  130.9710   58.3560 O   0  0  0  0  0  0  0  0  0  0  0  0
  132.3020  130.9190   57.2510 C   0  0  0  0  0  0  0  0  0  0  0  0
  131.4030  128.5270   58.6610 C   0  0  0  0  0  0  0  0  0  0  0  0
  131.1870  127.4460   59.5110 C   0  0  0  0  0  0  0  0  0  0  0  0
  130.7020  125.1390   61.3480 C   0  0  0  0  0  0  0  0  0  0  0  0
  130.4840  124.0840   62.2440 C   0  0  0  0  0  0  0  0  0  0  0  0
  130.6830  122.6890   61.7500 C   0  0  0  0  0  0  0  0  0  0  0  0
  129.5810  121.8540   61.5390 C   0  0  0  0  0  0  0  0  0  0  0  0
  129.7580  120.5550   61.0700 C   0  0  0  0  0  0  0  0  0  0  0  0
  131.0350  120.0670   60.7960 C   0  0  0  0  0  0  0  0  0  0  0  0
  131.1140  118.7670   60.3340 O   0  0  0  0  0  0  0  0  0  0  0  0
  130.7810  117.6970   61.2110 C   0  0  0  0  0  0  0  0  0  0  0  0
  132.1420  120.9040   60.9990 C   0  0  0  0  0  0  0  0  0  0  0  0
  131.9640  122.2020   61.4690 C   0  0  0  0  0  0  0  0  0  0  0  0
  130.0870  124.4020   63.5640 C   0  0  0  0  0  0  0  0  0  0  0  0
  129.7940  123.3670   64.5570 C   0  0  0  0  0  0  0  0  0  0  0  0
  129.5620  122.5510   65.3430 N   0  0  0  0  0  0  0  0  0  0  0  0
  128.5730  127.3470   69.8890 C   0  0  0  0  0  0  0  0  0  0  0  0
  128.4980  127.4270   71.2760 C   0  0  0  0  0  0  0  0  0  0  0  0
  1  2  1  0
  2  3  1  0
  3  4  1  0
  4  5  2  0
  4  6  1  0
  6  7  2  0
  7  8  1  0
  8  9  2  0
  9 10  1  0
 10 11  1  0
 11 12  2  0
 11 13  1  0
 13 14  1  0
 14 15  1  0
 15 16  2  0
 16 17  1  0
 17 18  1  0
 18 19  2  0
 19 20  1  0
 20 21  2  0
 21 22  1  0
 22 23  1  0
 21 24  1  0
 24 25  2  0
 17 26  2  0
 26 27  1  0
 27 28  1  0
 28 29  2  0
 29 30  1  0
 30 31  2  0
 31 32  1  0
 32 33  1  0
 31 34  1  0
 34 35  2  0
 27 36  2  0
 36 37  1  0
 37 38  3  0
  9 39  1  0
 39 40  2  0
 40  6  1  0
 36 15  1  0
 25 18  1  0
 35 28  1  0
M  END
>  <Binding energies>  (2) 
[-7.42]

>  <Ligand effiencies>  (2) 
[-0.18097560975609756]

>  <Interactions>  (2) 
["V-B:TYR:539:CD2:9846, V-A:GLU:543:CD:4908, H-A:TYR:484:OH:4348, V-B:TYR:539:CE2:9848, V-A:LEU:475:CD2:4259, V-A:TYR:531:CE2:4793, V-A:ASP:366:CB:3212, V-A:TYR:531:CZ:4794, V-A:ASP:366:CG:3213, H-A:GLU:543:OE2:4910, V-B:GLU:543:CB:9878, V-B:GLU:543:CG:9879, V-A:TYR:484:CE2:4346, V-B:GLU:543:CD:9880, V-B:ALA:541:CB:9864, V-B:HIS:456:CD2:9039, V-A:GLY:544:C:4912, V-A:HIS:456:CD2:4068, V-A:HIS:456:CG:4066, V-A:HIS:456:CE1:4070, H-B:LYS:547:NZ:9923, V-B:HIS:456:CE1:9041, H-A:LYS:547:NZ:4951, V-A:GLU:543:CB:4906, V-A:GLU:543:C:4902, V-A:GLU:543:CG:4907, V-B:TYR:539:C:9839, H-A:HIS:383:HE2:3395, H-A:SER:385:OG:3410, V-A:HIS:383:NE2:3394, V-A:LEU:475:CG:4257, V-A:LEU:363:CD1:3189"]

$$$$
1b_Grossjean_2025
     RDKit          3D

 25 26  0  0  0  0  0  0  0  0999 V2000
  131.5640  127.0030   73.5040 C   0  0  0  0  0  0  0  0  0  0  0  0
  130.4340  127.5080   72.8060 O   0  0  0  0  0  0  0  0  0  0  0  0
  129.4620  126.6740   72.3540 C   0  0  0  0  0  0  0  0  0  0  0  0
  129.0420  125.7070   72.9970 O   0  0  0  0  0  0  0  0  0  0  0  0
  128.9420  127.0490   70.9960 C   0  0  0  0  0  0  0  0  0  0  0  0
  129.7250  127.7560   70.0700 C   0  0  0  0  0  0  0  0  0  0  0  0
  129.2120  128.0890   68.8200 C   0  0  0  0  0  0  0  0  0  0  0  0
  127.9130  127.7250   68.4680 C   0  0  0  0  0  0  0  0  0  0  0  0
  127.4990  128.1150   67.1790 N   0  0  0  0  0  0  0  0  0  0  0  0
  127.7170  129.2660   66.5070 C   0  0  0  0  0  0  0  0  0  0  0  0
  128.3580  130.2290   66.9260 O   0  0  0  0  0  0  0  0  0  0  0  0
  127.1080  129.3320   65.1060 C   0  0  0  0  0  0  0  0  0  0  0  0
  125.2980  129.4970   65.1520 S   0  0  0  0  0  0  0  0  0  0  0  0
  124.8340  130.6170   63.8490 C   0  0  0  0  0  0  0  0  0  0  0  0
  123.6220  130.3480   63.3020 N   0  0  0  0  0  0  0  0  0  0  0  0
  123.1690  131.1390   62.3020 C   0  0  0  0  0  0  0  0  0  0  0  0
  121.8000  130.7880   61.7500 C   0  0  0  0  0  0  0  0  0  0  0  0
  123.9030  132.2140   61.8030 C   0  0  0  0  0  0  0  0  0  0  0  0
  125.1630  132.4860   62.3450 C   0  0  0  0  0  0  0  0  0  0  0  0
  125.9560  133.6590   61.7710 C   0  0  0  0  0  0  0  0  0  0  0  0
  125.6570  131.6730   63.3900 C   0  0  0  0  0  0  0  0  0  0  0  0
  126.9920  131.9110   63.9430 C   0  0  0  0  0  0  0  0  0  0  0  0
  128.0470  132.1030   64.3780 N   0  0  0  0  0  0  0  0  0  0  0  0
  127.1240  127.0180   69.3870 C   0  0  0  0  0  0  0  0  0  0  0  0
  127.6370  126.6850   70.6370 C   0  0  0  0  0  0  0  0  0  0  0  0
  1  2  1  0
  2  3  1  0
  3  4  2  0
  3  5  1  0
  5  6  2  0
  6  7  1  0
  7  8  2  0
  8  9  1  0
  9 10  1  0
 10 11  2  0
 10 12  1  0
 12 13  1  0
 13 14  1  0
 14 15  2  0
 15 16  1  0
 16 17  1  0
 16 18  2  0
 18 19  1  0
 19 20  1  0
 19 21  2  0
 21 22  1  0
 22 23  3  0
  8 24  1  0
 24 25  2  0
 25  5  1  0
 21 14  1  0
M  END
>  <Binding energies>  (3) 
[-8.04]

>  <Ligand effiencies>  (3) 
[-0.3092307692307692]

>  <Interactions>  (3) 
["V-A:GLU:543:CD:4908, V-B:ASP:366:CG:8184, V-B:ILE:369:CB:8207, V-B:GLY:454:CA:9020, V-B:GLY:453:C:9013, V-B:ILE:369:CG2:8208, V-B:GLY:453:CA:9015, V-B:LEU:475:CD2:9230, V-B:ASP:366:CA:8181, H-B:GLY:454:N:9021, V-B:ILE:369:CG1:8209, H-B:ARG:545:NH2:9900, V-B:GLU:543:CB:9878, V-B:GLU:543:CD:9880, V-A:GLY:544:C:4912, V-B:GLY:544:C:9884, V-B:GLY:544:CA:9886, V-A:HIS:456:CD2:4068, V-A:HIS:456:CG:4066, V-A:HIS:456:CE1:4070, H-B:LYS:547:NZ:9923, V-B:HIS:456:CE1:9041, V-B:GLU:543:C:9874, H-A:LYS:547:NZ:4951, V-A:GLU:543:CB:4906, V-B:TYR:484:CZ:9318, H-B:TYR:484:OH:9319, V-A:GLU:543:CG:4907, H-B:ARG:545:NE:9896, H-B:GLU:543:OE2:9882"]

$$$$
1c_Grossjean_2025
     RDKit          3D

 23 24  0  0  0  0  0  0  0  0999 V2000
  129.3780  130.0370   73.0480 C   0  0  0  0  0  0  0  0  0  0  0  0
  130.0280  128.7890   72.8310 O   0  0  0  0  0  0  0  0  0  0  0  0
  130.0910  128.2770   71.5490 C   0  0  0  0  0  0  0  0  0  0  0  0
  128.9240  127.6970   71.0520 C   0  0  0  0  0  0  0  0  0  0  0  0
  128.8880  127.1540   69.7710 C   0  0  0  0  0  0  0  0  0  0  0  0
  130.0330  127.1930   68.9610 C   0  0  0  0  0  0  0  0  0  0  0  0
  130.1100  126.6660   67.6570 N   0  0  0  0  0  0  0  0  0  0  0  0
  129.9820  125.3880   67.2400 C   0  0  0  0  0  0  0  0  0  0  0  0
  129.7470  124.4210   67.9640 O   0  0  0  0  0  0  0  0  0  0  0  0
  130.1420  125.1710   65.7340 C   0  0  0  0  0  0  0  0  0  0  0  0
  130.1830  123.4050   65.3050 S   0  0  0  0  0  0  0  0  0  0  0  0
  130.8320  123.2420   63.6550 C   0  0  0  0  0  0  0  0  0  0  0  0
  129.9810  122.6200   62.7990 N   0  0  0  0  0  0  0  0  0  0  0  0
  130.3660  122.4380   61.5150 C   0  0  0  0  0  0  0  0  0  0  0  0
  129.3590  121.7450   60.6160 C   0  0  0  0  0  0  0  0  0  0  0  0
  131.6060  122.8540   61.0360 C   0  0  0  0  0  0  0  0  0  0  0  0
  132.5000  123.4750   61.9140 C   0  0  0  0  0  0  0  0  0  0  0  0
  133.8610  123.9060   61.3690 C   0  0  0  0  0  0  0  0  0  0  0  0
  132.1210  123.6730   63.2610 C   0  0  0  0  0  0  0  0  0  0  0  0
  133.0650  124.2720   64.2090 C   0  0  0  0  0  0  0  0  0  0  0  0
  133.8110  124.7440   64.9560 N   0  0  0  0  0  0  0  0  0  0  0  0
  131.2060  127.7630   69.4580 C   0  0  0  0  0  0  0  0  0  0  0  0
  131.2380  128.3040   70.7410 C   0  0  0  0  0  0  0  0  0  0  0  0
  1  2  1  0
  2  3  1  0
  3  4  2  0
  4  5  1  0
  5  6  2  0
  6  7  1  0
  7  8  1  0
  8  9  2  0
  8 10  1  0
 10 11  1  0
 11 12  1  0
 12 13  2  0
 13 14  1  0
 14 15  1  0
 14 16  2  0
 16 17  1  0
 17 18  1  0
 17 19  2  0
 19 20  1  0
 20 21  3  0
  6 22  1  0
 22 23  2  0
 23  3  1  0
 19 12  1  0
M  END
>  <Binding energies>  (4) 
[-7.17]

>  <Ligand effiencies>  (4) 
[-0.29875]

>  <Interactions>  (4) 
["V-B:TYR:539:CD2:9846, V-A:GLU:543:CD:4908, H-A:GLY:454:N:4050, H-A:TYR:484:OH:4348, V-B:TYR:539:CE2:9848, H-A:ARG:545:NE:4924, V-A:ARG:545:CZ:4926, V-A:LEU:475:CD2:4259, V-B:PRO:540:CA:9855, V-A:ILE:369:CD1:3239, V-A:GLY:454:CA:4049, H-A:GLU:543:OE2:4910, V-B:GLU:543:CB:9878, V-B:GLU:543:CG:9879, V-A:TYR:484:CE2:4346, V-B:HIS:456:CD2:9039, V-A:GLY:544:C:4912, V-A:HIS:456:CE1:4070, V-B:HIS:456:CE1:9041, H-A:LYS:547:NZ:4951, H-A:GLU:543:OE1:4909, H-A:ARG:545:NH2:4928, V-A:GLU:543:CB:4906, V-A:GLU:543:C:4902, V-B:TYR:539:C:9839, V-A:GLY:544:CA:4914, V-A:ARG:545:CG:4922, V-A:ARG:545:CA:4919"]

$$$$
1d_Grossjean_2025
     RDKit          3D

 21 22  0  0  0  0  0  0  0  0999 V2000
  129.2290  122.1130   60.3660 C   0  0  0  0  0  0  0  0  0  0  0  0
  130.2980  122.6730   61.2840 C   0  0  0  0  0  0  0  0  0  0  0  0
  131.5590  123.0240   60.8080 C   0  0  0  0  0  0  0  0  0  0  0  0
  132.5030  123.5450   61.6990 C   0  0  0  0  0  0  0  0  0  0  0  0
  133.8740  123.9360   61.1500 C   0  0  0  0  0  0  0  0  0  0  0  0
  132.1570  123.6950   63.0620 C   0  0  0  0  0  0  0  0  0  0  0  0
  133.1120  124.2830   64.0040 C   0  0  0  0  0  0  0  0  0  0  0  0
  133.8690  124.7480   64.7460 N   0  0  0  0  0  0  0  0  0  0  0  0
  130.8620  123.2900   63.4620 C   0  0  0  0  0  0  0  0  0  0  0  0
  130.2610  123.4070   65.1320 S   0  0  0  0  0  0  0  0  0  0  0  0
  130.5210  125.1200   65.6850 C   0  0  0  0  0  0  0  0  0  0  0  0
  130.0900  125.3280   67.1370 C   0  0  0  0  0  0  0  0  0  0  0  0
  129.6180  124.3810   67.7660 O   0  0  0  0  0  0  0  0  0  0  0  0
  130.2940  126.5700   67.6280 N   0  0  0  0  0  0  0  0  0  0  0  0
  130.0010  127.0970   68.9000 C   0  0  0  0  0  0  0  0  0  0  0  0
  128.6980  126.8830   69.3580 C   0  0  0  0  0  0  0  0  0  0  0  0
  128.3040  127.3580   70.6060 C   0  0  0  0  0  0  0  0  0  0  0  0
  129.2180  128.0440   71.4020 C   0  0  0  0  0  0  0  0  0  0  0  0
  130.5220  128.2560   70.9620 C   0  0  0  0  0  0  0  0  0  0  0  0
  130.9180  127.7830   69.7140 C   0  0  0  0  0  0  0  0  0  0  0  0
  129.9470  122.8050   62.5850 N   0  0  0  0  0  0  0  0  0  0  0  0
  1  2  1  0
  2  3  2  0
  3  4  1  0
  4  5  1  0
  4  6  2  0
  6  7  1  0
  7  8  3  0
  6  9  1  0
  9 10  1  0
 10 11  1  0
 11 12  1  0
 12 13  2  0
 12 14  1  0
 14 15  1  0
 15 16  2  0
 16 17  1  0
 17 18  2  0
 18 19  1  0
 19 20  2  0
  9 21  2  0
 21  2  1  0
 20 15  1  0
M  END
>  <Binding energies>  (5) 
[-7.03]

>  <Ligand effiencies>  (5) 
[-0.3195454545454546]

>  <Interactions>  (5) 
["V-B:TYR:539:CD2:9846, V-A:GLU:543:CD:4908, H-A:GLY:454:N:4050, H-A:TYR:484:OH:4348, V-B:TYR:539:CE2:9848, H-A:ARG:545:NE:4924, V-A:ARG:545:CZ:4926, V-A:LEU:475:CD2:4259, V-B:PRO:540:CA:9855, V-A:ILE:369:CD1:3239, V-A:GLY:454:CA:4049, H-A:GLU:543:OE2:4910, V-B:GLU:543:CB:9878, V-B:GLU:543:CG:9879, V-A:TYR:484:CE2:4346, V-B:HIS:456:CD2:9039, V-A:GLY:544:C:4912, V-A:HIS:456:CE1:4070, V-B:HIS:456:CE1:9041, V-B:GLU:543:C:9874, H-A:GLU:543:OE1:4909, H-A:ARG:545:NH2:4928, V-A:GLU:543:CB:4906, V-A:GLU:543:C:4902, V-B:TYR:539:C:9839"]

$$$$
1e_Grossjean_2025
     RDKit          3D

 22 23  0  0  0  0  0  0  0  0999 V2000
  131.5830  128.1360   69.9800 C   0  0  0  0  0  0  0  0  0  0  0  0
  130.1190  127.8080   69.7500 C   0  0  0  0  0  0  0  0  0  0  0  0
  129.3340  127.2270   70.7500 C   0  0  0  0  0  0  0  0  0  0  0  0
  127.9960  126.9520   70.4660 C   0  0  0  0  0  0  0  0  0  0  0  0
  127.4800  127.2590   69.2050 C   0  0  0  0  0  0  0  0  0  0  0  0
  128.3210  127.8450   68.2510 C   0  0  0  0  0  0  0  0  0  0  0  0
  127.7480  128.1200   66.9960 N   0  0  0  0  0  0  0  0  0  0  0  0
  127.7540  129.2810   66.3060 C   0  0  0  0  0  0  0  0  0  0  0  0
  128.2760  130.3290   66.6900 O   0  0  0  0  0  0  0  0  0  0  0  0
  127.0220  129.2610   64.9620 C   0  0  0  0  0  0  0  0  0  0  0  0
  125.2420  129.5840   65.1520 S   0  0  0  0  0  0  0  0  0  0  0  0
  124.7240  130.6980   63.8620 C   0  0  0  0  0  0  0  0  0  0  0  0
  123.5150  130.3850   63.3320 N   0  0  0  0  0  0  0  0  0  0  0  0
  123.0160  131.1590   62.3400 C   0  0  0  0  0  0  0  0  0  0  0  0
  121.6570  130.7520   61.8040 C   0  0  0  0  0  0  0  0  0  0  0  0
  123.7010  132.2610   61.8310 C   0  0  0  0  0  0  0  0  0  0  0  0
  124.9590  132.5790   62.3520 C   0  0  0  0  0  0  0  0  0  0  0  0
  125.6970  133.7810   61.7640 C   0  0  0  0  0  0  0  0  0  0  0  0
  125.5010  131.7820   63.3860 C   0  0  0  0  0  0  0  0  0  0  0  0
  126.8420  132.0660   63.9020 C   0  0  0  0  0  0  0  0  0  0  0  0
  127.9020  132.2930   64.3090 N   0  0  0  0  0  0  0  0  0  0  0  0
  129.6320  128.1130   68.5210 N   0  0  0  0  0  0  0  0  0  0  0  0
  1  2  1  0
  2  3  2  0
  3  4  1  0
  4  5  2  0
  5  6  1  0
  6  7  1  0
  7  8  1  0
  8  9  2  0
  8 10  1  0
 10 11  1  0
 11 12  1  0
 12 13  2  0
 13 14  1  0
 14 15  1  0
 14 16  2  0
 16 17  1  0
 17 18  1  0
 17 19  2  0
 19 20  1  0
 20 21  3  0
  6 22  2  0
 22  2  1  0
 19 12  1  0
M  END
>  <Binding energies>  (6) 
[-7.36]

>  <Ligand effiencies>  (6) 
[-0.32]

>  <Interactions>  (6) 
["V-A:GLU:543:CD:4908, V-B:ASP:366:CG:8184, V-B:ILE:369:CB:8207, V-B:GLY:454:CA:9020, V-B:GLY:453:C:9013, V-B:ILE:369:CG2:8208, V-B:GLY:453:CA:9015, V-B:LEU:475:CD2:9230, V-B:ASP:366:CA:8181, H-B:GLY:454:N:9021, V-B:ILE:369:CG1:8209, H-B:ARG:545:NH2:9900, V-B:GLU:543:CB:9878, V-B:GLU:543:CD:9880, H-B:GLU:543:OE1:9881, V-A:GLY:544:C:4912, V-A:HIS:456:CE1:4070, V-B:HIS:456:CE1:9041, V-B:GLU:543:C:9874, V-A:GLU:543:CB:4906, V-A:GLU:543:C:4902, V-B:TYR:484:CZ:9318, H-B:TYR:484:OH:9319, V-A:GLU:543:CG:4907, H-B:ARG:545:NE:9896, V-A:GLY:544:CA:4914, V-A:ARG:545:CG:4922, V-A:ARG:545:CA:4919, H-B:GLU:543:OE2:9882, V-B:CYS:365:C:8175"]

$$$$
1f_Grossjean_2025
     RDKit          3D

 21 22  0  0  0  0  0  0  0  0999 V2000
  126.6330  135.4860   61.2020 C   0  0  0  0  0  0  0  0  0  0  0  0
  125.9460  134.2740   61.8030 C   0  0  0  0  0  0  0  0  0  0  0  0
  124.5640  134.1130   61.7400 C   0  0  0  0  0  0  0  0  0  0  0  0
  123.9850  132.9820   62.3230 C   0  0  0  0  0  0  0  0  0  0  0  0
  122.4660  132.8360   62.2570 C   0  0  0  0  0  0  0  0  0  0  0  0
  124.8150  132.0270   62.9540 C   0  0  0  0  0  0  0  0  0  0  0  0
  124.2220  130.8630   63.6190 C   0  0  0  0  0  0  0  0  0  0  0  0
  123.7520  129.9450   64.1430 N   0  0  0  0  0  0  0  0  0  0  0  0
  126.2110  132.2580   62.9460 C   0  0  0  0  0  0  0  0  0  0  0  0
  127.4100  131.1690   63.6890 S   0  0  0  0  0  0  0  0  0  0  0  0
  128.9540  132.1060   63.9530 C   0  0  0  0  0  0  0  0  0  0  0  0
  129.7750  132.3700   62.6820 C   0  0  0  0  0  0  0  0  0  0  0  0
  129.4500  133.2670   61.9030 O   0  0  0  0  0  0  0  0  0  0  0  0
  130.8230  131.5370   62.5080 N   0  0  0  0  0  0  0  0  0  0  0  0
  131.7770  131.4970   61.4740 C   0  0  0  0  0  0  0  0  0  0  0  0
  131.5130  131.1910   60.1250 C   0  0  0  0  0  0  0  0  0  0  0  0
  132.5600  131.1920   59.1990 C   0  0  0  0  0  0  0  0  0  0  0  0
  133.8450  131.5020   59.6430 C   0  0  0  0  0  0  0  0  0  0  0  0
  134.1250  131.8050   60.9350 N   0  0  0  0  0  0  0  0  0  0  0  0
  133.0980  131.8000   61.8240 C   0  0  0  0  0  0  0  0  0  0  0  0
  126.7600  133.3710   62.3990 N   0  0  0  0  0  0  0  0  0  0  0  0
  1  2  1  0
  2  3  2  0
  3  4  1  0
  4  5  1  0
  4  6  2  0
  6  7  1  0
  7  8  3  0
  6  9  1  0
  9 10  1  0
 10 11  1  0
 11 12  1  0
 12 13  2  0
 12 14  1  0
 14 15  1  0
 15 16  2  0
 16 17  1  0
 17 18  2  0
 18 19  1  0
 19 20  2  0
  9 21  2  0
 21  2  1  0
 20 15  1  0
M  END
>  <Binding energies>  (7) 
[-6.73]

>  <Ligand effiencies>  (7) 
[-0.3059090909090909]

>  <Interactions>  (7) 
["V-A:GLU:543:CD:4908, V-A:ASN:362:CB:3176, V-B:ILE:369:CB:8207, V-A:PRO:540:CB:4885, V-A:TYR:539:CD1:4873, V-B:GLY:454:CA:9020, V-A:PRO:540:CA:4883, H-A:LEU:363:N:3186, V-B:GLY:453:C:9013, V-B:ILE:369:CG2:8208, V-B:LEU:475:CD2:9230, H-B:ARG:545:NH1:9899, V-A:TYR:539:CE1:4875, H-B:GLY:454:N:9021, H-A:ALA:541:N:4891, V-B:ILE:369:CG1:8209, H-B:ARG:545:NH2:9900, V-A:ASP:366:CG:3213, H-A:GLU:543:OE1:4909, H-B:TYR:484:OH:9319, V-A:ALA:541:CB:4892, V-A:GLU:543:CG:4907, H-B:ARG:545:NE:9896, V-B:ILE:369:CD1:8210, V-A:ALA:541:CA:4890, V-A:LEU:363:CD1:3189, V-A:LEU:363:CA:3185, V-A:LEU:363:CB:3187, V-A:ASN:362:C:3172"]

$$$$
1g_Grossjean_2025
     RDKit          3D

 22 23  0  0  0  0  0  0  0  0999 V2000
  125.0000  131.1420   58.1500 C   0  0  0  0  0  0  0  0  0  0  0  0
  124.7060  130.8480   59.6090 C   0  0  0  0  0  0  0  0  0  0  0  0
  123.4540  131.1020   60.1670 C   0  0  0  0  0  0  0  0  0  0  0  0
  123.2450  130.8250   61.5220 C   0  0  0  0  0  0  0  0  0  0  0  0
  121.8690  131.1260   62.1150 C   0  0  0  0  0  0  0  0  0  0  0  0
  124.3030  130.2880   62.2890 C   0  0  0  0  0  0  0  0  0  0  0  0
  124.1240  130.0390   63.7220 C   0  0  0  0  0  0  0  0  0  0  0  0
  123.9800  129.8450   64.8540 N   0  0  0  0  0  0  0  0  0  0  0  0
  125.5320  130.0380   61.6340 C   0  0  0  0  0  0  0  0  0  0  0  0
  126.9630  129.3570   62.4440 S   0  0  0  0  0  0  0  0  0  0  0  0
  127.2630  130.3500   63.9360 C   0  0  0  0  0  0  0  0  0  0  0  0
  127.5280  131.8190   63.6030 C   0  0  0  0  0  0  0  0  0  0  0  0
  127.8770  132.6000   64.4890 O   0  0  0  0  0  0  0  0  0  0  0  0
  127.3510  132.1800   62.3200 N   0  0  0  0  0  0  0  0  0  0  0  0
  127.6020  133.5120   61.7700 C   0  0  0  0  0  0  0  0  0  0  0  0
  126.3540  134.3780   61.6290 C   0  0  0  0  0  0  0  0  0  0  0  0
  126.4800  135.7460   61.3660 C   0  0  0  0  0  0  0  0  0  0  0  0
  125.3410  136.5370   61.2360 C   0  0  0  0  0  0  0  0  0  0  0  0
  124.0800  135.9570   61.3650 C   0  0  0  0  0  0  0  0  0  0  0  0
  123.9480  134.5940   61.6230 C   0  0  0  0  0  0  0  0  0  0  0  0
  125.0860  133.8030   61.7540 C   0  0  0  0  0  0  0  0  0  0  0  0
  125.7330  130.3310   60.3240 N   0  0  0  0  0  0  0  0  0  0  0  0
  1  2  1  0
  2  3  2  0
  3  4  1  0
  4  5  1  0
  4  6  2  0
  6  7  1  0
  7  8  3  0
  6  9  1  0
  9 10  1  0
 10 11  1  0
 11 12  1  0
 12 13  2  0
 12 14  1  0
 14 15  1  0
 15 16  1  0
 16 17  2  0
 17 18  1  0
 18 19  2  0
 19 20  1  0
 20 21  2  0
  9 22  2  0
 22  2  1  0
 21 16  1  0
M  END
>  <Binding energies>  (8) 
[-6.65]

>  <Ligand effiencies>  (8) 
[-0.2891304347826087]

>  <Interactions>  (8) 
["V-B:ASP:366:CB:8183, V-B:ASP:366:CG:8184, V-B:ILE:369:CB:8207, V-A:TYR:539:CD1:4873, V-B:GLY:453:C:9013, V-B:ILE:369:CG2:8208, V-B:GLY:453:CA:9015, V-B:LEU:475:CD2:9230, V-A:TYR:539:CE1:4875, V-B:ASP:366:CA:8181, H-B:GLY:454:N:9021, V-B:ILE:369:CG1:8209, H-B:ARG:545:NH2:9900, V-B:ARG:545:CZ:9898, H-B:TYR:484:OH:9319, H-B:ARG:545:NE:9896, V-B:SER:385:CB:8380, V-B:SER:385:CA:8378, V-A:TYR:539:CZ:4877"]

$$$$
1h_Grossjean_2025
     RDKit          3D

 28 29  0  0  0  0  0  0  0  0999 V2000
  128.6320  123.9120   72.6320 C   0  0  0  0  0  0  0  0  0  0  0  0
  129.2910  125.0690   73.1330 O   0  0  0  0  0  0  0  0  0  0  0  0
  129.3110  126.2220   72.3700 C   0  0  0  0  0  0  0  0  0  0  0  0
  128.8950  126.2830   71.0300 C   0  0  0  0  0  0  0  0  0  0  0  0
  128.9560  127.4810   70.3170 C   0  0  0  0  0  0  0  0  0  0  0  0
  128.4800  127.5380   68.8680 C   0  0  0  0  0  0  0  0  0  0  0  0
  129.1270  126.5640   67.9900 N   0  0  0  0  0  0  0  0  0  0  0  0
  129.1370  126.6150   66.6460 C   0  0  0  0  0  0  0  0  0  0  0  0
  128.6130  127.5180   65.9930 O   0  0  0  0  0  0  0  0  0  0  0  0
  129.8410  125.4650   65.9250 C   0  0  0  0  0  0  0  0  0  0  0  0
  130.3650  125.9320   64.2480 S   0  0  0  0  0  0  0  0  0  0  0  0
  130.7560  124.4370   63.3530 C   0  0  0  0  0  0  0  0  0  0  0  0
  129.7100  123.8300   62.7330 N   0  0  0  0  0  0  0  0  0  0  0  0
  129.9380  122.6940   62.0330 C   0  0  0  0  0  0  0  0  0  0  0  0
  128.7230  122.0780   61.3660 C   0  0  0  0  0  0  0  0  0  0  0  0
  131.2010  122.1180   61.9240 C   0  0  0  0  0  0  0  0  0  0  0  0
  132.2860  122.7330   62.5590 C   0  0  0  0  0  0  0  0  0  0  0  0
  133.6630  122.0860   62.4250 C   0  0  0  0  0  0  0  0  0  0  0  0
  132.0710  123.9200   63.2950 C   0  0  0  0  0  0  0  0  0  0  0  0
  133.1870  124.5840   63.9740 C   0  0  0  0  0  0  0  0  0  0  0  0
  134.0700  125.1080   64.5100 N   0  0  0  0  0  0  0  0  0  0  0  0
  129.4020  128.6400   70.9530 C   0  0  0  0  0  0  0  0  0  0  0  0
  129.8190  128.6100   72.2930 C   0  0  0  0  0  0  0  0  0  0  0  0
  130.2730  129.7170   72.9860 O   0  0  0  0  0  0  0  0  0  0  0  0
  129.3480  130.7260   73.3760 C   0  0  0  0  0  0  0  0  0  0  0  0
  129.7790  127.3920   72.9870 C   0  0  0  0  0  0  0  0  0  0  0  0
  130.1770  127.3480   74.3010 O   0  0  0  0  0  0  0  0  0  0  0  0
  131.3580  126.5890   74.5230 C   0  0  0  0  0  0  0  0  0  0  0  0
  1  2  1  0
  2  3  1  0
  3  4  2  0
  4  5  1  0
  5  6  1  0
  6  7  1  0
  7  8  1  0
  8  9  2  0
  8 10  1  0
 10 11  1  0
 11 12  1  0
 12 13  2  0
 13 14  1  0
 14 15  1  0
 14 16  2  0
 16 17  1  0
 17 18  1  0
 17 19  2  0
 19 20  1  0
 20 21  3  0
  5 22  2  0
 22 23  1  0
 23 24  1  0
 24 25  1  0
 23 26  2  0
 26 27  1  0
 27 28  1  0
 26  3  1  0
 19 12  1  0
M  END
>  <Binding energies>  (9) 
[-6.47]

>  <Ligand effiencies>  (9) 
[-0.22310344827586207]

>  <Interactions>  (9) 
["V-A:GLU:543:CD:4908, H-A:GLY:454:N:4050, H-A:TYR:484:OH:4348, H-A:ARG:545:NE:4924, V-A:ARG:545:CZ:4926, V-A:LEU:475:CD2:4259, V-B:PRO:540:CA:9855, V-A:GLY:454:CA:4049, V-B:GLU:543:CB:9878, V-B:GLU:543:CG:9879, V-B:GLU:543:CD:9880, V-B:ALA:541:CB:9864, V-B:HIS:456:CD2:9039, V-B:GLY:544:CA:9886, V-A:HIS:456:CD2:4068, V-A:LYS:547:CE:4950, V-A:HIS:456:CE1:4070, H-B:LYS:547:NZ:9923, V-B:LYS:547:CE:9922, V-B:HIS:456:CE1:9041, V-B:GLU:543:C:9874, H-A:LYS:547:NZ:4951, H-B:GLU:543:O:9875, H-A:ARG:545:NH2:4928, V-A:GLU:543:C:4902, H-A:HIS:456:NE2:4071, V-B:PRO:540:C:9853, H-A:ARG:545:NH1:4927"]

$$$$
1i_Grossjean_2025
     RDKit          3D

 20 21  0  0  0  0  0  0  0  0999 V2000
  128.6780  125.4560   62.5200 C   0  0  0  0  0  0  0  0  0  0  0  0
  129.9770  125.3420   63.2960 C   0  0  0  0  0  0  0  0  0  0  0  0
  131.1960  125.1440   62.6520 C   0  0  0  0  0  0  0  0  0  0  0  0
  132.3630  125.0560   63.4190 C   0  0  0  0  0  0  0  0  0  0  0  0
  133.6910  124.8560   62.6890 C   0  0  0  0  0  0  0  0  0  0  0  0
  132.2760  125.1640   64.8260 C   0  0  0  0  0  0  0  0  0  0  0  0
  133.4910  125.1250   65.6440 C   0  0  0  0  0  0  0  0  0  0  0  0
  134.4520  125.0960   66.2880 N   0  0  0  0  0  0  0  0  0  0  0  0
  130.9930  125.3390   65.3960 C   0  0  0  0  0  0  0  0  0  0  0  0
  130.6990  125.4910   67.1440 S   0  0  0  0  0  0  0  0  0  0  0  0
  129.2440  126.5590   67.3660 C   0  0  0  0  0  0  0  0  0  0  0  0
  129.2160  127.2120   68.7500 C   0  0  0  0  0  0  0  0  0  0  0  0
  129.3330  128.4350   68.8420 O   0  0  0  0  0  0  0  0  0  0  0  0
  129.0570  126.3660   69.7910 N   0  0  0  0  0  0  0  0  0  0  0  0
  129.0020  126.6910   71.1380 C   0  0  0  0  0  0  0  0  0  0  0  0
  129.3640  127.9430   71.6340 C   0  0  0  0  0  0  0  0  0  0  0  0
  129.1700  127.8590   72.9930 C   0  0  0  0  0  0  0  0  0  0  0  0
  128.7180  126.6210   73.3010 O   0  0  0  0  0  0  0  0  0  0  0  0
  128.6170  125.8880   72.1170 N   0  0  0  0  0  0  0  0  0  0  0  0
  129.8690  125.4430   64.6420 N   0  0  0  0  0  0  0  0  0  0  0  0
  1  2  1  0
  2  3  2  0
  3  4  1  0
  4  5  1  0
  4  6  2  0
  6  7  1  0
  7  8  3  0
  6  9  1  0
  9 10  1  0
 10 11  1  0
 11 12  1  0
 12 13  2  0
 12 14  1  0
 14 15  1  0
 15 16  1  0
 16 17  2  0
 17 18  1  0
 18 19  1  0
  9 20  2  0
 20  2  1  0
 19 15  2  0
M  END
>  <Binding energies>  (10) 
[-6.37]

>  <Ligand effiencies>  (10) 
[-0.30333333333333334]

>  <Interactions>  (10) 
["V-A:ARG:545:CD:4923, H-A:GLY:454:N:4050, H-A:TYR:484:OH:4348, H-A:ARG:545:NE:4924, V-A:ARG:545:CZ:4926, V-B:GLU:543:CB:9878, V-B:GLU:543:CG:9879, V-B:GLU:543:CD:9880, V-A:HIS:456:CD2:4068, V-A:HIS:456:CE1:4070, H-B:LYS:547:NZ:9923, V-B:GLU:543:C:9874, H-B:GLU:543:O:9875, H-A:HIS:456:NE2:4071, V-A:ARG:545:CG:4922, H-A:ILE:455:N:4055"]

$$$$
1k_Grossjean_2025
     RDKit          3D

 25 25  0  0  0  0  0  0  0  0999 V2000
  132.9650  131.8080   62.1450 C   0  0  0  0  0  0  0  0  0  0  0  0
  131.6150  132.2400   62.1760 O   0  0  0  0  0  0  0  0  0  0  0  0
  130.6930  131.2480   61.7450 C   0  0  0  0  0  0  0  0  0  0  0  0
  130.8590  131.0150   60.2370 C   0  0  0  0  0  0  0  0  0  0  0  0
  131.0180  132.2660   59.5800 O   0  0  0  0  0  0  0  0  0  0  0  0
  129.9030  132.6370   58.7810 C   0  0  0  0  0  0  0  0  0  0  0  0
  128.7740  131.6170   58.9750 C   0  0  0  0  0  0  0  0  0  0  0  0
  127.7930  132.1570   59.8510 O   0  0  0  0  0  0  0  0  0  0  0  0
  128.1770  133.3880   60.4500 C   0  0  0  0  0  0  0  0  0  0  0  0
  127.9950  133.2980   61.9770 C   0  0  0  0  0  0  0  0  0  0  0  0
  127.7070  131.9480   62.4640 N   0  0  0  0  0  0  0  0  0  0  0  0
  127.7920  131.5530   63.7460 C   0  0  0  0  0  0  0  0  0  0  0  0
  128.1220  132.3080   64.6630 O   0  0  0  0  0  0  0  0  0  0  0  0
  127.4520  130.0770   64.0080 C   0  0  0  0  0  0  0  0  0  0  0  0
  126.9630  129.1060   62.5400 S   0  0  0  0  0  0  0  0  0  0  0  0
  125.6720  129.9780   61.6630 C   0  0  0  0  0  0  0  0  0  0  0  0
  125.9010  130.2050   60.3440 N   0  0  0  0  0  0  0  0  0  0  0  0
  124.9680  130.8690   59.6230 C   0  0  0  0  0  0  0  0  0  0  0  0
  125.3010  131.0920   58.1610 C   0  0  0  0  0  0  0  0  0  0  0  0
  123.7740  131.3240   60.1780 C   0  0  0  0  0  0  0  0  0  0  0  0
  123.5220  131.0890   61.5330 C   0  0  0  0  0  0  0  0  0  0  0  0
  122.2070  131.5960   62.1220 C   0  0  0  0  0  0  0  0  0  0  0  0
  124.4850  130.4010   62.3050 C   0  0  0  0  0  0  0  0  0  0  0  0
  124.2500  130.1450   63.7290 C   0  0  0  0  0  0  0  0  0  0  0  0
  124.0630  129.9430   64.8530 N   0  0  0  0  0  0  0  0  0  0  0  0
  1  2  1  0
  2  3  1  0
  3  4  1  0
  4  5  1  0
  5  6  1  0
  6  7  1  0
  7  8  1  0
  8  9  1  0
  9 10  1  0
 10 11  1  0
 11 12  1  0
 12 13  2  0
 12 14  1  0
 14 15  1  0
 15 16  1  0
 16 17  2  0
 17 18  1  0
 18 19  1  0
 18 20  2  0
 20 21  1  0
 21 22  1  0
 21 23  2  0
 23 24  1  0
 24 25  3  0
 23 16  1  0
M  END
>  <Binding energies>  (11) 
[-5.19]

>  <Ligand effiencies>  (11) 
[-0.19961538461538464]

>  <Interactions>  (11) 
["V-B:ASP:366:CG:8184, V-A:ASN:362:CB:3176, V-B:ILE:369:CB:8207, V-A:PRO:540:CB:4885, V-A:TYR:539:CD1:4873, V-A:PRO:540:N:4884, V-B:GLY:454:CA:9020, V-A:PRO:540:CA:4883, V-B:GLY:453:C:9013, V-A:TYR:539:C:4867, V-B:ILE:369:CG2:8208, V-B:GLY:453:CA:9015, V-B:LEU:475:CD2:9230, V-A:TYR:539:CE1:4875, H-B:GLY:454:N:9021, H-A:ALA:541:N:4891, V-B:ILE:369:CG1:8209, H-B:ARG:545:NH2:9900, V-B:ARG:545:CZ:9898, H-B:TYR:484:OH:9319, V-A:ALA:541:CB:4892, H-B:ARG:545:NE:9896, V-A:TYR:539:CZ:4877"]

$$$$
1l_Grossjean_2025
     RDKit          3D

 17 17  0  0  0  0  0  0  0  0999 V2000
  133.3080  131.5320   61.7300 C   0  0  0  0  0  0  0  0  0  0  0  0
  132.1810  132.2520   62.2100 O   0  0  0  0  0  0  0  0  0  0  0  0
  131.0760  131.4060   62.2900 N   0  0  0  0  0  0  0  0  0  0  0  0
  129.8410  131.9300   62.1660 C   0  0  0  0  0  0  0  0  0  0  0  0
  129.6220  133.0750   61.7610 O   0  0  0  0  0  0  0  0  0  0  0  0
  128.6920  130.9900   62.5550 C   0  0  0  0  0  0  0  0  0  0  0  0
  127.5700  131.6330   63.8430 S   0  0  0  0  0  0  0  0  0  0  0  0
  126.2920  132.5860   63.0410 C   0  0  0  0  0  0  0  0  0  0  0  0
  126.7100  133.6990   62.3840 N   0  0  0  0  0  0  0  0  0  0  0  0
  125.7920  134.4700   61.7540 C   0  0  0  0  0  0  0  0  0  0  0  0
  126.3350  135.6950   61.0440 C   0  0  0  0  0  0  0  0  0  0  0  0
  124.4320  134.1670   61.7500 C   0  0  0  0  0  0  0  0  0  0  0  0
  123.9890  133.0230   62.4210 C   0  0  0  0  0  0  0  0  0  0  0  0
  122.4940  132.7090   62.4020 C   0  0  0  0  0  0  0  0  0  0  0  0
  124.9300  132.2050   63.0860 C   0  0  0  0  0  0  0  0  0  0  0  0
  124.4940  130.9990   63.7970 C   0  0  0  0  0  0  0  0  0  0  0  0
  124.1490  130.0490   64.3580 N   0  0  0  0  0  0  0  0  0  0  0  0
  1  2  1  0
  2  3  1  0
  3  4  1  0
  4  5  2  0
  4  6  1  0
  6  7  1  0
  7  8  1  0
  8  9  2  0
  9 10  1  0
 10 11  1  0
 10 12  2  0
 12 13  1  0
 13 14  1  0
 13 15  2  0
 15 16  1  0
 16 17  3  0
 15  8  1  0
M  END
>  <Binding energies>  (12) 
[-6.1]

>  <Ligand effiencies>  (12) 
[-0.33888888888888885]

>  <Interactions>  (12) 
["V-A:GLU:543:CD:4908, V-A:ASN:362:CB:3176, V-B:ILE:369:CB:8207, V-A:PRO:540:CB:4885, V-A:TYR:539:CD1:4873, V-B:GLY:454:CA:9020, V-B:GLY:453:C:9013, V-B:ILE:369:CG2:8208, V-B:LEU:475:CD2:9230, V-A:TYR:539:CE1:4875, H-B:GLY:454:N:9021, H-A:ALA:541:N:4891, V-B:ILE:369:CG1:8209, H-B:ARG:545:NH2:9900, H-A:GLU:543:OE1:4909, H-B:TYR:484:OH:9319, V-A:GLU:543:CG:4907, H-B:ARG:545:NE:9896, V-B:ILE:369:CD1:8210"]

$$$$
1m_Grossjean_2025
     RDKit          3D

 20 20  0  0  0  0  0  0  0  0999 V2000
  123.8300  131.0030   61.4010 C   0  0  0  0  0  0  0  0  0  0  0  0
  124.0010  131.3700   62.7630 O   0  0  0  0  0  0  0  0  0  0  0  0
  124.4620  130.4760   63.6610 C   0  0  0  0  0  0  0  0  0  0  0  0
  123.7660  129.8090   64.4320 O   0  0  0  0  0  0  0  0  0  0  0  0
  126.0000  130.3670   63.6130 C   0  0  0  0  0  0  0  0  0  0  0  0
  126.6440  131.5960   63.1250 N   0  0  0  0  0  0  0  0  0  0  0  0
  127.7190  132.1910   63.6750 C   0  0  0  0  0  0  0  0  0  0  0  0
  128.2830  131.7610   64.6840 O   0  0  0  0  0  0  0  0  0  0  0  0
  128.2070  133.4620   62.9670 C   0  0  0  0  0  0  0  0  0  0  0  0
  128.2860  133.3370   61.1470 S   0  0  0  0  0  0  0  0  0  0  0  0
  129.8390  132.5820   60.7140 C   0  0  0  0  0  0  0  0  0  0  0  0
  130.6400  132.3380   61.7830 N   0  0  0  0  0  0  0  0  0  0  0  0
  131.8460  131.7590   61.5750 C   0  0  0  0  0  0  0  0  0  0  0  0
  132.6760  131.5000   62.8170 C   0  0  0  0  0  0  0  0  0  0  0  0
  132.3040  131.4130   60.3050 C   0  0  0  0  0  0  0  0  0  0  0  0
  131.4980  131.6830   59.1940 C   0  0  0  0  0  0  0  0  0  0  0  0
  132.0280  131.3100   57.8120 C   0  0  0  0  0  0  0  0  0  0  0  0
  130.2350  132.2880   59.3870 C   0  0  0  0  0  0  0  0  0  0  0  0
  129.3970  132.6260   58.2340 C   0  0  0  0  0  0  0  0  0  0  0  0
  128.7350  132.8910   57.3240 N   0  0  0  0  0  0  0  0  0  0  0  0
  1  2  1  0
  2  3  1  0
  3  4  2  0
  3  5  1  0
  5  6  1  0
  6  7  1  0
  7  8  2  0
  7  9  1  0
  9 10  1  0
 10 11  1  0
 11 12  2  0
 12 13  1  0
 13 14  1  0
 13 15  2  0
 15 16  1  0
 16 17  1  0
 16 18  2  0
 18 19  1  0
 19 20  3  0
 18 11  1  0
M  END
>  <Binding energies>  (13) 
[-6.19]

>  <Ligand effiencies>  (13) 
[-0.2947619047619048]

>  <Interactions>  (13) 
["V-A:GLU:543:CD:4908, V-B:ASP:366:CG:8184, V-A:ASN:362:CB:3176, V-A:PRO:540:C:4881, V-A:PRO:540:CB:4885, V-A:PRO:540:N:4884, V-B:GLY:454:CA:9020, V-A:PRO:540:CA:4883, V-A:TYR:539:C:4867, V-B:LEU:475:CD2:9230, H-B:ARG:545:NH1:9899, H-B:GLY:454:N:9021, H-A:ALA:541:N:4891, H-B:ARG:545:NH2:9900, V-B:ARG:545:CZ:9898, H-B:TYR:484:OH:9319, V-A:ALA:541:CB:4892, V-A:GLU:543:CG:4907, H-B:ARG:545:NE:9896, V-A:ALA:541:C:4888, V-A:LEU:363:CD1:3189, H-A:TYR:539:N:4870"]

$$$$
1n_Grossjean_2025
     RDKit          3D

 27 28  0  0  0  0  0  0  0  0999 V2000
  127.7290  128.8310   74.1450 C   0  0  0  0  0  0  0  0  0  0  0  0
  128.9940  129.4710   73.5640 C   0  0  0  0  0  0  0  0  0  0  0  0
  129.9450  128.4540   73.2710 O   0  0  0  0  0  0  0  0  0  0  0  0
  129.5640  127.2780   72.7100 C   0  0  0  0  0  0  0  0  0  0  0  0
  129.4290  126.2310   73.3500 O   0  0  0  0  0  0  0  0  0  0  0  0
  129.3090  127.3800   71.2330 C   0  0  0  0  0  0  0  0  0  0  0  0
  130.2870  127.8460   70.3410 C   0  0  0  0  0  0  0  0  0  0  0  0
  130.0170  127.9310   68.9790 C   0  0  0  0  0  0  0  0  0  0  0  0
  128.7670  127.5620   68.4800 C   0  0  0  0  0  0  0  0  0  0  0  0
  128.6010  127.6930   67.0870 N   0  0  0  0  0  0  0  0  0  0  0  0
  128.0520  128.7000   66.3740 C   0  0  0  0  0  0  0  0  0  0  0  0
  127.5830  129.7360   66.8460 O   0  0  0  0  0  0  0  0  0  0  0  0
  128.0320  128.5000   64.8530 C   0  0  0  0  0  0  0  0  0  0  0  0
  127.2000  129.5700   64.1130 C   0  0  0  0  0  0  0  0  0  0  0  0
  125.4540  129.6450   64.6120 S   0  0  0  0  0  0  0  0  0  0  0  0
  124.6480  130.8480   63.5770 C   0  0  0  0  0  0  0  0  0  0  0  0
  123.4490  130.4330   63.0950 N   0  0  0  0  0  0  0  0  0  0  0  0
  122.7380  131.2740   62.3080 C   0  0  0  0  0  0  0  0  0  0  0  0
  121.4040  130.7470   61.8150 C   0  0  0  0  0  0  0  0  0  0  0  0
  123.1900  132.5470   61.9670 C   0  0  0  0  0  0  0  0  0  0  0  0
  124.4340  132.9760   62.4420 C   0  0  0  0  0  0  0  0  0  0  0  0
  124.9150  134.3700   62.0440 C   0  0  0  0  0  0  0  0  0  0  0  0
  125.1970  132.1130   63.2610 C   0  0  0  0  0  0  0  0  0  0  0  0
  126.5230  132.5210   63.7270 C   0  0  0  0  0  0  0  0  0  0  0  0
  127.5720  132.8450   64.0930 N   0  0  0  0  0  0  0  0  0  0  0  0
  127.7880  127.0860   69.3640 C   0  0  0  0  0  0  0  0  0  0  0  0
  128.0610  126.9980   70.7260 C   0  0  0  0  0  0  0  0  0  0  0  0
  1  2  1  0
  2  3  1  0
  3  4  1  0
  4  5  2  0
  4  6  1  0
  6  7  2  0
  7  8  1  0
  8  9  2  0
  9 10  1  0
 10 11  1  0
 11 12  2  0
 11 13  1  0
 13 14  1  0
 14 15  1  0
 15 16  1  0
 16 17  2  0
 17 18  1  0
 18 19  1  0
 18 20  2  0
 20 21  1  0
 21 22  1  0
 21 23  2  0
 23 24  1  0
 24 25  3  0
  9 26  1  0
 26 27  2  0
 27  6  1  0
 23 16  1  0
M  END
>  <Binding energies>  (14) 
[-7.88]

>  <Ligand effiencies>  (14) 
[-0.2814285714285714]

>  <Interactions>  (14) 
["V-A:GLU:543:CD:4908, V-B:ASP:366:CG:8184, V-B:ILE:369:CB:8207, V-B:GLY:454:CA:9020, V-B:GLY:453:C:9013, V-B:ILE:369:CG2:8208, V-B:GLY:453:CA:9015, V-B:LEU:475:CD2:9230, V-B:ASP:366:CA:8181, H-B:GLY:454:N:9021, V-B:ILE:369:CG1:8209, H-B:ARG:545:NH2:9900, H-A:GLU:543:OE2:4910, V-B:GLU:543:CB:9878, V-B:GLU:543:CD:9880, V-B:HIS:456:CD2:9039, V-B:HIS:456:CG:9037, V-A:HIS:456:CE1:4070, H-B:LYS:547:NZ:9923, V-B:HIS:456:CE1:9041, V-B:GLU:543:C:9874, H-A:LYS:547:NZ:4951, V-A:GLU:543:CB:4906, V-A:GLU:543:C:4902, V-B:TYR:484:CZ:9318, H-B:TYR:484:OH:9319, V-A:GLU:543:CG:4907, H-B:GLU:543:OE2:9882, V-B:CYS:365:C:8175"]

$$$$
1q_Grossjean_2025
     RDKit          3D

 21 21  0  0  0  0  0  0  0  0999 V2000
  133.2130  131.6320   61.8000 C   0  0  0  0  0  0  0  0  0  0  0  0
  131.9710  132.2520   61.4980 O   0  0  0  0  0  0  0  0  0  0  0  0
  130.8390  131.8750   62.1430 C   0  0  0  0  0  0  0  0  0  0  0  0
  130.4980  132.2470   63.2670 O   0  0  0  0  0  0  0  0  0  0  0  0
  129.9700  130.8720   61.3550 C   0  0  0  0  0  0  0  0  0  0  0  0
  129.2170  129.9570   62.2250 N   0  0  0  0  0  0  0  0  0  0  0  0
  127.9280  129.6000   62.0670 C   0  0  0  0  0  0  0  0  0  0  0  0
  127.2220  130.0150   61.1460 O   0  0  0  0  0  0  0  0  0  0  0  0
  127.3710  128.6160   63.1060 C   0  0  0  0  0  0  0  0  0  0  0  0
  127.1900  129.2150   64.5140 C   0  0  0  0  0  0  0  0  0  0  0  0
  125.4610  129.5970   64.9260 S   0  0  0  0  0  0  0  0  0  0  0  0
  124.8300  130.7430   63.7170 C   0  0  0  0  0  0  0  0  0  0  0  0
  123.5980  130.4120   63.2520 N   0  0  0  0  0  0  0  0  0  0  0  0
  123.0150  131.2070   62.3260 C   0  0  0  0  0  0  0  0  0  0  0  0
  121.6470  130.7630   61.8420 C   0  0  0  0  0  0  0  0  0  0  0  0
  123.6220  132.3610   61.8360 C   0  0  0  0  0  0  0  0  0  0  0  0
  124.8800  132.7270   62.3260 C   0  0  0  0  0  0  0  0  0  0  0  0
  125.5170  134.0070   61.7870 C   0  0  0  0  0  0  0  0  0  0  0  0
  125.5080  131.9130   63.2960 C   0  0  0  0  0  0  0  0  0  0  0  0
  126.7990  132.3110   63.8620 C   0  0  0  0  0  0  0  0  0  0  0  0
  127.8190  132.6290   64.3070 N   0  0  0  0  0  0  0  0  0  0  0  0
  1  2  1  0
  2  3  1  0
  3  4  2  0
  3  5  1  0
  5  6  1  0
  6  7  1  0
  7  8  2  0
  7  9  1  0
  9 10  1  0
 10 11  1  0
 11 12  1  0
 12 13  2  0
 13 14  1  0
 14 15  1  0
 14 16  2  0
 16 17  1  0
 17 18  1  0
 17 19  2  0
 19 20  1  0
 20 21  3  0
 19 12  1  0
M  END
>  <Binding energies>  (15) 
[-5.75]

>  <Ligand effiencies>  (15) 
[-0.26136363636363635]

>  <Interactions>  (15) 
["V-A:GLU:543:CD:4908, V-B:ASP:366:CG:8184, V-A:ASN:362:CB:3176, V-B:ILE:369:CB:8207, V-A:PRO:540:CB:4885, V-B:GLY:454:CA:9020, V-A:PRO:540:CA:4883, V-B:GLY:453:C:9013, V-B:ILE:369:CG2:8208, V-B:GLY:453:CA:9015, V-B:LEU:475:CD2:9230, V-B:ASP:366:CA:8181, H-B:GLY:454:N:9021, H-A:ALA:541:N:4891, V-B:ILE:369:CG1:8209, H-B:ARG:545:NH2:9900, V-B:GLU:543:CD:9880, H-A:GLU:543:OE1:4909, V-B:TYR:484:CZ:9318, H-B:TYR:484:OH:9319, H-B:ARG:545:NE:9896, V-B:CYS:365:C:8175"]

$$$$
2a_Grossjean_2025
     RDKit          3D

 29 30  0  0  0  0  0  0  0  0999 V2000
  129.3570  132.3060   72.9960 C   0  0  0  0  0  0  0  0  0  0  0  0
  129.1010  130.9590   73.6800 C   0  0  0  0  0  0  0  0  0  0  0  0
  129.8730  129.9510   73.0380 O   0  0  0  0  0  0  0  0  0  0  0  0
  129.3860  128.6940   72.8740 C   0  0  0  0  0  0  0  0  0  0  0  0
  128.8010  128.0690   73.7630 O   0  0  0  0  0  0  0  0  0  0  0  0
  129.6120  128.1490   71.4920 C   0  0  0  0  0  0  0  0  0  0  0  0
  128.5980  127.4920   70.7800 C   0  0  0  0  0  0  0  0  0  0  0  0
  128.8410  126.9970   69.5020 C   0  0  0  0  0  0  0  0  0  0  0  0
  130.0980  127.1400   68.9130 C   0  0  0  0  0  0  0  0  0  0  0  0
  130.2330  126.5890   67.6260 N   0  0  0  0  0  0  0  0  0  0  0  0
  130.0530  125.3200   67.2010 C   0  0  0  0  0  0  0  0  0  0  0  0
  129.7460  124.3650   67.9140 O   0  0  0  0  0  0  0  0  0  0  0  0
  130.2620  125.0900   65.7000 C   0  0  0  0  0  0  0  0  0  0  0  0
  130.1180  123.3390   65.2120 S   0  0  0  0  0  0  0  0  0  0  0  0
  130.6400  123.1410   63.5120 C   0  0  0  0  0  0  0  0  0  0  0  0
  129.7260  122.5870   62.6760 N   0  0  0  0  0  0  0  0  0  0  0  0
  130.0570  122.3960   61.3790 C   0  0  0  0  0  0  0  0  0  0  0  0
  128.9930  121.7470   60.5130 C   0  0  0  0  0  0  0  0  0  0  0  0
  131.2990  122.7520   60.8610 C   0  0  0  0  0  0  0  0  0  0  0  0
  132.2570  123.3350   61.7050 C   0  0  0  0  0  0  0  0  0  0  0  0
  133.6260  123.7250   61.1170 C   0  0  0  0  0  0  0  0  0  0  0  0
  134.5990  123.0670   61.7460 F   0  0  0  0  0  0  0  0  0  0  0  0
  133.6670  123.4210   59.8180 F   0  0  0  0  0  0  0  0  0  0  0  0
  133.8830  125.0300   61.2310 F   0  0  0  0  0  0  0  0  0  0  0  0
  131.9230  123.5370   63.0690 C   0  0  0  0  0  0  0  0  0  0  0  0
  132.8870  124.1390   63.9960 C   0  0  0  0  0  0  0  0  0  0  0  0
  133.6480  124.6130   64.7280 N   0  0  0  0  0  0  0  0  0  0  0  0
  131.1140  127.8030   69.6160 C   0  0  0  0  0  0  0  0  0  0  0  0
  130.8690  128.3020   70.8930 C   0  0  0  0  0  0  0  0  0  0  0  0
  1  2  1  0
  2  3  1  0
  3  4  1  0
  4  5  2  0
  4  6  1  0
  6  7  2  0
  7  8  1  0
  8  9  2  0
  9 10  1  0
 10 11  1  0
 11 12  2  0
 11 13  1  0
 13 14  1  0
 14 15  1  0
 15 16  2  0
 16 17  1  0
 17 18  1  0
 17 19  2  0
 19 20  1  0
 20 21  1  0
 21 22  1  0
 21 23  1  0
 21 24  1  0
 20 25  2  0
 25 26  1  0
 26 27  3  0
  9 28  1  0
 28 29  2  0
 29  6  1  0
 25 15  1  0
M  END
>  <Binding energies>  (16) 
[-7.54]

>  <Ligand effiencies>  (16) 
[-0.25133333333333335]

>  <Interactions>  (16) 
["V-B:PRO:540:N:9856, V-B:TYR:539:CD2:9846, V-A:GLU:543:CD:4908, H-A:GLY:454:N:4050, H-A:TYR:484:OH:4348, V-B:TYR:539:CE2:9848, H-A:ARG:545:NE:4924, V-A:LEU:475:CD2:4259, V-B:PRO:540:CA:9855, V-A:ASP:366:CB:3212, V-A:ILE:369:CD1:3239, V-A:GLY:454:CA:4049, V-A:ASP:366:CG:3213, V-A:ILE:369:CG2:3237, V-A:ILE:369:CB:3236, H-A:GLU:543:OE2:4910, V-B:GLU:543:CB:9878, V-B:GLU:543:CG:9879, V-A:TYR:484:CE2:4346, V-A:ASP:366:CA:3210, V-B:HIS:456:CD2:9039, V-A:GLY:544:C:4912, V-A:LYS:547:CE:4950, V-A:HIS:456:CE1:4070, H-B:LYS:547:NZ:9923, V-B:HIS:456:CE1:9041, H-A:LYS:547:NZ:4951, H-A:GLU:543:OE1:4909, H-A:ARG:545:NH2:4928, V-A:GLU:543:CB:4906, V-A:GLU:543:C:4902, V-B:PRO:540:C:9853, V-B:TYR:539:C:9839, V-A:GLY:544:CA:4914"]

$$$$
2b_Grossjean_2025
     RDKit          3D

 28 29  0  0  0  0  0  0  0  0999 V2000
  129.3780  130.9770   73.2990 C   0  0  0  0  0  0  0  0  0  0  0  0
  130.0510  129.7610   73.0060 O   0  0  0  0  0  0  0  0  0  0  0  0
  129.3590  128.6170   72.7690 C   0  0  0  0  0  0  0  0  0  0  0  0
  128.6280  128.0780   73.6050 O   0  0  0  0  0  0  0  0  0  0  0  0
  129.5730  128.0710   71.3870 C   0  0  0  0  0  0  0  0  0  0  0  0
  128.5660  127.3800   70.6970 C   0  0  0  0  0  0  0  0  0  0  0  0
  128.7980  126.8840   69.4170 C   0  0  0  0  0  0  0  0  0  0  0  0
  130.0340  127.0730   68.7990 C   0  0  0  0  0  0  0  0  0  0  0  0
  130.1620  126.5260   67.5080 N   0  0  0  0  0  0  0  0  0  0  0  0
  129.9780  125.2560   67.0870 C   0  0  0  0  0  0  0  0  0  0  0  0
  129.6730  124.3040   67.8060 O   0  0  0  0  0  0  0  0  0  0  0  0
  130.1930  125.0280   65.5870 C   0  0  0  0  0  0  0  0  0  0  0  0
  130.0740  123.2740   65.1050 S   0  0  0  0  0  0  0  0  0  0  0  0
  130.6290  123.0650   63.4190 C   0  0  0  0  0  0  0  0  0  0  0  0
  129.7130  122.5600   62.5540 N   0  0  0  0  0  0  0  0  0  0  0  0
  130.0660  122.3710   61.2640 C   0  0  0  0  0  0  0  0  0  0  0  0
  128.9900  121.7910   60.3660 C   0  0  0  0  0  0  0  0  0  0  0  0
  131.3330  122.6820   60.7790 C   0  0  0  0  0  0  0  0  0  0  0  0
  132.2950  123.2120   61.6520 C   0  0  0  0  0  0  0  0  0  0  0  0
  133.6910  123.5550   61.0990 C   0  0  0  0  0  0  0  0  0  0  0  0
  134.5720  122.6280   61.4790 F   0  0  0  0  0  0  0  0  0  0  0  0
  133.6580  123.5980   59.7660 F   0  0  0  0  0  0  0  0  0  0  0  0
  134.1410  124.7360   61.5270 F   0  0  0  0  0  0  0  0  0  0  0  0
  131.9400  123.4100   63.0110 C   0  0  0  0  0  0  0  0  0  0  0  0
  132.9070  123.9550   63.9690 C   0  0  0  0  0  0  0  0  0  0  0  0
  133.6690  124.3860   64.7250 N   0  0  0  0  0  0  0  0  0  0  0  0
  131.0490  127.7560   69.4840 C   0  0  0  0  0  0  0  0  0  0  0  0
  130.8160  128.2500   70.7640 C   0  0  0  0  0  0  0  0  0  0  0  0
  1  2  1  0
  2  3  1  0
  3  4  2  0
  3  5  1  0
  5  6  2  0
  6  7  1  0
  7  8  2  0
  8  9  1  0
  9 10  1  0
 10 11  2  0
 10 12  1  0
 12 13  1  0
 13 14  1  0
 14 15  2  0
 15 16  1  0
 16 17  1  0
 16 18  2  0
 18 19  1  0
 19 20  1  0
 20 21  1  0
 20 22  1  0
 20 23  1  0
 19 24  2  0
 24 25  1  0
 25 26  3  0
  8 27  1  0
 27 28  2  0
 28  5  1  0
 24 14  1  0
M  END
>  <Binding energies>  (17) 
[-7.56]

>  <Ligand effiencies>  (17) 
[-0.26068965517241377]

>  <Interactions>  (17) 
["V-B:PRO:540:N:9856, V-B:TYR:539:CD2:9846, V-A:GLU:543:CD:4908, H-A:GLY:454:N:4050, H-A:TYR:484:OH:4348, V-B:TYR:539:CE2:9848, V-A:LEU:475:CD2:4259, V-B:PRO:540:CA:9855, V-A:ILE:369:CD1:3239, V-A:GLY:454:CA:4049, V-A:ASP:366:CG:3213, V-A:ILE:369:CG2:3237, V-A:ILE:369:CG1:3238, V-A:ILE:369:CB:3236, H-A:GLU:543:OE2:4910, V-B:GLU:543:CB:9878, V-B:GLU:543:CG:9879, V-A:TYR:484:CE2:4346, V-B:HIS:456:CD2:9039, V-A:GLY:544:C:4912, V-A:LYS:547:CE:4950, V-A:HIS:456:CE1:4070, H-B:LYS:547:NZ:9923, V-B:HIS:456:CE1:9041, V-B:GLU:543:C:9874, H-A:LYS:547:NZ:4951, H-A:GLU:543:OE1:4909, V-A:GLU:543:CB:4906, V-A:GLU:543:C:4902, V-B:PRO:540:C:9853, V-B:TYR:539:C:9839, V-A:GLY:544:CA:4914"]

$$$$
2c_Grossjean_2025
     RDKit          3D

 26 27  0  0  0  0  0  0  0  0999 V2000
  128.8810  128.8860   73.4710 C   0  0  0  0  0  0  0  0  0  0  0  0
  130.0770  128.8560   72.6990 O   0  0  0  0  0  0  0  0  0  0  0  0
  130.0530  128.2860   71.4410 C   0  0  0  0  0  0  0  0  0  0  0  0
  131.2500  128.3010   70.7270 C   0  0  0  0  0  0  0  0  0  0  0  0
  131.3250  127.7520   69.4500 C   0  0  0  0  0  0  0  0  0  0  0  0
  130.1830  127.1850   68.8650 C   0  0  0  0  0  0  0  0  0  0  0  0
  130.1640  126.5910   67.5890 N   0  0  0  0  0  0  0  0  0  0  0  0
  129.9230  125.3030   67.2630 C   0  0  0  0  0  0  0  0  0  0  0  0
  129.7250  124.3990   68.0770 O   0  0  0  0  0  0  0  0  0  0  0  0
  129.9480  125.0020   65.7570 C   0  0  0  0  0  0  0  0  0  0  0  0
  130.0690  123.2340   65.3120 S   0  0  0  0  0  0  0  0  0  0  0  0
  130.5230  123.0850   63.5880 C   0  0  0  0  0  0  0  0  0  0  0  0
  129.5800  122.5380   62.7770 N   0  0  0  0  0  0  0  0  0  0  0  0
  129.8570  122.3860   61.4640 C   0  0  0  0  0  0  0  0  0  0  0  0
  128.7610  121.7540   60.6290 C   0  0  0  0  0  0  0  0  0  0  0  0
  131.0710  122.7760   60.9020 C   0  0  0  0  0  0  0  0  0  0  0  0
  132.0560  123.3490   61.7190 C   0  0  0  0  0  0  0  0  0  0  0  0
  133.3930  123.7770   61.0820 C   0  0  0  0  0  0  0  0  0  0  0  0
  133.5360  125.1010   61.1670 F   0  0  0  0  0  0  0  0  0  0  0  0
  134.4100  123.1900   61.7140 F   0  0  0  0  0  0  0  0  0  0  0  0
  133.4780  123.4470   59.7910 F   0  0  0  0  0  0  0  0  0  0  0  0
  131.7810  123.5100   63.1000 C   0  0  0  0  0  0  0  0  0  0  0  0
  132.7760  124.1020   64.0020 C   0  0  0  0  0  0  0  0  0  0  0  0
  133.5610  124.5690   64.7130 N   0  0  0  0  0  0  0  0  0  0  0  0
  128.9850  127.1530   69.5810 C   0  0  0  0  0  0  0  0  0  0  0  0
  128.9160  127.7020   70.8580 C   0  0  0  0  0  0  0  0  0  0  0  0
  1  2  1  0
  2  3  1  0
  3  4  2  0
  4  5  1  0
  5  6  2  0
  6  7  1  0
  7  8  1  0
  8  9  2  0
  8 10  1  0
 10 11  1  0
 11 12  1  0
 12 13  2  0
 13 14  1  0
 14 15  1  0
 14 16  2  0
 16 17  1  0
 17 18  1  0
 18 19  1  0
 18 20  1  0
 18 21  1  0
 17 22  2  0
 22 23  1  0
 23 24  3  0
  6 25  1  0
 25 26  2  0
 26  3  1  0
 22 12  1  0
M  END
>  <Binding energies>  (18) 
[-6.76]

>  <Ligand effiencies>  (18) 
[-0.25037037037037035]

>  <Interactions>  (18) 
["V-B:PRO:540:N:9856, V-B:TYR:539:CD2:9846, V-A:GLU:543:CD:4908, H-A:GLY:454:N:4050, H-A:TYR:484:OH:4348, V-B:TYR:539:CE2:9848, H-A:ARG:545:NE:4924, V-A:LEU:475:CD2:4259, V-B:PRO:540:CA:9855, V-A:ASP:366:CB:3212, V-A:ILE:369:CD1:3239, V-A:ASP:366:CG:3213, V-A:ILE:369:CG2:3237, V-A:ILE:369:CB:3236, H-A:GLU:543:OE2:4910, V-B:GLU:543:CB:9878, V-B:GLU:543:CG:9879, V-A:TYR:484:CE2:4346, V-B:GLU:543:CD:9880, V-B:HIS:456:CD2:9039, V-A:GLY:544:C:4912, V-A:HIS:456:CE1:4070, V-B:HIS:456:CE1:9041, H-A:LYS:547:NZ:4951, H-A:GLU:543:OE1:4909, H-A:ARG:545:NH2:4928, V-A:GLU:543:CB:4906, V-A:GLU:543:C:4902, V-B:PRO:540:C:9853, V-B:TYR:539:C:9839, V-A:GLY:544:CA:4914, V-B:GLU:543:CA:9876, V-A:ARG:545:CG:4922, V-A:ARG:545:CA:4919"]

$$$$
2d_Ghoteimi_2023
     RDKit          3D

 38 42  0  0  0  0  0  0  0  0999 V2000
  123.9000  130.3820   62.2460 C   0  0  0  0  0  0  0  0  0  0  0  0
  123.8240  130.7170   63.6240 O   0  0  0  0  0  0  0  0  0  0  0  0
  124.4460  129.9580   64.5490 C   0  0  0  0  0  0  0  0  0  0  0  0
  124.1090  129.8500   65.7320 O   0  0  0  0  0  0  0  0  0  0  0  0
  125.6490  129.2170   63.9460 C   0  0  0  0  0  0  0  0  0  0  0  0
  127.2200  129.8250   64.6510 S   0  0  0  0  0  0  0  0  0  0  0  0
  128.1550  128.4220   65.2260 C   0  0  0  0  0  0  0  0  0  0  0  0
  128.2690  128.3720   66.5760 N   0  0  0  0  0  0  0  0  0  0  0  0
  128.9630  127.3590   67.1540 C   0  0  0  0  0  0  0  0  0  0  0  0
  129.0600  127.3800   68.6450 C   0  0  0  0  0  0  0  0  0  0  0  0
  127.9700  126.9990   69.4360 C   0  0  0  0  0  0  0  0  0  0  0  0
  128.0540  127.0160   70.8250 C   0  0  0  0  0  0  0  0  0  0  0  0
  129.2350  127.4060   71.4750 C   0  0  0  0  0  0  0  0  0  0  0  0
  129.3300  127.4460   72.8710 N   0  0  0  0  0  0  0  0  0  0  0  0
  130.5390  126.9750   73.5760 C   0  0  0  0  0  0  0  0  0  0  0  0
  130.3230  126.7470   75.0870 C   0  0  0  0  0  0  0  0  0  0  0  0
  129.8160  127.9280   75.6870 O   0  0  0  0  0  0  0  0  0  0  0  0
  128.5700  128.3060   75.1230 C   0  0  0  0  0  0  0  0  0  0  0  0
  128.7320  128.5750   73.6120 C   0  0  0  0  0  0  0  0  0  0  0  0
  130.3200  127.8000   70.6790 C   0  0  0  0  0  0  0  0  0  0  0  0
  130.2350  127.7850   69.2900 C   0  0  0  0  0  0  0  0  0  0  0  0
  129.5600  126.3610   66.3790 C   0  0  0  0  0  0  0  0  0  0  0  0
  129.4290  126.3710   64.9850 C   0  0  0  0  0  0  0  0  0  0  0  0
  130.0700  125.2570   64.2240 C   0  0  0  0  0  0  0  0  0  0  0  0
  129.2820  124.3200   63.5530 C   0  0  0  0  0  0  0  0  0  0  0  0
  129.8690  123.2850   62.8310 C   0  0  0  0  0  0  0  0  0  0  0  0
  131.2660  123.1560   62.7620 C   0  0  0  0  0  0  0  0  0  0  0  0
  131.8780  122.1330   62.0330 N   0  0  0  0  0  0  0  0  0  0  0  0
  133.2560  122.2690   61.5230 C   0  0  0  0  0  0  0  0  0  0  0  0
  133.8790  120.9320   61.0670 C   0  0  0  0  0  0  0  0  0  0  0  0
  133.0410  120.3080   60.1060 O   0  0  0  0  0  0  0  0  0  0  0  0
  131.7510  120.0380   60.6320 C   0  0  0  0  0  0  0  0  0  0  0  0
  131.0730  121.3530   61.0720 C   0  0  0  0  0  0  0  0  0  0  0  0
  132.0490  124.1110   63.4240 C   0  0  0  0  0  0  0  0  0  0  0  0
  131.4610  125.1470   64.1450 C   0  0  0  0  0  0  0  0  0  0  0  0
  128.7010  127.4270   64.3830 C   0  0  0  0  0  0  0  0  0  0  0  0
  128.5210  127.4710   62.9290 C   0  0  0  0  0  0  0  0  0  0  0  0
  128.3800  127.5010   61.7800 N   0  0  0  0  0  0  0  0  0  0  0  0
  1  2  1  0
  2  3  1  0
  3  4  2  0
  3  5  1  0
  5  6  1  0
  6  7  1  0
  7  8  2  0
  8  9  1  0
  9 10  1  0
 10 11  2  0
 11 12  1  0
 12 13  2  0
 13 14  1  0
 14 15  1  0
 15 16  1  0
 16 17  1  0
 17 18  1  0
 18 19  1  0
 13 20  1  0
 20 21  2  0
  9 22  2  0
 22 23  1  0
 23 24  1  0
 24 25  2  0
 25 26  1  0
 26 27  2  0
 27 28  1  0
 28 29  1  0
 29 30  1  0
 30 31  1  0
 31 32  1  0
 32 33  1  0
 27 34  1  0
 34 35  2  0
 23 36  2  0
 36 37  1  0
 37 38  3  0
 36  7  1  0
 21 10  1  0
 35 24  1  0
 19 14  1  0
 33 28  1  0
M  END
>  <Binding energies>  (19) 
[-9.24]

>  <Ligand effiencies>  (19) 
[-0.2431578947368421]

>  <Interactions>  (19) 
["V-B:TYR:539:CD2:9846, V-A:GLU:543:CD:4908, V-B:ASP:366:CG:8184, V-B:TYR:539:CE2:9848, V-A:LEU:475:CD2:4259, V-B:GLY:454:CA:9020, H-B:GLY:454:N:9021, V-A:ILE:369:CD1:3239, V-A:ILE:369:CG2:3237, V-B:GLU:543:CB:9878, V-B:GLU:543:CG:9879, V-A:SER:385:C:3405, V-B:GLU:543:CD:9880, V-B:HIS:456:CD2:9039, V-A:HIS:456:CD2:4068, V-A:HIS:456:CE1:4070, H-B:LYS:547:NZ:9923, V-B:HIS:456:CE1:9041, V-B:GLU:543:C:9874, H-A:LYS:547:NZ:4951, V-A:GLU:543:CB:4906, V-B:ARG:545:CZ:9898, H-B:TYR:484:OH:9319, V-A:GLU:543:CG:4907, H-B:ARG:545:NE:9896, V-A:SER:385:CA:3407, H-A:SER:385:OG:3410, V-A:SER:385:CB:3409"]

$$$$
2d_Grossjean_2025
     RDKit          3D

 24 25  0  0  0  0  0  0  0  0999 V2000
  128.9880  121.7720   60.5830 C   0  0  0  0  0  0  0  0  0  0  0  0
  130.0830  122.3590   61.4530 C   0  0  0  0  0  0  0  0  0  0  0  0
  131.3450  122.6500   60.9390 C   0  0  0  0  0  0  0  0  0  0  0  0
  132.3230  123.1970   61.7830 C   0  0  0  0  0  0  0  0  0  0  0  0
  133.7100  123.5220   61.1950 C   0  0  0  0  0  0  0  0  0  0  0  0
  134.6120  122.6480   61.6430 F   0  0  0  0  0  0  0  0  0  0  0  0
  133.6690  123.4560   59.8630 F   0  0  0  0  0  0  0  0  0  0  0  0
  134.1370  124.7430   61.5230 F   0  0  0  0  0  0  0  0  0  0  0  0
  131.9940  123.4280   63.1430 C   0  0  0  0  0  0  0  0  0  0  0  0
  132.9650  124.0400   64.0540 C   0  0  0  0  0  0  0  0  0  0  0  0
  133.7320  124.5240   64.7720 N   0  0  0  0  0  0  0  0  0  0  0  0
  130.6950  123.0780   63.5820 C   0  0  0  0  0  0  0  0  0  0  0  0
  130.1250  123.2710   65.2600 S   0  0  0  0  0  0  0  0  0  0  0  0
  130.4260  124.9910   65.7860 C   0  0  0  0  0  0  0  0  0  0  0  0
  129.9810  125.2630   67.2260 C   0  0  0  0  0  0  0  0  0  0  0  0
  129.4420  124.3600   67.8660 O   0  0  0  0  0  0  0  0  0  0  0  0
  130.1960  126.5170   67.6760 N   0  0  0  0  0  0  0  0  0  0  0  0
  129.9070  127.0700   68.9380 C   0  0  0  0  0  0  0  0  0  0  0  0
  130.9560  127.7460   69.5650 C   0  0  0  0  0  0  0  0  0  0  0  0
  130.7690  128.3220   70.8190 C   0  0  0  0  0  0  0  0  0  0  0  0
  129.5320  128.2140   71.4510 C   0  0  0  0  0  0  0  0  0  0  0  0
  128.4830  127.5310   70.8410 C   0  0  0  0  0  0  0  0  0  0  0  0
  128.6660  126.9550   69.5870 C   0  0  0  0  0  0  0  0  0  0  0  0
  129.7550  122.5700   62.7480 N   0  0  0  0  0  0  0  0  0  0  0  0
  1  2  1  0
  2  3  2  0
  3  4  1  0
  4  5  1  0
  5  6  1  0
  5  7  1  0
  5  8  1  0
  4  9  2  0
  9 10  1  0
 10 11  3  0
  9 12  1  0
 12 13  1  0
 13 14  1  0
 14 15  1  0
 15 16  2  0
 15 17  1  0
 17 18  1  0
 18 19  2  0
 19 20  1  0
 20 21  2  0
 21 22  1  0
 22 23  2  0
 12 24  2  0
 24  2  1  0
 23 18  1  0
M  END
>  <Binding energies>  (20) 
[-6.64]

>  <Ligand effiencies>  (20) 
[-0.2656]

>  <Interactions>  (20) 
["V-B:TYR:539:CD2:9846, V-A:GLU:543:CD:4908, H-A:GLY:454:N:4050, H-A:TYR:484:OH:4348, V-B:TYR:539:CE2:9848, H-A:ARG:545:NE:4924, V-A:LEU:475:CD2:4259, V-B:PRO:540:CA:9855, V-A:ILE:369:CD1:3239, V-A:GLY:454:CA:4049, V-A:ASP:366:CG:3213, V-A:ILE:369:CG2:3237, V-A:ILE:369:CG1:3238, V-A:ILE:369:CB:3236, H-A:GLU:543:OE2:4910, V-B:GLU:543:CB:9878, V-B:GLU:543:CG:9879, V-A:TYR:484:CE2:4346, V-B:HIS:456:CD2:9039, V-A:GLY:544:C:4912, V-A:HIS:456:CE1:4070, V-B:HIS:456:CE1:9041, V-B:GLU:543:C:9874, V-A:GLU:543:CB:4906, V-A:GLU:543:C:4902, V-B:PRO:540:C:9853, V-B:TYR:539:C:9839, V-A:GLY:544:CA:4914, V-B:GLU:543:CA:9876"]

$$$$
2e_Grossjean_2025
     RDKit          3D

 25 26  0  0  0  0  0  0  0  0999 V2000
  127.1280  127.0020   71.3950 C   0  0  0  0  0  0  0  0  0  0  0  0
  128.5090  127.3860   70.8970 C   0  0  0  0  0  0  0  0  0  0  0  0
  129.3810  128.1510   71.6760 C   0  0  0  0  0  0  0  0  0  0  0  0
  130.6400  128.4560   71.1580 C   0  0  0  0  0  0  0  0  0  0  0  0
  130.9940  127.9950   69.8870 C   0  0  0  0  0  0  0  0  0  0  0  0
  130.0680  127.2410   69.1560 C   0  0  0  0  0  0  0  0  0  0  0  0
  130.4910  126.7670   67.9030 N   0  0  0  0  0  0  0  0  0  0  0  0
  130.1820  125.5930   67.3080 C   0  0  0  0  0  0  0  0  0  0  0  0
  129.3950  124.7590   67.7580 O   0  0  0  0  0  0  0  0  0  0  0  0
  130.9190  125.2950   65.9990 C   0  0  0  0  0  0  0  0  0  0  0  0
  129.7720  125.1090   64.5960 S   0  0  0  0  0  0  0  0  0  0  0  0
  130.5410  123.9300   63.5070 C   0  0  0  0  0  0  0  0  0  0  0  0
  131.8880  124.0500   63.4040 N   0  0  0  0  0  0  0  0  0  0  0  0
  132.5470  123.2220   62.5630 C   0  0  0  0  0  0  0  0  0  0  0  0
  134.0500  123.4090   62.4970 C   0  0  0  0  0  0  0  0  0  0  0  0
  131.8980  122.2570   61.7940 C   0  0  0  0  0  0  0  0  0  0  0  0
  130.5040  122.1260   61.8820 C   0  0  0  0  0  0  0  0  0  0  0  0
  129.7990  121.0700   61.0110 C   0  0  0  0  0  0  0  0  0  0  0  0
  129.0910  121.6660   60.0510 F   0  0  0  0  0  0  0  0  0  0  0  0
  130.7020  120.2670   60.4480 F   0  0  0  0  0  0  0  0  0  0  0  0
  128.9590  120.3030   61.7100 F   0  0  0  0  0  0  0  0  0  0  0  0
  129.7990  122.9830   62.7640 C   0  0  0  0  0  0  0  0  0  0  0  0
  128.3390  122.9170   62.8790 C   0  0  0  0  0  0  0  0  0  0  0  0
  127.1860  122.8650   62.9690 N   0  0  0  0  0  0  0  0  0  0  0  0
  128.8370  126.9320   69.6600 N   0  0  0  0  0  0  0  0  0  0  0  0
  1  2  1  0
  2  3  2  0
  3  4  1  0
  4  5  2  0
  5  6  1  0
  6  7  1  0
  7  8  1  0
  8  9  2  0
  8 10  1  0
 10 11  1  0
 11 12  1  0
 12 13  2  0
 13 14  1  0
 14 15  1  0
 14 16  2  0
 16 17  1  0
 17 18  1  0
 18 19  1  0
 18 20  1  0
 18 21  1  0
 17 22  2  0
 22 23  1  0
 23 24  3  0
  6 25  2  0
 25  2  1  0
 22 12  1  0
M  END
>  <Binding energies>  (21) 
[-6.47]

>  <Ligand effiencies>  (21) 
[-0.24884615384615383]

>  <Interactions>  (21) 
["V-B:PRO:540:N:9856, V-B:TYR:539:CD2:9846, V-A:GLU:543:CD:4908, V-B:TYR:539:CE2:9848, V-A:LEU:475:CD2:4259, V-B:PRO:540:CA:9855, V-A:ILE:369:CD1:3239, H-B:ALA:541:N:9863, V-A:GLY:454:CA:4049, H-A:GLU:543:OE2:4910, V-B:GLU:543:CB:9878, V-B:GLU:543:CG:9879, V-B:GLU:543:CD:9880, V-B:ALA:541:CB:9864, V-B:HIS:456:CD2:9039, V-A:GLY:544:C:4912, V-B:GLY:544:C:9884, V-B:HIS:456:CG:9037, V-B:GLY:544:CA:9886, V-A:HIS:456:CE1:4070, V-B:HIS:456:CE1:9041, V-B:GLU:543:C:9874, V-A:GLU:543:CB:4906, V-A:GLU:543:C:4902, V-B:PRO:540:C:9853, V-B:TYR:539:CG:9844, V-B:TYR:539:C:9839, V-A:GLY:544:CA:4914, V-B:ALA:541:CA:9862"]

$$$$
2f_Grossjean_2025
     RDKit          3D

 24 25  0  0  0  0  0  0  0  0999 V2000
  128.0890  122.8710   62.9620 C   0  0  0  0  0  0  0  0  0  0  0  0
  129.4370  123.3710   63.4420 C   0  0  0  0  0  0  0  0  0  0  0  0
  130.5640  123.3330   62.6240 C   0  0  0  0  0  0  0  0  0  0  0  0
  131.7920  123.8010   63.1170 C   0  0  0  0  0  0  0  0  0  0  0  0
  133.0290  123.7390   62.2010 C   0  0  0  0  0  0  0  0  0  0  0  0
  132.6860  123.2710   60.9990 F   0  0  0  0  0  0  0  0  0  0  0  0
  133.5490  124.9580   62.0570 F   0  0  0  0  0  0  0  0  0  0  0  0
  133.9890  122.9460   62.6800 F   0  0  0  0  0  0  0  0  0  0  0  0
  131.8420  124.3070   64.4420 C   0  0  0  0  0  0  0  0  0  0  0  0
  133.1110  124.7540   65.0220 C   0  0  0  0  0  0  0  0  0  0  0  0
  134.1140  125.1080   65.4790 N   0  0  0  0  0  0  0  0  0  0  0  0
  130.6410  124.3310   65.1910 C   0  0  0  0  0  0  0  0  0  0  0  0
  130.5170  124.9410   66.8600 S   0  0  0  0  0  0  0  0  0  0  0  0
  129.2330  126.2380   66.8950 C   0  0  0  0  0  0  0  0  0  0  0  0
  129.2490  127.1360   68.1400 C   0  0  0  0  0  0  0  0  0  0  0  0
  129.3660  128.3580   68.0320 O   0  0  0  0  0  0  0  0  0  0  0  0
  129.1450  126.4720   69.3110 N   0  0  0  0  0  0  0  0  0  0  0  0
  129.1150  126.9750   70.6260 C   0  0  0  0  0  0  0  0  0  0  0  0
  129.7560  128.1480   71.0660 C   0  0  0  0  0  0  0  0  0  0  0  0
  129.6420  128.5390   72.4010 C   0  0  0  0  0  0  0  0  0  0  0  0
  128.8850  127.7480   73.2660 C   0  0  0  0  0  0  0  0  0  0  0  0
  128.2500  126.6180   72.8650 N   0  0  0  0  0  0  0  0  0  0  0  0
  128.3700  126.2510   71.5630 C   0  0  0  0  0  0  0  0  0  0  0  0
  129.4690  123.8540   64.7050 N   0  0  0  0  0  0  0  0  0  0  0  0
  1  2  1  0
  2  3  2  0
  3  4  1  0
  4  5  1  0
  5  6  1  0
  5  7  1  0
  5  8  1  0
  4  9  2  0
  9 10  1  0
 10 11  3  0
  9 12  1  0
 12 13  1  0
 13 14  1  0
 14 15  1  0
 15 16  2  0
 15 17  1  0
 17 18  1  0
 18 19  2  0
 19 20  1  0
 20 21  2  0
 21 22  1  0
 22 23  2  0
 12 24  2  0
 24  2  1  0
 23 18  1  0
M  END
>  <Binding energies>  (22) 
[-6.16]

>  <Ligand effiencies>  (22) 
[-0.2464]

>  <Interactions>  (22) 
["H-A:GLY:454:N:4050, H-A:TYR:484:OH:4348, H-A:ARG:545:NE:4924, V-A:ARG:545:CZ:4926, V-A:ILE:369:CD1:3239, V-A:GLY:454:CA:4049, V-A:ASP:366:CG:3213, V-A:TYR:484:CZ:4347, V-B:GLU:543:CB:9878, V-B:GLU:543:CG:9879, V-A:TYR:484:CE2:4346, V-B:GLU:543:CD:9880, V-B:ALA:541:CB:9864, V-B:HIS:456:CD2:9039, V-A:HIS:456:CE1:4070, H-B:LYS:547:NZ:9923, V-B:GLU:543:C:9874, H-B:GLU:543:O:9875, H-A:ARG:545:NH2:4928, H-A:HIS:456:NE2:4071, V-B:ALA:541:CA:9862, H-A:ARG:545:NH1:4927"]

$$$$
2g_Grossjean_2025
     RDKit          3D

 25 26  0  0  0  0  0  0  0  0999 V2000
  128.5960  127.0750   70.3700 C   0  0  0  0  0  0  0  0  0  0  0  0
  128.7150  127.1170   68.8590 C   0  0  0  0  0  0  0  0  0  0  0  0
  128.0990  128.1150   68.1070 C   0  0  0  0  0  0  0  0  0  0  0  0
  128.2320  128.1070   66.7100 C   0  0  0  0  0  0  0  0  0  0  0  0
  127.5360  129.2130   65.8940 C   0  0  0  0  0  0  0  0  0  0  0  0
  126.2830  129.3830   66.3200 F   0  0  0  0  0  0  0  0  0  0  0  0
  128.1990  130.3620   66.0330 F   0  0  0  0  0  0  0  0  0  0  0  0
  127.4790  128.9350   64.5900 F   0  0  0  0  0  0  0  0  0  0  0  0
  129.0020  127.0790   66.1080 C   0  0  0  0  0  0  0  0  0  0  0  0
  129.1260  126.9920   64.6500 C   0  0  0  0  0  0  0  0  0  0  0  0
  129.2230  126.9240   63.4990 N   0  0  0  0  0  0  0  0  0  0  0  0
  129.6170  126.1250   66.9540 C   0  0  0  0  0  0  0  0  0  0  0  0
  130.6360  124.7880   66.3690 S   0  0  0  0  0  0  0  0  0  0  0  0
  132.2740  125.4840   65.9640 C   0  0  0  0  0  0  0  0  0  0  0  0
  132.7970  125.1230   64.5670 C   0  0  0  0  0  0  0  0  0  0  0  0
  133.8660  124.5280   64.4160 O   0  0  0  0  0  0  0  0  0  0  0  0
  132.0150  125.5040   63.5410 N   0  0  0  0  0  0  0  0  0  0  0  0
  132.2970  125.2650   62.1240 C   0  0  0  0  0  0  0  0  0  0  0  0
  132.5780  123.8080   61.7760 C   0  0  0  0  0  0  0  0  0  0  0  0
  131.5250  122.9630   61.4130 C   0  0  0  0  0  0  0  0  0  0  0  0
  131.7840  121.6410   61.0580 C   0  0  0  0  0  0  0  0  0  0  0  0
  133.0950  121.1720   61.0560 C   0  0  0  0  0  0  0  0  0  0  0  0
  134.1510  122.0130   61.4040 C   0  0  0  0  0  0  0  0  0  0  0  0
  133.8930  123.3340   61.7590 C   0  0  0  0  0  0  0  0  0  0  0  0
  129.4590  126.1350   68.3010 N   0  0  0  0  0  0  0  0  0  0  0  0
  1  2  1  0
  2  3  2  0
  3  4  1  0
  4  5  1  0
  5  6  1  0
  5  7  1  0
  5  8  1  0
  4  9  2  0
  9 10  1  0
 10 11  3  0
  9 12  1  0
 12 13  1  0
 13 14  1  0
 14 15  1  0
 15 16  2  0
 15 17  1  0
 17 18  1  0
 18 19  1  0
 19 20  2  0
 20 21  1  0
 21 22  2  0
 22 23  1  0
 23 24  2  0
 12 25  2  0
 25  2  1  0
 24 19  1  0
M  END
>  <Binding energies>  (23) 
[-6.23]

>  <Ligand effiencies>  (23) 
[-0.23961538461538462]

>  <Interactions>  (23) 
["V-B:TYR:539:CD2:9846, V-A:GLU:543:CD:4908, H-A:GLY:454:N:4050, H-A:TYR:484:OH:4348, V-B:TYR:539:CE2:9848, H-A:ARG:545:NE:4924, V-A:ARG:545:CZ:4926, V-A:LEU:475:CD2:4259, V-A:ILE:369:CD1:3239, V-A:ILE:369:CG2:3237, H-A:GLU:543:OE2:4910, V-B:GLU:543:CB:9878, V-B:GLU:543:CG:9879, V-B:GLU:543:CD:9880, V-B:HIS:456:CE1:9041, H-A:GLU:543:OE1:4909, H-A:ARG:545:NH2:4928, V-A:GLU:543:CB:4906, V-B:TYR:484:CZ:9318, V-A:GLU:543:CG:4907, V-A:SER:385:CB:3409, V-B:TYR:484:CE2:9317"]

$$$$
2h_Grossjean_2025
     RDKit          3D

 31 32  0  0  0  0  0  0  0  0999 V2000
  126.9090  127.7500   73.7390 C   0  0  0  0  0  0  0  0  0  0  0  0
  127.5810  126.7440   72.9900 O   0  0  0  0  0  0  0  0  0  0  0  0
  127.9700  127.0110   71.6890 C   0  0  0  0  0  0  0  0  0  0  0  0
  127.2080  126.6770   70.5590 C   0  0  0  0  0  0  0  0  0  0  0  0
  127.6620  126.9860   69.2790 C   0  0  0  0  0  0  0  0  0  0  0  0
  128.8850  127.6350   69.0990 C   0  0  0  0  0  0  0  0  0  0  0  0
  129.3530  127.9830   67.6870 C   0  0  0  0  0  0  0  0  0  0  0  0
  129.3650  126.8390   66.7750 N   0  0  0  0  0  0  0  0  0  0  0  0
  130.3140  125.8860   66.7460 C   0  0  0  0  0  0  0  0  0  0  0  0
  131.3300  125.9240   67.4430 O   0  0  0  0  0  0  0  0  0  0  0  0
  130.0530  124.7190   65.7840 C   0  0  0  0  0  0  0  0  0  0  0  0
  129.7060  125.2040   64.0600 S   0  0  0  0  0  0  0  0  0  0  0  0
  130.3330  123.9010   63.0230 C   0  0  0  0  0  0  0  0  0  0  0  0
  129.3890  123.3260   62.2380 N   0  0  0  0  0  0  0  0  0  0  0  0
  129.7540  122.3110   61.4230 C   0  0  0  0  0  0  0  0  0  0  0  0
  128.6450  121.7120   60.5800 C   0  0  0  0  0  0  0  0  0  0  0  0
  131.0610  121.8350   61.3540 C   0  0  0  0  0  0  0  0  0  0  0  0
  132.0560  122.4310   62.1440 C   0  0  0  0  0  0  0  0  0  0  0  0
  133.4980  121.8960   62.0470 C   0  0  0  0  0  0  0  0  0  0  0  0
  133.8760  121.3910   63.2210 F   0  0  0  0  0  0  0  0  0  0  0  0
  133.6310  120.9300   61.1350 F   0  0  0  0  0  0  0  0  0  0  0  0
  134.3310  122.8820   61.7110 F   0  0  0  0  0  0  0  0  0  0  0  0
  131.6910  123.5020   62.9990 C   0  0  0  0  0  0  0  0  0  0  0  0
  132.7030  124.1960   63.8000 C   0  0  0  0  0  0  0  0  0  0  0  0
  133.5040  124.7440   64.4290 N   0  0  0  0  0  0  0  0  0  0  0  0
  129.6680  127.9540   70.2190 C   0  0  0  0  0  0  0  0  0  0  0  0
  130.8750  128.5910   70.0490 O   0  0  0  0  0  0  0  0  0  0  0  0
  131.9260  127.7450   69.5990 C   0  0  0  0  0  0  0  0  0  0  0  0
  129.1990  127.6590   71.5100 C   0  0  0  0  0  0  0  0  0  0  0  0
  129.9560  127.9870   72.6100 O   0  0  0  0  0  0  0  0  0  0  0  0
  130.9110  126.9990   72.9740 C   0  0  0  0  0  0  0  0  0  0  0  0
  1  2  1  0
  2  3  1  0
  3  4  2  0
  4  5  1  0
  5  6  2  0
  6  7  1  0
  7  8  1  0
  8  9  1  0
  9 10  2  0
  9 11  1  0
 11 12  1  0
 12 13  1  0
 13 14  2  0
 14 15  1  0
 15 16  1  0
 15 17  2  0
 17 18  1  0
 18 19  1  0
 19 20  1  0
 19 21  1  0
 19 22  1  0
 18 23  2  0
 23 24  1  0
 24 25  3  0
  6 26  1  0
 26 27  1  0
 27 28  1  0
 26 29  2  0
 29 30  1  0
 30 31  1  0
 29  3  1  0
 23 13  1  0
M  END
>  <Binding energies>  (24) 
[-5.85]

>  <Ligand effiencies>  (24) 
[-0.1828125]

>  <Interactions>  (24) 
["V-B:PRO:540:N:9856, V-B:TYR:539:CD2:9846, V-A:GLU:543:CD:4908, H-A:GLY:454:N:4050, H-A:TYR:484:OH:4348, V-B:TYR:539:CE2:9848, H-A:ARG:545:NE:4924, V-A:LEU:475:CD2:4259, V-B:PRO:540:CA:9855, V-A:ILE:369:CD1:3239, V-A:GLY:454:CA:4049, V-A:ILE:369:CG2:3237, H-A:GLU:543:OE2:4910, V-B:GLU:543:CB:9878, V-B:GLU:543:CG:9879, V-A:SER:385:C:3405, V-A:TYR:484:CE2:4346, V-B:GLU:543:CD:9880, V-B:HIS:456:CD2:9039, V-A:GLY:544:C:4912, V-B:GLY:544:C:9884, V-B:HIS:456:CG:9037, V-B:GLY:544:CA:9886, V-A:HIS:456:CD2:4068, V-A:HIS:456:CG:4066, V-A:HIS:456:CE1:4070, H-B:LYS:547:NZ:9923, V-B:LYS:547:CE:9922, V-B:HIS:456:CE1:9041, V-B:GLU:543:C:9874, H-A:LYS:547:NZ:4951, H-A:ARG:545:NH2:4928, V-A:GLU:543:CB:4906, V-A:GLU:543:C:4902, V-A:GLU:543:CG:4907, V-B:PRO:540:C:9853, V-B:TYR:539:C:9839, V-A:SER:385:CA:3407, V-A:SER:385:CB:3409, V-A:LEU:475:CG:4257, V-A:ARG:545:CB:4921, V-A:ARG:545:CG:4922, V-A:ARG:545:CA:4919, H-A:ARG:545:N:4920, H-B:GLU:543:OE2:9882, H-A:GLY:544:N:4915"]

$$$$
2i_Grossjean_2025
     RDKit          3D

 23 24  0  0  0  0  0  0  0  0999 V2000
  128.5050  122.1300   62.2630 C   0  0  0  0  0  0  0  0  0  0  0  0
  129.6800  122.8010   62.9490 C   0  0  0  0  0  0  0  0  0  0  0  0
  129.5110  123.5780   64.0920 C   0  0  0  0  0  0  0  0  0  0  0  0
  130.6310  124.1750   64.6910 C   0  0  0  0  0  0  0  0  0  0  0  0
  130.4260  125.0320   65.9550 C   0  0  0  0  0  0  0  0  0  0  0  0
  129.8360  126.1850   65.6330 F   0  0  0  0  0  0  0  0  0  0  0  0
  129.6570  124.3830   66.8300 F   0  0  0  0  0  0  0  0  0  0  0  0
  131.5730  125.3270   66.5710 F   0  0  0  0  0  0  0  0  0  0  0  0
  131.9050  123.9630   64.1070 C   0  0  0  0  0  0  0  0  0  0  0  0
  133.1090  124.5620   64.6930 C   0  0  0  0  0  0  0  0  0  0  0  0
  134.0590  125.0340   65.1550 N   0  0  0  0  0  0  0  0  0  0  0  0
  131.9850  123.1610   62.9450 C   0  0  0  0  0  0  0  0  0  0  0  0
  133.5330  122.8320   62.1190 S   0  0  0  0  0  0  0  0  0  0  0  0
  133.1660  122.3140   60.4150 C   0  0  0  0  0  0  0  0  0  0  0  0
  132.7170  120.8530   60.3380 C   0  0  0  0  0  0  0  0  0  0  0  0
  133.4630  120.0240   59.8150 O   0  0  0  0  0  0  0  0  0  0  0  0
  131.4910  120.5880   60.8390 N   0  0  0  0  0  0  0  0  0  0  0  0
  130.8590  119.3560   60.8690 C   0  0  0  0  0  0  0  0  0  0  0  0
  131.1080  118.1940   60.1230 C   0  0  0  0  0  0  0  0  0  0  0  0
  130.1790  117.2840   60.5730 C   0  0  0  0  0  0  0  0  0  0  0  0
  129.4230  117.8620   61.5370 O   0  0  0  0  0  0  0  0  0  0  0  0
  129.8700  119.1730   61.7160 N   0  0  0  0  0  0  0  0  0  0  0  0
  130.8890  122.5910   62.3810 N   0  0  0  0  0  0  0  0  0  0  0  0
  1  2  1  0
  2  3  2  0
  3  4  1  0
  4  5  1  0
  5  6  1  0
  5  7  1  0
  5  8  1  0
  4  9  2  0
  9 10  1  0
 10 11  3  0
  9 12  1  0
 12 13  1  0
 13 14  1  0
 14 15  1  0
 15 16  2  0
 15 17  1  0
 17 18  1  0
 18 19  1  0
 19 20  2  0
 20 21  1  0
 21 22  1  0
 12 23  2  0
 23  2  1  0
 22 18  2  0
M  END
>  <Binding energies>  (25) 
[-6.04]

>  <Ligand effiencies>  (25) 
[-0.25166666666666665]

>  <Interactions>  (25) 
["V-B:TYR:539:CD2:9846, V-A:GLU:543:CD:4908, H-A:GLY:454:N:4050, H-A:TYR:484:OH:4348, V-B:TYR:539:CE2:9848, H-A:ARG:545:NE:4924, V-A:ARG:545:CZ:4926, V-A:LEU:475:CD2:4259, V-A:GLY:454:CA:4049, V-A:ILE:369:CG2:3237, V-A:TYR:484:CZ:4347, V-B:GLU:543:CB:9878, V-B:GLU:543:CG:9879, V-A:TYR:484:CE2:4346, V-B:GLU:543:CD:9880, V-B:ALA:541:CB:9864, V-A:HIS:456:CE1:4070, H-A:ARG:545:NH2:4928, V-B:PRO:540:C:9853, V-B:TYR:539:C:9839, V-B:GLU:543:CA:9876, V-B:ALA:541:CA:9862, V-A:PRO:482:CG:4327, V-A:PRO:482:CB:4326, V-A:HIS:383:CE1:3393, H-A:SER:385:OG:3410, V-B:TYR:539:CB:9843, V-A:HIS:383:NE2:3394, H-A:ARG:545:NH1:4927"]

$$$$
2k_Grossjean_2025
     RDKit          3D

 28 28  0  0  0  0  0  0  0  0999 V2000
  133.1180  131.4310   62.5450 C   0  0  0  0  0  0  0  0  0  0  0  0
  132.0430  132.2530   62.1170 O   0  0  0  0  0  0  0  0  0  0  0  0
  131.2470  131.6600   61.0990 C   0  0  0  0  0  0  0  0  0  0  0  0
  129.8330  132.2540   61.1350 C   0  0  0  0  0  0  0  0  0  0  0  0
  129.6340  132.8990   62.3850 O   0  0  0  0  0  0  0  0  0  0  0  0
  129.1890  132.0350   63.4240 C   0  0  0  0  0  0  0  0  0  0  0  0
  127.8200  132.5290   63.9120 C   0  0  0  0  0  0  0  0  0  0  0  0
  126.9320  132.5090   62.8050 O   0  0  0  0  0  0  0  0  0  0  0  0
  126.7630  133.7540   62.1440 C   0  0  0  0  0  0  0  0  0  0  0  0
  125.8550  133.5490   60.9170 C   0  0  0  0  0  0  0  0  0  0  0  0
  124.5040  133.1090   61.2730 N   0  0  0  0  0  0  0  0  0  0  0  0
  123.7540  133.6100   62.2730 C   0  0  0  0  0  0  0  0  0  0  0  0
  124.1230  134.5370   62.9980 O   0  0  0  0  0  0  0  0  0  0  0  0
  122.3900  132.9370   62.4850 C   0  0  0  0  0  0  0  0  0  0  0  0
  122.3530  131.1350   62.1910 S   0  0  0  0  0  0  0  0  0  0  0  0
  123.8190  130.3880   62.8900 C   0  0  0  0  0  0  0  0  0  0  0  0
  123.7690  130.1270   64.2210 N   0  0  0  0  0  0  0  0  0  0  0  0
  124.8440  129.5660   64.8180 C   0  0  0  0  0  0  0  0  0  0  0  0
  124.7150  129.3170   66.3080 C   0  0  0  0  0  0  0  0  0  0  0  0
  126.0010  129.2320   64.1200 C   0  0  0  0  0  0  0  0  0  0  0  0
  126.0720  129.4850   62.7410 C   0  0  0  0  0  0  0  0  0  0  0  0
  127.3590  129.1040   61.9830 C   0  0  0  0  0  0  0  0  0  0  0  0
  128.3520  128.7470   62.7980 F   0  0  0  0  0  0  0  0  0  0  0  0
  127.1200  128.0760   61.1660 F   0  0  0  0  0  0  0  0  0  0  0  0
  127.7860  130.1400   61.2600 F   0  0  0  0  0  0  0  0  0  0  0  0
  124.9540  130.0800   62.1030 C   0  0  0  0  0  0  0  0  0  0  0  0
  124.9750  130.3700   60.6660 C   0  0  0  0  0  0  0  0  0  0  0  0
  124.9910  130.5980   59.5310 N   0  0  0  0  0  0  0  0  0  0  0  0
  1  2  1  0
  2  3  1  0
  3  4  1  0
  4  5  1  0
  5  6  1  0
  6  7  1  0
  7  8  1  0
  8  9  1  0
  9 10  1  0
 10 11  1  0
 11 12  1  0
 12 13  2  0
 12 14  1  0
 14 15  1  0
 15 16  1  0
 16 17  2  0
 17 18  1  0
 18 19  1  0
 18 20  2  0
 20 21  1  0
 21 22  1  0
 22 23  1  0
 22 24  1  0
 22 25  1  0
 21 26  2  0
 26 27  1  0
 27 28  3  0
 26 16  1  0
M  END
>  <Binding energies>  (26) 
[-4.66]

>  <Ligand effiencies>  (26) 
[-0.1606896551724138]

>  <Interactions>  (26) 
["V-A:GLU:543:CD:4908, V-B:ASP:366:CG:8184, V-A:ASN:362:CB:3176, V-B:ILE:369:CB:8207, V-A:PRO:540:CB:4885, V-A:TYR:539:CD1:4873, V-B:GLY:454:CA:9020, V-A:PRO:540:CA:4883, V-B:GLY:453:C:9013, V-B:ILE:369:CG2:8208, V-B:LEU:475:CD2:9230, H-B:ARG:545:NH1:9899, V-A:TYR:539:CE1:4875, H-B:GLY:454:N:9021, H-A:ALA:541:N:4891, V-B:ILE:369:CG1:8209, H-B:ARG:545:NH2:9900, V-B:GLU:543:CD:9880, V-B:HIS:456:CE1:9041, V-B:TYR:484:CZ:9318, V-B:ARG:545:CZ:9898, H-B:TYR:484:OH:9319, V-A:ALA:541:CB:4892, V-A:GLU:543:CG:4907, H-B:ARG:545:NE:9896, V-B:ILE:369:CD1:8210, V-B:ARG:545:CD:9895, V-B:ARG:545:CG:9894, V-B:TYR:484:CE2:9317"]

$$$$
3aa_Grossjean_2025
     RDKit          3D

 34 36  0  0  0  0  0  0  0  0999 V2000
  129.7030  131.6740   73.3820 C   0  0  0  0  0  0  0  0  0  0  0  0
  129.0050  130.3420   73.6750 C   0  0  0  0  0  0  0  0  0  0  0  0
  129.8180  129.2690   73.2150 O   0  0  0  0  0  0  0  0  0  0  0  0
  129.2730  128.0690   72.8910 C   0  0  0  0  0  0  0  0  0  0  0  0
  128.6750  127.3520   73.6990 O   0  0  0  0  0  0  0  0  0  0  0  0
  129.4830  127.6910   71.4520 C   0  0  0  0  0  0  0  0  0  0  0  0
  128.5270  126.9630   70.7280 C   0  0  0  0  0  0  0  0  0  0  0  0
  128.7520  126.6330   69.3940 C   0  0  0  0  0  0  0  0  0  0  0  0
  129.9290  127.0280   68.7560 C   0  0  0  0  0  0  0  0  0  0  0  0
  130.0550  126.6460   67.4050 N   0  0  0  0  0  0  0  0  0  0  0  0
  129.9550  125.4210   66.8440 C   0  0  0  0  0  0  0  0  0  0  0  0
  129.7480  124.3710   67.4540 O   0  0  0  0  0  0  0  0  0  0  0  0
  130.1320  125.3750   65.3260 C   0  0  0  0  0  0  0  0  0  0  0  0
  129.7420  123.7320   64.6500 S   0  0  0  0  0  0  0  0  0  0  0  0
  130.2130  123.7500   62.9350 C   0  0  0  0  0  0  0  0  0  0  0  0
  129.1660  123.6280   62.0840 N   0  0  0  0  0  0  0  0  0  0  0  0
  129.3850  123.6240   60.7430 C   0  0  0  0  0  0  0  0  0  0  0  0
  128.1750  123.5000   59.8670 C   0  0  0  0  0  0  0  0  0  0  0  0
  126.9310  123.9930   60.2930 C   0  0  0  0  0  0  0  0  0  0  0  0
  125.8020  123.8820   59.4850 C   0  0  0  0  0  0  0  0  0  0  0  0
  125.9040  123.2760   58.2370 C   0  0  0  0  0  0  0  0  0  0  0  0
  127.1250  122.7830   57.7910 C   0  0  0  0  0  0  0  0  0  0  0  0
  128.2520  122.8970   58.6010 C   0  0  0  0  0  0  0  0  0  0  0  0
  130.6780  123.7540   60.2260 C   0  0  0  0  0  0  0  0  0  0  0  0
  131.7800  123.8630   61.0890 C   0  0  0  0  0  0  0  0  0  0  0  0
  133.1890  123.9920   60.4810 C   0  0  0  0  0  0  0  0  0  0  0  0
  133.9400  122.9070   60.6800 F   0  0  0  0  0  0  0  0  0  0  0  0
  133.1070  124.1820   59.1640 F   0  0  0  0  0  0  0  0  0  0  0  0
  133.8270  125.0280   61.0280 F   0  0  0  0  0  0  0  0  0  0  0  0
  131.5480  123.8500   62.4860 C   0  0  0  0  0  0  0  0  0  0  0  0
  132.6650  123.9030   63.4340 C   0  0  0  0  0  0  0  0  0  0  0  0
  133.5470  123.9450   64.1820 N   0  0  0  0  0  0  0  0  0  0  0  0
  130.8950  127.7450   69.4780 C   0  0  0  0  0  0  0  0  0  0  0  0
  130.6690  128.0720   70.8110 C   0  0  0  0  0  0  0  0  0  0  0  0
  1  2  1  0
  2  3  1  0
  3  4  1  0
  4  5  2  0
  4  6  1  0
  6  7  2  0
  7  8  1  0
  8  9  2  0
  9 10  1  0
 10 11  1  0
 11 12  2  0
 11 13  1  0
 13 14  1  0
 14 15  1  0
 15 16  2  0
 16 17  1  0
 17 18  1  0
 18 19  2  0
 19 20  1  0
 20 21  2  0
 21 22  1  0
 22 23  2  0
 17 24  2  0
 24 25  1  0
 25 26  1  0
 26 27  1  0
 26 28  1  0
 26 29  1  0
 25 30  2  0
 30 31  1  0
 31 32  3  0
  9 33  1  0
 33 34  2  0
 34  6  1  0
 30 15  1  0
 23 18  1  0
M  END
>  <Binding energies>  (27) 
[-8.63]

>  <Ligand effiencies>  (27) 
[-0.24657142857142858]

>  <Interactions>  (27) 
["V-B:PRO:540:N:9856, V-B:TYR:539:CD2:9846, V-A:GLU:543:CD:4908, H-A:GLY:454:N:4050, V-B:PRO:540:CB:9857, H-A:TYR:484:OH:4348, V-B:TYR:539:CE2:9848, V-B:TYR:539:CZ:9849, V-B:PRO:540:CA:9855, V-A:ASP:366:CB:3212, V-A:ILE:369:CD1:3239, V-A:ASP:366:CG:3213, V-A:ILE:369:CG2:3237, V-A:ILE:369:CB:3236, H-A:GLU:543:OE2:4910, V-B:GLU:543:CB:9878, V-B:GLU:543:CG:9879, V-B:GLU:543:CD:9880, V-A:ASP:366:CA:3210, V-B:HIS:456:CD2:9039, V-A:GLY:544:C:4912, V-A:LYS:547:CE:4950, V-A:HIS:456:CE1:4070, H-B:LYS:547:NZ:9923, V-B:HIS:456:CE1:9041, V-B:GLU:543:C:9874, H-A:LYS:547:NZ:4951, H-A:GLU:543:OE1:4909, V-A:GLU:543:CB:4906, V-A:GLU:543:C:4902, V-B:TYR:539:CG:9844, V-B:TYR:539:C:9839, V-A:GLY:544:CA:4914"]

$$$$
3ad_Grossjean_2025
     RDKit          3D

 29 31  0  0  0  0  0  0  0  0999 V2000
  129.3680  126.8750   63.2010 N   0  0  0  0  0  0  0  0  0  0  0  0
  129.2190  126.9800   64.3440 C   0  0  0  0  0  0  0  0  0  0  0  0
  129.0280  127.1170   65.7920 C   0  0  0  0  0  0  0  0  0  0  0  0
  128.2480  128.1730   66.3220 C   0  0  0  0  0  0  0  0  0  0  0  0
  127.5250  129.2020   65.4330 C   0  0  0  0  0  0  0  0  0  0  0  0
  127.3570  128.7770   64.1790 F   0  0  0  0  0  0  0  0  0  0  0  0
  126.3160  129.4660   65.9340 F   0  0  0  0  0  0  0  0  0  0  0  0
  128.2270  130.3350   65.3790 F   0  0  0  0  0  0  0  0  0  0  0  0
  128.1350  128.2860   67.7170 C   0  0  0  0  0  0  0  0  0  0  0  0
  128.7840  127.3750   68.5560 C   0  0  0  0  0  0  0  0  0  0  0  0
  128.7090  127.4590   70.0520 C   0  0  0  0  0  0  0  0  0  0  0  0
  129.7680  128.0070   70.7930 C   0  0  0  0  0  0  0  0  0  0  0  0
  129.7040  128.0890   72.1810 C   0  0  0  0  0  0  0  0  0  0  0  0
  128.5760  127.6220   72.8490 C   0  0  0  0  0  0  0  0  0  0  0  0
  127.5130  127.0770   72.1380 C   0  0  0  0  0  0  0  0  0  0  0  0
  127.5800  126.9980   70.7490 C   0  0  0  0  0  0  0  0  0  0  0  0
  129.5350  126.3680   68.0420 N   0  0  0  0  0  0  0  0  0  0  0  0
  129.6420  126.2260   66.7000 C   0  0  0  0  0  0  0  0  0  0  0  0
  130.6530  124.8470   66.2070 S   0  0  0  0  0  0  0  0  0  0  0  0
  132.3230  125.4910   65.8850 C   0  0  0  0  0  0  0  0  0  0  0  0
  132.8510  125.0670   64.5130 C   0  0  0  0  0  0  0  0  0  0  0  0
  133.8730  124.3820   64.4510 O   0  0  0  0  0  0  0  0  0  0  0  0
  132.1280  125.4940   63.4560 N   0  0  0  0  0  0  0  0  0  0  0  0
  132.3270  125.2740   62.0810 C   0  0  0  0  0  0  0  0  0  0  0  0
  133.5200  124.6320   61.7360 C   0  0  0  0  0  0  0  0  0  0  0  0
  133.8170  124.3700   60.4010 C   0  0  0  0  0  0  0  0  0  0  0  0
  132.9220  124.7540   59.4070 C   0  0  0  0  0  0  0  0  0  0  0  0
  131.7340  125.4000   59.7350 C   0  0  0  0  0  0  0  0  0  0  0  0
  131.4320  125.6650   61.0690 C   0  0  0  0  0  0  0  0  0  0  0  0
  1  2  3  0
  2  3  1  0
  3  4  2  0
  4  5  1  0
  5  6  1  0
  5  7  1  0
  5  8  1  0
  4  9  1  0
  9 10  2  0
 10 11  1  0
 11 12  2  0
 12 13  1  0
 13 14  2  0
 14 15  1  0
 15 16  2  0
 10 17  1  0
 17 18  2  0
 18 19  1  0
 19 20  1  0
 20 21  1  0
 21 22  2  0
 21 23  1  0
 23 24  1  0
 24 25  2  0
 25 26  1  0
 26 27  2  0
 27 28  1  0
 28 29  2  0
 18  3  1  0
 29 24  1  0
 16 11  1  0
M  END
>  <Binding energies>  (28) 
[-7.75]

>  <Ligand effiencies>  (28) 
[-0.25833333333333336]

>  <Interactions>  (28) 
["V-A:GLU:543:CD:4908, H-A:GLY:454:N:4050, H-A:TYR:484:OH:4348, V-B:TYR:539:CE2:9848, V-A:ARG:545:CZ:4926, V-A:ASP:366:CB:3212, V-A:ILE:369:CD1:3239, V-A:ASP:366:CG:3213, V-A:ILE:369:CG2:3237, H-A:GLU:543:OE2:4910, V-B:GLU:543:CB:9878, V-B:GLU:543:CG:9879, V-B:GLU:543:CD:9880, V-A:ASP:366:CA:3210, V-B:HIS:456:CD2:9039, V-B:GLY:544:C:9884, V-A:HIS:456:CE1:4070, V-B:HIS:456:CE1:9041, V-B:GLU:543:C:9874, H-A:GLU:543:OE1:4909, V-A:GLU:543:CB:4906, V-B:TYR:484:CZ:9318, V-A:GLU:543:CG:4907, V-B:TYR:484:CE2:9317"]

$$$$
3ai_Grossjean_2025
     RDKit          3D

 28 30  0  0  0  0  0  0  0  0999 V2000
  129.2120  126.8500   63.2110 N   0  0  0  0  0  0  0  0  0  0  0  0
  129.1260  126.9630   64.3600 C   0  0  0  0  0  0  0  0  0  0  0  0
  129.0160  127.1060   65.8150 C   0  0  0  0  0  0  0  0  0  0  0  0
  128.2570  128.1590   66.3830 C   0  0  0  0  0  0  0  0  0  0  0  0
  127.4750  129.1750   65.5290 C   0  0  0  0  0  0  0  0  0  0  0  0
  127.3600  128.7990   64.2530 F   0  0  0  0  0  0  0  0  0  0  0  0
  126.2430  129.3260   66.0160 F   0  0  0  0  0  0  0  0  0  0  0  0
  128.0930  130.3560   65.5400 F   0  0  0  0  0  0  0  0  0  0  0  0
  128.2220  128.2820   67.7800 C   0  0  0  0  0  0  0  0  0  0  0  0
  128.9260  127.3820   68.5870 C   0  0  0  0  0  0  0  0  0  0  0  0
  128.9330  127.4730   70.0840 C   0  0  0  0  0  0  0  0  0  0  0  0
  130.0250  128.0370   70.7620 C   0  0  0  0  0  0  0  0  0  0  0  0
  130.0360  128.1290   72.1510 C   0  0  0  0  0  0  0  0  0  0  0  0
  128.9510  127.6580   72.8830 C   0  0  0  0  0  0  0  0  0  0  0  0
  127.8550  127.0970   72.2350 C   0  0  0  0  0  0  0  0  0  0  0  0
  127.8480  127.0070   70.8460 C   0  0  0  0  0  0  0  0  0  0  0  0
  129.6590  126.3800   68.0390 N   0  0  0  0  0  0  0  0  0  0  0  0
  129.6890  126.2260   66.6930 C   0  0  0  0  0  0  0  0  0  0  0  0
  130.6810  124.8480   66.1580 S   0  0  0  0  0  0  0  0  0  0  0  0
  132.3380  125.4830   65.7310 C   0  0  0  0  0  0  0  0  0  0  0  0
  132.8270  125.1230   64.3200 C   0  0  0  0  0  0  0  0  0  0  0  0
  133.8640  124.4750   64.1580 O   0  0  0  0  0  0  0  0  0  0  0  0
  132.0380  125.5720   63.3180 N   0  0  0  0  0  0  0  0  0  0  0  0
  132.2260  125.3920   61.9540 C   0  0  0  0  0  0  0  0  0  0  0  0
  131.6140  126.1900   60.9880 C   0  0  0  0  0  0  0  0  0  0  0  0
  132.0510  125.6920   59.7830 C   0  0  0  0  0  0  0  0  0  0  0  0
  132.8840  124.6490   60.0090 O   0  0  0  0  0  0  0  0  0  0  0  0
  132.9880  124.4690   61.3900 N   0  0  0  0  0  0  0  0  0  0  0  0
  1  2  3  0
  2  3  1  0
  3  4  2  0
  4  5  1  0
  5  6  1  0
  5  7  1  0
  5  8  1  0
  4  9  1  0
  9 10  2  0
 10 11  1  0
 11 12  2  0
 12 13  1  0
 13 14  2  0
 14 15  1  0
 15 16  2  0
 10 17  1  0
 17 18  2  0
 18 19  1  0
 19 20  1  0
 20 21  1  0
 21 22  2  0
 21 23  1  0
 23 24  1  0
 24 25  1  0
 25 26  2  0
 26 27  1  0
 27 28  1  0
 18  3  1  0
 28 24  2  0
 16 11  1  0
M  END
>  <Binding energies>  (29) 
[-6.99]

>  <Ligand effiencies>  (29) 
[-0.2410344827586207]

>  <Interactions>  (29) 
["V-A:GLU:543:CD:4908, H-A:GLY:454:N:4050, H-A:TYR:484:OH:4348, V-A:ARG:545:CZ:4926, V-A:ASP:366:CB:3212, V-A:ASP:366:CG:3213, H-A:GLU:543:OE2:4910, V-B:GLU:543:CB:9878, V-B:GLU:543:CG:9879, V-B:GLU:543:CD:9880, V-B:HIS:456:CD2:9039, V-B:GLY:544:C:9884, V-A:HIS:456:CE1:4070, V-B:HIS:456:CE1:9041, V-B:GLU:543:C:9874, H-A:GLU:543:OE1:4909, H-A:ARG:545:NH2:4928, V-A:GLU:543:CB:4906, V-A:GLU:543:C:4902, V-B:TYR:484:CZ:9318, V-A:GLU:543:CG:4907, V-B:TYR:484:CE2:9317"]

$$$$
3aj_Grossjean_2025
     RDKit          3D

 28 30  0  0  0  0  0  0  0  0999 V2000
  128.6680  127.1440   62.9470 N   0  0  0  0  0  0  0  0  0  0  0  0
  128.8070  127.1720   64.0950 C   0  0  0  0  0  0  0  0  0  0  0  0
  128.9850  127.2060   65.5500 C   0  0  0  0  0  0  0  0  0  0  0  0
  129.7600  126.2200   66.2070 C   0  0  0  0  0  0  0  0  0  0  0  0
  130.4890  125.0930   65.4500 C   0  0  0  0  0  0  0  0  0  0  0  0
  130.8200  124.0690   66.2400 F   0  0  0  0  0  0  0  0  0  0  0  0
  129.7100  124.6170   64.4790 F   0  0  0  0  0  0  0  0  0  0  0  0
  131.6150  125.5610   64.9100 F   0  0  0  0  0  0  0  0  0  0  0  0
  129.8600  126.2690   67.6060 C   0  0  0  0  0  0  0  0  0  0  0  0
  129.2030  127.2710   68.3280 C   0  0  0  0  0  0  0  0  0  0  0  0
  129.2680  127.3650   69.8220 C   0  0  0  0  0  0  0  0  0  0  0  0
  128.1700  126.9910   70.6110 C   0  0  0  0  0  0  0  0  0  0  0  0
  128.2260  127.0710   72.0010 C   0  0  0  0  0  0  0  0  0  0  0  0
  129.3840  127.5290   72.6200 C   0  0  0  0  0  0  0  0  0  0  0  0
  130.4870  127.9050   71.8590 C   0  0  0  0  0  0  0  0  0  0  0  0
  130.4270  127.8210   70.4710 C   0  0  0  0  0  0  0  0  0  0  0  0
  128.4550  128.2100   67.6930 N   0  0  0  0  0  0  0  0  0  0  0  0
  128.3620  128.1980   66.3420 C   0  0  0  0  0  0  0  0  0  0  0  0
  127.3610  129.5150   65.6870 S   0  0  0  0  0  0  0  0  0  0  0  0
  125.6410  129.2310   66.2260 C   0  0  0  0  0  0  0  0  0  0  0  0
  124.5650  129.6720   65.2220 C   0  0  0  0  0  0  0  0  0  0  0  0
  123.3760  129.7160   65.5500 O   0  0  0  0  0  0  0  0  0  0  0  0
  125.0340  129.9940   63.9970 N   0  0  0  0  0  0  0  0  0  0  0  0
  124.2870  130.4270   62.9100 C   0  0  0  0  0  0  0  0  0  0  0  0
  123.0010  130.7060   62.8730 N   0  0  0  0  0  0  0  0  0  0  0  0
  122.6230  131.0960   61.6720 C   0  0  0  0  0  0  0  0  0  0  0  0
  123.6160  131.1390   60.6980 C   0  0  0  0  0  0  0  0  0  0  0  0
  125.1230  130.6380   61.4050 S   0  0  0  0  0  0  0  0  0  0  0  0
  1  2  3  0
  2  3  1  0
  3  4  2  0
  4  5  1  0
  5  6  1  0
  5  7  1  0
  5  8  1  0
  4  9  1  0
  9 10  2  0
 10 11  1  0
 11 12  2  0
 12 13  1  0
 13 14  2  0
 14 15  1  0
 15 16  2  0
 10 17  1  0
 17 18  2  0
 18 19  1  0
 19 20  1  0
 20 21  1  0
 21 22  2  0
 21 23  1  0
 23 24  1  0
 24 25  2  0
 25 26  1  0
 26 27  2  0
 27 28  1  0
 18  3  1  0
 28 24  1  0
 16 11  1  0
M  END
>  <Binding energies>  (30) 
[-7.23]

>  <Ligand effiencies>  (30) 
[-0.2493103448275862]

>  <Interactions>  (30) 
["V-A:GLU:543:CD:4908, V-B:ASP:366:CG:8184, V-A:ARG:545:CZ:4926, V-B:ILE:369:CB:8207, V-B:ILE:369:CG2:8208, H-B:ARG:545:NH1:9899, H-B:GLY:454:N:9021, V-B:ILE:369:CG1:8209, V-A:TYR:484:CZ:4347, V-B:GLU:543:CB:9878, V-B:GLU:543:CG:9879, V-A:TYR:484:CE2:4346, V-B:GLU:543:CD:9880, V-A:GLY:544:C:4912, V-A:HIS:456:CE1:4070, V-B:HIS:456:CE1:9041, V-B:GLU:543:C:9874, V-A:GLU:543:CB:4906, V-A:GLU:543:C:4902, V-B:TYR:484:CZ:9318, V-B:ARG:545:CZ:9898, H-B:TYR:484:OH:9319, V-A:GLU:543:CG:4907, H-B:ARG:545:NE:9896, V-B:ARG:545:CD:9895"]

$$$$
3ak_Grossjean_2025
     RDKit          3D

 33 34  0  0  0  0  0  0  0  0999 V2000
  133.4720  131.9670   61.8680 C   0  0  0  0  0  0  0  0  0  0  0  0
  132.0970  132.2430   62.0870 O   0  0  0  0  0  0  0  0  0  0  0  0
  131.2400  131.1760   61.7080 C   0  0  0  0  0  0  0  0  0  0  0  0
  129.7870  131.6650   61.7430 C   0  0  0  0  0  0  0  0  0  0  0  0
  129.7340  132.9940   61.2350 O   0  0  0  0  0  0  0  0  0  0  0  0
  128.4300  133.4850   60.9340 C   0  0  0  0  0  0  0  0  0  0  0  0
  127.7180  134.1320   62.1370 C   0  0  0  0  0  0  0  0  0  0  0  0
  126.8440  133.1800   62.7290 O   0  0  0  0  0  0  0  0  0  0  0  0
  125.5040  133.2620   62.2630 C   0  0  0  0  0  0  0  0  0  0  0  0
  124.5830  132.3930   63.1390 C   0  0  0  0  0  0  0  0  0  0  0  0
  125.3020  131.3970   63.9370 N   0  0  0  0  0  0  0  0  0  0  0  0
  124.8050  130.2240   64.3710 C   0  0  0  0  0  0  0  0  0  0  0  0
  123.6590  129.8510   64.1170 O   0  0  0  0  0  0  0  0  0  0  0  0
  125.7010  129.3080   65.2210 C   0  0  0  0  0  0  0  0  0  0  0  0
  127.4960  129.6700   65.1980 S   0  0  0  0  0  0  0  0  0  0  0  0
  128.3660  128.3070   65.9560 C   0  0  0  0  0  0  0  0  0  0  0  0
  128.3910  128.3090   67.3120 N   0  0  0  0  0  0  0  0  0  0  0  0
  129.0340  127.3170   67.9800 C   0  0  0  0  0  0  0  0  0  0  0  0
  129.0110  127.3980   69.4770 C   0  0  0  0  0  0  0  0  0  0  0  0
  130.1190  127.8890   70.1860 C   0  0  0  0  0  0  0  0  0  0  0  0
  130.1020  127.9690   71.5760 C   0  0  0  0  0  0  0  0  0  0  0  0
  128.9730  127.5600   72.2770 C   0  0  0  0  0  0  0  0  0  0  0  0
  127.8620  127.0730   71.6000 C   0  0  0  0  0  0  0  0  0  0  0  0
  127.8810  126.9940   70.2100 C   0  0  0  0  0  0  0  0  0  0  0  0
  129.6610  126.2760   67.2870 C   0  0  0  0  0  0  0  0  0  0  0  0
  129.6480  126.2490   65.8850 C   0  0  0  0  0  0  0  0  0  0  0  0
  130.3520  125.0870   65.1580 C   0  0  0  0  0  0  0  0  0  0  0  0
  129.5680  124.6110   64.1910 F   0  0  0  0  0  0  0  0  0  0  0  0
  131.4950  125.5110   64.6170 F   0  0  0  0  0  0  0  0  0  0  0  0
  130.6490  124.0700   65.9710 F   0  0  0  0  0  0  0  0  0  0  0  0
  128.9850  127.2920   65.1950 C   0  0  0  0  0  0  0  0  0  0  0  0
  128.9400  127.3150   63.7290 C   0  0  0  0  0  0  0  0  0  0  0  0
  128.9040  127.3350   62.5720 N   0  0  0  0  0  0  0  0  0  0  0  0
  1  2  1  0
  2  3  1  0
  3  4  1  0
  4  5  1  0
  5  6  1  0
  6  7  1  0
  7  8  1  0
  8  9  1  0
  9 10  1  0
 10 11  1  0
 11 12  1  0
 12 13  2  0
 12 14  1  0
 14 15  1  0
 15 16  1  0
 16 17  2  0
 17 18  1  0
 18 19  1  0
 19 20  2  0
 20 21  1  0
 21 22  2  0
 22 23  1  0
 23 24  2  0
 18 25  2  0
 25 26  1  0
 26 27  1  0
 27 28  1  0
 27 29  1  0
 27 30  1  0
 26 31  2  0
 31 32  1  0
 32 33  3  0
 31 16  1  0
 24 19  1  0
M  END
>  <Binding energies>  (31) 
[-6.67]

>  <Ligand effiencies>  (31) 
[-0.19617647058823529]

>  <Interactions>  (31) 
["V-A:GLU:543:CD:4908, V-A:ASN:362:CB:3176, V-A:PRO:540:CB:4885, V-B:GLY:454:CA:9020, V-A:PRO:540:CA:4883, V-A:TYR:539:C:4867, V-B:LEU:475:CD2:9230, H-B:ARG:545:NH1:9899, H-B:GLY:454:N:9021, H-A:ALA:541:N:4891, H-B:ARG:545:NH2:9900, V-A:TYR:484:CZ:4347, V-B:GLU:543:CB:9878, V-B:GLU:543:CG:9879, V-A:TYR:484:CE2:4346, V-B:GLU:543:CD:9880, V-B:HIS:456:CD2:9039, V-A:GLY:544:C:4912, V-B:GLY:544:C:9884, V-A:HIS:456:CE1:4070, V-B:HIS:456:CE1:9041, V-B:GLU:543:C:9874, V-A:GLU:543:CB:4906, V-A:GLU:543:C:4902, V-B:ARG:545:CZ:9898, H-B:TYR:484:OH:9319, V-A:ALA:541:CB:4892, V-A:GLU:543:CG:4907, H-B:ARG:545:NE:9896"]

$$$$
3bk_Grossjean_2025
     RDKit          3D

 30 31  0  0  0  0  0  0  0  0999 V2000
  127.4860  126.9360   72.5880 C   0  0  0  0  0  0  0  0  0  0  0  0
  128.7190  126.2360   72.6690 O   0  0  0  0  0  0  0  0  0  0  0  0
  129.8370  127.0840   72.8920 C   0  0  0  0  0  0  0  0  0  0  0  0
  130.3410  127.6360   71.5510 C   0  0  0  0  0  0  0  0  0  0  0  0
  129.2640  128.2530   70.8610 O   0  0  0  0  0  0  0  0  0  0  0  0
  129.4780  128.3850   69.4620 C   0  0  0  0  0  0  0  0  0  0  0  0
  129.8880  127.0250   68.8820 C   0  0  0  0  0  0  0  0  0  0  0  0
  128.8950  126.5850   67.9660 O   0  0  0  0  0  0  0  0  0  0  0  0
  129.3390  126.5360   66.6160 C   0  0  0  0  0  0  0  0  0  0  0  0
  130.1130  125.2320   66.3790 C   0  0  0  0  0  0  0  0  0  0  0  0
  131.1480  125.3760   65.3540 N   0  0  0  0  0  0  0  0  0  0  0  0
  131.6270  124.3850   64.5830 C   0  0  0  0  0  0  0  0  0  0  0  0
  131.2270  123.2210   64.6390 O   0  0  0  0  0  0  0  0  0  0  0  0
  132.7090  124.7690   63.5710 C   0  0  0  0  0  0  0  0  0  0  0  0
  132.0200  125.0480   61.9090 S   0  0  0  0  0  0  0  0  0  0  0  0
  131.0340  123.6350   61.4450 C   0  0  0  0  0  0  0  0  0  0  0  0
  129.7450  123.8950   61.1090 N   0  0  0  0  0  0  0  0  0  0  0  0
  128.9190  122.8790   60.7440 C   0  0  0  0  0  0  0  0  0  0  0  0
  127.5180  123.2570   60.3680 C   0  0  0  0  0  0  0  0  0  0  0  0
  127.1570  123.4300   59.0220 C   0  0  0  0  0  0  0  0  0  0  0  0
  125.8580  123.7860   58.6680 C   0  0  0  0  0  0  0  0  0  0  0  0
  124.8990  123.9740   59.6570 C   0  0  0  0  0  0  0  0  0  0  0  0
  125.2290  123.8050   60.9980 C   0  0  0  0  0  0  0  0  0  0  0  0
  126.5290  123.4470   61.3490 C   0  0  0  0  0  0  0  0  0  0  0  0
  129.3800  121.5580   60.7040 C   0  0  0  0  0  0  0  0  0  0  0  0
  130.7050  121.2710   61.0490 C   0  0  0  0  0  0  0  0  0  0  0  0
  131.1680  119.8160   60.9910 C   0  0  0  0  0  0  0  0  0  0  0  0
  131.5620  122.3250   61.4300 C   0  0  0  0  0  0  0  0  0  0  0  0
  132.9560  122.0550   61.7940 C   0  0  0  0  0  0  0  0  0  0  0  0
  134.0570  121.8410   62.0810 N   0  0  0  0  0  0  0  0  0  0  0  0
  1  2  1  0
  2  3  1  0
  3  4  1  0
  4  5  1  0
  5  6  1  0
  6  7  1  0
  7  8  1  0
  8  9  1  0
  9 10  1  0
 10 11  1  0
 11 12  1  0
 12 13  2  0
 12 14  1  0
 14 15  1  0
 15 16  1  0
 16 17  2  0
 17 18  1  0
 18 19  1  0
 19 20  2  0
 20 21  1  0
 21 22  2  0
 22 23  1  0
 23 24  2  0
 18 25  2  0
 25 26  1  0
 26 27  1  0
 26 28  2  0
 28 29  1  0
 29 30  3  0
 28 16  1  0
 24 19  1  0
M  END
>  <Binding energies>  (32) 
[-6.44]

>  <Ligand effiencies>  (32) 
[-0.207741935483871]

>  <Interactions>  (32) 
["V-B:PRO:540:N:9856, V-B:TYR:539:CD2:9846, V-A:GLU:543:CD:4908, H-A:GLY:454:N:4050, V-B:PRO:540:CB:9857, H-A:TYR:484:OH:4348, V-B:TYR:539:CE2:9848, V-A:ARG:545:CZ:4926, V-A:LEU:475:CD2:4259, V-B:PRO:540:CA:9855, H-A:GLU:543:OE2:4910, V-B:GLU:543:CB:9878, V-B:GLU:543:CG:9879, V-B:GLU:543:CD:9880, V-B:HIS:456:CD2:9039, V-A:GLY:544:C:4912, V-B:GLY:544:C:9884, V-A:HIS:456:CD2:4068, V-A:HIS:456:CE1:4070, H-B:LYS:547:NZ:9923, V-B:LYS:547:CE:9922, V-B:HIS:456:CE1:9041, H-A:GLU:543:OE1:4909, V-A:GLU:543:CB:4906, V-A:GLU:543:C:4902, V-B:TYR:539:C:9839"]

$$$$
3cb_Grossjean_2025
     RDKit          3D

 30 32  0  0  0  0  0  0  0  0999 V2000
  129.3960  131.0020   73.3640 C   0  0  0  0  0  0  0  0  0  0  0  0
  129.7500  129.6280   73.4230 O   0  0  0  0  0  0  0  0  0  0  0  0
  128.8960  128.6660   72.9870 C   0  0  0  0  0  0  0  0  0  0  0  0
  127.9340  128.2610   73.6460 O   0  0  0  0  0  0  0  0  0  0  0  0
  129.2400  128.1420   71.6210 C   0  0  0  0  0  0  0  0  0  0  0  0
  128.3530  127.3400   70.8880 C   0  0  0  0  0  0  0  0  0  0  0  0
  128.7020  126.8730   69.6240 C   0  0  0  0  0  0  0  0  0  0  0  0
  129.9420  127.1910   69.0680 C   0  0  0  0  0  0  0  0  0  0  0  0
  130.1890  126.6680   67.7830 N   0  0  0  0  0  0  0  0  0  0  0  0
  130.1070  125.3970   67.3330 C   0  0  0  0  0  0  0  0  0  0  0  0
  129.7630  124.4290   68.0120 O   0  0  0  0  0  0  0  0  0  0  0  0
  130.4670  125.2230   65.8490 C   0  0  0  0  0  0  0  0  0  0  0  0
  130.3100  123.5190   65.2140 S   0  0  0  0  0  0  0  0  0  0  0  0
  130.0540  123.6150   63.4540 C   0  0  0  0  0  0  0  0  0  0  0  0
  128.7940  123.2940   63.0740 N   0  0  0  0  0  0  0  0  0  0  0  0
  128.4830  123.3320   61.7590 C   0  0  0  0  0  0  0  0  0  0  0  0
  127.0520  122.9730   61.4080 C   0  0  0  0  0  0  0  0  0  0  0  0
  129.4090  123.6830   60.7800 C   0  0  0  0  0  0  0  0  0  0  0  0
  130.7220  124.0040   61.1480 C   0  0  0  0  0  0  0  0  0  0  0  0
  131.6800  124.3680   60.0600 C   0  0  0  0  0  0  0  0  0  0  0  0
  131.4000  125.4430   59.2070 C   0  0  0  0  0  0  0  0  0  0  0  0
  132.2910  125.7980   58.1970 C   0  0  0  0  0  0  0  0  0  0  0  0
  133.4720  125.0780   58.0380 C   0  0  0  0  0  0  0  0  0  0  0  0
  133.7700  124.0110   58.8810 C   0  0  0  0  0  0  0  0  0  0  0  0
  132.8780  123.6610   59.8910 C   0  0  0  0  0  0  0  0  0  0  0  0
  131.0670  123.9550   62.5240 C   0  0  0  0  0  0  0  0  0  0  0  0
  132.4480  124.1890   62.9570 C   0  0  0  0  0  0  0  0  0  0  0  0
  133.5380  124.3740   63.2980 N   0  0  0  0  0  0  0  0  0  0  0  0
  130.8330  127.9960   69.7930 C   0  0  0  0  0  0  0  0  0  0  0  0
  130.4830  128.4640   71.0580 C   0  0  0  0  0  0  0  0  0  0  0  0
  1  2  1  0
  2  3  1  0
  3  4  2  0
  3  5  1  0
  5  6  2  0
  6  7  1  0
  7  8  2  0
  8  9  1  0
  9 10  1  0
 10 11  2  0
 10 12  1  0
 12 13  1  0
 13 14  1  0
 14 15  2  0
 15 16  1  0
 16 17  1  0
 16 18  2  0
 18 19  1  0
 19 20  1  0
 20 21  2  0
 21 22  1  0
 22 23  2  0
 23 24  1  0
 24 25  2  0
 19 26  2  0
 26 27  1  0
 27 28  3  0
  8 29  1  0
 29 30  2  0
 30  5  1  0
 26 14  1  0
 25 20  1  0
M  END
>  <Binding energies>  (33) 
[-8.5]

>  <Ligand effiencies>  (33) 
[-0.27419354838709675]

>  <Interactions>  (33) 
["V-A:GLU:543:CD:4908, H-A:GLY:454:N:4050, V-B:PRO:540:CB:9857, H-A:TYR:484:OH:4348, V-B:TYR:539:CE2:9848, V-B:PRO:540:CA:9855, V-A:ASP:366:CB:3212, V-A:ASP:366:CG:3213, V-A:ILE:369:CG2:3237, V-A:ILE:369:CB:3236, H-A:GLU:543:OE2:4910, V-B:GLU:543:CB:9878, V-B:GLU:543:CG:9879, V-A:TYR:484:CE2:4346, V-A:ASP:366:CA:3210, V-B:HIS:456:CD2:9039, V-A:GLY:544:C:4912, V-A:LYS:547:CE:4950, V-A:HIS:456:CE1:4070, H-B:LYS:547:NZ:9923, V-B:HIS:456:CE1:9041, V-B:GLU:543:C:9874, H-A:LYS:547:NZ:4951, H-A:ARG:545:NH2:4928, V-A:GLU:543:CB:4906, V-A:GLU:543:C:4902, V-B:PRO:540:C:9853, V-A:GLY:544:CA:4914, V-A:ASP:366:C:3208"]

$$$$
3ch_Grossjean_2025
     RDKit          3D

 32 34  0  0  0  0  0  0  0  0999 V2000
  129.3360  130.6820   73.3230 C   0  0  0  0  0  0  0  0  0  0  0  0
  130.1020  129.5500   72.9250 O   0  0  0  0  0  0  0  0  0  0  0  0
  129.5440  128.6130   72.0740 C   0  0  0  0  0  0  0  0  0  0  0  0
  129.4920  128.7540   70.6770 C   0  0  0  0  0  0  0  0  0  0  0  0
  128.9180  127.7560   69.8750 C   0  0  0  0  0  0  0  0  0  0  0  0
  128.8260  127.8050   68.4710 N   0  0  0  0  0  0  0  0  0  0  0  0
  128.6280  128.8640   67.6560 C   0  0  0  0  0  0  0  0  0  0  0  0
  128.5010  130.0330   68.0210 O   0  0  0  0  0  0  0  0  0  0  0  0
  128.6080  128.5500   66.1600 C   0  0  0  0  0  0  0  0  0  0  0  0
  127.0100  128.9560   65.3950 S   0  0  0  0  0  0  0  0  0  0  0  0
  127.2750  130.4470   64.4610 C   0  0  0  0  0  0  0  0  0  0  0  0
  128.5790  130.7990   64.3460 N   0  0  0  0  0  0  0  0  0  0  0  0
  128.8870  131.9230   63.6590 C   0  0  0  0  0  0  0  0  0  0  0  0
  130.3630  132.2620   63.5740 C   0  0  0  0  0  0  0  0  0  0  0  0
  127.9180  132.7310   63.0690 C   0  0  0  0  0  0  0  0  0  0  0  0
  126.5650  132.3800   63.1700 C   0  0  0  0  0  0  0  0  0  0  0  0
  125.5600  133.2820   62.5300 C   0  0  0  0  0  0  0  0  0  0  0  0
  125.8300  133.8660   61.2870 C   0  0  0  0  0  0  0  0  0  0  0  0
  124.9030  134.7150   60.6880 C   0  0  0  0  0  0  0  0  0  0  0  0
  123.6990  134.9850   61.3340 C   0  0  0  0  0  0  0  0  0  0  0  0
  123.4170  134.4180   62.5730 C   0  0  0  0  0  0  0  0  0  0  0  0
  124.3480  133.5710   63.1700 C   0  0  0  0  0  0  0  0  0  0  0  0
  126.2280  131.1930   63.8710 C   0  0  0  0  0  0  0  0  0  0  0  0
  124.8390  130.7270   63.9270 C   0  0  0  0  0  0  0  0  0  0  0  0
  123.7420  130.3590   63.9740 N   0  0  0  0  0  0  0  0  0  0  0  0
  128.3770  126.6230   70.4840 C   0  0  0  0  0  0  0  0  0  0  0  0
  128.4140  126.4610   71.8770 C   0  0  0  0  0  0  0  0  0  0  0  0
  127.9020  125.3590   72.5420 O   0  0  0  0  0  0  0  0  0  0  0  0
  128.6790  124.1690   72.6250 C   0  0  0  0  0  0  0  0  0  0  0  0
  128.9980  127.4640   72.6610 C   0  0  0  0  0  0  0  0  0  0  0  0
  129.0570  127.3100   74.0260 O   0  0  0  0  0  0  0  0  0  0  0  0
  130.2850  126.7690   74.4950 C   0  0  0  0  0  0  0  0  0  0  0  0
  1  2  1  0
  2  3  1  0
  3  4  2  0
  4  5  1  0
  5  6  1  0
  6  7  1  0
  7  8  2  0
  7  9  1  0
  9 10  1  0
 10 11  1  0
 11 12  2  0
 12 13  1  0
 13 14  1  0
 13 15  2  0
 15 16  1  0
 16 17  1  0
 17 18  2  0
 18 19  1  0
 19 20  2  0
 20 21  1  0
 21 22  2  0
 16 23  2  0
 23 24  1  0
 24 25  3  0
  5 26  2  0
 26 27  1  0
 27 28  1  0
 28 29  1  0
 27 30  2  0
 30 31  1  0
 31 32  1  0
 30  3  1  0
 23 11  1  0
 22 17  1  0
M  END
>  <Binding energies>  (34) 
[-7.32]

>  <Ligand effiencies>  (34) 
[-0.22181818181818183]

>  <Interactions>  (34) 
["V-A:GLU:543:CD:4908, V-A:TYR:539:CD1:4873, V-B:GLY:454:CA:9020, V-B:ILE:369:CG2:8208, V-B:LEU:475:CD2:9230, V-A:TYR:539:CE1:4875, H-B:GLY:454:N:9021, H-B:ARG:545:NH2:9900, V-B:HIS:456:CD2:9039, V-B:GLY:544:CA:9886, V-A:HIS:456:CD2:4068, V-A:LYS:547:CE:4950, H-B:LYS:547:NZ:9923, V-B:LYS:547:CE:9922, V-B:HIS:456:CE1:9041, V-B:GLU:543:C:9874, H-A:LYS:547:NZ:4951, V-A:GLU:543:CB:4906, V-A:GLU:543:C:4902, H-B:TYR:484:OH:9319, V-A:ALA:541:CB:4892, V-A:GLU:543:CG:4907, V-B:SER:385:CB:8380, V-B:SER:385:CA:8378, V-B:SER:385:C:8376, V-A:ALA:541:CA:4890, V-A:ALA:541:C:4888"]

$$$$
3ci_Grossjean_2025
     RDKit          3D

 25 27  0  0  0  0  0  0  0  0999 V2000
  127.6680  130.3350   64.7110 C   0  0  0  0  0  0  0  0  0  0  0  0
  128.2150  129.0570   65.3180 C   0  0  0  0  0  0  0  0  0  0  0  0
  128.3910  128.9170   66.6920 C   0  0  0  0  0  0  0  0  0  0  0  0
  128.8850  127.7110   67.2070 C   0  0  0  0  0  0  0  0  0  0  0  0
  129.0430  127.6000   68.6880 C   0  0  0  0  0  0  0  0  0  0  0  0
  130.2400  127.9790   69.3110 C   0  0  0  0  0  0  0  0  0  0  0  0
  130.3850  127.8670   70.6910 C   0  0  0  0  0  0  0  0  0  0  0  0
  129.3350  127.3670   71.4560 C   0  0  0  0  0  0  0  0  0  0  0  0
  128.1420  126.9770   70.8510 C   0  0  0  0  0  0  0  0  0  0  0  0
  128.0000  127.0920   69.4710 C   0  0  0  0  0  0  0  0  0  0  0  0
  129.2010  126.6690   66.2980 C   0  0  0  0  0  0  0  0  0  0  0  0
  129.7610  125.4000   66.7750 C   0  0  0  0  0  0  0  0  0  0  0  0
  130.2030  124.3980   67.1540 N   0  0  0  0  0  0  0  0  0  0  0  0
  128.9860  126.8930   64.9170 C   0  0  0  0  0  0  0  0  0  0  0  0
  129.3290  125.6420   63.6860 S   0  0  0  0  0  0  0  0  0  0  0  0
  130.9050  126.0240   62.8530 C   0  0  0  0  0  0  0  0  0  0  0  0
  132.1320  125.4770   63.5910 C   0  0  0  0  0  0  0  0  0  0  0  0
  132.9600  124.8100   62.9690 O   0  0  0  0  0  0  0  0  0  0  0  0
  132.2010  125.7670   64.9090 N   0  0  0  0  0  0  0  0  0  0  0  0
  133.2110  125.4190   65.7950 C   0  0  0  0  0  0  0  0  0  0  0  0
  133.0750  125.5140   67.1790 C   0  0  0  0  0  0  0  0  0  0  0  0
  134.2810  125.0860   67.6880 C   0  0  0  0  0  0  0  0  0  0  0  0
  135.0990  124.7490   66.6610 O   0  0  0  0  0  0  0  0  0  0  0  0
  134.4100  124.9660   65.4670 N   0  0  0  0  0  0  0  0  0  0  0  0
  128.5080  128.0710   64.4420 N   0  0  0  0  0  0  0  0  0  0  0  0
  1  2  1  0
  2  3  2  0
  3  4  1  0
  4  5  1  0
  5  6  2  0
  6  7  1  0
  7  8  2  0
  8  9  1  0
  9 10  2  0
  4 11  2  0
 11 12  1  0
 12 13  3  0
 11 14  1  0
 14 15  1  0
 15 16  1  0
 16 17  1  0
 17 18  2  0
 17 19  1  0
 19 20  1  0
 20 21  1  0
 21 22  2  0
 22 23  1  0
 23 24  1  0
 14 25  2  0
 25  2  1  0
 10  5  1  0
 24 20  2  0
M  END
>  <Binding energies>  (35) 
[-7.39]

>  <Ligand effiencies>  (35) 
[-0.28423076923076923]

>  <Interactions>  (35) 
["V-A:ARG:545:CD:4923, V-A:GLU:543:CD:4908, H-A:GLY:454:N:4050, H-A:TYR:484:OH:4348, H-A:ARG:545:NE:4924, V-A:ARG:545:CZ:4926, V-A:TYR:484:CZ:4347, H-A:GLU:543:OE2:4910, V-B:GLU:543:CB:9878, V-B:GLU:543:CG:9879, V-B:GLU:543:CD:9880, V-A:GLY:544:C:4912, V-A:HIS:456:CE1:4070, V-B:HIS:456:CE1:9041, V-B:GLU:543:C:9874, H-A:GLU:543:OE1:4909, H-A:ARG:545:NH2:4928, V-A:GLU:543:CB:4906, V-A:GLU:543:C:4902, V-A:GLU:543:CG:4907, V-A:ILE:455:C:4052, V-A:ARG:545:CB:4921, V-A:ARG:545:CG:4922, H-A:ARG:545:NH1:4927, H-A:ILE:455:N:4055"]

$$$$
3ck_Grossjean_2025
     RDKit          3D

 30 31  0  0  0  0  0  0  0  0999 V2000
  125.3690  123.6380   61.2990 C   0  0  0  0  0  0  0  0  0  0  0  0
  126.0910  122.9430   62.3050 O   0  0  0  0  0  0  0  0  0  0  0  0
  127.4870  123.2030   62.2820 C   0  0  0  0  0  0  0  0  0  0  0  0
  127.9520  123.3840   60.8310 C   0  0  0  0  0  0  0  0  0  0  0  0
  128.5000  122.1600   60.3570 O   0  0  0  0  0  0  0  0  0  0  0  0
  129.2380  121.4410   61.3360 C   0  0  0  0  0  0  0  0  0  0  0  0
  130.7360  121.6590   61.0940 C   0  0  0  0  0  0  0  0  0  0  0  0
  130.9290  122.9960   60.6560 O   0  0  0  0  0  0  0  0  0  0  0  0
  132.2400  123.2910   60.2000 C   0  0  0  0  0  0  0  0  0  0  0  0
  133.0600  123.9040   61.3500 C   0  0  0  0  0  0  0  0  0  0  0  0
  132.2500  124.3030   62.5050 N   0  0  0  0  0  0  0  0  0  0  0  0
  132.7270  124.6600   63.7110 C   0  0  0  0  0  0  0  0  0  0  0  0
  133.9300  124.7170   63.9730 O   0  0  0  0  0  0  0  0  0  0  0  0
  131.6640  125.0070   64.7660 C   0  0  0  0  0  0  0  0  0  0  0  0
  130.0230  125.4600   64.1050 S   0  0  0  0  0  0  0  0  0  0  0  0
  129.2880  126.7000   65.1600 C   0  0  0  0  0  0  0  0  0  0  0  0
  128.7910  127.7900   64.5240 N   0  0  0  0  0  0  0  0  0  0  0  0
  128.2240  128.7710   65.2620 C   0  0  0  0  0  0  0  0  0  0  0  0
  127.6940  129.9590   64.4820 C   0  0  0  0  0  0  0  0  0  0  0  0
  128.1300  128.7070   66.6500 C   0  0  0  0  0  0  0  0  0  0  0  0
  128.6410  127.5930   67.3280 C   0  0  0  0  0  0  0  0  0  0  0  0
  128.5390  127.5790   68.8180 C   0  0  0  0  0  0  0  0  0  0  0  0
  129.5630  128.1300   69.5990 C   0  0  0  0  0  0  0  0  0  0  0  0
  129.4790  128.1110   70.9890 C   0  0  0  0  0  0  0  0  0  0  0  0
  128.3720  127.5340   71.6050 C   0  0  0  0  0  0  0  0  0  0  0  0
  127.3490  126.9740   70.8420 C   0  0  0  0  0  0  0  0  0  0  0  0
  127.4360  126.9950   69.4530 C   0  0  0  0  0  0  0  0  0  0  0  0
  129.2280  126.5510   66.5650 C   0  0  0  0  0  0  0  0  0  0  0  0
  129.7430  125.3420   67.2190 C   0  0  0  0  0  0  0  0  0  0  0  0
  130.1480  124.3880   67.7340 N   0  0  0  0  0  0  0  0  0  0  0  0
  1  2  1  0
  2  3  1  0
  3  4  1  0
  4  5  1  0
  5  6  1  0
  6  7  1  0
  7  8  1  0
  8  9  1  0
  9 10  1  0
 10 11  1  0
 11 12  1  0
 12 13  2  0
 12 14  1  0
 14 15  1  0
 15 16  1  0
 16 17  2  0
 17 18  1  0
 18 19  1  0
 18 20  2  0
 20 21  1  0
 21 22  1  0
 22 23  2  0
 23 24  1  0
 24 25  2  0
 25 26  1  0
 26 27  2  0
 21 28  2  0
 28 29  1  0
 29 30  3  0
 28 16  1  0
 27 22  1  0
M  END
>  <Binding energies>  (36) 
[-6.65]

>  <Ligand effiencies>  (36) 
[-0.21451612903225808]

>  <Interactions>  (36) 
["V-B:TYR:539:CD2:9846, V-A:GLU:543:CD:4908, H-A:GLY:454:N:4050, V-B:PRO:540:CB:9857, H-A:TYR:484:OH:4348, V-B:TYR:539:CE2:9848, H-A:ARG:545:NE:4924, V-A:ARG:545:CZ:4926, V-A:LEU:475:CD2:4259, V-B:PRO:540:CA:9855, H-B:ALA:541:N:9863, V-B:GLU:543:CB:9878, V-B:GLU:543:CG:9879, V-B:GLU:543:CD:9880, V-B:ALA:541:CB:9864, V-B:HIS:456:CD2:9039, V-B:GLY:544:C:9884, V-B:GLY:544:CA:9886, V-A:HIS:456:CE1:4070, V-B:HIS:456:CE1:9041, V-B:GLU:543:C:9874, H-A:ARG:545:NH2:4928, V-A:GLU:543:CB:4906, V-A:GLU:543:C:4902, V-A:GLU:543:CG:4907, V-B:PRO:540:C:9853, V-B:GLU:543:CA:9876, H-A:ARG:545:NH1:4927"]

$$$$
4aa_Grossjean_2025
     RDKit          3D

 26 28  0  0  0  0  0  0  0  0999 V2000
  126.3800  128.5470   74.5920 C   0  0  0  0  0  0  0  0  0  0  0  0
  126.7900  127.7900   73.3250 C   0  0  0  0  0  0  0  0  0  0  0  0
  128.1840  127.5140   73.3690 O   0  0  0  0  0  0  0  0  0  0  0  0
  129.0730  128.2830   72.6890 C   0  0  0  0  0  0  0  0  0  0  0  0
  129.6290  129.2740   73.1760 O   0  0  0  0  0  0  0  0  0  0  0  0
  129.3120  127.8120   71.2840 C   0  0  0  0  0  0  0  0  0  0  0  0
  130.5060  128.1590   70.6390 C   0  0  0  0  0  0  0  0  0  0  0  0
  130.7540  127.7420   69.3350 C   0  0  0  0  0  0  0  0  0  0  0  0
  129.8200  126.9620   68.6520 C   0  0  0  0  0  0  0  0  0  0  0  0
  130.1690  126.6030   67.3350 N   0  0  0  0  0  0  0  0  0  0  0  0
  130.1480  125.3930   66.7250 C   0  0  0  0  0  0  0  0  0  0  0  0
  129.8370  124.3410   67.2850 O   0  0  0  0  0  0  0  0  0  0  0  0
  130.5530  125.3960   65.3180 C   0  0  0  0  0  0  0  0  0  0  0  0
  129.3560  125.6570   64.0470 S   0  0  0  0  0  0  0  0  0  0  0  0
  130.5690  125.4720   62.8020 C   0  0  0  0  0  0  0  0  0  0  0  0
  130.2700  125.5690   61.5050 N   0  0  0  0  0  0  0  0  0  0  0  0
  131.3020  125.4000   60.6430 C   0  0  0  0  0  0  0  0  0  0  0  0
  130.9390  125.5100   59.1730 C   0  0  0  0  0  0  0  0  0  0  0  0
  132.6120  125.1440   61.0420 C   0  0  0  0  0  0  0  0  0  0  0  0
  132.9220  125.0440   62.4020 C   0  0  0  0  0  0  0  0  0  0  0  0
  134.3660  124.7620   62.7890 C   0  0  0  0  0  0  0  0  0  0  0  0
  131.8660  125.2100   63.3380 C   0  0  0  0  0  0  0  0  0  0  0  0
  131.8270  125.1680   64.7750 C   0  0  0  0  0  0  0  0  0  0  0  0
  132.9480  124.9280   65.5300 N   0  0  0  0  0  0  0  0  0  0  0  0
  128.6190  126.6130   69.2860 C   0  0  0  0  0  0  0  0  0  0  0  0
  128.3710  127.0350   70.5910 C   0  0  0  0  0  0  0  0  0  0  0  0
  1  2  1  0
  2  3  1  0
  3  4  1  0
  4  5  2  0
  4  6  1  0
  6  7  2  0
  7  8  1  0
  8  9  2  0
  9 10  1  0
 10 11  1  0
 11 12  2  0
 11 13  1  0
 13 14  1  0
 14 15  1  0
 15 16  2  0
 16 17  1  0
 17 18  1  0
 17 19  2  0
 19 20  1  0
 20 21  1  0
 20 22  2  0
 22 23  1  0
 23 24  1  0
  9 25  1  0
 25 26  2  0
 26  6  1  0
 23 13  2  0
 22 15  1  0
M  END
>  <Binding energies>  (37) 
[-7.08]

>  <Ligand effiencies>  (37) 
[-0.24413793103448275]

>  <Interactions>  (37) 
["V-A:GLU:543:CD:4908, H-A:TYR:484:OH:4348, V-A:ARG:545:CZ:4926, V-A:GLY:453:C:4042, V-A:ASP:366:CG:3213, V-A:TYR:484:CZ:4347, H-A:GLU:543:OE2:4910, V-B:GLU:543:CB:9878, V-B:GLU:543:CG:9879, V-B:GLU:543:CD:9880, V-B:HIS:456:CD2:9039, V-A:GLY:544:C:4912, V-B:HIS:456:CB:9036, V-B:GLY:544:C:9884, V-B:HIS:456:CG:9037, V-A:HIS:456:CE1:4070, H-B:LYS:547:NZ:9923, V-B:LYS:547:CE:9922, V-B:HIS:456:CE1:9041, V-B:GLU:543:C:9874, H-A:LYS:547:NZ:4951, H-A:GLU:543:OE1:4909, V-A:GLU:543:CB:4906, V-A:GLU:543:C:4902, V-A:GLY:453:CA:4044"]

$$$$
4ab_Grossjean_2025
     RDKit          3D

 25 27  0  0  0  0  0  0  0  0999 V2000
  129.3950  130.7080   73.3470 C   0  0  0  0  0  0  0  0  0  0  0  0
  129.9070  129.4200   73.0360 O   0  0  0  0  0  0  0  0  0  0  0  0
  129.0780  128.4070   72.6750 C   0  0  0  0  0  0  0  0  0  0  0  0
  128.2200  127.9300   73.4240 O   0  0  0  0  0  0  0  0  0  0  0  0
  129.3140  127.9190   71.2750 C   0  0  0  0  0  0  0  0  0  0  0  0
  130.5530  128.1630   70.6660 C   0  0  0  0  0  0  0  0  0  0  0  0
  130.8020  127.7250   69.3680 C   0  0  0  0  0  0  0  0  0  0  0  0
  129.8240  127.0290   68.6570 C   0  0  0  0  0  0  0  0  0  0  0  0
  130.1800  126.6400   67.3510 N   0  0  0  0  0  0  0  0  0  0  0  0
  130.1800  125.4140   66.7740 C   0  0  0  0  0  0  0  0  0  0  0  0
  129.8840  124.3720   67.3610 O   0  0  0  0  0  0  0  0  0  0  0  0
  130.5890  125.3850   65.3690 C   0  0  0  0  0  0  0  0  0  0  0  0
  129.3920  125.5940   64.0890 S   0  0  0  0  0  0  0  0  0  0  0  0
  130.6110  125.3950   62.8500 C   0  0  0  0  0  0  0  0  0  0  0  0
  130.3140  125.4520   61.5520 N   0  0  0  0  0  0  0  0  0  0  0  0
  131.3500  125.2790   60.6960 C   0  0  0  0  0  0  0  0  0  0  0  0
  130.9900  125.3420   59.2230 C   0  0  0  0  0  0  0  0  0  0  0  0
  132.6640  125.0580   61.1040 C   0  0  0  0  0  0  0  0  0  0  0  0
  132.9720  124.9990   62.4680 C   0  0  0  0  0  0  0  0  0  0  0  0
  134.4200  124.7530   62.8630 C   0  0  0  0  0  0  0  0  0  0  0  0
  131.9100  125.1710   63.3970 C   0  0  0  0  0  0  0  0  0  0  0  0
  131.8680  125.1640   64.8340 C   0  0  0  0  0  0  0  0  0  0  0  0
  132.9900  124.9600   65.5980 N   0  0  0  0  0  0  0  0  0  0  0  0
  128.5790  126.7850   69.2560 C   0  0  0  0  0  0  0  0  0  0  0  0
  128.3310  127.2260   70.5530 C   0  0  0  0  0  0  0  0  0  0  0  0
  1  2  1  0
  2  3  1  0
  3  4  2  0
  3  5  1  0
  5  6  2  0
  6  7  1  0
  7  8  2  0
  8  9  1  0
  9 10  1  0
 10 11  2  0
 10 12  1  0
 12 13  1  0
 13 14  1  0
 14 15  2  0
 15 16  1  0
 16 17  1  0
 16 18  2  0
 18 19  1  0
 19 20  1  0
 19 21  2  0
 21 22  1  0
 22 23  1  0
  8 24  1  0
 24 25  2  0
 25  5  1  0
 22 12  2  0
 21 14  1  0
M  END
>  <Binding energies>  (38) 
[-7.03]

>  <Ligand effiencies>  (38) 
[-0.25107142857142856]

>  <Interactions>  (38) 
["V-A:ARG:545:CD:4923, V-A:GLU:543:CD:4908, H-A:TYR:484:OH:4348, V-B:TYR:539:CE2:9848, V-A:ARG:545:CZ:4926, V-A:GLY:453:C:4042, V-A:ASP:366:CG:3213, V-A:TYR:484:CZ:4347, H-A:GLU:543:OE2:4910, V-B:GLU:543:CB:9878, V-B:GLU:543:CG:9879, V-B:GLU:543:CD:9880, V-B:HIS:456:CD2:9039, V-A:GLY:544:C:4912, V-A:LYS:547:CE:4950, V-A:HIS:456:CE1:4070, H-B:LYS:547:NZ:9923, V-B:HIS:456:CE1:9041, V-B:GLU:543:C:9874, H-A:LYS:547:NZ:4951, H-A:GLU:543:OE1:4909, V-A:GLU:543:CB:4906, V-A:GLU:543:C:4902, V-A:GLY:453:CA:4044"]

$$$$
4ac_Grossjean_2025
     RDKit          3D

 23 25  0  0  0  0  0  0  0  0999 V2000
  130.9490  128.1380   70.3740 C   0  0  0  0  0  0  0  0  0  0  0  0
  130.0770  127.2020   69.7480 O   0  0  0  0  0  0  0  0  0  0  0  0
  129.4590  127.5460   68.5620 C   0  0  0  0  0  0  0  0  0  0  0  0
  128.8430  128.7960   68.5210 C   0  0  0  0  0  0  0  0  0  0  0  0
  128.1940  129.2300   67.3670 C   0  0  0  0  0  0  0  0  0  0  0  0
  128.1630  128.4180   66.2330 C   0  0  0  0  0  0  0  0  0  0  0  0
  127.4740  128.9330   65.1190 N   0  0  0  0  0  0  0  0  0  0  0  0
  127.5420  130.1670   64.5650 C   0  0  0  0  0  0  0  0  0  0  0  0
  128.2370  131.0840   65.0070 O   0  0  0  0  0  0  0  0  0  0  0  0
  126.7110  130.3680   63.3750 C   0  0  0  0  0  0  0  0  0  0  0  0
  127.4390  130.3720   61.7680 S   0  0  0  0  0  0  0  0  0  0  0  0
  125.8860  130.6530   61.0130 C   0  0  0  0  0  0  0  0  0  0  0  0
  125.7540  130.7630   59.6910 N   0  0  0  0  0  0  0  0  0  0  0  0
  124.4970  130.9810   59.2350 C   0  0  0  0  0  0  0  0  0  0  0  0
  124.3670  131.1020   57.7280 C   0  0  0  0  0  0  0  0  0  0  0  0
  123.3800  131.0920   60.0620 C   0  0  0  0  0  0  0  0  0  0  0  0
  123.5230  130.9770   61.4490 C   0  0  0  0  0  0  0  0  0  0  0  0
  122.2750  131.1050   62.3090 C   0  0  0  0  0  0  0  0  0  0  0  0
  124.8270  130.7460   61.9640 C   0  0  0  0  0  0  0  0  0  0  0  0
  125.3240  130.5780   63.3030 C   0  0  0  0  0  0  0  0  0  0  0  0
  124.5010  130.6230   64.4000 N   0  0  0  0  0  0  0  0  0  0  0  0
  128.7690  127.1540   66.2700 C   0  0  0  0  0  0  0  0  0  0  0  0
  129.4160  126.7240   67.4250 C   0  0  0  0  0  0  0  0  0  0  0  0
  1  2  1  0
  2  3  1  0
  3  4  2  0
  4  5  1  0
  5  6  2  0
  6  7  1  0
  7  8  1  0
  8  9  2  0
  8 10  1  0
 10 11  1  0
 11 12  1  0
 12 13  2  0
 13 14  1  0
 14 15  1  0
 14 16  2  0
 16 17  1  0
 17 18  1  0
 17 19  2  0
 19 20  1  0
 20 21  1  0
  6 22  1  0
 22 23  2  0
 23  3  1  0
 20 10  2  0
 19 12  1  0
M  END
>  <Binding energies>  (39) 
[-6.27]

>  <Ligand effiencies>  (39) 
[-0.24115384615384614]

>  <Interactions>  (39) 
["V-B:ASP:366:CB:8183, V-A:GLU:543:CD:4908, V-B:ASP:366:CG:8184, V-B:ILE:369:CB:8207, V-B:GLY:454:CA:9020, V-B:GLY:453:C:9013, V-B:ILE:369:CG2:8208, V-B:GLY:453:CA:9015, V-A:TYR:539:CE1:4875, V-B:ASP:366:CA:8181, V-B:ILE:369:CG1:8209, V-B:GLU:543:CB:9878, V-B:GLU:543:CG:9879, V-B:GLU:543:CD:9880, H-B:GLU:543:OE1:9881, V-A:GLY:544:C:4912, V-A:HIS:456:CE1:4070, V-B:HIS:456:CE1:9041, V-A:GLU:543:CB:4906, V-A:GLU:543:C:4902, V-B:TYR:484:CZ:9318, H-B:TYR:484:OH:9319, V-A:GLU:543:CG:4907, V-A:TYR:539:CZ:4877, V-A:GLU:543:CA:4904, H-B:GLU:543:OE2:9882"]

$$$$
4ad_Grossjean_2025
     RDKit          3D

 21 23  0  0  0  0  0  0  0  0999 V2000
  124.3230  131.0790   57.6500 C   0  0  0  0  0  0  0  0  0  0  0  0
  124.4550  130.9820   59.1580 C   0  0  0  0  0  0  0  0  0  0  0  0
  123.3400  131.0960   59.9850 C   0  0  0  0  0  0  0  0  0  0  0  0
  123.4860  131.0060   61.3750 C   0  0  0  0  0  0  0  0  0  0  0  0
  122.2390  131.1390   62.2360 C   0  0  0  0  0  0  0  0  0  0  0  0
  124.7930  130.7980   61.8920 C   0  0  0  0  0  0  0  0  0  0  0  0
  125.2960  130.6600   63.2320 C   0  0  0  0  0  0  0  0  0  0  0  0
  124.4730  130.7130   64.3300 N   0  0  0  0  0  0  0  0  0  0  0  0
  126.6850  130.4680   63.3050 C   0  0  0  0  0  0  0  0  0  0  0  0
  127.5220  130.3090   64.4950 C   0  0  0  0  0  0  0  0  0  0  0  0
  128.2710  131.2170   64.8610 O   0  0  0  0  0  0  0  0  0  0  0  0
  127.3950  129.1240   65.1410 N   0  0  0  0  0  0  0  0  0  0  0  0
  128.0770  128.6440   66.2750 C   0  0  0  0  0  0  0  0  0  0  0  0
  128.6480  127.3740   66.1540 C   0  0  0  0  0  0  0  0  0  0  0  0
  129.3530  126.8160   67.2170 C   0  0  0  0  0  0  0  0  0  0  0  0
  129.4950  127.5330   68.4020 C   0  0  0  0  0  0  0  0  0  0  0  0
  128.9430  128.8060   68.5310 C   0  0  0  0  0  0  0  0  0  0  0  0
  128.2370  129.3650   67.4700 C   0  0  0  0  0  0  0  0  0  0  0  0
  127.4090  130.4490   61.6960 S   0  0  0  0  0  0  0  0  0  0  0  0
  125.8520  130.6990   60.9390 C   0  0  0  0  0  0  0  0  0  0  0  0
  125.7150  130.7840   59.6150 N   0  0  0  0  0  0  0  0  0  0  0  0
  1  2  1  0
  2  3  2  0
  3  4  1  0
  4  5  1  0
  4  6  2  0
  6  7  1  0
  7  8  1  0
  7  9  2  0
  9 10  1  0
 10 11  2  0
 10 12  1  0
 12 13  1  0
 13 14  2  0
 14 15  1  0
 15 16  2  0
 16 17  1  0
 17 18  2  0
  9 19  1  0
 19 20  1  0
 20 21  2  0
 21  2  1  0
 20  6  1  0
 18 13  1  0
M  END
>  <Binding energies>  (40) 
[-6.34]

>  <Ligand effiencies>  (40) 
[-0.26416666666666666]

>  <Interactions>  (40) 
["V-B:ASP:366:CB:8183, V-A:GLU:543:CD:4908, V-B:ASP:366:CG:8184, V-B:ILE:369:CB:8207, V-B:GLY:454:CA:9020, V-B:GLY:453:C:9013, V-B:ILE:369:CG2:8208, V-B:GLY:453:CA:9015, V-A:TYR:539:CE1:4875, V-B:ASP:366:CA:8181, V-B:ILE:369:CG1:8209, V-B:GLU:543:CB:9878, V-B:GLU:543:CG:9879, V-B:GLU:543:CD:9880, H-B:GLU:543:OE1:9881, V-A:HIS:456:CE1:4070, V-B:HIS:456:CE1:9041, V-A:GLU:543:CB:4906, V-A:GLU:543:C:4902, V-B:TYR:484:CZ:9318, H-B:TYR:484:OH:9319, V-A:GLU:543:CG:4907, V-A:TYR:539:CZ:4877, V-A:GLU:543:CA:4904, V-B:TYR:484:CE2:9317, H-B:GLU:543:OE2:9882"]

$$$$
4ae_Grossjean_2025
     RDKit          3D

 22 24  0  0  0  0  0  0  0  0999 V2000
  126.9770  126.9680   69.9120 C   0  0  0  0  0  0  0  0  0  0  0  0
  128.4150  127.1490   69.4650 C   0  0  0  0  0  0  0  0  0  0  0  0
  129.2750  128.0420   70.1090 C   0  0  0  0  0  0  0  0  0  0  0  0
  130.5820  128.1610   69.6380 C   0  0  0  0  0  0  0  0  0  0  0  0
  130.9940  127.3950   68.5450 C   0  0  0  0  0  0  0  0  0  0  0  0
  130.0850  126.5140   67.9510 C   0  0  0  0  0  0  0  0  0  0  0  0
  130.5510  125.7850   66.8430 N   0  0  0  0  0  0  0  0  0  0  0  0
  130.1990  124.5390   66.4380 C   0  0  0  0  0  0  0  0  0  0  0  0
  129.3790  123.8330   67.0260 O   0  0  0  0  0  0  0  0  0  0  0  0
  130.8720  124.0600   65.2280 C   0  0  0  0  0  0  0  0  0  0  0  0
  130.1710  122.7470   64.2810 S   0  0  0  0  0  0  0  0  0  0  0  0
  131.5080  122.7820   63.1540 C   0  0  0  0  0  0  0  0  0  0  0  0
  131.5760  121.9500   62.1150 N   0  0  0  0  0  0  0  0  0  0  0  0
  132.6670  122.0780   61.3210 C   0  0  0  0  0  0  0  0  0  0  0  0
  132.7280  121.1170   60.1480 C   0  0  0  0  0  0  0  0  0  0  0  0
  133.6800  123.0100   61.5390 C   0  0  0  0  0  0  0  0  0  0  0  0
  133.6040  123.8820   62.6310 C   0  0  0  0  0  0  0  0  0  0  0  0
  134.7350  124.8800   62.8300 C   0  0  0  0  0  0  0  0  0  0  0  0
  132.4750  123.7770   63.4880 C   0  0  0  0  0  0  0  0  0  0  0  0
  132.0870  124.4930   64.6740 C   0  0  0  0  0  0  0  0  0  0  0  0
  132.8490  125.5040   65.2020 N   0  0  0  0  0  0  0  0  0  0  0  0
  128.8010  126.3960   68.4030 N   0  0  0  0  0  0  0  0  0  0  0  0
  1  2  1  0
  2  3  2  0
  3  4  1  0
  4  5  2  0
  5  6  1  0
  6  7  1  0
  7  8  1  0
  8  9  2  0
  8 10  1  0
 10 11  1  0
 11 12  1  0
 12 13  2  0
 13 14  1  0
 14 15  1  0
 14 16  2  0
 16 17  1  0
 17 18  1  0
 17 19  2  0
 19 20  1  0
 20 21  1  0
  6 22  2  0
 22  2  1  0
 20 10  2  0
 19 12  1  0
M  END
>  <Binding energies>  (41) 
[-6.7]

>  <Ligand effiencies>  (41) 
[-0.268]

>  <Interactions>  (41) 
["V-A:ARG:545:CD:4923, V-B:TYR:539:CD2:9846, V-A:GLU:543:CD:4908, H-A:TYR:484:OH:4348, V-B:TYR:539:CE2:9848, V-A:ARG:545:CZ:4926, V-A:LEU:475:CD2:4259, V-A:ILE:369:CD1:3239, V-A:GLY:453:C:4042, V-A:ASP:366:CG:3213, V-A:ILE:369:CG2:3237, V-A:TYR:484:CZ:4347, H-A:GLU:543:OE2:4910, V-B:GLU:543:CB:9878, V-B:GLU:543:CG:9879, V-A:TYR:484:CE2:4346, V-B:ALA:541:CB:9864, V-B:GLY:544:C:9884, V-B:GLY:544:CA:9886, V-A:HIS:456:CE1:4070, V-B:HIS:456:CE1:9041, V-B:GLU:543:C:9874, H-A:GLU:543:OE1:4909, V-A:GLU:543:CB:4906, V-A:GLU:543:C:4902, V-A:GLY:453:CA:4044, V-A:ARG:545:CG:4922, V-A:GLU:543:CA:4904"]

$$$$
4af_Grossjean_2025
     RDKit          3D

 21 23  0  0  0  0  0  0  0  0999 V2000
  132.4890  121.0160   60.2230 C   0  0  0  0  0  0  0  0  0  0  0  0
  132.4710  121.9970   61.3810 C   0  0  0  0  0  0  0  0  0  0  0  0
  133.5040  122.9140   61.5610 C   0  0  0  0  0  0  0  0  0  0  0  0
  133.4680  123.8080   62.6380 C   0  0  0  0  0  0  0  0  0  0  0  0
  134.6190  124.7880   62.7940 C   0  0  0  0  0  0  0  0  0  0  0  0
  132.3550  123.7380   63.5200 C   0  0  0  0  0  0  0  0  0  0  0  0
  132.0040  124.4840   64.6990 C   0  0  0  0  0  0  0  0  0  0  0  0
  132.7970  125.4900   65.1910 N   0  0  0  0  0  0  0  0  0  0  0  0
  130.7920  124.0870   65.2850 C   0  0  0  0  0  0  0  0  0  0  0  0
  130.1550  124.6030   66.4980 C   0  0  0  0  0  0  0  0  0  0  0  0
  129.3760  123.9010   67.1440 O   0  0  0  0  0  0  0  0  0  0  0  0
  130.4990  125.8690   66.8410 N   0  0  0  0  0  0  0  0  0  0  0  0
  130.0370  126.6650   67.9060 C   0  0  0  0  0  0  0  0  0  0  0  0
  128.6910  126.8190   68.2850 C   0  0  0  0  0  0  0  0  0  0  0  0
  128.3660  127.6570   69.3530 C   0  0  0  0  0  0  0  0  0  0  0  0
  129.3960  128.3260   70.0160 C   0  0  0  0  0  0  0  0  0  0  0  0
  130.7010  128.2000   69.6650 N   0  0  0  0  0  0  0  0  0  0  0  0
  131.0010  127.3830   68.6240 C   0  0  0  0  0  0  0  0  0  0  0  0
  130.0500  122.7650   64.3810 S   0  0  0  0  0  0  0  0  0  0  0  0
  131.3630  122.7550   63.2260 C   0  0  0  0  0  0  0  0  0  0  0  0
  131.3950  121.9030   62.2000 N   0  0  0  0  0  0  0  0  0  0  0  0
  1  2  1  0
  2  3  2  0
  3  4  1  0
  4  5  1  0
  4  6  2  0
  6  7  1  0
  7  8  1  0
  7  9  2  0
  9 10  1  0
 10 11  2  0
 10 12  1  0
 12 13  1  0
 13 14  2  0
 14 15  1  0
 15 16  2  0
 16 17  1  0
 17 18  2  0
  9 19  1  0
 19 20  1  0
 20 21  2  0
 21  2  1  0
 20  6  1  0
 18 13  1  0
M  END
>  <Binding energies>  (42) 
[-6.36]

>  <Ligand effiencies>  (42) 
[-0.265]

>  <Interactions>  (42) 
["V-A:ARG:545:CD:4923, V-B:TYR:539:CD2:9846, V-A:GLU:543:CD:4908, H-A:TYR:484:OH:4348, V-B:TYR:539:CE2:9848, V-A:ARG:545:CZ:4926, V-A:LEU:475:CD2:4259, V-A:ILE:369:CD1:3239, V-A:GLY:453:C:4042, V-A:ILE:369:CG2:3237, V-A:TYR:484:CZ:4347, H-A:GLU:543:OE2:4910, V-B:GLU:543:CB:9878, V-B:GLU:543:CG:9879, V-A:TYR:484:CE2:4346, V-B:ALA:541:CB:9864, V-A:HIS:456:CE1:4070, V-B:HIS:456:CE1:9041, H-A:GLU:543:OE1:4909, V-A:GLU:543:CB:4906, V-A:GLU:543:C:4902, V-A:GLY:453:CA:4044, V-A:ARG:545:CG:4922"]

$$$$
4ag_Grossjean_2025
     RDKit          3D

 22 24  0  0  0  0  0  0  0  0999 V2000
  122.2480  130.7660   62.4310 C   0  0  0  0  0  0  0  0  0  0  0  0
  123.6590  130.4570   62.8940 C   0  0  0  0  0  0  0  0  0  0  0  0
  124.7430  130.5880   62.0280 C   0  0  0  0  0  0  0  0  0  0  0  0
  126.0370  130.2990   62.4770 C   0  0  0  0  0  0  0  0  0  0  0  0
  127.1870  130.4580   61.4940 C   0  0  0  0  0  0  0  0  0  0  0  0
  126.1920  129.8750   63.8240 C   0  0  0  0  0  0  0  0  0  0  0  0
  127.3470  129.5050   64.5960 C   0  0  0  0  0  0  0  0  0  0  0  0
  128.6150  129.5130   64.0700 N   0  0  0  0  0  0  0  0  0  0  0  0
  127.0540  129.1370   65.9170 C   0  0  0  0  0  0  0  0  0  0  0  0
  127.9790  128.7200   66.9710 C   0  0  0  0  0  0  0  0  0  0  0  0
  128.4090  129.5220   67.8030 O   0  0  0  0  0  0  0  0  0  0  0  0
  128.3420  127.4200   66.9620 N   0  0  0  0  0  0  0  0  0  0  0  0
  129.2310  126.7820   67.9320 C   0  0  0  0  0  0  0  0  0  0  0  0
  128.9960  127.2230   69.3720 C   0  0  0  0  0  0  0  0  0  0  0  0
  127.7610  126.9800   69.9810 C   0  0  0  0  0  0  0  0  0  0  0  0
  127.5520  127.3600   71.3040 C   0  0  0  0  0  0  0  0  0  0  0  0
  128.5810  127.9710   72.0180 C   0  0  0  0  0  0  0  0  0  0  0  0
  129.8190  128.2020   71.4220 C   0  0  0  0  0  0  0  0  0  0  0  0
  130.0290  127.8220   70.0990 C   0  0  0  0  0  0  0  0  0  0  0  0
  125.3250  129.2520   66.2450 S   0  0  0  0  0  0  0  0  0  0  0  0
  125.0040  129.7810   64.6090 C   0  0  0  0  0  0  0  0  0  0  0  0
  123.7700  130.0570   64.1850 N   0  0  0  0  0  0  0  0  0  0  0  0
  1  2  1  0
  2  3  2  0
  3  4  1  0
  4  5  1  0
  4  6  2  0
  6  7  1  0
  7  8  1  0
  7  9  2  0
  9 10  1  0
 10 11  2  0
 10 12  1  0
 12 13  1  0
 13 14  1  0
 14 15  2  0
 15 16  1  0
 16 17  2  0
 17 18  1  0
 18 19  2  0
  9 20  1  0
 20 21  1  0
 21 22  2  0
 22  2  1  0
 21  6  1  0
 19 14  1  0
M  END
>  <Binding energies>  (43) 
[-6.98]

>  <Ligand effiencies>  (43) 
[-0.2792]

>  <Interactions>  (43) 
["V-A:GLU:543:CD:4908, V-B:GLY:453:C:9013, V-B:GLY:453:CA:9015, H-B:ARG:545:NH1:9899, H-B:GLY:454:N:9021, V-B:ILE:369:CG1:8209, H-B:ARG:545:NH2:9900, H-A:GLU:543:OE2:4910, V-B:GLU:543:CB:9878, V-B:GLU:543:CG:9879, V-B:GLU:543:CD:9880, H-B:GLU:543:OE1:9881, V-B:HIS:456:CD2:9039, V-B:GLY:544:C:9884, V-B:HIS:456:CG:9037, V-A:HIS:456:CE1:4070, V-B:HIS:456:CE1:9041, V-B:GLU:543:C:9874, H-A:GLU:543:OE1:4909, V-A:GLU:543:CB:4906, V-B:TYR:484:CZ:9318, V-B:ARG:545:CZ:9898, H-B:TYR:484:OH:9319, V-A:GLU:543:CG:4907, H-B:ARG:545:NE:9896, V-B:ARG:545:CD:9895, V-B:ARG:545:CG:9894, H-B:GLU:543:OE2:9882"]

$$$$
4ah_Grossjean_2025
     RDKit          3D

 28 30  0  0  0  0  0  0  0  0999 V2000
  134.2990  124.7860   62.9230 C   0  0  0  0  0  0  0  0  0  0  0  0
  133.8650  124.6380   64.2710 O   0  0  0  0  0  0  0  0  0  0  0  0
  132.5110  124.5680   64.5440 C   0  0  0  0  0  0  0  0  0  0  0  0
  131.8220  125.4990   65.3380 C   0  0  0  0  0  0  0  0  0  0  0  0
  130.4540  125.3640   65.5730 C   0  0  0  0  0  0  0  0  0  0  0  0
  129.7140  126.4110   66.3980 C   0  0  0  0  0  0  0  0  0  0  0  0
  128.7310  127.1750   65.6290 N   0  0  0  0  0  0  0  0  0  0  0  0
  128.2410  128.3850   65.9710 C   0  0  0  0  0  0  0  0  0  0  0  0
  128.5570  128.9600   67.0140 O   0  0  0  0  0  0  0  0  0  0  0  0
  127.2690  128.9670   65.0460 C   0  0  0  0  0  0  0  0  0  0  0  0
  125.6080  129.2510   65.5690 S   0  0  0  0  0  0  0  0  0  0  0  0
  125.1670  129.8580   63.9880 C   0  0  0  0  0  0  0  0  0  0  0  0
  123.9330  130.2800   63.7130 N   0  0  0  0  0  0  0  0  0  0  0  0
  123.7240  130.7280   62.4510 C   0  0  0  0  0  0  0  0  0  0  0  0
  122.3120  131.2010   62.1580 C   0  0  0  0  0  0  0  0  0  0  0  0
  124.7110  130.7650   61.4690 C   0  0  0  0  0  0  0  0  0  0  0  0
  126.0060  130.3190   61.7590 C   0  0  0  0  0  0  0  0  0  0  0  0
  127.0490  130.3770   60.6540 C   0  0  0  0  0  0  0  0  0  0  0  0
  126.2630  129.8400   63.0730 C   0  0  0  0  0  0  0  0  0  0  0  0
  127.4460  129.3150   63.6990 C   0  0  0  0  0  0  0  0  0  0  0  0
  128.6350  129.1830   63.0280 N   0  0  0  0  0  0  0  0  0  0  0  0
  129.7560  124.3060   64.9900 C   0  0  0  0  0  0  0  0  0  0  0  0
  130.4190  123.3560   64.1970 C   0  0  0  0  0  0  0  0  0  0  0  0
  129.7940  122.2750   63.6020 O   0  0  0  0  0  0  0  0  0  0  0  0
  128.6700  122.4980   62.7570 C   0  0  0  0  0  0  0  0  0  0  0  0
  131.7980  123.4950   63.9870 C   0  0  0  0  0  0  0  0  0  0  0  0
  132.4580  122.5830   63.1980 O   0  0  0  0  0  0  0  0  0  0  0  0
  132.0820  122.6260   61.8280 C   0  0  0  0  0  0  0  0  0  0  0  0
  1  2  1  0
  2  3  1  0
  3  4  2  0
  4  5  1  0
  5  6  1  0
  6  7  1  0
  7  8  1  0
  8  9  2  0
  8 10  1  0
 10 11  1  0
 11 12  1  0
 12 13  2  0
 13 14  1  0
 14 15  1  0
 14 16  2  0
 16 17  1  0
 17 18  1  0
 17 19  2  0
 19 20  1  0
 20 21  1  0
  5 22  2  0
 22 23  1  0
 23 24  1  0
 24 25  1  0
 23 26  2  0
 26 27  1  0
 27 28  1  0
 26  3  1  0
 20 10  2  0
 19 12  1  0
M  END
>  <Binding energies>  (44) 
[-5.89]

>  <Ligand effiencies>  (44) 
[-0.19]

>  <Interactions>  (44) 
["V-A:GLU:543:CD:4908, H-A:GLY:454:N:4050, V-B:ASP:366:CG:8184, H-A:TYR:484:OH:4348, H-A:ARG:545:NE:4924, V-A:ARG:545:CZ:4926, V-A:LEU:475:CD2:4259, V-B:GLY:453:C:9013, V-B:GLY:453:CA:9015, H-B:GLY:454:N:9021, V-B:ILE:369:CG1:8209, H-B:ARG:545:NH2:9900, V-A:GLY:453:C:4042, H-A:GLU:543:OE2:4910, V-B:GLU:543:CB:9878, V-B:GLU:543:CG:9879, V-B:GLU:543:CD:9880, H-B:GLU:543:OE1:9881, V-B:ALA:541:CB:9864, H-A:GLU:543:OE1:4909, H-A:ARG:545:NH2:4928, V-B:ARG:545:CZ:9898, V-A:GLY:453:CA:4044, V-A:GLU:543:CG:4907, V-B:ALA:541:CA:9862, H-B:GLU:543:OE2:9882"]

$$$$
4ai_Grossjean_2025
     RDKit          3D

 20 22  0  0  0  0  0  0  0  0999 V2000
  131.3110  121.1480   60.6920 C   0  0  0  0  0  0  0  0  0  0  0  0
  131.5210  122.1280   61.8310 C   0  0  0  0  0  0  0  0  0  0  0  0
  132.6350  122.9650   61.8610 C   0  0  0  0  0  0  0  0  0  0  0  0
  132.8060  123.8650   62.9180 C   0  0  0  0  0  0  0  0  0  0  0  0
  134.0370  124.7590   62.9050 C   0  0  0  0  0  0  0  0  0  0  0  0
  131.8150  123.8880   63.9370 C   0  0  0  0  0  0  0  0  0  0  0  0
  131.6770  124.6680   65.1370 C   0  0  0  0  0  0  0  0  0  0  0  0
  132.6030  125.6100   65.5090 N   0  0  0  0  0  0  0  0  0  0  0  0
  130.5170  124.3800   65.8740 C   0  0  0  0  0  0  0  0  0  0  0  0
  130.0700  124.9720   67.1370 C   0  0  0  0  0  0  0  0  0  0  0  0
  129.4170  124.3090   67.9450 O   0  0  0  0  0  0  0  0  0  0  0  0
  130.4410  126.2610   67.3380 N   0  0  0  0  0  0  0  0  0  0  0  0
  130.1650  127.0560   68.4430 C   0  0  0  0  0  0  0  0  0  0  0  0
  128.8790  127.2310   68.9540 C   0  0  0  0  0  0  0  0  0  0  0  0
  129.0320  128.0790   70.0270 C   0  0  0  0  0  0  0  0  0  0  0  0
  130.3410  128.3970   70.1570 O   0  0  0  0  0  0  0  0  0  0  0  0
  131.0510  127.7420   69.1480 N   0  0  0  0  0  0  0  0  0  0  0  0
  129.5720  123.1050   65.1020 S   0  0  0  0  0  0  0  0  0  0  0  0
  130.7230  122.9810   63.7900 C   0  0  0  0  0  0  0  0  0  0  0  0
  130.5580  122.1200   62.7850 N   0  0  0  0  0  0  0  0  0  0  0  0
  1  2  1  0
  2  3  2  0
  3  4  1  0
  4  5  1  0
  4  6  2  0
  6  7  1  0
  7  8  1  0
  7  9  2  0
  9 10  1  0
 10 11  2  0
 10 12  1  0
 12 13  1  0
 13 14  1  0
 14 15  2  0
 15 16  1  0
 16 17  1  0
  9 18  1  0
 18 19  1  0
 19 20  2  0
 20  2  1  0
 19  6  1  0
 17 13  2  0
M  END
>  <Binding energies>  (45) 
[-6.1]

>  <Ligand effiencies>  (45) 
[-0.2652173913043478]

>  <Interactions>  (45) 
["V-A:ARG:545:CD:4923, V-B:TYR:539:CD2:9846, V-A:GLU:543:CD:4908, H-A:TYR:484:OH:4348, V-B:TYR:539:CE2:9848, V-A:ARG:545:CZ:4926, V-A:LEU:475:CD2:4259, V-A:TYR:484:CZ:4347, H-A:GLU:543:OE2:4910, V-B:GLU:543:CB:9878, V-B:GLU:543:CG:9879, V-A:TYR:484:CE2:4346, V-A:HIS:456:CE1:4070, V-B:HIS:456:CE1:9041, H-A:GLU:543:OE1:4909, V-A:GLU:543:CB:4906, V-A:GLY:453:CA:4044, V-B:GLU:543:CA:9876"]

$$$$
4aj_Grossjean_2025
     RDKit          3D

 20 22  0  0  0  0  0  0  0  0999 V2000
  131.3140  121.1520   60.6590 C   0  0  0  0  0  0  0  0  0  0  0  0
  131.5160  122.1320   61.8000 C   0  0  0  0  0  0  0  0  0  0  0  0
  132.6270  122.9720   61.8340 C   0  0  0  0  0  0  0  0  0  0  0  0
  132.7970  123.8650   62.8990 C   0  0  0  0  0  0  0  0  0  0  0  0
  134.0260  124.7610   62.8910 C   0  0  0  0  0  0  0  0  0  0  0  0
  131.8080  123.8770   63.9190 C   0  0  0  0  0  0  0  0  0  0  0  0
  131.6700  124.6460   65.1270 C   0  0  0  0  0  0  0  0  0  0  0  0
  132.5930  125.5870   65.5050 N   0  0  0  0  0  0  0  0  0  0  0  0
  130.5140  124.3450   65.8640 C   0  0  0  0  0  0  0  0  0  0  0  0
  130.0690  124.9220   67.1340 C   0  0  0  0  0  0  0  0  0  0  0  0
  129.4190  124.2500   67.9380 O   0  0  0  0  0  0  0  0  0  0  0  0
  130.4320  126.2110   67.3470 N   0  0  0  0  0  0  0  0  0  0  0  0
  130.1500  126.9830   68.4660 C   0  0  0  0  0  0  0  0  0  0  0  0
  130.9900  127.6850   69.1960 N   0  0  0  0  0  0  0  0  0  0  0  0
  130.3740  128.3020   70.1850 C   0  0  0  0  0  0  0  0  0  0  0  0
  128.9990  128.1040   70.2740 C   0  0  0  0  0  0  0  0  0  0  0  0
  128.4970  127.0500   68.9850 S   0  0  0  0  0  0  0  0  0  0  0  0
  129.5690  123.0790   65.0800 S   0  0  0  0  0  0  0  0  0  0  0  0
  130.7170  122.9690   63.7650 C   0  0  0  0  0  0  0  0  0  0  0  0
  130.5520  122.1160   62.7530 N   0  0  0  0  0  0  0  0  0  0  0  0
  1  2  1  0
  2  3  2  0
  3  4  1  0
  4  5  1  0
  4  6  2  0
  6  7  1  0
  7  8  1  0
  7  9  2  0
  9 10  1  0
 10 11  2  0
 10 12  1  0
 12 13  1  0
 13 14  2  0
 14 15  1  0
 15 16  2  0
 16 17  1  0
  9 18  1  0
 18 19  1  0
 19 20  2  0
 20  2  1  0
 19  6  1  0
 17 13  1  0
M  END
>  <Binding energies>  (46) 
[-6.17]

>  <Ligand effiencies>  (46) 
[-0.2682608695652174]

>  <Interactions>  (46) 
["V-A:ARG:545:CD:4923, V-B:TYR:539:CD2:9846, V-A:GLU:543:CD:4908, H-A:TYR:484:OH:4348, V-B:TYR:539:CE2:9848, V-A:ARG:545:CZ:4926, V-A:LEU:475:CD2:4259, V-A:TYR:484:CZ:4347, H-A:GLU:543:OE2:4910, V-B:GLU:543:CB:9878, V-B:GLU:543:CG:9879, V-A:TYR:484:CE2:4346, V-B:HIS:456:CD2:9039, V-A:GLY:544:C:4912, V-A:HIS:456:CE1:4070, V-B:HIS:456:CE1:9041, H-A:GLU:543:OE1:4909, V-A:GLU:543:CB:4906, V-A:GLU:543:C:4902, V-A:GLY:453:CA:4044, V-B:GLU:543:CA:9876"]

$$$$
4ak_Grossjean_2025
     RDKit          3D

 25 26  0  0  0  0  0  0  0  0999 V2000
  134.4660  127.0250   74.5280 C   0  0  0  0  0  0  0  0  0  0  0  0
  133.1260  127.2880   74.9110 O   0  0  0  0  0  0  0  0  0  0  0  0
  132.2720  126.1560   74.7980 C   0  0  0  0  0  0  0  0  0  0  0  0
  130.8780  126.6090   74.3470 C   0  0  0  0  0  0  0  0  0  0  0  0
  131.0090  127.6340   73.3700 O   0  0  0  0  0  0  0  0  0  0  0  0
  130.0660  127.5390   72.3100 C   0  0  0  0  0  0  0  0  0  0  0  0
  130.5060  128.4520   71.1590 C   0  0  0  0  0  0  0  0  0  0  0  0
  130.1340  127.8590   69.9220 O   0  0  0  0  0  0  0  0  0  0  0  0
  128.7290  127.7860   69.7190 C   0  0  0  0  0  0  0  0  0  0  0  0
  128.4350  126.8600   68.5240 C   0  0  0  0  0  0  0  0  0  0  0  0
  127.6750  127.5070   67.4540 N   0  0  0  0  0  0  0  0  0  0  0  0
  127.8600  128.7700   67.0200 C   0  0  0  0  0  0  0  0  0  0  0  0
  128.7280  129.5090   67.4880 O   0  0  0  0  0  0  0  0  0  0  0  0
  126.9720  129.2180   65.9480 C   0  0  0  0  0  0  0  0  0  0  0  0
  125.2260  129.2490   66.1940 S   0  0  0  0  0  0  0  0  0  0  0  0
  124.9640  129.8650   64.5780 C   0  0  0  0  0  0  0  0  0  0  0  0
  123.7420  130.1180   64.1090 N   0  0  0  0  0  0  0  0  0  0  0  0
  123.6770  130.5900   62.8390 C   0  0  0  0  0  0  0  0  0  0  0  0
  122.2780  130.8730   62.3250 C   0  0  0  0  0  0  0  0  0  0  0  0
  124.7950  130.8140   62.0380 C   0  0  0  0  0  0  0  0  0  0  0  0
  126.0770  130.5490   62.5340 C   0  0  0  0  0  0  0  0  0  0  0  0
  127.2650  130.8050   61.6200 C   0  0  0  0  0  0  0  0  0  0  0  0
  126.1840  130.0510   63.8600 C   0  0  0  0  0  0  0  0  0  0  0  0
  127.3150  129.6790   64.6680 C   0  0  0  0  0  0  0  0  0  0  0  0
  128.6050  129.7710   64.2100 N   0  0  0  0  0  0  0  0  0  0  0  0
  1  2  1  0
  2  3  1  0
  3  4  1  0
  4  5  1  0
  5  6  1  0
  6  7  1  0
  7  8  1  0
  8  9  1  0
  9 10  1  0
 10 11  1  0
 11 12  1  0
 12 13  2  0
 12 14  1  0
 14 15  1  0
 15 16  1  0
 16 17  2  0
 17 18  1  0
 18 19  1  0
 18 20  2  0
 20 21  1  0
 21 22  1  0
 21 23  2  0
 23 24  1  0
 24 25  1  0
 24 14  2  0
 23 16  1  0
M  END
>  <Binding energies>  (47) 
[-6.12]

>  <Ligand effiencies>  (47) 
[-0.21857142857142858]

>  <Interactions>  (47) 
["V-A:GLU:543:CD:4908, V-B:GLY:453:C:9013, V-B:GLY:453:CA:9015, H-B:ARG:545:NH1:9899, H-B:GLY:454:N:9021, V-B:ILE:369:CG1:8209, H-B:ARG:545:NH2:9900, H-A:GLU:543:OE2:4910, V-B:GLU:543:CB:9878, V-B:GLU:543:CG:9879, V-B:GLU:543:CD:9880, V-A:GLY:544:C:4912, V-A:HIS:456:CD2:4068, V-A:HIS:456:CB:4065, V-A:HIS:456:CG:4066, V-B:HIS:456:CE1:9041, V-B:GLU:543:C:9874, H-A:LYS:547:NZ:4951, H-A:GLU:543:OE1:4909, V-A:GLU:543:CB:4906, V-A:GLU:543:C:4902, V-B:TYR:484:CZ:9318, V-B:ARG:545:CZ:9898, V-A:GLU:543:CG:4907, H-B:ARG:545:NE:9896, V-A:GLY:544:CA:4914, V-B:ARG:545:CD:9895, V-B:ARG:545:CG:9894, V-A:LYS:547:CG:4948, V-A:ARG:545:C:4917, H-B:GLU:543:OE2:9882"]

$$$$
4al_Grossjean_2025
     RDKit          3D

 16 17  0  0  0  0  0  0  0  0999 V2000
  131.6190  128.7080   58.4000 C   0  0  0  0  0  0  0  0  0  0  0  0
  132.2150  129.8720   57.8480 O   0  0  0  0  0  0  0  0  0  0  0  0
  132.5920  130.9070   58.6440 C   0  0  0  0  0  0  0  0  0  0  0  0
  133.7570  131.2880   58.7730 O   0  0  0  0  0  0  0  0  0  0  0  0
  131.4530  131.5370   59.3470 C   0  0  0  0  0  0  0  0  0  0  0  0
  130.2780  132.4930   58.4410 S   0  0  0  0  0  0  0  0  0  0  0  0
  129.3680  132.8290   59.8960 C   0  0  0  0  0  0  0  0  0  0  0  0
  128.2610  133.5730   59.8790 N   0  0  0  0  0  0  0  0  0  0  0  0
  127.6500  133.7570   61.0760 C   0  0  0  0  0  0  0  0  0  0  0  0
  126.3920  134.6060   61.0340 C   0  0  0  0  0  0  0  0  0  0  0  0
  128.1140  133.2200   62.2740 C   0  0  0  0  0  0  0  0  0  0  0  0
  129.2760  132.4400   62.2890 C   0  0  0  0  0  0  0  0  0  0  0  0
  129.7440  131.8760   63.6200 C   0  0  0  0  0  0  0  0  0  0  0  0
  129.9440  132.2250   61.0530 C   0  0  0  0  0  0  0  0  0  0  0  0
  131.1320  131.4950   60.7090 C   0  0  0  0  0  0  0  0  0  0  0  0
  131.8800  130.8200   61.6390 N   0  0  0  0  0  0  0  0  0  0  0  0
  1  2  1  0
  2  3  1  0
  3  4  2  0
  3  5  1  0
  5  6  1  0
  6  7  1  0
  7  8  2  0
  8  9  1  0
  9 10  1  0
  9 11  2  0
 11 12  1  0
 12 13  1  0
 12 14  2  0
 14 15  1  0
 15 16  1  0
 15  5  2  0
 14  7  1  0
M  END
>  <Binding energies>  (48) 
[-4.88]

>  <Ligand effiencies>  (48) 
[-0.2711111111111111]

>  <Interactions>  (48) 
["V-A:GLU:543:CD:4908, V-A:ASP:366:CB:3212, V-A:PRO:540:CB:4885, V-A:TYR:539:CD1:4873, V-A:PRO:540:N:4884, V-A:PRO:540:CA:4883, V-A:TYR:539:C:4867, V-B:LEU:475:CD2:9230, V-A:TYR:539:CE1:4875, V-A:ASP:366:CG:3213, H-A:GLU:543:OE1:4909, V-A:ALA:541:CB:4892, V-A:GLU:543:CG:4907, H-A:ASP:366:OD2:3215, V-A:LEU:363:CD1:3189, H-A:TYR:531:OH:4795"]

$$$$
4bc_Grossjean_2025
     RDKit          3D

 26 28  0  0  0  0  0  0  0  0999 V2000
  129.8380  128.1710   70.9300 C   0  0  0  0  0  0  0  0  0  0  0  0
  130.0670  127.3310   69.8040 O   0  0  0  0  0  0  0  0  0  0  0  0
  129.4550  127.6330   68.6030 C   0  0  0  0  0  0  0  0  0  0  0  0
  128.8150  128.8690   68.5240 C   0  0  0  0  0  0  0  0  0  0  0  0
  128.1700  129.2610   67.3540 C   0  0  0  0  0  0  0  0  0  0  0  0
  128.1640  128.4200   66.2390 C   0  0  0  0  0  0  0  0  0  0  0  0
  127.4740  128.8920   65.1080 N   0  0  0  0  0  0  0  0  0  0  0  0
  127.5390  130.1070   64.5100 C   0  0  0  0  0  0  0  0  0  0  0  0
  128.2310  131.0400   64.9220 O   0  0  0  0  0  0  0  0  0  0  0  0
  126.7100  130.2640   63.3110 C   0  0  0  0  0  0  0  0  0  0  0  0
  127.4490  130.2420   61.7120 S   0  0  0  0  0  0  0  0  0  0  0  0
  125.8980  130.4740   60.9410 C   0  0  0  0  0  0  0  0  0  0  0  0
  125.7840  130.5450   59.6150 N   0  0  0  0  0  0  0  0  0  0  0  0
  124.5320  130.7280   59.1360 C   0  0  0  0  0  0  0  0  0  0  0  0
  124.4240  130.8010   57.6230 C   0  0  0  0  0  0  0  0  0  0  0  0
  123.4020  130.8410   59.9420 C   0  0  0  0  0  0  0  0  0  0  0  0
  123.5160  130.7670   61.3390 C   0  0  0  0  0  0  0  0  0  0  0  0
  122.2440  130.8990   62.1850 C   0  0  0  0  0  0  0  0  0  0  0  0
  122.1080  132.1070   62.7350 F   0  0  0  0  0  0  0  0  0  0  0  0
  121.1730  130.6840   61.4220 F   0  0  0  0  0  0  0  0  0  0  0  0
  122.2670  130.0090   63.1760 F   0  0  0  0  0  0  0  0  0  0  0  0
  124.8230  130.5720   61.8780 C   0  0  0  0  0  0  0  0  0  0  0  0
  125.3200  130.4460   63.2270 C   0  0  0  0  0  0  0  0  0  0  0  0
  124.5010  130.4990   64.3250 N   0  0  0  0  0  0  0  0  0  0  0  0
  128.7940  127.1680   66.3150 C   0  0  0  0  0  0  0  0  0  0  0  0
  129.4370  126.7800   67.4870 C   0  0  0  0  0  0  0  0  0  0  0  0
  1  2  1  0
  2  3  1  0
  3  4  2  0
  4  5  1  0
  5  6  2  0
  6  7  1  0
  7  8  1  0
  8  9  2  0
  8 10  1  0
 10 11  1  0
 11 12  1  0
 12 13  2  0
 13 14  1  0
 14 15  1  0
 14 16  2  0
 16 17  1  0
 17 18  1  0
 18 19  1  0
 18 20  1  0
 18 21  1  0
 17 22  2  0
 22 23  1  0
 23 24  1  0
  6 25  1  0
 25 26  2  0
 26  3  1  0
 23 10  2  0
 22 12  1  0
M  END
>  <Binding energies>  (49) 
[-6.01]

>  <Ligand effiencies>  (49) 
[-0.2072413793103448]

>  <Interactions>  (49) 
["V-B:ASP:366:CB:8183, V-A:GLU:543:CD:4908, V-B:ASP:366:CG:8184, V-B:ILE:369:CB:8207, V-B:GLY:454:CA:9020, V-B:GLY:453:C:9013, V-B:ILE:369:CG2:8208, V-B:GLY:453:CA:9015, V-A:TYR:539:CE1:4875, V-B:ASP:366:CA:8181, V-B:ILE:369:CG1:8209, V-B:GLU:543:CB:9878, V-B:GLU:543:CG:9879, V-B:GLU:543:CD:9880, H-B:GLU:543:OE1:9881, V-B:HIS:456:CE1:9041, V-A:GLU:543:CB:4906, V-A:GLU:543:C:4902, V-B:TYR:484:CZ:9318, V-B:ARG:545:CZ:9898, H-B:TYR:484:OH:9319, V-A:GLU:543:CG:4907, V-A:GLU:543:CA:4904, H-B:GLU:543:OE2:9882, V-B:CYS:365:C:8175"]

$$$$
4bf_Grossjean_2025
     RDKit          3D

 24 26  0  0  0  0  0  0  0  0999 V2000
  130.7840  120.7460   60.6570 C   0  0  0  0  0  0  0  0  0  0  0  0
  131.0410  121.7980   61.7210 C   0  0  0  0  0  0  0  0  0  0  0  0
  132.0900  122.7050   61.5950 C   0  0  0  0  0  0  0  0  0  0  0  0
  132.3180  123.6700   62.5890 C   0  0  0  0  0  0  0  0  0  0  0  0
  133.4870  124.6450   62.4080 C   0  0  0  0  0  0  0  0  0  0  0  0
  134.3300  124.2760   61.4410 F   0  0  0  0  0  0  0  0  0  0  0  0
  133.0220  125.8540   62.0930 F   0  0  0  0  0  0  0  0  0  0  0  0
  134.1880  124.7230   63.5400 F   0  0  0  0  0  0  0  0  0  0  0  0
  131.4370  123.6730   63.7110 C   0  0  0  0  0  0  0  0  0  0  0  0
  131.3600  124.4900   64.8970 C   0  0  0  0  0  0  0  0  0  0  0  0
  132.2360  125.5160   65.1450 N   0  0  0  0  0  0  0  0  0  0  0  0
  130.3130  124.1440   65.7660 C   0  0  0  0  0  0  0  0  0  0  0  0
  129.9680  124.7370   67.0620 C   0  0  0  0  0  0  0  0  0  0  0  0
  129.4080  124.0660   67.9300 O   0  0  0  0  0  0  0  0  0  0  0  0
  130.3200  126.0370   67.2180 N   0  0  0  0  0  0  0  0  0  0  0  0
  130.0940  126.9030   68.3040 C   0  0  0  0  0  0  0  0  0  0  0  0
  131.0740  127.6840   68.9410 C   0  0  0  0  0  0  0  0  0  0  0  0
  130.7170  128.4930   70.0230 C   0  0  0  0  0  0  0  0  0  0  0  0
  129.3870  128.4960   70.4450 C   0  0  0  0  0  0  0  0  0  0  0  0
  128.4250  127.7460   69.8520 N   0  0  0  0  0  0  0  0  0  0  0  0
  128.7870  126.9650   68.8020 C   0  0  0  0  0  0  0  0  0  0  0  0
  129.3870  122.7830   65.1380 S   0  0  0  0  0  0  0  0  0  0  0  0
  130.4000  122.6890   63.7170 C   0  0  0  0  0  0  0  0  0  0  0  0
  130.1870  121.7750   62.7710 N   0  0  0  0  0  0  0  0  0  0  0  0
  1  2  1  0
  2  3  2  0
  3  4  1  0
  4  5  1  0
  5  6  1  0
  5  7  1  0
  5  8  1  0
  4  9  2  0
  9 10  1  0
 10 11  1  0
 10 12  2  0
 12 13  1  0
 13 14  2  0
 13 15  1  0
 15 16  1  0
 16 17  2  0
 17 18  1  0
 18 19  2  0
 19 20  1  0
 20 21  2  0
 12 22  1  0
 22 23  1  0
 23 24  2  0
 24  2  1  0
 23  9  1  0
 21 16  1  0
M  END
>  <Binding energies>  (50) 
[-5.83]

>  <Ligand effiencies>  (50) 
[-0.21592592592592594]

>  <Interactions>  (50) 
["V-B:TYR:539:CD2:9846, V-A:GLU:543:CD:4908, H-A:TYR:484:OH:4348, V-B:TYR:539:CE2:9848, V-A:ARG:545:CZ:4926, V-A:LEU:475:CD2:4259, V-A:ILE:369:CD1:3239, V-A:GLY:453:C:4042, V-A:GLY:454:CA:4049, V-A:ASP:366:CG:3213, V-A:TYR:484:CZ:4347, H-A:GLU:543:OE2:4910, V-B:GLU:543:CB:9878, V-B:GLU:543:CG:9879, V-A:TYR:484:CE2:4346, V-B:ALA:541:CB:9864, V-B:HIS:456:CD2:9039, V-A:GLY:544:C:4912, V-A:HIS:456:CE1:4070, V-B:HIS:456:CE1:9041, H-A:GLU:543:OE1:4909, V-A:GLU:543:CB:4906, V-A:GLU:543:C:4902, V-A:GLY:453:CA:4044, V-B:GLU:543:CA:9876, V-A:ARG:545:CG:4922, V-A:GLU:543:CA:4904"]

$$$$
4bh_Grossjean_2025
     RDKit          3D

 31 33  0  0  0  0  0  0  0  0999 V2000
  129.8980  132.2150   73.0280 C   0  0  0  0  0  0  0  0  0  0  0  0
  130.0980  130.9080   73.5530 O   0  0  0  0  0  0  0  0  0  0  0  0
  129.0150  130.0620   73.7000 C   0  0  0  0  0  0  0  0  0  0  0  0
  128.8360  128.8810   72.9620 C   0  0  0  0  0  0  0  0  0  0  0  0
  127.7150  128.0740   73.1610 C   0  0  0  0  0  0  0  0  0  0  0  0
  127.5620  126.7730   72.3840 C   0  0  0  0  0  0  0  0  0  0  0  0
  127.7690  126.9260   70.9430 N   0  0  0  0  0  0  0  0  0  0  0  0
  128.9670  127.0240   70.3310 C   0  0  0  0  0  0  0  0  0  0  0  0
  130.0300  127.0330   70.9550 O   0  0  0  0  0  0  0  0  0  0  0  0
  128.9360  127.1650   68.8750 C   0  0  0  0  0  0  0  0  0  0  0  0
  128.3220  128.6450   68.1460 S   0  0  0  0  0  0  0  0  0  0  0  0
  128.5730  128.0080   66.5380 C   0  0  0  0  0  0  0  0  0  0  0  0
  128.2770  128.7230   65.4530 N   0  0  0  0  0  0  0  0  0  0  0  0
  128.5180  128.1240   64.2640 C   0  0  0  0  0  0  0  0  0  0  0  0
  128.1720  128.9550   63.0410 C   0  0  0  0  0  0  0  0  0  0  0  0
  129.0440  126.8420   64.1340 C   0  0  0  0  0  0  0  0  0  0  0  0
  129.3560  126.0830   65.2730 C   0  0  0  0  0  0  0  0  0  0  0  0
  129.9350  124.6770   65.0810 C   0  0  0  0  0  0  0  0  0  0  0  0
  129.7140  124.1820   63.8610 F   0  0  0  0  0  0  0  0  0  0  0  0
  131.2550  124.7040   65.2660 F   0  0  0  0  0  0  0  0  0  0  0  0
  129.3840  123.8390   65.9590 F   0  0  0  0  0  0  0  0  0  0  0  0
  129.1120  126.6840   66.5430 C   0  0  0  0  0  0  0  0  0  0  0  0
  129.2960  126.2240   67.8980 C   0  0  0  0  0  0  0  0  0  0  0  0
  129.7860  124.9790   68.2000 N   0  0  0  0  0  0  0  0  0  0  0  0
  126.7740  128.4320   74.1280 C   0  0  0  0  0  0  0  0  0  0  0  0
  126.9220  129.6110   74.8760 C   0  0  0  0  0  0  0  0  0  0  0  0
  126.0230  130.0340   75.8380 O   0  0  0  0  0  0  0  0  0  0  0  0
  124.8210  129.2980   76.0400 C   0  0  0  0  0  0  0  0  0  0  0  0
  128.0450  130.4200   74.6480 C   0  0  0  0  0  0  0  0  0  0  0  0
  128.2120  131.5680   75.3860 O   0  0  0  0  0  0  0  0  0  0  0  0
  127.3860  132.6470   74.9700 C   0  0  0  0  0  0  0  0  0  0  0  0
  1  2  1  0
  2  3  1  0
  3  4  2  0
  4  5  1  0
  5  6  1  0
  6  7  1  0
  7  8  1  0
  8  9  2  0
  8 10  1  0
 10 11  1  0
 11 12  1  0
 12 13  2  0
 13 14  1  0
 14 15  1  0
 14 16  2  0
 16 17  1  0
 17 18  1  0
 18 19  1  0
 18 20  1  0
 18 21  1  0
 17 22  2  0
 22 23  1  0
 23 24  1  0
  5 25  2  0
 25 26  1  0
 26 27  1  0
 27 28  1  0
 26 29  2  0
 29 30  1  0
 30 31  1  0
 29  3  1  0
 23 10  2  0
 22 12  1  0
M  END
>  <Binding energies>  (51) 
[-5.41]

>  <Ligand effiencies>  (51) 
[-0.15911764705882353]

>  <Interactions>  (51) 
["V-A:GLU:543:CD:4908, H-A:TYR:484:OH:4348, V-A:TYR:484:CZ:4347, V-B:GLU:543:CB:9878, V-B:GLU:543:CG:9879, V-A:TYR:484:CE2:4346, V-B:GLU:543:CD:9880, V-B:HIS:456:CD2:9039, V-B:HIS:456:CB:9036, V-B:GLY:544:C:9884, V-B:HIS:456:CG:9037, V-B:GLY:544:CA:9886, V-B:ASP:473:CG:9211, V-A:LYS:547:CE:4950, V-A:HIS:456:CE1:4070, V-B:ASP:473:CB:9210, V-B:LYS:547:CE:9922, V-B:HIS:456:CE1:9041, V-B:GLU:543:C:9874, H-A:LYS:547:NZ:4951, H-B:GLU:543:O:9875, V-A:GLU:543:CB:4906, V-A:GLU:543:C:4902, H-B:HIS:456:NE2:9042, V-A:GLU:543:CG:4907, H-A:HIS:456:NE2:4071, V-A:GLY:544:CA:4914, V-B:GLU:543:CA:9876, H-B:GLY:544:O:9885, H-B:LYS:471:NZ:9192"]

$$$$
4bi_Grossjean_2025
     RDKit          3D

 23 25  0  0  0  0  0  0  0  0999 V2000
  130.4970  120.6640   60.9120 C   0  0  0  0  0  0  0  0  0  0  0  0
  130.8330  121.7510   61.9180 C   0  0  0  0  0  0  0  0  0  0  0  0
  131.8840  122.6370   61.6930 C   0  0  0  0  0  0  0  0  0  0  0  0
  132.1810  123.6400   62.6300 C   0  0  0  0  0  0  0  0  0  0  0  0
  133.3410  124.5960   62.3350 C   0  0  0  0  0  0  0  0  0  0  0  0
  134.2270  124.6650   63.3310 F   0  0  0  0  0  0  0  0  0  0  0  0
  133.9950  124.1910   61.2470 F   0  0  0  0  0  0  0  0  0  0  0  0
  132.8710  125.8280   62.1330 F   0  0  0  0  0  0  0  0  0  0  0  0
  131.3690  123.6980   63.8020 C   0  0  0  0  0  0  0  0  0  0  0  0
  131.3740  124.5630   64.9560 C   0  0  0  0  0  0  0  0  0  0  0  0
  132.2810  125.5790   65.1180 N   0  0  0  0  0  0  0  0  0  0  0  0
  130.3670  124.2770   65.8930 C   0  0  0  0  0  0  0  0  0  0  0  0
  130.0930  124.9390   67.1710 C   0  0  0  0  0  0  0  0  0  0  0  0
  129.5840  124.3170   68.1060 O   0  0  0  0  0  0  0  0  0  0  0  0
  130.4520  126.2460   67.2390 N   0  0  0  0  0  0  0  0  0  0  0  0
  130.3200  127.1040   68.3230 C   0  0  0  0  0  0  0  0  0  0  0  0
  129.0930  127.4020   68.9130 C   0  0  0  0  0  0  0  0  0  0  0  0
  129.3890  128.2740   69.9350 C   0  0  0  0  0  0  0  0  0  0  0  0
  130.7260  128.4900   69.9600 O   0  0  0  0  0  0  0  0  0  0  0  0
  131.3050  127.7430   68.9320 N   0  0  0  0  0  0  0  0  0  0  0  0
  129.3920  122.9020   65.3800 S   0  0  0  0  0  0  0  0  0  0  0  0
  130.3240  122.7310   63.9110 C   0  0  0  0  0  0  0  0  0  0  0  0
  130.0450  121.7820   63.0170 N   0  0  0  0  0  0  0  0  0  0  0  0
  1  2  1  0
  2  3  2  0
  3  4  1  0
  4  5  1  0
  5  6  1  0
  5  7  1  0
  5  8  1  0
  4  9  2  0
  9 10  1  0
 10 11  1  0
 10 12  2  0
 12 13  1  0
 13 14  2  0
 13 15  1  0
 15 16  1  0
 16 17  1  0
 17 18  2  0
 18 19  1  0
 19 20  1  0
 12 21  1  0
 21 22  1  0
 22 23  2  0
 23  2  1  0
 22  9  1  0
 20 16  2  0
M  END
>  <Binding energies>  (52) 
[-5.83]

>  <Ligand effiencies>  (52) 
[-0.22423076923076923]

>  <Interactions>  (52) 
["V-B:TYR:539:CD2:9846, V-A:GLU:543:CD:4908, H-A:TYR:484:OH:4348, V-B:TYR:539:CE2:9848, V-A:ARG:545:CZ:4926, V-A:LEU:475:CD2:4259, V-A:ILE:369:CD1:3239, V-A:GLY:453:C:4042, V-A:GLY:454:CA:4049, V-A:ASP:366:CG:3213, V-A:TYR:484:CZ:4347, H-A:GLU:543:OE2:4910, V-B:GLU:543:CB:9878, V-B:GLU:543:CG:9879, V-A:TYR:484:CE2:4346, V-B:ALA:541:CB:9864, V-A:HIS:456:CE1:4070, V-B:HIS:456:CE1:9041, H-A:GLU:543:OE1:4909, V-A:GLU:543:CB:4906, V-A:GLU:543:C:4902, V-A:GLY:453:CA:4044, V-B:GLU:543:CA:9876"]

$$$$
4bj_Grossjean_2025
     RDKit          3D

 23 25  0  0  0  0  0  0  0  0999 V2000
  130.5230  120.6430   60.7510 C   0  0  0  0  0  0  0  0  0  0  0  0
  130.8500  121.7200   61.7690 C   0  0  0  0  0  0  0  0  0  0  0  0
  131.9080  122.6030   61.5650 C   0  0  0  0  0  0  0  0  0  0  0  0
  132.2030  123.5900   62.5180 C   0  0  0  0  0  0  0  0  0  0  0  0
  133.3790  124.5370   62.2510 C   0  0  0  0  0  0  0  0  0  0  0  0
  134.2720  124.5530   63.2430 F   0  0  0  0  0  0  0  0  0  0  0  0
  134.0180  124.1610   61.1440 F   0  0  0  0  0  0  0  0  0  0  0  0
  132.9280  125.7820   62.0990 F   0  0  0  0  0  0  0  0  0  0  0  0
  131.3780  123.6430   63.6810 C   0  0  0  0  0  0  0  0  0  0  0  0
  131.3780  124.4920   64.8470 C   0  0  0  0  0  0  0  0  0  0  0  0
  132.2910  125.4990   65.0310 N   0  0  0  0  0  0  0  0  0  0  0  0
  130.3590  124.2010   65.7680 C   0  0  0  0  0  0  0  0  0  0  0  0
  130.0750  124.8510   67.0500 C   0  0  0  0  0  0  0  0  0  0  0  0
  129.5390  124.2270   67.9690 O   0  0  0  0  0  0  0  0  0  0  0  0
  130.4510  126.1500   67.1410 N   0  0  0  0  0  0  0  0  0  0  0  0
  130.3080  126.9850   68.2410 C   0  0  0  0  0  0  0  0  0  0  0  0
  131.2560  127.5160   68.9820 N   0  0  0  0  0  0  0  0  0  0  0  0
  130.7570  128.2650   69.9450 C   0  0  0  0  0  0  0  0  0  0  0  0
  129.3700  128.3540   69.9990 C   0  0  0  0  0  0  0  0  0  0  0  0
  128.6910  127.3960   68.7170 S   0  0  0  0  0  0  0  0  0  0  0  0
  129.3770  122.8420   65.2260 S   0  0  0  0  0  0  0  0  0  0  0  0
  130.3230  122.6820   63.7650 C   0  0  0  0  0  0  0  0  0  0  0  0
  130.0480  121.7450   62.8590 N   0  0  0  0  0  0  0  0  0  0  0  0
  1  2  1  0
  2  3  2  0
  3  4  1  0
  4  5  1  0
  5  6  1  0
  5  7  1  0
  5  8  1  0
  4  9  2  0
  9 10  1  0
 10 11  1  0
 10 12  2  0
 12 13  1  0
 13 14  2  0
 13 15  1  0
 15 16  1  0
 16 17  2  0
 17 18  1  0
 18 19  2  0
 19 20  1  0
 12 21  1  0
 21 22  1  0
 22 23  2  0
 23  2  1  0
 22  9  1  0
 20 16  1  0
M  END
>  <Binding energies>  (53) 
[-5.82]

>  <Ligand effiencies>  (53) 
[-0.22384615384615386]

>  <Interactions>  (53) 
["V-B:TYR:539:CD2:9846, V-A:GLU:543:CD:4908, H-A:TYR:484:OH:4348, V-B:TYR:539:CE2:9848, V-A:ARG:545:CZ:4926, V-A:LEU:475:CD2:4259, V-A:ILE:369:CD1:3239, V-A:GLY:453:C:4042, V-A:GLY:454:CA:4049, V-A:ASP:366:CG:3213, V-A:TYR:484:CZ:4347, H-A:GLU:543:OE2:4910, V-B:GLU:543:CB:9878, V-B:GLU:543:CG:9879, V-A:TYR:484:CE2:4346, V-B:ALA:541:CB:9864, V-A:GLY:544:C:4912, V-A:HIS:456:CE1:4070, V-B:HIS:456:CE1:9041, H-A:GLU:543:OE1:4909, V-A:GLU:543:CB:4906, V-A:GLU:543:C:4902, V-A:GLY:453:CA:4044, V-B:GLU:543:CA:9876, V-A:GLU:543:CA:4904"]

$$$$
4bk_Grossjean_2025
     RDKit          3D

 28 29  0  0  0  0  0  0  0  0999 V2000
  134.1740  126.6690   74.5500 C   0  0  0  0  0  0  0  0  0  0  0  0
  132.9540  127.3330   74.8380 O   0  0  0  0  0  0  0  0  0  0  0  0
  131.8020  126.5700   74.5040 C   0  0  0  0  0  0  0  0  0  0  0  0
  131.2500  127.0390   73.1520 C   0  0  0  0  0  0  0  0  0  0  0  0
  130.6020  128.2930   73.3160 O   0  0  0  0  0  0  0  0  0  0  0  0
  129.5130  128.4970   72.4260 C   0  0  0  0  0  0  0  0  0  0  0  0
  130.0240  128.4610   70.9790 C   0  0  0  0  0  0  0  0  0  0  0  0
  129.7060  127.2030   70.4000 O   0  0  0  0  0  0  0  0  0  0  0  0
  129.3210  127.2800   69.0330 C   0  0  0  0  0  0  0  0  0  0  0  0
  127.8200  126.9660   68.9070 C   0  0  0  0  0  0  0  0  0  0  0  0
  127.1800  127.6100   67.7580 N   0  0  0  0  0  0  0  0  0  0  0  0
  127.5620  128.7810   67.2080 C   0  0  0  0  0  0  0  0  0  0  0  0
  128.5270  129.4230   67.6250 O   0  0  0  0  0  0  0  0  0  0  0  0
  126.7660  129.2480   66.0710 C   0  0  0  0  0  0  0  0  0  0  0  0
  125.0070  129.2450   66.1630 S   0  0  0  0  0  0  0  0  0  0  0  0
  124.8780  129.9180   64.5560 C   0  0  0  0  0  0  0  0  0  0  0  0
  123.6940  130.1710   64.0010 N   0  0  0  0  0  0  0  0  0  0  0  0
  123.7220  130.6940   62.7530 C   0  0  0  0  0  0  0  0  0  0  0  0
  122.3610  130.9760   62.1410 C   0  0  0  0  0  0  0  0  0  0  0  0
  124.8950  130.9660   62.0540 C   0  0  0  0  0  0  0  0  0  0  0  0
  126.1460  130.7000   62.6320 C   0  0  0  0  0  0  0  0  0  0  0  0
  127.4080  131.0130   61.8220 C   0  0  0  0  0  0  0  0  0  0  0  0
  128.2350  131.8540   62.4480 F   0  0  0  0  0  0  0  0  0  0  0  0
  128.0840  129.8890   61.5880 F   0  0  0  0  0  0  0  0  0  0  0  0
  127.0720  131.5750   60.6610 F   0  0  0  0  0  0  0  0  0  0  0  0
  126.1520  130.1500   63.9480 C   0  0  0  0  0  0  0  0  0  0  0  0
  127.2130  129.7600   64.8440 C   0  0  0  0  0  0  0  0  0  0  0  0
  128.5390  129.8780   64.5180 N   0  0  0  0  0  0  0  0  0  0  0  0
  1  2  1  0
  2  3  1  0
  3  4  1  0
  4  5  1  0
  5  6  1  0
  6  7  1  0
  7  8  1  0
  8  9  1  0
  9 10  1  0
 10 11  1  0
 11 12  1  0
 12 13  2  0
 12 14  1  0
 14 15  1  0
 15 16  1  0
 16 17  2  0
 17 18  1  0
 18 19  1  0
 18 20  2  0
 20 21  1  0
 21 22  1  0
 22 23  1  0
 22 24  1  0
 22 25  1  0
 21 26  2  0
 26 27  1  0
 27 28  1  0
 27 14  2  0
 26 16  1  0
M  END
>  <Binding energies>  (54) 
[-5.85]

>  <Ligand effiencies>  (54) 
[-0.18870967741935482]

>  <Interactions>  (54) 
["V-A:GLU:543:CD:4908, V-B:GLY:453:C:9013, V-B:GLY:453:CA:9015, H-B:ARG:545:NH1:9899, H-B:GLY:454:N:9021, V-B:ILE:369:CG1:8209, H-B:ARG:545:NH2:9900, H-A:GLU:543:OE2:4910, V-B:GLU:543:CB:9878, V-B:GLU:543:CG:9879, V-B:GLU:543:CD:9880, V-B:HIS:456:CD2:9039, V-A:GLY:544:C:4912, V-A:HIS:456:CD2:4068, V-A:HIS:456:CB:4065, V-A:HIS:456:CG:4066, V-A:HIS:456:CE1:4070, V-B:HIS:456:CE1:9041, V-B:GLU:543:C:9874, H-A:LYS:547:NZ:4951, H-A:GLU:543:OE1:4909, V-A:GLU:543:C:4902, V-B:TYR:484:CZ:9318, V-B:ARG:545:CZ:9898, V-A:GLU:543:CG:4907, V-B:ARG:545:CD:9895, V-B:ARG:545:CG:9894, V-A:LYS:547:CG:4948, V-A:ARG:545:C:4917, V-A:HIS:456:CA:4063, H-B:GLU:543:OE2:9882"]

$$$$
4cd_Grossjean_2025
     RDKit          3D

 29 32  0  0  0  0  0  0  0  0999 V2000
  128.9460  127.2870   63.7350 N   0  0  0  0  0  0  0  0  0  0  0  0
  129.3720  126.5930   64.8400 C   0  0  0  0  0  0  0  0  0  0  0  0
  130.1360  125.4180   64.7620 C   0  0  0  0  0  0  0  0  0  0  0  0
  130.6010  124.7080   63.5670 C   0  0  0  0  0  0  0  0  0  0  0  0
  130.1460  124.9820   62.4560 O   0  0  0  0  0  0  0  0  0  0  0  0
  131.5480  123.7620   63.7840 N   0  0  0  0  0  0  0  0  0  0  0  0
  132.1590  122.8790   62.8750 C   0  0  0  0  0  0  0  0  0  0  0  0
  131.3010  122.2300   61.9820 C   0  0  0  0  0  0  0  0  0  0  0  0
  131.8120  121.3470   61.0350 C   0  0  0  0  0  0  0  0  0  0  0  0
  133.1830  121.1170   60.9740 C   0  0  0  0  0  0  0  0  0  0  0  0
  134.0500  121.7670   61.8480 C   0  0  0  0  0  0  0  0  0  0  0  0
  133.5430  122.6510   62.7980 C   0  0  0  0  0  0  0  0  0  0  0  0
  130.5160  124.7990   66.3680 S   0  0  0  0  0  0  0  0  0  0  0  0
  129.6440  126.1090   67.1280 C   0  0  0  0  0  0  0  0  0  0  0  0
  129.5530  126.2060   68.4520 N   0  0  0  0  0  0  0  0  0  0  0  0
  128.8420  127.2520   68.9510 C   0  0  0  0  0  0  0  0  0  0  0  0
  128.7550  127.3340   70.4470 C   0  0  0  0  0  0  0  0  0  0  0  0
  129.8550  127.7630   71.2080 C   0  0  0  0  0  0  0  0  0  0  0  0
  129.7800  127.8420   72.5960 C   0  0  0  0  0  0  0  0  0  0  0  0
  128.6010  127.4930   73.2450 C   0  0  0  0  0  0  0  0  0  0  0  0
  127.4960  127.0690   72.5150 C   0  0  0  0  0  0  0  0  0  0  0  0
  127.5730  126.9930   71.1280 C   0  0  0  0  0  0  0  0  0  0  0  0
  128.2440  128.2030   68.1190 C   0  0  0  0  0  0  0  0  0  0  0  0
  128.3380  128.1110   66.7200 C   0  0  0  0  0  0  0  0  0  0  0  0
  127.6540  129.1860   65.8670 C   0  0  0  0  0  0  0  0  0  0  0  0
  127.2830  128.7430   64.6640 F   0  0  0  0  0  0  0  0  0  0  0  0
  126.5590  129.6260   66.4860 F   0  0  0  0  0  0  0  0  0  0  0  0
  128.4900  130.2070   65.6740 F   0  0  0  0  0  0  0  0  0  0  0  0
  129.0690  127.0130   66.1860 C   0  0  0  0  0  0  0  0  0  0  0  0
  1  2  1  0
  2  3  2  0
  3  4  1  0
  4  5  2  0
  4  6  1  0
  6  7  1  0
  7  8  2  0
  8  9  1  0
  9 10  2  0
 10 11  1  0
 11 12  2  0
  3 13  1  0
 13 14  1  0
 14 15  2  0
 15 16  1  0
 16 17  1  0
 17 18  2  0
 18 19  1  0
 19 20  2  0
 20 21  1  0
 21 22  2  0
 16 23  2  0
 23 24  1  0
 24 25  1  0
 25 26  1  0
 25 27  1  0
 25 28  1  0
 24 29  2  0
 29  2  1  0
 12  7  1  0
 29 14  1  0
 22 17  1  0
M  END
>  <Binding energies>  (55) 
[-7.22]

>  <Ligand effiencies>  (55) 
[-0.225625]

>  <Interactions>  (55) 
["V-B:TYR:539:CD2:9846, V-A:GLU:543:CD:4908, H-A:TYR:484:OH:4348, V-B:TYR:539:CE2:9848, V-A:LEU:475:CD2:4259, V-A:ILE:369:CD1:3239, V-A:GLY:454:CA:4049, V-A:ILE:369:CG2:3237, V-A:TYR:484:CZ:4347, H-A:GLU:543:OE2:4910, V-B:GLU:543:CB:9878, V-B:GLU:543:CG:9879, V-A:SER:385:C:3405, V-A:TYR:484:CE2:4346, V-B:GLU:543:CD:9880, H-B:GLU:543:OE1:9881, V-B:HIS:456:CD2:9039, V-B:GLY:544:C:9884, V-A:HIS:456:CE1:4070, V-B:LYS:547:CE:9922, V-B:HIS:456:CE1:9041, V-B:GLU:543:C:9874, H-A:GLU:543:OE1:4909, V-A:GLU:543:CB:4906, V-B:TYR:484:CZ:9318, V-A:GLU:543:CG:4907, V-A:SER:385:CB:3409, V-B:TYR:484:CE2:9317, H-B:GLU:543:OE2:9882"]

$$$$
4cg_Grossjean_2025
     RDKit          3D

 30 33  0  0  0  0  0  0  0  0999 V2000
  128.6680  127.2530   63.6290 N   0  0  0  0  0  0  0  0  0  0  0  0
  129.0670  126.5090   64.7100 C   0  0  0  0  0  0  0  0  0  0  0  0
  129.5670  125.2040   64.6010 C   0  0  0  0  0  0  0  0  0  0  0  0
  129.8070  124.4170   63.3910 C   0  0  0  0  0  0  0  0  0  0  0  0
  130.9490  124.2160   62.9720 O   0  0  0  0  0  0  0  0  0  0  0  0
  128.7080  123.9670   62.7500 N   0  0  0  0  0  0  0  0  0  0  0  0
  128.7100  123.1460   61.5410 C   0  0  0  0  0  0  0  0  0  0  0  0
  127.5250  123.4200   60.6210 C   0  0  0  0  0  0  0  0  0  0  0  0
  127.6660  123.2540   59.2400 C   0  0  0  0  0  0  0  0  0  0  0  0
  126.5770  123.4720   58.3990 C   0  0  0  0  0  0  0  0  0  0  0  0
  125.3510  123.8470   58.9420 C   0  0  0  0  0  0  0  0  0  0  0  0
  125.2000  123.9990   60.3190 C   0  0  0  0  0  0  0  0  0  0  0  0
  126.2870  123.7780   61.1600 C   0  0  0  0  0  0  0  0  0  0  0  0
  130.0030  124.5490   66.1770 S   0  0  0  0  0  0  0  0  0  0  0  0
  129.4900  126.0180   66.9740 C   0  0  0  0  0  0  0  0  0  0  0  0
  129.5730  126.1560   68.2940 N   0  0  0  0  0  0  0  0  0  0  0  0
  129.1550  127.3340   68.8250 C   0  0  0  0  0  0  0  0  0  0  0  0
  129.2590  127.4580   70.3190 C   0  0  0  0  0  0  0  0  0  0  0  0
  128.2170  127.0220   71.1530 C   0  0  0  0  0  0  0  0  0  0  0  0
  128.3080  127.1350   72.5370 C   0  0  0  0  0  0  0  0  0  0  0  0
  129.4480  127.6910   73.1100 C   0  0  0  0  0  0  0  0  0  0  0  0
  130.4940  128.1340   72.3080 C   0  0  0  0  0  0  0  0  0  0  0  0
  130.3980  128.0180   70.9250 C   0  0  0  0  0  0  0  0  0  0  0  0
  128.6390  128.3620   68.0270 C   0  0  0  0  0  0  0  0  0  0  0  0
  128.5470  128.2270   66.6330 C   0  0  0  0  0  0  0  0  0  0  0  0
  127.9710  129.3910   65.8180 C   0  0  0  0  0  0  0  0  0  0  0  0
  128.4880  129.4770   64.5910 F   0  0  0  0  0  0  0  0  0  0  0  0
  126.6530  129.2400   65.6870 F   0  0  0  0  0  0  0  0  0  0  0  0
  128.2220  130.5420   66.4380 F   0  0  0  0  0  0  0  0  0  0  0  0
  128.9960  126.9990   66.0650 C   0  0  0  0  0  0  0  0  0  0  0  0
  1  2  1  0
  2  3  2  0
  3  4  1  0
  4  5  2  0
  4  6  1  0
  6  7  1  0
  7  8  1  0
  8  9  2  0
  9 10  1  0
 10 11  2  0
 11 12  1  0
 12 13  2  0
  3 14  1  0
 14 15  1  0
 15 16  2  0
 16 17  1  0
 17 18  1  0
 18 19  2  0
 19 20  1  0
 20 21  2  0
 21 22  1  0
 22 23  2  0
 17 24  2  0
 24 25  1  0
 25 26  1  0
 26 27  1  0
 26 28  1  0
 26 29  1  0
 25 30  2  0
 30  2  1  0
 13  8  1  0
 30 15  1  0
 23 18  1  0
M  END
>  <Binding energies>  (56) 
[-7.58]

>  <Ligand effiencies>  (56) 
[-0.2296969696969697]

>  <Interactions>  (56) 
["V-B:PRO:540:N:9856, V-A:GLU:543:CD:4908, V-B:PRO:540:CB:9857, V-B:PRO:540:CA:9855, V-A:TYR:484:CZ:4347, H-A:GLU:543:OE2:4910, V-B:GLU:543:CB:9878, V-B:GLU:543:CG:9879, V-A:TYR:484:CE2:4346, V-B:GLU:543:CD:9880, H-B:GLU:543:OE1:9881, V-A:GLY:544:C:4912, V-A:HIS:456:CE1:4070, V-B:HIS:456:CE1:9041, H-A:GLU:543:OE1:4909, V-A:GLU:543:CB:4906, V-A:GLU:543:C:4902, V-B:TYR:484:CZ:9318, V-A:GLU:543:CG:4907, V-A:GLU:543:CA:4904, V-B:TYR:484:CE2:9317, H-B:GLU:543:OE2:9882"]

$$$$
4ch_Grossjean_2025
     RDKit          3D

 36 39  0  0  0  0  0  0  0  0999 V2000
  133.8270  124.1330   60.4100 C   0  0  0  0  0  0  0  0  0  0  0  0
  133.1950  123.0400   59.7520 O   0  0  0  0  0  0  0  0  0  0  0  0
  132.0220  122.5230   60.2690 C   0  0  0  0  0  0  0  0  0  0  0  0
  130.8700  123.2870   60.5160 C   0  0  0  0  0  0  0  0  0  0  0  0
  129.7180  122.6970   61.0390 C   0  0  0  0  0  0  0  0  0  0  0  0
  128.4860  123.5480   61.3260 C   0  0  0  0  0  0  0  0  0  0  0  0
  128.5450  124.2840   62.5890 N   0  0  0  0  0  0  0  0  0  0  0  0
  129.6690  124.5700   63.2790 C   0  0  0  0  0  0  0  0  0  0  0  0
  130.7910  124.2500   62.8790 O   0  0  0  0  0  0  0  0  0  0  0  0
  129.4860  125.3210   64.5210 C   0  0  0  0  0  0  0  0  0  0  0  0
  129.9220  124.5930   66.0640 S   0  0  0  0  0  0  0  0  0  0  0  0
  129.4570  126.0400   66.9270 C   0  0  0  0  0  0  0  0  0  0  0  0
  129.5530  126.1200   68.2510 N   0  0  0  0  0  0  0  0  0  0  0  0
  129.1740  127.2870   68.8340 C   0  0  0  0  0  0  0  0  0  0  0  0
  129.2890  127.3420   70.3310 C   0  0  0  0  0  0  0  0  0  0  0  0
  130.4770  127.7700   70.9450 C   0  0  0  0  0  0  0  0  0  0  0  0
  130.5910  127.8230   72.3320 C   0  0  0  0  0  0  0  0  0  0  0  0
  129.5140  127.4470   73.1270 C   0  0  0  0  0  0  0  0  0  0  0  0
  128.3260  127.0150   72.5450 C   0  0  0  0  0  0  0  0  0  0  0  0
  128.2180  126.9620   71.1580 C   0  0  0  0  0  0  0  0  0  0  0  0
  128.6830  128.3610   68.0850 C   0  0  0  0  0  0  0  0  0  0  0  0
  128.5760  128.2870   66.6860 C   0  0  0  0  0  0  0  0  0  0  0  0
  128.0300  129.5010   65.9270 C   0  0  0  0  0  0  0  0  0  0  0  0
  128.5970  129.6690   64.7300 F   0  0  0  0  0  0  0  0  0  0  0  0
  126.7200  129.3590   65.7310 F   0  0  0  0  0  0  0  0  0  0  0  0
  128.2510  130.6110   66.6310 F   0  0  0  0  0  0  0  0  0  0  0  0
  128.9840  127.0720   66.0650 C   0  0  0  0  0  0  0  0  0  0  0  0
  129.0230  126.6350   64.6900 C   0  0  0  0  0  0  0  0  0  0  0  0
  128.6320  127.4320   63.6450 N   0  0  0  0  0  0  0  0  0  0  0  0
  129.7180  121.3340   61.3370 C   0  0  0  0  0  0  0  0  0  0  0  0
  130.8560  120.5460   61.1020 C   0  0  0  0  0  0  0  0  0  0  0  0
  130.9250  119.1920   61.3720 O   0  0  0  0  0  0  0  0  0  0  0  0
  129.7490  118.4980   61.7740 C   0  0  0  0  0  0  0  0  0  0  0  0
  132.0000  121.1520   60.5620 C   0  0  0  0  0  0  0  0  0  0  0  0
  133.1250  120.3960   60.3420 O   0  0  0  0  0  0  0  0  0  0  0  0
  133.1280  119.7110   59.0960 C   0  0  0  0  0  0  0  0  0  0  0  0
  1  2  1  0
  2  3  1  0
  3  4  2  0
  4  5  1  0
  5  6  1  0
  6  7  1  0
  7  8  1  0
  8  9  2  0
  8 10  1  0
 10 11  1  0
 11 12  1  0
 12 13  2  0
 13 14  1  0
 14 15  1  0
 15 16  2  0
 16 17  1  0
 17 18  2  0
 18 19  1  0
 19 20  2  0
 14 21  2  0
 21 22  1  0
 22 23  1  0
 23 24  1  0
 23 25  1  0
 23 26  1  0
 22 27  2  0
 27 28  1  0
 28 29  1  0
  5 30  2  0
 30 31  1  0
 31 32  1  0
 32 33  1  0
 31 34  2  0
 34 35  1  0
 35 36  1  0
 34  3  1  0
 28 10  2  0
 27 12  1  0
 20 15  1  0
M  END
>  <Binding energies>  (57) 
[-6.8]

>  <Ligand effiencies>  (57) 
[-0.17435897435897435]

>  <Interactions>  (57) 
["V-B:TYR:539:CD2:9846, V-A:GLU:543:CD:4908, V-B:TYR:539:CE2:9848, V-A:LEU:475:CD2:4259, V-A:ILE:369:CD1:3239, V-A:ASP:366:CG:3213, V-A:ILE:369:CG2:3237, V-A:TYR:484:CZ:4347, H-A:GLU:543:OE2:4910, V-B:GLU:543:CB:9878, V-B:GLU:543:CG:9879, V-A:TYR:484:CE2:4346, V-B:GLU:543:CD:9880, H-B:GLU:543:OE1:9881, V-B:ALA:541:CB:9864, V-A:ASP:366:CA:3210, V-A:GLY:544:C:4912, V-A:HIS:456:CE1:4070, V-B:HIS:456:CE1:9041, H-A:GLU:543:OE1:4909, V-A:GLU:543:CB:4906, V-B:TYR:484:CZ:9318, V-A:GLU:543:CG:4907, V-A:PRO:482:CB:4326, H-A:HIS:383:HE2:3395, V-A:SER:385:CA:3407, V-A:LEU:475:CD1:4258, H-A:SER:385:OG:3410, V-A:SER:385:CB:3409, V-A:LEU:475:CG:4257, V-A:GLU:543:CA:4904, V-B:TYR:484:CE2:9317, H-B:GLU:543:OE2:9882"]

$$$$
4cj_Grossjean_2025
     RDKit          3D

 28 31  0  0  0  0  0  0  0  0999 V2000
  129.0770  127.2010   63.8610 N   0  0  0  0  0  0  0  0  0  0  0  0
  129.5250  126.5730   64.9950 C   0  0  0  0  0  0  0  0  0  0  0  0
  130.3880  125.4650   64.9710 C   0  0  0  0  0  0  0  0  0  0  0  0
  130.9700  124.7860   63.8110 C   0  0  0  0  0  0  0  0  0  0  0  0
  130.6260  125.0860   62.6650 O   0  0  0  0  0  0  0  0  0  0  0  0
  131.8820  123.8230   64.0970 N   0  0  0  0  0  0  0  0  0  0  0  0
  132.5760  123.0370   63.1880 C   0  0  0  0  0  0  0  0  0  0  0  0
  133.8770  122.8560   63.1050 N   0  0  0  0  0  0  0  0  0  0  0  0
  134.1910  122.0380   62.1200 C   0  0  0  0  0  0  0  0  0  0  0  0
  133.1280  121.5330   61.3760 C   0  0  0  0  0  0  0  0  0  0  0  0
  131.6400  122.1710   62.0110 S   0  0  0  0  0  0  0  0  0  0  0  0
  130.7700  124.9200   66.6030 S   0  0  0  0  0  0  0  0  0  0  0  0
  129.7720  126.1720   67.3020 C   0  0  0  0  0  0  0  0  0  0  0  0
  129.6420  126.3010   68.6200 N   0  0  0  0  0  0  0  0  0  0  0  0
  128.8520  127.3090   69.0720 C   0  0  0  0  0  0  0  0  0  0  0  0
  128.7380  127.4340   70.5640 C   0  0  0  0  0  0  0  0  0  0  0  0
  127.5870  126.9920   71.2360 C   0  0  0  0  0  0  0  0  0  0  0  0
  127.4720  127.1100   72.6190 C   0  0  0  0  0  0  0  0  0  0  0  0
  128.5100  127.6770   73.3520 C   0  0  0  0  0  0  0  0  0  0  0  0
  129.6590  128.1250   72.7110 C   0  0  0  0  0  0  0  0  0  0  0  0
  129.7700  128.0030   71.3290 C   0  0  0  0  0  0  0  0  0  0  0  0
  128.1770  128.1660   68.1980 C   0  0  0  0  0  0  0  0  0  0  0  0
  128.3050  128.0390   66.8060 C   0  0  0  0  0  0  0  0  0  0  0  0
  127.5390  129.0150   65.9050 C   0  0  0  0  0  0  0  0  0  0  0  0
  127.3150  128.5330   64.6810 F   0  0  0  0  0  0  0  0  0  0  0  0
  126.3550  129.2930   66.4480 F   0  0  0  0  0  0  0  0  0  0  0  0
  128.2360  130.1430   65.7680 F   0  0  0  0  0  0  0  0  0  0  0  0
  129.1470  126.9970   66.3210 C   0  0  0  0  0  0  0  0  0  0  0  0
  1  2  1  0
  2  3  2  0
  3  4  1  0
  4  5  2  0
  4  6  1  0
  6  7  1  0
  7  8  2  0
  8  9  1  0
  9 10  2  0
 10 11  1  0
  3 12  1  0
 12 13  1  0
 13 14  2  0
 14 15  1  0
 15 16  1  0
 16 17  2  0
 17 18  1  0
 18 19  2  0
 19 20  1  0
 20 21  2  0
 15 22  2  0
 22 23  1  0
 23 24  1  0
 24 25  1  0
 24 26  1  0
 24 27  1  0
 23 28  2  0
 28  2  1  0
 11  7  1  0
 28 13  1  0
 21 16  1  0
M  END
>  <Binding energies>  (58) 
[-6.93]

>  <Ligand effiencies>  (58) 
[-0.2235483870967742]

>  <Interactions>  (58) 
["V-A:GLU:543:CD:4908, H-A:GLY:454:N:4050, H-A:TYR:484:OH:4348, V-A:LEU:475:CD2:4259, V-A:ILE:369:CD1:3239, V-A:GLY:454:CA:4049, V-A:ILE:369:CG2:3237, V-A:TYR:484:CZ:4347, H-A:GLU:543:OE2:4910, V-B:GLU:543:CB:9878, V-B:GLU:543:CG:9879, V-A:SER:385:C:3405, V-A:TYR:484:CE2:4346, V-B:GLU:543:CD:9880, H-B:GLU:543:OE1:9881, V-B:HIS:456:CD2:9039, V-B:GLY:544:C:9884, V-A:HIS:456:CE1:4070, V-B:LYS:547:CE:9922, V-B:HIS:456:CE1:9041, V-B:GLU:543:C:9874, H-A:GLU:543:OE1:4909, V-A:GLU:543:CB:4906, V-B:TYR:484:CZ:9318, V-A:GLU:543:CG:4907, V-B:TYR:484:CE2:9317, H-B:GLU:543:OE2:9882"]

$$$$
4ck_Grossjean_2025
     RDKit          3D

 33 35  0  0  0  0  0  0  0  0999 V2000
  124.4960  123.6360   61.6980 C   0  0  0  0  0  0  0  0  0  0  0  0
  125.6390  122.9050   62.1160 O   0  0  0  0  0  0  0  0  0  0  0  0
  126.8480  123.3610   61.5260 C   0  0  0  0  0  0  0  0  0  0  0  0
  128.0160  123.0440   62.4680 C   0  0  0  0  0  0  0  0  0  0  0  0
  128.7570  121.9540   61.9380 O   0  0  0  0  0  0  0  0  0  0  0  0
  129.2800  122.2010   60.6400 C   0  0  0  0  0  0  0  0  0  0  0  0
  129.9510  123.5810   60.6230 C   0  0  0  0  0  0  0  0  0  0  0  0
  131.3600  123.4040   60.6840 O   0  0  0  0  0  0  0  0  0  0  0  0
  132.0910  124.6230   60.7050 C   0  0  0  0  0  0  0  0  0  0  0  0
  132.9430  124.6900   61.9820 C   0  0  0  0  0  0  0  0  0  0  0  0
  132.1820  125.1930   63.1260 N   0  0  0  0  0  0  0  0  0  0  0  0
  131.2280  124.5160   63.7990 C   0  0  0  0  0  0  0  0  0  0  0  0
  130.9140  123.3570   63.5230 O   0  0  0  0  0  0  0  0  0  0  0  0
  130.5860  125.2390   64.8980 C   0  0  0  0  0  0  0  0  0  0  0  0
  130.8770  124.7520   66.5660 S   0  0  0  0  0  0  0  0  0  0  0  0
  129.8780  126.0550   67.1650 C   0  0  0  0  0  0  0  0  0  0  0  0
  129.6840  126.2390   68.4690 N   0  0  0  0  0  0  0  0  0  0  0  0
  128.8900  127.2770   68.8400 C   0  0  0  0  0  0  0  0  0  0  0  0
  128.7070  127.4680   70.3180 C   0  0  0  0  0  0  0  0  0  0  0  0
  127.5600  126.9880   70.9690 C   0  0  0  0  0  0  0  0  0  0  0  0
  127.3830  127.1650   72.3390 C   0  0  0  0  0  0  0  0  0  0  0  0
  128.3550  127.8260   73.0810 C   0  0  0  0  0  0  0  0  0  0  0  0
  129.5050  128.3070   72.4620 C   0  0  0  0  0  0  0  0  0  0  0  0
  129.6780  128.1270   71.0920 C   0  0  0  0  0  0  0  0  0  0  0  0
  128.3020  128.1300   67.9010 C   0  0  0  0  0  0  0  0  0  0  0  0
  128.4990  127.9440   66.5230 C   0  0  0  0  0  0  0  0  0  0  0  0
  127.8200  128.9150   65.5480 C   0  0  0  0  0  0  0  0  0  0  0  0
  128.5920  129.9520   65.2200 F   0  0  0  0  0  0  0  0  0  0  0  0
  127.5090  128.2760   64.4200 F   0  0  0  0  0  0  0  0  0  0  0  0
  126.7090  129.4020   66.0990 F   0  0  0  0  0  0  0  0  0  0  0  0
  129.3270  126.8570   66.1230 C   0  0  0  0  0  0  0  0  0  0  0  0
  129.7580  126.3700   64.8340 C   0  0  0  0  0  0  0  0  0  0  0  0
  129.3840  126.9600   63.6540 N   0  0  0  0  0  0  0  0  0  0  0  0
  1  2  1  0
  2  3  1  0
  3  4  1  0
  4  5  1  0
  5  6  1  0
  6  7  1  0
  7  8  1  0
  8  9  1  0
  9 10  1  0
 10 11  1  0
 11 12  1  0
 12 13  2  0
 12 14  1  0
 14 15  1  0
 15 16  1  0
 16 17  2  0
 17 18  1  0
 18 19  1  0
 19 20  2  0
 20 21  1  0
 21 22  2  0
 22 23  1  0
 23 24  2  0
 18 25  2  0
 25 26  1  0
 26 27  1  0
 27 28  1  0
 27 29  1  0
 27 30  1  0
 26 31  2  0
 31 32  1  0
 32 33  1  0
 32 14  2  0
 31 16  1  0
 24 19  1  0
M  END
>  <Binding energies>  (59) 
[-5.96]

>  <Ligand effiencies>  (59) 
[-0.16555555555555557]

>  <Interactions>  (59) 
["V-B:TYR:539:CD2:9846, V-A:GLU:543:CD:4908, V-B:PRO:540:CB:9857, V-B:TYR:539:CE2:9848, V-A:ARG:545:CZ:4926, V-B:PRO:540:CA:9855, H-B:ALA:541:N:9863, V-B:ASN:362:CB:8147, V-A:TYR:484:CZ:4347, H-A:GLU:543:OE2:4910, V-B:GLU:543:CB:9878, V-B:GLU:543:CG:9879, V-A:TYR:484:CE2:4346, V-B:GLU:543:CD:9880, H-B:GLU:543:OE1:9881, V-B:ALA:541:CB:9864, V-B:HIS:456:CD2:9039, V-B:GLY:544:C:9884, V-B:HIS:456:CG:9037, V-A:HIS:456:CE1:4070, V-B:LYS:547:CE:9922, V-B:HIS:456:CE1:9041, V-B:GLU:543:C:9874, H-A:GLU:543:OE1:4909, V-A:GLU:543:CB:4906, V-B:TYR:484:CZ:9318, V-A:GLU:543:CG:4907, H-A:ASP:366:OD1:3214, H-B:GLU:543:OE2:9882"]

$$$$
4dd_Grossjean_2025
     RDKit          3D

 26 29  0  0  0  0  0  0  0  0999 V2000
  127.6530  129.1440   65.9720 C   0  0  0  0  0  0  0  0  0  0  0  0
  128.3480  128.0910   66.8210 C   0  0  0  0  0  0  0  0  0  0  0  0
  128.2570  128.2010   68.2140 C   0  0  0  0  0  0  0  0  0  0  0  0
  128.8740  127.2640   69.0520 C   0  0  0  0  0  0  0  0  0  0  0  0
  128.7980  127.3600   70.5470 C   0  0  0  0  0  0  0  0  0  0  0  0
  129.8810  127.8510   71.2930 C   0  0  0  0  0  0  0  0  0  0  0  0
  129.8160  127.9460   72.6810 C   0  0  0  0  0  0  0  0  0  0  0  0
  128.6620  127.5480   73.3450 C   0  0  0  0  0  0  0  0  0  0  0  0
  127.5730  127.0590   72.6320 C   0  0  0  0  0  0  0  0  0  0  0  0
  127.6410  126.9680   71.2440 C   0  0  0  0  0  0  0  0  0  0  0  0
  129.5940  126.2210   68.5560 N   0  0  0  0  0  0  0  0  0  0  0  0
  129.6760  126.1110   67.2310 C   0  0  0  0  0  0  0  0  0  0  0  0
  130.5530  124.8090   66.4600 S   0  0  0  0  0  0  0  0  0  0  0  0
  130.1460  125.4220   64.8550 C   0  0  0  0  0  0  0  0  0  0  0  0
  130.6030  124.7180   63.6550 C   0  0  0  0  0  0  0  0  0  0  0  0
  130.1550  125.0120   62.5460 O   0  0  0  0  0  0  0  0  0  0  0  0
  131.5330  123.7550   63.8650 N   0  0  0  0  0  0  0  0  0  0  0  0
  132.1310  122.8710   62.9490 C   0  0  0  0  0  0  0  0  0  0  0  0
  131.2620  122.2350   62.0580 C   0  0  0  0  0  0  0  0  0  0  0  0
  131.7590  121.3520   61.1030 C   0  0  0  0  0  0  0  0  0  0  0  0
  133.1280  121.1100   61.0330 C   0  0  0  0  0  0  0  0  0  0  0  0
  134.0060  121.7460   61.9060 C   0  0  0  0  0  0  0  0  0  0  0  0
  133.5130  122.6290   62.8630 C   0  0  0  0  0  0  0  0  0  0  0  0
  129.3690  126.5880   64.9420 C   0  0  0  0  0  0  0  0  0  0  0  0
  128.9120  127.2840   63.8500 N   0  0  0  0  0  0  0  0  0  0  0  0
  129.0840  127.0010   66.2900 C   0  0  0  0  0  0  0  0  0  0  0  0
  1  2  1  0
  2  3  2  0
  3  4  1  0
  4  5  1  0
  5  6  2  0
  6  7  1  0
  7  8  2  0
  8  9  1  0
  9 10  2  0
  4 11  2  0
 11 12  1  0
 12 13  1  0
 13 14  1  0
 14 15  1  0
 15 16  2  0
 15 17  1  0
 17 18  1  0
 18 19  2  0
 19 20  1  0
 20 21  2  0
 21 22  1  0
 22 23  2  0
 14 24  2  0
 24 25  1  0
 24 26  1  0
 26  2  1  0
 10  5  1  0
 26 12  2  0
 23 18  1  0
M  END
>  <Binding energies>  (60) 
[-7.17]

>  <Ligand effiencies>  (60) 
[-0.24724137931034482]

>  <Interactions>  (60) 
["V-B:TYR:539:CD2:9846, V-A:GLU:543:CD:4908, H-A:TYR:484:OH:4348, V-B:TYR:539:CE2:9848, V-A:LEU:475:CD2:4259, V-A:ILE:369:CD1:3239, V-A:GLY:454:CA:4049, V-A:ILE:369:CG2:3237, V-A:TYR:484:CZ:4347, V-B:GLU:543:CB:9878, V-B:GLU:543:CG:9879, V-A:SER:385:C:3405, V-A:TYR:484:CE2:4346, V-B:GLU:543:CD:9880, H-B:GLU:543:OE1:9881, V-B:HIS:456:CD2:9039, V-B:GLY:544:C:9884, V-A:HIS:456:CE1:4070, V-B:LYS:547:CE:9922, V-B:HIS:456:CE1:9041, V-B:GLU:543:C:9874, H-A:GLU:543:OE1:4909, V-A:GLU:543:CB:4906, V-A:GLU:543:CG:4907, V-A:SER:385:CB:3409, H-B:GLU:543:OE2:9882"]

$$$$
4dg_Grossjean_2025
     RDKit          3D

 27 30  0  0  0  0  0  0  0  0999 V2000
  127.9230  129.3550   65.8580 C   0  0  0  0  0  0  0  0  0  0  0  0
  128.5250  128.2180   66.6700 C   0  0  0  0  0  0  0  0  0  0  0  0
  128.6120  128.3730   68.0590 C   0  0  0  0  0  0  0  0  0  0  0  0
  129.1560  127.3630   68.8630 C   0  0  0  0  0  0  0  0  0  0  0  0
  129.2620  127.5000   70.3560 C   0  0  0  0  0  0  0  0  0  0  0  0
  128.2220  127.0670   71.1950 C   0  0  0  0  0  0  0  0  0  0  0  0
  128.3140  127.1960   72.5790 C   0  0  0  0  0  0  0  0  0  0  0  0
  129.4500  127.7600   73.1460 C   0  0  0  0  0  0  0  0  0  0  0  0
  130.4940  128.2010   72.3380 C   0  0  0  0  0  0  0  0  0  0  0  0
  130.3980  128.0720   70.9560 C   0  0  0  0  0  0  0  0  0  0  0  0
  129.6010  126.1900   68.3380 N   0  0  0  0  0  0  0  0  0  0  0  0
  129.5190  126.0410   67.0160 C   0  0  0  0  0  0  0  0  0  0  0  0
  130.0620  124.5860   66.2130 S   0  0  0  0  0  0  0  0  0  0  0  0
  129.6010  125.2320   64.6380 C   0  0  0  0  0  0  0  0  0  0  0  0
  129.8490  124.4560   63.4250 C   0  0  0  0  0  0  0  0  0  0  0  0
  130.9920  124.1420   63.0860 O   0  0  0  0  0  0  0  0  0  0  0  0
  128.7600  124.1440   62.6910 N   0  0  0  0  0  0  0  0  0  0  0  0
  128.7670  123.3590   61.4570 C   0  0  0  0  0  0  0  0  0  0  0  0
  127.5300  123.5780   60.5930 C   0  0  0  0  0  0  0  0  0  0  0  0
  127.6270  123.4750   59.2020 C   0  0  0  0  0  0  0  0  0  0  0  0
  126.4930  123.6430   58.4130 C   0  0  0  0  0  0  0  0  0  0  0  0
  125.2640  123.9020   59.0160 C   0  0  0  0  0  0  0  0  0  0  0  0
  125.1570  123.9890   60.4020 C   0  0  0  0  0  0  0  0  0  0  0  0
  126.2910  123.8200   61.1930 C   0  0  0  0  0  0  0  0  0  0  0  0
  129.0670  126.5240   64.7530 C   0  0  0  0  0  0  0  0  0  0  0  0
  128.6390  127.2710   63.6850 N   0  0  0  0  0  0  0  0  0  0  0  0
  128.9990  127.0050   66.1070 C   0  0  0  0  0  0  0  0  0  0  0  0
  1  2  1  0
  2  3  2  0
  3  4  1  0
  4  5  1  0
  5  6  2  0
  6  7  1  0
  7  8  2  0
  8  9  1  0
  9 10  2  0
  4 11  2  0
 11 12  1  0
 12 13  1  0
 13 14  1  0
 14 15  1  0
 15 16  2  0
 15 17  1  0
 17 18  1  0
 18 19  1  0
 19 20  2  0
 20 21  1  0
 21 22  2  0
 22 23  1  0
 23 24  2  0
 14 25  2  0
 25 26  1  0
 25 27  1  0
 27  2  1  0
 10  5  1  0
 27 12  2  0
 24 19  1  0
M  END
>  <Binding energies>  (61) 
[-7.79]

>  <Ligand effiencies>  (61) 
[-0.25966666666666666]

>  <Interactions>  (61) 
["V-A:GLU:543:CD:4908, V-B:PRO:540:CB:9857, V-B:PRO:540:CA:9855, V-A:TYR:484:CZ:4347, H-A:GLU:543:OE2:4910, V-B:GLU:543:CB:9878, V-B:GLU:543:CG:9879, V-A:TYR:484:CE2:4346, V-B:GLU:543:CD:9880, H-B:GLU:543:OE1:9881, V-A:GLY:544:C:4912, V-A:HIS:456:CE1:4070, V-B:HIS:456:CE1:9041, H-A:GLU:543:OE1:4909, V-A:GLU:543:CB:4906, V-A:GLU:543:C:4902, V-A:GLU:543:CG:4907, H-B:GLU:543:OE2:9882"]

$$$$
4dj_Grossjean_2025
     RDKit          3D

 25 28  0  0  0  0  0  0  0  0999 V2000
  127.9460  129.4660   65.9540 C   0  0  0  0  0  0  0  0  0  0  0  0
  128.5250  128.3210   66.7700 C   0  0  0  0  0  0  0  0  0  0  0  0
  128.5870  128.4660   68.1610 C   0  0  0  0  0  0  0  0  0  0  0  0
  129.1110  127.4500   68.9690 C   0  0  0  0  0  0  0  0  0  0  0  0
  129.1840  127.5760   70.4640 C   0  0  0  0  0  0  0  0  0  0  0  0
  128.0810  127.2490   71.2700 C   0  0  0  0  0  0  0  0  0  0  0  0
  128.1420  127.3640   72.6560 C   0  0  0  0  0  0  0  0  0  0  0  0
  129.3120  127.8140   73.2590 C   0  0  0  0  0  0  0  0  0  0  0  0
  130.4190  128.1480   72.4860 C   0  0  0  0  0  0  0  0  0  0  0  0
  130.3530  128.0310   71.1010 C   0  0  0  0  0  0  0  0  0  0  0  0
  129.5640  126.2780   68.4460 N   0  0  0  0  0  0  0  0  0  0  0  0
  129.5080  126.1380   67.1220 C   0  0  0  0  0  0  0  0  0  0  0  0
  130.0640  124.6880   66.3170 S   0  0  0  0  0  0  0  0  0  0  0  0
  129.6350  125.3450   64.7360 C   0  0  0  0  0  0  0  0  0  0  0  0
  129.8750  124.5650   63.5210 C   0  0  0  0  0  0  0  0  0  0  0  0
  131.0230  124.3590   63.1200 O   0  0  0  0  0  0  0  0  0  0  0  0
  128.7640  124.1100   62.8910 N   0  0  0  0  0  0  0  0  0  0  0  0
  128.7140  123.3550   61.7280 C   0  0  0  0  0  0  0  0  0  0  0  0
  129.2960  122.1980   61.4900 N   0  0  0  0  0  0  0  0  0  0  0  0
  129.0310  121.7640   60.2730 C   0  0  0  0  0  0  0  0  0  0  0  0
  128.2150  122.5770   59.4930 C   0  0  0  0  0  0  0  0  0  0  0  0
  127.7750  123.9850   60.4130 S   0  0  0  0  0  0  0  0  0  0  0  0
  129.0910  126.6330   64.8540 C   0  0  0  0  0  0  0  0  0  0  0  0
  128.6730  127.3860   63.7860 N   0  0  0  0  0  0  0  0  0  0  0  0
  129.0050  127.1090   66.2090 C   0  0  0  0  0  0  0  0  0  0  0  0
  1  2  1  0
  2  3  2  0
  3  4  1  0
  4  5  1  0
  5  6  2  0
  6  7  1  0
  7  8  2  0
  8  9  1  0
  9 10  2  0
  4 11  2  0
 11 12  1  0
 12 13  1  0
 13 14  1  0
 14 15  1  0
 15 16  2  0
 15 17  1  0
 17 18  1  0
 18 19  2  0
 19 20  1  0
 20 21  2  0
 21 22  1  0
 14 23  2  0
 23 24  1  0
 23 25  1  0
 25  2  1  0
 10  5  1  0
 25 12  2  0
 22 18  1  0
M  END
>  <Binding energies>  (62) 
[-6.96]

>  <Ligand effiencies>  (62) 
[-0.24857142857142858]

>  <Interactions>  (62) 
["V-B:PRO:540:N:9856, V-B:TYR:539:CD2:9846, V-A:GLU:543:CD:4908, V-B:TYR:539:CE2:9848, V-B:PRO:540:CA:9855, V-A:TYR:484:CZ:4347, H-A:GLU:543:OE2:4910, V-B:GLU:543:CB:9878, V-B:GLU:543:CG:9879, V-A:TYR:484:CE2:4346, V-B:GLU:543:CD:9880, H-B:GLU:543:OE1:9881, V-B:HIS:456:CD2:9039, V-A:GLY:544:C:4912, V-A:HIS:456:CE1:4070, V-B:HIS:456:CE1:9041, H-A:GLU:543:OE1:4909, V-A:GLU:543:CB:4906, V-A:GLU:543:C:4902, V-A:GLU:543:CG:4907, V-B:TYR:539:C:9839, H-B:GLU:543:OE2:9882"]

$$$$
4ea_Grossjean_2025
     RDKit          3D

 31 34  0  0  0  0  0  0  0  0999 V2000
  129.7550  131.7090   73.3880 C   0  0  0  0  0  0  0  0  0  0  0  0
  129.0520  130.3480   73.3590 C   0  0  0  0  0  0  0  0  0  0  0  0
  130.0200  129.3200   73.1910 O   0  0  0  0  0  0  0  0  0  0  0  0
  129.6460  128.0390   72.9430 C   0  0  0  0  0  0  0  0  0  0  0  0
  129.3370  127.2370   73.8300 O   0  0  0  0  0  0  0  0  0  0  0  0
  129.6470  127.6930   71.4820 C   0  0  0  0  0  0  0  0  0  0  0  0
  130.7480  128.0540   70.6950 C   0  0  0  0  0  0  0  0  0  0  0  0
  130.7800  127.7480   69.3380 C   0  0  0  0  0  0  0  0  0  0  0  0
  129.7140  127.0760   68.7390 C   0  0  0  0  0  0  0  0  0  0  0  0
  129.8560  126.8200   67.3610 N   0  0  0  0  0  0  0  0  0  0  0  0
  130.0130  125.6480   66.6970 C   0  0  0  0  0  0  0  0  0  0  0  0
  130.0590  124.5440   67.2400 O   0  0  0  0  0  0  0  0  0  0  0  0
  130.1300  125.7670   65.2410 C   0  0  0  0  0  0  0  0  0  0  0  0
  129.2840  127.0550   64.3790 S   0  0  0  0  0  0  0  0  0  0  0  0
  129.9130  126.5060   62.8430 C   0  0  0  0  0  0  0  0  0  0  0  0
  129.6130  127.1220   61.6980 N   0  0  0  0  0  0  0  0  0  0  0  0
  130.1660  126.5970   60.5770 C   0  0  0  0  0  0  0  0  0  0  0  0
  129.8110  127.3120   59.2860 C   0  0  0  0  0  0  0  0  0  0  0  0
  131.0030  125.4840   60.5730 C   0  0  0  0  0  0  0  0  0  0  0  0
  131.3160  124.8420   61.7760 C   0  0  0  0  0  0  0  0  0  0  0  0
  132.2070  123.6600   61.7570 C   0  0  0  0  0  0  0  0  0  0  0  0
  131.7250  122.4230   61.3160 C   0  0  0  0  0  0  0  0  0  0  0  0
  132.5630  121.3110   61.2950 C   0  0  0  0  0  0  0  0  0  0  0  0
  133.8840  121.4360   61.7190 C   0  0  0  0  0  0  0  0  0  0  0  0
  134.3730  122.6620   62.1650 C   0  0  0  0  0  0  0  0  0  0  0  0
  133.5330  123.7720   62.1850 C   0  0  0  0  0  0  0  0  0  0  0  0
  130.7550  125.3610   62.9760 C   0  0  0  0  0  0  0  0  0  0  0  0
  130.8610  124.9600   64.3550 C   0  0  0  0  0  0  0  0  0  0  0  0
  131.6150  123.8840   64.7480 N   0  0  0  0  0  0  0  0  0  0  0  0
  128.6060  126.7100   69.5190 C   0  0  0  0  0  0  0  0  0  0  0  0
  128.5770  127.0170   70.8770 C   0  0  0  0  0  0  0  0  0  0  0  0
  1  2  1  0
  2  3  1  0
  3  4  1  0
  4  5  2  0
  4  6  1  0
  6  7  2  0
  7  8  1  0
  8  9  2  0
  9 10  1  0
 10 11  1  0
 11 12  2  0
 11 13  1  0
 13 14  1  0
 14 15  1  0
 15 16  2  0
 16 17  1  0
 17 18  1  0
 17 19  2  0
 19 20  1  0
 20 21  1  0
 21 22  2  0
 22 23  1  0
 23 24  2  0
 24 25  1  0
 25 26  2  0
 20 27  2  0
 27 28  1  0
 28 29  1  0
  9 30  1  0
 30 31  2  0
 31  6  1  0
 28 13  2  0
 27 15  1  0
 26 21  1  0
M  END
>  <Binding energies>  (63) 
[-7.68]

>  <Ligand effiencies>  (63) 
[-0.22588235294117645]

>  <Interactions>  (63) 
["V-A:GLU:543:CD:4908, H-A:TYR:484:OH:4348, V-B:TYR:539:CE2:9848, V-A:LEU:475:CD2:4259, V-A:ILE:369:CD1:3239, V-A:GLY:454:CA:4049, V-A:ILE:369:CG2:3237, V-A:TYR:484:CZ:4347, H-A:GLU:543:OE2:4910, V-B:GLU:543:CB:9878, V-B:GLU:543:CG:9879, V-A:SER:385:C:3405, V-A:TYR:484:CE2:4346, V-B:GLU:543:CD:9880, V-B:HIS:456:CD2:9039, V-A:GLY:544:C:4912, V-A:LYS:547:CE:4950, V-A:HIS:456:CE1:4070, H-B:LYS:547:NZ:9923, V-B:HIS:456:CE1:9041, V-B:GLU:543:C:9874, H-A:LYS:547:NZ:4951, H-A:GLU:543:OE1:4909, V-A:GLU:543:CB:4906, V-A:GLU:543:C:4902, V-A:GLY:544:CA:4914, V-A:SER:385:CA:3407, V-A:SER:385:CB:3409"]

$$$$
4eb_Grossjean_2025
     RDKit          3D

 30 33  0  0  0  0  0  0  0  0999 V2000
  129.3320  131.1420   73.3550 C   0  0  0  0  0  0  0  0  0  0  0  0
  129.6500  129.7580   73.3610 O   0  0  0  0  0  0  0  0  0  0  0  0
  128.7630  128.8350   72.9070 C   0  0  0  0  0  0  0  0  0  0  0  0
  127.7130  128.5570   73.4910 O   0  0  0  0  0  0  0  0  0  0  0  0
  129.1890  128.1860   71.6210 C   0  0  0  0  0  0  0  0  0  0  0  0
  130.5090  128.3450   71.1800 C   0  0  0  0  0  0  0  0  0  0  0  0
  130.9340  127.7560   69.9930 C   0  0  0  0  0  0  0  0  0  0  0  0
  130.0510  126.9980   69.2220 C   0  0  0  0  0  0  0  0  0  0  0  0
  130.5910  126.4510   68.0420 N   0  0  0  0  0  0  0  0  0  0  0  0
  130.2820  125.3070   67.3830 C   0  0  0  0  0  0  0  0  0  0  0  0
  129.4150  124.5110   67.7440 O   0  0  0  0  0  0  0  0  0  0  0  0
  131.0630  125.0550   66.1690 C   0  0  0  0  0  0  0  0  0  0  0  0
  132.7630  125.5220   66.0890 S   0  0  0  0  0  0  0  0  0  0  0  0
  132.9030  124.9140   64.4540 C   0  0  0  0  0  0  0  0  0  0  0  0
  134.0480  124.9800   63.7730 N   0  0  0  0  0  0  0  0  0  0  0  0
  134.0240  124.4740   62.5170 C   0  0  0  0  0  0  0  0  0  0  0  0
  135.3370  124.5600   61.7600 C   0  0  0  0  0  0  0  0  0  0  0  0
  132.8940  123.9090   61.9300 C   0  0  0  0  0  0  0  0  0  0  0  0
  131.6940  123.8420   62.6490 C   0  0  0  0  0  0  0  0  0  0  0  0
  130.5010  123.2390   62.0120 C   0  0  0  0  0  0  0  0  0  0  0  0
  129.5150  124.0570   61.4510 C   0  0  0  0  0  0  0  0  0  0  0  0
  128.3930  123.4900   60.8500 C   0  0  0  0  0  0  0  0  0  0  0  0
  128.2570  122.1040   60.8130 C   0  0  0  0  0  0  0  0  0  0  0  0
  129.2330  121.2810   61.3720 C   0  0  0  0  0  0  0  0  0  0  0  0
  130.3530  121.8490   61.9720 C   0  0  0  0  0  0  0  0  0  0  0  0
  131.6780  124.3630   63.9710 C   0  0  0  0  0  0  0  0  0  0  0  0
  130.6460  124.4560   64.9700 C   0  0  0  0  0  0  0  0  0  0  0  0
  129.3720  123.9950   64.7510 N   0  0  0  0  0  0  0  0  0  0  0  0
  128.7270  126.8340   69.6560 C   0  0  0  0  0  0  0  0  0  0  0  0
  128.3040  127.4230   70.8440 C   0  0  0  0  0  0  0  0  0  0  0  0
  1  2  1  0
  2  3  1  0
  3  4  2  0
  3  5  1  0
  5  6  2  0
  6  7  1  0
  7  8  2  0
  8  9  1  0
  9 10  1  0
 10 11  2  0
 10 12  1  0
 12 13  1  0
 13 14  1  0
 14 15  2  0
 15 16  1  0
 16 17  1  0
 16 18  2  0
 18 19  1  0
 19 20  1  0
 20 21  2  0
 21 22  1  0
 22 23  2  0
 23 24  1  0
 24 25  2  0
 19 26  2  0
 26 27  1  0
 27 28  1  0
  8 29  1  0
 29 30  2  0
 30  5  1  0
 27 12  2  0
 26 14  1  0
 25 20  1  0
M  END
>  <Binding energies>  (64) 
[-7.79]

>  <Ligand effiencies>  (64) 
[-0.23606060606060605]

>  <Interactions>  (64) 
["V-B:PRO:540:N:9856, V-A:ARG:545:CD:4923, H-A:GLY:454:N:4050, H-A:ARG:545:NE:4924, V-A:ARG:545:CZ:4926, V-A:LEU:475:CD2:4259, V-B:PRO:540:CA:9855, V-A:ILE:369:CD1:3239, V-A:GLY:453:C:4042, V-A:ASP:366:CG:3213, V-A:TYR:484:CZ:4347, H-A:GLU:543:OE2:4910, V-B:GLU:543:CB:9878, V-B:GLU:543:CG:9879, V-A:TYR:484:CE2:4346, V-B:GLU:543:CD:9880, H-B:GLU:543:OE1:9881, V-B:ALA:541:CB:9864, V-A:ASP:366:CA:3210, V-B:HIS:456:CD2:9039, V-A:GLY:544:C:4912, V-A:LYS:547:CE:4950, V-A:HIS:456:CE1:4070, V-B:HIS:456:CE1:9041, V-B:GLU:543:C:9874, H-A:LYS:547:NZ:4951, H-A:ARG:545:NH2:4928, V-A:GLU:543:CB:4906, V-A:GLU:543:C:4902, V-A:GLY:453:CA:4044, V-B:PRO:540:C:9853, V-B:TYR:539:C:9839, V-A:ARG:545:CG:4922, H-A:ARG:545:NH1:4927"]

$$$$
8b_Ghoteimi_2023
     RDKit          3D

 34 38  0  0  0  0  0  0  0  0999 V2000
  130.9770  126.9110   73.9250 C   0  0  0  0  0  0  0  0  0  0  0  0
  130.1980  127.9360   73.3170 O   0  0  0  0  0  0  0  0  0  0  0  0
  129.8720  127.8300   71.9780 C   0  0  0  0  0  0  0  0  0  0  0  0
  130.8800  128.1350   71.0650 C   0  0  0  0  0  0  0  0  0  0  0  0
  130.6430  128.0570   69.6970 C   0  0  0  0  0  0  0  0  0  0  0  0
  129.3880  127.6710   69.2040 C   0  0  0  0  0  0  0  0  0  0  0  0
  129.1270  127.5870   67.7330 C   0  0  0  0  0  0  0  0  0  0  0  0
  128.4790  128.6150   67.0400 C   0  0  0  0  0  0  0  0  0  0  0  0
  128.2480  128.5120   65.6650 C   0  0  0  0  0  0  0  0  0  0  0  0
  127.5510  129.6140   64.9630 C   0  0  0  0  0  0  0  0  0  0  0  0
  128.2540  130.7550   64.5720 C   0  0  0  0  0  0  0  0  0  0  0  0
  127.5990  131.7850   63.9030 C   0  0  0  0  0  0  0  0  0  0  0  0
  126.2360  131.6940   63.6180 C   0  0  0  0  0  0  0  0  0  0  0  0
  125.6710  132.7630   62.9500 O   0  0  0  0  0  0  0  0  0  0  0  0
  124.2530  132.8810   62.9010 C   0  0  0  0  0  0  0  0  0  0  0  0
  125.5310  130.5470   64.0160 C   0  0  0  0  0  0  0  0  0  0  0  0
  126.1870  129.5170   64.6840 C   0  0  0  0  0  0  0  0  0  0  0  0
  128.6960  127.3410   64.9970 C   0  0  0  0  0  0  0  0  0  0  0  0
  128.6320  126.9150   63.6230 C   0  0  0  0  0  0  0  0  0  0  0  0
  128.0560  127.6830   62.6430 N   0  0  0  0  0  0  0  0  0  0  0  0
  129.2110  125.6580   63.3900 C   0  0  0  0  0  0  0  0  0  0  0  0
  129.3260  124.9280   62.1260 C   0  0  0  0  0  0  0  0  0  0  0  0
  130.4200  124.8010   61.5690 O   0  0  0  0  0  0  0  0  0  0  0  0
  128.1650  124.4240   61.6370 N   0  0  0  0  0  0  0  0  0  0  0  0
  127.9850  123.6940   60.4700 C   0  0  0  0  0  0  0  0  0  0  0  0
  127.1940  124.1340   59.4110 C   0  0  0  0  0  0  0  0  0  0  0  0
  127.2730  123.1360   58.4660 C   0  0  0  0  0  0  0  0  0  0  0  0
  128.0740  122.1490   58.9300 O   0  0  0  0  0  0  0  0  0  0  0  0
  128.5210  122.5130   60.2020 N   0  0  0  0  0  0  0  0  0  0  0  0
  129.8560  124.9670   64.8800 S   0  0  0  0  0  0  0  0  0  0  0  0
  129.3470  126.3630   65.8030 C   0  0  0  0  0  0  0  0  0  0  0  0
  129.5660  126.4580   67.1140 N   0  0  0  0  0  0  0  0  0  0  0  0
  128.3800  127.3620   70.1260 C   0  0  0  0  0  0  0  0  0  0  0  0
  128.6130  127.4400   71.4970 C   0  0  0  0  0  0  0  0  0  0  0  0
  1  2  1  0
  2  3  1  0
  3  4  2  0
  4  5  1  0
  5  6  2  0
  6  7  1  0
  7  8  2  0
  8  9  1  0
  9 10  1  0
 10 11  2  0
 11 12  1  0
 12 13  2  0
 13 14  1  0
 14 15  1  0
 13 16  1  0
 16 17  2  0
  9 18  2  0
 18 19  1  0
 19 20  1  0
 19 21  2  0
 21 22  1  0
 22 23  2  0
 22 24  1  0
 24 25  1  0
 25 26  1  0
 26 27  2  0
 27 28  1  0
 28 29  1  0
 21 30  1  0
 30 31  1  0
 31 32  2  0
  6 33  1  0
 33 34  2  0
 34  3  1  0
 32  7  1  0
 17 10  1  0
 31 18  1  0
 29 25  2  0
M  END
>  <Binding energies>  (65) 
[-7.45]

>  <Ligand effiencies>  (65) 
[-0.20135135135135135]

>  <Interactions>  (65) 
["V-B:PRO:540:N:9856, V-A:GLU:543:CD:4908, V-B:PRO:540:CB:9857, V-B:PRO:540:CA:9855, V-B:GLY:454:CA:9020, V-B:LEU:475:CD2:9230, V-B:GLU:543:CB:9878, V-B:GLU:543:CG:9879, V-B:GLU:543:CD:9880, H-B:GLU:543:OE1:9881, V-B:HIS:456:CD2:9039, V-A:GLY:544:C:4912, V-A:HIS:456:CD2:4068, V-A:HIS:456:CE1:4070, V-B:HIS:456:CE1:9041, H-A:LYS:547:NZ:4951, H-A:GLU:543:OE1:4909, V-A:GLU:543:CB:4906, V-A:GLU:543:C:4902, V-A:GLU:543:CG:4907, V-A:GLY:544:CA:4914, H-B:GLU:543:OE2:9882"]

$$$$
9d_Ghoteimi_2023
     RDKit          3D

 38 43  0  0  0  0  0  0  0  0999 V2000
  132.8630  124.5560   64.3540 C   0  0  0  0  0  0  0  0  0  0  0  0
  132.1540  123.3260   64.3290 O   0  0  0  0  0  0  0  0  0  0  0  0
  130.8700  123.2530   64.7670 C   0  0  0  0  0  0  0  0  0  0  0  0
  130.2770  122.1950   64.9930 O   0  0  0  0  0  0  0  0  0  0  0  0
  130.2460  124.5830   64.9450 C   0  0  0  0  0  0  0  0  0  0  0  0
  129.7230  125.5030   63.5350 S   0  0  0  0  0  0  0  0  0  0  0  0
  129.1310  126.7970   64.5490 C   0  0  0  0  0  0  0  0  0  0  0  0
  128.5370  127.8720   64.0330 N   0  0  0  0  0  0  0  0  0  0  0  0
  128.0960  128.8140   64.9080 C   0  0  0  0  0  0  0  0  0  0  0  0
  127.4090  129.9990   64.3080 C   0  0  0  0  0  0  0  0  0  0  0  0
  128.1290  131.1600   64.0100 C   0  0  0  0  0  0  0  0  0  0  0  0
  127.4980  132.2700   63.4530 C   0  0  0  0  0  0  0  0  0  0  0  0
  126.1250  132.2530   63.1620 C   0  0  0  0  0  0  0  0  0  0  0  0
  125.4740  133.3660   62.6180 N   0  0  0  0  0  0  0  0  0  0  0  0
  126.1190  134.2070   61.5890 C   0  0  0  0  0  0  0  0  0  0  0  0
  125.4190  135.5630   61.3620 C   0  0  0  0  0  0  0  0  0  0  0  0
  124.0480  135.3580   61.0660 O   0  0  0  0  0  0  0  0  0  0  0  0
  123.3790  134.7000   62.1300 C   0  0  0  0  0  0  0  0  0  0  0  0
  124.0160  133.3170   62.3830 C   0  0  0  0  0  0  0  0  0  0  0  0
  125.4060  131.0910   63.4760 C   0  0  0  0  0  0  0  0  0  0  0  0
  126.0360  129.9830   64.0360 C   0  0  0  0  0  0  0  0  0  0  0  0
  128.2810  128.6940   66.2880 C   0  0  0  0  0  0  0  0  0  0  0  0
  128.9220  127.5760   66.8330 C   0  0  0  0  0  0  0  0  0  0  0  0
  129.1170  127.5130   68.3060 C   0  0  0  0  0  0  0  0  0  0  0  0
  130.3590  127.8060   68.8740 C   0  0  0  0  0  0  0  0  0  0  0  0
  130.5310  127.7630   70.2550 C   0  0  0  0  0  0  0  0  0  0  0  0
  129.4620  127.4410   71.1050 C   0  0  0  0  0  0  0  0  0  0  0  0
  129.6120  127.3820   72.4930 N   0  0  0  0  0  0  0  0  0  0  0  0
  128.9570  128.4070   73.3290 C   0  0  0  0  0  0  0  0  0  0  0  0
  128.8720  128.0130   74.8200 C   0  0  0  0  0  0  0  0  0  0  0  0
  130.1660  127.7040   75.3160 O   0  0  0  0  0  0  0  0  0  0  0  0
  130.7550  126.6240   74.6070 C   0  0  0  0  0  0  0  0  0  0  0  0
  130.8900  126.9870   73.1130 C   0  0  0  0  0  0  0  0  0  0  0  0
  128.2200  127.1470   70.5230 C   0  0  0  0  0  0  0  0  0  0  0  0
  128.0490  127.1880   69.1430 C   0  0  0  0  0  0  0  0  0  0  0  0
  129.3540  126.5580   65.9380 C   0  0  0  0  0  0  0  0  0  0  0  0
  129.9760  125.2740   66.1320 C   0  0  0  0  0  0  0  0  0  0  0  0
  130.2580  124.7640   67.3730 N   0  0  0  0  0  0  0  0  0  0  0  0
  1  2  1  0
  2  3  1  0
  3  4  2  0
  3  5  1  0
  5  6  1  0
  6  7  1  0
  7  8  2  0
  8  9  1  0
  9 10  1  0
 10 11  2  0
 11 12  1  0
 12 13  2  0
 13 14  1  0
 14 15  1  0
 15 16  1  0
 16 17  1  0
 17 18  1  0
 18 19  1  0
 13 20  1  0
 20 21  2  0
  9 22  2  0
 22 23  1  0
 23 24  1  0
 24 25  2  0
 25 26  1  0
 26 27  2  0
 27 28  1  0
 28 29  1  0
 29 30  1  0
 30 31  1  0
 31 32  1  0
 32 33  1  0
 27 34  1  0
 34 35  2  0
 23 36  2  0
 36 37  1  0
 37 38  1  0
 37  5  2  0
 36  7  1  0
 21 10  1  0
 35 24  1  0
 19 14  1  0
 33 28  1  0
M  END
>  <Binding energies>  (66) 
[-8.86]

>  <Ligand effiencies>  (66) 
[-0.22149999999999997]

>  <Interactions>  (66) 
["V-A:GLU:543:CD:4908, H-A:TYR:484:OH:4348, V-A:ARG:545:CZ:4926, V-A:LEU:475:CD2:4259, V-A:TYR:539:CD1:4873, V-B:GLY:454:CA:9020, V-B:ILE:369:CG2:8208, V-B:LEU:475:CD2:9230, V-A:TYR:539:CE1:4875, V-A:TYR:484:CZ:4347, V-B:GLU:543:CB:9878, V-B:GLU:543:CG:9879, V-A:TYR:484:CE2:4346, V-B:GLU:543:CD:9880, V-B:HIS:456:CD2:9039, V-A:HIS:456:CD2:4068, V-A:HIS:456:CG:4066, V-A:HIS:456:CE1:4070, V-B:HIS:456:CE1:9041, V-B:GLU:543:C:9874, H-A:LYS:547:NZ:4951, H-B:GLU:543:O:9875, V-A:GLU:543:CB:4906, V-A:GLU:543:C:4902, V-A:GLU:543:CG:4907, H-A:HIS:456:NE2:4071, V-B:GLU:543:CA:9876, V-B:SER:385:CB:8380, V-B:SER:385:CA:8378, V-B:SER:385:C:8376"]

$$$$
RR10_Rahimova_2017
     RDKit          3D

 34 38  0  0  0  0  0  0  0  0999 V2000
  133.8340  131.8720   61.2960 C   0  0  0  0  0  0  0  0  0  0  0  0
  132.5760  131.5000   60.4920 C   0  0  1  0  0  0  0  0  0  0  0  0
  132.9300  130.8420   59.1380 C   0  0  0  0  0  0  0  0  0  0  0  0
  131.6530  130.5100   58.3330 C   0  0  0  0  0  0  0  0  0  0  0  0
  130.6950  129.5760   59.1160 C   0  0  1  0  0  0  0  0  0  0  0  0
  131.2810  128.2380   59.2700 N   0  0  0  0  0  0  0  0  0  0  0  0
  130.6230  127.1410   59.6860 C   0  0  0  0  0  0  0  0  0  0  0  0
  129.4220  127.1440   59.9670 O   0  0  0  0  0  0  0  0  0  0  0  0
  131.4490  125.8440   59.8180 C   0  0  1  0  0  0  0  0  0  0  0  0
  132.4900  125.7790   58.6700 C   0  0  0  0  0  0  0  0  0  0  0  0
  133.3810  124.5260   58.8510 C   0  0  0  0  0  0  0  0  0  0  0  0
  133.9980  124.4380   60.2660 C   0  0  0  0  0  0  0  0  0  0  0  0
  132.9450  124.5730   61.3080 N   0  0  0  0  0  0  0  0  0  0  0  0
  133.4850  124.1910   62.9520 S   0  0  0  0  0  0  0  0  0  0  0  0
  134.6230  125.0620   63.2720 O   0  0  0  0  0  0  0  0  0  0  0  0
  133.6190  122.7330   63.0550 O   0  0  0  0  0  0  0  0  0  0  0  0
  132.1330  124.6970   64.0160 C   0  0  0  0  0  0  0  0  0  0  0  0
  130.8190  124.6010   63.5460 C   0  0  0  0  0  0  0  0  0  0  0  0
  129.7220  124.9820   64.3250 C   0  0  0  0  0  0  0  0  0  0  0  0
  130.0030  125.4630   65.6050 C   0  0  0  0  0  0  0  0  0  0  0  0
  129.2260  125.9280   66.6400 N   0  0  0  0  0  0  0  0  0  0  0  0
  130.0640  126.2760   67.6790 C   0  0  0  0  0  0  0  0  0  0  0  0
  129.5800  126.8360   68.9850 C   0  0  0  0  0  0  0  0  0  0  0  0
  130.4400  127.5880   69.7970 C   0  0  0  0  0  0  0  0  0  0  0  0
  129.9920  128.1110   71.0070 C   0  0  0  0  0  0  0  0  0  0  0  0
  128.6800  127.8830   71.4130 C   0  0  0  0  0  0  0  0  0  0  0  0
  127.8130  127.1380   70.6190 C   0  0  0  0  0  0  0  0  0  0  0  0
  128.2630  126.6150   69.4090 C   0  0  0  0  0  0  0  0  0  0  0  0
  131.3280  126.0610   67.3840 N   0  0  0  0  0  0  0  0  0  0  0  0
  131.3220  125.5620   66.1090 C   0  0  0  0  0  0  0  0  0  0  0  0
  132.4030  125.1710   65.3050 C   0  0  0  0  0  0  0  0  0  0  0  0
  132.1570  125.8270   61.1950 C   0  0  0  0  0  0  0  0  0  0  0  0
  130.3620  130.2410   60.4790 C   0  0  0  0  0  0  0  0  0  0  0  0
  131.6350  130.5680   61.2910 C   0  0  0  0  0  0  0  0  0  0  0  0
  2  1  1  1
  2  3  1  0
  3  4  1  0
  4  5  1  0
  5  6  1  1
  6  7  1  0
  7  8  2  0
  9  7  1  6
  9 10  1  0
 10 11  1  0
 11 12  1  0
 12 13  1  0
 13 14  1  0
 14 15  2  0
 14 16  2  0
 14 17  1  0
 17 18  2  0
 18 19  1  0
 19 20  2  0
 20 21  1  0
 21 22  1  0
 22 23  1  0
 23 24  2  0
 24 25  1  0
 25 26  2  0
 26 27  1  0
 27 28  2  0
 22 29  2  0
 29 30  1  0
 30 31  2  0
 13 32  1  0
  5 33  1  0
 33 34  1  0
 34  2  1  0
 32  9  1  0
 31 17  1  0
 30 20  1  0
 28 23  1  0
M  END
>  <Binding energies>  (67) 
[-9.84]

>  <Ligand effiencies>  (67) 
[-0.2733333333333333]

>  <Interactions>  (67) 
["V-A:GLU:543:CD:4908, H-A:GLY:454:N:4050, H-A:TYR:484:OH:4348, V-B:TYR:539:CE2:9848, V-A:ARG:545:CZ:4926, V-A:ASN:362:CB:3176, V-A:ASP:366:CB:3212, V-A:PRO:540:CB:4885, V-A:PRO:540:CA:4883, V-A:ILE:369:CD1:3239, V-A:ASP:366:CG:3213, V-A:ILE:369:CG2:3237, V-B:GLU:543:CB:9878, V-B:GLU:543:CG:9879, V-B:GLU:543:CD:9880, V-A:ASP:366:CA:3210, V-B:HIS:456:CD2:9039, V-B:GLY:544:C:9884, V-A:HIS:456:CE1:4070, V-B:HIS:456:CE1:9041, V-B:GLU:543:C:9874, H-A:ARG:545:NH2:4928, V-A:GLU:543:CB:4906, V-A:GLU:543:C:4902, H-A:ASP:366:OD2:3215, V-A:LEU:363:CD1:3189, H-A:ASP:366:OD1:3214, H-A:ARG:545:NH1:4927, V-A:LEU:363:CA:3185, V-A:ASN:362:C:3172, H-B:GLU:543:OE2:9882, H-A:TYR:531:OH:4795"]

$$$$
RR12_Rahimova_2017
     RDKit          3D

 26 28  0  0  0  0  0  0  0  0999 V2000
  129.9570  125.2210   60.5370 C   0  0  0  0  0  0  0  0  0  0  0  0
  129.4720  124.5880   59.2250 C   0  0  0  0  0  0  0  0  0  0  0  0
  128.9340  123.1590   59.4210 C   0  0  0  0  0  0  0  0  0  0  0  0
  127.7820  123.1580   60.3200 N   0  0  0  0  0  0  0  0  0  0  0  0
  127.7750  122.8980   61.6820 C   0  0  0  0  0  0  0  0  0  0  0  0
  129.0100  122.5140   62.4780 C   0  0  0  0  0  0  0  0  0  0  0  0
  128.8870  122.8830   63.9680 C   0  0  0  0  0  0  0  0  0  0  0  0
  130.0640  122.3590   64.8110 C   0  0  0  0  0  0  0  0  0  0  0  0
  131.2450  123.2210   64.7770 N   0  0  0  0  0  0  0  0  0  0  0  0
  131.2180  124.5660   64.7560 C   0  0  0  0  0  0  0  0  0  0  0  0
  130.1740  125.2210   64.7600 O   0  0  0  0  0  0  0  0  0  0  0  0
  132.5880  125.2570   64.7310 C   0  0  0  0  0  0  0  0  0  0  0  0
  133.5700  124.3510   64.2260 O   0  0  0  0  0  0  0  0  0  0  0  0
  133.4780  123.9140   62.9180 C   0  0  0  0  0  0  0  0  0  0  0  0
  133.4830  122.5310   62.7240 C   0  0  0  0  0  0  0  0  0  0  0  0
  133.3910  121.9950   61.4420 C   0  0  0  0  0  0  0  0  0  0  0  0
  133.2930  122.8470   60.3460 C   0  0  0  0  0  0  0  0  0  0  0  0
  133.2880  124.2290   60.5200 C   0  0  0  0  0  0  0  0  0  0  0  0
  133.3810  124.7630   61.8030 C   0  0  0  0  0  0  0  0  0  0  0  0
  126.5860  122.9990   62.2240 N   0  0  0  0  0  0  0  0  0  0  0  0
  125.7620  123.3660   61.1960 C   0  0  0  0  0  0  0  0  0  0  0  0
  124.3830  123.6240   61.2200 C   0  0  0  0  0  0  0  0  0  0  0  0
  123.7630  123.9930   60.0250 C   0  0  0  0  0  0  0  0  0  0  0  0
  124.4870  124.1040   58.8380 C   0  0  0  0  0  0  0  0  0  0  0  0
  125.8590  123.8530   58.7820 C   0  0  0  0  0  0  0  0  0  0  0  0
  126.4810  123.4820   59.9800 C   0  0  0  0  0  0  0  0  0  0  0  0
  1  2  1  0
  2  3  1  0
  3  4  1  0
  4  5  1  0
  5  6  1  0
  6  7  1  0
  7  8  1  0
  8  9  1  0
  9 10  1  0
 10 11  2  0
 10 12  1  0
 12 13  1  0
 13 14  1  0
 14 15  2  0
 15 16  1  0
 16 17  2  0
 17 18  1  0
 18 19  2  0
  5 20  2  0
 20 21  1  0
 21 22  2  0
 22 23  1  0
 23 24  2  0
 24 25  1  0
 25 26  2  0
 26  4  1  0
 19 14  1  0
 26 21  1  0
M  END
>  <Binding energies>  (68) 
[-6.69]

>  <Ligand effiencies>  (68) 
[-0.2477777777777778]

>  <Interactions>  (68) 
["V-B:LEU:363:CA:8156, V-B:TYR:539:CD2:9846, H-A:GLY:454:N:4050, V-B:ASP:366:CG:8184, V-B:LEU:363:CD1:8160, V-B:PRO:540:CB:9857, H-A:TYR:484:OH:4348, V-B:TYR:539:CE2:9848, V-B:TYR:539:CZ:9849, V-A:ARG:545:CZ:4926, V-A:LEU:475:CD2:4259, V-B:PRO:540:CA:9855, H-B:ALA:541:N:9863, V-A:GLY:454:CA:4049, V-B:ASN:362:CB:8147, V-A:ASP:366:CG:3213, V-A:ILE:369:CG2:3237, V-A:TYR:484:CZ:4347, V-B:LEU:363:CB:8158, V-B:GLU:543:CG:9879, V-A:TYR:484:CE2:4346, V-B:GLU:543:CD:9880, V-B:ASN:362:C:8143, V-B:ALA:541:CB:9864, V-B:PRO:540:C:9853"]

$$$$
RR13_Rahimova_2017
     RDKit          3D

 48 54  0  0  0  0  0  0  0  0999 V2000
  129.3510  122.2580   64.8960 Cl  0  0  0  0  0  0  0  0  0  0  0  0
  129.7640  122.7870   63.3000 C   0  0  0  0  0  0  0  0  0  0  0  0
  130.0030  121.8080   62.3320 C   0  0  0  0  0  0  0  0  0  0  0  0
  130.3600  122.1690   61.0360 C   0  0  0  0  0  0  0  0  0  0  0  0
  130.4830  123.5140   60.6980 C   0  0  0  0  0  0  0  0  0  0  0  0
  130.2460  124.4960   61.6580 C   0  0  0  0  0  0  0  0  0  0  0  0
  129.8740  124.1520   62.9680 C   0  0  0  0  0  0  0  0  0  0  0  0
  129.6420  125.2590   64.0200 C   0  0  1  0  0  0  0  0  0  0  0  0
  130.8520  125.3940   64.9560 C   0  0  0  0  0  0  0  0  0  0  0  0
  132.1160  125.4570   64.6010 N   0  0  0  0  0  0  0  0  0  0  0  0
  132.8410  125.5460   65.7850 N   0  0  0  0  0  0  0  0  0  0  0  0
  131.9850  125.5160   66.8690 N   0  0  0  0  0  0  0  0  0  0  0  0
  130.7660  125.3960   66.3320 N   0  0  0  0  0  0  0  0  0  0  0  0
  129.5840  125.3700   67.1860 C   0  0  0  0  0  0  0  0  0  0  0  0
  129.1060  126.8050   67.4790 C   0  0  0  0  0  0  0  0  0  0  0  0
  129.3840  127.2210   68.9150 C   0  0  0  0  0  0  0  0  0  0  0  0
  128.3830  127.1000   69.8830 C   0  0  0  0  0  0  0  0  0  0  0  0
  128.6360  127.4880   71.1960 C   0  0  0  0  0  0  0  0  0  0  0  0
  129.8890  127.9950   71.5360 C   0  0  0  0  0  0  0  0  0  0  0  0
  130.8900  128.1190   70.5760 C   0  0  0  0  0  0  0  0  0  0  0  0
  130.6380  127.7310   69.2620 C   0  0  0  0  0  0  0  0  0  0  0  0
  129.2360  126.5580   63.4310 N   0  0  0  0  0  0  0  0  0  0  0  0
  128.6830  127.4470   64.4700 C   0  0  0  0  0  0  0  0  0  0  0  0
  128.3820  128.8490   63.8890 C   0  0  0  0  0  0  0  0  0  0  0  0
  127.3840  128.7600   62.8110 N   0  0  0  0  0  0  0  0  0  0  0  0
  127.0040  130.0900   62.2810 C   0  0  1  0  0  0  0  0  0  0  0  0
  125.4870  130.3330   62.1170 C   0  0  0  0  0  0  0  0  0  0  0  0
  125.0450  130.8070   60.8740 C   0  0  0  0  0  0  0  0  0  0  0  0
  123.6920  131.0380   60.6310 C   0  0  0  0  0  0  0  0  0  0  0  0
  122.7560  130.8040   61.6350 C   0  0  0  0  0  0  0  0  0  0  0  0
  123.1760  130.3500   62.8820 C   0  0  0  0  0  0  0  0  0  0  0  0
  124.5300  130.1180   63.1370 C   0  0  0  0  0  0  0  0  0  0  0  0
  124.9580  129.6200   64.7390 Cl  0  0  0  0  0  0  0  0  0  0  0  0
  127.6420  131.2490   63.0500 C   0  0  0  0  0  0  0  0  0  0  0  0
  127.5570  131.4420   64.3460 N   0  0  0  0  0  0  0  0  0  0  0  0
  128.2940  132.5920   64.6100 N   0  0  0  0  0  0  0  0  0  0  0  0
  128.8400  133.0830   63.4420 N   0  0  0  0  0  0  0  0  0  0  0  0
  128.4420  132.2260   62.4950 N   0  0  0  0  0  0  0  0  0  0  0  0
  128.8220  132.4460   61.1040 C   0  0  0  0  0  0  0  0  0  0  0  0
  129.6450  131.2570   60.5760 C   0  0  0  0  0  0  0  0  0  0  0  0
  131.1310  131.4170   60.8560 C   0  0  0  0  0  0  0  0  0  0  0  0
  132.0470  131.3840   59.8010 C   0  0  0  0  0  0  0  0  0  0  0  0
  133.4070  131.5380   60.0570 C   0  0  0  0  0  0  0  0  0  0  0  0
  133.8460  131.7240   61.3670 C   0  0  0  0  0  0  0  0  0  0  0  0
  132.9370  131.7590   62.4230 C   0  0  0  0  0  0  0  0  0  0  0  0
  131.5770  131.6060   62.1680 C   0  0  0  0  0  0  0  0  0  0  0  0
  127.9420  127.8750   61.7730 C   0  0  0  0  0  0  0  0  0  0  0  0
  128.2320  126.4730   62.3570 C   0  0  0  0  0  0  0  0  0  0  0  0
  1  2  1  0
  2  3  2  0
  3  4  1  0
  4  5  2  0
  5  6  1  0
  6  7  2  0
  7  8  1  0
  8  9  1  0
  9 10  2  0
 10 11  1  0
 11 12  2  0
 12 13  1  0
 13 14  1  0
 14 15  1  0
 15 16  1  0
 16 17  2  0
 17 18  1  0
 18 19  2  0
 19 20  1  0
 20 21  2  0
  8 22  1  6
 22 23  1  0
 23 24  1  0
 24 25  1  0
 26 25  1  1
 26 27  1  0
 27 28  2  0
 28 29  1  0
 29 30  2  0
 30 31  1  0
 31 32  2  0
 32 33  1  0
 26 34  1  0
 34 35  2  0
 35 36  1  0
 36 37  2  0
 37 38  1  0
 38 39  1  0
 39 40  1  0
 40 41  1  0
 41 42  2  0
 42 43  1  0
 43 44  2  0
 44 45  1  0
 45 46  2  0
 25 47  1  0
 47 48  1  0
  7  2  1  0
 13  9  1  0
 21 16  1  0
 48 22  1  0
 32 27  1  0
 38 34  1  0
 46 41  1  0
M  END
>  <Binding energies>  (69) 
[-12.5]

>  <Ligand effiencies>  (69) 
[-0.2604166666666667]

>  <Interactions>  (69) 
["V-B:TYR:539:CD2:9846, V-A:GLU:543:CD:4908, V-B:ASP:366:CG:8184, H-A:TYR:484:OH:4348, V-B:TYR:539:CE2:9848, H-A:ARG:545:NE:4924, V-A:LEU:475:CD2:4259, V-A:ASN:362:CB:3176, V-B:ILE:369:CB:8207, V-A:PRO:540:CB:4885, V-A:PRO:540:CA:4883, V-B:GLY:453:C:9013, V-B:ILE:369:CG2:8208, V-B:GLY:453:CA:9015, V-B:ASP:366:CA:8181, H-A:ALA:541:N:4891, V-B:ILE:369:CG1:8209, V-A:ASP:366:CG:3213, V-B:GLU:543:CB:9878, V-B:GLU:543:CG:9879, V-A:TYR:484:CE2:4346, V-B:GLU:543:CD:9880, V-B:ALA:541:CB:9864, V-B:HIS:456:CD2:9039, V-A:GLY:544:C:4912, V-A:HIS:456:CE1:4070, V-B:HIS:456:CE1:9041, V-B:GLU:543:C:9874, H-A:ARG:545:NH2:4928, V-A:GLU:543:CB:4906, V-A:GLU:543:C:4902, V-B:ARG:545:CZ:9898, H-B:TYR:484:OH:9319, V-B:GLU:543:CA:9876, V-A:LEU:363:CA:3185, V-A:LEU:363:CB:3187, V-A:ASN:362:C:3172"]

$$$$
RR14_Rahimova_2017
     RDKit          3D

 39 43  0  0  0  0  0  0  0  0999 V2000
  127.3370  128.8750   74.7780 C   0  0  0  0  0  0  0  0  0  0  0  0
  128.1500  127.8330   74.2490 O   0  0  0  0  0  0  0  0  0  0  0  0
  128.3360  127.7530   72.8820 C   0  0  0  0  0  0  0  0  0  0  0  0
  127.4810  126.8980   72.1860 C   0  0  0  0  0  0  0  0  0  0  0  0
  127.6090  126.7340   70.8110 C   0  0  0  0  0  0  0  0  0  0  0  0
  128.6040  127.4240   70.1150 C   0  0  0  0  0  0  0  0  0  0  0  0
  128.7900  127.1970   68.6190 C   0  0  0  0  0  0  0  0  0  0  0  0
  130.1670  126.8700   68.2500 N   0  0  0  0  0  0  0  0  0  0  0  0
  131.1890  127.5490   68.7820 N   0  0  0  0  0  0  0  0  0  0  0  0
  132.3150  127.0040   68.1970 N   0  0  0  0  0  0  0  0  0  0  0  0
  131.9520  125.9980   67.3060 N   0  0  0  0  0  0  0  0  0  0  0  0
  130.6420  125.9390   67.3510 C   0  0  0  0  0  0  0  0  0  0  0  0
  129.7780  124.9980   66.5230 C   0  0  0  0  0  0  0  0  0  0  0  0
  130.4380  124.5790   65.2760 N   0  0  0  0  0  0  0  0  0  0  0  0
  129.4720  124.0990   64.2780 C   0  0  0  0  0  0  0  0  0  0  0  0
  129.4880  122.5650   64.0990 C   0  0  0  0  0  0  0  0  0  0  0  0
  129.9400  122.1100   62.6950 C   0  0  0  0  0  0  0  0  0  0  0  0
  128.8900  122.2350   61.6790 N   0  0  0  0  0  0  0  0  0  0  0  0
  129.4650  122.6860   60.4050 C   0  0  0  0  0  0  0  0  0  0  0  0
  128.3780  122.8780   59.3260 C   0  0  0  0  0  0  0  0  0  0  0  0
  127.3650  123.7570   59.8030 O   0  0  0  0  0  0  0  0  0  0  0  0
  126.7300  123.2620   60.9760 C   0  0  0  0  0  0  0  0  0  0  0  0
  127.7670  123.0830   62.1060 C   0  0  0  0  0  0  0  0  0  0  0  0
  131.2350  125.6860   64.7290 C   0  0  0  0  0  0  0  0  0  0  0  0
  131.6700  125.5440   63.2720 C   0  0  0  0  0  0  0  0  0  0  0  0
  130.8800  125.9800   62.2610 C   0  0  0  0  0  0  0  0  0  0  0  0
  131.2590  125.8190   60.8420 C   0  0  0  0  0  0  0  0  0  0  0  0
  130.4740  126.2770   59.7700 C   0  0  0  0  0  0  0  0  0  0  0  0
  129.1480  126.9890   59.9990 C   0  0  0  0  0  0  0  0  0  0  0  0
  130.9260  126.0760   58.4630 C   0  0  0  0  0  0  0  0  0  0  0  0
  132.1370  125.4310   58.2190 C   0  0  0  0  0  0  0  0  0  0  0  0
  132.9260  124.9730   59.2790 C   0  0  0  0  0  0  0  0  0  0  0  0
  134.2450  124.2740   58.9800 C   0  0  0  0  0  0  0  0  0  0  0  0
  132.4820  125.1700   60.5960 C   0  0  0  0  0  0  0  0  0  0  0  0
  133.2430  124.7230   61.6970 N   0  0  0  0  0  0  0  0  0  0  0  0
  132.9350  124.8490   63.0120 C   0  0  0  0  0  0  0  0  0  0  0  0
  133.6880  124.3960   63.8750 O   0  0  0  0  0  0  0  0  0  0  0  0
  129.4460  128.3050   70.7970 C   0  0  0  0  0  0  0  0  0  0  0  0
  129.3170  128.4670   72.1740 C   0  0  0  0  0  0  0  0  0  0  0  0
  1  2  1  0
  2  3  1  0
  3  4  2  0
  4  5  1  0
  5  6  2  0
  6  7  1  0
  7  8  1  0
  8  9  1  0
  9 10  2  0
 10 11  1  0
 11 12  2  0
 12 13  1  0
 13 14  1  0
 14 15  1  0
 15 16  1  0
 16 17  1  0
 17 18  1  0
 18 19  1  0
 19 20  1  0
 20 21  1  0
 21 22  1  0
 22 23  1  0
 14 24  1  0
 24 25  1  0
 25 26  2  0
 26 27  1  0
 27 28  2  0
 28 29  1  0
 28 30  1  0
 30 31  2  0
 31 32  1  0
 32 33  1  0
 32 34  2  0
 34 35  1  0
 35 36  1  0
 36 37  2  0
  6 38  1  0
 38 39  2  0
 39  3  1  0
 12  8  1  0
 23 18  1  0
 36 25  1  0
 34 27  1  0
M  END
>  <Binding energies>  (70) 
[-8.33]

>  <Ligand effiencies>  (70) 
[-0.20825]

>  <Interactions>  (70) 
["V-B:TYR:539:CD2:9846, V-A:GLU:543:CD:4908, H-A:GLY:454:N:4050, V-B:PRO:540:CB:9857, H-A:TYR:484:OH:4348, V-B:TYR:539:CE2:9848, V-B:TYR:539:CZ:9849, H-A:ARG:545:NE:4924, V-A:ARG:545:CZ:4926, V-A:LEU:475:CD2:4259, V-B:PRO:540:CA:9855, V-A:ASP:366:CB:3212, V-A:ILE:369:CD1:3239, H-B:ALA:541:N:9863, V-A:ASP:366:CG:3213, V-A:ILE:369:CG2:3237, V-A:ILE:369:CB:3236, V-B:GLU:543:CB:9878, V-B:GLU:543:CG:9879, V-A:TYR:484:CE2:4346, V-B:GLU:543:CD:9880, V-B:ALA:541:CB:9864, V-A:ASP:366:CA:3210, V-B:HIS:456:CD2:9039, V-B:GLY:544:C:9884, V-B:GLY:544:CA:9886, V-A:HIS:456:CE1:4070, H-B:LYS:547:NZ:9923, V-B:LYS:547:CE:9922, V-B:HIS:456:CE1:9041, V-B:GLU:543:C:9874, H-A:ARG:545:NH2:4928, V-A:GLU:543:CB:4906, V-A:GLU:543:C:4902, V-B:PRO:540:C:9853, V-B:TYR:539:C:9839, V-B:GLU:543:CA:9876, V-A:ASP:366:C:3208, H-A:HIS:456:ND1:4067, H-A:ASP:366:OD1:3214"]

$$$$
RR15_Rahimova_2017
     RDKit          3D

 45 49  0  0  0  0  0  0  0  0999 V2000
  127.2070  128.5420   74.8080 C   0  0  0  0  0  0  0  0  0  0  0  0
  128.2400  127.7510   74.2300 O   0  0  0  0  0  0  0  0  0  0  0  0
  128.3480  127.6720   72.8520 C   0  0  0  0  0  0  0  0  0  0  0  0
  127.6060  126.7790   72.0640 C   0  0  0  0  0  0  0  0  0  0  0  0
  127.7640  126.7490   70.6810 C   0  0  0  0  0  0  0  0  0  0  0  0
  128.6680  127.6070   70.0450 C   0  0  0  0  0  0  0  0  0  0  0  0
  128.8440  127.5710   68.5520 C   0  0  0  0  0  0  0  0  0  0  0  0
  128.5730  128.6050   67.7690 N   0  0  0  0  0  0  0  0  0  0  0  0
  128.8470  128.1920   66.4820 N   0  0  0  0  0  0  0  0  0  0  0  0
  129.2980  126.9470   66.6410 N   0  0  0  0  0  0  0  0  0  0  0  0
  129.5570  126.0660   65.5030 C   0  0  0  0  0  0  0  0  0  0  0  0
  129.3310  126.7150   64.1150 C   0  0  0  0  0  0  0  0  0  0  0  0
  128.5780  127.6900   64.0430 O   0  0  0  0  0  0  0  0  0  0  0  0
  129.9850  126.2190   63.0200 N   0  0  0  0  0  0  0  0  0  0  0  0
  129.8850  124.7940   62.6460 C   0  0  0  0  0  0  0  0  0  0  0  0
  130.4400  123.8330   63.7200 C   0  0  0  0  0  0  0  0  0  0  0  0
  131.9380  123.4810   63.5640 C   0  0  0  0  0  0  0  0  0  0  0  0
  132.1820  122.2970   62.7330 N   0  0  0  0  0  0  0  0  0  0  0  0
  131.2560  122.1750   61.5970 C   0  0  0  0  0  0  0  0  0  0  0  0
  131.6100  120.9630   60.7090 C   0  0  0  0  0  0  0  0  0  0  0  0
  132.9680  121.0400   60.2900 O   0  0  0  0  0  0  0  0  0  0  0  0
  133.8740  121.0540   61.3890 C   0  0  0  0  0  0  0  0  0  0  0  0
  133.5840  122.2710   62.2940 C   0  0  0  0  0  0  0  0  0  0  0  0
  130.6820  127.0820   62.0170 C   0  0  2  0  0  0  0  0  0  0  0  0
  129.7820  128.2020   61.4070 C   0  0  0  0  0  0  0  0  0  0  0  0
  128.7930  127.9240   60.7300 O   0  0  0  0  0  0  0  0  0  0  0  0
  130.1400  129.4630   61.7070 N   0  0  0  0  0  0  0  0  0  0  0  0
  129.3960  130.6620   61.3360 C   0  0  0  0  0  0  0  0  0  0  0  0
  130.3320  131.8760   61.1920 C   0  0  2  0  0  0  0  0  0  0  0  0
  131.2480  131.8600   59.9560 C   0  0  0  0  0  0  0  0  0  0  0  0
  132.5920  131.4230   60.4860 C   0  0  0  0  0  0  0  0  0  0  0  0
  132.5800  132.0380   61.8750 C   0  0  0  0  0  0  0  0  0  0  0  0
  131.2410  131.8120   62.3000 O   0  0  0  0  0  0  0  0  0  0  0  0
  131.4970  126.2320   61.0500 C   0  0  0  0  0  0  0  0  0  0  0  0
  131.0200  126.0800   59.7420 C   0  0  0  0  0  0  0  0  0  0  0  0
  131.7230  125.3140   58.8160 C   0  0  0  0  0  0  0  0  0  0  0  0
  132.9120  124.6960   59.1910 C   0  0  0  0  0  0  0  0  0  0  0  0
  133.5950  123.9530   58.2910 F   0  0  0  0  0  0  0  0  0  0  0  0
  133.4030  124.8370   60.4860 C   0  0  0  0  0  0  0  0  0  0  0  0
  132.6990  125.6020   61.4120 C   0  0  0  0  0  0  0  0  0  0  0  0
  129.2760  126.5050   67.9030 N   0  0  0  0  0  0  0  0  0  0  0  0
  129.4060  128.5000   70.8340 C   0  0  0  0  0  0  0  0  0  0  0  0
  129.2540  128.5440   72.2310 C   0  0  0  0  0  0  0  0  0  0  0  0
  129.9570  129.4090   73.0520 O   0  0  0  0  0  0  0  0  0  0  0  0
  129.4180  130.6930   73.3460 C   0  0  0  0  0  0  0  0  0  0  0  0
  1  2  1  0
  2  3  1  0
  3  4  2  0
  4  5  1  0
  5  6  2  0
  6  7  1  0
  7  8  1  0
  8  9  2  0
  9 10  1  0
 10 11  1  0
 11 12  1  0
 12 13  2  0
 12 14  1  0
 14 15  1  0
 15 16  1  0
 16 17  1  0
 17 18  1  0
 18 19  1  0
 19 20  1  0
 20 21  1  0
 21 22  1  0
 22 23  1  0
 24 14  1  6
 24 25  1  0
 25 26  2  0
 25 27  1  0
 27 28  1  0
 29 28  1  6
 29 30  1  0
 30 31  1  0
 31 32  1  0
 32 33  1  0
 24 34  1  0
 34 35  2  0
 35 36  1  0
 36 37  2  0
 37 38  1  0
 37 39  1  0
 39 40  2  0
 10 41  1  0
  6 42  1  0
 42 43  2  0
 43 44  1  0
 44 45  1  0
 43  3  1  0
 41  7  2  0
 23 18  1  0
 33 29  1  0
 40 34  1  0
M  END
>  <Binding energies>  (71) 
[-8.64]

>  <Ligand effiencies>  (71) 
[-0.18782608695652175]

>  <Interactions>  (71) 
["V-B:TYR:539:CD2:9846, V-A:GLU:543:CD:4908, V-B:TYR:539:CE2:9848, V-B:TYR:539:CZ:9849, V-A:LEU:475:CD2:4259, V-A:PRO:540:C:4881, V-A:ASP:366:CB:3212, V-A:PRO:540:CB:4885, V-A:PRO:540:CA:4883, H-A:ALA:541:N:4891, V-A:ILE:369:CD1:3239, V-A:GLY:454:CA:4049, V-A:ASP:366:CG:3213, V-A:ILE:369:CG2:3237, V-A:ILE:369:CB:3236, V-B:GLU:543:CB:9878, V-B:GLU:543:CG:9879, V-A:SER:385:C:3405, V-B:GLU:543:CD:9880, V-A:ASP:366:CA:3210, V-B:HIS:456:CD2:9039, V-B:GLY:544:C:9884, V-B:GLY:544:CA:9886, V-A:LYS:547:CE:4950, H-B:LYS:547:NZ:9923, V-B:LYS:547:CE:9922, V-B:HIS:456:CE1:9041, V-B:GLU:543:C:9874, H-A:LYS:547:NZ:4951, H-A:GLU:543:OE1:4909, V-A:GLU:543:CB:4906, V-A:GLU:543:C:4902, V-A:SER:385:CA:3407, H-A:SER:385:OG:3410, V-A:SER:385:CB:3409, H-A:ASP:366:OD2:3215"]

$$$$
RR17_Rahimova_2017
     RDKit          3D

 38 41  0  0  0  0  0  0  0  0999 V2000
  127.0440  132.9610   74.1840 C   0  0  0  0  0  0  0  0  0  0  0  0
  127.7280  132.3340   75.4020 C   0  0  0  0  0  0  0  0  0  0  0  0
  127.1410  131.0590   75.6510 O   0  0  0  0  0  0  0  0  0  0  0  0
  127.4350  130.0020   74.8090 C   0  0  0  0  0  0  0  0  0  0  0  0
  126.4420  129.0360   74.6540 C   0  0  0  0  0  0  0  0  0  0  0  0
  126.6470  127.9350   73.8280 C   0  0  0  0  0  0  0  0  0  0  0  0
  127.8570  127.7770   73.1370 C   0  0  0  0  0  0  0  0  0  0  0  0
  128.0480  126.5800   72.2520 C   0  0  0  0  0  0  0  0  0  0  0  0
  128.6600  125.5740   72.6240 O   0  0  0  0  0  0  0  0  0  0  0  0
  127.4570  126.6590   70.8270 C   0  0  0  0  0  0  0  0  0  0  0  0
  128.4470  127.7330   69.7280 S   0  0  0  0  0  0  0  0  0  0  0  0
  129.0320  126.5280   68.5700 C   0  0  0  0  0  0  0  0  0  0  0  0
  129.4480  125.3210   68.8740 N   0  0  0  0  0  0  0  0  0  0  0  0
  129.8130  124.6860   67.6930 N   0  0  0  0  0  0  0  0  0  0  0  0
  129.6000  125.5340   66.7180 C   0  0  0  0  0  0  0  0  0  0  0  0
  129.8550  125.2400   65.2470 C   0  0  0  0  0  0  0  0  0  0  0  0
  131.0750  125.8530   64.7260 N   0  0  0  0  0  0  0  0  0  0  0  0
  131.6710  125.4890   63.5050 C   0  0  0  0  0  0  0  0  0  0  0  0
  132.8200  124.6990   63.5620 C   0  0  0  0  0  0  0  0  0  0  0  0
  133.4640  124.3080   62.3920 C   0  0  0  0  0  0  0  0  0  0  0  0
  132.9630  124.7000   61.1470 C   0  0  0  0  0  0  0  0  0  0  0  0
  133.6850  124.2670   59.8720 C   0  0  0  0  0  0  0  0  0  0  0  0
  133.4060  123.0050   59.5370 F   0  0  0  0  0  0  0  0  0  0  0  0
  133.3360  125.0500   58.8510 F   0  0  0  0  0  0  0  0  0  0  0  0
  135.0010  124.3690   60.0600 F   0  0  0  0  0  0  0  0  0  0  0  0
  131.8060  125.4850   61.0880 C   0  0  0  0  0  0  0  0  0  0  0  0
  131.1630  125.8750   62.2580 C   0  0  0  0  0  0  0  0  0  0  0  0
  129.1140  126.7290   67.2070 N   0  0  0  0  0  0  0  0  0  0  0  0
  128.7560  127.8740   66.4790 C   0  0  0  0  0  0  0  0  0  0  0  0
  128.5850  127.7850   65.0980 C   0  0  0  0  0  0  0  0  0  0  0  0
  128.2330  128.9220   64.3760 C   0  0  0  0  0  0  0  0  0  0  0  0
  128.0520  130.1500   65.0330 C   0  0  0  0  0  0  0  0  0  0  0  0
  127.7030  131.3270   64.3990 O   0  0  0  0  0  0  0  0  0  0  0  0
  128.7200  132.1190   63.7960 C   0  0  0  0  0  0  0  0  0  0  0  0
  128.2300  130.2200   66.4160 C   0  0  0  0  0  0  0  0  0  0  0  0
  128.5810  129.0870   67.1440 C   0  0  0  0  0  0  0  0  0  0  0  0
  128.8540  128.7510   73.2930 C   0  0  0  0  0  0  0  0  0  0  0  0
  128.6470  129.8520   74.1190 C   0  0  0  0  0  0  0  0  0  0  0  0
  1  2  1  0
  2  3  1  0
  3  4  1  0
  4  5  2  0
  5  6  1  0
  6  7  2  0
  7  8  1  0
  8  9  2  0
  8 10  1  0
 10 11  1  0
 11 12  1  0
 12 13  2  0
 13 14  1  0
 14 15  2  0
 15 16  1  0
 16 17  1  0
 17 18  1  0
 18 19  2  0
 19 20  1  0
 20 21  2  0
 21 22  1  0
 22 23  1  0
 22 24  1  0
 22 25  1  0
 21 26  1  0
 26 27  2  0
 15 28  1  0
 28 29  1  0
 29 30  2  0
 30 31  1  0
 31 32  2  0
 32 33  1  0
 33 34  1  0
 32 35  1  0
 35 36  2  0
  7 37  1  0
 37 38  2  0
 38  4  1  0
 28 12  1  0
 36 29  1  0
 27 18  1  0
M  END
>  <Binding energies>  (72) 
[-7.78]

>  <Ligand effiencies>  (72) 
[-0.1994871794871795]

>  <Interactions>  (72) 
["V-A:GLU:543:CD:4908, H-A:TYR:484:OH:4348, V-B:TYR:539:CE2:9848, V-A:ARG:545:CZ:4926, V-A:ASP:366:CB:3212, V-A:ILE:369:CD1:3239, V-A:ASP:366:CG:3213, V-A:ILE:369:CG2:3237, V-A:ILE:369:CG1:3238, V-A:ILE:369:CB:3236, H-A:GLU:543:OE2:4910, V-B:GLU:543:CB:9878, V-B:GLU:543:CG:9879, V-B:GLU:543:CD:9880, V-A:ASP:366:CA:3210, V-B:HIS:456:CD2:9039, V-B:HIS:456:CB:9036, V-B:GLY:544:C:9884, V-B:HIS:456:CG:9037, V-B:GLY:544:CA:9886, V-B:ASP:473:CG:9211, V-A:HIS:456:CE1:4070, H-B:LYS:547:NZ:9923, V-B:ASP:473:CB:9210, V-B:LYS:547:CE:9922, V-B:HIS:456:CE1:9041, V-B:GLU:543:C:9874, H-A:GLU:543:OE1:4909, V-A:GLU:543:CB:4906, V-B:TYR:484:CZ:9318, H-B:TYR:484:OH:9319, V-A:ALA:541:CB:4892, V-A:GLU:543:CG:4907, V-B:GLU:543:CA:9876, V-A:ASP:366:C:3208, V-A:GLU:543:CA:4904, V-B:TYR:484:CB:9312, H-B:LYS:471:NZ:9192, V-B:TYR:484:CE2:9317"]

$$$$
RR19_Rahimova_2017
     RDKit          3D

 46 51  0  0  0  0  0  0  0  0999 V2000
  128.3190  128.9920   61.0350 O   0  0  0  0  0  0  0  0  0  0  0  0
  128.4340  127.8700   61.5350 C   0  0  0  0  0  0  0  0  0  0  0  0
  128.5140  127.5920   62.8610 N   0  0  0  0  0  0  0  0  0  0  0  0
  128.2880  128.3420   63.9890 C   0  0  0  0  0  0  0  0  0  0  0  0
  127.5660  129.8730   64.0270 S   0  0  0  0  0  0  0  0  0  0  0  0
  128.7420  127.6420   65.0800 N   0  0  0  0  0  0  0  0  0  0  0  0
  128.6410  127.8480   66.4180 C   0  0  0  0  0  0  0  0  0  0  0  0
  127.9190  128.6770   66.9780 O   0  0  0  0  0  0  0  0  0  0  0  0
  129.5630  126.9360   67.2650 C   0  0  2  0  0  0  0  0  0  0  0  0
  129.4220  125.4140   66.9740 C   0  0  0  0  0  0  0  0  0  0  0  0
  130.5030  124.8230   66.0830 C   0  0  0  0  0  0  0  0  0  0  0  0
  130.2310  123.7130   65.2530 C   0  0  0  0  0  0  0  0  0  0  0  0
  131.2060  123.2360   64.3880 C   0  0  0  0  0  0  0  0  0  0  0  0
  132.4480  123.8580   64.3210 C   0  0  0  0  0  0  0  0  0  0  0  0
  132.7190  124.9690   65.1090 C   0  0  0  0  0  0  0  0  0  0  0  0
  131.7560  125.4630   65.9790 C   0  0  0  0  0  0  0  0  0  0  0  0
  129.4260  127.2290   68.7180 N   0  0  0  0  0  0  0  0  0  0  0  0
  128.2480  127.0270   69.3740 C   0  0  0  0  0  0  0  0  0  0  0  0
  127.1850  126.6280   68.8950 O   0  0  0  0  0  0  0  0  0  0  0  0
  128.5160  127.3840   70.7890 C   0  0  0  0  0  0  0  0  0  0  0  0
  127.6830  127.3760   71.9080 C   0  0  0  0  0  0  0  0  0  0  0  0
  128.2150  127.7620   73.1430 C   0  0  0  0  0  0  0  0  0  0  0  0
  129.5600  128.1450   73.2440 C   0  0  0  0  0  0  0  0  0  0  0  0
  130.3800  128.1450   72.1100 C   0  0  0  0  0  0  0  0  0  0  0  0
  129.8290  127.7580   70.8870 C   0  0  0  0  0  0  0  0  0  0  0  0
  130.4360  127.6490   69.5380 C   0  0  0  0  0  0  0  0  0  0  0  0
  131.6060  127.8800   69.2290 O   0  0  0  0  0  0  0  0  0  0  0  0
  128.5140  126.6250   60.6120 C   0  0  2  0  0  0  0  0  0  0  0  0
  127.5080  125.4980   60.9850 C   0  0  0  0  0  0  0  0  0  0  0  0
  127.0920  124.6300   59.8110 C   0  0  0  0  0  0  0  0  0  0  0  0
  127.9490  123.6090   59.3460 C   0  0  0  0  0  0  0  0  0  0  0  0
  127.5230  122.7510   58.3390 C   0  0  0  0  0  0  0  0  0  0  0  0
  126.2480  122.8760   57.8050 C   0  0  0  0  0  0  0  0  0  0  0  0
  125.3790  123.8510   58.2810 C   0  0  0  0  0  0  0  0  0  0  0  0
  125.7850  124.7190   59.2860 C   0  0  0  0  0  0  0  0  0  0  0  0
  129.8980  126.0930   60.4550 N   0  0  0  0  0  0  0  0  0  0  0  0
  130.6760  125.7920   61.5330 C   0  0  0  0  0  0  0  0  0  0  0  0
  130.3860  125.9210   62.7230 O   0  0  0  0  0  0  0  0  0  0  0  0
  131.9470  125.2750   60.9680 C   0  0  0  0  0  0  0  0  0  0  0  0
  133.1090  124.8220   61.5940 C   0  0  0  0  0  0  0  0  0  0  0  0
  134.1720  124.3810   60.7970 C   0  0  0  0  0  0  0  0  0  0  0  0
  134.0610  124.3960   59.4010 C   0  0  0  0  0  0  0  0  0  0  0  0
  132.8860  124.8520   58.7910 C   0  0  0  0  0  0  0  0  0  0  0  0
  131.8390  125.2900   59.6040 C   0  0  0  0  0  0  0  0  0  0  0  0
  130.4960  125.8150   59.2590 C   0  0  0  0  0  0  0  0  0  0  0  0
  130.0220  125.9690   58.1330 O   0  0  0  0  0  0  0  0  0  0  0  0
  1  2  2  0
  2  3  1  0
  3  4  1  0
  4  5  2  0
  4  6  1  0
  6  7  1  0
  7  8  2  0
  7  9  1  0
  9 10  1  1
 10 11  1  0
 11 12  2  0
 12 13  1  0
 13 14  2  0
 14 15  1  0
 15 16  2  0
  9 17  1  0
 17 18  1  0
 18 19  2  0
 18 20  1  0
 20 21  2  0
 21 22  1  0
 22 23  2  0
 23 24  1  0
 24 25  2  0
 25 26  1  0
 26 27  2  0
  2 28  1  0
 28 29  1  1
 29 30  1  0
 30 31  2  0
 31 32  1  0
 32 33  2  0
 33 34  1  0
 34 35  2  0
 28 36  1  0
 36 37  1  0
 37 38  2  0
 37 39  1  0
 39 40  2  0
 40 41  1  0
 41 42  2  0
 42 43  1  0
 43 44  2  0
 44 45  1  0
 45 46  2  0
 16 11  1  0
 26 17  1  0
 35 30  1  0
 45 36  1  0
 25 20  1  0
 44 39  1  0
M  END
>  <Binding energies>  (73) 
[-10.8]

>  <Ligand effiencies>  (73) 
[-0.225]

>  <Interactions>  (73) 
["V-B:PRO:540:N:9856, V-B:TYR:539:CD2:9846, V-A:GLU:543:CD:4908, V-B:PRO:540:CB:9857, V-B:PRO:540:CD:9859, V-B:TYR:539:CE2:9848, V-A:ARG:545:CZ:4926, V-A:LEU:475:CD2:4259, V-B:PRO:540:CA:9855, V-A:ASP:366:CB:3212, V-A:ILE:369:CD1:3239, V-A:ASP:366:CG:3213, V-A:ILE:369:CG2:3237, V-A:TYR:484:CZ:4347, V-A:ILE:369:CB:3236, H-A:GLU:543:OE2:4910, V-B:GLU:543:CB:9878, V-B:GLU:543:CG:9879, V-A:TYR:484:CE2:4346, V-B:GLU:543:CD:9880, H-B:TYR:539:OH:9850, H-B:GLU:543:OE1:9881, V-A:ASP:366:CA:3210, V-B:HIS:456:CD2:9039, V-A:GLY:544:C:4912, V-B:GLY:544:C:9884, V-B:HIS:456:CG:9037, V-A:HIS:456:CE1:4070, V-B:HIS:456:CE1:9041, V-B:GLU:543:C:9874, H-A:GLU:543:OE1:4909, V-A:GLU:543:CB:4906, V-A:GLU:543:CG:4907, V-B:TYR:539:C:9839, V-B:GLU:543:CA:9876, V-A:ASP:366:C:3208, H-A:ARG:545:N:4920, H-B:GLU:543:OE2:9882"]

$$$$
RR1_Rahimova_2017
     RDKit          3D

 41 44  0  0  0  0  0  0  0  0999 V2000
  129.0020  133.9300   76.6040 C   0  0  0  0  0  0  0  0  0  0  0  0
  128.4590  132.6180   76.6850 O   0  0  0  0  0  0  0  0  0  0  0  0
  128.5870  131.7670   75.6050 C   0  0  0  0  0  0  0  0  0  0  0  0
  128.0810  130.4580   75.5640 C   0  0  0  0  0  0  0  0  0  0  0  0
  128.2660  129.6690   74.4330 C   0  0  0  0  0  0  0  0  0  0  0  0
  128.9500  130.1720   73.3250 C   0  0  0  0  0  0  0  0  0  0  0  0
  129.1250  129.2820   72.2480 N   0  0  0  0  0  0  0  0  0  0  0  0
  128.9900  127.9390   72.2170 C   0  0  0  0  0  0  0  0  0  0  0  0
  128.7440  127.2360   73.1970 O   0  0  0  0  0  0  0  0  0  0  0  0
  129.1750  127.3100   70.8270 C   0  0  0  0  0  0  0  0  0  0  0  0
  130.5240  128.0170   69.8190 S   0  0  0  0  0  0  0  0  0  0  0  0
  130.1000  127.2630   68.2850 C   0  0  0  0  0  0  0  0  0  0  0  0
  130.7570  126.2670   67.7470 N   0  0  0  0  0  0  0  0  0  0  0  0
  130.0920  126.0160   66.6240 C   0  0  0  0  0  0  0  0  0  0  0  0
  130.4950  124.9190   65.6800 C   0  0  0  0  0  0  0  0  0  0  0  0
  131.6400  125.0280   64.8730 C   0  0  0  0  0  0  0  0  0  0  0  0
  131.9870  123.9930   64.0020 C   0  0  0  0  0  0  0  0  0  0  0  0
  131.1750  122.8620   63.9570 C   0  0  0  0  0  0  0  0  0  0  0  0
  130.0620  122.7230   64.7220 N   0  0  0  0  0  0  0  0  0  0  0  0
  129.7420  123.7400   65.5630 C   0  0  0  0  0  0  0  0  0  0  0  0
  129.0500  126.7930   66.3980 N   0  0  0  0  0  0  0  0  0  0  0  0
  129.0530  127.5980   67.4650 N   0  0  0  0  0  0  0  0  0  0  0  0
  128.0210  128.6220   67.6260 C   0  0  0  0  0  0  0  0  0  0  0  0
  127.6940  129.4210   66.3530 C   0  0  0  0  0  0  0  0  0  0  0  0
  128.5290  130.1810   65.8500 O   0  0  0  0  0  0  0  0  0  0  0  0
  126.4550  129.2240   65.8610 N   0  0  0  0  0  0  0  0  0  0  0  0
  126.1390  129.7960   64.6360 N   0  0  0  0  0  0  0  0  0  0  0  0
  124.8330  129.9120   64.3130 C   0  0  0  0  0  0  0  0  0  0  0  0
  123.9030  129.6380   65.0790 O   0  0  0  0  0  0  0  0  0  0  0  0
  124.5460  130.4410   62.9230 C   0  0  0  0  0  0  0  0  0  0  0  0
  123.2350  130.7600   62.5530 C   0  0  0  0  0  0  0  0  0  0  0  0
  122.9470  131.2350   61.2780 C   0  0  0  0  0  0  0  0  0  0  0  0
  123.9660  131.4010   60.3270 C   0  0  0  0  0  0  0  0  0  0  0  0
  123.7460  131.8560   59.0390 O   0  0  0  0  0  0  0  0  0  0  0  0
  123.7760  130.9350   57.9550 C   0  0  0  0  0  0  0  0  0  0  0  0
  125.2860  131.0810   60.6750 C   0  0  0  0  0  0  0  0  0  0  0  0
  126.2500  131.2430   59.6940 O   0  0  0  0  0  0  0  0  0  0  0  0
  126.9390  130.1040   59.1900 C   0  0  0  0  0  0  0  0  0  0  0  0
  125.5640  130.6070   61.9690 C   0  0  0  0  0  0  0  0  0  0  0  0
  129.4570  131.4800   73.3620 C   0  0  0  0  0  0  0  0  0  0  0  0
  129.2690  132.2660   74.4950 C   0  0  0  0  0  0  0  0  0  0  0  0
  1  2  1  0
  2  3  1  0
  3  4  2  0
  4  5  1  0
  5  6  2  0
  6  7  1  0
  7  8  1  0
  8  9  2  0
  8 10  1  0
 10 11  1  0
 11 12  1  0
 12 13  2  0
 13 14  1  0
 14 15  1  0
 15 16  2  0
 16 17  1  0
 17 18  2  0
 18 19  1  0
 19 20  2  0
 14 21  2  0
 21 22  1  0
 22 23  1  0
 23 24  1  0
 24 25  2  0
 24 26  1  0
 26 27  1  0
 27 28  1  0
 28 29  2  0
 28 30  1  0
 30 31  2  0
 31 32  1  0
 32 33  2  0
 33 34  1  0
 34 35  1  0
 33 36  1  0
 36 37  1  0
 37 38  1  0
 36 39  2  0
  6 40  1  0
 40 41  2  0
 41  3  1  0
 22 12  1  0
 39 30  1  0
 20 15  1  0
M  END
>  <Binding energies>  (74) 
[-8.86]

>  <Ligand effiencies>  (74) 
[-0.20136363636363636]

>  <Interactions>  (74) 
["V-B:ASP:366:CB:8183, V-A:GLU:543:CD:4908, V-B:ASP:366:CG:8184, H-A:TYR:484:OH:4348, V-A:LEU:475:CD2:4259, V-B:ILE:369:CB:8207, V-B:GLY:453:C:9013, V-B:ILE:369:CG2:8208, V-B:GLY:453:CA:9015, H-B:ARG:545:NH1:9899, V-B:ASP:366:CA:8181, H-B:GLY:454:N:9021, V-B:ILE:369:CG1:8209, H-B:ARG:545:NH2:9900, V-A:TYR:484:CZ:4347, V-B:GLU:543:CB:9878, V-B:GLU:543:CG:9879, V-A:TYR:484:CE2:4346, V-B:GLU:543:CD:9880, V-B:HIS:456:CD2:9039, V-A:LYS:547:CE:4950, V-A:HIS:456:CE1:4070, H-B:LYS:547:NZ:9923, V-B:HIS:456:CE1:9041, V-A:GLU:543:CB:4906, V-B:TYR:484:CZ:9318, V-B:ARG:545:CZ:9898, H-B:TYR:484:OH:9319, H-B:HIS:456:NE2:9042, V-A:GLU:543:CG:4907, H-B:ARG:545:NE:9896, V-B:GLU:543:CA:9876, H-A:GLU:543:O:4903, V-B:ASP:366:C:8179, H-B:LYS:471:NZ:9192, H-B:GLU:543:OE2:9882"]

$$$$
RR22_Rahimova_2017
     RDKit          3D

 31 36  0  0  0  0  0  0  0  0999 V2000
  131.4280  126.9220   75.9280 O   0  0  0  0  0  0  0  0  0  0  0  0
  130.5000  127.3750   75.2620 C   0  0  0  0  0  0  0  0  0  0  0  0
  129.3440  127.9800   75.7260 N   0  0  0  0  0  0  0  0  0  0  0  0
  128.3830  128.5130   74.8090 C   0  0  1  0  0  0  0  0  0  0  0  0
  127.1490  127.8720   75.1460 O   0  0  0  0  0  0  0  0  0  0  0  0
  126.0720  128.6700   75.5340 C   0  0  0  0  0  0  0  0  0  0  0  0
  125.0280  128.0260   76.1980 C   0  0  0  0  0  0  0  0  0  0  0  0
  123.8990  128.7500   76.5810 C   0  0  0  0  0  0  0  0  0  0  0  0
  123.8120  130.1130   76.2930 C   0  0  0  0  0  0  0  0  0  0  0  0
  124.8570  130.7570   75.6280 C   0  0  0  0  0  0  0  0  0  0  0  0
  126.0050  130.0500   75.2600 C   0  0  0  0  0  0  0  0  0  0  0  0
  127.1700  130.6440   74.5000 C   0  0  1  0  0  0  0  0  0  0  0  0
  127.5920  132.0910   74.6570 C   0  0  0  0  0  0  0  0  0  0  0  0
  129.0920  131.9580   74.3790 C   0  0  0  0  0  0  0  0  0  0  0  0
  129.9420  133.1100   74.0210 C   0  0  0  0  0  0  0  0  0  0  0  0
  130.6280  133.8260   75.0130 C   0  0  0  0  0  0  0  0  0  0  0  0
  131.4300  134.9110   74.6700 C   0  0  0  0  0  0  0  0  0  0  0  0
  131.5510  135.2860   73.3350 C   0  0  0  0  0  0  0  0  0  0  0  0
  130.8770  134.5860   72.3380 C   0  0  0  0  0  0  0  0  0  0  0  0
  130.0760  133.5000   72.6800 C   0  0  0  0  0  0  0  0  0  0  0  0
  129.4830  130.7470   74.5250 N   0  0  0  0  0  0  0  0  0  0  0  0
  128.3700  129.9800   74.9100 N   0  0  0  0  0  0  0  0  0  0  0  0
  128.7800  128.0180   73.4260 C   0  0  0  0  0  0  0  0  0  0  0  0
  127.9350  128.0300   72.3680 C   0  0  0  0  0  0  0  0  0  0  0  0
  128.1930  127.6030   70.9800 C   0  0  0  0  0  0  0  0  0  0  0  0
  129.4400  127.7450   70.3530 C   0  0  0  0  0  0  0  0  0  0  0  0
  129.6100  127.3180   69.0350 C   0  0  0  0  0  0  0  0  0  0  0  0
  128.5190  126.7600   68.3700 C   0  0  0  0  0  0  0  0  0  0  0  0
  127.3000  126.6180   68.9480 N   0  0  0  0  0  0  0  0  0  0  0  0
  127.1540  127.0380   70.2310 C   0  0  0  0  0  0  0  0  0  0  0  0
  130.4210  127.3570   73.4450 S   0  0  0  0  0  0  0  0  0  0  0  0
  1  2  2  0
  2  3  1  0
  4  3  1  1
  4  5  1  0
  5  6  1  0
  6  7  2  0
  7  8  1  0
  8  9  2  0
  9 10  1  0
 10 11  2  0
 11 12  1  0
 12 13  1  1
 13 14  1  0
 14 15  1  0
 15 16  2  0
 16 17  1  0
 17 18  2  0
 18 19  1  0
 19 20  2  0
 14 21  2  0
 21 22  1  0
  4 23  1  0
 23 24  2  0
 24 25  1  0
 25 26  2  0
 26 27  1  0
 27 28  2  0
 28 29  1  0
 29 30  2  0
 23 31  1  0
 31  2  1  0
 22  4  1  0
 30 25  1  0
 11  6  1  0
 22 12  1  0
 20 15  1  0
M  END
>  <Binding energies>  (75) 
[-8.35]

>  <Ligand effiencies>  (75) 
[-0.2609375]

>  <Interactions>  (75) 
["V-B:GLU:543:CB:9878, V-B:VAL:457:CA:9046, V-B:HIS:456:CD2:9039, V-B:HIS:456:CB:9036, V-B:GLY:544:C:9884, V-B:HIS:456:CG:9037, V-B:LYS:471:CD:9190, V-A:LYS:547:CE:4950, V-B:HIS:456:C:9032, V-A:HIS:456:CE1:4070, H-B:LYS:547:NZ:9923, V-B:LYS:547:CE:9922, V-B:HIS:456:CE1:9041, V-B:GLU:543:C:9874, H-A:LYS:547:NZ:4951, V-A:GLU:543:CB:4906, V-A:GLU:543:C:4902, V-A:GLY:544:CA:4914, V-B:LYS:547:CD:9921, V-B:TYR:484:CB:9312, V-B:VAL:458:CG2:9058, V-B:HIS:456:CA:9034, V-B:VAL:457:C:9044"]

$$$$
RR24_Rahimova_2017
     RDKit          3D

 43 49  0  0  0  0  0  0  0  0999 V2000
  128.3890  127.7290   67.0320 C   0  0  0  0  0  0  0  0  0  0  0  0
  129.5130  127.1980   67.9330 C   0  0  2  0  0  0  0  0  0  0  0  0
  129.9290  125.7350   67.5990 C   0  0  0  0  0  0  0  0  0  0  0  0
  129.3850  124.7610   68.1290 O   0  0  0  0  0  0  0  0  0  0  0  0
  130.9530  125.6750   66.6970 O   0  0  0  0  0  0  0  0  0  0  0  0
  130.7310  125.1330   65.4520 C   0  0  0  0  0  0  0  0  0  0  0  0
  130.1290  123.8770   65.3490 C   0  0  0  0  0  0  0  0  0  0  0  0
  129.8910  123.3230   64.0950 C   0  0  0  0  0  0  0  0  0  0  0  0
  130.2450  124.0230   62.9390 C   0  0  0  0  0  0  0  0  0  0  0  0
  129.9980  123.3990   61.5600 C   0  0  1  0  0  0  0  0  0  0  0  0
  128.5320  123.5750   61.1000 C   0  0  0  0  0  0  0  0  0  0  0  0
  128.2020  124.0760   59.8960 C   0  0  0  0  0  0  0  0  0  0  0  0
  129.1490  124.4700   58.9820 N   0  0  0  0  0  0  0  0  0  0  0  0
  130.4920  124.3730   59.2580 C   0  0  0  0  0  0  0  0  0  0  0  0
  131.2950  124.7960   58.2490 N   0  0  0  0  0  0  0  0  0  0  0  0
  132.6500  124.8470   58.3690 C   0  0  0  0  0  0  0  0  0  0  0  0
  133.3010  125.5230   57.5690 O   0  0  0  0  0  0  0  0  0  0  0  0
  133.1390  124.2430   59.5170 N   0  0  0  0  0  0  0  0  0  0  0  0
  134.6090  124.1910   59.6530 C   0  0  0  0  0  0  0  0  0  0  0  0
  132.4150  123.7820   60.6030 C   0  0  0  0  0  0  0  0  0  0  0  0
  132.9220  123.3000   61.6200 O   0  0  0  0  0  0  0  0  0  0  0  0
  130.9610  123.8910   60.4390 C   0  0  0  0  0  0  0  0  0  0  0  0
  126.7590  124.1280   59.7350 C   0  0  0  0  0  0  0  0  0  0  0  0
  125.9320  124.5590   58.6960 C   0  0  0  0  0  0  0  0  0  0  0  0
  124.5460  124.4780   58.8510 C   0  0  0  0  0  0  0  0  0  0  0  0
  123.9970  123.9710   60.0320 C   0  0  0  0  0  0  0  0  0  0  0  0
  124.8300  123.5410   61.0690 C   0  0  0  0  0  0  0  0  0  0  0  0
  126.2140  123.6250   60.9090 C   0  0  0  0  0  0  0  0  0  0  0  0
  127.3100  123.2450   61.8260 C   0  0  0  0  0  0  0  0  0  0  0  0
  127.2590  122.7590   62.9540 O   0  0  0  0  0  0  0  0  0  0  0  0
  130.8310  125.2890   63.0440 C   0  0  0  0  0  0  0  0  0  0  0  0
  131.0680  125.8450   64.2980 C   0  0  0  0  0  0  0  0  0  0  0  0
  129.2060  127.3840   69.3820 N   0  0  0  0  0  0  0  0  0  0  0  0
  130.1230  127.9070   70.2440 C   0  0  0  0  0  0  0  0  0  0  0  0
  131.2710  128.2720   69.9830 O   0  0  0  0  0  0  0  0  0  0  0  0
  129.4480  127.9420   71.5650 C   0  0  0  0  0  0  0  0  0  0  0  0
  129.9030  128.3740   72.8120 C   0  0  0  0  0  0  0  0  0  0  0  0
  129.0340  128.2930   73.9060 C   0  0  0  0  0  0  0  0  0  0  0  0
  127.7370  127.7890   73.7420 C   0  0  0  0  0  0  0  0  0  0  0  0
  127.3000  127.3610   72.4840 C   0  0  0  0  0  0  0  0  0  0  0  0
  128.1820  127.4490   71.4050 C   0  0  0  0  0  0  0  0  0  0  0  0
  128.0110  127.0840   69.9770 C   0  0  0  0  0  0  0  0  0  0  0  0
  127.0060  126.6160   69.4420 O   0  0  0  0  0  0  0  0  0  0  0  0
  2  1  1  6
  2  3  1  0
  3  4  2  0
  3  5  1  0
  5  6  1  0
  6  7  2  0
  7  8  1  0
  8  9  2  0
 10  9  1  1
 10 11  1  0
 11 12  2  0
 12 13  1  0
 13 14  1  0
 14 15  1  0
 15 16  1  0
 16 17  2  0
 16 18  1  0
 18 19  1  0
 18 20  1  0
 20 21  2  0
 20 22  1  0
 12 23  1  0
 23 24  2  0
 24 25  1  0
 25 26  2  0
 26 27  1  0
 27 28  2  0
 28 29  1  0
 29 30  2  0
  9 31  1  0
 31 32  2  0
  2 33  1  0
 33 34  1  0
 34 35  2  0
 34 36  1  0
 36 37  2  0
 37 38  1  0
 38 39  2  0
 39 40  1  0
 40 41  2  0
 41 42  1  0
 42 43  2  0
 32  6  1  0
 42 33  1  0
 22 10  1  0
 28 23  1  0
 41 36  1  0
 29 11  1  0
 22 14  2  0
M  END
>  <Binding energies>  (76) 
[-11.42]

>  <Ligand effiencies>  (76) 
[-0.25377777777777777]

>  <Interactions>  (76) 
["V-B:LEU:363:CA:8156, V-B:ASP:366:CB:8183, V-A:GLU:543:CD:4908, V-B:ASP:366:CG:8184, V-B:PRO:540:CB:9857, H-A:TYR:484:OH:4348, V-B:TYR:539:CE2:9848, V-B:TYR:539:CZ:9849, V-B:PRO:540:CA:9855, V-A:ASP:366:CB:3212, V-A:ILE:369:CD1:3239, H-B:ALA:541:N:9863, V-B:ASN:362:CB:8147, V-A:ASP:366:CG:3213, V-A:ILE:369:CG2:3237, V-A:ILE:369:CG1:3238, V-A:TYR:484:CZ:4347, V-A:ILE:369:CB:3236, V-B:GLU:543:CB:9878, V-B:GLU:543:CG:9879, V-A:TYR:484:CE2:4346, V-B:GLU:543:CD:9880, H-B:TYR:539:OH:9850, V-B:ASN:362:C:8143, V-A:ASP:366:CA:3210, V-B:HIS:456:CD2:9039, V-B:GLY:544:C:9884, V-B:HIS:456:CG:9037, V-A:HIS:456:CE1:4070, V-B:LYS:547:CE:9922, V-B:HIS:456:CE1:9041, V-B:GLU:543:C:9874, V-A:GLU:543:CB:4906, V-A:GLU:543:C:4902, V-A:ASP:366:C:3208, H-A:ARG:545:N:4920, H-A:TYR:531:OH:4795"]

$$$$
RR25_Rahimova_2017
     RDKit          3D

 39 44  0  0  0  0  0  0  0  0999 V2000
  134.2450  124.5260   66.1600 O   0  0  0  0  0  0  0  0  0  0  0  0
  133.6030  124.7720   65.1380 C   0  0  0  0  0  0  0  0  0  0  0  0
  134.3290  124.8760   63.9770 O   0  0  0  0  0  0  0  0  0  0  0  0
  133.7110  124.9000   62.7400 C   0  0  0  0  0  0  0  0  0  0  0  0
  134.4650  124.4570   61.6540 C   0  0  0  0  0  0  0  0  0  0  0  0
  133.9080  124.4620   60.3770 C   0  0  0  0  0  0  0  0  0  0  0  0
  132.5960  124.9110   60.1660 C   0  0  0  0  0  0  0  0  0  0  0  0
  132.0020  124.9080   58.8070 N   0  0  0  0  0  0  0  0  0  0  0  0
  132.7430  125.0760   57.8420 O   0  0  0  0  0  0  0  0  0  0  0  0
  130.7920  124.7360   58.6950 O   0  0  0  0  0  0  0  0  0  0  0  0
  131.8580  125.3650   61.2720 C   0  0  0  0  0  0  0  0  0  0  0  0
  132.4040  125.3740   62.5580 C   0  0  0  0  0  0  0  0  0  0  0  0
  131.6440  125.8440   63.7850 C   0  0  0  0  0  0  0  0  0  0  0  0
  132.0680  124.9980   65.0190 C   0  0  2  0  0  0  0  0  0  0  0  0
  131.3820  125.5160   66.3160 C   0  0  0  0  0  0  0  0  0  0  0  0
  132.0170  125.3640   67.3640 O   0  0  0  0  0  0  0  0  0  0  0  0
  130.2060  126.2130   66.2890 N   0  0  0  0  0  0  0  0  0  0  0  0
  129.2680  126.1570   65.1480 C   0  0  0  0  0  0  0  0  0  0  0  0
  128.6350  127.5500   64.9490 C   0  0  0  0  0  0  0  0  0  0  0  0
  128.0040  128.0320   66.1810 N   0  0  0  0  0  0  0  0  0  0  0  0
  127.2870  129.2950   65.9600 C   0  0  0  0  0  0  0  0  0  0  0  0
  126.3810  129.2610   64.7010 C   0  0  0  0  0  0  0  0  0  0  0  0
  126.1750  130.5650   64.0050 N   0  0  0  0  0  0  0  0  0  0  0  0
  127.3290  131.2340   63.6550 C   0  0  0  0  0  0  0  0  0  0  0  0
  128.4620  130.8150   63.9230 O   0  0  0  0  0  0  0  0  0  0  0  0
  127.1040  132.5240   62.8900 C   0  0  0  0  0  0  0  0  0  0  0  0
  128.2090  133.2710   62.4620 C   0  0  0  0  0  0  0  0  0  0  0  0
  128.0390  134.4570   61.7500 C   0  0  0  0  0  0  0  0  0  0  0  0
  126.7660  134.9320   61.4410 C   0  0  0  0  0  0  0  0  0  0  0  0
  125.6200  134.2110   61.8540 C   0  0  0  0  0  0  0  0  0  0  0  0
  124.2990  134.6330   61.5730 C   0  0  0  0  0  0  0  0  0  0  0  0
  123.2140  133.8730   62.0060 C   0  0  0  0  0  0  0  0  0  0  0  0
  123.4070  132.6920   62.7190 C   0  0  0  0  0  0  0  0  0  0  0  0
  124.6960  132.2340   63.0200 C   0  0  0  0  0  0  0  0  0  0  0  0
  125.8050  133.0020   62.5810 C   0  0  0  0  0  0  0  0  0  0  0  0
  124.8640  130.9380   63.7900 C   0  0  0  0  0  0  0  0  0  0  0  0
  123.8970  130.2730   64.1730 O   0  0  0  0  0  0  0  0  0  0  0  0
  129.0090  128.1580   67.2380 C   0  0  0  0  0  0  0  0  0  0  0  0
  129.6890  126.8020   67.5460 C   0  0  0  0  0  0  0  0  0  0  0  0
  1  2  2  0
  2  3  1  0
  3  4  1  0
  4  5  2  0
  5  6  1  0
  6  7  2  0
  7  8  1  0
  8  9  2  0
  8 10  1  0
  7 11  1  0
 11 12  2  0
 12 13  1  0
 13 14  1  0
 14 15  1  1
 15 16  2  0
 15 17  1  0
 17 18  1  0
 18 19  1  0
 19 20  1  0
 20 21  1  0
 21 22  1  0
 22 23  1  0
 23 24  1  0
 24 25  2  0
 24 26  1  0
 26 27  2  0
 27 28  1  0
 28 29  2  0
 29 30  1  0
 30 31  2  0
 31 32  1  0
 32 33  2  0
 33 34  1  0
 34 35  2  0
 34 36  1  0
 36 37  2  0
 20 38  1  0
 38 39  1  0
 14  2  1  0
 39 17  1  0
 12  4  1  0
 36 23  1  0
 35 26  1  0
 35 30  1  0
M  CHG  2   8   1  10  -1
M  END
>  <Binding energies>  (77) 
[-10.36]

>  <Ligand effiencies>  (77) 
[-0.26564102564102565]

>  <Interactions>  (77) 
["V-A:ARG:545:CD:4923, V-A:GLU:543:CD:4908, H-A:GLY:454:N:4050, H-A:TYR:484:OH:4348, V-B:TYR:539:CE2:9848, V-B:TYR:539:CZ:9849, H-A:ARG:545:NE:4924, V-A:ARG:545:CZ:4926, V-A:PRO:540:C:4881, V-A:ASP:366:CB:3212, V-A:TYR:539:CD1:4873, V-B:GLY:454:CA:9020, V-B:GLY:453:C:9013, V-A:TYR:539:C:4867, V-B:ILE:369:CG2:8208, V-B:LEU:475:CD2:9230, H-B:GLY:454:N:9021, V-B:ILE:369:CG1:8209, H-B:ARG:545:NH2:9900, V-A:ILE:369:CD1:3239, V-A:GLY:454:CA:4049, V-A:ASP:366:CG:3213, V-B:GLU:543:CB:9878, V-B:GLU:543:CG:9879, V-B:GLU:543:CD:9880, H-B:TYR:539:OH:9850, V-A:ASP:366:CA:3210, V-A:HIS:456:CE1:4070, H-A:ARG:545:NH2:4928, V-A:GLU:543:CB:4906, V-B:TYR:484:CZ:9318, H-B:TYR:484:OH:9319, V-A:ALA:541:CB:4892, V-A:GLU:543:CG:4907, V-B:SER:385:C:8376, H-A:HIS:456:ND1:4067, H-A:ARG:545:NH1:4927, H-A:ILE:455:N:4055"]

$$$$
RR27_Rahimova_2017
     RDKit          3D

 39 44  0  0  0  0  0  0  0  0999 V2000
  127.3000  122.8500   62.1550 O   0  0  0  0  0  0  0  0  0  0  0  0
  128.4650  123.2390   62.0380 C   0  0  0  0  0  0  0  0  0  0  0  0
  129.5770  122.4930   62.8310 C   0  0  0  0  0  0  0  0  0  0  0  0
  130.3970  123.4240   63.7440 C   0  0  0  0  0  0  0  0  0  0  0  0
  131.7990  123.4670   63.6890 C   0  0  0  0  0  0  0  0  0  0  0  0
  132.5090  124.3220   64.5270 C   0  0  0  0  0  0  0  0  0  0  0  0
  131.8230  125.1370   65.4230 C   0  0  0  0  0  0  0  0  0  0  0  0
  130.4330  125.1030   65.4900 C   0  0  0  0  0  0  0  0  0  0  0  0
  129.7220  124.2480   64.6520 C   0  0  0  0  0  0  0  0  0  0  0  0
  130.4130  121.5760   61.9190 C   0  0  0  0  0  0  0  0  0  0  0  0
  130.0830  120.2280   61.7250 C   0  0  0  0  0  0  0  0  0  0  0  0
  130.8680  119.4240   60.9020 C   0  0  0  0  0  0  0  0  0  0  0  0
  131.9880  119.9630   60.2750 C   0  0  0  0  0  0  0  0  0  0  0  0
  132.3340  121.2980   60.4670 C   0  0  0  0  0  0  0  0  0  0  0  0
  131.5500  122.1000   61.2900 C   0  0  0  0  0  0  0  0  0  0  0  0
  128.8120  124.1930   61.1270 N   0  0  0  0  0  0  0  0  0  0  0  0
  130.1180  124.8690   61.1180 C   0  0  0  0  0  0  0  0  0  0  0  0
  129.9990  126.0850   62.0640 C   0  0  0  0  0  0  0  0  0  0  0  0
  128.8140  127.0300   61.6870 C   0  0  0  0  0  0  0  0  0  0  0  0
  128.5820  128.1970   62.6640 C   0  0  0  0  0  0  0  0  0  0  0  0
  128.2290  127.8600   63.9390 N   0  0  0  0  0  0  0  0  0  0  0  0
  128.0380  128.8530   64.8510 C   0  0  0  0  0  0  0  0  0  0  0  0
  127.6880  128.6410   66.1580 O   0  0  0  0  0  0  0  0  0  0  0  0
  128.2110  130.1890   64.4400 C   0  0  0  0  0  0  0  0  0  0  0  0
  128.1080  131.3910   65.0780 N   0  0  0  0  0  0  0  0  0  0  0  0
  128.3880  132.3740   64.1480 N   0  0  0  0  0  0  0  0  0  0  0  0
  128.6670  131.7890   62.9640 N   0  0  0  0  0  0  0  0  0  0  0  0
  128.9770  132.6010   61.7900 C   0  0  0  0  0  0  0  0  0  0  0  0
  130.2840  132.2180   61.1090 C   0  0  0  0  0  0  0  0  0  0  0  0
  131.4000  131.8650   61.8740 C   0  0  0  0  0  0  0  0  0  0  0  0
  132.5950  131.5040   61.2490 C   0  0  0  0  0  0  0  0  0  0  0  0
  132.6780  131.4880   59.8570 C   0  0  0  0  0  0  0  0  0  0  0  0
  131.5640  131.8300   59.0870 C   0  0  0  0  0  0  0  0  0  0  0  0
  131.6570  131.7850   57.3640 Cl  0  0  0  0  0  0  0  0  0  0  0  0
  130.3730  132.1990   59.7120 C   0  0  0  0  0  0  0  0  0  0  0  0
  128.5650  130.4140   63.0920 C   0  0  0  0  0  0  0  0  0  0  0  0
  128.7510  129.4590   62.1770 N   0  0  0  0  0  0  0  0  0  0  0  0
  127.5160  126.2320   61.3570 C   0  0  0  0  0  0  0  0  0  0  0  0
  127.7720  124.9930   60.4620 C   0  0  0  0  0  0  0  0  0  0  0  0
  1  2  2  0
  2  3  1  0
  3  4  1  0
  4  5  2  0
  5  6  1  0
  6  7  2  0
  7  8  1  0
  8  9  2  0
  3 10  1  0
 10 11  2  0
 11 12  1  0
 12 13  2  0
 13 14  1  0
 14 15  2  0
  2 16  1  0
 16 17  1  0
 17 18  1  0
 18 19  1  0
 19 20  1  0
 20 21  2  0
 21 22  1  0
 22 23  1  0
 22 24  2  0
 24 25  1  0
 25 26  2  0
 26 27  1  0
 27 28  1  0
 28 29  1  0
 29 30  2  0
 30 31  1  0
 31 32  2  0
 32 33  1  0
 33 34  1  0
 33 35  2  0
 27 36  1  0
 36 37  2  0
 19 38  1  0
 38 39  1  0
  9  4  1  0
 15 10  1  0
 39 16  1  0
 37 20  1  0
 36 24  1  0
 35 29  1  0
M  END
>  <Binding energies>  (78) 
[-10.01]

>  <Ligand effiencies>  (78) 
[-0.25025]

>  <Interactions>  (78) 
["V-B:TYR:539:CD2:9846, V-A:GLU:543:CD:4908, V-B:TYR:539:CE2:9848, V-A:LEU:475:CD2:4259, V-A:PRO:540:C:4881, V-A:PRO:540:CB:4885, V-A:PRO:540:N:4884, V-A:PRO:540:CA:4883, H-B:ALA:541:N:9863, V-A:ILE:369:CG2:3237, V-B:GLU:543:CG:9879, V-B:GLU:543:CD:9880, V-B:ALA:541:CB:9864, H-B:TYR:484:OH:9319, V-A:GLU:543:CG:4907, V-A:LEU:363:CD1:3189, H-B:GLU:543:OE2:9882"]

$$$$
RR28_Rahimova_2017
     RDKit          3D

 46 49  0  0  0  0  0  0  0  0999 V2000
  132.6030  120.9520   60.5750 C   0  0  0  0  0  0  0  0  0  0  0  0
  131.2290  121.4130   61.0490 C   0  0  0  0  0  0  0  0  0  0  0  0
  130.4240  120.5850   61.4720 O   0  0  0  0  0  0  0  0  0  0  0  0
  130.9820  122.7360   60.9700 N   0  0  0  0  0  0  0  0  0  0  0  0
  129.7480  123.4620   61.3460 C   0  0  0  0  0  0  0  0  0  0  0  0
  129.8830  123.9160   62.8280 C   0  0  0  0  0  0  0  0  0  0  0  0
  129.9310  125.2860   63.1260 C   0  0  0  0  0  0  0  0  0  0  0  0
  130.0560  125.7280   64.4390 C   0  0  0  0  0  0  0  0  0  0  0  0
  130.1370  124.8090   65.4870 C   0  0  0  0  0  0  0  0  0  0  0  0
  130.2780  125.3140   66.9220 C   0  0  0  0  0  0  0  0  0  0  0  0
  131.5430  125.6050   67.2350 F   0  0  0  0  0  0  0  0  0  0  0  0
  129.5460  126.4130   67.1000 F   0  0  0  0  0  0  0  0  0  0  0  0
  129.8480  124.3710   67.7620 F   0  0  0  0  0  0  0  0  0  0  0  0
  130.0920  123.4420   65.2030 C   0  0  0  0  0  0  0  0  0  0  0  0
  129.9670  123.0000   63.8880 C   0  0  0  0  0  0  0  0  0  0  0  0
  128.4820  122.5740   61.0700 C   0  0  0  0  0  0  0  0  0  0  0  0
  128.2520  122.2850   59.5650 C   0  0  0  0  0  0  0  0  0  0  0  0
  128.1120  123.5930   58.9060 N   0  0  0  0  0  0  0  0  0  0  0  0
  126.8790  124.1390   58.7150 C   0  0  0  0  0  0  0  0  0  0  0  0
  125.8440  123.5030   58.9250 O   0  0  0  0  0  0  0  0  0  0  0  0
  126.7730  125.5380   58.0620 C   0  0  0  0  0  0  0  0  0  0  0  0
  126.2320  126.6730   58.9740 C   0  0  0  0  0  0  0  0  0  0  0  0
  127.2890  127.7060   59.4330 C   0  0  0  0  0  0  0  0  0  0  0  0
  128.4350  127.3030   59.6510 O   0  0  0  0  0  0  0  0  0  0  0  0
  126.9740  129.0320   59.4540 N   0  0  0  0  0  0  0  0  0  0  0  0
  125.5960  129.5340   59.5160 C   0  0  0  0  0  0  0  0  0  0  0  0
  125.2050  129.5630   61.0100 C   0  0  0  0  0  0  0  0  0  0  0  0
  126.1580  130.4120   61.9210 C   0  0  0  0  0  0  0  0  0  0  0  0
  125.9320  130.0450   63.3350 N   0  0  0  0  0  0  0  0  0  0  0  0
  124.7650  130.0150   64.0100 C   0  0  0  0  0  0  0  0  0  0  0  0
  124.8450  129.6110   65.4790 C   0  0  0  0  0  0  0  0  0  0  0  0
  123.6740  130.2920   63.5140 O   0  0  0  0  0  0  0  0  0  0  0  0
  125.7530  131.9130   61.7530 C   0  0  0  0  0  0  0  0  0  0  0  0
  126.6820  132.9640   61.8150 C   0  0  0  0  0  0  0  0  0  0  0  0
  126.2790  134.2880   61.6590 C   0  0  0  0  0  0  0  0  0  0  0  0
  124.9340  134.5950   61.4400 C   0  0  0  0  0  0  0  0  0  0  0  0
  124.4760  136.0420   61.2630 C   0  0  0  0  0  0  0  0  0  0  0  0
  125.2460  136.6730   60.3750 F   0  0  0  0  0  0  0  0  0  0  0  0
  123.2190  136.0520   60.8210 F   0  0  0  0  0  0  0  0  0  0  0  0
  124.5230  136.7280   62.4070 F   0  0  0  0  0  0  0  0  0  0  0  0
  123.9970  133.5610   61.3850 C   0  0  0  0  0  0  0  0  0  0  0  0
  124.4040  132.2400   61.5410 C   0  0  0  0  0  0  0  0  0  0  0  0
  127.6540  130.1240   61.5100 C   0  0  0  0  0  0  0  0  0  0  0  0
  127.9320  130.0080   59.9870 C   0  0  0  0  0  0  0  0  0  0  0  0
  129.3380  124.4020   58.9490 C   0  0  0  0  0  0  0  0  0  0  0  0
  129.6140  124.7290   60.4400 C   0  0  0  0  0  0  0  0  0  0  0  0
  1  2  1  0
  2  3  2  0
  2  4  1  0
  4  5  1  0
  5  6  1  0
  6  7  2  0
  7  8  1  0
  8  9  2  0
  9 10  1  0
 10 11  1  0
 10 12  1  0
 10 13  1  0
  9 14  1  0
 14 15  2  0
  5 16  1  0
 16 17  1  0
 17 18  1  0
 18 19  1  0
 19 20  2  0
 19 21  1  0
 21 22  1  0
 22 23  1  0
 23 24  2  0
 23 25  1  0
 25 26  1  0
 26 27  1  0
 27 28  1  0
 28 29  1  0
 29 30  1  0
 30 31  1  0
 30 32  2  0
 28 33  1  0
 33 34  2  0
 34 35  1  0
 35 36  2  0
 36 37  1  0
 37 38  1  0
 37 39  1  0
 37 40  1  0
 36 41  1  0
 41 42  2  0
 28 43  1  0
 43 44  1  0
 18 45  1  0
 45 46  1  0
 46  5  1  0
 15  6  1  0
 44 25  1  0
 42 33  1  0
M  END
>  <Binding energies>  (79) 
[-8.04]

>  <Ligand effiencies>  (79) 
[-0.16749999999999998]

>  <Interactions>  (79) 
["V-B:PRO:540:N:9856, V-B:ASP:366:CB:8183, V-B:TYR:539:CD2:9846, V-A:GLU:543:CD:4908, V-B:ASP:366:CG:8184, V-B:TYR:539:CE2:9848, V-B:TYR:539:CZ:9849, V-A:LEU:475:CD2:4259, V-B:PRO:540:CA:9855, V-A:TYR:539:CD1:4873, V-B:ILE:369:CG2:8208, V-B:LEU:475:CD2:9230, V-A:TYR:539:CE1:4875, H-B:GLY:454:N:9021, H-B:ARG:545:NH2:9900, V-A:ILE:369:CG2:3237, V-A:TYR:484:CZ:4347, V-B:GLU:543:CB:9878, V-B:GLU:543:CG:9879, V-A:TYR:484:CE2:4346, V-B:GLU:543:CD:9880, V-A:HIS:456:CE1:4070, V-B:GLU:543:C:9874, V-B:ARG:545:CZ:9898, H-B:TYR:484:OH:9319, V-B:TYR:539:C:9839, V-B:GLU:543:CA:9876, V-B:SER:385:CB:8380, V-B:SER:385:CA:8378, V-B:SER:385:C:8376, V-B:ARG:545:CD:9895, V-A:TYR:484:CD2:4344, V-B:LEU:373:CD1:8251, V-A:TYR:539:CG:4872, V-B:LEU:475:CG:9228"]

$$$$
RR29_Rahimova_2017
     RDKit          3D

 18 19  0  0  0  0  0  0  0  0999 V2000
  129.7400  124.7490   67.7410 C   0  0  0  0  0  0  0  0  0  0  0  0
  129.7910  125.8580   66.7000 C   0  0  0  0  0  0  0  0  0  0  0  0
  129.2590  127.2080   67.2300 C   0  0  0  0  0  0  0  0  0  0  0  0
  128.3420  127.0180   68.4560 C   0  0  0  0  0  0  0  0  0  0  0  0
  129.0700  127.2760   69.7660 C   0  0  0  0  0  0  0  0  0  0  0  0
  130.1920  128.1270   69.7920 C   0  0  0  0  0  0  0  0  0  0  0  0
  130.8770  128.3800   70.9890 C   0  0  0  0  0  0  0  0  0  0  0  0
  130.4140  127.7510   72.1390 C   0  0  0  0  0  0  0  0  0  0  0  0
  129.3270  126.9230   72.1200 C   0  0  0  0  0  0  0  0  0  0  0  0
  128.6220  126.6630   70.9500 C   0  0  0  0  0  0  0  0  0  0  0  0
  129.0790  126.4780   73.3800 O   0  0  0  0  0  0  0  0  0  0  0  0
  130.1780  126.8870   74.1500 C   0  0  0  0  0  0  0  0  0  0  0  0
  130.8810  127.8520   73.4120 O   0  0  0  0  0  0  0  0  0  0  0  0
  130.2380  125.5820   65.5310 N   0  0  0  0  0  0  0  0  0  0  0  0
  130.2050  126.5610   64.5620 N   0  0  0  0  0  0  0  0  0  0  0  0
  129.4510  126.4950   63.4520 C   0  0  0  0  0  0  0  0  0  0  0  0
  128.6250  125.4920   63.1510 N   0  0  0  0  0  0  0  0  0  0  0  0
  129.5300  127.5000   62.5930 N   0  0  0  0  0  0  0  0  0  0  0  0
  1  2  1  0
  2  3  1  0
  3  4  1  0
  4  5  1  0
  5  6  2  0
  6  7  1  0
  7  8  2  0
  8  9  1  0
  9 10  2  0
  9 11  1  0
 11 12  1  0
 12 13  1  0
  2 14  2  0
 14 15  1  0
 15 16  1  0
 16 17  1  0
 16 18  2  0
 10  5  1  0
 13  8  1  0
M  CHG  1  18   1
M  END
>  <Binding energies>  (80) 
[-7.01]

>  <Ligand effiencies>  (80) 
[-0.30478260869565216]

>  <Interactions>  (80) 
["V-A:GLU:543:CD:4908, V-A:TYR:484:CZ:4347, H-A:GLU:543:OE2:4910, V-B:GLU:543:CB:9878, V-B:GLU:543:CG:9879, V-A:TYR:484:CE2:4346, V-B:GLU:543:CD:9880, H-B:GLU:543:OE1:9881, V-A:GLY:544:C:4912, V-A:HIS:456:CD2:4068, V-A:HIS:456:CE1:4070, H-B:LYS:547:NZ:9923, V-B:HIS:456:CE1:9041, V-B:GLU:543:C:9874, H-A:LYS:547:NZ:4951, H-A:GLU:543:OE1:4909, V-A:GLU:543:CB:4906, V-A:GLU:543:C:4902, V-A:GLY:544:CA:4914, V-B:GLU:543:CA:9876, H-B:GLU:543:OE2:9882"]

$$$$
RR30_Rahimova_2017
     RDKit          3D

 18 19  0  0  0  0  0  0  0  0999 V2000
  123.7090  127.3610   74.8740 C   0  0  0  0  0  0  0  0  0  0  0  0
  124.1800  128.0730   76.1500 C   0  0  0  0  0  0  0  0  0  0  0  0
  125.2240  129.1300   75.8640 C   0  0  0  0  0  0  0  0  0  0  0  0
  125.1890  130.4050   76.1650 N   0  0  0  0  0  0  0  0  0  0  0  0
  126.3780  130.9440   75.6800 N   0  0  0  0  0  0  0  0  0  0  0  0
  127.0240  129.9520   75.1210 C   0  0  0  0  0  0  0  0  0  0  0  0
  128.6040  130.0020   74.3400 S   0  0  0  0  0  0  0  0  0  0  0  0
  129.0770  128.2490   74.4790 C   0  0  0  0  0  0  0  0  0  0  0  0
  129.2550  127.5880   73.1090 C   0  0  0  0  0  0  0  0  0  0  0  0
  129.0110  126.3860   72.9850 O   0  0  0  0  0  0  0  0  0  0  0  0
  129.7120  128.3890   72.1220 N   0  0  0  0  0  0  0  0  0  0  0  0
  129.9550  128.0200   70.8070 C   0  0  0  0  0  0  0  0  0  0  0  0
  131.0760  128.1150   70.1280 N   0  0  0  0  0  0  0  0  0  0  0  0
  130.9470  127.6450   68.8270 N   0  0  0  0  0  0  0  0  0  0  0  0
  129.7410  127.2070   68.5490 C   0  0  0  0  0  0  0  0  0  0  0  0
  129.3530  126.6510   67.1980 C   0  0  0  0  0  0  0  0  0  0  0  0
  128.6430  127.3380   69.8960 S   0  0  0  0  0  0  0  0  0  0  0  0
  126.3540  128.7740   75.2050 O   0  0  0  0  0  0  0  0  0  0  0  0
  1  2  1  0
  2  3  1  0
  3  4  2  0
  4  5  1  0
  5  6  2  0
  6  7  1  0
  7  8  1  0
  8  9  1  0
  9 10  2  0
  9 11  1  0
 11 12  1  0
 12 13  2  0
 13 14  1  0
 14 15  2  0
 15 16  1  0
 15 17  1  0
  6 18  1  0
 18  3  1  0
 17 12  1  0
M  END
>  <Binding energies>  (81) 
[-6.33]

>  <Ligand effiencies>  (81) 
[-0.3331578947368421]

>  <Interactions>  (81) 
["V-A:GLU:543:CD:4908, V-B:GLU:543:CB:9878, V-B:GLU:543:CG:9879, V-B:HIS:456:CD2:9039, V-B:HIS:456:CB:9036, V-B:HIS:456:CG:9037, V-B:HIS:456:C:9032, V-A:HIS:456:CE1:4070, H-B:LYS:547:NZ:9923, H-A:GLY:544:O:4913, V-B:LYS:547:CE:9922, V-B:HIS:456:CE1:9041, H-A:LYS:547:NZ:4951, V-A:GLU:543:CB:4906, V-A:GLU:543:C:4902, H-B:HIS:456:NE2:9042, V-B:LYS:547:CD:9921, H-A:GLU:543:O:4903, V-B:VAL:458:CG2:9058, V-B:VAL:457:C:9044, H-B:LYS:471:NZ:9192, V-B:LYS:547:CG:9920, V-B:LYS:547:CB:9919, H-A:ARG:545:N:4920"]

$$$$
RR31_Rahimova_2017
     RDKit          3D

 18 19  0  0  0  0  0  0  0  0999 V2000
  129.5920  128.5050   72.7250 C   0  0  0  0  0  0  0  0  0  0  0  0
  129.6630  127.9840   71.2950 C   0  0  0  0  0  0  0  0  0  0  0  0
  130.8100  128.2250   70.5390 C   0  0  0  0  0  0  0  0  0  0  0  0
  130.9060  127.7590   69.2290 C   0  0  0  0  0  0  0  0  0  0  0  0
  129.8620  127.0290   68.6400 C   0  0  0  0  0  0  0  0  0  0  0  0
  129.9390  126.5640   67.3250 N   0  0  0  0  0  0  0  0  0  0  0  0
  130.4580  125.2210   67.0000 C   0  0  0  0  0  0  0  0  0  0  0  0
  130.8520  125.0390   65.5150 C   0  0  0  0  0  0  0  0  0  0  0  0
  129.7260  125.3560   64.6330 N   0  0  0  0  0  0  0  0  0  0  0  0
  130.0580  125.1580   63.2180 C   0  0  0  0  0  0  0  0  0  0  0  0
  131.4620  125.6790   62.8500 C   0  0  0  0  0  0  0  0  0  0  0  0
  131.4710  126.4370   61.5130 C   0  0  0  0  0  0  0  0  0  0  0  0
  131.3790  127.9460   61.7660 N   0  0  0  0  0  0  0  0  0  0  0  0
  129.3690  126.7550   64.8640 C   0  0  0  0  0  0  0  0  0  0  0  0
  128.9290  126.9740   66.3290 C   0  0  0  0  0  0  0  0  0  0  0  0
  128.7110  126.8020   69.4080 C   0  0  0  0  0  0  0  0  0  0  0  0
  128.6010  127.2660   70.7240 C   0  0  0  0  0  0  0  0  0  0  0  0
  127.3220  126.9880   71.5050 C   0  0  0  0  0  0  0  0  0  0  0  0
  1  2  1  0
  2  3  2  0
  3  4  1  0
  4  5  2  0
  5  6  1  0
  6  7  1  0
  7  8  1  0
  8  9  1  0
  9 10  1  0
 10 11  1  0
 11 12  1  0
 12 13  1  0
  9 14  1  0
 14 15  1  0
  5 16  1  0
 16 17  2  0
 17 18  1  0
 17  2  1  0
 15  6  1  0
M  CHG  1  13   1
M  END
>  <Binding energies>  (82) 
[-6.41]

>  <Ligand effiencies>  (82) 
[-0.30523809523809525]

>  <Interactions>  (82) 
["V-A:GLU:543:CD:4908, V-A:ASP:366:CG:3213, V-A:TYR:484:CZ:4347, H-A:GLU:543:OE2:4910, V-B:GLU:543:CB:9878, V-B:GLU:543:CG:9879, V-A:TYR:484:CE2:4346, V-B:GLU:543:CD:9880, V-B:HIS:456:CD2:9039, V-A:GLY:544:C:4912, V-B:GLY:544:C:9884, V-B:HIS:456:CG:9037, V-B:GLY:544:CA:9886, V-A:HIS:456:CE1:4070, V-B:HIS:456:CE1:9041, V-B:GLU:543:C:9874, H-A:GLU:543:OE1:4909, V-A:GLU:543:CB:4906, V-A:GLU:543:C:4902, H-A:ASP:366:OD2:3215, H-A:ASP:366:OD1:3214"]

$$$$
RR32_Rahimova_2017
     RDKit          3D

 18 20  0  0  0  0  0  0  0  0999 V2000
  123.8240  131.6620   62.3590 C   0  0  0  0  0  0  0  0  0  0  0  0
  124.9750  132.5980   62.0050 C   0  0  0  0  0  0  0  0  0  0  0  0
  126.2720  132.0830   62.0120 C   0  0  0  0  0  0  0  0  0  0  0  0
  127.3460  132.9070   61.6910 C   0  0  0  0  0  0  0  0  0  0  0  0
  128.6310  132.3910   61.7000 N   0  0  0  0  0  0  0  0  0  0  0  0
  129.4650  132.6350   60.5100 C   0  0  0  0  0  0  0  0  0  0  0  0
  130.8090  131.8700   60.5380 C   0  0  0  0  0  0  0  0  0  0  0  0
  131.5750  132.2380   61.7280 N   0  0  0  0  0  0  0  0  0  0  0  0
  132.8570  131.5410   61.7390 C   0  0  0  0  0  0  0  0  0  0  0  0
  130.7880  131.8700   62.9030 C   0  0  0  0  0  0  0  0  0  0  0  0
  129.4420  132.6320   62.9090 C   0  0  0  0  0  0  0  0  0  0  0  0
  127.1930  134.2160   61.3670 N   0  0  0  0  0  0  0  0  0  0  0  0
  125.9410  134.7500   61.3540 C   0  0  0  0  0  0  0  0  0  0  0  0
  125.8120  136.1180   61.0140 C   0  0  0  0  0  0  0  0  0  0  0  0
  124.5570  136.7170   60.9850 C   0  0  0  0  0  0  0  0  0  0  0  0
  123.4180  135.9800   61.2860 C   0  0  0  0  0  0  0  0  0  0  0  0
  123.5100  134.6330   61.6240 C   0  0  0  0  0  0  0  0  0  0  0  0
  124.7750  133.9780   61.6680 C   0  0  0  0  0  0  0  0  0  0  0  0
  1  2  1  0
  2  3  2  0
  3  4  1  0
  4  5  1  0
  5  6  1  0
  6  7  1  0
  7  8  1  0
  8  9  1  0
  8 10  1  0
 10 11  1  0
  4 12  2  0
 12 13  1  0
 13 14  2  0
 14 15  1  0
 15 16  2  0
 16 17  1  0
 17 18  2  0
 18  2  1  0
 11  5  1  0
 18 13  1  0
M  END
>  <Binding energies>  (83) 
[-6.13]

>  <Ligand effiencies>  (83) 
[-0.34055555555555556]

>  <Interactions>  (83) 
["V-A:GLU:543:CD:4908, V-A:ASN:362:CB:3176, V-A:PRO:540:CB:4885, V-A:TYR:539:CD1:4873, V-A:PRO:540:N:4884, V-A:PRO:540:CA:4883, V-B:ILE:369:CG2:8208, V-B:LEU:475:CD2:9230, V-A:TYR:539:CE1:4875, H-A:ALA:541:N:4891, V-A:ALA:541:CB:4892, V-A:GLU:543:CG:4907, V-B:SER:385:CB:8380, V-B:SER:385:CA:8378, V-B:SER:385:C:8376, V-A:ALA:541:CA:4890"]

$$$$
RR5_Rahimova_2017
     RDKit          3D

 45 50  0  0  0  0  0  0  0  0999 V2000
  128.6000  122.6920   58.5080 O   0  0  0  0  0  0  0  0  0  0  0  0
  127.9900  123.0950   59.4970 C   0  0  0  0  0  0  0  0  0  0  0  0
  126.4610  123.2720   59.4320 C   0  0  0  0  0  0  0  0  0  0  0  0
  125.8690  124.1440   60.5970 C   0  0  2  0  0  0  0  0  0  0  0  0
  126.6940  125.3040   60.9880 N   0  0  0  0  0  0  0  0  0  0  0  0
  127.1540  126.2190   60.0510 C   0  0  0  0  0  0  0  0  0  0  0  0
  126.9130  126.2180   58.8410 O   0  0  0  0  0  0  0  0  0  0  0  0
  127.9320  127.1160   60.6810 O   0  0  0  0  0  0  0  0  0  0  0  0
  127.5400  128.4810   60.8070 C   0  0  0  0  0  0  0  0  0  0  0  0
  126.0040  128.6030   60.9190 C   0  0  0  0  0  0  0  0  0  0  0  0
  125.5380  129.2620   62.2040 C   0  0  0  0  0  0  0  0  0  0  0  0
  125.7720  128.8900   63.5310 C   0  0  0  0  0  0  0  0  0  0  0  0
  125.2580  129.6650   64.5720 C   0  0  0  0  0  0  0  0  0  0  0  0
  124.5110  130.8100   64.2900 C   0  0  0  0  0  0  0  0  0  0  0  0
  124.2730  131.1830   62.9660 C   0  0  0  0  0  0  0  0  0  0  0  0
  124.7870  130.4050   61.9260 C   0  0  0  0  0  0  0  0  0  0  0  0
  124.6870  130.5530   60.4660 C   0  0  0  0  0  0  0  0  0  0  0  0
  124.0410  131.5120   59.6810 C   0  0  0  0  0  0  0  0  0  0  0  0
  124.0830  131.4070   58.2900 C   0  0  0  0  0  0  0  0  0  0  0  0
  124.7700  130.3510   57.6870 C   0  0  0  0  0  0  0  0  0  0  0  0
  125.4170  129.3980   58.4750 C   0  0  0  0  0  0  0  0  0  0  0  0
  125.3800  129.5010   59.8670 C   0  0  0  0  0  0  0  0  0  0  0  0
  125.5740  123.2700   61.8410 C   0  0  0  0  0  0  0  0  0  0  0  0
  124.5150  122.7190   62.0650 O   0  0  0  0  0  0  0  0  0  0  0  0
  126.6870  123.2030   62.6290 O   0  0  0  0  0  0  0  0  0  0  0  0
  128.5580  123.3770   60.6910 N   0  0  0  0  0  0  0  0  0  0  0  0
  129.9650  123.3430   61.1930 C   0  0  0  0  0  0  0  0  0  0  0  0
  130.2810  121.8100   61.1780 C   0  0  0  0  0  0  0  0  0  0  0  0
  131.4770  121.3130   60.6330 C   0  0  0  0  0  0  0  0  0  0  0  0
  131.7480  119.9470   60.6270 C   0  0  0  0  0  0  0  0  0  0  0  0
  130.8220  119.0540   61.1560 C   0  0  0  0  0  0  0  0  0  0  0  0
  129.6310  119.5180   61.7020 C   0  0  0  0  0  0  0  0  0  0  0  0
  129.3660  120.8840   61.7180 C   0  0  0  0  0  0  0  0  0  0  0  0
  130.8430  124.1490   60.1780 C   0  0  0  0  0  0  0  0  0  0  0  0
  130.2680  124.9440   59.1740 C   0  0  0  0  0  0  0  0  0  0  0  0
  131.0680  125.6370   58.2680 C   0  0  0  0  0  0  0  0  0  0  0  0
  132.4530  125.5410   58.3540 C   0  0  0  0  0  0  0  0  0  0  0  0
  133.0460  124.7620   59.3420 C   0  0  0  0  0  0  0  0  0  0  0  0
  132.2450  124.0780   60.2510 C   0  0  0  0  0  0  0  0  0  0  0  0
  129.9240  123.9420   62.6400 C   0  0  0  0  0  0  0  0  0  0  0  0
  129.6570  125.3070   62.8510 C   0  0  0  0  0  0  0  0  0  0  0  0
  129.6280  125.8470   64.1340 C   0  0  0  0  0  0  0  0  0  0  0  0
  129.8600  125.0270   65.2320 C   0  0  0  0  0  0  0  0  0  0  0  0
  130.1130  123.6720   65.0570 C   0  0  0  0  0  0  0  0  0  0  0  0
  130.1410  123.1360   63.7720 C   0  0  0  0  0  0  0  0  0  0  0  0
  1  2  2  0
  2  3  1  0
  4  3  1  6
  4  5  1  0
  5  6  1  0
  6  7  2  0
  6  8  1  0
  8  9  1  0
  9 10  1  0
 10 11  1  0
 11 12  2  0
 12 13  1  0
 13 14  2  0
 14 15  1  0
 15 16  2  0
 16 17  1  0
 17 18  2  0
 18 19  1  0
 19 20  2  0
 20 21  1  0
 21 22  2  0
  4 23  1  0
 23 24  2  0
 23 25  1  0
  2 26  1  0
 26 27  1  0
 27 28  1  0
 28 29  2  0
 29 30  1  0
 30 31  2  0
 31 32  1  0
 32 33  2  0
 27 34  1  0
 34 35  2  0
 35 36  1  0
 36 37  2  0
 37 38  1  0
 38 39  2  0
 27 40  1  0
 40 41  2  0
 41 42  1  0
 42 43  2  0
 43 44  1  0
 44 45  2  0
 22 10  1  0
 33 28  1  0
 39 34  1  0
 45 40  1  0
 16 11  1  0
 22 17  1  0
M  END
>  <Binding energies>  (84) 
[-10.42]

>  <Ligand effiencies>  (84) 
[-0.21708333333333332]

>  <Interactions>  (84) 
["V-B:PRO:540:N:9856, V-B:ASP:366:CB:8183, V-B:TYR:539:CD2:9846, V-B:TYR:531:CZ:9766, V-B:ASP:366:CG:8184, V-B:PRO:540:CB:9857, V-B:TYR:539:CE2:9848, V-B:TYR:539:CZ:9849, V-A:LEU:475:CD2:4259, V-B:PRO:540:CA:9855, V-A:ASP:366:CB:3212, V-B:ILE:369:CB:8207, V-B:GLY:454:CA:9020, V-B:ILE:369:CG2:8208, V-A:TYR:539:CE1:4875, H-B:ALA:541:N:9863, V-A:ASP:366:CG:3213, V-A:TYR:484:CZ:4347, V-B:GLU:543:CB:9878, V-B:GLU:543:CG:9879, V-A:TYR:484:CE2:4346, V-B:GLU:543:CD:9880, H-B:GLU:543:OE1:9881, V-B:ALA:541:CB:9864, V-A:ASP:366:CA:3210, V-B:ARG:545:CZ:9898, V-B:PRO:540:C:9853, V-B:TYR:539:C:9839, V-B:ALA:541:CA:9862, V-A:LEU:475:CG:4257, V-A:TYR:539:CZ:4877, H-B:GLU:543:OE2:9882"]

$$$$
