1a_Ghoteimi_2023
     RDKit          3D

 40 43  0  0  0  0  0  0  0  0999 V2000
  127.0880  131.8750   57.5710 C   0  0  0  0  0  0  0  0  0  0  0  0
  126.6720  130.4310   57.2710 C   0  0  0  0  0  0  0  0  0  0  0  0
  125.2570  130.3200   57.3630 O   0  0  0  0  0  0  0  0  0  0  0  0
  124.5680  130.9400   58.3550 C   0  0  0  0  0  0  0  0  0  0  0  0
  123.7260  131.8200   58.1520 O   0  0  0  0  0  0  0  0  0  0  0  0
  124.9290  130.4440   59.7260 C   0  0  0  0  0  0  0  0  0  0  0  0
  125.6170  129.2380   59.9210 C   0  0  0  0  0  0  0  0  0  0  0  0
  125.9350  128.8020   61.2050 C   0  0  0  0  0  0  0  0  0  0  0  0
  125.5730  129.5710   62.3200 C   0  0  0  0  0  0  0  0  0  0  0  0
  125.8380  129.2250   63.6590 N   0  0  0  0  0  0  0  0  0  0  0  0
  125.1850  129.5740   64.7890 C   0  0  0  0  0  0  0  0  0  0  0  0
  124.1800  130.2820   64.8460 O   0  0  0  0  0  0  0  0  0  0  0  0
  125.7720  129.0170   66.0860 C   0  0  0  0  0  0  0  0  0  0  0  0
  127.4230  129.6950   66.4230 S   0  0  0  0  0  0  0  0  0  0  0  0
  128.4330  128.3170   66.9180 C   0  0  0  0  0  0  0  0  0  0  0  0
  128.6460  128.2430   68.2530 N   0  0  0  0  0  0  0  0  0  0  0  0
  129.3990  127.2320   68.7620 C   0  0  0  0  0  0  0  0  0  0  0  0
  129.5720  127.2080   70.2530 C   0  0  0  0  0  0  0  0  0  0  0  0
  128.6050  126.6270   71.0900 C   0  0  0  0  0  0  0  0  0  0  0  0
  128.7690  126.6060   72.4720 C   0  0  0  0  0  0  0  0  0  0  0  0
  129.9010  127.1640   73.0610 C   0  0  0  0  0  0  0  0  0  0  0  0
  129.9810  127.0940   74.4390 O   0  0  0  0  0  0  0  0  0  0  0  0
  130.9950  126.2940   75.0360 C   0  0  0  0  0  0  0  0  0  0  0  0
  130.8730  127.7500   72.2390 C   0  0  0  0  0  0  0  0  0  0  0  0
  130.7060  127.7710   70.8580 C   0  0  0  0  0  0  0  0  0  0  0  0
  129.9580  126.2660   67.9170 C   0  0  0  0  0  0  0  0  0  0  0  0
  129.7710  126.3350   66.5300 C   0  0  0  0  0  0  0  0  0  0  0  0
  130.4240  125.2880   65.6870 C   0  0  0  0  0  0  0  0  0  0  0  0
  131.6500  125.5330   65.0600 C   0  0  0  0  0  0  0  0  0  0  0  0
  132.2580  124.5460   64.2890 C   0  0  0  0  0  0  0  0  0  0  0  0
  131.6600  123.2960   64.1350 C   0  0  0  0  0  0  0  0  0  0  0  0
  132.3370  122.3810   63.3540 O   0  0  0  0  0  0  0  0  0  0  0  0
  133.5040  122.7950   62.6520 C   0  0  0  0  0  0  0  0  0  0  0  0
  130.4340  123.0440   64.7700 C   0  0  0  0  0  0  0  0  0  0  0  0
  129.8270  124.0320   65.5400 C   0  0  0  0  0  0  0  0  0  0  0  0
  128.9830  127.3890   66.0080 C   0  0  0  0  0  0  0  0  0  0  0  0
  128.7400  127.5050   64.5660 C   0  0  0  0  0  0  0  0  0  0  0  0
  128.5480  127.5960   63.4280 N   0  0  0  0  0  0  0  0  0  0  0  0
  124.8840  130.7690   62.1300 C   0  0  0  0  0  0  0  0  0  0  0  0
  124.5660  131.2040   60.8450 C   0  0  0  0  0  0  0  0  0  0  0  0
  1  2  1  0
  2  3  1  0
  3  4  1  0
  4  5  2  0
  4  6  1  0
  6  7  2  0
  7  8  1  0
  8  9  2  0
  9 10  1  0
 10 11  1  0
 11 12  2  0
 11 13  1  0
 13 14  1  0
 14 15  1  0
 15 16  2  0
 16 17  1  0
 17 18  1  0
 18 19  2  0
 19 20  1  0
 20 21  2  0
 21 22  1  0
 22 23  1  0
 21 24  1  0
 24 25  2  0
 17 26  2  0
 26 27  1  0
 27 28  1  0
 28 29  2  0
 29 30  1  0
 30 31  2  0
 31 32  1  0
 32 33  1  0
 31 34  1  0
 34 35  2  0
 27 36  2  0
 36 37  1  0
 37 38  3  0
  9 39  1  0
 39 40  2  0
 40  6  1  0
 36 15  1  0
 25 18  1  0
 35 28  1  0
M  END
>  <Binding energies>  (1) 
[-8.46]

>  <Ligand effiencies>  (1) 
[-0.20634146341463416]

>  <Interactions>  (1) 
["V-B:ASP:366:CB:8183, V-A:GLU:543:CD:4908, V-B:ASP:366:CG:8184, H-A:TYR:484:OH:4348, V-A:ARG:545:CZ:4926, V-A:LEU:475:CD2:4259, V-A:TYR:539:CD1:4873, V-A:TYR:539:CE1:4875, H-B:GLY:454:N:9021, H-B:TYR:531:OH:9767, V-A:GLY:454:CA:4049, V-A:TYR:484:CZ:4347, V-B:GLU:543:CB:9878, V-B:GLU:543:CG:9879, V-A:TYR:484:CE2:4346, V-B:GLU:543:CD:9880, H-B:GLU:543:OE1:9881, V-A:GLY:544:C:4912, V-A:HIS:456:CD2:4068, V-A:HIS:456:CE1:4070, H-B:LYS:547:NZ:9923, V-B:HIS:456:CE1:9041, V-B:GLU:543:C:9874, H-A:LYS:547:NZ:4951, V-A:GLU:543:CB:4906, V-A:GLU:543:C:4902, V-B:ARG:545:CZ:9898, H-B:TYR:484:OH:9319, V-A:GLU:543:CG:4907, H-B:ARG:545:NE:9896, V-A:TYR:539:CZ:4877, H-B:GLU:543:OE2:9882, H-A:TYR:539:OH:4878"]

$$$$
1b_Ghoteimi_2023
     RDKit          3D

 34 37  0  0  0  0  0  0  0  0999 V2000
  128.1070  128.5190   74.5070 C   0  0  0  0  0  0  0  0  0  0  0  0
  128.7010  127.3820   73.8930 O   0  0  0  0  0  0  0  0  0  0  0  0
  128.8470  127.3570   72.5190 C   0  0  0  0  0  0  0  0  0  0  0  0
  127.7110  127.0430   71.7760 C   0  0  0  0  0  0  0  0  0  0  0  0
  127.7640  126.9930   70.3860 C   0  0  0  0  0  0  0  0  0  0  0  0
  128.9550  127.2600   69.6950 C   0  0  0  0  0  0  0  0  0  0  0  0
  129.0090  127.2030   68.1940 C   0  0  0  0  0  0  0  0  0  0  0  0
  129.7660  126.2580   67.4950 C   0  0  0  0  0  0  0  0  0  0  0  0
  129.7780  126.2450   66.0940 C   0  0  0  0  0  0  0  0  0  0  0  0
  130.6140  125.2110   65.4140 C   0  0  0  0  0  0  0  0  0  0  0  0
  131.9450  125.4830   65.0860 C   0  0  0  0  0  0  0  0  0  0  0  0
  132.7250  124.5250   64.4450 C   0  0  0  0  0  0  0  0  0  0  0  0
  132.1900  123.2790   64.1150 C   0  0  0  0  0  0  0  0  0  0  0  0
  133.0370  122.3920   63.4800 O   0  0  0  0  0  0  0  0  0  0  0  0
  133.7920  122.8360   62.3570 C   0  0  0  0  0  0  0  0  0  0  0  0
  130.8520  123.0050   64.4350 C   0  0  0  0  0  0  0  0  0  0  0  0
  130.0740  123.9650   65.0760 C   0  0  0  0  0  0  0  0  0  0  0  0
  128.9960  127.2040   65.4040 C   0  0  0  0  0  0  0  0  0  0  0  0
  128.8990  127.1730   63.9420 C   0  0  0  0  0  0  0  0  0  0  0  0
  128.8230  127.1470   62.7870 N   0  0  0  0  0  0  0  0  0  0  0  0
  128.2710  128.1440   66.1710 C   0  0  0  0  0  0  0  0  0  0  0  0
  127.2440  129.4220   65.4770 S   0  0  0  0  0  0  0  0  0  0  0  0
  125.5740  129.2500   66.1890 C   0  0  0  0  0  0  0  0  0  0  0  0
  124.4250  129.6730   65.2620 C   0  0  0  0  0  0  0  0  0  0  0  0
  123.2640  129.7130   65.6760 O   0  0  0  0  0  0  0  0  0  0  0  0
  124.8030  129.9800   64.0010 N   0  0  0  0  0  0  0  0  0  0  0  0
  123.9860  130.3920   62.9550 C   0  0  0  0  0  0  0  0  0  0  0  0
  124.4810  130.7960   61.7160 C   0  0  0  0  0  0  0  0  0  0  0  0
  123.3680  131.1190   60.9740 C   0  0  0  0  0  0  0  0  0  0  0  0
  122.2600  130.9170   61.7270 O   0  0  0  0  0  0  0  0  0  0  0  0
  122.6650  130.4560   62.9800 N   0  0  0  0  0  0  0  0  0  0  0  0
  128.2660  128.1240   67.5260 N   0  0  0  0  0  0  0  0  0  0  0  0
  130.0940  127.5740   70.4540 C   0  0  0  0  0  0  0  0  0  0  0  0
  130.0460  127.6230   71.8440 C   0  0  0  0  0  0  0  0  0  0  0  0
  1  2  1  0
  2  3  1  0
  3  4  2  0
  4  5  1  0
  5  6  2  0
  6  7  1  0
  7  8  2  0
  8  9  1  0
  9 10  1  0
 10 11  2  0
 11 12  1  0
 12 13  2  0
 13 14  1  0
 14 15  1  0
 13 16  1  0
 16 17  2  0
  9 18  2  0
 18 19  1  0
 19 20  3  0
 18 21  1  0
 21 22  1  0
 22 23  1  0
 23 24  1  0
 24 25  2  0
 24 26  1  0
 26 27  1  0
 27 28  1  0
 28 29  2  0
 29 30  1  0
 30 31  1  0
 21 32  2  0
  6 33  1  0
 33 34  2  0
 34  3  1  0
 32  7  1  0
 17 10  1  0
 31 27  2  0
M  END
>  <Binding energies>  (2) 
[-8.81]

>  <Ligand effiencies>  (2) 
[-0.2517142857142857]

>  <Interactions>  (2) 
["V-A:GLU:543:CD:4908, H-A:GLY:454:N:4050, V-B:ASP:366:CG:8184, H-A:TYR:484:OH:4348, V-A:ARG:545:CZ:4926, V-A:LEU:475:CD2:4259, V-B:ILE:369:CB:8207, V-B:GLY:454:CA:9020, V-B:ILE:369:CG2:8208, H-B:ARG:545:NH1:9899, H-B:GLY:454:N:9021, V-B:ILE:369:CG1:8209, V-A:ILE:369:CD1:3239, V-A:GLY:454:CA:4049, V-A:TYR:484:CZ:4347, V-B:GLU:543:CB:9878, V-B:GLU:543:CG:9879, V-A:TYR:484:CE2:4346, V-B:GLU:543:CD:9880, V-B:HIS:456:CD2:9039, V-B:GLY:544:C:9884, V-A:HIS:456:CE1:4070, H-B:LYS:547:NZ:9923, V-B:HIS:456:CE1:9041, V-B:GLU:543:C:9874, V-B:TYR:484:CZ:9318, V-B:ARG:545:CZ:9898, H-B:TYR:484:OH:9319, V-A:GLU:543:CG:4907, H-B:ARG:545:NE:9896, V-B:ARG:545:CD:9895"]

$$$$
1c_Ghoteimi_2023
     RDKit          3D

 34 37  0  0  0  0  0  0  0  0999 V2000
  129.7720  127.3840   74.6140 C   0  0  0  0  0  0  0  0  0  0  0  0
  128.6180  127.3280   73.7830 O   0  0  0  0  0  0  0  0  0  0  0  0
  128.7750  127.3290   72.4100 C   0  0  0  0  0  0  0  0  0  0  0  0
  127.6450  127.0310   71.6520 C   0  0  0  0  0  0  0  0  0  0  0  0
  127.7120  127.0060   70.2620 C   0  0  0  0  0  0  0  0  0  0  0  0
  128.9130  127.2780   69.5870 C   0  0  0  0  0  0  0  0  0  0  0  0
  128.9900  127.2470   68.0880 C   0  0  0  0  0  0  0  0  0  0  0  0
  129.7100  126.2730   67.3880 C   0  0  0  0  0  0  0  0  0  0  0  0
  129.7310  126.2700   65.9880 C   0  0  0  0  0  0  0  0  0  0  0  0
  130.4640  125.1620   65.3060 C   0  0  0  0  0  0  0  0  0  0  0  0
  131.7890  125.3330   64.8960 C   0  0  0  0  0  0  0  0  0  0  0  0
  132.4640  124.3070   64.2410 C   0  0  0  0  0  0  0  0  0  0  0  0
  131.8260  123.0940   63.9790 C   0  0  0  0  0  0  0  0  0  0  0  0
  132.5730  122.1330   63.3250 O   0  0  0  0  0  0  0  0  0  0  0  0
  133.6310  122.5430   62.4640 C   0  0  0  0  0  0  0  0  0  0  0  0
  130.4930  122.9220   64.3830 C   0  0  0  0  0  0  0  0  0  0  0  0
  129.8210  123.9490   65.0380 C   0  0  0  0  0  0  0  0  0  0  0  0
  129.0320  127.2900   65.3010 C   0  0  0  0  0  0  0  0  0  0  0  0
  129.0430  127.3620   63.8360 C   0  0  0  0  0  0  0  0  0  0  0  0
  129.0520  127.4160   62.6800 N   0  0  0  0  0  0  0  0  0  0  0  0
  128.3130  128.2300   66.0690 C   0  0  0  0  0  0  0  0  0  0  0  0
  127.2550  129.4610   65.3380 S   0  0  0  0  0  0  0  0  0  0  0  0
  125.6500  129.2530   66.1760 C   0  0  0  0  0  0  0  0  0  0  0  0
  124.4720  129.6210   65.2680 C   0  0  0  0  0  0  0  0  0  0  0  0
  123.3530  129.7810   65.7580 O   0  0  0  0  0  0  0  0  0  0  0  0
  124.7810  129.7860   63.9630 N   0  0  0  0  0  0  0  0  0  0  0  0
  123.9430  130.2640   62.9680 C   0  0  0  0  0  0  0  0  0  0  0  0
  122.6350  130.4030   63.0100 N   0  0  0  0  0  0  0  0  0  0  0  0
  122.1690  130.9280   61.8940 C   0  0  0  0  0  0  0  0  0  0  0  0
  123.1100  131.2300   60.9150 C   0  0  0  0  0  0  0  0  0  0  0  0
  124.6900  130.7960   61.4960 S   0  0  0  0  0  0  0  0  0  0  0  0
  128.2870  128.2010   67.4230 N   0  0  0  0  0  0  0  0  0  0  0  0
  130.0420  127.5820   70.3610 C   0  0  0  0  0  0  0  0  0  0  0  0
  129.9810  127.6060   71.7510 C   0  0  0  0  0  0  0  0  0  0  0  0
  1  2  1  0
  2  3  1  0
  3  4  2  0
  4  5  1  0
  5  6  2  0
  6  7  1  0
  7  8  2  0
  8  9  1  0
  9 10  1  0
 10 11  2  0
 11 12  1  0
 12 13  2  0
 13 14  1  0
 14 15  1  0
 13 16  1  0
 16 17  2  0
  9 18  2  0
 18 19  1  0
 19 20  3  0
 18 21  1  0
 21 22  1  0
 22 23  1  0
 23 24  1  0
 24 25  2  0
 24 26  1  0
 26 27  1  0
 27 28  2  0
 28 29  1  0
 29 30  2  0
 30 31  1  0
 21 32  2  0
  6 33  1  0
 33 34  2  0
 34  3  1  0
 32  7  1  0
 17 10  1  0
 31 27  1  0
M  END
>  <Binding energies>  (3) 
[-8.55]

>  <Ligand effiencies>  (3) 
[-0.2442857142857143]

>  <Interactions>  (3) 
["V-A:GLU:543:CD:4908, V-B:ASP:366:CG:8184, V-A:ARG:545:CZ:4926, V-A:LEU:475:CD2:4259, V-B:ILE:369:CB:8207, V-B:GLY:453:C:9013, V-B:ILE:369:CG2:8208, V-B:GLY:453:CA:9015, H-B:ARG:545:NH1:9899, V-B:ASP:366:CA:8181, H-B:GLY:454:N:9021, V-B:ILE:369:CG1:8209, V-A:GLY:454:CA:4049, V-B:GLU:543:CB:9878, V-B:GLU:543:CG:9879, V-A:TYR:484:CE2:4346, V-B:GLU:543:CD:9880, V-B:HIS:456:CD2:9039, V-B:GLY:544:C:9884, V-A:HIS:456:CE1:4070, H-B:LYS:547:NZ:9923, V-B:HIS:456:CE1:9041, V-B:GLU:543:C:9874, V-B:TYR:484:CZ:9318, V-B:ARG:545:CZ:9898, H-B:TYR:484:OH:9319, V-A:GLU:543:CG:4907, H-B:ARG:545:NE:9896, V-B:ARG:545:CD:9895, H-B:GLU:543:OE2:9882"]

$$$$
1d_Ghoteimi_2023
     RDKit          3D

 30 32  0  0  0  0  0  0  0  0999 V2000
  133.6510  124.6940   62.5890 C   0  0  0  0  0  0  0  0  0  0  0  0
  133.8690  124.3840   63.9570 O   0  0  0  0  0  0  0  0  0  0  0  0
  133.1610  125.0060   64.9220 C   0  0  0  0  0  0  0  0  0  0  0  0
  133.5100  125.1700   66.0910 O   0  0  0  0  0  0  0  0  0  0  0  0
  131.8130  125.5130   64.4160 C   0  0  0  0  0  0  0  0  0  0  0  0
  130.5320  124.8710   65.5340 S   0  0  0  0  0  0  0  0  0  0  0  0
  129.5890  126.2690   66.1040 C   0  0  0  0  0  0  0  0  0  0  0  0
  129.4890  126.3460   67.4530 N   0  0  0  0  0  0  0  0  0  0  0  0
  128.7940  127.3630   68.0230 C   0  0  0  0  0  0  0  0  0  0  0  0
  128.7360  127.3790   69.5230 C   0  0  0  0  0  0  0  0  0  0  0  0
  127.5760  126.9930   70.2120 C   0  0  0  0  0  0  0  0  0  0  0  0
  127.5220  127.0150   71.6020 C   0  0  0  0  0  0  0  0  0  0  0  0
  128.6240  127.4250   72.3480 C   0  0  0  0  0  0  0  0  0  0  0  0
  128.4800  127.4180   73.7220 O   0  0  0  0  0  0  0  0  0  0  0  0
  127.8600  128.5300   74.3590 C   0  0  0  0  0  0  0  0  0  0  0  0
  129.7910  127.8140   71.6750 C   0  0  0  0  0  0  0  0  0  0  0  0
  129.8410  127.7900   70.2840 C   0  0  0  0  0  0  0  0  0  0  0  0
  128.1850  128.3430   67.2300 C   0  0  0  0  0  0  0  0  0  0  0  0
  128.2590  128.2790   65.8330 C   0  0  0  0  0  0  0  0  0  0  0  0
  127.5800  129.3530   65.0470 C   0  0  0  0  0  0  0  0  0  0  0  0
  126.2170  129.2530   64.7500 C   0  0  0  0  0  0  0  0  0  0  0  0
  125.5770  130.2510   64.0190 C   0  0  0  0  0  0  0  0  0  0  0  0
  126.2830  131.3680   63.5750 C   0  0  0  0  0  0  0  0  0  0  0  0
  125.5690  132.3030   62.8510 O   0  0  0  0  0  0  0  0  0  0  0  0
  124.2330  132.0070   62.4610 C   0  0  0  0  0  0  0  0  0  0  0  0
  127.6480  131.4790   63.8810 C   0  0  0  0  0  0  0  0  0  0  0  0
  128.2850  130.4810   64.6140 C   0  0  0  0  0  0  0  0  0  0  0  0
  128.9640  127.2000   65.2440 C   0  0  0  0  0  0  0  0  0  0  0  0
  128.9860  127.0260   63.7880 C   0  0  0  0  0  0  0  0  0  0  0  0
  129.0030  126.8900   62.6390 N   0  0  0  0  0  0  0  0  0  0  0  0
  1  2  1  0
  2  3  1  0
  3  4  2  0
  3  5  1  0
  5  6  1  0
  6  7  1  0
  7  8  2  0
  8  9  1  0
  9 10  1  0
 10 11  2  0
 11 12  1  0
 12 13  2  0
 13 14  1  0
 14 15  1  0
 13 16  1  0
 16 17  2  0
  9 18  2  0
 18 19  1  0
 19 20  1  0
 20 21  2  0
 21 22  1  0
 22 23  2  0
 23 24  1  0
 24 25  1  0
 23 26  1  0
 26 27  2  0
 19 28  2  0
 28 29  1  0
 29 30  3  0
 28  7  1  0
 17 10  1  0
 27 20  1  0
M  END
>  <Binding energies>  (4) 
[-7.34]

>  <Ligand effiencies>  (4) 
[-0.24466666666666667]

>  <Interactions>  (4) 
["V-A:GLU:543:CD:4908, H-A:GLY:454:N:4050, H-A:TYR:484:OH:4348, H-A:ARG:545:NE:4924, V-A:ARG:545:CZ:4926, V-B:GLY:454:CA:9020, V-B:GLU:543:CB:9878, V-B:GLU:543:CG:9879, V-B:GLU:543:CD:9880, V-B:HIS:456:CD2:9039, V-B:GLY:544:C:9884, V-B:GLY:544:CA:9886, V-A:HIS:456:CE1:4070, H-B:LYS:547:NZ:9923, V-B:HIS:456:CE1:9041, V-B:GLU:543:C:9874, H-A:ARG:545:NH2:4928, V-A:GLU:543:CB:4906, V-A:GLU:543:CG:4907"]

$$$$
1j_Grossjean_2025
     RDKit          3D

 20 21  0  0  0  0  0  0  0  0999 V2000
  124.3190  127.7490   76.0910 C   0  0  0  0  0  0  0  0  0  0  0  0
  125.5860  128.2810   75.4470 C   0  0  0  0  0  0  0  0  0  0  0  0
  126.3440  129.2850   76.0470 C   0  0  0  0  0  0  0  0  0  0  0  0
  127.5090  129.7260   75.4130 C   0  0  0  0  0  0  0  0  0  0  0  0
  128.3330  130.8160   76.0990 C   0  0  0  0  0  0  0  0  0  0  0  0
  127.8850  129.1510   74.1780 C   0  0  0  0  0  0  0  0  0  0  0  0
  129.1300  129.5620   73.5230 C   0  0  0  0  0  0  0  0  0  0  0  0
  130.1140  129.8870   73.0080 N   0  0  0  0  0  0  0  0  0  0  0  0
  127.0420  128.1560   73.6290 C   0  0  0  0  0  0  0  0  0  0  0  0
  127.3590  127.3290   72.0860 S   0  0  0  0  0  0  0  0  0  0  0  0
  129.1570  127.3250   71.8200 C   0  0  0  0  0  0  0  0  0  0  0  0
  129.8980  126.5620   72.9200 C   0  0  0  0  0  0  0  0  0  0  0  0
  129.4340  125.5000   73.3360 O   0  0  0  0  0  0  0  0  0  0  0  0
  131.0410  127.1340   73.3560 N   0  0  0  0  0  0  0  0  0  0  0  0
  131.8860  126.6470   74.3440 C   0  0  0  0  0  0  0  0  0  0  0  0
  133.1240  127.0140   74.5990 N   0  0  0  0  0  0  0  0  0  0  0  0
  133.6280  126.3390   75.6140 C   0  0  0  0  0  0  0  0  0  0  0  0
  132.7900  125.4000   76.2070 C   0  0  0  0  0  0  0  0  0  0  0  0
  131.2590  125.4100   75.3840 S   0  0  0  0  0  0  0  0  0  0  0  0
  125.9240  127.7190   74.2620 N   0  0  0  0  0  0  0  0  0  0  0  0
  1  2  1  0
  2  3  2  0
  3  4  1  0
  4  5  1  0
  4  6  2  0
  6  7  1  0
  7  8  3  0
  6  9  1  0
  9 10  1  0
 10 11  1  0
 11 12  1  0
 12 13  2  0
 12 14  1  0
 14 15  1  0
 15 16  2  0
 16 17  1  0
 17 18  2  0
 18 19  1  0
  9 20  2  0
 20  2  1  0
 19 15  1  0
M  END
>  <Binding energies>  (5) 
[-6.46]

>  <Ligand effiencies>  (5) 
[-0.3076190476190476]

>  <Interactions>  (5) 
["V-B:HIS:456:CD2:9039, V-B:HIS:456:CB:9036, V-B:HIS:456:CG:9037, V-A:HIS:456:CD2:4068, V-A:HIS:456:CB:4065, V-A:HIS:456:CG:4066, V-A:HIS:456:CE1:4070, H-B:LYS:547:NZ:9923, H-A:GLY:544:O:4913, V-B:LYS:547:CE:9922, H-A:LYS:547:NZ:4951, V-A:LYS:547:CG:4948, V-B:LYS:547:CD:9921, V-B:VAL:458:CG2:9058, V-B:VAL:457:C:9044, V-B:LYS:547:CG:9920"]

$$$$
1o_Grossjean_2025
     RDKit          3D

 26 27  0  0  0  0  0  0  0  0999 V2000
  129.3730  129.6620   73.0050 C   0  0  0  0  0  0  0  0  0  0  0  0
  130.0010  128.4200   73.2900 O   0  0  0  0  0  0  0  0  0  0  0  0
  129.5960  127.2750   72.6810 C   0  0  0  0  0  0  0  0  0  0  0  0
  129.3950  126.2180   73.2870 O   0  0  0  0  0  0  0  0  0  0  0  0
  129.4120  127.4240   71.1990 C   0  0  0  0  0  0  0  0  0  0  0  0
  130.4220  127.9390   70.3730 C   0  0  0  0  0  0  0  0  0  0  0  0
  130.2200  128.0610   69.0010 C   0  0  0  0  0  0  0  0  0  0  0  0
  129.0080  127.6790   68.4270 C   0  0  0  0  0  0  0  0  0  0  0  0
  128.9140  127.8370   67.0300 N   0  0  0  0  0  0  0  0  0  0  0  0
  128.0860  128.6160   66.3010 C   0  0  0  0  0  0  0  0  0  0  0  0
  127.2550  129.3970   66.7640 O   0  0  0  0  0  0  0  0  0  0  0  0
  128.2490  128.5100   64.7770 C   0  0  0  0  0  0  0  0  0  0  0  0
  127.1820  129.2980   63.9920 C   0  0  0  0  0  0  0  0  0  0  0  0
  126.5870  128.4490   62.4990 S   0  0  0  0  0  0  0  0  0  0  0  0
  125.3900  129.4940   61.6950 C   0  0  0  0  0  0  0  0  0  0  0  0
  125.6060  129.6360   60.3620 N   0  0  0  0  0  0  0  0  0  0  0  0
  124.7530  130.4030   59.6420 C   0  0  0  0  0  0  0  0  0  0  0  0
  125.0490  130.5020   58.1580 C   0  0  0  0  0  0  0  0  0  0  0  0
  123.6690  131.0630   60.2160 C   0  0  0  0  0  0  0  0  0  0  0  0
  123.4520  130.9450   61.5930 C   0  0  0  0  0  0  0  0  0  0  0  0
  122.2650  131.6900   62.2010 C   0  0  0  0  0  0  0  0  0  0  0  0
  124.3320  130.1530   62.3660 C   0  0  0  0  0  0  0  0  0  0  0  0
  124.1560  130.0660   63.8180 C   0  0  0  0  0  0  0  0  0  0  0  0
  124.0140  129.9970   64.9640 N   0  0  0  0  0  0  0  0  0  0  0  0
  127.9940  127.1570   69.2460 C   0  0  0  0  0  0  0  0  0  0  0  0
  128.1980  127.0350   70.6170 C   0  0  0  0  0  0  0  0  0  0  0  0
  1  2  1  0
  2  3  1  0
  3  4  2  0
  3  5  1  0
  5  6  2  0
  6  7  1  0
  7  8  2  0
  8  9  1  0
  9 10  1  0
 10 11  2  0
 10 12  1  0
 12 13  1  0
 13 14  1  0
 14 15  1  0
 15 16  2  0
 16 17  1  0
 17 18  1  0
 17 19  2  0
 19 20  1  0
 20 21  1  0
 20 22  2  0
 22 23  1  0
 23 24  3  0
  8 25  1  0
 25 26  2  0
 26  5  1  0
 22 15  1  0
M  END
>  <Binding energies>  (6) 
[-7.78]

>  <Ligand effiencies>  (6) 
[-0.28814814814814815]

>  <Interactions>  (6) 
["V-B:ASP:366:CB:8183, V-A:GLU:543:CD:4908, V-B:ASP:366:CG:8184, V-B:ILE:369:CB:8207, V-B:GLY:454:CA:9020, V-B:GLY:453:C:9013, V-B:ILE:369:CG2:8208, V-B:GLY:453:CA:9015, V-B:ASP:366:CA:8181, H-B:GLY:454:N:9021, V-B:ILE:369:CG1:8209, H-B:ARG:545:NH2:9900, H-A:GLU:543:OE2:4910, V-B:GLU:543:CB:9878, V-B:GLU:543:CD:9880, V-B:HIS:456:CD2:9039, V-A:GLY:544:C:4912, V-A:HIS:456:CE1:4070, H-B:LYS:547:NZ:9923, V-B:HIS:456:CE1:9041, V-B:GLU:543:C:9874, H-A:LYS:547:NZ:4951, H-A:GLU:543:OE1:4909, V-A:GLU:543:CB:4906, V-A:GLU:543:C:4902, V-B:ARG:545:CZ:9898, H-B:TYR:484:OH:9319, V-A:GLU:543:CG:4907, H-B:ARG:545:NE:9896, V-A:GLU:543:CA:4904"]

$$$$
1p_Grossjean_2025
     RDKit          3D

 21 22  0  0  0  0  0  0  0  0999 V2000
  132.8150  131.4650   62.8660 C   0  0  0  0  0  0  0  0  0  0  0  0
  131.9130  131.7530   61.6810 C   0  0  0  0  0  0  0  0  0  0  0  0
  132.2940  131.4280   60.3800 C   0  0  0  0  0  0  0  0  0  0  0  0
  131.4280  131.7290   59.3230 C   0  0  0  0  0  0  0  0  0  0  0  0
  131.8710  131.3770   57.9050 C   0  0  0  0  0  0  0  0  0  0  0  0
  130.1880  132.3480   59.6010 C   0  0  0  0  0  0  0  0  0  0  0  0
  129.2860  132.7170   58.5090 C   0  0  0  0  0  0  0  0  0  0  0  0
  128.5730  133.0080   57.6440 N   0  0  0  0  0  0  0  0  0  0  0  0
  129.8750  132.6210   60.9540 C   0  0  0  0  0  0  0  0  0  0  0  0
  128.3570  133.3850   61.4780 S   0  0  0  0  0  0  0  0  0  0  0  0
  127.2570  132.0470   62.0260 C   0  0  0  0  0  0  0  0  0  0  0  0
  128.0030  130.8000   62.5380 C   0  0  0  0  0  0  0  0  0  0  0  0
  128.1420  130.7520   64.0670 C   0  0  0  0  0  0  0  0  0  0  0  0
  128.2340  131.8040   64.7010 O   0  0  0  0  0  0  0  0  0  0  0  0
  128.1380  129.5160   64.6150 N   0  0  0  0  0  0  0  0  0  0  0  0
  128.2470  129.1950   65.9620 C   0  0  0  0  0  0  0  0  0  0  0  0
  128.5070  127.9020   66.4180 C   0  0  0  0  0  0  0  0  0  0  0  0
  128.5380  128.0060   67.7900 C   0  0  0  0  0  0  0  0  0  0  0  0
  128.3060  129.2920   68.1420 O   0  0  0  0  0  0  0  0  0  0  0  0
  128.1220  130.0360   66.9750 N   0  0  0  0  0  0  0  0  0  0  0  0
  130.7310  132.3440   61.9700 N   0  0  0  0  0  0  0  0  0  0  0  0
  1  2  1  0
  2  3  2  0
  3  4  1  0
  4  5  1  0
  4  6  2  0
  6  7  1  0
  7  8  3  0
  6  9  1  0
  9 10  1  0
 10 11  1  0
 11 12  1  0
 12 13  1  0
 13 14  2  0
 13 15  1  0
 15 16  1  0
 16 17  1  0
 17 18  2  0
 18 19  1  0
 19 20  1  0
  9 21  2  0
 21  2  1  0
 20 16  2  0
M  END
>  <Binding energies>  (7) 
[-6.51]

>  <Ligand effiencies>  (7) 
[-0.2959090909090909]

>  <Interactions>  (7) 
["V-A:GLU:543:CD:4908, V-A:ASN:362:CB:3176, V-A:PRO:540:C:4881, V-A:PRO:540:CB:4885, V-A:TYR:539:CD1:4873, V-A:PRO:540:N:4884, V-A:PRO:540:CA:4883, V-A:TYR:539:C:4867, H-A:ALA:541:N:4891, V-B:GLU:543:CD:9880, V-B:HIS:456:CE1:9041, H-A:GLU:543:OE1:4909, V-A:GLU:543:CB:4906, H-B:TYR:484:OH:9319, V-A:GLU:543:CG:4907, V-A:ALA:541:C:4888, V-A:LEU:363:CD1:3189, H-B:GLU:543:OE2:9882, H-A:TYR:539:N:4870"]

$$$$
2a_Ghoteimi_2023
     RDKit          3D

 48 53  0  0  0  0  0  0  0  0999 V2000
  132.7870  131.5070   58.5090 C   0  0  0  0  0  0  0  0  0  0  0  0
  131.9000  131.7090   57.2770 C   0  0  0  0  0  0  0  0  0  0  0  0
  131.1380  132.8980   57.4330 O   0  0  0  0  0  0  0  0  0  0  0  0
  129.8750  132.8620   57.9310 C   0  0  0  0  0  0  0  0  0  0  0  0
  129.0460  133.7580   57.7460 O   0  0  0  0  0  0  0  0  0  0  0  0
  129.5860  131.6200   58.7250 C   0  0  0  0  0  0  0  0  0  0  0  0
  129.1670  130.4290   58.1140 C   0  0  0  0  0  0  0  0  0  0  0  0
  128.9090  129.2960   58.8780 C   0  0  0  0  0  0  0  0  0  0  0  0
  129.0680  129.3240   60.2650 C   0  0  0  0  0  0  0  0  0  0  0  0
  128.7760  128.1230   60.9390 N   0  0  0  0  0  0  0  0  0  0  0  0
  129.6060  127.1480   61.3700 C   0  0  0  0  0  0  0  0  0  0  0  0
  130.8250  127.1260   61.1930 O   0  0  0  0  0  0  0  0  0  0  0  0
  128.9220  125.9830   62.0960 C   0  0  0  0  0  0  0  0  0  0  0  0
  129.7110  125.5050   63.6660 S   0  0  0  0  0  0  0  0  0  0  0  0
  129.1770  126.7100   64.8590 C   0  0  0  0  0  0  0  0  0  0  0  0
  128.5980  127.8040   64.3100 N   0  0  0  0  0  0  0  0  0  0  0  0
  128.1560  128.8000   65.1180 C   0  0  0  0  0  0  0  0  0  0  0  0
  127.5360  129.9810   64.4420 C   0  0  0  0  0  0  0  0  0  0  0  0
  128.2560  131.1650   64.2450 C   0  0  0  0  0  0  0  0  0  0  0  0
  127.6700  132.2650   63.6260 C   0  0  0  0  0  0  0  0  0  0  0  0
  126.3440  132.2210   63.1730 C   0  0  0  0  0  0  0  0  0  0  0  0
  125.7580  133.3440   62.5800 N   0  0  0  0  0  0  0  0  0  0  0  0
  124.3170  133.3850   62.2630 C   0  0  0  0  0  0  0  0  0  0  0  0
  123.7850  134.8010   61.9590 C   0  0  0  0  0  0  0  0  0  0  0  0
  124.5500  135.3950   60.9220 O   0  0  0  0  0  0  0  0  0  0  0  0
  125.9140  135.5150   61.2900 C   0  0  0  0  0  0  0  0  0  0  0  0
  126.5130  134.1220   61.5740 C   0  0  0  0  0  0  0  0  0  0  0  0
  125.6220  131.0350   63.3850 C   0  0  0  0  0  0  0  0  0  0  0  0
  126.2090  129.9350   64.0020 C   0  0  0  0  0  0  0  0  0  0  0  0
  128.2760  128.7110   66.5070 C   0  0  0  0  0  0  0  0  0  0  0  0
  128.8730  127.5880   67.0980 C   0  0  0  0  0  0  0  0  0  0  0  0
  128.9750  127.5610   68.5880 C   0  0  0  0  0  0  0  0  0  0  0  0
  127.9260  127.0500   69.3560 C   0  0  0  0  0  0  0  0  0  0  0  0
  128.0030  127.0380   70.7450 C   0  0  0  0  0  0  0  0  0  0  0  0
  129.1340  127.5350   71.4100 C   0  0  0  0  0  0  0  0  0  0  0  0
  129.2240  127.5500   72.8050 N   0  0  0  0  0  0  0  0  0  0  0  0
  128.6510  128.6860   73.5540 C   0  0  0  0  0  0  0  0  0  0  0  0
  128.4700  128.3940   75.0590 C   0  0  0  0  0  0  0  0  0  0  0  0
  129.7060  127.9860   75.6270 O   0  0  0  0  0  0  0  0  0  0  0  0
  130.2050  126.8100   75.0100 C   0  0  0  0  0  0  0  0  0  0  0  0
  130.4280  127.0580   73.5040 C   0  0  0  0  0  0  0  0  0  0  0  0
  130.1780  128.0580   70.6330 C   0  0  0  0  0  0  0  0  0  0  0  0
  130.1000  128.0710   69.2430 C   0  0  0  0  0  0  0  0  0  0  0  0
  129.3350  126.5500   66.2530 C   0  0  0  0  0  0  0  0  0  0  0  0
  129.9160  125.3260   66.8150 C   0  0  0  0  0  0  0  0  0  0  0  0
  130.3760  124.3620   67.2600 N   0  0  0  0  0  0  0  0  0  0  0  0
  129.4800  130.5140   60.8840 C   0  0  0  0  0  0  0  0  0  0  0  0
  129.7390  131.6470   60.1180 C   0  0  0  0  0  0  0  0  0  0  0  0
  1  2  1  0
  2  3  1  0
  3  4  1  0
  4  5  2  0
  4  6  1  0
  6  7  2  0
  7  8  1  0
  8  9  2  0
  9 10  1  0
 10 11  1  0
 11 12  2  0
 11 13  1  0
 13 14  1  0
 14 15  1  0
 15 16  2  0
 16 17  1  0
 17 18  1  0
 18 19  2  0
 19 20  1  0
 20 21  2  0
 21 22  1  0
 22 23  1  0
 23 24  1  0
 24 25  1  0
 25 26  1  0
 26 27  1  0
 21 28  1  0
 28 29  2  0
 17 30  2  0
 30 31  1  0
 31 32  1  0
 32 33  2  0
 33 34  1  0
 34 35  2  0
 35 36  1  0
 36 37  1  0
 37 38  1  0
 38 39  1  0
 39 40  1  0
 40 41  1  0
 35 42  1  0
 42 43  2  0
 31 44  2  0
 44 45  1  0
 45 46  3  0
  9 47  1  0
 47 48  2  0
 48  6  1  0
 44 15  1  0
 29 18  1  0
 43 32  1  0
 27 22  1  0
 41 36  1  0
M  END
>  <Binding energies>  (8) 
[-10.04]

>  <Ligand effiencies>  (8) 
[-0.20489795918367346]

>  <Interactions>  (8) 
["V-A:GLU:543:CD:4908, H-A:TYR:484:OH:4348, V-A:PRO:540:CB:4885, V-A:TYR:539:CD1:4873, V-A:PRO:540:N:4884, V-A:PRO:540:CA:4883, V-A:TYR:539:C:4867, V-B:ILE:369:CG2:8208, V-B:LEU:475:CD2:9230, V-A:TYR:539:CE1:4875, V-B:GLU:543:CB:9878, V-B:GLU:543:CG:9879, V-B:GLU:543:CD:9880, V-B:HIS:456:CD2:9039, V-A:HIS:456:CD2:4068, V-A:HIS:456:CE1:4070, H-B:LYS:547:NZ:9923, V-B:HIS:456:CE1:9041, V-B:GLU:543:C:9874, H-A:LYS:547:NZ:4951, V-A:GLU:543:CB:4906, V-A:GLU:543:C:4902, V-A:ALA:541:CB:4892, V-A:GLU:543:CG:4907, V-B:SER:385:CB:8380, V-B:SER:385:CA:8378, V-B:SER:385:C:8376, V-A:LEU:363:CD1:3189, H-A:TYR:539:N:4870"]

$$$$
2aa_Ghoteimi_2023
     RDKit          3D

 48 53  0  0  0  0  0  0  0  0999 V2000
  127.4790  132.2430   58.9370 C   0  0  0  0  0  0  0  0  0  0  0  0
  128.5850  133.2790   59.1650 C   0  0  0  0  0  0  0  0  0  0  0  0
  129.4760  133.2680   58.0570 O   0  0  0  0  0  0  0  0  0  0  0  0
  130.6700  132.6230   58.1220 C   0  0  0  0  0  0  0  0  0  0  0  0
  131.6660  132.9700   57.4780 O   0  0  0  0  0  0  0  0  0  0  0  0
  130.6630  131.4560   59.0660 C   0  0  0  0  0  0  0  0  0  0  0  0
  131.0990  131.5750   60.3940 C   0  0  0  0  0  0  0  0  0  0  0  0
  131.0770  130.4750   61.2470 C   0  0  0  0  0  0  0  0  0  0  0  0
  130.6280  129.2350   60.7900 C   0  0  0  0  0  0  0  0  0  0  0  0
  130.6450  128.1920   61.7370 N   0  0  0  0  0  0  0  0  0  0  0  0
  130.9660  126.8890   61.5830 C   0  0  0  0  0  0  0  0  0  0  0  0
  131.3470  126.3730   60.5300 O   0  0  0  0  0  0  0  0  0  0  0  0
  130.8480  126.0480   62.8600 C   0  0  0  0  0  0  0  0  0  0  0  0
  129.4910  126.0500   63.3140 O   0  0  0  0  0  0  0  0  0  0  0  0
  129.0610  127.0070   64.2240 C   0  0  0  0  0  0  0  0  0  0  0  0
  128.5090  128.1530   63.7350 N   0  0  0  0  0  0  0  0  0  0  0  0
  128.0760  129.1070   64.5960 C   0  0  0  0  0  0  0  0  0  0  0  0
  127.4850  130.3400   63.9870 C   0  0  0  0  0  0  0  0  0  0  0  0
  128.2860  131.4510   63.7040 C   0  0  0  0  0  0  0  0  0  0  0  0
  127.7420  132.5980   63.1310 C   0  0  0  0  0  0  0  0  0  0  0  0
  126.3790  132.6710   62.8070 C   0  0  0  0  0  0  0  0  0  0  0  0
  125.8140  133.8200   62.2420 N   0  0  0  0  0  0  0  0  0  0  0  0
  126.6130  134.7410   61.4080 C   0  0  0  0  0  0  0  0  0  0  0  0
  125.9420  136.1100   61.1720 C   0  0  0  0  0  0  0  0  0  0  0  0
  124.6450  135.9280   60.6270 O   0  0  0  0  0  0  0  0  0  0  0  0
  123.8140  135.1820   61.5030 C   0  0  0  0  0  0  0  0  0  0  0  0
  124.4220  133.7840   61.7480 C   0  0  0  0  0  0  0  0  0  0  0  0
  125.5760  131.5620   63.1120 C   0  0  0  0  0  0  0  0  0  0  0  0
  126.1200  130.4170   63.6880 C   0  0  0  0  0  0  0  0  0  0  0  0
  128.2010  128.9430   65.9790 C   0  0  0  0  0  0  0  0  0  0  0  0
  128.7760  127.7810   66.5070 C   0  0  0  0  0  0  0  0  0  0  0  0
  128.9060  127.6740   67.9920 C   0  0  0  0  0  0  0  0  0  0  0  0
  127.8010  127.3320   68.7750 C   0  0  0  0  0  0  0  0  0  0  0  0
  127.9100  127.2510   70.1600 C   0  0  0  0  0  0  0  0  0  0  0  0
  129.1270  127.5230   70.8050 C   0  0  0  0  0  0  0  0  0  0  0  0
  129.2610  127.4440   72.1940 N   0  0  0  0  0  0  0  0  0  0  0  0
  128.6590  128.4550   73.0830 C   0  0  0  0  0  0  0  0  0  0  0  0
  128.6060  128.0190   74.5630 C   0  0  0  0  0  0  0  0  0  0  0  0
  129.9050  127.6610   75.0100 O   0  0  0  0  0  0  0  0  0  0  0  0
  130.4400  126.5860   74.2540 C   0  0  0  0  0  0  0  0  0  0  0  0
  130.5430  126.9850   72.7670 C   0  0  0  0  0  0  0  0  0  0  0  0
  130.2320  127.8580   70.0110 C   0  0  0  0  0  0  0  0  0  0  0  0
  130.1230  127.9390   68.6260 C   0  0  0  0  0  0  0  0  0  0  0  0
  129.2040  126.7800   65.6040 C   0  0  0  0  0  0  0  0  0  0  0  0
  129.7700  125.5110   66.0680 C   0  0  0  0  0  0  0  0  0  0  0  0
  130.2170  124.5080   66.4350 N   0  0  0  0  0  0  0  0  0  0  0  0
  130.1840  129.1090   59.4660 C   0  0  0  0  0  0  0  0  0  0  0  0
  130.2040  130.2120   58.6160 C   0  0  0  0  0  0  0  0  0  0  0  0
  1  2  1  0
  2  3  1  0
  3  4  1  0
  4  5  2  0
  4  6  1  0
  6  7  2  0
  7  8  1  0
  8  9  2  0
  9 10  1  0
 10 11  1  0
 11 12  2  0
 11 13  1  0
 13 14  1  0
 14 15  1  0
 15 16  2  0
 16 17  1  0
 17 18  1  0
 18 19  2  0
 19 20  1  0
 20 21  2  0
 21 22  1  0
 22 23  1  0
 23 24  1  0
 24 25  1  0
 25 26  1  0
 26 27  1  0
 21 28  1  0
 28 29  2  0
 17 30  2  0
 30 31  1  0
 31 32  1  0
 32 33  2  0
 33 34  1  0
 34 35  2  0
 35 36  1  0
 36 37  1  0
 37 38  1  0
 38 39  1  0
 39 40  1  0
 40 41  1  0
 35 42  1  0
 42 43  2  0
 31 44  2  0
 44 45  1  0
 45 46  3  0
  9 47  1  0
 47 48  2  0
 48  6  1  0
 44 15  1  0
 29 18  1  0
 43 32  1  0
 27 22  1  0
 41 36  1  0
M  END
>  <Binding energies>  (9) 
[-9.98]

>  <Ligand effiencies>  (9) 
[-0.2036734693877551]

>  <Interactions>  (9) 
["V-A:GLU:543:CD:4908, H-A:TYR:484:OH:4348, V-A:PRO:540:CB:4885, V-A:TYR:539:CD1:4873, V-A:PRO:540:N:4884, V-A:PRO:540:CA:4883, V-A:TYR:539:C:4867, V-B:ILE:369:CG2:8208, V-B:LEU:475:CD2:9230, V-A:TYR:539:CE1:4875, H-A:GLU:543:OE2:4910, V-B:GLU:543:CB:9878, V-B:GLU:543:CG:9879, V-B:GLU:543:CD:9880, V-B:HIS:456:CD2:9039, V-A:HIS:456:CD2:4068, V-A:HIS:456:CE1:4070, H-B:LYS:547:NZ:9923, V-B:HIS:456:CE1:9041, V-B:GLU:543:C:9874, H-A:LYS:547:NZ:4951, H-A:GLU:543:OE1:4909, V-A:GLU:543:CB:4906, V-A:GLU:543:C:4902, V-A:ALA:541:CB:4892, V-A:GLU:543:CG:4907, V-B:SER:385:CB:8380, V-B:SER:385:CA:8378, V-A:PRO:540:CD:4887, H-A:TYR:539:N:4870"]

$$$$
2b_Ghoteimi_2023
     RDKit          3D

 42 47  0  0  0  0  0  0  0  0999 V2000
  130.3260  124.4120   67.0870 N   0  0  0  0  0  0  0  0  0  0  0  0
  129.8310  125.3640   66.6550 C   0  0  0  0  0  0  0  0  0  0  0  0
  129.2030  126.5730   66.1140 C   0  0  0  0  0  0  0  0  0  0  0  0
  128.7840  127.6150   66.9780 C   0  0  0  0  0  0  0  0  0  0  0  0
  128.9400  127.5760   68.4630 C   0  0  0  0  0  0  0  0  0  0  0  0
  130.1020  128.0680   69.0610 C   0  0  0  0  0  0  0  0  0  0  0  0
  130.2530  128.0330   70.4450 C   0  0  0  0  0  0  0  0  0  0  0  0
  129.2530  127.4890   71.2660 C   0  0  0  0  0  0  0  0  0  0  0  0
  129.3760  127.4550   72.6560 N   0  0  0  0  0  0  0  0  0  0  0  0
  130.6360  126.9700   73.2550 C   0  0  0  0  0  0  0  0  0  0  0  0
  130.5090  126.6270   74.7540 C   0  0  0  0  0  0  0  0  0  0  0  0
  129.9990  127.7430   75.4690 O   0  0  0  0  0  0  0  0  0  0  0  0
  128.7180  128.1280   74.9960 C   0  0  0  0  0  0  0  0  0  0  0  0
  128.8040  128.5180   73.5060 C   0  0  0  0  0  0  0  0  0  0  0  0
  128.0920  126.9950   70.6560 C   0  0  0  0  0  0  0  0  0  0  0  0
  127.9390  127.0330   69.2730 C   0  0  0  0  0  0  0  0  0  0  0  0
  128.1930  128.7530   66.4140 C   0  0  0  0  0  0  0  0  0  0  0  0
  128.0540  128.8640   65.0280 C   0  0  0  0  0  0  0  0  0  0  0  0
  127.4580  130.0710   64.3740 C   0  0  0  0  0  0  0  0  0  0  0  0
  126.1080  130.0910   64.0100 C   0  0  0  0  0  0  0  0  0  0  0  0
  125.5430  131.2160   63.4160 C   0  0  0  0  0  0  0  0  0  0  0  0
  126.3110  132.3610   63.1510 C   0  0  0  0  0  0  0  0  0  0  0  0
  125.7510  133.5100   62.5820 N   0  0  0  0  0  0  0  0  0  0  0  0
  126.5260  134.3010   61.6050 C   0  0  0  0  0  0  0  0  0  0  0  0
  125.9590  135.7170   61.3660 C   0  0  0  0  0  0  0  0  0  0  0  0
  124.5940  135.6360   60.9870 O   0  0  0  0  0  0  0  0  0  0  0  0
  123.8090  135.0220   61.9970 C   0  0  0  0  0  0  0  0  0  0  0  0
  124.3130  133.5860   62.2570 C   0  0  0  0  0  0  0  0  0  0  0  0
  127.6630  132.3390   63.5250 C   0  0  0  0  0  0  0  0  0  0  0  0
  128.2260  131.2140   64.1210 C   0  0  0  0  0  0  0  0  0  0  0  0
  128.4570  127.8660   64.2020 N   0  0  0  0  0  0  0  0  0  0  0  0
  129.0010  126.7420   64.7260 C   0  0  0  0  0  0  0  0  0  0  0  0
  129.4670  125.5380   63.5010 S   0  0  0  0  0  0  0  0  0  0  0  0
  131.0600  126.0590   62.7970 C   0  0  0  0  0  0  0  0  0  0  0  0
  132.2460  125.4750   63.5640 C   0  0  0  0  0  0  0  0  0  0  0  0
  133.0340  124.7280   62.9800 O   0  0  0  0  0  0  0  0  0  0  0  0
  132.3320  125.8330   64.8640 N   0  0  0  0  0  0  0  0  0  0  0  0
  133.3060  125.4580   65.7780 C   0  0  0  0  0  0  0  0  0  0  0  0
  133.1140  125.5080   67.1580 C   0  0  0  0  0  0  0  0  0  0  0  0
  134.2960  125.0620   67.7010 C   0  0  0  0  0  0  0  0  0  0  0  0
  135.1550  124.7580   66.7000 O   0  0  0  0  0  0  0  0  0  0  0  0
  134.5160  125.0110   65.4840 N   0  0  0  0  0  0  0  0  0  0  0  0
  1  2  3  0
  2  3  1  0
  3  4  2  0
  4  5  1  0
  5  6  2  0
  6  7  1  0
  7  8  2  0
  8  9  1  0
  9 10  1  0
 10 11  1  0
 11 12  1  0
 12 13  1  0
 13 14  1  0
  8 15  1  0
 15 16  2  0
  4 17  1  0
 17 18  2  0
 18 19  1  0
 19 20  2  0
 20 21  1  0
 21 22  2  0
 22 23  1  0
 23 24  1  0
 24 25  1  0
 25 26  1  0
 26 27  1  0
 27 28  1  0
 22 29  1  0
 29 30  2  0
 18 31  1  0
 31 32  2  0
 32 33  1  0
 33 34  1  0
 34 35  1  0
 35 36  2  0
 35 37  1  0
 37 38  1  0
 38 39  1  0
 39 40  2  0
 40 41  1  0
 41 42  1  0
 32  3  1  0
 42 38  2  0
 16  5  1  0
 30 19  1  0
 14  9  1  0
 28 23  1  0
M  END
>  <Binding energies>  (10) 
[-10.69]

>  <Ligand effiencies>  (10) 
[-0.24860465116279068]

>  <Interactions>  (10) 
["V-A:ARG:545:CD:4923, V-A:GLU:543:CD:4908, H-A:GLY:454:N:4050, H-A:TYR:484:OH:4348, H-A:ARG:545:NE:4924, V-A:ARG:545:CZ:4926, V-A:TYR:539:CD1:4873, V-B:ILE:369:CG2:8208, V-B:LEU:475:CD2:9230, V-A:TYR:539:CE1:4875, V-A:TYR:484:CZ:4347, H-A:GLU:543:OE2:4910, V-B:GLU:543:CB:9878, V-B:GLU:543:CG:9879, V-B:GLU:543:CD:9880, V-B:HIS:456:CD2:9039, V-A:HIS:456:CD2:4068, V-A:HIS:456:CE1:4070, H-B:LYS:547:NZ:9923, V-B:HIS:456:CE1:9041, V-B:GLU:543:C:9874, H-A:LYS:547:NZ:4951, H-A:GLU:543:OE1:4909, H-A:ARG:545:NH2:4928, V-A:GLU:543:CB:4906, V-A:GLU:543:C:4902, V-A:ALA:541:CB:4892, V-A:GLU:543:CG:4907, V-B:SER:385:CB:8380, V-B:SER:385:CA:8378, V-B:SER:385:C:8376, V-A:ILE:455:C:4052, V-A:ARG:545:CB:4921, V-A:ARG:545:CG:4922, V-A:GLU:543:CA:4904, H-A:ARG:545:NH1:4927, H-A:ILE:455:N:4055, V-A:TYR:484:CE1:4345"]

$$$$
2c_Ghoteimi_2023
     RDKit          3D

 42 47  0  0  0  0  0  0  0  0999 V2000
  128.4570  127.6600   61.9820 N   0  0  0  0  0  0  0  0  0  0  0  0
  128.5730  127.5930   63.1310 C   0  0  0  0  0  0  0  0  0  0  0  0
  128.7260  127.5030   64.5860 C   0  0  0  0  0  0  0  0  0  0  0  0
  129.4440  126.4310   65.1720 C   0  0  0  0  0  0  0  0  0  0  0  0
  130.0850  125.3330   64.3880 C   0  0  0  0  0  0  0  0  0  0  0  0
  129.4080  124.1300   64.1810 C   0  0  0  0  0  0  0  0  0  0  0  0
  129.9970  123.1030   63.4470 C   0  0  0  0  0  0  0  0  0  0  0  0
  131.2860  123.2460   62.9120 C   0  0  0  0  0  0  0  0  0  0  0  0
  131.8880  122.2370   62.1560 N   0  0  0  0  0  0  0  0  0  0  0  0
  131.1060  121.5610   61.1020 C   0  0  0  0  0  0  0  0  0  0  0  0
  131.7430  120.2380   60.6250 C   0  0  0  0  0  0  0  0  0  0  0  0
  133.0780  120.4670   60.1980 O   0  0  0  0  0  0  0  0  0  0  0  0
  133.8820  120.9860   61.2460 C   0  0  0  0  0  0  0  0  0  0  0  0
  133.3010  122.3270   61.7400 C   0  0  0  0  0  0  0  0  0  0  0  0
  131.9600  124.4560   63.1290 C   0  0  0  0  0  0  0  0  0  0  0  0
  131.3700  125.4830   63.8600 C   0  0  0  0  0  0  0  0  0  0  0  0
  129.5640  126.3920   66.5670 C   0  0  0  0  0  0  0  0  0  0  0  0
  129.0090  127.4050   67.3540 C   0  0  0  0  0  0  0  0  0  0  0  0
  129.1240  127.4190   68.8450 C   0  0  0  0  0  0  0  0  0  0  0  0
  128.0490  127.0280   69.6480 C   0  0  0  0  0  0  0  0  0  0  0  0
  128.1520  127.0330   71.0370 C   0  0  0  0  0  0  0  0  0  0  0  0
  129.3340  127.4410   71.6750 C   0  0  0  0  0  0  0  0  0  0  0  0
  129.4630  127.4280   73.0680 N   0  0  0  0  0  0  0  0  0  0  0  0
  130.7010  126.9120   73.6870 C   0  0  0  0  0  0  0  0  0  0  0  0
  130.5570  126.5990   75.1920 C   0  0  0  0  0  0  0  0  0  0  0  0
  130.0870  127.7450   75.8830 O   0  0  0  0  0  0  0  0  0  0  0  0
  128.8160  128.1560   75.4040 C   0  0  0  0  0  0  0  0  0  0  0  0
  128.9050  128.5100   73.9040 C   0  0  0  0  0  0  0  0  0  0  0  0
  130.4140  127.8200   70.8650 C   0  0  0  0  0  0  0  0  0  0  0  0
  130.3100  127.8130   69.4760 C   0  0  0  0  0  0  0  0  0  0  0  0
  128.3230  128.4330   66.7910 N   0  0  0  0  0  0  0  0  0  0  0  0
  128.1660  128.4760   65.4460 C   0  0  0  0  0  0  0  0  0  0  0  0
  127.2340  129.8820   64.8830 S   0  0  0  0  0  0  0  0  0  0  0  0
  125.7200  129.2530   64.0970 C   0  0  0  0  0  0  0  0  0  0  0  0
  124.8020  130.3850   63.6320 C   0  0  0  0  0  0  0  0  0  0  0  0
  123.5810  130.2500   63.7280 O   0  0  0  0  0  0  0  0  0  0  0  0
  125.4260  131.4730   63.1330 N   0  0  0  0  0  0  0  0  0  0  0  0
  124.8250  132.6320   62.6640 C   0  0  0  0  0  0  0  0  0  0  0  0
  123.5640  132.9890   62.7750 N   0  0  0  0  0  0  0  0  0  0  0  0
  123.3410  134.1620   62.2160 C   0  0  0  0  0  0  0  0  0  0  0  0
  124.4410  134.7840   61.6320 C   0  0  0  0  0  0  0  0  0  0  0  0
  125.8380  133.7680   61.8330 S   0  0  0  0  0  0  0  0  0  0  0  0
  1  2  3  0
  2  3  1  0
  3  4  2  0
  4  5  1  0
  5  6  2  0
  6  7  1  0
  7  8  2  0
  8  9  1  0
  9 10  1  0
 10 11  1  0
 11 12  1  0
 12 13  1  0
 13 14  1  0
  8 15  1  0
 15 16  2  0
  4 17  1  0
 17 18  2  0
 18 19  1  0
 19 20  2  0
 20 21  1  0
 21 22  2  0
 22 23  1  0
 23 24  1  0
 24 25  1  0
 25 26  1  0
 26 27  1  0
 27 28  1  0
 22 29  1  0
 29 30  2  0
 18 31  1  0
 31 32  2  0
 32 33  1  0
 33 34  1  0
 34 35  1  0
 35 36  2  0
 35 37  1  0
 37 38  1  0
 38 39  2  0
 39 40  1  0
 40 41  2  0
 41 42  1  0
 32  3  1  0
 42 38  1  0
 16  5  1  0
 30 19  1  0
 14  9  1  0
 28 23  1  0
M  END
>  <Binding energies>  (11) 
[-10.05]

>  <Ligand effiencies>  (11) 
[-0.23372093023255816]

>  <Interactions>  (11) 
["V-B:TYR:539:CD2:9846, V-A:GLU:543:CD:4908, V-B:TYR:539:CE2:9848, V-A:LEU:475:CD2:4259, V-B:GLY:454:CA:9020, V-B:ILE:369:CG2:8208, V-B:LEU:475:CD2:9230, H-B:ARG:545:NH1:9899, H-B:GLY:454:N:9021, V-B:ILE:369:CG1:8209, H-B:ARG:545:NH2:9900, V-A:ILE:369:CD1:3239, V-A:ILE:369:CG2:3237, V-B:GLU:543:CB:9878, V-B:GLU:543:CG:9879, V-A:SER:385:C:3405, V-B:GLU:543:CD:9880, V-B:HIS:456:CD2:9039, V-A:GLY:544:C:4912, V-A:HIS:456:CD2:4068, V-A:HIS:456:CE1:4070, V-B:HIS:456:CE1:9041, V-B:GLU:543:C:9874, H-A:LYS:547:NZ:4951, V-A:GLU:543:CB:4906, V-A:GLU:543:C:4902, V-B:ARG:545:CZ:9898, H-B:TYR:484:OH:9319, V-A:GLU:543:CG:4907, V-A:SER:385:CA:3407, V-B:SER:385:CA:8378, H-A:SER:385:OG:3410, V-B:SER:385:C:8376, V-A:SER:385:CB:3409"]

$$$$
2j_Grossjean_2025
     RDKit          3D

 23 24  0  0  0  0  0  0  0  0999 V2000
  128.6270  121.7660   61.1710 C   0  0  0  0  0  0  0  0  0  0  0  0
  129.8540  122.3920   61.8060 C   0  0  0  0  0  0  0  0  0  0  0  0
  131.1380  121.9390   61.5140 C   0  0  0  0  0  0  0  0  0  0  0  0
  132.2420  122.5530   62.1240 C   0  0  0  0  0  0  0  0  0  0  0  0
  133.6560  122.0390   61.7890 C   0  0  0  0  0  0  0  0  0  0  0  0
  134.2260  121.5290   62.8810 F   0  0  0  0  0  0  0  0  0  0  0  0
  133.5880  121.0920   60.8530 F   0  0  0  0  0  0  0  0  0  0  0  0
  134.4580  123.0010   61.3280 F   0  0  0  0  0  0  0  0  0  0  0  0
  132.0100  123.6210   63.0260 C   0  0  0  0  0  0  0  0  0  0  0  0
  133.1260  124.2990   63.6930 C   0  0  0  0  0  0  0  0  0  0  0  0
  134.0080  124.8340   64.2180 N   0  0  0  0  0  0  0  0  0  0  0  0
  130.6720  124.0170   63.2650 C   0  0  0  0  0  0  0  0  0  0  0  0
  130.2610  125.3510   64.3800 S   0  0  0  0  0  0  0  0  0  0  0  0
  131.1970  125.1160   65.9290 C   0  0  0  0  0  0  0  0  0  0  0  0
  130.3800  125.3120   67.2140 C   0  0  0  0  0  0  0  0  0  0  0  0
  129.7590  124.3720   67.7150 O   0  0  0  0  0  0  0  0  0  0  0  0
  130.3990  126.5690   67.7110 N   0  0  0  0  0  0  0  0  0  0  0  0
  129.7520  127.0180   68.8550 C   0  0  0  0  0  0  0  0  0  0  0  0
  128.5280  126.7420   69.2510 N   0  0  0  0  0  0  0  0  0  0  0  0
  128.2400  127.3410   70.3900 C   0  0  0  0  0  0  0  0  0  0  0  0
  129.2450  128.1280   70.9430 C   0  0  0  0  0  0  0  0  0  0  0  0
  130.6400  128.0720   69.9070 S   0  0  0  0  0  0  0  0  0  0  0  0
  129.6170  123.4110   62.6630 N   0  0  0  0  0  0  0  0  0  0  0  0
  1  2  1  0
  2  3  2  0
  3  4  1  0
  4  5  1  0
  5  6  1  0
  5  7  1  0
  5  8  1  0
  4  9  2  0
  9 10  1  0
 10 11  3  0
  9 12  1  0
 12 13  1  0
 13 14  1  0
 14 15  1  0
 15 16  2  0
 15 17  1  0
 17 18  1  0
 18 19  2  0
 19 20  1  0
 20 21  2  0
 21 22  1  0
 12 23  2  0
 23  2  1  0
 22 18  1  0
M  END
>  <Binding energies>  (12) 
[-6.19]

>  <Ligand effiencies>  (12) 
[-0.2579166666666667]

>  <Interactions>  (12) 
["V-A:GLU:543:CD:4908, H-A:GLY:454:N:4050, H-A:TYR:484:OH:4348, H-A:ARG:545:NE:4924, V-A:ARG:545:CZ:4926, V-A:LEU:475:CD2:4259, V-B:PRO:540:CA:9855, V-A:ILE:369:CD1:3239, V-A:GLY:454:CA:4049, V-A:ILE:369:CG2:3237, V-A:ILE:369:CG1:3238, V-A:TYR:484:CZ:4347, V-A:ILE:369:CB:3236, H-A:GLU:543:OE2:4910, V-B:GLU:543:CB:9878, V-A:SER:385:C:3405, V-A:TYR:484:CE2:4346, V-B:ALA:541:CB:9864, V-B:HIS:456:CD2:9039, V-A:GLY:544:C:4912, V-A:HIS:456:CE1:4070, V-B:HIS:456:CE1:9041, H-A:ARG:545:NH2:4928, V-A:GLU:543:CB:4906, V-A:GLU:543:C:4902, V-B:PRO:540:C:9853, V-B:TYR:539:C:9839, V-A:SER:385:CA:3407, V-A:SER:385:CB:3409, H-A:ARG:545:NH1:4927"]

$$$$
3ab_Grossjean_2025
     RDKit          3D

 33 35  0  0  0  0  0  0  0  0999 V2000
  127.5280  128.5340   74.0920 C   0  0  0  0  0  0  0  0  0  0  0  0
  128.4940  127.8420   73.3130 O   0  0  0  0  0  0  0  0  0  0  0  0
  129.4060  128.5170   72.5690 C   0  0  0  0  0  0  0  0  0  0  0  0
  130.0610  129.4710   72.9970 O   0  0  0  0  0  0  0  0  0  0  0  0
  129.5410  127.9860   71.1710 C   0  0  0  0  0  0  0  0  0  0  0  0
  128.5130  127.2610   70.5480 C   0  0  0  0  0  0  0  0  0  0  0  0
  128.6660  126.7820   69.2510 C   0  0  0  0  0  0  0  0  0  0  0  0
  129.8580  127.0200   68.5490 C   0  0  0  0  0  0  0  0  0  0  0  0
  130.1190  126.5880   67.2340 N   0  0  0  0  0  0  0  0  0  0  0  0
  129.9880  125.3640   66.6820 C   0  0  0  0  0  0  0  0  0  0  0  0
  129.6090  124.3510   67.2700 O   0  0  0  0  0  0  0  0  0  0  0  0
  130.3550  125.2710   65.1990 C   0  0  0  0  0  0  0  0  0  0  0  0
  129.7560  123.7310   64.4410 S   0  0  0  0  0  0  0  0  0  0  0  0
  130.2100  123.7700   62.7200 C   0  0  0  0  0  0  0  0  0  0  0  0
  129.1560  123.6440   61.8790 N   0  0  0  0  0  0  0  0  0  0  0  0
  129.3570  123.6620   60.5360 C   0  0  0  0  0  0  0  0  0  0  0  0
  128.1370  123.5200   59.6740 C   0  0  0  0  0  0  0  0  0  0  0  0
  128.2150  122.8990   58.4170 C   0  0  0  0  0  0  0  0  0  0  0  0
  127.0870  122.7630   57.6130 C   0  0  0  0  0  0  0  0  0  0  0  0
  125.8600  123.2490   58.0560 C   0  0  0  0  0  0  0  0  0  0  0  0
  125.7570  123.8710   59.2960 C   0  0  0  0  0  0  0  0  0  0  0  0
  126.8880  124.0050   60.0960 C   0  0  0  0  0  0  0  0  0  0  0  0
  130.6460  123.7900   60.0060 C   0  0  0  0  0  0  0  0  0  0  0  0
  131.7550  123.9020   60.8570 C   0  0  0  0  0  0  0  0  0  0  0  0
  133.1580  124.0350   60.2330 C   0  0  0  0  0  0  0  0  0  0  0  0
  133.1250  124.1420   58.9030 F   0  0  0  0  0  0  0  0  0  0  0  0
  133.7710  125.1220   60.7050 F   0  0  0  0  0  0  0  0  0  0  0  0
  133.8920  122.9620   60.5320 F   0  0  0  0  0  0  0  0  0  0  0  0
  131.5400  123.8850   62.2570 C   0  0  0  0  0  0  0  0  0  0  0  0
  132.6690  123.9420   63.1900 C   0  0  0  0  0  0  0  0  0  0  0  0
  133.5620  123.9880   63.9240 N   0  0  0  0  0  0  0  0  0  0  0  0
  130.8800  127.7450   69.1630 C   0  0  0  0  0  0  0  0  0  0  0  0
  130.7250  128.2220   70.4610 C   0  0  0  0  0  0  0  0  0  0  0  0
  1  2  1  0
  2  3  1  0
  3  4  2  0
  3  5  1  0
  5  6  2  0
  6  7  1  0
  7  8  2  0
  8  9  1  0
  9 10  1  0
 10 11  2  0
 10 12  1  0
 12 13  1  0
 13 14  1  0
 14 15  2  0
 15 16  1  0
 16 17  1  0
 17 18  2  0
 18 19  1  0
 19 20  2  0
 20 21  1  0
 21 22  2  0
 16 23  2  0
 23 24  1  0
 24 25  1  0
 25 26  1  0
 25 27  1  0
 25 28  1  0
 24 29  2  0
 29 30  1  0
 30 31  3  0
  8 32  1  0
 32 33  2  0
 33  5  1  0
 29 14  1  0
 22 17  1  0
M  END
>  <Binding energies>  (13) 
[-8.56]

>  <Ligand effiencies>  (13) 
[-0.25176470588235295]

>  <Interactions>  (13) 
["V-B:PRO:540:N:9856, V-B:TYR:539:CD2:9846, V-A:GLU:543:CD:4908, H-A:GLY:454:N:4050, V-B:PRO:540:CB:9857, V-B:PRO:540:CD:9859, H-A:TYR:484:OH:4348, V-B:TYR:539:CE2:9848, V-B:TYR:539:CZ:9849, V-B:PRO:540:CA:9855, V-A:ASP:366:CB:3212, V-A:ILE:369:CD1:3239, V-A:ASP:366:CG:3213, V-A:ILE:369:CG2:3237, V-A:ILE:369:CB:3236, H-A:GLU:543:OE2:4910, V-B:GLU:543:CB:9878, V-B:GLU:543:CG:9879, V-A:ASP:366:CA:3210, V-B:HIS:456:CD2:9039, V-A:GLY:544:C:4912, V-B:HIS:456:CG:9037, V-A:HIS:456:CE1:4070, H-B:LYS:547:NZ:9923, V-B:HIS:456:CE1:9041, V-B:GLU:543:C:9874, H-A:LYS:547:NZ:4951, H-A:GLU:543:OE1:4909, V-A:GLU:543:CB:4906, V-A:GLU:543:C:4902, V-B:TYR:539:CG:9844, V-B:TYR:539:C:9839"]

$$$$
3ac_Grossjean_2025
     RDKit          3D

 31 33  0  0  0  0  0  0  0  0999 V2000
  123.4940  136.5620   60.6190 C   0  0  0  0  0  0  0  0  0  0  0  0
  124.7860  135.9690   60.7040 O   0  0  0  0  0  0  0  0  0  0  0  0
  124.9550  134.8240   61.4590 C   0  0  0  0  0  0  0  0  0  0  0  0
  126.2160  134.2300   61.4140 C   0  0  0  0  0  0  0  0  0  0  0  0
  126.4820  133.0760   62.1450 C   0  0  0  0  0  0  0  0  0  0  0  0
  125.4840  132.4930   62.9270 C   0  0  0  0  0  0  0  0  0  0  0  0
  125.8530  131.3400   63.6460 N   0  0  0  0  0  0  0  0  0  0  0  0
  125.0690  130.3590   64.1430 C   0  0  0  0  0  0  0  0  0  0  0  0
  123.8470  130.2870   64.0060 O   0  0  0  0  0  0  0  0  0  0  0  0
  125.7970  129.2690   64.9300 C   0  0  0  0  0  0  0  0  0  0  0  0
  127.5120  129.7310   65.3210 S   0  0  0  0  0  0  0  0  0  0  0  0
  128.3380  128.3180   66.0270 C   0  0  0  0  0  0  0  0  0  0  0  0
  128.3790  128.3450   67.3810 N   0  0  0  0  0  0  0  0  0  0  0  0
  128.9720  127.3300   68.0600 C   0  0  0  0  0  0  0  0  0  0  0  0
  128.9800  127.4400   69.5560 C   0  0  0  0  0  0  0  0  0  0  0  0
  127.8840  126.9960   70.3150 C   0  0  0  0  0  0  0  0  0  0  0  0
  127.8880  127.0900   71.7040 C   0  0  0  0  0  0  0  0  0  0  0  0
  128.9910  127.6330   72.3550 C   0  0  0  0  0  0  0  0  0  0  0  0
  130.0860  128.0850   71.6280 C   0  0  0  0  0  0  0  0  0  0  0  0
  130.0780  127.9890   70.2390 C   0  0  0  0  0  0  0  0  0  0  0  0
  129.5610  126.2600   67.3790 C   0  0  0  0  0  0  0  0  0  0  0  0
  129.5530  126.2190   65.9780 C   0  0  0  0  0  0  0  0  0  0  0  0
  130.2190  125.0240   65.2680 C   0  0  0  0  0  0  0  0  0  0  0  0
  130.4930  124.0160   66.0980 F   0  0  0  0  0  0  0  0  0  0  0  0
  129.4150  124.5460   64.3160 F   0  0  0  0  0  0  0  0  0  0  0  0
  131.3660  125.4110   64.7090 F   0  0  0  0  0  0  0  0  0  0  0  0
  128.9380  127.2830   65.2720 C   0  0  0  0  0  0  0  0  0  0  0  0
  128.9720  127.3230   63.8090 C   0  0  0  0  0  0  0  0  0  0  0  0
  129.0000  127.3540   62.6520 N   0  0  0  0  0  0  0  0  0  0  0  0
  124.2140  133.0890   62.9830 C   0  0  0  0  0  0  0  0  0  0  0  0
  123.9520  134.2430   62.2510 C   0  0  0  0  0  0  0  0  0  0  0  0
  1  2  1  0
  2  3  1  0
  3  4  2  0
  4  5  1  0
  5  6  2  0
  6  7  1  0
  7  8  1  0
  8  9  2  0
  8 10  1  0
 10 11  1  0
 11 12  1  0
 12 13  2  0
 13 14  1  0
 14 15  1  0
 15 16  2  0
 16 17  1  0
 17 18  2  0
 18 19  1  0
 19 20  2  0
 14 21  2  0
 21 22  1  0
 22 23  1  0
 23 24  1  0
 23 25  1  0
 23 26  1  0
 22 27  2  0
 27 28  1  0
 28 29  3  0
  6 30  1  0
 30 31  2  0
 31  3  1  0
 27 12  1  0
 20 15  1  0
M  END
>  <Binding energies>  (14) 
[-7.58]

>  <Ligand effiencies>  (14) 
[-0.236875]

>  <Interactions>  (14) 
["V-A:GLU:543:CD:4908, V-A:TYR:539:CD1:4873, V-B:GLY:454:CA:9020, V-B:ILE:369:CG2:8208, V-B:LEU:475:CD2:9230, V-A:TYR:539:CE1:4875, H-B:GLY:454:N:9021, H-B:ARG:545:NH2:9900, V-A:TYR:484:CZ:4347, V-B:GLU:543:CB:9878, V-B:GLU:543:CG:9879, V-A:TYR:484:CE2:4346, V-B:GLU:543:CD:9880, V-B:HIS:456:CD2:9039, V-A:GLY:544:C:4912, V-B:GLY:544:C:9884, V-A:HIS:456:CE1:4070, V-B:HIS:456:CE1:9041, V-B:GLU:543:C:9874, V-A:GLU:543:CB:4906, V-A:GLU:543:C:4902, V-B:ARG:545:CZ:9898, H-B:TYR:484:OH:9319, V-A:GLU:543:CG:4907, V-B:SER:385:CB:8380, V-B:SER:385:CA:8378, V-B:LEU:373:CD1:8251"]

$$$$
3af_Grossjean_2025
     RDKit          3D

 29 31  0  0  0  0  0  0  0  0999 V2000
  129.3320  126.9090   63.2150 N   0  0  0  0  0  0  0  0  0  0  0  0
  129.1940  126.9990   64.3610 C   0  0  0  0  0  0  0  0  0  0  0  0
  129.0180  127.1130   65.8110 C   0  0  0  0  0  0  0  0  0  0  0  0
  128.2320  128.1540   66.3630 C   0  0  0  0  0  0  0  0  0  0  0  0
  127.4850  129.1840   65.4930 C   0  0  0  0  0  0  0  0  0  0  0  0
  127.2980  128.7650   64.2390 F   0  0  0  0  0  0  0  0  0  0  0  0
  126.2840  129.4350   66.0160 F   0  0  0  0  0  0  0  0  0  0  0  0
  128.1780  130.3220   65.4330 F   0  0  0  0  0  0  0  0  0  0  0  0
  128.1380  128.2550   67.7590 C   0  0  0  0  0  0  0  0  0  0  0  0
  128.8100  127.3450   68.5810 C   0  0  0  0  0  0  0  0  0  0  0  0
  128.7600  127.4180   70.0780 C   0  0  0  0  0  0  0  0  0  0  0  0
  129.8470  127.9210   70.8090 C   0  0  0  0  0  0  0  0  0  0  0  0
  129.8050  127.9940   72.1990 C   0  0  0  0  0  0  0  0  0  0  0  0
  128.6710  127.5630   72.8770 C   0  0  0  0  0  0  0  0  0  0  0  0
  127.5780  127.0630   72.1770 C   0  0  0  0  0  0  0  0  0  0  0  0
  127.6240  126.9930   70.7870 C   0  0  0  0  0  0  0  0  0  0  0  0
  129.5650  126.3510   68.0480 N   0  0  0  0  0  0  0  0  0  0  0  0
  129.6530  126.2190   66.7020 C   0  0  0  0  0  0  0  0  0  0  0  0
  130.6740  124.8510   66.1920 S   0  0  0  0  0  0  0  0  0  0  0  0
  132.3460  125.4870   65.8660 C   0  0  0  0  0  0  0  0  0  0  0  0
  132.8520  125.0750   64.4840 C   0  0  0  0  0  0  0  0  0  0  0  0
  133.8720  124.3920   64.3990 O   0  0  0  0  0  0  0  0  0  0  0  0
  132.1140  125.5180   63.4430 N   0  0  0  0  0  0  0  0  0  0  0  0
  132.3070  125.3270   62.0610 C   0  0  0  0  0  0  0  0  0  0  0  0
  133.1960  124.4080   61.4740 C   0  0  0  0  0  0  0  0  0  0  0  0
  133.2870  124.3260   60.0830 C   0  0  0  0  0  0  0  0  0  0  0  0
  132.4850  125.1660   59.3100 C   0  0  0  0  0  0  0  0  0  0  0  0
  131.6200  126.0600   59.8500 N   0  0  0  0  0  0  0  0  0  0  0  0
  131.5430  126.1280   61.2040 C   0  0  0  0  0  0  0  0  0  0  0  0
  1  2  3  0
  2  3  1  0
  3  4  2  0
  4  5  1  0
  5  6  1  0
  5  7  1  0
  5  8  1  0
  4  9  1  0
  9 10  2  0
 10 11  1  0
 11 12  2  0
 12 13  1  0
 13 14  2  0
 14 15  1  0
 15 16  2  0
 10 17  1  0
 17 18  2  0
 18 19  1  0
 19 20  1  0
 20 21  1  0
 21 22  2  0
 21 23  1  0
 23 24  1  0
 24 25  2  0
 25 26  1  0
 26 27  2  0
 27 28  1  0
 28 29  2  0
 18  3  1  0
 29 24  1  0
 16 11  1  0
M  END
>  <Binding energies>  (15) 
[-7.37]

>  <Ligand effiencies>  (15) 
[-0.24566666666666667]

>  <Interactions>  (15) 
["V-A:GLU:543:CD:4908, H-A:GLY:454:N:4050, H-A:TYR:484:OH:4348, V-A:ARG:545:CZ:4926, V-A:ASP:366:CB:3212, V-A:ASP:366:CG:3213, H-A:GLU:543:OE2:4910, V-B:GLU:543:CB:9878, V-B:GLU:543:CG:9879, V-B:GLU:543:CD:9880, V-B:HIS:456:CD2:9039, V-B:GLY:544:C:9884, V-A:HIS:456:CE1:4070, V-B:LYS:547:CE:9922, V-B:HIS:456:CE1:9041, V-B:GLU:543:C:9874, H-A:GLU:543:OE1:4909, V-A:GLU:543:CB:4906, V-B:TYR:484:CZ:9318, V-A:GLU:543:CG:4907, V-B:TYR:484:CE2:9317"]

$$$$
3ag_Grossjean_2025
     RDKit          3D

 30 32  0  0  0  0  0  0  0  0999 V2000
  129.1980  126.8470   63.3390 N   0  0  0  0  0  0  0  0  0  0  0  0
  129.1140  126.9570   64.4890 C   0  0  0  0  0  0  0  0  0  0  0  0
  129.0060  127.0980   65.9440 C   0  0  0  0  0  0  0  0  0  0  0  0
  128.2480  128.1490   66.5150 C   0  0  0  0  0  0  0  0  0  0  0  0
  127.4520  129.1580   65.6640 C   0  0  0  0  0  0  0  0  0  0  0  0
  127.3400  128.7840   64.3880 F   0  0  0  0  0  0  0  0  0  0  0  0
  126.2200  129.2920   66.1540 F   0  0  0  0  0  0  0  0  0  0  0  0
  128.0550  130.3480   65.6790 F   0  0  0  0  0  0  0  0  0  0  0  0
  128.2190  128.2730   67.9120 C   0  0  0  0  0  0  0  0  0  0  0  0
  128.9380  127.3820   68.7160 C   0  0  0  0  0  0  0  0  0  0  0  0
  128.9450  127.4700   70.2120 C   0  0  0  0  0  0  0  0  0  0  0  0
  130.0560  127.9920   70.8940 C   0  0  0  0  0  0  0  0  0  0  0  0
  130.0690  128.0770   72.2840 C   0  0  0  0  0  0  0  0  0  0  0  0
  128.9680  127.6380   73.0130 C   0  0  0  0  0  0  0  0  0  0  0  0
  127.8560  127.1140   72.3610 C   0  0  0  0  0  0  0  0  0  0  0  0
  127.8470  127.0310   70.9720 C   0  0  0  0  0  0  0  0  0  0  0  0
  129.6540  126.3680   68.1650 N   0  0  0  0  0  0  0  0  0  0  0  0
  129.6800  126.2170   66.8190 C   0  0  0  0  0  0  0  0  0  0  0  0
  130.6630  124.8370   66.2770 S   0  0  0  0  0  0  0  0  0  0  0  0
  132.3380  125.4620   65.9470 C   0  0  0  0  0  0  0  0  0  0  0  0
  132.8110  125.1270   64.5320 C   0  0  0  0  0  0  0  0  0  0  0  0
  133.8640  124.5080   64.3660 O   0  0  0  0  0  0  0  0  0  0  0  0
  132.0200  125.5360   63.5250 N   0  0  0  0  0  0  0  0  0  0  0  0
  132.2610  125.2930   62.1030 C   0  0  0  0  0  0  0  0  0  0  0  0
  132.5670  123.8380   61.7640 C   0  0  0  0  0  0  0  0  0  0  0  0
  131.5210  122.9550   61.4840 C   0  0  0  0  0  0  0  0  0  0  0  0
  131.7980  121.6330   61.1450 C   0  0  0  0  0  0  0  0  0  0  0  0
  133.1210  121.2010   61.0780 C   0  0  0  0  0  0  0  0  0  0  0  0
  134.1700  122.0800   61.3410 C   0  0  0  0  0  0  0  0  0  0  0  0
  133.8930  123.4020   61.6800 C   0  0  0  0  0  0  0  0  0  0  0  0
  1  2  3  0
  2  3  1  0
  3  4  2  0
  4  5  1  0
  5  6  1  0
  5  7  1  0
  5  8  1  0
  4  9  1  0
  9 10  2  0
 10 11  1  0
 11 12  2  0
 12 13  1  0
 13 14  2  0
 14 15  1  0
 15 16  2  0
 10 17  1  0
 17 18  2  0
 18 19  1  0
 19 20  1  0
 20 21  1  0
 21 22  2  0
 21 23  1  0
 23 24  1  0
 24 25  1  0
 25 26  2  0
 26 27  1  0
 27 28  2  0
 28 29  1  0
 29 30  2  0
 18  3  1  0
 30 25  1  0
 16 11  1  0
M  END
>  <Binding energies>  (16) 
[-7.95]

>  <Ligand effiencies>  (16) 
[-0.2564516129032258]

>  <Interactions>  (16) 
["V-B:TYR:539:CD2:9846, V-A:GLU:543:CD:4908, H-A:GLY:454:N:4050, H-A:TYR:484:OH:4348, V-B:TYR:539:CE2:9848, V-A:ARG:545:CZ:4926, V-A:LEU:475:CD2:4259, V-A:ILE:369:CD1:3239, V-A:ILE:369:CG2:3237, H-A:GLU:543:OE2:4910, V-B:GLU:543:CB:9878, V-B:GLU:543:CG:9879, V-B:GLU:543:CD:9880, V-B:HIS:456:CD2:9039, V-B:GLY:544:C:9884, V-A:HIS:456:CE1:4070, V-B:HIS:456:CE1:9041, V-B:GLU:543:C:9874, H-A:GLU:543:OE1:4909, H-A:ARG:545:NH2:4928, V-A:GLU:543:CB:4906, V-A:GLU:543:C:4902, V-B:TYR:484:CZ:9318, V-A:GLU:543:CG:4907, V-A:SER:385:CB:3409, V-B:TYR:484:CE2:9317"]

$$$$
3bc_Grossjean_2025
     RDKit          3D

 28 30  0  0  0  0  0  0  0  0999 V2000
  128.6440  128.7620   73.4170 C   0  0  0  0  0  0  0  0  0  0  0  0
  129.9410  128.5230   72.8810 O   0  0  0  0  0  0  0  0  0  0  0  0
  130.0610  128.1170   71.5650 C   0  0  0  0  0  0  0  0  0  0  0  0
  128.9080  127.6150   70.9620 C   0  0  0  0  0  0  0  0  0  0  0  0
  128.9310  127.1810   69.6390 C   0  0  0  0  0  0  0  0  0  0  0  0
  130.1150  127.2360   68.9020 C   0  0  0  0  0  0  0  0  0  0  0  0
  130.0380  126.7880   67.5700 N   0  0  0  0  0  0  0  0  0  0  0  0
  129.8890  125.5300   67.1020 C   0  0  0  0  0  0  0  0  0  0  0  0
  129.7510  124.5300   67.8090 O   0  0  0  0  0  0  0  0  0  0  0  0
  129.8580  125.4150   65.5710 C   0  0  0  0  0  0  0  0  0  0  0  0
  130.0700  123.7250   64.9160 S   0  0  0  0  0  0  0  0  0  0  0  0
  130.5290  123.8590   63.2030 C   0  0  0  0  0  0  0  0  0  0  0  0
  129.4870  123.7210   62.3470 N   0  0  0  0  0  0  0  0  0  0  0  0
  129.6970  123.8050   61.0070 C   0  0  0  0  0  0  0  0  0  0  0  0
  128.4960  123.6200   60.1280 C   0  0  0  0  0  0  0  0  0  0  0  0
  128.6390  123.1960   58.7980 C   0  0  0  0  0  0  0  0  0  0  0  0
  127.5290  123.0220   57.9760 C   0  0  0  0  0  0  0  0  0  0  0  0
  126.2550  123.2730   58.4750 C   0  0  0  0  0  0  0  0  0  0  0  0
  126.0850  123.6980   59.7890 C   0  0  0  0  0  0  0  0  0  0  0  0
  127.1990  123.8710   60.6070 C   0  0  0  0  0  0  0  0  0  0  0  0
  130.9770  124.0310   60.4930 C   0  0  0  0  0  0  0  0  0  0  0  0
  132.0600  124.1990   61.3630 C   0  0  0  0  0  0  0  0  0  0  0  0
  133.4380  124.4620   60.7580 C   0  0  0  0  0  0  0  0  0  0  0  0
  131.8440  124.1240   62.7570 C   0  0  0  0  0  0  0  0  0  0  0  0
  132.9520  124.3440   63.6870 C   0  0  0  0  0  0  0  0  0  0  0  0
  133.8300  124.5190   64.4210 N   0  0  0  0  0  0  0  0  0  0  0  0
  131.2760  127.7530   69.4960 C   0  0  0  0  0  0  0  0  0  0  0  0
  131.2480  128.1860   70.8200 C   0  0  0  0  0  0  0  0  0  0  0  0
  1  2  1  0
  2  3  1  0
  3  4  2  0
  4  5  1  0
  5  6  2  0
  6  7  1  0
  7  8  1  0
  8  9  2  0
  8 10  1  0
 10 11  1  0
 11 12  1  0
 12 13  2  0
 13 14  1  0
 14 15  1  0
 15 16  2  0
 16 17  1  0
 17 18  2  0
 18 19  1  0
 19 20  2  0
 14 21  2  0
 21 22  1  0
 22 23  1  0
 22 24  2  0
 24 25  1  0
 25 26  3  0
  6 27  1  0
 27 28  2  0
 28  3  1  0
 24 12  1  0
 20 15  1  0
M  END
>  <Binding energies>  (17) 
[-8.01]

>  <Ligand effiencies>  (17) 
[-0.27620689655172415]

>  <Interactions>  (17) 
["V-B:PRO:540:N:9856, V-B:TYR:539:CD2:9846, V-A:GLU:543:CD:4908, H-A:GLY:454:N:4050, V-B:PRO:540:CB:9857, H-A:TYR:484:OH:4348, V-B:TYR:539:CE2:9848, V-B:TYR:539:CZ:9849, H-A:ARG:545:NE:4924, V-B:PRO:540:CA:9855, V-A:ASP:366:CG:3213, H-A:GLU:543:OE2:4910, V-B:GLU:543:CB:9878, V-B:GLU:543:CG:9879, V-B:GLU:543:CD:9880, V-B:HIS:456:CD2:9039, V-A:GLY:544:C:4912, V-A:HIS:456:CE1:4070, V-B:HIS:456:CE1:9041, H-A:LYS:547:NZ:4951, H-A:GLU:543:OE1:4909, H-A:ARG:545:NH2:4928, V-A:GLU:543:CB:4906, V-A:GLU:543:C:4902, V-B:TYR:539:C:9839, V-A:GLY:544:CA:4914, V-A:ARG:545:CG:4922, V-A:ARG:545:CA:4919"]

$$$$
3bd_Grossjean_2025
     RDKit          3D

 26 28  0  0  0  0  0  0  0  0999 V2000
  127.5090  129.1850   65.6940 C   0  0  0  0  0  0  0  0  0  0  0  0
  128.2790  128.1520   66.5160 C   0  0  0  0  0  0  0  0  0  0  0  0
  128.2560  128.2670   67.9100 C   0  0  0  0  0  0  0  0  0  0  0  0
  128.9520  127.3430   68.6990 C   0  0  0  0  0  0  0  0  0  0  0  0
  128.9660  127.4040   70.1970 C   0  0  0  0  0  0  0  0  0  0  0  0
  127.8450  127.0050   70.9420 C   0  0  0  0  0  0  0  0  0  0  0  0
  127.8510  127.0610   72.3340 C   0  0  0  0  0  0  0  0  0  0  0  0
  128.9820  127.5210   73.0010 C   0  0  0  0  0  0  0  0  0  0  0  0
  130.1040  127.9250   72.2870 C   0  0  0  0  0  0  0  0  0  0  0  0
  130.0940  127.8680   70.8960 C   0  0  0  0  0  0  0  0  0  0  0  0
  129.6420  126.3220   68.1270 N   0  0  0  0  0  0  0  0  0  0  0  0
  129.6750  126.1960   66.7760 C   0  0  0  0  0  0  0  0  0  0  0  0
  130.6260  124.8200   66.1500 S   0  0  0  0  0  0  0  0  0  0  0  0
  132.2220  125.4610   65.5590 C   0  0  0  0  0  0  0  0  0  0  0  0
  132.7910  124.6170   64.4180 C   0  0  0  0  0  0  0  0  0  0  0  0
  133.9610  124.7870   64.0750 O   0  0  0  0  0  0  0  0  0  0  0  0
  131.9320  123.7390   63.8550 N   0  0  0  0  0  0  0  0  0  0  0  0
  132.1630  122.8170   62.8170 C   0  0  0  0  0  0  0  0  0  0  0  0
  133.4990  122.4880   62.5720 C   0  0  0  0  0  0  0  0  0  0  0  0
  133.8260  121.5910   61.5590 C   0  0  0  0  0  0  0  0  0  0  0  0
  132.8170  121.0290   60.7820 C   0  0  0  0  0  0  0  0  0  0  0  0
  131.4830  121.3600   61.0070 C   0  0  0  0  0  0  0  0  0  0  0  0
  131.1520  122.2560   62.0200 C   0  0  0  0  0  0  0  0  0  0  0  0
  129.0040  127.0970   65.9220 C   0  0  0  0  0  0  0  0  0  0  0  0
  129.0460  126.9490   64.4640 C   0  0  0  0  0  0  0  0  0  0  0  0
  129.0770  126.8330   63.3130 N   0  0  0  0  0  0  0  0  0  0  0  0
  1  2  1  0
  2  3  2  0
  3  4  1  0
  4  5  1  0
  5  6  2  0
  6  7  1  0
  7  8  2  0
  8  9  1  0
  9 10  2  0
  4 11  2  0
 11 12  1  0
 12 13  1  0
 13 14  1  0
 14 15  1  0
 15 16  2  0
 15 17  1  0
 17 18  1  0
 18 19  2  0
 19 20  1  0
 20 21  2  0
 21 22  1  0
 22 23  2  0
 12 24  2  0
 24 25  1  0
 25 26  3  0
 24  2  1  0
 10  5  1  0
 23 18  1  0
M  END
>  <Binding energies>  (18) 
[-8.17]

>  <Ligand effiencies>  (18) 
[-0.3025925925925926]

>  <Interactions>  (18) 
["V-B:TYR:539:CD2:9846, V-A:GLU:543:CD:4908, H-A:GLY:454:N:4050, H-A:TYR:484:OH:4348, V-B:TYR:539:CE2:9848, H-A:ARG:545:NE:4924, V-A:ARG:545:CZ:4926, V-A:LEU:475:CD2:4259, V-A:ILE:369:CD1:3239, V-A:GLY:454:CA:4049, V-A:ILE:369:CG2:3237, V-B:GLU:543:CB:9878, V-B:GLU:543:CG:9879, V-A:SER:385:C:3405, V-B:GLU:543:CD:9880, V-B:HIS:456:CD2:9039, V-B:GLY:544:C:9884, V-A:HIS:456:CE1:4070, V-B:LYS:547:CE:9922, V-B:HIS:456:CE1:9041, V-B:GLU:543:C:9874, H-A:ARG:545:NH2:4928, V-A:GLU:543:CB:4906, V-A:GLU:543:CG:4907, V-A:SER:385:CB:3409, H-A:ARG:545:NH1:4927"]

$$$$
3be_Grossjean_2025
     RDKit          3D

 27 29  0  0  0  0  0  0  0  0999 V2000
  121.0580  130.5300   61.7380 C   0  0  0  0  0  0  0  0  0  0  0  0
  122.4550  131.0030   62.0870 C   0  0  0  0  0  0  0  0  0  0  0  0
  123.0820  132.0260   61.3710 C   0  0  0  0  0  0  0  0  0  0  0  0
  124.3700  132.4070   61.7470 C   0  0  0  0  0  0  0  0  0  0  0  0
  124.9950  131.7630   62.8190 C   0  0  0  0  0  0  0  0  0  0  0  0
  124.3090  130.7490   63.4960 C   0  0  0  0  0  0  0  0  0  0  0  0
  124.9950  130.1330   64.5590 N   0  0  0  0  0  0  0  0  0  0  0  0
  124.4970  129.6320   65.7100 C   0  0  0  0  0  0  0  0  0  0  0  0
  123.3040  129.6450   66.0210 O   0  0  0  0  0  0  0  0  0  0  0  0
  125.5450  129.0160   66.6500 C   0  0  0  0  0  0  0  0  0  0  0  0
  127.2810  129.2420   66.1310 S   0  0  0  0  0  0  0  0  0  0  0  0
  128.2680  128.0110   66.9530 C   0  0  0  0  0  0  0  0  0  0  0  0
  128.2170  128.0880   68.3060 N   0  0  0  0  0  0  0  0  0  0  0  0
  128.9220  127.2050   69.0620 C   0  0  0  0  0  0  0  0  0  0  0  0
  128.8230  127.3680   70.5500 C   0  0  0  0  0  0  0  0  0  0  0  0
  129.9020  127.8790   71.2890 C   0  0  0  0  0  0  0  0  0  0  0  0
  129.8170  128.0300   72.6700 C   0  0  0  0  0  0  0  0  0  0  0  0
  128.6500  127.6700   73.3340 C   0  0  0  0  0  0  0  0  0  0  0  0
  127.5670  127.1590   72.6260 C   0  0  0  0  0  0  0  0  0  0  0  0
  127.6560  127.0080   71.2450 C   0  0  0  0  0  0  0  0  0  0  0  0
  129.7060  126.2130   68.4630 C   0  0  0  0  0  0  0  0  0  0  0  0
  129.7500  126.1050   67.0690 C   0  0  0  0  0  0  0  0  0  0  0  0
  130.6060  124.9960   66.4590 C   0  0  0  0  0  0  0  0  0  0  0  0
  129.0080  127.0120   66.2810 C   0  0  0  0  0  0  0  0  0  0  0  0
  128.9970  126.8820   64.8230 C   0  0  0  0  0  0  0  0  0  0  0  0
  128.9890  126.7770   63.6700 N   0  0  0  0  0  0  0  0  0  0  0  0
  123.0490  130.3690   63.1300 N   0  0  0  0  0  0  0  0  0  0  0  0
  1  2  1  0
  2  3  2  0
  3  4  1  0
  4  5  2  0
  5  6  1  0
  6  7  1  0
  7  8  1  0
  8  9  2  0
  8 10  1  0
 10 11  1  0
 11 12  1  0
 12 13  2  0
 13 14  1  0
 14 15  1  0
 15 16  2  0
 16 17  1  0
 17 18  2  0
 18 19  1  0
 19 20  2  0
 14 21  2  0
 21 22  1  0
 22 23  1  0
 22 24  2  0
 24 25  1  0
 25 26  3  0
  6 27  2  0
 27  2  1  0
 24 12  1  0
 20 15  1  0
M  END
>  <Binding energies>  (19) 
[-8.3]

>  <Ligand effiencies>  (19) 
[-0.29642857142857143]

>  <Interactions>  (19) 
["V-A:GLU:543:CD:4908, V-B:ASP:366:CG:8184, V-B:ILE:369:CB:8207, V-B:GLY:454:CA:9020, V-B:GLY:453:C:9013, V-B:ILE:369:CG2:8208, V-B:GLY:453:CA:9015, H-B:ARG:545:NH1:9899, V-B:ASP:366:CA:8181, H-B:GLY:454:N:9021, V-B:ILE:369:CG1:8209, H-B:ARG:545:NH2:9900, V-A:TYR:484:CZ:4347, V-B:GLU:543:CB:9878, V-B:GLU:543:CG:9879, V-A:TYR:484:CE2:4346, V-B:GLU:543:CD:9880, V-B:HIS:456:CD2:9039, V-B:GLY:544:C:9884, V-A:HIS:456:CE1:4070, V-B:LYS:547:CE:9922, V-B:HIS:456:CE1:9041, V-B:GLU:543:C:9874, V-B:TYR:484:CZ:9318, V-B:ARG:545:CZ:9898, H-B:TYR:484:OH:9319, H-B:ARG:545:NE:9896, V-B:ARG:545:CD:9895, V-B:ARG:545:CG:9894, H-B:GLU:543:OE2:9882, V-B:CYS:365:C:8175, V-B:CYS:365:CB:8172"]

$$$$
3bf_Grossjean_2025
     RDKit          3D

 26 28  0  0  0  0  0  0  0  0999 V2000
  127.5100  129.2120   65.5750 C   0  0  0  0  0  0  0  0  0  0  0  0
  128.2450  128.1920   66.4420 C   0  0  0  0  0  0  0  0  0  0  0  0
  128.1450  128.3140   67.8310 C   0  0  0  0  0  0  0  0  0  0  0  0
  128.7910  127.3920   68.6630 C   0  0  0  0  0  0  0  0  0  0  0  0
  128.7040  127.4540   70.1580 C   0  0  0  0  0  0  0  0  0  0  0  0
  129.7710  127.9590   70.9170 C   0  0  0  0  0  0  0  0  0  0  0  0
  129.6980  128.0190   72.3060 C   0  0  0  0  0  0  0  0  0  0  0  0
  128.5530  127.5720   72.9560 C   0  0  0  0  0  0  0  0  0  0  0  0
  127.4820  127.0660   72.2280 C   0  0  0  0  0  0  0  0  0  0  0  0
  127.5600  127.0060   70.8390 C   0  0  0  0  0  0  0  0  0  0  0  0
  129.5210  126.3720   68.1380 N   0  0  0  0  0  0  0  0  0  0  0  0
  129.6490  126.2560   66.7930 C   0  0  0  0  0  0  0  0  0  0  0  0
  130.6440  124.8680   66.2890 S   0  0  0  0  0  0  0  0  0  0  0  0
  132.3100  125.4880   65.8750 C   0  0  0  0  0  0  0  0  0  0  0  0
  132.8080  125.1280   64.4670 C   0  0  0  0  0  0  0  0  0  0  0  0
  133.8370  124.4670   64.3140 O   0  0  0  0  0  0  0  0  0  0  0  0
  132.0190  125.5650   63.4620 N   0  0  0  0  0  0  0  0  0  0  0  0
  132.1930  125.4160   62.0740 C   0  0  0  0  0  0  0  0  0  0  0  0
  133.0030  124.3600   61.6420 C   0  0  0  0  0  0  0  0  0  0  0  0
  133.2040  124.1510   60.2760 C   0  0  0  0  0  0  0  0  0  0  0  0
  132.5790  125.0100   59.3710 C   0  0  0  0  0  0  0  0  0  0  0  0
  131.7810  126.0350   59.7610 N   0  0  0  0  0  0  0  0  0  0  0  0
  131.5940  126.2260   61.0930 C   0  0  0  0  0  0  0  0  0  0  0  0
  129.0090  127.1380   65.8950 C   0  0  0  0  0  0  0  0  0  0  0  0
  129.0870  126.9630   64.4420 C   0  0  0  0  0  0  0  0  0  0  0  0
  129.1480  126.8270   63.2940 N   0  0  0  0  0  0  0  0  0  0  0  0
  1  2  1  0
  2  3  2  0
  3  4  1  0
  4  5  1  0
  5  6  2  0
  6  7  1  0
  7  8  2  0
  8  9  1  0
  9 10  2  0
  4 11  2  0
 11 12  1  0
 12 13  1  0
 13 14  1  0
 14 15  1  0
 15 16  2  0
 15 17  1  0
 17 18  1  0
 18 19  2  0
 19 20  1  0
 20 21  2  0
 21 22  1  0
 22 23  2  0
 12 24  2  0
 24 25  1  0
 25 26  3  0
 24  2  1  0
 10  5  1  0
 23 18  1  0
M  END
>  <Binding energies>  (20) 
[-7.53]

>  <Ligand effiencies>  (20) 
[-0.2788888888888889]

>  <Interactions>  (20) 
["V-A:GLU:543:CD:4908, H-A:GLY:454:N:4050, H-A:TYR:484:OH:4348, V-A:ARG:545:CZ:4926, V-A:ASP:366:CB:3212, V-A:ASP:366:CG:3213, H-A:GLU:543:OE2:4910, V-B:GLU:543:CB:9878, V-B:GLU:543:CG:9879, V-B:GLU:543:CD:9880, V-B:HIS:456:CD2:9039, V-B:GLY:544:C:9884, V-A:HIS:456:CE1:4070, V-B:LYS:547:CE:9922, V-B:HIS:456:CE1:9041, V-B:GLU:543:C:9874, H-A:GLU:543:OE1:4909, H-A:ARG:545:NH2:4928, V-A:GLU:543:CB:4906, V-A:GLU:543:CG:4907"]

$$$$
3bg_Grossjean_2025
     RDKit          3D

 27 29  0  0  0  0  0  0  0  0999 V2000
  130.7480  124.1100   65.3880 C   0  0  0  0  0  0  0  0  0  0  0  0
  130.0450  125.3840   65.8510 C   0  0  0  0  0  0  0  0  0  0  0  0
  130.0360  125.6740   67.2190 C   0  0  0  0  0  0  0  0  0  0  0  0
  129.4080  126.8370   67.6860 C   0  0  0  0  0  0  0  0  0  0  0  0
  129.3720  127.2130   69.1410 C   0  0  0  0  0  0  0  0  0  0  0  0
  128.2160  127.0110   69.9130 C   0  0  0  0  0  0  0  0  0  0  0  0
  128.1840  127.3420   71.2650 C   0  0  0  0  0  0  0  0  0  0  0  0
  129.3130  127.8850   71.8690 C   0  0  0  0  0  0  0  0  0  0  0  0
  130.4670  128.1080   71.1280 C   0  0  0  0  0  0  0  0  0  0  0  0
  130.4930  127.7770   69.7760 C   0  0  0  0  0  0  0  0  0  0  0  0
  128.8200  127.7010   66.8160 N   0  0  0  0  0  0  0  0  0  0  0  0
  128.8230  127.4360   65.4850 C   0  0  0  0  0  0  0  0  0  0  0  0
  128.0470  128.6670   64.4490 S   0  0  0  0  0  0  0  0  0  0  0  0
  128.1810  130.2820   65.2830 C   0  0  0  0  0  0  0  0  0  0  0  0
  128.4720  131.4130   64.2920 C   0  0  0  0  0  0  0  0  0  0  0  0
  127.9060  132.4990   64.4180 O   0  0  0  0  0  0  0  0  0  0  0  0
  129.3380  131.1330   63.3020 N   0  0  0  0  0  0  0  0  0  0  0  0
  129.6200  131.9930   62.1530 C   0  0  0  0  0  0  0  0  0  0  0  0
  131.0530  131.8290   61.6610 C   0  0  0  0  0  0  0  0  0  0  0  0
  132.1130  131.8460   62.5740 C   0  0  0  0  0  0  0  0  0  0  0  0
  133.4220  131.7050   62.1250 C   0  0  0  0  0  0  0  0  0  0  0  0
  133.6690  131.5350   60.7630 C   0  0  0  0  0  0  0  0  0  0  0  0
  132.6180  131.4970   59.8500 C   0  0  0  0  0  0  0  0  0  0  0  0
  131.3080  131.6380   60.3000 C   0  0  0  0  0  0  0  0  0  0  0  0
  129.4210  126.2750   64.9520 C   0  0  0  0  0  0  0  0  0  0  0  0
  129.4210  126.0020   63.5130 C   0  0  0  0  0  0  0  0  0  0  0  0
  129.4220  125.7850   62.3760 N   0  0  0  0  0  0  0  0  0  0  0  0
  1  2  1  0
  2  3  2  0
  3  4  1  0
  4  5  1  0
  5  6  2  0
  6  7  1  0
  7  8  2  0
  8  9  1  0
  9 10  2  0
  4 11  2  0
 11 12  1  0
 12 13  1  0
 13 14  1  0
 14 15  1  0
 15 16  2  0
 15 17  1  0
 17 18  1  0
 18 19  1  0
 19 20  2  0
 20 21  1  0
 21 22  2  0
 22 23  1  0
 23 24  2  0
 12 25  2  0
 25 26  1  0
 26 27  3  0
 25  2  1  0
 10  5  1  0
 24 19  1  0
M  END
>  <Binding energies>  (21) 
[-8.36]

>  <Ligand effiencies>  (21) 
[-0.29857142857142854]

>  <Interactions>  (21) 
["V-A:GLU:543:CD:4908, V-A:ASN:362:CB:3176, V-A:PRO:540:CB:4885, V-A:PRO:540:CA:4883, V-A:ASP:366:CG:3213, V-A:TYR:484:CZ:4347, V-B:GLU:543:CB:9878, V-B:GLU:543:CG:9879, V-A:TYR:484:CE2:4346, V-B:GLU:543:CD:9880, V-B:HIS:456:CD2:9039, V-A:GLY:544:C:4912, V-A:HIS:456:CE1:4070, V-B:HIS:456:CE1:9041, V-B:GLU:543:C:9874, H-A:GLU:543:OE1:4909, V-A:GLU:543:CB:4906, V-A:GLU:543:C:4902, V-B:TYR:484:CZ:9318, H-B:TYR:484:OH:9319, V-A:GLU:543:CG:4907, V-A:ALA:541:CA:4890, V-A:ALA:541:C:4888, V-B:TYR:484:CE2:9317, V-A:LEU:363:CA:3185, V-A:ASN:362:C:3172"]

$$$$
3ca_Grossjean_2025
     RDKit          3D

 31 33  0  0  0  0  0  0  0  0999 V2000
  128.2010  128.7650   74.0060 C   0  0  0  0  0  0  0  0  0  0  0  0
  129.1060  129.9060   73.5340 C   0  0  0  0  0  0  0  0  0  0  0  0
  130.1270  129.3840   72.6930 O   0  0  0  0  0  0  0  0  0  0  0  0
  130.2530  128.0480   72.4900 C   0  0  0  0  0  0  0  0  0  0  0  0
  130.5170  127.2440   73.3900 O   0  0  0  0  0  0  0  0  0  0  0  0
  130.0330  127.6420   71.0610 C   0  0  0  0  0  0  0  0  0  0  0  0
  130.9160  128.1010   70.0750 C   0  0  0  0  0  0  0  0  0  0  0  0
  130.7380  127.7420   68.7420 C   0  0  0  0  0  0  0  0  0  0  0  0
  129.6710  126.9240   68.3660 C   0  0  0  0  0  0  0  0  0  0  0  0
  129.5840  126.6220   66.9930 N   0  0  0  0  0  0  0  0  0  0  0  0
  129.8310  125.4600   66.3500 C   0  0  0  0  0  0  0  0  0  0  0  0
  130.1740  124.4080   66.8860 O   0  0  0  0  0  0  0  0  0  0  0  0
  129.6340  125.4990   64.8310 C   0  0  0  0  0  0  0  0  0  0  0  0
  130.0000  123.9080   64.0180 S   0  0  0  0  0  0  0  0  0  0  0  0
  129.9690  124.1120   62.2420 C   0  0  0  0  0  0  0  0  0  0  0  0
  131.1210  124.5590   61.6820 N   0  0  0  0  0  0  0  0  0  0  0  0
  131.1770  124.7170   60.3410 C   0  0  0  0  0  0  0  0  0  0  0  0
  132.5030  125.2020   59.7900 C   0  0  0  0  0  0  0  0  0  0  0  0
  130.0900  124.4530   59.5100 C   0  0  0  0  0  0  0  0  0  0  0  0
  128.8840  124.0090   60.0660 C   0  0  0  0  0  0  0  0  0  0  0  0
  127.7420  123.7520   59.1370 C   0  0  0  0  0  0  0  0  0  0  0  0
  126.5460  124.4640   59.2810 C   0  0  0  0  0  0  0  0  0  0  0  0
  125.4730  124.2250   58.4260 C   0  0  0  0  0  0  0  0  0  0  0  0
  125.5920  123.2660   57.4240 C   0  0  0  0  0  0  0  0  0  0  0  0
  126.7730  122.5440   57.2710 C   0  0  0  0  0  0  0  0  0  0  0  0
  127.8430  122.7860   58.1290 C   0  0  0  0  0  0  0  0  0  0  0  0
  128.8180  123.8220   61.4710 C   0  0  0  0  0  0  0  0  0  0  0  0
  127.5990  123.3100   62.1040 C   0  0  0  0  0  0  0  0  0  0  0  0
  126.6350  122.9050   62.6030 N   0  0  0  0  0  0  0  0  0  0  0  0
  128.7860  126.4530   69.3480 C   0  0  0  0  0  0  0  0  0  0  0  0
  128.9670  126.8120   70.6810 C   0  0  0  0  0  0  0  0  0  0  0  0
  1  2  1  0
  2  3  1  0
  3  4  1  0
  4  5  2  0
  4  6  1  0
  6  7  2  0
  7  8  1  0
  8  9  2  0
  9 10  1  0
 10 11  1  0
 11 12  2  0
 11 13  1  0
 13 14  1  0
 14 15  1  0
 15 16  2  0
 16 17  1  0
 17 18  1  0
 17 19  2  0
 19 20  1  0
 20 21  1  0
 21 22  2  0
 22 23  1  0
 23 24  2  0
 24 25  1  0
 25 26  2  0
 20 27  2  0
 27 28  1  0
 28 29  3  0
  9 30  1  0
 30 31  2  0
 31  6  1  0
 27 15  1  0
 26 21  1  0
M  END
>  <Binding energies>  (22) 
[-8.3]

>  <Ligand effiencies>  (22) 
[-0.259375]

>  <Interactions>  (22) 
["V-B:PRO:540:N:9856, V-B:TYR:539:CD2:9846, V-A:GLU:543:CD:4908, V-B:LEU:363:CD1:8160, V-B:PRO:540:CB:9857, V-B:PRO:540:CD:9859, H-A:TYR:484:OH:4348, V-B:TYR:539:CE2:9848, V-B:TYR:539:CZ:9849, V-B:PRO:540:CA:9855, V-A:ASP:366:CB:3212, H-B:ALA:541:N:9863, V-A:ASP:366:CG:3213, H-A:GLU:543:OE2:4910, V-B:GLU:543:CB:9878, V-B:GLU:543:CG:9879, V-B:GLU:543:CD:9880, V-B:HIS:456:CD2:9039, V-A:GLY:544:C:4912, V-A:HIS:456:CE1:4070, V-B:GLU:543:C:9874, H-A:LYS:547:NZ:4951, V-A:GLU:543:CB:4906, V-A:GLU:543:C:4902, V-B:TYR:539:CG:9844, V-B:TYR:539:C:9839, H-B:GLU:543:OE2:9882"]

$$$$
3ce_Grossjean_2025
     RDKit          3D

 27 29  0  0  0  0  0  0  0  0999 V2000
  132.2150  126.1010   57.8300 C   0  0  0  0  0  0  0  0  0  0  0  0
  132.7340  125.2950   59.0050 C   0  0  0  0  0  0  0  0  0  0  0  0
  133.8080  124.4120   58.8680 C   0  0  0  0  0  0  0  0  0  0  0  0
  134.2380  123.7110   59.9940 C   0  0  0  0  0  0  0  0  0  0  0  0
  133.5920  123.9040   61.2170 C   0  0  0  0  0  0  0  0  0  0  0  0
  132.5150  124.7960   61.2820 C   0  0  0  0  0  0  0  0  0  0  0  0
  131.9150  124.9650   62.5420 N   0  0  0  0  0  0  0  0  0  0  0  0
  132.5030  124.9320   63.7580 C   0  0  0  0  0  0  0  0  0  0  0  0
  133.7050  124.7470   63.9580 O   0  0  0  0  0  0  0  0  0  0  0  0
  131.5730  125.1540   64.9500 C   0  0  0  0  0  0  0  0  0  0  0  0
  129.8560  125.4440   64.4270 S   0  0  0  0  0  0  0  0  0  0  0  0
  129.2230  126.6960   65.5190 C   0  0  0  0  0  0  0  0  0  0  0  0
  128.7780  127.8080   64.8830 N   0  0  0  0  0  0  0  0  0  0  0  0
  128.2610  128.8130   65.6260 C   0  0  0  0  0  0  0  0  0  0  0  0
  127.7700  130.0210   64.8510 C   0  0  0  0  0  0  0  0  0  0  0  0
  128.1810  128.7560   67.0150 C   0  0  0  0  0  0  0  0  0  0  0  0
  128.6590  127.6260   67.6910 C   0  0  0  0  0  0  0  0  0  0  0  0
  128.5740  127.6210   69.1830 C   0  0  0  0  0  0  0  0  0  0  0  0
  129.5870  128.2150   69.9460 C   0  0  0  0  0  0  0  0  0  0  0  0
  129.5180  128.2090   71.3370 C   0  0  0  0  0  0  0  0  0  0  0  0
  128.4380  127.6020   71.9720 C   0  0  0  0  0  0  0  0  0  0  0  0
  127.4280  126.9970   71.2270 C   0  0  0  0  0  0  0  0  0  0  0  0
  127.4990  127.0060   69.8370 C   0  0  0  0  0  0  0  0  0  0  0  0
  129.1940  126.5580   66.9270 C   0  0  0  0  0  0  0  0  0  0  0  0
  129.6950  125.3440   67.5790 C   0  0  0  0  0  0  0  0  0  0  0  0
  130.0910  124.3870   68.0940 N   0  0  0  0  0  0  0  0  0  0  0  0
  132.0930  125.4920   60.1850 N   0  0  0  0  0  0  0  0  0  0  0  0
  1  2  1  0
  2  3  2  0
  3  4  1  0
  4  5  2  0
  5  6  1  0
  6  7  1  0
  7  8  1  0
  8  9  2  0
  8 10  1  0
 10 11  1  0
 11 12  1  0
 12 13  2  0
 13 14  1  0
 14 15  1  0
 14 16  2  0
 16 17  1  0
 17 18  1  0
 18 19  2  0
 19 20  1  0
 20 21  2  0
 21 22  1  0
 22 23  2  0
 17 24  2  0
 24 25  1  0
 25 26  3  0
  6 27  2  0
 27  2  1  0
 24 12  1  0
 23 18  1  0
M  END
>  <Binding energies>  (23) 
[-7.74]

>  <Ligand effiencies>  (23) 
[-0.2764285714285714]

>  <Interactions>  (23) 
["V-A:GLU:543:CD:4908, H-A:GLY:454:N:4050, H-A:TYR:484:OH:4348, V-B:TYR:539:CE2:9848, H-A:ARG:545:NE:4924, V-A:ARG:545:CZ:4926, V-A:ASP:366:CB:3212, V-A:TYR:531:CZ:4794, V-A:ILE:369:CD1:3239, V-A:ASP:366:CG:3213, V-A:ILE:369:CG2:3237, V-A:ILE:369:CG1:3238, V-A:ILE:369:CB:3236, V-B:GLU:543:CB:9878, V-B:GLU:543:CG:9879, V-A:TYR:484:CE2:4346, V-B:GLU:543:CD:9880, V-A:ASP:366:CA:3210, V-B:HIS:456:CD2:9039, V-B:GLY:544:C:9884, V-B:GLY:544:CA:9886, V-A:HIS:456:CE1:4070, V-B:HIS:456:CE1:9041, V-B:GLU:543:C:9874, H-A:ARG:545:NH2:4928, V-A:GLU:543:CB:4906, V-A:GLU:543:C:4902, V-A:GLU:543:CG:4907, V-B:GLU:543:CA:9876, V-A:ASP:366:C:3208"]

$$$$
3cj_Grossjean_2025
     RDKit          3D

 25 27  0  0  0  0  0  0  0  0999 V2000
  128.7690  122.0230   60.6370 C   0  0  0  0  0  0  0  0  0  0  0  0
  129.8410  122.6520   61.5050 C   0  0  0  0  0  0  0  0  0  0  0  0
  129.5190  123.3780   62.6490 C   0  0  0  0  0  0  0  0  0  0  0  0
  130.5450  123.9240   63.4340 C   0  0  0  0  0  0  0  0  0  0  0  0
  130.1560  124.6380   64.6860 C   0  0  0  0  0  0  0  0  0  0  0  0
  129.7100  125.9640   64.6380 C   0  0  0  0  0  0  0  0  0  0  0  0
  129.3600  126.6340   65.8080 C   0  0  0  0  0  0  0  0  0  0  0  0
  129.4630  125.9800   67.0320 C   0  0  0  0  0  0  0  0  0  0  0  0
  129.9140  124.6640   67.0970 C   0  0  0  0  0  0  0  0  0  0  0  0
  130.2630  123.9960   65.9250 C   0  0  0  0  0  0  0  0  0  0  0  0
  131.8850  123.7430   63.0130 C   0  0  0  0  0  0  0  0  0  0  0  0
  133.0000  124.3140   63.7760 C   0  0  0  0  0  0  0  0  0  0  0  0
  133.8790  124.7630   64.3800 N   0  0  0  0  0  0  0  0  0  0  0  0
  132.1200  122.9880   61.8420 C   0  0  0  0  0  0  0  0  0  0  0  0
  133.7560  122.5730   61.2770 S   0  0  0  0  0  0  0  0  0  0  0  0
  134.2680  123.9880   60.2500 C   0  0  0  0  0  0  0  0  0  0  0  0
  133.2520  124.2870   59.1430 C   0  0  0  0  0  0  0  0  0  0  0  0
  133.5300  124.0130   57.9740 O   0  0  0  0  0  0  0  0  0  0  0  0
  132.0800  124.8110   59.5600 N   0  0  0  0  0  0  0  0  0  0  0  0
  130.9560  125.0450   58.7850 C   0  0  0  0  0  0  0  0  0  0  0  0
  129.8600  124.3210   58.7100 N   0  0  0  0  0  0  0  0  0  0  0  0
  128.9800  124.8600   57.8910 C   0  0  0  0  0  0  0  0  0  0  0  0
  129.3570  126.0510   57.2770 C   0  0  0  0  0  0  0  0  0  0  0  0
  130.9560  126.4800   57.8090 S   0  0  0  0  0  0  0  0  0  0  0  0
  131.1160  122.4450   61.1070 N   0  0  0  0  0  0  0  0  0  0  0  0
  1  2  1  0
  2  3  2  0
  3  4  1  0
  4  5  1  0
  5  6  2  0
  6  7  1  0
  7  8  2  0
  8  9  1  0
  9 10  2  0
  4 11  2  0
 11 12  1  0
 12 13  3  0
 11 14  1  0
 14 15  1  0
 15 16  1  0
 16 17  1  0
 17 18  2  0
 17 19  1  0
 19 20  1  0
 20 21  2  0
 21 22  1  0
 22 23  2  0
 23 24  1  0
 14 25  2  0
 25  2  1  0
 10  5  1  0
 24 20  1  0
M  END
>  <Binding energies>  (24) 
[-6.87]

>  <Ligand effiencies>  (24) 
[-0.2642307692307692]

>  <Interactions>  (24) 
["V-B:TYR:539:CD2:9846, V-A:GLU:543:CD:4908, H-A:GLY:454:N:4050, H-A:TYR:484:OH:4348, V-B:TYR:539:CE2:9848, V-B:TYR:539:CZ:9849, H-A:ARG:545:NE:4924, V-A:LEU:475:CD2:4259, V-B:PRO:540:CA:9855, V-A:ASP:366:CB:3212, V-A:ILE:369:CD1:3239, V-A:ASP:366:CG:3213, V-A:ILE:369:CG2:3237, V-A:TYR:484:CZ:4347, V-A:ILE:369:CB:3236, V-B:GLU:543:CB:9878, V-B:GLU:543:CG:9879, V-A:TYR:484:CE2:4346, V-B:GLU:543:CD:9880, H-B:TYR:539:OH:9850, V-A:ASP:366:CA:3210, V-A:HIS:456:CE1:4070, H-A:ARG:545:NH2:4928, V-B:PRO:540:C:9853, V-B:TYR:539:C:9839, V-B:GLU:543:CA:9876, H-A:ARG:545:NH1:4927"]

$$$$
4ba_Grossjean_2025
     RDKit          3D

 28 30  0  0  0  0  0  0  0  0999 V2000
  127.7880  128.4870   74.0530 C   0  0  0  0  0  0  0  0  0  0  0  0
  128.0720  127.9460   72.6390 C   0  0  0  0  0  0  0  0  0  0  0  0
  129.4100  128.4030   72.0210 C   0  0  0  0  0  0  0  0  0  0  0  0
  130.1130  129.2150   72.6270 O   0  0  0  0  0  0  0  0  0  0  0  0
  129.7980  127.8220   70.6920 C   0  0  0  0  0  0  0  0  0  0  0  0
  128.9330  126.9250   70.0540 C   0  0  0  0  0  0  0  0  0  0  0  0
  129.2690  126.3710   68.8220 C   0  0  0  0  0  0  0  0  0  0  0  0
  130.4730  126.7040   68.2010 C   0  0  0  0  0  0  0  0  0  0  0  0
  130.7160  126.0800   66.9630 N   0  0  0  0  0  0  0  0  0  0  0  0
  130.2590  124.8990   66.4770 C   0  0  0  0  0  0  0  0  0  0  0  0
  129.5430  124.1210   67.1090 O   0  0  0  0  0  0  0  0  0  0  0  0
  130.6960  124.5710   65.1180 C   0  0  0  0  0  0  0  0  0  0  0  0
  132.0580  125.4250   64.3950 S   0  0  0  0  0  0  0  0  0  0  0  0
  131.8790  124.5390   62.8990 C   0  0  0  0  0  0  0  0  0  0  0  0
  132.6880  124.7560   61.8630 N   0  0  0  0  0  0  0  0  0  0  0  0
  132.4510  124.0110   60.7590 C   0  0  0  0  0  0  0  0  0  0  0  0
  133.3790  124.2800   59.5880 C   0  0  0  0  0  0  0  0  0  0  0  0
  131.4380  123.0610   60.6690 C   0  0  0  0  0  0  0  0  0  0  0  0
  130.5820  122.8280   61.7570 C   0  0  0  0  0  0  0  0  0  0  0  0
  129.4830  121.7700   61.6110 C   0  0  0  0  0  0  0  0  0  0  0  0
  128.2760  122.2190   61.9620 F   0  0  0  0  0  0  0  0  0  0  0  0
  129.4060  121.3690   60.3420 F   0  0  0  0  0  0  0  0  0  0  0  0
  129.7600  120.7220   62.3880 F   0  0  0  0  0  0  0  0  0  0  0  0
  130.8010  123.6020   62.9360 C   0  0  0  0  0  0  0  0  0  0  0  0
  130.1380  123.6510   64.2160 C   0  0  0  0  0  0  0  0  0  0  0  0
  129.0570  122.8620   64.5200 N   0  0  0  0  0  0  0  0  0  0  0  0
  131.3480  127.5970   68.8360 C   0  0  0  0  0  0  0  0  0  0  0  0
  131.0110  128.1510   70.0690 C   0  0  0  0  0  0  0  0  0  0  0  0
  1  2  1  0
  2  3  1  0
  3  4  2  0
  3  5  1  0
  5  6  2  0
  6  7  1  0
  7  8  2  0
  8  9  1  0
  9 10  1  0
 10 11  2  0
 10 12  1  0
 12 13  1  0
 13 14  1  0
 14 15  2  0
 15 16  1  0
 16 17  1  0
 16 18  2  0
 18 19  1  0
 19 20  1  0
 20 21  1  0
 20 22  1  0
 20 23  1  0
 19 24  2  0
 24 25  1  0
 25 26  1  0
  8 27  1  0
 27 28  2  0
 28  5  1  0
 25 12  2  0
 24 14  1  0
M  END
>  <Binding energies>  (25) 
[-6.82]

>  <Ligand effiencies>  (25) 
[-0.22]

>  <Interactions>  (25) 
["V-B:TYR:539:CD2:9846, V-A:GLU:543:CD:4908, H-A:TYR:484:OH:4348, V-B:TYR:539:CE2:9848, V-A:ARG:545:CZ:4926, V-A:LEU:475:CD2:4259, V-B:PRO:540:CA:9855, V-A:ASP:366:CB:3212, V-A:ASP:366:CG:3213, V-A:ILE:369:CG2:3237, V-A:TYR:484:CZ:4347, H-A:GLU:543:OE2:4910, V-B:GLU:543:CB:9878, V-B:GLU:543:CG:9879, V-A:TYR:484:CE2:4346, V-B:GLU:543:CD:9880, V-B:ALA:541:CB:9864, V-A:ASP:366:CA:3210, V-B:HIS:456:CD2:9039, V-A:GLY:544:C:4912, V-B:HIS:456:CG:9037, V-A:HIS:456:CE1:4070, V-B:HIS:456:CE1:9041, V-B:GLU:543:C:9874, H-A:LYS:547:NZ:4951, H-A:GLU:543:OE1:4909, V-A:GLU:543:CB:4906, V-A:GLU:543:C:4902, V-B:PRO:540:C:9853, V-B:TYR:539:C:9839, V-B:ALA:541:CA:9862, V-A:ARG:545:CG:4922"]

$$$$
4bb_Grossjean_2025
     RDKit          3D

 27 29  0  0  0  0  0  0  0  0999 V2000
  129.1500  127.0740   71.1040 C   0  0  0  0  0  0  0  0  0  0  0  0
  130.0080  127.6500   69.9750 C   0  0  0  0  0  0  0  0  0  0  0  0
  131.2070  127.8310   70.1920 O   0  0  0  0  0  0  0  0  0  0  0  0
  129.3420  127.9750   68.6720 C   0  0  0  0  0  0  0  0  0  0  0  0
  128.7740  129.2410   68.4860 C   0  0  0  0  0  0  0  0  0  0  0  0
  128.1500  129.5670   67.2860 C   0  0  0  0  0  0  0  0  0  0  0  0
  128.0880  128.6380   66.2460 C   0  0  0  0  0  0  0  0  0  0  0  0
  127.4310  129.0710   65.0770 N   0  0  0  0  0  0  0  0  0  0  0  0
  127.5320  130.2440   64.4050 C   0  0  0  0  0  0  0  0  0  0  0  0
  128.2440  131.1840   64.7570 O   0  0  0  0  0  0  0  0  0  0  0  0
  126.6940  130.3510   63.2070 C   0  0  0  0  0  0  0  0  0  0  0  0
  127.4260  130.3030   61.6050 S   0  0  0  0  0  0  0  0  0  0  0  0
  125.8710  130.5200   60.8360 C   0  0  0  0  0  0  0  0  0  0  0  0
  125.7520  130.5670   59.5100 N   0  0  0  0  0  0  0  0  0  0  0  0
  124.4980  130.7390   59.0330 C   0  0  0  0  0  0  0  0  0  0  0  0
  124.3840  130.7880   57.5200 C   0  0  0  0  0  0  0  0  0  0  0  0
  123.3720  130.8650   59.8420 C   0  0  0  0  0  0  0  0  0  0  0  0
  123.4910  130.8170   61.2390 C   0  0  0  0  0  0  0  0  0  0  0  0
  122.2230  130.9600   62.0870 C   0  0  0  0  0  0  0  0  0  0  0  0
  122.0790  132.1810   62.6090 F   0  0  0  0  0  0  0  0  0  0  0  0
  121.1490  130.7170   61.3370 F   0  0  0  0  0  0  0  0  0  0  0  0
  122.2570  130.0950   63.1010 F   0  0  0  0  0  0  0  0  0  0  0  0
  124.8010  130.6360   61.7760 C   0  0  0  0  0  0  0  0  0  0  0  0
  125.3040  130.5400   63.1240 C   0  0  0  0  0  0  0  0  0  0  0  0
  124.4910  130.6200   64.2250 N   0  0  0  0  0  0  0  0  0  0  0  0
  128.6480  127.3650   66.4270 C   0  0  0  0  0  0  0  0  0  0  0  0
  129.2710  127.0400   67.6290 C   0  0  0  0  0  0  0  0  0  0  0  0
  1  2  1  0
  2  3  2  0
  2  4  1  0
  4  5  2  0
  5  6  1  0
  6  7  2  0
  7  8  1  0
  8  9  1  0
  9 10  2  0
  9 11  1  0
 11 12  1  0
 12 13  1  0
 13 14  2  0
 14 15  1  0
 15 16  1  0
 15 17  2  0
 17 18  1  0
 18 19  1  0
 19 20  1  0
 19 21  1  0
 19 22  1  0
 18 23  2  0
 23 24  1  0
 24 25  1  0
  7 26  1  0
 26 27  2  0
 27  4  1  0
 24 11  2  0
 23 13  1  0
M  END
>  <Binding energies>  (26) 
[-6.91]

>  <Ligand effiencies>  (26) 
[-0.23033333333333333]

>  <Interactions>  (26) 
["V-B:ASP:366:CB:8183, V-A:GLU:543:CD:4908, V-B:ASP:366:CG:8184, V-B:ILE:369:CB:8207, V-B:GLY:454:CA:9020, V-B:GLY:453:C:9013, V-B:ILE:369:CG2:8208, V-B:GLY:453:CA:9015, V-A:TYR:539:CE1:4875, V-B:ASP:366:CA:8181, V-B:ILE:369:CG1:8209, V-B:GLU:543:CB:9878, V-B:GLU:543:CG:9879, V-B:GLU:543:CD:9880, H-B:GLU:543:OE1:9881, V-A:HIS:456:CE1:4070, V-B:HIS:456:CE1:9041, V-A:GLU:543:CB:4906, V-A:GLU:543:C:4902, V-B:TYR:484:CZ:9318, V-B:ARG:545:CZ:9898, H-B:TYR:484:OH:9319, V-A:GLU:543:CG:4907, V-B:ILE:369:CD1:8210, V-A:GLU:543:CA:4904, V-B:TYR:484:CE2:9317, H-A:ARG:545:N:4920, H-B:GLU:543:OE2:9882, V-B:CYS:365:C:8175"]

$$$$
4bd_Grossjean_2025
     RDKit          3D

 24 26  0  0  0  0  0  0  0  0999 V2000
  124.4260  130.8250   57.6130 C   0  0  0  0  0  0  0  0  0  0  0  0
  124.5290  130.7530   59.1260 C   0  0  0  0  0  0  0  0  0  0  0  0
  123.3970  130.8580   59.9290 C   0  0  0  0  0  0  0  0  0  0  0  0
  123.5070  130.7920   61.3270 C   0  0  0  0  0  0  0  0  0  0  0  0
  122.2330  130.9150   62.1690 C   0  0  0  0  0  0  0  0  0  0  0  0
  121.1190  130.7010   61.4650 F   0  0  0  0  0  0  0  0  0  0  0  0
  122.2580  130.0230   63.1590 F   0  0  0  0  0  0  0  0  0  0  0  0
  122.1490  132.1420   62.6830 F   0  0  0  0  0  0  0  0  0  0  0  0
  124.8140  130.6150   61.8710 C   0  0  0  0  0  0  0  0  0  0  0  0
  125.3090  130.5050   63.2210 C   0  0  0  0  0  0  0  0  0  0  0  0
  124.4860  130.5550   64.3160 N   0  0  0  0  0  0  0  0  0  0  0  0
  126.7020  130.3430   63.3110 C   0  0  0  0  0  0  0  0  0  0  0  0
  127.5310  130.2170   64.5130 C   0  0  0  0  0  0  0  0  0  0  0  0
  128.2650  131.1400   64.8690 O   0  0  0  0  0  0  0  0  0  0  0  0
  127.4120  129.0430   65.1820 N   0  0  0  0  0  0  0  0  0  0  0  0
  128.0890  128.5950   66.3310 C   0  0  0  0  0  0  0  0  0  0  0  0
  128.6600  127.3220   66.2480 C   0  0  0  0  0  0  0  0  0  0  0  0
  129.3600  126.7940   67.3300 C   0  0  0  0  0  0  0  0  0  0  0  0
  129.4960  127.5430   68.4950 C   0  0  0  0  0  0  0  0  0  0  0  0
  128.9430  128.8180   68.5860 C   0  0  0  0  0  0  0  0  0  0  0  0
  128.2430  129.3500   67.5060 C   0  0  0  0  0  0  0  0  0  0  0  0
  127.4450  130.3160   61.7130 S   0  0  0  0  0  0  0  0  0  0  0  0
  125.8920  130.5230   60.9370 C   0  0  0  0  0  0  0  0  0  0  0  0
  125.7810  130.5850   59.6110 N   0  0  0  0  0  0  0  0  0  0  0  0
  1  2  1  0
  2  3  2  0
  3  4  1  0
  4  5  1  0
  5  6  1  0
  5  7  1  0
  5  8  1  0
  4  9  2  0
  9 10  1  0
 10 11  1  0
 10 12  2  0
 12 13  1  0
 13 14  2  0
 13 15  1  0
 15 16  1  0
 16 17  2  0
 17 18  1  0
 18 19  2  0
 19 20  1  0
 20 21  2  0
 12 22  1  0
 22 23  1  0
 23 24  2  0
 24  2  1  0
 23  9  1  0
 21 16  1  0
M  END
>  <Binding energies>  (27) 
[-6.16]

>  <Ligand effiencies>  (27) 
[-0.22814814814814816]

>  <Interactions>  (27) 
["V-B:ASP:366:CB:8183, V-A:GLU:543:CD:4908, V-B:ASP:366:CG:8184, V-B:ILE:369:CB:8207, V-B:GLY:454:CA:9020, V-B:GLY:453:C:9013, V-B:ILE:369:CG2:8208, V-B:GLY:453:CA:9015, V-A:TYR:539:CE1:4875, V-B:ASP:366:CA:8181, V-B:ILE:369:CG1:8209, V-B:GLU:543:CB:9878, V-B:GLU:543:CG:9879, V-B:GLU:543:CD:9880, H-B:GLU:543:OE1:9881, V-A:HIS:456:CE1:4070, V-B:HIS:456:CE1:9041, V-A:GLU:543:CB:4906, V-A:GLU:543:C:4902, V-B:TYR:484:CZ:9318, V-B:ARG:545:CZ:9898, H-B:TYR:484:OH:9319, V-A:GLU:543:CG:4907, V-B:ILE:369:CD1:8210, V-A:GLU:543:CA:4904, H-B:GLU:543:OE2:9882, V-B:CYS:365:C:8175"]

$$$$
4be_Grossjean_2025
     RDKit          3D

 25 27  0  0  0  0  0  0  0  0999 V2000
  124.1290  134.5600   62.5110 C   0  0  0  0  0  0  0  0  0  0  0  0
  123.8460  133.0700   62.5520 C   0  0  0  0  0  0  0  0  0  0  0  0
  122.6510  132.5390   62.0620 C   0  0  0  0  0  0  0  0  0  0  0  0
  122.4580  131.1590   62.1350 C   0  0  0  0  0  0  0  0  0  0  0  0
  123.4540  130.3520   62.6900 C   0  0  0  0  0  0  0  0  0  0  0  0
  124.6300  130.9480   63.1560 C   0  0  0  0  0  0  0  0  0  0  0  0
  125.5900  130.0820   63.7100 N   0  0  0  0  0  0  0  0  0  0  0  0
  126.8500  130.3610   64.1280 C   0  0  0  0  0  0  0  0  0  0  0  0
  127.3550  131.4850   64.0820 O   0  0  0  0  0  0  0  0  0  0  0  0
  127.6140  129.2170   64.6330 C   0  0  0  0  0  0  0  0  0  0  0  0
  128.2970  128.0430   63.5090 S   0  0  0  0  0  0  0  0  0  0  0  0
  128.9450  127.0930   64.8260 C   0  0  0  0  0  0  0  0  0  0  0  0
  129.6340  125.9750   64.6020 N   0  0  0  0  0  0  0  0  0  0  0  0
  130.0870  125.3270   65.7000 C   0  0  0  0  0  0  0  0  0  0  0  0
  130.8680  124.0550   65.4240 C   0  0  0  0  0  0  0  0  0  0  0  0
  129.8700  125.7670   67.0030 C   0  0  0  0  0  0  0  0  0  0  0  0
  129.1450  126.9430   67.2450 C   0  0  0  0  0  0  0  0  0  0  0  0
  128.9340  127.3890   68.6960 C   0  0  0  0  0  0  0  0  0  0  0  0
  129.3110  128.6520   68.9140 F   0  0  0  0  0  0  0  0  0  0  0  0
  127.6430  127.3000   69.0130 F   0  0  0  0  0  0  0  0  0  0  0  0
  129.6440  126.6130   69.5140 F   0  0  0  0  0  0  0  0  0  0  0  0
  128.6490  127.6490   66.1080 C   0  0  0  0  0  0  0  0  0  0  0  0
  127.8770  128.8590   65.9640 C   0  0  0  0  0  0  0  0  0  0  0  0
  127.4460  129.5960   67.0380 N   0  0  0  0  0  0  0  0  0  0  0  0
  124.8240  132.2980   63.0930 N   0  0  0  0  0  0  0  0  0  0  0  0
  1  2  1  0
  2  3  2  0
  3  4  1  0
  4  5  2  0
  5  6  1  0
  6  7  1  0
  7  8  1  0
  8  9  2  0
  8 10  1  0
 10 11  1  0
 11 12  1  0
 12 13  2  0
 13 14  1  0
 14 15  1  0
 14 16  2  0
 16 17  1  0
 17 18  1  0
 18 19  1  0
 18 20  1  0
 18 21  1  0
 17 22  2  0
 22 23  1  0
 23 24  1  0
  6 25  2  0
 25  2  1  0
 23 10  2  0
 22 12  1  0
M  END
>  <Binding energies>  (28) 
[-6.08]

>  <Ligand effiencies>  (28) 
[-0.21714285714285714]

>  <Interactions>  (28) 
["V-A:GLU:543:CD:4908, V-B:ASP:366:CG:8184, V-B:ILE:369:CB:8207, V-B:GLY:454:CA:9020, V-B:GLY:453:C:9013, V-B:ILE:369:CG2:8208, V-B:GLY:453:CA:9015, V-B:LEU:475:CD2:9230, V-B:ILE:369:CG1:8209, V-A:TYR:484:CZ:4347, V-B:GLU:543:CB:9878, V-B:GLU:543:CG:9879, V-A:TYR:484:CE2:4346, V-B:GLU:543:CD:9880, V-A:HIS:456:CE1:4070, V-B:HIS:456:CE1:9041, V-B:GLU:543:C:9874, V-A:GLU:543:CB:4906, V-A:GLU:543:C:4902, V-B:TYR:484:CZ:9318, V-B:ARG:545:CZ:9898, H-B:TYR:484:OH:9319, H-B:HIS:456:NE2:9042, V-A:GLU:543:CG:4907, V-B:ILE:369:CD1:8210, V-B:SER:385:CB:8380, V-A:GLU:543:CA:4904, V-B:TYR:484:CE2:9317, H-B:GLU:543:OE2:9882"]

$$$$
4bg_Grossjean_2025
     RDKit          3D

 25 27  0  0  0  0  0  0  0  0999 V2000
  122.2120  130.7580   62.3200 C   0  0  0  0  0  0  0  0  0  0  0  0
  123.6370  130.5060   62.7790 C   0  0  0  0  0  0  0  0  0  0  0  0
  124.7150  130.7280   61.9270 C   0  0  0  0  0  0  0  0  0  0  0  0
  126.0280  130.4850   62.3630 C   0  0  0  0  0  0  0  0  0  0  0  0
  127.1830  130.7430   61.3900 C   0  0  0  0  0  0  0  0  0  0  0  0
  126.7750  131.2190   60.2110 F   0  0  0  0  0  0  0  0  0  0  0  0
  128.0210  131.6380   61.9130 F   0  0  0  0  0  0  0  0  0  0  0  0
  127.8390  129.6080   61.1560 F   0  0  0  0  0  0  0  0  0  0  0  0
  126.1940  130.0110   63.6980 C   0  0  0  0  0  0  0  0  0  0  0  0
  127.3550  129.6540   64.4760 C   0  0  0  0  0  0  0  0  0  0  0  0
  128.6320  129.7160   63.9760 N   0  0  0  0  0  0  0  0  0  0  0  0
  127.0630  129.2470   65.7870 C   0  0  0  0  0  0  0  0  0  0  0  0
  127.9840  128.7910   66.8270 C   0  0  0  0  0  0  0  0  0  0  0  0
  128.3710  129.5470   67.7200 O   0  0  0  0  0  0  0  0  0  0  0  0
  128.3470  127.4930   66.7670 N   0  0  0  0  0  0  0  0  0  0  0  0
  129.2670  126.8250   67.6880 C   0  0  0  0  0  0  0  0  0  0  0  0
  129.0330  127.1840   69.1500 C   0  0  0  0  0  0  0  0  0  0  0  0
  127.8130  126.8790   69.7610 C   0  0  0  0  0  0  0  0  0  0  0  0
  127.6160  127.1730   71.1070 C   0  0  0  0  0  0  0  0  0  0  0  0
  128.6440  127.7580   71.8440 C   0  0  0  0  0  0  0  0  0  0  0  0
  129.8690  128.0480   71.2460 C   0  0  0  0  0  0  0  0  0  0  0  0
  130.0650  127.7560   69.8990 C   0  0  0  0  0  0  0  0  0  0  0  0
  125.3280  129.2570   66.0900 S   0  0  0  0  0  0  0  0  0  0  0  0
  125.0050  129.8320   64.4710 C   0  0  0  0  0  0  0  0  0  0  0  0
  123.7610  130.0620   64.0510 N   0  0  0  0  0  0  0  0  0  0  0  0
  1  2  1  0
  2  3  2  0
  3  4  1  0
  4  5  1  0
  5  6  1  0
  5  7  1  0
  5  8  1  0
  4  9  2  0
  9 10  1  0
 10 11  1  0
 10 12  2  0
 12 13  1  0
 13 14  2  0
 13 15  1  0
 15 16  1  0
 16 17  1  0
 17 18  2  0
 18 19  1  0
 19 20  2  0
 20 21  1  0
 21 22  2  0
 12 23  1  0
 23 24  1  0
 24 25  2  0
 25  2  1  0
 24  9  1  0
 22 17  1  0
M  END
>  <Binding energies>  (29) 
[-6.5]

>  <Ligand effiencies>  (29) 
[-0.23214285714285715]

>  <Interactions>  (29) 
["V-A:GLU:543:CD:4908, V-B:ASP:366:CG:8184, V-B:GLY:453:C:9013, V-B:GLY:453:CA:9015, H-B:ARG:545:NH1:9899, H-B:GLY:454:N:9021, V-B:ILE:369:CG1:8209, H-B:ARG:545:NH2:9900, H-A:GLU:543:OE2:4910, V-B:GLU:543:CB:9878, V-B:GLU:543:CG:9879, V-B:GLU:543:CD:9880, H-B:GLU:543:OE1:9881, V-B:HIS:456:CD2:9039, V-B:GLY:544:C:9884, V-A:HIS:456:CE1:4070, V-B:HIS:456:CE1:9041, V-B:GLU:543:C:9874, H-A:GLU:543:OE1:4909, V-A:GLU:543:CB:4906, V-B:TYR:484:CZ:9318, V-B:ARG:545:CZ:9898, H-B:TYR:484:OH:9319, V-A:GLU:543:CG:4907, H-B:ARG:545:NE:9896, V-B:ARG:545:CD:9895, V-B:ARG:545:CG:9894, H-B:GLU:543:OE2:9882"]

$$$$
4ca_Grossjean_2025
     RDKit          3D

 34 37  0  0  0  0  0  0  0  0999 V2000
  124.7290  127.9060   75.2450 C   0  0  0  0  0  0  0  0  0  0  0  0
  125.8990  128.7170   75.8120 C   0  0  0  0  0  0  0  0  0  0  0  0
  127.0980  127.9620   75.6950 O   0  0  0  0  0  0  0  0  0  0  0  0
  128.2150  128.5010   75.1410 C   0  0  0  0  0  0  0  0  0  0  0  0
  129.0020  129.2210   75.7640 O   0  0  0  0  0  0  0  0  0  0  0  0
  128.3990  128.1310   73.6990 C   0  0  0  0  0  0  0  0  0  0  0  0
  129.6440  128.3450   73.0900 C   0  0  0  0  0  0  0  0  0  0  0  0
  129.8460  128.0080   71.7550 C   0  0  0  0  0  0  0  0  0  0  0  0
  128.8110  127.4580   70.9990 C   0  0  0  0  0  0  0  0  0  0  0  0
  129.1290  127.1460   69.6630 N   0  0  0  0  0  0  0  0  0  0  0  0
  128.3270  127.0580   68.5730 C   0  0  0  0  0  0  0  0  0  0  0  0
  127.1200  127.3000   68.5820 O   0  0  0  0  0  0  0  0  0  0  0  0
  128.9990  126.6620   67.3330 C   0  0  0  0  0  0  0  0  0  0  0  0
  130.2050  125.3780   67.3500 S   0  0  0  0  0  0  0  0  0  0  0  0
  130.4330  125.5090   65.6220 C   0  0  0  0  0  0  0  0  0  0  0  0
  131.2950  124.7270   64.9750 N   0  0  0  0  0  0  0  0  0  0  0  0
  131.3940  124.8920   63.6310 C   0  0  0  0  0  0  0  0  0  0  0  0
  132.3670  123.9890   62.9280 C   0  0  0  0  0  0  0  0  0  0  0  0
  131.9530  122.7520   62.4080 C   0  0  0  0  0  0  0  0  0  0  0  0
  132.8520  121.9080   61.7610 C   0  0  0  0  0  0  0  0  0  0  0  0
  134.1830  122.2900   61.6240 C   0  0  0  0  0  0  0  0  0  0  0  0
  134.6200  123.5090   62.1320 C   0  0  0  0  0  0  0  0  0  0  0  0
  133.7180  124.3500   62.7790 C   0  0  0  0  0  0  0  0  0  0  0  0
  130.6450  125.8550   62.9460 C   0  0  0  0  0  0  0  0  0  0  0  0
  129.7370  126.6870   63.6200 C   0  0  0  0  0  0  0  0  0  0  0  0
  128.9460  127.7180   62.8080 C   0  0  0  0  0  0  0  0  0  0  0  0
  128.9230  128.9260   63.3760 F   0  0  0  0  0  0  0  0  0  0  0  0
  129.4910  127.8570   61.6000 F   0  0  0  0  0  0  0  0  0  0  0  0
  127.6820  127.3160   62.6770 F   0  0  0  0  0  0  0  0  0  0  0  0
  129.6120  126.5110   65.0280 C   0  0  0  0  0  0  0  0  0  0  0  0
  128.7990  127.1530   66.0320 C   0  0  0  0  0  0  0  0  0  0  0  0
  127.9130  128.1570   65.7360 N   0  0  0  0  0  0  0  0  0  0  0  0
  127.5640  127.2340   71.6000 C   0  0  0  0  0  0  0  0  0  0  0  0
  127.3630  127.5690   72.9370 C   0  0  0  0  0  0  0  0  0  0  0  0
  1  2  1  0
  2  3  1  0
  3  4  1  0
  4  5  2  0
  4  6  1  0
  6  7  2  0
  7  8  1  0
  8  9  2  0
  9 10  1  0
 10 11  1  0
 11 12  2  0
 11 13  1  0
 13 14  1  0
 14 15  1  0
 15 16  2  0
 16 17  1  0
 17 18  1  0
 18 19  2  0
 19 20  1  0
 20 21  2  0
 21 22  1  0
 22 23  2  0
 17 24  2  0
 24 25  1  0
 25 26  1  0
 26 27  1  0
 26 28  1  0
 26 29  1  0
 25 30  2  0
 30 31  1  0
 31 32  1  0
  9 33  1  0
 33 34  2  0
 34  6  1  0
 31 13  2  0
 30 15  1  0
 23 18  1  0
M  END
>  <Binding energies>  (30) 
[-7.43]

>  <Ligand effiencies>  (30) 
[-0.2008108108108108]

>  <Interactions>  (30) 
["V-A:GLU:543:CD:4908, H-A:TYR:484:OH:4348, V-A:LEU:475:CD2:4259, V-A:ILE:369:CD1:3239, V-A:GLY:453:C:4042, V-A:GLY:454:CA:4049, V-A:ILE:369:CG2:3237, H-A:GLU:543:OE2:4910, V-B:GLU:543:CB:9878, V-B:GLU:543:CG:9879, V-A:TYR:484:CE2:4346, V-B:GLU:543:CD:9880, V-B:HIS:456:CD2:9039, V-B:HIS:456:CB:9036, V-B:GLY:544:C:9884, V-B:HIS:456:CG:9037, V-A:HIS:456:CE1:4070, H-B:LYS:547:NZ:9923, V-B:LYS:547:CE:9922, V-B:HIS:456:CE1:9041, H-A:LYS:547:NZ:4951, H-A:GLU:543:OE1:4909, V-A:GLY:453:CA:4044, V-A:GLU:543:CG:4907, H-A:HIS:456:NE2:4071, V-B:LYS:547:CD:9921, H-B:GLU:543:OE2:9882"]

$$$$
4cb_Grossjean_2025
     RDKit          3D

 33 36  0  0  0  0  0  0  0  0999 V2000
  125.7600  128.5260   75.6740 C   0  0  0  0  0  0  0  0  0  0  0  0
  127.0130  127.8580   75.6250 O   0  0  0  0  0  0  0  0  0  0  0  0
  128.1320  128.5010   75.2050 C   0  0  0  0  0  0  0  0  0  0  0  0
  128.7830  129.2710   75.9190 O   0  0  0  0  0  0  0  0  0  0  0  0
  128.5030  128.1840   73.7840 C   0  0  0  0  0  0  0  0  0  0  0  0
  127.5650  127.5500   72.9590 C   0  0  0  0  0  0  0  0  0  0  0  0
  127.8750  127.2500   71.6350 C   0  0  0  0  0  0  0  0  0  0  0  0
  129.1280  127.5700   71.1120 C   0  0  0  0  0  0  0  0  0  0  0  0
  129.3290  127.2350   69.7590 N   0  0  0  0  0  0  0  0  0  0  0  0
  128.4270  127.0180   68.7710 C   0  0  0  0  0  0  0  0  0  0  0  0
  127.2090  127.1350   68.9080 O   0  0  0  0  0  0  0  0  0  0  0  0
  128.9990  126.6400   67.4750 C   0  0  0  0  0  0  0  0  0  0  0  0
  130.1460  125.3070   67.3660 S   0  0  0  0  0  0  0  0  0  0  0  0
  130.2670  125.4920   65.6320 C   0  0  0  0  0  0  0  0  0  0  0  0
  131.0500  124.7020   64.9020 N   0  0  0  0  0  0  0  0  0  0  0  0
  131.0700  124.9150   63.5600 C   0  0  0  0  0  0  0  0  0  0  0  0
  131.9580  124.0050   62.7630 C   0  0  0  0  0  0  0  0  0  0  0  0
  131.4530  122.8230   62.1990 C   0  0  0  0  0  0  0  0  0  0  0  0
  132.2720  121.9720   61.4600 C   0  0  0  0  0  0  0  0  0  0  0  0
  133.6130  122.2930   61.2760 C   0  0  0  0  0  0  0  0  0  0  0  0
  134.1400  123.4570   61.8270 C   0  0  0  0  0  0  0  0  0  0  0  0
  133.3180  124.3030   62.5650 C   0  0  0  0  0  0  0  0  0  0  0  0
  130.3210  125.9350   62.9630 C   0  0  0  0  0  0  0  0  0  0  0  0
  129.4950  126.7750   63.7250 C   0  0  0  0  0  0  0  0  0  0  0  0
  128.6990  127.8720   63.0050 C   0  0  0  0  0  0  0  0  0  0  0  0
  129.1960  128.1750   61.8040 F   0  0  0  0  0  0  0  0  0  0  0  0
  127.4410  127.4700   62.8270 F   0  0  0  0  0  0  0  0  0  0  0  0
  128.7070  128.9870   63.7340 F   0  0  0  0  0  0  0  0  0  0  0  0
  129.4540  126.5500   65.1310 C   0  0  0  0  0  0  0  0  0  0  0  0
  128.7350  127.1860   66.2080 C   0  0  0  0  0  0  0  0  0  0  0  0
  127.8720  128.2330   66.0060 N   0  0  0  0  0  0  0  0  0  0  0  0
  130.0720  128.2090   71.9310 C   0  0  0  0  0  0  0  0  0  0  0  0
  129.7600  128.5090   73.2530 C   0  0  0  0  0  0  0  0  0  0  0  0
  1  2  1  0
  2  3  1  0
  3  4  2  0
  3  5  1  0
  5  6  2  0
  6  7  1  0
  7  8  2  0
  8  9  1  0
  9 10  1  0
 10 11  2  0
 10 12  1  0
 12 13  1  0
 13 14  1  0
 14 15  2  0
 15 16  1  0
 16 17  1  0
 17 18  2  0
 18 19  1  0
 19 20  2  0
 20 21  1  0
 21 22  2  0
 16 23  2  0
 23 24  1  0
 24 25  1  0
 25 26  1  0
 25 27  1  0
 25 28  1  0
 24 29  2  0
 29 30  1  0
 30 31  1  0
  8 32  1  0
 32 33  2  0
 33  5  1  0
 30 12  2  0
 29 14  1  0
 22 17  1  0
M  END
>  <Binding energies>  (31) 
[-7.14]

>  <Ligand effiencies>  (31) 
[-0.19833333333333333]

>  <Interactions>  (31) 
["V-A:GLU:543:CD:4908, H-A:TYR:484:OH:4348, V-A:LEU:475:CD2:4259, V-A:ILE:369:CD1:3239, V-A:ILE:369:CG2:3237, H-A:GLU:543:OE2:4910, V-B:GLU:543:CB:9878, V-B:GLU:543:CG:9879, V-A:TYR:484:CE2:4346, V-B:GLU:543:CD:9880, V-B:HIS:456:CD2:9039, V-A:GLY:544:C:4912, V-B:HIS:456:CB:9036, V-B:GLY:544:C:9884, V-B:HIS:456:CG:9037, V-A:HIS:456:CE1:4070, H-B:LYS:547:NZ:9923, V-B:LYS:547:CE:9922, V-B:HIS:456:CE1:9041, H-A:LYS:547:NZ:4951, H-A:GLU:543:OE1:4909, H-B:TYR:484:OH:9319, V-A:GLU:543:CG:4907, H-A:HIS:456:NE2:4071, H-B:GLU:543:OE2:9882"]

$$$$
4cc_Grossjean_2025
     RDKit          3D

 31 34  0  0  0  0  0  0  0  0999 V2000
  126.7820  122.5370   57.2580 C   0  0  0  0  0  0  0  0  0  0  0  0
  127.8760  122.0200   58.0070 O   0  0  0  0  0  0  0  0  0  0  0  0
  128.1600  122.5600   59.2470 C   0  0  0  0  0  0  0  0  0  0  0  0
  127.4800  123.7300   59.5860 C   0  0  0  0  0  0  0  0  0  0  0  0
  127.6990  124.3460   60.8150 C   0  0  0  0  0  0  0  0  0  0  0  0
  128.6120  123.8040   61.7210 C   0  0  0  0  0  0  0  0  0  0  0  0
  128.7550  124.4860   62.9430 N   0  0  0  0  0  0  0  0  0  0  0  0
  129.8410  124.5860   63.7470 C   0  0  0  0  0  0  0  0  0  0  0  0
  130.9390  124.0910   63.4860 O   0  0  0  0  0  0  0  0  0  0  0  0
  129.6390  125.3400   64.9880 C   0  0  0  0  0  0  0  0  0  0  0  0
  130.1120  124.6440   66.5370 S   0  0  0  0  0  0  0  0  0  0  0  0
  129.5790  126.0720   67.3920 C   0  0  0  0  0  0  0  0  0  0  0  0
  129.6830  126.1690   68.7160 N   0  0  0  0  0  0  0  0  0  0  0  0
  129.2510  127.3210   69.2900 C   0  0  0  0  0  0  0  0  0  0  0  0
  129.3770  127.4000   70.7840 C   0  0  0  0  0  0  0  0  0  0  0  0
  128.2370  127.5150   71.5960 C   0  0  0  0  0  0  0  0  0  0  0  0
  128.3470  127.5900   72.9820 C   0  0  0  0  0  0  0  0  0  0  0  0
  129.6030  127.5530   73.5780 C   0  0  0  0  0  0  0  0  0  0  0  0
  130.7490  127.4430   72.7970 C   0  0  0  0  0  0  0  0  0  0  0  0
  130.6350  127.3690   71.4110 C   0  0  0  0  0  0  0  0  0  0  0  0
  128.7020  128.3630   68.5360 C   0  0  0  0  0  0  0  0  0  0  0  0
  128.5870  128.2710   67.1390 C   0  0  0  0  0  0  0  0  0  0  0  0
  127.9810  129.4530   66.3740 C   0  0  0  0  0  0  0  0  0  0  0  0
  128.1550  130.6230   66.9940 F   0  0  0  0  0  0  0  0  0  0  0  0
  128.5490  129.5510   65.1730 F   0  0  0  0  0  0  0  0  0  0  0  0
  126.6690  129.2700   66.2270 F   0  0  0  0  0  0  0  0  0  0  0  0
  129.0450  127.0700   66.5250 C   0  0  0  0  0  0  0  0  0  0  0  0
  129.0880  126.6210   65.1550 C   0  0  0  0  0  0  0  0  0  0  0  0
  128.6320  127.3840   64.1100 N   0  0  0  0  0  0  0  0  0  0  0  0
  129.2910  122.6200   61.3920 C   0  0  0  0  0  0  0  0  0  0  0  0
  129.0680  122.0070   60.1620 C   0  0  0  0  0  0  0  0  0  0  0  0
  1  2  1  0
  2  3  1  0
  3  4  2  0
  4  5  1  0
  5  6  2  0
  6  7  1  0
  7  8  1  0
  8  9  2  0
  8 10  1  0
 10 11  1  0
 11 12  1  0
 12 13  2  0
 13 14  1  0
 14 15  1  0
 15 16  2  0
 16 17  1  0
 17 18  2  0
 18 19  1  0
 19 20  2  0
 14 21  2  0
 21 22  1  0
 22 23  1  0
 23 24  1  0
 23 25  1  0
 23 26  1  0
 22 27  2  0
 27 28  1  0
 28 29  1  0
  6 30  1  0
 30 31  2  0
 31  3  1  0
 28 10  2  0
 27 12  1  0
 20 15  1  0
M  END
>  <Binding energies>  (32) 
[-7.04]

>  <Ligand effiencies>  (32) 
[-0.20705882352941177]

>  <Interactions>  (32) 
["V-B:PRO:540:N:9856, V-B:TYR:539:CD2:9846, V-A:GLU:543:CD:4908, V-B:PRO:540:CB:9857, V-B:PRO:540:CD:9859, V-B:TYR:539:CE2:9848, V-B:PRO:540:CA:9855, V-A:TYR:484:CZ:4347, H-A:GLU:543:OE2:4910, V-B:GLU:543:CB:9878, V-B:GLU:543:CG:9879, V-A:TYR:484:CE2:4346, V-B:GLU:543:CD:9880, H-B:GLU:543:OE1:9881, V-B:HIS:456:CD2:9039, V-A:GLY:544:C:4912, V-A:HIS:456:CD2:4068, V-A:HIS:456:CE1:4070, V-B:HIS:456:CE1:9041, H-A:GLU:543:OE1:4909, V-A:GLU:543:CB:4906, V-B:TYR:484:CZ:9318, V-A:GLU:543:CG:4907, V-B:TYR:539:C:9839, V-A:GLU:543:CA:4904, V-B:TYR:484:CE2:9317, V-B:TYR:484:CD2:9315, H-B:GLU:543:OE2:9882, H-B:TYR:539:N:9842"]

$$$$
4ce_Grossjean_2025
     RDKit          3D

 30 33  0  0  0  0  0  0  0  0999 V2000
  132.2990  125.8390   57.9990 C   0  0  0  0  0  0  0  0  0  0  0  0
  132.7560  125.2570   59.3240 C   0  0  0  0  0  0  0  0  0  0  0  0
  133.8560  124.3990   59.4050 C   0  0  0  0  0  0  0  0  0  0  0  0
  134.2240  123.9090   60.6580 C   0  0  0  0  0  0  0  0  0  0  0  0
  133.4950  124.2850   61.7870 C   0  0  0  0  0  0  0  0  0  0  0  0
  132.4000  125.1440   61.6350 C   0  0  0  0  0  0  0  0  0  0  0  0
  131.7200  125.5050   62.8120 N   0  0  0  0  0  0  0  0  0  0  0  0
  130.8370  124.7760   63.5400 C   0  0  0  0  0  0  0  0  0  0  0  0
  130.5050  123.6230   63.2580 O   0  0  0  0  0  0  0  0  0  0  0  0
  130.2820  125.4500   64.7150 C   0  0  0  0  0  0  0  0  0  0  0  0
  130.6490  124.8570   66.3330 S   0  0  0  0  0  0  0  0  0  0  0  0
  129.7160  126.1410   67.0640 C   0  0  0  0  0  0  0  0  0  0  0  0
  129.6020  126.2500   68.3850 N   0  0  0  0  0  0  0  0  0  0  0  0
  128.8690  127.2900   68.8620 C   0  0  0  0  0  0  0  0  0  0  0  0
  128.7640  127.3880   70.3550 C   0  0  0  0  0  0  0  0  0  0  0  0
  129.8420  127.8650   71.1190 C   0  0  0  0  0  0  0  0  0  0  0  0
  129.7540  127.9520   72.5060 C   0  0  0  0  0  0  0  0  0  0  0  0
  128.5840  127.5640   73.1490 C   0  0  0  0  0  0  0  0  0  0  0  0
  127.5030  127.0870   72.4170 C   0  0  0  0  0  0  0  0  0  0  0  0
  127.5950  126.9990   71.0300 C   0  0  0  0  0  0  0  0  0  0  0  0
  128.2370  128.2020   68.0090 C   0  0  0  0  0  0  0  0  0  0  0  0
  128.3470  128.0920   66.6140 C   0  0  0  0  0  0  0  0  0  0  0  0
  127.6310  129.1260   65.7390 C   0  0  0  0  0  0  0  0  0  0  0  0
  127.2370  128.6350   64.5620 F   0  0  0  0  0  0  0  0  0  0  0  0
  126.5440  129.5740   66.3680 F   0  0  0  0  0  0  0  0  0  0  0  0
  128.4480  130.1500   65.4900 F   0  0  0  0  0  0  0  0  0  0  0  0
  129.1260  127.0140   66.1040 C   0  0  0  0  0  0  0  0  0  0  0  0
  129.4660  126.5930   64.7670 C   0  0  0  0  0  0  0  0  0  0  0  0
  129.0300  127.2540   63.6470 N   0  0  0  0  0  0  0  0  0  0  0  0
  132.0360  125.6310   60.4130 N   0  0  0  0  0  0  0  0  0  0  0  0
  1  2  1  0
  2  3  2  0
  3  4  1  0
  4  5  2  0
  5  6  1  0
  6  7  1  0
  7  8  1  0
  8  9  2  0
  8 10  1  0
 10 11  1  0
 11 12  1  0
 12 13  2  0
 13 14  1  0
 14 15  1  0
 15 16  2  0
 16 17  1  0
 17 18  2  0
 18 19  1  0
 19 20  2  0
 14 21  2  0
 21 22  1  0
 22 23  1  0
 23 24  1  0
 23 25  1  0
 23 26  1  0
 22 27  2  0
 27 28  1  0
 28 29  1  0
  6 30  2  0
 30  2  1  0
 28 10  2  0
 27 12  1  0
 20 15  1  0
M  END
>  <Binding energies>  (33) 
[-7.33]

>  <Ligand effiencies>  (33) 
[-0.22212121212121214]

>  <Interactions>  (33) 
["V-A:GLU:543:CD:4908, V-A:ASP:366:CB:3212, V-A:ILE:369:CD1:3239, V-A:ASP:366:CG:3213, V-A:ILE:369:CG2:3237, V-A:TYR:484:CZ:4347, V-A:ILE:369:CB:3236, H-A:GLU:543:OE2:4910, V-B:GLU:543:CB:9878, V-B:GLU:543:CG:9879, V-A:TYR:484:CE2:4346, V-B:GLU:543:CD:9880, H-B:GLU:543:OE1:9881, V-A:ASP:366:CA:3210, V-B:HIS:456:CD2:9039, V-B:GLY:544:C:9884, V-A:HIS:456:CE1:4070, V-B:LYS:547:CE:9922, V-B:HIS:456:CE1:9041, V-B:GLU:543:C:9874, H-A:GLU:543:OE1:4909, V-A:GLU:543:CB:4906, V-B:TYR:484:CZ:9318, V-A:GLU:543:CG:4907, H-B:GLU:543:OE2:9882"]

$$$$
4cf_Grossjean_2025
     RDKit          3D

 29 32  0  0  0  0  0  0  0  0999 V2000
  128.8990  127.2600   63.6670 N   0  0  0  0  0  0  0  0  0  0  0  0
  129.3610  126.5860   64.7680 C   0  0  0  0  0  0  0  0  0  0  0  0
  130.1510  125.4270   64.6860 C   0  0  0  0  0  0  0  0  0  0  0  0
  130.5960  124.7070   63.4890 C   0  0  0  0  0  0  0  0  0  0  0  0
  130.1450  124.9970   62.3800 O   0  0  0  0  0  0  0  0  0  0  0  0
  131.5200  123.7400   63.7040 N   0  0  0  0  0  0  0  0  0  0  0  0
  132.1100  122.8430   62.7920 C   0  0  0  0  0  0  0  0  0  0  0  0
  131.4220  122.1140   61.8030 C   0  0  0  0  0  0  0  0  0  0  0  0
  132.1290  121.2440   60.9710 C   0  0  0  0  0  0  0  0  0  0  0  0
  133.5080  121.1220   61.1470 C   0  0  0  0  0  0  0  0  0  0  0  0
  134.1930  121.8080   62.0970 N   0  0  0  0  0  0  0  0  0  0  0  0
  133.4910  122.6490   62.9000 C   0  0  0  0  0  0  0  0  0  0  0  0
  130.5690  124.8280   66.2890 S   0  0  0  0  0  0  0  0  0  0  0  0
  129.6810  126.1240   67.0550 C   0  0  0  0  0  0  0  0  0  0  0  0
  129.6050  126.2270   68.3800 N   0  0  0  0  0  0  0  0  0  0  0  0
  128.8770  127.2590   68.8820 C   0  0  0  0  0  0  0  0  0  0  0  0
  128.8040  127.3450   70.3790 C   0  0  0  0  0  0  0  0  0  0  0  0
  127.6250  127.0080   71.0600 C   0  0  0  0  0  0  0  0  0  0  0  0
  127.5480  127.0840   72.4480 C   0  0  0  0  0  0  0  0  0  0  0  0
  128.6580  127.4990   73.1770 C   0  0  0  0  0  0  0  0  0  0  0  0
  129.8410  127.8360   72.5290 C   0  0  0  0  0  0  0  0  0  0  0  0
  129.9120  127.7580   71.1410 C   0  0  0  0  0  0  0  0  0  0  0  0
  128.2510  128.1940   68.0530 C   0  0  0  0  0  0  0  0  0  0  0  0
  128.3280  128.0970   66.6550 C   0  0  0  0  0  0  0  0  0  0  0  0
  127.6130  129.1540   65.8050 C   0  0  0  0  0  0  0  0  0  0  0  0
  128.3810  130.2080   65.5230 F   0  0  0  0  0  0  0  0  0  0  0  0
  127.2300  128.6180   64.6470 F   0  0  0  0  0  0  0  0  0  0  0  0
  126.5400  129.6060   66.4560 F   0  0  0  0  0  0  0  0  0  0  0  0
  129.0730  127.0080   66.1170 C   0  0  0  0  0  0  0  0  0  0  0  0
  1  2  1  0
  2  3  2  0
  3  4  1  0
  4  5  2  0
  4  6  1  0
  6  7  1  0
  7  8  2  0
  8  9  1  0
  9 10  2  0
 10 11  1  0
 11 12  2  0
  3 13  1  0
 13 14  1  0
 14 15  2  0
 15 16  1  0
 16 17  1  0
 17 18  2  0
 18 19  1  0
 19 20  2  0
 20 21  1  0
 21 22  2  0
 16 23  2  0
 23 24  1  0
 24 25  1  0
 25 26  1  0
 25 27  1  0
 25 28  1  0
 24 29  2  0
 29  2  1  0
 12  7  1  0
 29 14  1  0
 22 17  1  0
M  END
>  <Binding energies>  (34) 
[-6.79]

>  <Ligand effiencies>  (34) 
[-0.2121875]

>  <Interactions>  (34) 
["V-B:TYR:539:CD2:9846, V-A:GLU:543:CD:4908, H-A:GLY:454:N:4050, H-A:TYR:484:OH:4348, V-B:TYR:539:CE2:9848, V-A:LEU:475:CD2:4259, V-A:GLY:454:CA:4049, V-A:ILE:369:CG2:3237, V-A:TYR:484:CZ:4347, H-A:GLU:543:OE2:4910, V-B:GLU:543:CB:9878, V-B:GLU:543:CG:9879, V-A:TYR:484:CE2:4346, V-B:GLU:543:CD:9880, H-B:GLU:543:OE1:9881, V-B:HIS:456:CD2:9039, V-B:GLY:544:C:9884, V-A:HIS:456:CE1:4070, V-B:LYS:547:CE:9922, V-B:HIS:456:CE1:9041, V-B:GLU:543:C:9874, H-A:GLU:543:OE1:4909, V-A:GLU:543:CB:4906, V-B:TYR:484:CZ:9318, V-A:GLU:543:CG:4907, V-A:SER:385:CA:3407, V-A:SER:385:CB:3409, V-B:TYR:484:CE2:9317, H-B:GLU:543:OE2:9882"]

$$$$
4ci_Grossjean_2025
     RDKit          3D

 28 31  0  0  0  0  0  0  0  0999 V2000
  128.6840  127.3680   63.7320 N   0  0  0  0  0  0  0  0  0  0  0  0
  129.0800  126.6080   64.8010 C   0  0  0  0  0  0  0  0  0  0  0  0
  129.5880  125.3040   64.6730 C   0  0  0  0  0  0  0  0  0  0  0  0
  129.8040  124.5250   63.4510 C   0  0  0  0  0  0  0  0  0  0  0  0
  130.9460  124.2830   63.0530 O   0  0  0  0  0  0  0  0  0  0  0  0
  128.6790  124.1190   62.8100 N   0  0  0  0  0  0  0  0  0  0  0  0
  128.5940  123.3770   61.6390 C   0  0  0  0  0  0  0  0  0  0  0  0
  128.2160  123.9250   60.4150 C   0  0  0  0  0  0  0  0  0  0  0  0
  128.2540  122.8770   59.5250 C   0  0  0  0  0  0  0  0  0  0  0  0
  128.6370  121.7540   60.1800 O   0  0  0  0  0  0  0  0  0  0  0  0
  128.8490  122.0840   61.5200 N   0  0  0  0  0  0  0  0  0  0  0  0
  130.0060  124.6260   66.2440 S   0  0  0  0  0  0  0  0  0  0  0  0
  129.4920  126.0840   67.0610 C   0  0  0  0  0  0  0  0  0  0  0  0
  129.5650  126.2030   68.3840 N   0  0  0  0  0  0  0  0  0  0  0  0
  129.1460  127.3740   68.9290 C   0  0  0  0  0  0  0  0  0  0  0  0
  129.2360  127.4760   70.4240 C   0  0  0  0  0  0  0  0  0  0  0  0
  128.1840  127.0320   71.2420 C   0  0  0  0  0  0  0  0  0  0  0  0
  128.2620  127.1230   72.6290 C   0  0  0  0  0  0  0  0  0  0  0  0
  129.3990  127.6630   73.2220 C   0  0  0  0  0  0  0  0  0  0  0  0
  130.4530  128.1150   72.4370 C   0  0  0  0  0  0  0  0  0  0  0  0
  130.3700  128.0230   71.0500 C   0  0  0  0  0  0  0  0  0  0  0  0
  128.6380  128.4130   68.1420 C   0  0  0  0  0  0  0  0  0  0  0  0
  128.5570  128.2990   66.7440 C   0  0  0  0  0  0  0  0  0  0  0  0
  127.9910  129.4780   65.9440 C   0  0  0  0  0  0  0  0  0  0  0  0
  128.5270  129.5910   64.7270 F   0  0  0  0  0  0  0  0  0  0  0  0
  126.6760  129.3240   65.7870 F   0  0  0  0  0  0  0  0  0  0  0  0
  128.2260  130.6190   66.5930 F   0  0  0  0  0  0  0  0  0  0  0  0
  129.0060  127.0800   66.1630 C   0  0  0  0  0  0  0  0  0  0  0  0
  1  2  1  0
  2  3  2  0
  3  4  1  0
  4  5  2  0
  4  6  1  0
  6  7  1  0
  7  8  1  0
  8  9  2  0
  9 10  1  0
 10 11  1  0
  3 12  1  0
 12 13  1  0
 13 14  2  0
 14 15  1  0
 15 16  1  0
 16 17  2  0
 17 18  1  0
 18 19  2  0
 19 20  1  0
 20 21  2  0
 15 22  2  0
 22 23  1  0
 23 24  1  0
 24 25  1  0
 24 26  1  0
 24 27  1  0
 23 28  2  0
 28  2  1  0
 11  7  2  0
 28 13  1  0
 21 16  1  0
M  END
>  <Binding energies>  (35) 
[-6.75]

>  <Ligand effiencies>  (35) 
[-0.21774193548387097]

>  <Interactions>  (35) 
["V-B:PRO:540:N:9856, V-B:TYR:539:CD2:9846, V-A:GLU:543:CD:4908, V-B:TYR:539:CE2:9848, V-B:PRO:540:CA:9855, H-B:ALA:541:N:9863, V-A:TYR:484:CZ:4347, H-A:GLU:543:OE2:4910, V-B:GLU:543:CB:9878, V-B:GLU:543:CG:9879, V-A:TYR:484:CE2:4346, V-B:GLU:543:CD:9880, H-B:GLU:543:OE1:9881, V-A:GLY:544:C:4912, V-A:HIS:456:CE1:4070, V-B:HIS:456:CE1:9041, H-A:GLU:543:OE1:4909, V-A:GLU:543:CB:4906, V-A:GLU:543:C:4902, V-B:TYR:484:CZ:9318, V-A:GLU:543:CG:4907, V-B:TYR:539:C:9839, V-A:GLU:543:CA:4904, V-B:TYR:484:CE2:9317, H-B:GLU:543:OE2:9882"]

$$$$
8a_Ghoteimi_2023
     RDKit          3D

 40 44  0  0  0  0  0  0  0  0999 V2000
  124.7940  128.0810   75.4860 C   0  0  0  0  0  0  0  0  0  0  0  0
  125.9590  128.6090   76.3270 C   0  0  0  0  0  0  0  0  0  0  0  0
  127.1140  127.8160   76.0850 O   0  0  0  0  0  0  0  0  0  0  0  0
  128.2750  128.3790   75.6600 C   0  0  0  0  0  0  0  0  0  0  0  0
  129.0200  129.0370   76.3930 O   0  0  0  0  0  0  0  0  0  0  0  0
  128.5600  128.1280   74.2070 C   0  0  0  0  0  0  0  0  0  0  0  0
  127.4900  127.9360   73.3250 C   0  0  0  0  0  0  0  0  0  0  0  0
  127.7210  127.6990   71.9720 C   0  0  0  0  0  0  0  0  0  0  0  0
  129.0240  127.6480   71.4740 C   0  0  0  0  0  0  0  0  0  0  0  0
  129.1360  127.3980   70.0920 N   0  0  0  0  0  0  0  0  0  0  0  0
  128.2190  126.9330   69.2080 C   0  0  0  0  0  0  0  0  0  0  0  0
  127.0620  126.6330   69.5020 O   0  0  0  0  0  0  0  0  0  0  0  0
  128.6930  126.8050   67.8260 C   0  0  0  0  0  0  0  0  0  0  0  0
  129.9590  125.6470   67.4220 S   0  0  0  0  0  0  0  0  0  0  0  0
  129.9230  126.1230   65.7400 C   0  0  0  0  0  0  0  0  0  0  0  0
  130.7400  125.5770   64.8400 N   0  0  0  0  0  0  0  0  0  0  0  0
  130.6330  126.0220   63.5600 C   0  0  0  0  0  0  0  0  0  0  0  0
  131.5740  125.4110   62.5710 C   0  0  0  0  0  0  0  0  0  0  0  0
  131.4660  125.6900   61.2010 C   0  0  0  0  0  0  0  0  0  0  0  0
  132.3370  125.1090   60.2850 C   0  0  0  0  0  0  0  0  0  0  0  0
  133.3380  124.2390   60.7120 C   0  0  0  0  0  0  0  0  0  0  0  0
  134.1540  123.7070   59.7310 O   0  0  0  0  0  0  0  0  0  0  0  0
  133.8840  124.0080   58.3660 C   0  0  0  0  0  0  0  0  0  0  0  0
  133.4590  123.9580   62.0800 C   0  0  0  0  0  0  0  0  0  0  0  0
  132.5840  124.5380   62.9950 C   0  0  0  0  0  0  0  0  0  0  0  0
  129.7100  127.0000   63.1850 C   0  0  0  0  0  0  0  0  0  0  0  0
  128.8390  127.5640   64.1230 C   0  0  0  0  0  0  0  0  0  0  0  0
  127.8550  128.5770   63.6640 C   0  0  0  0  0  0  0  0  0  0  0  0
  126.7720  128.1960   62.8690 C   0  0  0  0  0  0  0  0  0  0  0  0
  125.8360  129.1390   62.4540 C   0  0  0  0  0  0  0  0  0  0  0  0
  125.9620  130.4760   62.8300 C   0  0  0  0  0  0  0  0  0  0  0  0
  124.9860  131.3410   62.3720 O   0  0  0  0  0  0  0  0  0  0  0  0
  123.7610  130.8080   61.8820 C   0  0  0  0  0  0  0  0  0  0  0  0
  127.0450  130.8600   63.6370 C   0  0  0  0  0  0  0  0  0  0  0  0
  127.9790  129.9140   64.0520 C   0  0  0  0  0  0  0  0  0  0  0  0
  128.9480  127.1290   65.4740 C   0  0  0  0  0  0  0  0  0  0  0  0
  128.2720  127.5130   66.6890 C   0  0  0  0  0  0  0  0  0  0  0  0
  127.3170  128.4980   66.7210 N   0  0  0  0  0  0  0  0  0  0  0  0
  130.1020  127.8440   72.3500 C   0  0  0  0  0  0  0  0  0  0  0  0
  129.8690  128.0810   73.7030 C   0  0  0  0  0  0  0  0  0  0  0  0
  1  2  1  0
  2  3  1  0
  3  4  1  0
  4  5  2  0
  4  6  1  0
  6  7  2  0
  7  8  1  0
  8  9  2  0
  9 10  1  0
 10 11  1  0
 11 12  2  0
 11 13  1  0
 13 14  1  0
 14 15  1  0
 15 16  2  0
 16 17  1  0
 17 18  1  0
 18 19  2  0
 19 20  1  0
 20 21  2  0
 21 22  1  0
 22 23  1  0
 21 24  1  0
 24 25  2  0
 17 26  2  0
 26 27  1  0
 27 28  1  0
 28 29  2  0
 29 30  1  0
 30 31  2  0
 31 32  1  0
 32 33  1  0
 31 34  1  0
 34 35  2  0
 27 36  2  0
 36 37  1  0
 37 38  1  0
  9 39  1  0
 39 40  2  0
 40  6  1  0
 37 13  2  0
 36 15  1  0
 25 18  1  0
 35 28  1  0
M  END
>  <Binding energies>  (36) 
[-8.01]

>  <Ligand effiencies>  (36) 
[-0.18627906976744185]

>  <Interactions>  (36) 
["V-A:GLU:543:CD:4908, V-B:ASP:366:CG:8184, V-B:TYR:539:CE2:9848, V-B:TYR:539:CZ:9849, V-A:ASP:366:CB:3212, V-A:ASP:366:CG:3213, V-A:ILE:369:CG2:3237, V-A:ILE:369:CB:3236, V-B:GLU:543:CB:9878, V-B:GLU:543:CG:9879, V-B:GLU:543:CD:9880, V-A:ASP:366:CA:3210, V-B:HIS:456:CD2:9039, V-B:HIS:456:CB:9036, V-B:HIS:456:CG:9037, V-A:HIS:456:CE1:4070, H-B:LYS:547:NZ:9923, V-B:LYS:547:CE:9922, V-B:HIS:456:CE1:9041, V-B:GLU:543:C:9874, H-A:LYS:547:NZ:4951, H-B:TYR:484:OH:9319, V-A:GLU:543:CG:4907, H-A:HIS:456:NE2:4071, V-A:ASP:366:C:3208, V-B:LYS:547:CD:9921, H-B:GLU:543:OE2:9882"]

$$$$
8c_Ghoteimi_2023
     RDKit          3D

 34 38  0  0  0  0  0  0  0  0999 V2000
  126.9160  128.5100   74.6560 C   0  0  0  0  0  0  0  0  0  0  0  0
  127.9730  127.7060   74.1450 O   0  0  0  0  0  0  0  0  0  0  0  0
  128.1940  127.6710   72.7810 C   0  0  0  0  0  0  0  0  0  0  0  0
  127.2150  127.0540   72.0060 C   0  0  0  0  0  0  0  0  0  0  0  0
  127.3550  126.9700   70.6240 C   0  0  0  0  0  0  0  0  0  0  0  0
  128.4810  127.5030   69.9800 C   0  0  0  0  0  0  0  0  0  0  0  0
  128.6390  127.4130   68.4950 C   0  0  0  0  0  0  0  0  0  0  0  0
  128.0510  128.3430   67.6330 C   0  0  0  0  0  0  0  0  0  0  0  0
  128.2170  128.2380   66.2480 C   0  0  0  0  0  0  0  0  0  0  0  0
  127.5740  129.2350   65.3630 C   0  0  0  0  0  0  0  0  0  0  0  0
  128.3520  130.1680   64.6720 C   0  0  0  0  0  0  0  0  0  0  0  0
  127.7470  131.0980   63.8330 C   0  0  0  0  0  0  0  0  0  0  0  0
  126.3610  131.1140   63.6730 C   0  0  0  0  0  0  0  0  0  0  0  0
  125.8480  132.0700   62.8180 O   0  0  0  0  0  0  0  0  0  0  0  0
  124.7000  132.8110   63.2130 C   0  0  0  0  0  0  0  0  0  0  0  0
  125.5800  130.1780   64.3710 C   0  0  0  0  0  0  0  0  0  0  0  0
  126.1870  129.2470   65.2100 C   0  0  0  0  0  0  0  0  0  0  0  0
  129.0020  127.1640   65.7500 C   0  0  0  0  0  0  0  0  0  0  0  0
  129.3740  126.7640   64.4180 C   0  0  0  0  0  0  0  0  0  0  0  0
  128.9700  127.4540   63.3030 N   0  0  0  0  0  0  0  0  0  0  0  0
  130.1800  125.6150   64.3740 C   0  0  0  0  0  0  0  0  0  0  0  0
  130.7390  124.9380   63.2020 C   0  0  0  0  0  0  0  0  0  0  0  0
  130.4560  123.7630   62.9580 O   0  0  0  0  0  0  0  0  0  0  0  0
  131.5690  125.6900   62.4370 N   0  0  0  0  0  0  0  0  0  0  0  0
  132.2250  125.2950   61.2800 C   0  0  0  0  0  0  0  0  0  0  0  0
  131.8760  125.5300   60.0330 N   0  0  0  0  0  0  0  0  0  0  0  0
  132.7350  125.0060   59.1830 C   0  0  0  0  0  0  0  0  0  0  0  0
  133.8140  124.3240   59.7370 C   0  0  0  0  0  0  0  0  0  0  0  0
  133.6840  124.3780   61.4700 S   0  0  0  0  0  0  0  0  0  0  0  0
  130.5020  125.0000   65.9960 S   0  0  0  0  0  0  0  0  0  0  0  0
  129.5570  126.2800   66.7200 C   0  0  0  0  0  0  0  0  0  0  0  0
  129.3970  126.3790   68.0400 N   0  0  0  0  0  0  0  0  0  0  0  0
  129.4610  128.1250   70.7660 C   0  0  0  0  0  0  0  0  0  0  0  0
  129.3240  128.2090   72.1490 C   0  0  0  0  0  0  0  0  0  0  0  0
  1  2  1  0
  2  3  1  0
  3  4  2  0
  4  5  1  0
  5  6  2  0
  6  7  1  0
  7  8  2  0
  8  9  1  0
  9 10  1  0
 10 11  2  0
 11 12  1  0
 12 13  2  0
 13 14  1  0
 14 15  1  0
 13 16  1  0
 16 17  2  0
  9 18  2  0
 18 19  1  0
 19 20  1  0
 19 21  2  0
 21 22  1  0
 22 23  2  0
 22 24  1  0
 24 25  1  0
 25 26  2  0
 26 27  1  0
 27 28  2  0
 28 29  1  0
 21 30  1  0
 30 31  1  0
 31 32  2  0
  6 33  1  0
 33 34  2  0
 34  3  1  0
 32  7  1  0
 17 10  1  0
 31 18  1  0
 29 25  1  0
M  END
>  <Binding energies>  (37) 
[-7.42]

>  <Ligand effiencies>  (37) 
[-0.20054054054054055]

>  <Interactions>  (37) 
["V-A:GLU:543:CD:4908, V-B:TYR:539:CE2:9848, V-A:ASP:366:CB:3212, V-B:GLY:454:CA:9020, V-B:LEU:475:CD2:9230, V-A:ILE:369:CD1:3239, V-A:ASP:366:CG:3213, V-A:ILE:369:CG2:3237, V-A:ILE:369:CB:3236, H-A:GLU:543:OE2:4910, V-B:GLU:543:CB:9878, V-B:GLU:543:CG:9879, V-A:TYR:484:CE2:4346, V-B:GLU:543:CD:9880, H-B:GLU:543:OE1:9881, V-A:ASP:366:CA:3210, V-B:HIS:456:CD2:9039, V-B:HIS:456:CB:9036, V-B:GLY:544:C:9884, V-B:HIS:456:CG:9037, V-B:GLY:544:CA:9886, H-B:LYS:547:NZ:9923, V-B:LYS:547:CE:9922, V-B:HIS:456:CE1:9041, V-B:GLU:543:C:9874, H-A:GLU:543:OE1:4909, V-A:GLU:543:CB:4906, V-A:GLU:543:CG:4907, H-B:GLU:543:OE2:9882"]

$$$$
8d_Ghoteimi_2023
     RDKit          3D

 30 33  0  0  0  0  0  0  0  0999 V2000
  129.3070  122.5590   64.7330 C   0  0  0  0  0  0  0  0  0  0  0  0
  130.7250  122.5920   64.8220 O   0  0  0  0  0  0  0  0  0  0  0  0
  131.4030  123.7610   64.6820 C   0  0  0  0  0  0  0  0  0  0  0  0
  132.6020  123.8330   64.4010 O   0  0  0  0  0  0  0  0  0  0  0  0
  130.5530  124.9510   64.9020 C   0  0  0  0  0  0  0  0  0  0  0  0
  129.9250  125.8520   63.5200 S   0  0  0  0  0  0  0  0  0  0  0  0
  129.1120  126.9820   64.5780 C   0  0  0  0  0  0  0  0  0  0  0  0
  128.3940  127.9990   64.1010 N   0  0  0  0  0  0  0  0  0  0  0  0
  127.8010  128.8180   65.0110 C   0  0  0  0  0  0  0  0  0  0  0  0
  127.0050  129.9540   64.4500 C   0  0  0  0  0  0  0  0  0  0  0  0
  125.6080  129.8800   64.3490 C   0  0  0  0  0  0  0  0  0  0  0  0
  124.8730  130.9390   63.8250 C   0  0  0  0  0  0  0  0  0  0  0  0
  125.5120  132.0990   63.3890 C   0  0  0  0  0  0  0  0  0  0  0  0
  124.7030  133.0980   62.8840 O   0  0  0  0  0  0  0  0  0  0  0  0
  123.3680  132.7840   62.5000 C   0  0  0  0  0  0  0  0  0  0  0  0
  126.9080  132.1840   63.4870 C   0  0  0  0  0  0  0  0  0  0  0  0
  127.6400  131.1220   64.0110 C   0  0  0  0  0  0  0  0  0  0  0  0
  127.9330  128.6230   66.3890 C   0  0  0  0  0  0  0  0  0  0  0  0
  128.6840  127.5540   66.8880 C   0  0  0  0  0  0  0  0  0  0  0  0
  128.7980  127.3690   68.3540 C   0  0  0  0  0  0  0  0  0  0  0  0
  127.6870  126.9710   69.1000 C   0  0  0  0  0  0  0  0  0  0  0  0
  127.7920  126.8060   70.4780 C   0  0  0  0  0  0  0  0  0  0  0  0
  129.0060  127.0290   71.1290 C   0  0  0  0  0  0  0  0  0  0  0  0
  129.0160  126.8410   72.4970 O   0  0  0  0  0  0  0  0  0  0  0  0
  130.2390  126.9880   73.2090 C   0  0  0  0  0  0  0  0  0  0  0  0
  130.1240  127.4250   70.3750 C   0  0  0  0  0  0  0  0  0  0  0  0
  130.0160  127.5910   68.9970 C   0  0  0  0  0  0  0  0  0  0  0  0
  129.3090  126.6850   65.9560 C   0  0  0  0  0  0  0  0  0  0  0  0
  130.1360  125.5200   66.1110 C   0  0  0  0  0  0  0  0  0  0  0  0
  130.4870  125.0200   67.3400 N   0  0  0  0  0  0  0  0  0  0  0  0
  1  2  1  0
  2  3  1  0
  3  4  2  0
  3  5  1  0
  5  6  1  0
  6  7  1  0
  7  8  2  0
  8  9  1  0
  9 10  1  0
 10 11  2  0
 11 12  1  0
 12 13  2  0
 13 14  1  0
 14 15  1  0
 13 16  1  0
 16 17  2  0
  9 18  2  0
 18 19  1  0
 19 20  1  0
 20 21  2  0
 21 22  1  0
 22 23  2  0
 23 24  1  0
 24 25  1  0
 23 26  1  0
 26 27  2  0
 19 28  2  0
 28 29  1  0
 29 30  1  0
 29  5  2  0
 28  7  1  0
 17 10  1  0
 27 20  1  0
M  END
>  <Binding energies>  (38) 
[-6.62]

>  <Ligand effiencies>  (38) 
[-0.206875]

>  <Interactions>  (38) 
["V-A:GLU:543:CD:4908, H-A:GLY:454:N:4050, H-A:TYR:484:OH:4348, V-B:GLY:454:CA:9020, V-B:LEU:475:CD2:9230, V-B:ILE:369:CG1:8209, V-A:TYR:484:CZ:4347, V-B:GLU:543:CB:9878, V-B:GLU:543:CG:9879, V-A:TYR:484:CE2:4346, V-B:GLU:543:CD:9880, V-B:ALA:541:CB:9864, V-B:GLY:544:C:9884, V-A:HIS:456:CD2:4068, V-A:HIS:456:CE1:4070, H-B:LYS:547:NZ:9923, V-B:HIS:456:CE1:9041, V-B:GLU:543:C:9874, H-B:GLU:543:O:9875, V-A:GLU:543:CB:4906, V-A:GLU:543:CG:4907, H-A:HIS:456:NE2:4071"]

$$$$
9a_Ghoteimi_2023
     RDKit          3D

 48 54  0  0  0  0  0  0  0  0999 V2000
  124.5600  128.4820   75.7270 C   0  0  0  0  0  0  0  0  0  0  0  0
  125.3790  129.6580   76.2690 C   0  0  0  0  0  0  0  0  0  0  0  0
  126.6690  129.6520   75.6700 O   0  0  0  0  0  0  0  0  0  0  0  0
  127.3630  128.4960   75.5110 C   0  0  0  0  0  0  0  0  0  0  0  0
  127.7780  127.8170   76.4560 O   0  0  0  0  0  0  0  0  0  0  0  0
  127.5840  128.1280   74.0720 C   0  0  0  0  0  0  0  0  0  0  0  0
  128.8790  128.1810   73.5420 C   0  0  0  0  0  0  0  0  0  0  0  0
  129.1160  127.8470   72.2120 C   0  0  0  0  0  0  0  0  0  0  0  0
  128.0650  127.4530   71.3840 C   0  0  0  0  0  0  0  0  0  0  0  0
  128.4210  127.1400   70.0580 N   0  0  0  0  0  0  0  0  0  0  0  0
  129.3740  127.6750   69.2540 C   0  0  0  0  0  0  0  0  0  0  0  0
  130.1310  128.5860   69.5900 O   0  0  0  0  0  0  0  0  0  0  0  0
  129.4650  127.0860   67.9150 C   0  0  0  0  0  0  0  0  0  0  0  0
  130.2610  125.5300   67.6790 S   0  0  0  0  0  0  0  0  0  0  0  0
  129.9350  125.5720   65.9620 C   0  0  0  0  0  0  0  0  0  0  0  0
  130.3030  124.5770   65.1560 N   0  0  0  0  0  0  0  0  0  0  0  0
  129.9910  124.7020   63.8390 C   0  0  0  0  0  0  0  0  0  0  0  0
  130.4030  123.5690   62.9550 C   0  0  0  0  0  0  0  0  0  0  0  0
  131.7580  123.3070   62.7220 C   0  0  0  0  0  0  0  0  0  0  0  0
  132.1510  122.2530   61.9010 C   0  0  0  0  0  0  0  0  0  0  0  0
  131.2040  121.4130   61.2940 C   0  0  0  0  0  0  0  0  0  0  0  0
  131.5830  120.3630   60.4520 N   0  0  0  0  0  0  0  0  0  0  0  0
  132.9500  120.2710   59.9010 C   0  0  0  0  0  0  0  0  0  0  0  0
  133.0830  119.2760   58.7280 C   0  0  0  0  0  0  0  0  0  0  0  0
  132.6040  118.0000   59.1170 O   0  0  0  0  0  0  0  0  0  0  0  0
  131.2370  118.0490   59.4930 C   0  0  0  0  0  0  0  0  0  0  0  0
  131.0550  119.0030   60.6910 C   0  0  0  0  0  0  0  0  0  0  0  0
  129.8470  121.6900   61.5200 C   0  0  0  0  0  0  0  0  0  0  0  0
  129.4550  122.7450   62.3380 C   0  0  0  0  0  0  0  0  0  0  0  0
  129.3400  125.8290   63.3300 C   0  0  0  0  0  0  0  0  0  0  0  0
  128.9700  126.8850   64.1700 C   0  0  0  0  0  0  0  0  0  0  0  0
  128.3130  128.0750   63.5720 C   0  0  0  0  0  0  0  0  0  0  0  0
  128.9200  128.7720   62.5250 C   0  0  0  0  0  0  0  0  0  0  0  0
  128.2960  129.8790   61.9570 C   0  0  0  0  0  0  0  0  0  0  0  0
  127.0380  130.3080   62.4090 C   0  0  0  0  0  0  0  0  0  0  0  0
  126.3980  131.4230   61.8620 N   0  0  0  0  0  0  0  0  0  0  0  0
  126.9290  132.7710   62.1480 C   0  0  0  0  0  0  0  0  0  0  0  0
  126.3820  133.8570   61.1990 C   0  0  0  0  0  0  0  0  0  0  0  0
  124.9630  133.8560   61.2250 O   0  0  0  0  0  0  0  0  0  0  0  0
  124.4320  132.6070   60.8120 C   0  0  0  0  0  0  0  0  0  0  0  0
  124.9270  131.4860   61.7510 C   0  0  0  0  0  0  0  0  0  0  0  0
  126.4370  129.5990   63.4590 C   0  0  0  0  0  0  0  0  0  0  0  0
  127.0620  128.4950   64.0300 C   0  0  0  0  0  0  0  0  0  0  0  0
  129.2540  126.7580   65.5600 C   0  0  0  0  0  0  0  0  0  0  0  0
  128.9780  127.5950   66.7010 C   0  0  0  0  0  0  0  0  0  0  0  0
  128.2850  128.7750   66.6010 N   0  0  0  0  0  0  0  0  0  0  0  0
  126.7630  127.3940   71.9060 C   0  0  0  0  0  0  0  0  0  0  0  0
  126.5280  127.7280   73.2380 C   0  0  0  0  0  0  0  0  0  0  0  0
  1  2  1  0
  2  3  1  0
  3  4  1  0
  4  5  2  0
  4  6  1  0
  6  7  2  0
  7  8  1  0
  8  9  2  0
  9 10  1  0
 10 11  1  0
 11 12  2  0
 11 13  1  0
 13 14  1  0
 14 15  1  0
 15 16  2  0
 16 17  1  0
 17 18  1  0
 18 19  2  0
 19 20  1  0
 20 21  2  0
 21 22  1  0
 22 23  1  0
 23 24  1  0
 24 25  1  0
 25 26  1  0
 26 27  1  0
 21 28  1  0
 28 29  2  0
 17 30  2  0
 30 31  1  0
 31 32  1  0
 32 33  2  0
 33 34  1  0
 34 35  2  0
 35 36  1  0
 36 37  1  0
 37 38  1  0
 38 39  1  0
 39 40  1  0
 40 41  1  0
 35 42  1  0
 42 43  2  0
 31 44  2  0
 44 45  1  0
 45 46  1  0
  9 47  1  0
 47 48  2  0
 48  6  1  0
 45 13  2  0
 44 15  1  0
 29 18  1  0
 43 32  1  0
 27 22  1  0
 41 36  1  0
M  END
>  <Binding energies>  (39) 
[-8.32]

>  <Ligand effiencies>  (39) 
[-0.1631372549019608]

>  <Interactions>  (39) 
["V-B:TYR:539:CD2:9846, V-A:GLU:543:CD:4908, H-A:TYR:484:OH:4348, V-B:TYR:539:CE2:9848, V-A:LEU:475:CD2:4259, V-A:TYR:539:CD1:4873, V-B:ILE:369:CG2:8208, V-B:LEU:475:CD2:9230, V-A:TYR:539:CE1:4875, V-A:ILE:369:CG2:3237, H-A:GLU:543:OE2:4910, V-B:GLU:543:CB:9878, V-B:GLU:543:CG:9879, V-B:GLU:543:CD:9880, V-B:ALA:541:CB:9864, V-B:HIS:456:CD2:9039, V-B:HIS:456:CB:9036, V-B:GLY:544:C:9884, V-B:HIS:456:CG:9037, V-B:LYS:471:CD:9190, V-B:GLY:544:CA:9886, V-A:HIS:456:CE1:4070, H-B:LYS:547:NZ:9923, V-B:LYS:547:CE:9922, V-B:HIS:456:CE1:9041, H-A:GLU:543:OE1:4909, H-B:GLU:543:O:9875, V-A:GLU:543:CB:4906, H-B:TYR:484:OH:9319, V-A:GLU:543:CG:4907, V-B:TYR:539:CG:9844, H-A:HIS:383:HE2:3395, V-A:HIS:383:CE1:3393, H-A:SER:385:OG:3410, V-B:TYR:539:CB:9843, V-A:HIS:383:NE2:3394, V-A:HIS:383:CD2:3392, V-A:SER:385:CB:3409, V-B:VAL:458:CG2:9058, H-B:GLU:543:OE2:9882"]

$$$$
9b_Ghoteimi_2023
     RDKit          3D

 42 48  0  0  0  0  0  0  0  0999 V2000
  128.0930  127.7240   62.6310 N   0  0  0  0  0  0  0  0  0  0  0  0
  128.6720  126.9770   63.6260 C   0  0  0  0  0  0  0  0  0  0  0  0
  129.2970  125.7400   63.4000 C   0  0  0  0  0  0  0  0  0  0  0  0
  129.4820  125.0280   62.1330 C   0  0  0  0  0  0  0  0  0  0  0  0
  130.5950  124.9600   61.6070 O   0  0  0  0  0  0  0  0  0  0  0  0
  128.3620  124.4740   61.6070 N   0  0  0  0  0  0  0  0  0  0  0  0
  128.2470  123.7590   60.4220 C   0  0  0  0  0  0  0  0  0  0  0  0
  128.0020  124.3620   59.1890 C   0  0  0  0  0  0  0  0  0  0  0  0
  127.9630  123.3260   58.2850 C   0  0  0  0  0  0  0  0  0  0  0  0
  128.1740  122.1590   58.9400 O   0  0  0  0  0  0  0  0  0  0  0  0
  128.3520  122.4460   60.2930 N   0  0  0  0  0  0  0  0  0  0  0  0
  129.9000  125.0470   64.9050 S   0  0  0  0  0  0  0  0  0  0  0  0
  129.2980  126.4050   65.8250 C   0  0  0  0  0  0  0  0  0  0  0  0
  129.4300  126.4650   67.1490 N   0  0  0  0  0  0  0  0  0  0  0  0
  128.9110  127.5550   67.7720 C   0  0  0  0  0  0  0  0  0  0  0  0
  129.0550  127.5880   69.2590 C   0  0  0  0  0  0  0  0  0  0  0  0
  130.2000  128.1200   69.8640 C   0  0  0  0  0  0  0  0  0  0  0  0
  130.3350  128.1350   71.2490 C   0  0  0  0  0  0  0  0  0  0  0  0
  129.3370  127.6050   72.0800 C   0  0  0  0  0  0  0  0  0  0  0  0
  129.4570  127.6150   73.4740 N   0  0  0  0  0  0  0  0  0  0  0  0
  128.9640  128.7500   74.2800 C   0  0  0  0  0  0  0  0  0  0  0  0
  128.8620  128.4450   75.7890 C   0  0  0  0  0  0  0  0  0  0  0  0
  130.1100  127.9820   76.2760 O   0  0  0  0  0  0  0  0  0  0  0  0
  130.5140  126.7900   75.6220 C   0  0  0  0  0  0  0  0  0  0  0  0
  130.6630  127.0400   74.1060 C   0  0  0  0  0  0  0  0  0  0  0  0
  128.1830  127.0910   71.4690 C   0  0  0  0  0  0  0  0  0  0  0  0
  128.0460  127.0810   70.0840 C   0  0  0  0  0  0  0  0  0  0  0  0
  128.2880  128.5900   67.0700 C   0  0  0  0  0  0  0  0  0  0  0  0
  128.1640  128.5400   65.6760 C   0  0  0  0  0  0  0  0  0  0  0  0
  127.5200  129.6790   64.9740 C   0  0  0  0  0  0  0  0  0  0  0  0
  128.2750  130.7890   64.5920 C   0  0  0  0  0  0  0  0  0  0  0  0
  127.6780  131.8490   63.9170 C   0  0  0  0  0  0  0  0  0  0  0  0
  126.3090  131.8300   63.6060 C   0  0  0  0  0  0  0  0  0  0  0  0
  125.6930  132.8760   62.9160 N   0  0  0  0  0  0  0  0  0  0  0  0
  126.3900  133.4960   61.7720 C   0  0  0  0  0  0  0  0  0  0  0  0
  125.7990  134.8640   61.3690 C   0  0  0  0  0  0  0  0  0  0  0  0
  124.4120  134.7320   61.0990 O   0  0  0  0  0  0  0  0  0  0  0  0
  123.6980  134.2620   62.2330 C   0  0  0  0  0  0  0  0  0  0  0  0
  124.2390  132.8810   62.6620 C   0  0  0  0  0  0  0  0  0  0  0  0
  125.5650  130.7010   63.9790 C   0  0  0  0  0  0  0  0  0  0  0  0
  126.1620  129.6400   64.6550 C   0  0  0  0  0  0  0  0  0  0  0  0
  128.6700  127.3910   65.0070 C   0  0  0  0  0  0  0  0  0  0  0  0
  1  2  1  0
  2  3  2  0
  3  4  1  0
  4  5  2  0
  4  6  1  0
  6  7  1  0
  7  8  1  0
  8  9  2  0
  9 10  1  0
 10 11  1  0
  3 12  1  0
 12 13  1  0
 13 14  2  0
 14 15  1  0
 15 16  1  0
 16 17  2  0
 17 18  1  0
 18 19  2  0
 19 20  1  0
 20 21  1  0
 21 22  1  0
 22 23  1  0
 23 24  1  0
 24 25  1  0
 19 26  1  0
 26 27  2  0
 15 28  2  0
 28 29  1  0
 29 30  1  0
 30 31  2  0
 31 32  1  0
 32 33  2  0
 33 34  1  0
 34 35  1  0
 35 36  1  0
 36 37  1  0
 37 38  1  0
 38 39  1  0
 33 40  1  0
 40 41  2  0
 29 42  2  0
 42  2  1  0
 11  7  2  0
 42 13  1  0
 27 16  1  0
 41 30  1  0
 25 20  1  0
 39 34  1  0
M  END
>  <Binding energies>  (40) 
[-9.23]

>  <Ligand effiencies>  (40) 
[-0.20511111111111113]

>  <Interactions>  (40) 
["V-B:TYR:539:CD2:9846, V-A:GLU:543:CD:4908, V-B:TYR:539:CE2:9848, V-B:TYR:539:CZ:9849, V-A:TYR:539:CD1:4873, V-B:GLY:454:CA:9020, V-B:ILE:369:CG2:8208, V-B:LEU:475:CD2:9230, V-A:TYR:539:CE1:4875, V-B:GLU:543:CB:9878, V-B:GLU:543:CG:9879, V-B:GLU:543:CD:9880, H-B:GLU:543:OE1:9881, V-A:GLY:544:C:4912, V-A:HIS:456:CD2:4068, V-A:HIS:456:CE1:4070, V-B:HIS:456:CE1:9041, V-B:GLU:543:C:9874, H-A:LYS:547:NZ:4951, H-A:GLU:543:OE1:4909, V-A:GLU:543:CB:4906, V-A:GLU:543:C:4902, V-A:GLU:543:CG:4907, H-B:GLU:543:OE2:9882"]

$$$$
9c_Ghoteimi_2023
     RDKit          3D

 42 48  0  0  0  0  0  0  0  0999 V2000
  128.0350  127.7880   62.5640 N   0  0  0  0  0  0  0  0  0  0  0  0
  128.6200  127.0230   63.5410 C   0  0  0  0  0  0  0  0  0  0  0  0
  129.2400  125.7900   63.2910 C   0  0  0  0  0  0  0  0  0  0  0  0
  129.4090  125.0960   62.0100 C   0  0  0  0  0  0  0  0  0  0  0  0
  130.5330  124.8960   61.5450 O   0  0  0  0  0  0  0  0  0  0  0  0
  128.2610  124.7120   61.4010 N   0  0  0  0  0  0  0  0  0  0  0  0
  128.1400  124.0570   60.1830 C   0  0  0  0  0  0  0  0  0  0  0  0
  127.9000  122.7810   59.9720 N   0  0  0  0  0  0  0  0  0  0  0  0
  127.8570  122.5030   58.6830 C   0  0  0  0  0  0  0  0  0  0  0  0
  128.0670  123.5710   57.8150 C   0  0  0  0  0  0  0  0  0  0  0  0
  128.3340  125.0130   58.7480 S   0  0  0  0  0  0  0  0  0  0  0  0
  129.8570  125.0710   64.7780 S   0  0  0  0  0  0  0  0  0  0  0  0
  129.2650  126.4150   65.7260 C   0  0  0  0  0  0  0  0  0  0  0  0
  129.4120  126.4550   67.0490 N   0  0  0  0  0  0  0  0  0  0  0  0
  128.9010  127.5360   67.6940 C   0  0  0  0  0  0  0  0  0  0  0  0
  129.0610  127.5440   69.1800 C   0  0  0  0  0  0  0  0  0  0  0  0
  130.2140  128.0600   69.7820 C   0  0  0  0  0  0  0  0  0  0  0  0
  130.3620  128.0570   71.1650 C   0  0  0  0  0  0  0  0  0  0  0  0
  129.3650  127.5250   71.9990 C   0  0  0  0  0  0  0  0  0  0  0  0
  129.4960  127.5210   73.3930 N   0  0  0  0  0  0  0  0  0  0  0  0
  128.9600  128.6220   74.2190 C   0  0  0  0  0  0  0  0  0  0  0  0
  128.8790  128.2910   75.7240 C   0  0  0  0  0  0  0  0  0  0  0  0
  130.1500  127.8750   76.1960 O   0  0  0  0  0  0  0  0  0  0  0  0
  130.6000  126.7110   75.5220 C   0  0  0  0  0  0  0  0  0  0  0  0
  130.7300  126.9900   74.0090 C   0  0  0  0  0  0  0  0  0  0  0  0
  128.2040  127.0260   71.3920 C   0  0  0  0  0  0  0  0  0  0  0  0
  128.0550  127.0340   70.0080 C   0  0  0  0  0  0  0  0  0  0  0  0
  128.2730  128.5820   67.0150 C   0  0  0  0  0  0  0  0  0  0  0  0
  128.1370  128.5550   65.6230 C   0  0  0  0  0  0  0  0  0  0  0  0
  127.4900  129.7060   64.9440 C   0  0  0  0  0  0  0  0  0  0  0  0
  128.2410  130.8290   64.5920 C   0  0  0  0  0  0  0  0  0  0  0  0
  127.6410  131.9030   63.9400 C   0  0  0  0  0  0  0  0  0  0  0  0
  126.2730  131.8840   63.6250 C   0  0  0  0  0  0  0  0  0  0  0  0
  125.6530  132.9460   62.9610 N   0  0  0  0  0  0  0  0  0  0  0  0
  126.3050  133.5330   61.7740 C   0  0  0  0  0  0  0  0  0  0  0  0
  125.7340  134.9130   61.3850 C   0  0  0  0  0  0  0  0  0  0  0  0
  124.3300  134.8210   61.1920 O   0  0  0  0  0  0  0  0  0  0  0  0
  123.6670  134.3870   62.3690 C   0  0  0  0  0  0  0  0  0  0  0  0
  124.1880  132.9950   62.7880 C   0  0  0  0  0  0  0  0  0  0  0  0
  125.5340  130.7420   63.9660 C   0  0  0  0  0  0  0  0  0  0  0  0
  126.1330  129.6670   64.6170 C   0  0  0  0  0  0  0  0  0  0  0  0
  128.6330  127.4150   64.9290 C   0  0  0  0  0  0  0  0  0  0  0  0
  1  2  1  0
  2  3  2  0
  3  4  1  0
  4  5  2  0
  4  6  1  0
  6  7  1  0
  7  8  2  0
  8  9  1  0
  9 10  2  0
 10 11  1  0
  3 12  1  0
 12 13  1  0
 13 14  2  0
 14 15  1  0
 15 16  1  0
 16 17  2  0
 17 18  1  0
 18 19  2  0
 19 20  1  0
 20 21  1  0
 21 22  1  0
 22 23  1  0
 23 24  1  0
 24 25  1  0
 19 26  1  0
 26 27  2  0
 15 28  2  0
 28 29  1  0
 29 30  1  0
 30 31  2  0
 31 32  1  0
 32 33  2  0
 33 34  1  0
 34 35  1  0
 35 36  1  0
 36 37  1  0
 37 38  1  0
 38 39  1  0
 33 40  1  0
 40 41  2  0
 29 42  2  0
 42  2  1  0
 11  7  1  0
 42 13  1  0
 27 16  1  0
 41 30  1  0
 25 20  1  0
 39 34  1  0
M  END
>  <Binding energies>  (41) 
[-9.09]

>  <Ligand effiencies>  (41) 
[-0.20199999999999999]

>  <Interactions>  (41) 
["V-B:PRO:540:N:9856, V-B:TYR:539:CD2:9846, V-A:GLU:543:CD:4908, V-B:TYR:539:CE2:9848, V-B:TYR:539:CZ:9849, V-B:PRO:540:CA:9855, V-A:TYR:539:CD1:4873, V-B:GLY:454:CA:9020, V-B:ILE:369:CG2:8208, V-B:LEU:475:CD2:9230, V-A:TYR:539:CE1:4875, V-B:GLU:543:CB:9878, V-B:GLU:543:CG:9879, V-B:GLU:543:CD:9880, H-B:GLU:543:OE1:9881, V-A:GLY:544:C:4912, V-A:HIS:456:CD2:4068, V-A:HIS:456:CE1:4070, V-B:HIS:456:CE1:9041, V-B:GLU:543:C:9874, H-A:LYS:547:NZ:4951, H-A:GLU:543:OE1:4909, V-A:GLU:543:CB:4906, V-A:GLU:543:C:4902, V-A:GLU:543:CG:4907, V-B:TYR:539:CG:9844, V-B:TYR:539:C:9839, V-B:SER:385:CB:8380, V-B:SER:385:CA:8378, V-B:SER:385:C:8376, H-B:GLU:543:OE2:9882"]

$$$$
RR11_Rahimova_2017
     RDKit          3D

 33 38  0  0  0  0  0  0  0  0999 V2000
  129.6350  133.3320   57.4680 N   0  0  0  0  0  0  0  0  0  0  0  0
  130.0420  132.0590   57.8630 C   0  0  0  0  0  0  0  0  0  0  0  0
  129.0970  131.0460   58.0190 C   0  0  0  0  0  0  0  0  0  0  0  0
  129.5040  129.7740   58.4100 C   0  0  0  0  0  0  0  0  0  0  0  0
  130.8580  129.5020   58.6480 C   0  0  0  0  0  0  0  0  0  0  0  0
  131.2960  128.1290   59.0640 C   0  0  0  0  0  0  0  0  0  0  0  0
  131.0000  127.5730   60.2190 N   0  0  0  0  0  0  0  0  0  0  0  0
  131.5790  126.3310   60.1810 C   0  0  0  0  0  0  0  0  0  0  0  0
  131.5680  125.3190   61.1500 C   0  0  0  0  0  0  0  0  0  0  0  0
  132.2260  124.1170   60.8650 C   0  0  0  0  0  0  0  0  0  0  0  0
  132.2360  123.0010   61.9010 C   0  0  0  0  0  0  0  0  0  0  0  0
  131.4810  123.3640   63.1710 C   0  0  0  0  0  0  0  0  0  0  0  0
  130.4300  122.5480   63.6040 C   0  0  0  0  0  0  0  0  0  0  0  0
  129.7130  122.8340   64.7680 C   0  0  0  0  0  0  0  0  0  0  0  0
  130.0770  123.9680   65.5060 C   0  0  0  0  0  0  0  0  0  0  0  0
  129.5340  124.4620   66.6630 N   0  0  0  0  0  0  0  0  0  0  0  0
  130.2310  125.5430   66.9410 C   0  0  0  0  0  0  0  0  0  0  0  0
  129.9820  126.4340   68.1240 C   0  0  0  0  0  0  0  0  0  0  0  0
  128.7220  126.4680   68.7340 C   0  0  0  0  0  0  0  0  0  0  0  0
  128.4870  127.3020   69.8250 C   0  0  0  0  0  0  0  0  0  0  0  0
  129.5130  128.1080   70.3130 C   0  0  0  0  0  0  0  0  0  0  0  0
  129.2780  128.9470   71.4010 N   0  0  0  0  0  0  0  0  0  0  0  0
  130.7720  128.0810   69.7190 C   0  0  0  0  0  0  0  0  0  0  0  0
  131.0060  127.2470   68.6290 C   0  0  0  0  0  0  0  0  0  0  0  0
  131.2210  125.7720   66.0080 N   0  0  0  0  0  0  0  0  0  0  0  0
  131.1510  124.7760   65.0630 C   0  0  0  0  0  0  0  0  0  0  0  0
  131.8760  124.4920   63.9030 C   0  0  0  0  0  0  0  0  0  0  0  0
  132.9010  123.9430   59.6500 C   0  0  0  0  0  0  0  0  0  0  0  0
  132.9340  124.9350   58.6670 C   0  0  0  0  0  0  0  0  0  0  0  0
  132.2600  126.1230   58.9580 C   0  0  0  0  0  0  0  0  0  0  0  0
  132.0580  127.2970   58.2700 N   0  0  0  0  0  0  0  0  0  0  0  0
  131.7970  130.5300   58.4880 C   0  0  0  0  0  0  0  0  0  0  0  0
  131.3920  131.8030   58.0970 C   0  0  0  0  0  0  0  0  0  0  0  0
  1  2  1  0
  2  3  2  0
  3  4  1  0
  4  5  2  0
  5  6  1  0
  6  7  2  0
  7  8  1  0
  8  9  2  0
  9 10  1  0
 10 11  1  0
 11 12  1  0
 12 13  2  0
 13 14  1  0
 14 15  2  0
 15 16  1  0
 16 17  2  0
 17 18  1  0
 18 19  2  0
 19 20  1  0
 20 21  2  0
 21 22  1  0
 21 23  1  0
 23 24  2  0
 17 25  1  0
 25 26  1  0
 26 27  2  0
 10 28  2  0
 28 29  1  0
 29 30  2  0
 30 31  1  0
  5 32  1  0
 32 33  2  0
 33  2  1  0
 31  6  1  0
 30  8  1  0
 27 12  1  0
 26 15  1  0
 24 18  1  0
M  END
>  <Binding energies>  (42) 
[-8.19]

>  <Ligand effiencies>  (42) 
[-0.21]

>  <Interactions>  (42) 
["V-A:GLU:543:CD:4908, H-A:TYR:484:OH:4348, V-B:TYR:539:CE2:9848, V-A:LEU:475:CD2:4259, V-A:TYR:539:CA:4869, V-A:ASP:366:CB:3212, V-A:PRO:540:CB:4885, V-A:TYR:539:CD1:4873, V-A:PRO:540:N:4884, V-A:PRO:540:CA:4883, V-A:TYR:531:CZ:4794, V-A:TYR:539:C:4867, V-A:ASP:366:CG:3213, V-A:ILE:369:CG2:3237, V-A:TYR:484:CZ:4347, H-A:GLU:543:OE2:4910, V-B:GLU:543:CB:9878, V-B:GLU:543:CG:9879, V-A:TYR:484:CE2:4346, V-B:ALA:541:CB:9864, V-A:ASP:366:CA:3210, V-B:HIS:456:CD2:9039, V-A:GLY:544:C:4912, V-A:HIS:456:CE1:4070, V-B:HIS:456:CE1:9041, V-B:GLU:543:C:9874, H-A:GLU:543:OE1:4909, V-A:GLU:543:CB:4906, V-A:GLU:543:C:4902, H-B:HIS:456:NE2:9042, V-B:GLU:543:CA:9876, V-A:ARG:545:CG:4922, V-A:GLU:543:CA:4904, H-A:GLU:543:O:4903, H-A:TYR:539:O:4868, H-A:TYR:531:OH:4795, V-A:TYR:539:CG:4872"]

$$$$
RR16_Rahimova_2017
     RDKit          3D

 44 49  0  0  0  0  0  0  0  0999 V2000
  132.0320  121.3730   60.8410 O   0  0  0  0  0  0  0  0  0  0  0  0
  130.6190  121.3640   61.2360 S   0  0  0  0  0  0  0  0  0  0  0  0
  129.8950  120.0990   61.4110 O   0  0  0  0  0  0  0  0  0  0  0  0
  129.7330  122.3450   60.0680 N   0  0  0  0  0  0  0  0  0  0  0  0
  128.2760  122.1650   59.8720 C   0  0  0  0  0  0  0  0  0  0  0  0
  127.5120  123.0130   60.9230 C   0  0  0  0  0  0  0  0  0  0  0  0
  127.9390  124.4840   61.0900 C   0  0  0  0  0  0  0  0  0  0  0  0
  128.8880  124.9880   59.9890 C   0  0  0  0  0  0  0  0  0  0  0  0
  128.2840  125.0620   58.5780 C   0  0  0  0  0  0  0  0  0  0  0  0
  127.3910  123.8860   58.1340 C   0  0  0  0  0  0  0  0  0  0  0  0
  127.9380  122.4690   58.3940 C   0  0  0  0  0  0  0  0  0  0  0  0
  130.5030  122.2810   62.7680 C   0  0  0  0  0  0  0  0  0  0  0  0
  129.2670  122.4530   63.3950 C   0  0  0  0  0  0  0  0  0  0  0  0
  129.1710  123.2700   64.5170 C   0  0  0  0  0  0  0  0  0  0  0  0
  130.3110  123.9110   65.0080 C   0  0  0  0  0  0  0  0  0  0  0  0
  130.1670  125.0720   66.3640 S   0  0  0  0  0  0  0  0  0  0  0  0
  131.5070  125.6130   66.6240 O   0  0  0  0  0  0  0  0  0  0  0  0
  129.4160  124.4060   67.4360 O   0  0  0  0  0  0  0  0  0  0  0  0
  129.1570  126.3780   65.7120 N   0  0  0  0  0  0  0  0  0  0  0  0
  128.9930  127.5410   66.6210 C   0  0  0  0  0  0  0  0  0  0  0  0
  127.8680  128.4670   66.1150 C   0  0  0  0  0  0  0  0  0  0  0  0
  128.0850  128.8800   64.6380 C   0  0  0  0  0  0  0  0  0  0  0  0
  126.9550  129.7620   64.1010 C   0  0  0  0  0  0  0  0  0  0  0  0
  125.6220  129.3480   64.2420 C   0  0  0  0  0  0  0  0  0  0  0  0
  124.5610  130.1240   63.7750 C   0  0  0  0  0  0  0  0  0  0  0  0
  123.2640  129.7040   63.9240 O   0  0  0  0  0  0  0  0  0  0  0  0
  124.8570  131.3470   63.1540 C   0  0  0  0  0  0  0  0  0  0  0  0
  124.0410  132.3050   62.6270 N   0  0  0  0  0  0  0  0  0  0  0  0
  124.8440  133.3260   62.1670 N   0  0  0  0  0  0  0  0  0  0  0  0
  126.1300  132.9800   62.3690 N   0  0  0  0  0  0  0  0  0  0  0  0
  127.2000  133.9180   62.0530 C   0  0  0  0  0  0  0  0  0  0  0  0
  128.3060  133.2870   61.2180 C   0  0  0  0  0  0  0  0  0  0  0  0
  128.2140  133.2820   59.8220 C   0  0  0  0  0  0  0  0  0  0  0  0
  129.2370  132.7250   59.0530 C   0  0  0  0  0  0  0  0  0  0  0  0
  130.3570  132.1710   59.6760 C   0  0  0  0  0  0  0  0  0  0  0  0
  130.4550  132.1760   61.0680 C   0  0  0  0  0  0  0  0  0  0  0  0
  131.8420  131.5020   61.8410 Cl  0  0  0  0  0  0  0  0  0  0  0  0
  129.4290  132.7290   61.8370 C   0  0  0  0  0  0  0  0  0  0  0  0
  126.2040  131.7540   63.0090 C   0  0  0  0  0  0  0  0  0  0  0  0
  127.2700  130.9750   63.4730 C   0  0  0  0  0  0  0  0  0  0  0  0
  128.3820  127.6620   63.7240 C   0  0  0  0  0  0  0  0  0  0  0  0
  129.4820  126.7560   64.3120 C   0  0  0  0  0  0  0  0  0  0  0  0
  131.5540  123.7040   64.4050 C   0  0  0  0  0  0  0  0  0  0  0  0
  131.6490  122.8910   63.2810 C   0  0  0  0  0  0  0  0  0  0  0  0
  1  2  2  0
  2  3  2  0
  2  4  1  0
  4  5  1  0
  5  6  1  0
  6  7  1  0
  7  8  1  0
  8  9  1  0
  9 10  1  0
 10 11  1  0
  2 12  1  0
 12 13  2  0
 13 14  1  0
 14 15  2  0
 15 16  1  0
 16 17  2  0
 16 18  2  0
 16 19  1  0
 19 20  1  0
 20 21  1  0
 21 22  1  0
 22 23  1  0
 23 24  2  0
 24 25  1  0
 25 26  1  0
 25 27  2  0
 27 28  1  0
 28 29  2  0
 29 30  1  0
 30 31  1  0
 31 32  1  0
 32 33  2  0
 33 34  1  0
 34 35  2  0
 35 36  1  0
 36 37  1  0
 36 38  2  0
 30 39  1  0
 39 40  2  0
 22 41  1  0
 41 42  1  0
 15 43  1  0
 43 44  2  0
 11  5  1  0
 44 12  1  0
 42 19  1  0
 40 23  1  0
 39 27  1  0
 38 32  1  0
M  END
>  <Binding energies>  (43) 
[-8.61]

>  <Ligand effiencies>  (43) 
[-0.17937499999999998]

>  <Interactions>  (43) 
["V-B:PRO:540:N:9856, V-B:TYR:539:CD2:9846, V-A:GLU:543:CD:4908, H-A:TYR:484:OH:4348, V-B:TYR:539:CE2:9848, V-B:TYR:539:CZ:9849, V-A:LEU:475:CD2:4259, V-B:PRO:540:CA:9855, H-B:ASP:366:OD2:8186, V-A:PRO:540:C:4881, V-A:PRO:540:CB:4885, V-A:TYR:539:CD1:4873, V-A:PRO:540:N:4884, V-A:PRO:540:CA:4883, V-A:TYR:539:C:4867, V-B:LEU:475:CD2:9230, H-B:ARG:545:NH1:9899, V-A:TYR:539:CE1:4875, H-B:GLY:454:N:9021, H-B:ARG:545:NH2:9900, V-A:TYR:484:CZ:4347, V-B:GLU:543:CB:9878, V-B:GLU:543:CG:9879, V-A:TYR:484:CE2:4346, V-B:GLU:543:CD:9880, V-B:ALA:541:CB:9864, V-A:GLU:543:CB:4906, V-B:ARG:545:CZ:9898, V-A:ALA:541:CB:4892, V-A:GLU:543:CG:4907, H-B:ARG:545:NE:9896, V-B:PRO:540:C:9853, V-B:TYR:539:CG:9844, V-B:TYR:539:C:9839"]

$$$$
RR18_Rahimova_2017
     RDKit          3D

 36 41  0  0  0  0  0  0  0  0999 V2000
  133.6010  131.5820   61.4080 C   0  0  0  0  0  0  0  0  0  0  0  0
  132.1460  131.4320   61.7760 C   0  0  0  0  0  0  0  0  0  0  0  0
  131.3590  131.9000   62.8160 C   0  0  0  0  0  0  0  0  0  0  0  0
  130.0710  131.4120   62.5980 C   0  0  0  0  0  0  0  0  0  0  0  0
  130.1170  130.6630   61.4330 C   0  0  0  0  0  0  0  0  0  0  0  0
  129.0780  129.8750   60.6400 C   0  0  1  0  0  0  0  0  0  0  0  0
  129.4250  128.3570   60.5940 C   0  0  0  0  0  0  0  0  0  0  0  0
  130.6270  127.8940   59.9090 C   0  0  0  0  0  0  0  0  0  0  0  0
  131.2470  128.6150   59.1250 O   0  0  0  0  0  0  0  0  0  0  0  0
  130.9940  126.6300   60.2250 N   0  0  0  0  0  0  0  0  0  0  0  0
  132.0710  125.8480   59.7560 C   0  0  0  0  0  0  0  0  0  0  0  0
  132.4120  125.7340   58.3960 C   0  0  0  0  0  0  0  0  0  0  0  0
  133.4850  124.9380   57.9970 C   0  0  0  0  0  0  0  0  0  0  0  0
  134.2270  124.2410   58.9460 C   0  0  0  0  0  0  0  0  0  0  0  0
  133.8940  124.3350   60.2950 C   0  0  0  0  0  0  0  0  0  0  0  0
  132.8210  125.1300   60.7100 C   0  0  0  0  0  0  0  0  0  0  0  0
  132.4950  125.1960   62.1990 C   0  0  0  0  0  0  0  0  0  0  0  0
  128.6410  127.4930   61.2920 C   0  0  0  0  0  0  0  0  0  0  0  0
  127.4940  127.8360   61.9410 N   0  0  0  0  0  0  0  0  0  0  0  0
  127.0480  129.0330   61.8440 C   0  0  0  0  0  0  0  0  0  0  0  0
  125.5190  129.5790   62.4920 S   0  0  0  0  0  0  0  0  0  0  0  0
  125.7790  131.2330   61.8540 C   0  0  0  0  0  0  0  0  0  0  0  0
  124.9320  132.3140   61.9730 C   0  0  0  0  0  0  0  0  0  0  0  0
  123.6180  132.1600   62.6150 C   0  0  0  0  0  0  0  0  0  0  0  0
  123.0990  131.1700   63.1290 O   0  0  0  0  0  0  0  0  0  0  0  0
  122.9980  133.3420   62.5420 N   0  0  0  0  0  0  0  0  0  0  0  0
  123.7580  134.3050   61.9500 C   0  0  0  0  0  0  0  0  0  0  0  0
  123.4250  135.6410   61.7290 C   0  0  0  0  0  0  0  0  0  0  0  0
  124.3630  136.4770   61.1300 C   0  0  0  0  0  0  0  0  0  0  0  0
  125.6120  135.9700   60.7740 C   0  0  0  0  0  0  0  0  0  0  0  0
  125.9210  134.6270   61.0060 C   0  0  0  0  0  0  0  0  0  0  0  0
  124.9780  133.7600   61.5880 C   0  0  0  0  0  0  0  0  0  0  0  0
  127.0630  131.2500   61.1530 C   0  0  0  0  0  0  0  0  0  0  0  0
  127.5490  132.1980   60.5430 O   0  0  0  0  0  0  0  0  0  0  0  0
  127.6990  130.0490   61.2200 N   0  0  0  0  0  0  0  0  0  0  0  0
  131.3840  130.6800   60.9390 O   0  0  0  0  0  0  0  0  0  0  0  0
  1  2  1  0
  2  3  2  0
  3  4  1  0
  4  5  2  0
  6  5  1  1
  6  7  1  0
  7  8  1  0
  8  9  2  0
  8 10  1  0
 10 11  1  0
 11 12  2  0
 12 13  1  0
 13 14  2  0
 14 15  1  0
 15 16  2  0
 16 17  1  0
  7 18  2  0
 18 19  1  0
 19 20  2  0
 20 21  1  0
 21 22  1  0
 22 23  2  0
 23 24  1  0
 24 25  2  0
 24 26  1  0
 26 27  1  0
 27 28  2  0
 28 29  1  0
 29 30  2  0
 30 31  1  0
 31 32  2  0
 22 33  1  0
 33 34  2  0
 33 35  1  0
  5 36  1  0
 36  2  1  0
 35  6  1  0
 16 11  1  0
 35 20  1  0
 32 23  1  0
 32 27  1  0
M  END
>  <Binding energies>  (44) 
[-7.89]

>  <Ligand effiencies>  (44) 
[-0.20763157894736842]

>  <Interactions>  (44) 
["V-A:GLU:543:CD:4908, V-B:TYR:539:CE2:9848, V-B:TYR:539:CZ:9849, V-A:ASN:362:CB:3176, V-A:ASP:366:CB:3212, V-A:PRO:540:CB:4885, V-A:TYR:539:CD1:4873, V-B:GLY:454:CA:9020, V-A:PRO:540:CA:4883, V-B:ILE:369:CG2:8208, V-B:LEU:475:CD2:9230, V-A:TYR:539:CE1:4875, H-B:GLY:454:N:9021, V-B:ILE:369:CG1:8209, V-A:ILE:369:CD1:3239, V-A:ASP:366:CG:3213, V-A:ILE:369:CG2:3237, V-A:ILE:369:CB:3236, V-A:ASP:366:CA:3210, V-A:ALA:541:CB:4892, V-A:GLU:543:CG:4907, V-B:SER:385:CB:8380, V-B:SER:385:CA:8378, V-B:SER:385:C:8376, V-A:ASP:366:C:3208, V-A:ALA:541:CA:4890, V-A:ALA:541:C:4888, V-A:LEU:363:CA:3185, V-A:ASN:362:C:3172, V-A:TYR:539:CG:4872, H-B:SER:385:O:8377"]

$$$$
RR20_Rahimova_2017
     RDKit          3D

 38 43  0  0  0  0  0  0  0  0999 V2000
  133.3880  124.0970   76.0240 C   0  0  0  0  0  0  0  0  0  0  0  0
  132.4970  125.0710   75.2750 C   0  0  0  0  0  0  0  0  0  0  0  0
  133.0680  126.0990   74.5240 C   0  0  0  0  0  0  0  0  0  0  0  0
  132.2530  126.9880   73.8290 C   0  0  0  0  0  0  0  0  0  0  0  0
  130.8600  126.8650   73.8890 C   0  0  0  0  0  0  0  0  0  0  0  0
  129.9920  127.8280   73.1100 C   0  0  0  0  0  0  0  0  0  0  0  0
  130.1050  129.0300   73.3620 O   0  0  0  0  0  0  0  0  0  0  0  0
  129.1390  127.3430   72.1610 N   0  0  0  0  0  0  0  0  0  0  0  0
  127.7370  127.0220   72.4750 C   0  0  0  0  0  0  0  0  0  0  0  0
  127.0740  126.6640   71.1560 C   0  0  0  0  0  0  0  0  0  0  0  0
  128.0520  127.1730   70.1410 C   0  0  0  0  0  0  0  0  0  0  0  0
  127.9410  127.2030   68.7510 C   0  0  0  0  0  0  0  0  0  0  0  0
  129.0350  127.5690   67.9560 C   0  0  0  0  0  0  0  0  0  0  0  0
  128.9130  127.6090   66.4580 C   0  0  0  0  0  0  0  0  0  0  0  0
  128.3120  128.6500   65.9040 N   0  0  0  0  0  0  0  0  0  0  0  0
  128.2800  128.5900   64.5970 C   0  0  0  0  0  0  0  0  0  0  0  0
  127.7360  129.5090   63.7120 N   0  0  0  0  0  0  0  0  0  0  0  0
  127.7410  130.8590   63.8340 C   0  0  0  0  0  0  0  0  0  0  0  0
  128.2670  131.4640   64.7700 O   0  0  0  0  0  0  0  0  0  0  0  0
  127.0670  131.6910   62.7180 C   0  0  0  0  0  0  0  0  0  0  0  0
  127.8870  131.7850   61.4950 N   0  0  0  0  0  0  0  0  0  0  0  0
  127.7330  133.0790   60.8130 C   0  0  0  0  0  0  0  0  0  0  0  0
  128.3920  133.0270   59.4160 C   0  0  0  0  0  0  0  0  0  0  0  0
  129.7830  132.3920   59.4360 C   0  0  0  0  0  0  0  0  0  0  0  0
  130.6390  132.4970   58.3340 C   0  0  0  0  0  0  0  0  0  0  0  0
  131.8910  131.8860   58.3360 C   0  0  0  0  0  0  0  0  0  0  0  0
  132.3040  131.1610   59.4500 C   0  0  0  0  0  0  0  0  0  0  0  0
  131.4660  131.0570   60.5580 C   0  0  0  0  0  0  0  0  0  0  0  0
  130.2050  131.6640   60.5670 C   0  0  0  0  0  0  0  0  0  0  0  0
  129.3100  131.5980   61.8050 C   0  0  0  0  0  0  0  0  0  0  0  0
  129.0110  127.1820   63.9320 S   0  0  0  0  0  0  0  0  0  0  0  0
  129.3760  126.6330   65.5500 C   0  0  0  0  0  0  0  0  0  0  0  0
  130.0540  125.2980   65.7720 C   0  0  0  0  0  0  0  0  0  0  0  0
  130.2560  127.8500   68.5860 C   0  0  0  0  0  0  0  0  0  0  0  0
  130.3750  127.8030   69.9750 C   0  0  0  0  0  0  0  0  0  0  0  0
  129.2520  127.5190   70.7630 C   0  0  0  0  0  0  0  0  0  0  0  0
  130.2940  125.8130   74.6210 C   0  0  0  0  0  0  0  0  0  0  0  0
  131.1090  124.9220   75.3160 C   0  0  0  0  0  0  0  0  0  0  0  0
  1  2  1  0
  2  3  2  0
  3  4  1  0
  4  5  2  0
  5  6  1  0
  6  7  2  0
  6  8  1  0
  8  9  1  0
  9 10  1  0
 10 11  1  0
 11 12  2  0
 12 13  1  0
 13 14  1  0
 14 15  1  0
 15 16  2  0
 16 17  1  0
 17 18  1  0
 18 19  2  0
 18 20  1  0
 20 21  1  0
 21 22  1  0
 22 23  1  0
 23 24  1  0
 24 25  2  0
 25 26  1  0
 26 27  2  0
 27 28  1  0
 28 29  2  0
 29 30  1  0
 16 31  1  0
 31 32  1  0
 32 33  1  0
 13 34  2  0
 34 35  1  0
 35 36  2  0
  5 37  1  0
 37 38  2  0
 38  2  1  0
 36  8  1  0
 36 11  1  0
 32 14  2  0
 30 21  1  0
 29 24  1  0
M  END
>  <Binding energies>  (45) 
[-10.07]

>  <Ligand effiencies>  (45) 
[-0.2582051282051282]

>  <Interactions>  (45) 
["V-A:GLU:543:CD:4908, V-A:PRO:540:CB:4885, V-A:TYR:539:CD1:4873, V-A:PRO:540:N:4884, V-A:PRO:540:CA:4883, V-A:TYR:539:C:4867, V-A:TYR:539:CE1:4875, V-B:GLU:543:CB:9878, V-B:GLU:543:CG:9879, V-B:GLU:543:CD:9880, V-B:HIS:456:CD2:9039, V-A:GLY:544:C:4912, V-B:GLY:544:C:9884, V-B:GLY:544:CA:9886, V-A:HIS:456:CD2:4068, V-A:HIS:456:CB:4065, V-A:HIS:456:CG:4066, V-A:HIS:456:CE1:4070, V-B:LYS:547:CE:9922, V-B:HIS:456:CE1:9041, V-B:GLU:543:C:9874, H-A:LYS:547:NZ:4951, V-A:GLU:543:CB:4906, V-A:GLU:543:C:4902, H-B:TYR:484:OH:9319, V-A:GLU:543:CG:4907, V-A:LEU:363:CD1:3189"]

$$$$
RR21_Rahimova_2017
     RDKit          3D

 40 45  0  0  0  0  0  0  0  0999 V2000
  124.2250  130.4390   62.2340 C   0  0  0  0  0  0  0  0  0  0  0  0
  125.5890  130.8220   62.3810 O   0  0  0  0  0  0  0  0  0  0  0  0
  126.5010  129.9010   62.8610 C   0  0  0  0  0  0  0  0  0  0  0  0
  127.1360  129.9950   64.1110 C   0  0  0  0  0  0  0  0  0  0  0  0
  128.0430  129.0200   64.5220 C   0  0  0  0  0  0  0  0  0  0  0  0
  128.3370  127.9250   63.7000 C   0  0  0  0  0  0  0  0  0  0  0  0
  129.3080  126.8760   64.1470 C   0  0  0  0  0  0  0  0  0  0  0  0
  130.2170  126.4240   63.3050 N   0  0  0  0  0  0  0  0  0  0  0  0
  130.9360  125.5080   63.9710 N   0  0  0  0  0  0  0  0  0  0  0  0
  132.0230  124.8310   63.3580 C   0  0  0  0  0  0  0  0  0  0  0  0
  132.7150  125.4090   62.2830 C   0  0  0  0  0  0  0  0  0  0  0  0
  133.7820  124.7370   61.6940 C   0  0  0  0  0  0  0  0  0  0  0  0
  134.1610  123.4860   62.1760 C   0  0  0  0  0  0  0  0  0  0  0  0
  133.4810  122.9000   63.2400 C   0  0  0  0  0  0  0  0  0  0  0  0
  132.4130  123.5700   63.8310 C   0  0  0  0  0  0  0  0  0  0  0  0
  130.4810  125.3940   65.2600 C   0  0  0  0  0  0  0  0  0  0  0  0
  129.4090  126.2590   65.4140 C   0  0  0  0  0  0  0  0  0  0  0  0
  128.6310  126.5220   66.6160 C   0  0  0  0  0  0  0  0  0  0  0  0
  129.0820  126.8340   67.8530 C   0  0  0  0  0  0  0  0  0  0  0  0
  130.7670  127.0080   68.3900 S   0  0  0  0  0  0  0  0  0  0  0  0
  130.1970  127.4160   70.0020 C   0  0  0  0  0  0  0  0  0  0  0  0
  130.9080  127.7210   71.0430 N   0  0  0  0  0  0  0  0  0  0  0  0
  130.3170  128.0460   72.2950 C   0  0  0  0  0  0  0  0  0  0  0  0
  130.9170  128.3650   73.3210 O   0  0  0  0  0  0  0  0  0  0  0  0
  128.8140  127.9820   72.2930 C   0  0  0  0  0  0  0  0  0  0  0  0
  128.0650  128.2930   73.5950 C   0  0  0  0  0  0  0  0  0  0  0  0
  128.1740  129.7460   74.0520 C   0  0  0  0  0  0  0  0  0  0  0  0
  127.4180  130.1970   75.1370 C   0  0  0  0  0  0  0  0  0  0  0  0
  127.5300  131.5180   75.5640 C   0  0  0  0  0  0  0  0  0  0  0  0
  128.4010  132.3900   74.9090 C   0  0  0  0  0  0  0  0  0  0  0  0
  128.5290  133.8260   75.3850 C   0  0  0  0  0  0  0  0  0  0  0  0
  129.1670  131.9380   73.8310 C   0  0  0  0  0  0  0  0  0  0  0  0
  129.0540  130.6190   73.4040 C   0  0  0  0  0  0  0  0  0  0  0  0
  128.1190  127.6700   71.2480 N   0  0  0  0  0  0  0  0  0  0  0  0
  128.8300  127.3840   70.0750 N   0  0  0  0  0  0  0  0  0  0  0  0
  128.1490  127.0690   68.9460 C   0  0  0  0  0  0  0  0  0  0  0  0
  126.9170  127.0010   68.8620 O   0  0  0  0  0  0  0  0  0  0  0  0
  127.7100  127.8340   62.4530 C   0  0  0  0  0  0  0  0  0  0  0  0
  126.8020  128.8090   62.0390 C   0  0  0  0  0  0  0  0  0  0  0  0
  126.2120  128.6910   60.8270 F   0  0  0  0  0  0  0  0  0  0  0  0
  1  2  1  0
  2  3  1  0
  3  4  2  0
  4  5  1  0
  5  6  2  0
  6  7  1  0
  7  8  2  0
  8  9  1  0
  9 10  1  0
 10 11  2  0
 11 12  1  0
 12 13  2  0
 13 14  1  0
 14 15  2  0
  9 16  1  0
 16 17  2  0
 17 18  1  0
 18 19  2  0
 19 20  1  0
 20 21  1  0
 21 22  2  0
 22 23  1  0
 23 24  2  0
 23 25  1  0
 25 26  1  0
 26 27  1  0
 27 28  2  0
 28 29  1  0
 29 30  2  0
 30 31  1  0
 30 32  1  0
 32 33  2  0
 25 34  2  0
 34 35  1  0
 35 36  1  0
 36 37  2  0
  6 38  1  0
 38 39  2  0
 39 40  1  0
 39  3  1  0
 17  7  1  0
 36 19  1  0
 15 10  1  0
 35 21  1  0
 33 27  1  0
M  END
>  <Binding energies>  (46) 
[-8.22]

>  <Ligand effiencies>  (46) 
[-0.20550000000000002]

>  <Interactions>  (46) 
["V-A:GLU:543:CD:4908, V-B:ASP:366:CG:8184, V-A:ARG:545:CZ:4926, V-A:LEU:475:CD2:4259, V-A:ILE:369:CD1:3239, V-A:GLY:454:CA:4049, V-A:ASP:366:CG:3213, V-B:GLU:543:CB:9878, V-B:GLU:543:CG:9879, V-B:GLU:543:CD:9880, V-B:HIS:456:CD2:9039, V-A:GLY:544:C:4912, V-B:HIS:456:CG:9037, V-B:ASP:473:CG:9211, V-A:LYS:547:CE:4950, V-A:HIS:456:CE1:4070, V-B:HIS:456:CE1:9041, V-B:GLU:543:C:9874, H-A:LYS:547:NZ:4951, V-A:GLU:543:CB:4906, V-A:GLU:543:CG:4907"]

$$$$
RR23_Rahimova_2017
     RDKit          3D

 39 44  0  0  0  0  0  0  0  0999 V2000
  133.3170  124.0070   76.5980 C   0  0  0  0  0  0  0  0  0  0  0  0
  132.5880  124.9510   75.6590 C   0  0  0  0  0  0  0  0  0  0  0  0
  131.2010  124.8740   75.5300 C   0  0  0  0  0  0  0  0  0  0  0  0
  130.5310  125.7460   74.6750 C   0  0  0  0  0  0  0  0  0  0  0  0
  131.2460  126.6950   73.9340 C   0  0  0  0  0  0  0  0  0  0  0  0
  130.4980  127.6460   73.0270 C   0  0  0  0  0  0  0  0  0  0  0  0
  130.8790  128.8190   72.9920 O   0  0  0  0  0  0  0  0  0  0  0  0
  129.4550  127.1790   72.2790 N   0  0  0  0  0  0  0  0  0  0  0  0
  128.1160  126.9890   72.8600 C   0  0  0  0  0  0  0  0  0  0  0  0
  127.2010  126.6070   71.7080 C   0  0  0  0  0  0  0  0  0  0  0  0
  128.0100  126.9760   70.5020 C   0  0  0  0  0  0  0  0  0  0  0  0
  127.6500  126.9330   69.1550 C   0  0  0  0  0  0  0  0  0  0  0  0
  128.6080  127.1680   68.1570 C   0  0  0  0  0  0  0  0  0  0  0  0
  128.2540  127.1300   66.6620 C   0  0  2  0  0  0  0  0  0  0  0  0
  129.3040  126.5310   65.8670 N   0  0  0  0  0  0  0  0  0  0  0  0
  129.3660  127.0400   64.7030 C   0  0  0  0  0  0  0  0  0  0  0  0
  130.2400  126.7440   63.7040 N   0  0  0  0  0  0  0  0  0  0  0  0
  131.3330  125.9450   63.7510 C   0  0  0  0  0  0  0  0  0  0  0  0
  131.7070  125.2990   64.7320 O   0  0  0  0  0  0  0  0  0  0  0  0
  132.1540  125.8670   62.4520 C   0  0  0  0  0  0  0  0  0  0  0  0
  132.2250  124.4570   62.0070 N   0  0  0  0  0  0  0  0  0  0  0  0
  133.4920  124.0030   61.6650 N   0  0  0  0  0  0  0  0  0  0  0  0
  133.6880  122.7890   61.2590 N   0  0  0  0  0  0  0  0  0  0  0  0
  132.6100  121.9070   61.1610 C   0  0  0  0  0  0  0  0  0  0  0  0
  132.8560  120.6050   60.7180 C   0  0  0  0  0  0  0  0  0  0  0  0
  131.7990  119.7000   60.6090 C   0  0  0  0  0  0  0  0  0  0  0  0
  130.5000  120.0930   60.9400 C   0  0  0  0  0  0  0  0  0  0  0  0
  130.2520  121.3940   61.3820 C   0  0  0  0  0  0  0  0  0  0  0  0
  131.3130  122.3010   61.4930 C   0  0  0  0  0  0  0  0  0  0  0  0
  131.0650  123.7150   61.9660 C   0  0  0  0  0  0  0  0  0  0  0  0
  129.9510  124.1520   62.2690 O   0  0  0  0  0  0  0  0  0  0  0  0
  128.1780  128.3170   64.3120 S   0  0  0  0  0  0  0  0  0  0  0  0
  127.8370  128.4980   66.0720 C   0  0  2  0  0  0  0  0  0  0  0  0
  128.5850  129.7380   66.6040 C   0  0  0  0  0  0  0  0  0  0  0  0
  129.9360  127.3970   68.5350 C   0  0  0  0  0  0  0  0  0  0  0  0
  130.3010  127.4200   69.8820 C   0  0  0  0  0  0  0  0  0  0  0  0
  129.3240  127.2640   70.8750 C   0  0  0  0  0  0  0  0  0  0  0  0
  132.6350  126.7840   74.0890 C   0  0  0  0  0  0  0  0  0  0  0  0
  133.3040  125.9130   74.9450 C   0  0  0  0  0  0  0  0  0  0  0  0
  1  2  1  0
  2  3  2  0
  3  4  1  0
  4  5  2  0
  5  6  1  0
  6  7  2  0
  6  8  1  0
  8  9  1  0
  9 10  1  0
 10 11  1  0
 11 12  2  0
 12 13  1  0
 14 13  1  1
 14 15  1  0
 15 16  2  0
 16 17  1  0
 17 18  1  0
 18 19  2  0
 18 20  1  0
 20 21  1  0
 21 22  1  0
 22 23  2  0
 23 24  1  0
 24 25  2  0
 25 26  1  0
 26 27  2  0
 27 28  1  0
 28 29  2  0
 29 30  1  0
 30 31  2  0
 16 32  1  0
 32 33  1  0
 33 34  1  1
 13 35  2  0
 35 36  1  0
 36 37  2  0
  5 38  1  0
 38 39  2  0
 39  2  1  0
 37  8  1  0
 37 11  1  0
 33 14  1  0
 30 21  1  0
 29 24  1  0
M  END
>  <Binding energies>  (47) 
[-8.93]

>  <Ligand effiencies>  (47) 
[-0.22325]

>  <Interactions>  (47) 
["V-B:TYR:539:CD2:9846, V-A:GLU:543:CD:4908, H-A:TYR:484:OH:4348, V-B:TYR:539:CE2:9848, V-A:ARG:545:CZ:4926, V-A:LEU:475:CD2:4259, V-A:ASP:366:CG:3213, V-A:ILE:369:CG2:3237, H-A:GLU:543:OE2:4910, V-B:GLU:543:CB:9878, V-B:GLU:543:CG:9879, V-B:GLU:543:CD:9880, V-B:GLY:544:C:9884, V-B:GLY:544:CA:9886, V-A:HIS:456:CD2:4068, V-A:HIS:456:CB:4065, V-A:HIS:456:CG:4066, V-A:HIS:456:CE1:4070, V-B:LYS:547:CE:9922, V-B:HIS:456:CE1:9041, V-B:GLU:543:C:9874, H-A:LYS:547:NZ:4951, H-A:GLU:543:OE1:4909, H-A:ARG:545:NH2:4928, V-A:GLU:543:CB:4906, V-B:TYR:484:CZ:9318, V-A:GLU:543:CG:4907, V-A:SER:385:CB:3409, V-A:GLU:543:CA:4904, V-A:VAL:458:CG2:4087, V-B:TYR:484:CE2:9317, V-A:LYS:471:CD:4219"]

$$$$
RR26_Rahimova_2017
     RDKit          3D

 38 44  0  0  0  0  0  0  0  0999 V2000
  123.7630  132.6160   62.1200 C   0  0  0  0  0  0  0  0  0  0  0  0
  124.8060  133.6600   61.7390 C   0  0  0  0  0  0  0  0  0  0  0  0
  124.3810  134.8010   61.0500 C   0  0  0  0  0  0  0  0  0  0  0  0
  125.2840  135.8060   60.7120 C   0  0  0  0  0  0  0  0  0  0  0  0
  126.6240  135.6820   61.0670 C   0  0  0  0  0  0  0  0  0  0  0  0
  127.0590  134.5510   61.7550 C   0  0  0  0  0  0  0  0  0  0  0  0
  126.1660  133.5240   62.0960 C   0  0  0  0  0  0  0  0  0  0  0  0
  126.7200  132.3330   62.8230 C   0  0  0  0  0  0  0  0  0  0  0  0
  127.1490  132.4030   64.0800 N   0  0  0  0  0  0  0  0  0  0  0  0
  127.5220  131.1730   64.3070 C   0  0  0  0  0  0  0  0  0  0  0  0
  128.2050  130.3130   65.6370 S   0  0  0  0  0  0  0  0  0  0  0  0
  128.1960  128.8100   64.6410 C   0  0  0  0  0  0  0  0  0  0  0  0
  128.6210  127.5780   64.9980 C   0  0  0  0  0  0  0  0  0  0  0  0
  129.1830  127.1570   66.2710 C   0  0  0  0  0  0  0  0  0  0  0  0
  128.9270  127.6730   67.5320 C   0  0  0  0  0  0  0  0  0  0  0  0
  129.6480  126.9410   68.4420 N   0  0  0  0  0  0  0  0  0  0  0  0
  129.6990  127.0960   69.8510 C   0  0  0  0  0  0  0  0  0  0  0  0
  128.6560  126.6270   70.6630 C   0  0  0  0  0  0  0  0  0  0  0  0
  128.7160  126.7890   72.0450 C   0  0  0  0  0  0  0  0  0  0  0  0
  129.8190  127.4170   72.6190 C   0  0  0  0  0  0  0  0  0  0  0  0
  130.8630  127.8840   71.8240 C   0  0  0  0  0  0  0  0  0  0  0  0
  130.8040  127.7260   70.4420 C   0  0  0  0  0  0  0  0  0  0  0  0
  130.3280  125.9660   67.8200 N   0  0  0  0  0  0  0  0  0  0  0  0
  130.0670  126.0860   66.5330 C   0  0  0  0  0  0  0  0  0  0  0  0
  130.6910  125.1390   65.5540 C   0  0  0  0  0  0  0  0  0  0  0  0
  129.9890  124.0050   65.1170 C   0  0  0  0  0  0  0  0  0  0  0  0
  130.5640  123.1150   64.2070 C   0  0  0  0  0  0  0  0  0  0  0  0
  131.8500  123.3540   63.7270 C   0  0  0  0  0  0  0  0  0  0  0  0
  132.5540  124.4940   64.1420 C   0  0  0  0  0  0  0  0  0  0  0  0
  131.9800  125.3780   65.0550 C   0  0  0  0  0  0  0  0  0  0  0  0
  133.8460  124.7480   63.7270 O   0  0  0  0  0  0  0  0  0  0  0  0
  134.2310  124.0380   62.5450 C   0  0  0  0  0  0  0  0  0  0  0  0
  133.7800  122.5590   62.6280 C   0  0  0  0  0  0  0  0  0  0  0  0
  132.3610  122.4750   62.7930 O   0  0  0  0  0  0  0  0  0  0  0  0
  127.6640  129.0360   63.3000 C   0  0  0  0  0  0  0  0  0  0  0  0
  127.5230  128.2350   62.3740 O   0  0  0  0  0  0  0  0  0  0  0  0
  127.3180  130.3940   63.2290 N   0  0  0  0  0  0  0  0  0  0  0  0
  126.7900  131.1390   62.2540 N   0  0  0  0  0  0  0  0  0  0  0  0
  1  2  1  0
  2  3  2  0
  3  4  1  0
  4  5  2  0
  5  6  1  0
  6  7  2  0
  7  8  1  0
  8  9  1  0
  9 10  2  0
 10 11  1  0
 11 12  1  0
 12 13  2  0
 13 14  1  0
 14 15  2  0
 15 16  1  0
 16 17  1  0
 17 18  2  0
 18 19  1  0
 19 20  2  0
 20 21  1  0
 21 22  2  0
 16 23  1  0
 23 24  2  0
 24 25  1  0
 25 26  2  0
 26 27  1  0
 27 28  2  0
 28 29  1  0
 29 30  2  0
 29 31  1  0
 31 32  1  0
 32 33  1  0
 33 34  1  0
 12 35  1  0
 35 36  2  0
 35 37  1  0
 37 38  1  0
  7  2  1  0
 38  8  2  0
 37 10  1  0
 24 14  1  0
 30 25  1  0
 22 17  1  0
 34 28  1  0
M  END
>  <Binding energies>  (48) 
[-9.48]

>  <Ligand effiencies>  (48) 
[-0.24947368421052632]

>  <Interactions>  (48) 
["V-A:GLU:543:CD:4908, H-A:GLY:454:N:4050, V-A:ARG:545:CZ:4926, V-A:LEU:475:CD2:4259, V-A:TYR:539:CD1:4873, V-B:GLY:454:CA:9020, V-B:ILE:369:CG2:8208, V-B:LEU:475:CD2:9230, V-A:TYR:539:CE1:4875, V-A:ILE:369:CD1:3239, V-A:GLY:453:C:4042, V-A:GLY:454:CA:4049, V-B:GLU:543:CB:9878, V-B:GLU:543:CG:9879, V-A:TYR:484:CE2:4346, V-B:GLU:543:CD:9880, V-A:GLY:544:C:4912, V-A:HIS:456:CE1:4070, V-B:GLU:543:C:9874, H-A:ARG:545:NH2:4928, V-A:GLU:543:CB:4906, V-A:GLU:543:C:4902, V-B:TYR:484:CZ:9318, H-B:TYR:484:OH:9319, V-A:GLY:453:CA:4044, V-A:GLU:543:CG:4907, H-A:ARG:545:NH1:4927, V-B:TYR:484:CE2:9317"]

$$$$
RR2_Rahimova_2017
     RDKit          3D

 46 50  0  0  0  0  0  0  0  0999 V2000
  128.3150  133.3810   62.3110 C   0  0  0  0  0  0  0  0  0  0  0  0
  128.8380  132.7710   61.1370 O   0  0  0  0  0  0  0  0  0  0  0  0
  129.3440  131.4870   61.2120 C   0  0  0  0  0  0  0  0  0  0  0  0
  128.6050  130.3680   61.6200 C   0  0  0  0  0  0  0  0  0  0  0  0
  129.2010  129.1110   61.6670 C   0  0  0  0  0  0  0  0  0  0  0  0
  130.5460  128.9430   61.3130 C   0  0  0  0  0  0  0  0  0  0  0  0
  131.1740  127.5640   61.3800 C   0  0  0  0  0  0  0  0  0  0  0  0
  131.3780  127.0250   62.4740 O   0  0  0  0  0  0  0  0  0  0  0  0
  131.4920  127.0010   60.1910 N   0  0  0  0  0  0  0  0  0  0  0  0
  132.1540  125.7780   60.1990 N   0  0  0  0  0  0  0  0  0  0  0  0
  132.8200  125.4060   59.0880 C   0  0  0  0  0  0  0  0  0  0  0  0
  132.7460  125.9780   57.9960 O   0  0  0  0  0  0  0  0  0  0  0  0
  133.7430  124.1910   59.2460 C   0  0  0  0  0  0  0  0  0  0  0  0
  133.0230  122.7870   60.1750 S   0  0  0  0  0  0  0  0  0  0  0  0
  133.0280  123.4460   61.8150 C   0  0  0  0  0  0  0  0  0  0  0  0
  134.1260  123.7530   62.4580 N   0  0  0  0  0  0  0  0  0  0  0  0
  133.7620  124.1680   63.7310 N   0  0  0  0  0  0  0  0  0  0  0  0
  132.4530  124.1250   63.8000 C   0  0  0  0  0  0  0  0  0  0  0  0
  131.6810  124.5180   65.0180 C   0  0  0  0  0  0  0  0  0  0  0  0
  132.1880  125.4990   65.8750 C   0  0  0  0  0  0  0  0  0  0  0  0
  131.4800  125.8670   67.0150 C   0  0  0  0  0  0  0  0  0  0  0  0
  130.2480  125.2670   67.3010 C   0  0  0  0  0  0  0  0  0  0  0  0
  129.4970  125.5910   68.4410 N   0  0  0  0  0  0  0  0  0  0  0  0
  128.7420  127.1720   68.7410 S   0  0  0  0  0  0  0  0  0  0  0  0
  127.3070  126.9870   68.4970 O   0  0  0  0  0  0  0  0  0  0  0  0
  129.5050  128.1880   68.0060 O   0  0  0  0  0  0  0  0  0  0  0  0
  128.9330  127.4570   70.4990 C   0  0  0  0  0  0  0  0  0  0  0  0
  130.1300  127.9630   71.0120 C   0  0  0  0  0  0  0  0  0  0  0  0
  130.2640  128.1630   72.3830 C   0  0  0  0  0  0  0  0  0  0  0  0
  129.2020  127.8630   73.2390 C   0  0  0  0  0  0  0  0  0  0  0  0
  129.3550  128.0670   74.7350 C   0  0  0  0  0  0  0  0  0  0  0  0
  128.0080  127.3530   72.7240 C   0  0  0  0  0  0  0  0  0  0  0  0
  127.8730  127.1520   71.3540 C   0  0  0  0  0  0  0  0  0  0  0  0
  129.7420  124.2910   66.4440 C   0  0  0  0  0  0  0  0  0  0  0  0
  130.4520  123.9180   65.3060 C   0  0  0  0  0  0  0  0  0  0  0  0
  131.9170  123.6670   62.6080 N   0  0  0  0  0  0  0  0  0  0  0  0
  130.5630  123.4340   62.2870 C   0  0  0  0  0  0  0  0  0  0  0  0
  129.6790  124.5080   62.1750 C   0  0  0  0  0  0  0  0  0  0  0  0
  128.3460  124.2720   61.8530 C   0  0  0  0  0  0  0  0  0  0  0  0
  127.8850  122.9720   61.6440 C   0  0  0  0  0  0  0  0  0  0  0  0
  126.5460  122.8370   61.3310 O   0  0  0  0  0  0  0  0  0  0  0  0
  125.7760  124.0030   61.0550 C   0  0  0  0  0  0  0  0  0  0  0  0
  128.7820  121.8970   61.7590 C   0  0  0  0  0  0  0  0  0  0  0  0
  130.1160  122.1280   62.0780 C   0  0  0  0  0  0  0  0  0  0  0  0
  131.2780  130.0670   60.9000 C   0  0  0  0  0  0  0  0  0  0  0  0
  130.6800  131.3220   60.8510 C   0  0  0  0  0  0  0  0  0  0  0  0
  1  2  1  0
  2  3  1  0
  3  4  2  0
  4  5  1  0
  5  6  2  0
  6  7  1  0
  7  8  2  0
  7  9  1  0
  9 10  1  0
 10 11  1  0
 11 12  2  0
 11 13  1  0
 13 14  1  0
 14 15  1  0
 15 16  2  0
 16 17  1  0
 17 18  2  0
 18 19  1  0
 19 20  2  0
 20 21  1  0
 21 22  2  0
 22 23  1  0
 23 24  1  0
 24 25  2  0
 24 26  2  0
 24 27  1  0
 27 28  2  0
 28 29  1  0
 29 30  2  0
 30 31  1  0
 30 32  1  0
 32 33  2  0
 22 34  1  0
 34 35  2  0
 18 36  1  0
 36 37  1  0
 37 38  2  0
 38 39  1  0
 39 40  2  0
 40 41  1  0
 41 42  1  0
 40 43  1  0
 43 44  2  0
  6 45  1  0
 45 46  2  0
 46  3  1  0
 36 15  1  0
 44 37  1  0
 35 19  1  0
 33 27  1  0
M  END
>  <Binding energies>  (49) 
[-10.1]

>  <Ligand effiencies>  (49) 
[-0.20612244897959184]

>  <Interactions>  (49) 
["V-A:GLU:543:CD:4908, H-A:GLY:454:N:4050, V-B:PRO:540:CB:9857, H-A:TYR:484:OH:4348, V-B:TYR:539:CE2:9848, V-A:ARG:545:CZ:4926, V-A:LEU:475:CD2:4259, V-B:PRO:540:CA:9855, V-A:ASP:366:CB:3212, V-A:PRO:540:CA:4883, V-B:LEU:475:CD2:9230, H-B:ALA:541:N:9863, V-A:ASP:366:CG:3213, V-A:ILE:369:CG2:3237, V-A:TYR:484:CZ:4347, V-A:ILE:369:CB:3236, V-B:GLU:543:CB:9878, V-B:GLU:543:CG:9879, V-A:TYR:484:CE2:4346, V-B:GLU:543:CD:9880, H-B:TYR:539:OH:9850, V-B:ALA:541:CB:9864, V-A:ASP:366:CA:3210, V-B:HIS:456:CD2:9039, V-A:GLY:544:C:4912, V-B:GLY:544:C:9884, V-A:HIS:456:CE1:4070, V-B:HIS:456:CE1:9041, V-B:GLU:543:C:9874, H-B:GLU:543:O:9875, H-A:ARG:545:NH2:4928, V-A:ALA:541:CB:4892, H-A:HIS:456:NE2:4071, V-B:PRO:540:C:9853, V-B:GLU:543:CA:9876, H-A:ASP:366:OD2:3215, H-A:ASP:366:OD1:3214, H-A:TYR:531:OH:4795"]

$$$$
RR33_Rahimova_2017
     RDKit          3D

 18 19  0  0  0  0  0  0  0  0999 V2000
  124.8910  129.1950   67.0040 C   0  0  0  0  0  0  0  0  0  0  0  0
  123.5750  129.8220   66.5350 C   0  0  0  0  0  0  0  0  0  0  0  0
  123.5040  129.7280   65.1150 O   0  0  0  0  0  0  0  0  0  0  0  0
  124.5960  130.0990   64.3550 C   0  0  0  0  0  0  0  0  0  0  0  0
  124.6490  131.4330   63.9520 C   0  0  0  0  0  0  0  0  0  0  0  0
  125.7100  131.8980   63.1800 C   0  0  0  0  0  0  0  0  0  0  0  0
  126.7390  131.0310   62.7990 C   0  0  0  0  0  0  0  0  0  0  0  0
  127.8780  131.5320   61.9690 C   0  0  0  0  0  0  0  0  0  0  0  0
  129.1540  131.5460   62.2830 N   0  0  0  0  0  0  0  0  0  0  0  0
  129.7660  132.0780   61.2370 C   0  0  0  0  0  0  0  0  0  0  0  0
  131.2690  132.2500   61.2190 C   0  0  0  0  0  0  0  0  0  0  0  0
  131.8420  131.8890   62.5080 N   0  0  0  0  0  0  0  0  0  0  0  0
  133.1640  131.3090   62.3360 C   0  0  0  0  0  0  0  0  0  0  0  0
  128.8290  132.3960   60.2610 C   0  0  0  0  0  0  0  0  0  0  0  0
  128.8820  133.0030   58.8800 C   0  0  0  0  0  0  0  0  0  0  0  0
  127.6140  132.0430   60.7380 O   0  0  0  0  0  0  0  0  0  0  0  0
  126.6920  129.6940   63.2040 C   0  0  0  0  0  0  0  0  0  0  0  0
  125.6290  129.2280   63.9750 C   0  0  0  0  0  0  0  0  0  0  0  0
  1  2  1  0
  2  3  1  0
  3  4  1  0
  4  5  2  0
  5  6  1  0
  6  7  2  0
  7  8  1  0
  8  9  2  0
  9 10  1  0
 10 11  1  0
 11 12  1  0
 12 13  1  0
 10 14  2  0
 14 15  1  0
 14 16  1  0
  7 17  1  0
 17 18  2  0
 18  4  1  0
 16  8  1  0
M  END
>  <Binding energies>  (50) 
[-4.86]

>  <Ligand effiencies>  (50) 
[-0.25578947368421057]

>  <Interactions>  (50) 
["V-A:GLU:543:CD:4908, V-A:ASN:362:CB:3176, V-A:PRO:540:C:4881, V-A:PRO:540:CB:4885, V-A:TYR:539:CD1:4873, V-A:PRO:540:N:4884, V-B:GLY:454:CA:9020, V-A:PRO:540:CA:4883, V-B:GLY:453:C:9013, V-A:TYR:539:C:4867, H-B:ARG:545:NH1:9899, V-A:TYR:539:CE1:4875, H-B:GLY:454:N:9021, H-A:ALA:541:N:4891, H-B:ARG:545:NH2:9900, V-B:GLU:543:CD:9880, V-B:HIS:456:CE1:9041, H-A:GLU:543:OE1:4909, V-B:TYR:484:CZ:9318, V-B:ARG:545:CZ:9898, H-B:TYR:484:OH:9319, H-B:ARG:545:NE:9896, V-B:ARG:545:CD:9895, V-B:GLY:454:C:9018, V-B:ARG:545:CG:9894, H-A:ALA:541:O:4889"]

$$$$
RR3_Rahimova_2017
     RDKit          3D

 38 44  0  0  0  0  0  0  0  0999 V2000
  129.4960  126.8360   72.1890 C   0  0  0  0  0  0  0  0  0  0  0  0
  128.2640  126.5930   71.5920 C   0  0  0  0  0  0  0  0  0  0  0  0
  127.9940  127.1180   70.3310 C   0  0  0  0  0  0  0  0  0  0  0  0
  128.9490  127.8880   69.6520 C   0  0  0  0  0  0  0  0  0  0  0  0
  128.6570  128.4510   68.2950 C   0  0  0  0  0  0  0  0  0  0  0  0
  128.5140  127.6110   67.1830 C   0  0  0  0  0  0  0  0  0  0  0  0
  128.2460  128.1340   65.9210 C   0  0  0  0  0  0  0  0  0  0  0  0
  128.1230  129.5150   65.7420 C   0  0  0  0  0  0  0  0  0  0  0  0
  127.8410  130.0850   64.3870 C   0  0  0  0  0  0  0  0  0  0  0  0
  127.4850  131.3590   64.2630 N   0  0  0  0  0  0  0  0  0  0  0  0
  127.3490  131.5860   62.9790 C   0  0  0  0  0  0  0  0  0  0  0  0
  126.9650  132.8650   62.3870 C   0  0  0  0  0  0  0  0  0  0  0  0
  127.8270  133.7860   61.8170 C   0  0  0  0  0  0  0  0  0  0  0  0
  127.1260  134.8680   61.3530 N   0  0  0  0  0  0  0  0  0  0  0  0
  125.7820  134.6970   61.6040 C   0  0  0  0  0  0  0  0  0  0  0  0
  124.6880  135.5220   61.3190 C   0  0  0  0  0  0  0  0  0  0  0  0
  123.4300  135.0610   61.7070 C   0  0  0  0  0  0  0  0  0  0  0  0
  123.2630  133.8390   62.3500 C   0  0  0  0  0  0  0  0  0  0  0  0
  124.3520  133.0170   62.6330 C   0  0  0  0  0  0  0  0  0  0  0  0
  125.6430  133.4350   62.2620 C   0  0  0  0  0  0  0  0  0  0  0  0
  127.6090  130.4580   62.2520 N   0  0  0  0  0  0  0  0  0  0  0  0
  127.9110  129.4520   63.1340 C   0  0  0  0  0  0  0  0  0  0  0  0
  128.1930  128.0510   62.7010 C   0  0  0  0  0  0  0  0  0  0  0  0
  127.3620  127.4250   61.7710 C   0  0  0  0  0  0  0  0  0  0  0  0
  127.6140  126.1150   61.3750 C   0  0  0  0  0  0  0  0  0  0  0  0
  128.7050  125.4020   61.8940 C   0  0  0  0  0  0  0  0  0  0  0  0
  128.9620  123.9880   61.4800 C   0  0  0  0  0  0  0  0  0  0  0  0
  128.3900  123.4650   60.3100 C   0  0  0  0  0  0  0  0  0  0  0  0
  128.6340  122.1490   59.9220 C   0  0  0  0  0  0  0  0  0  0  0  0
  129.4530  121.3410   60.7040 C   0  0  0  0  0  0  0  0  0  0  0  0
  130.0310  121.8390   61.8670 C   0  0  0  0  0  0  0  0  0  0  0  0
  129.7850  123.1530   62.2520 C   0  0  0  0  0  0  0  0  0  0  0  0
  129.5420  126.0490   62.8140 C   0  0  0  0  0  0  0  0  0  0  0  0
  129.2920  127.3590   63.2130 C   0  0  0  0  0  0  0  0  0  0  0  0
  128.2520  130.3590   66.8460 C   0  0  0  0  0  0  0  0  0  0  0  0
  128.5200  129.8330   68.1070 C   0  0  0  0  0  0  0  0  0  0  0  0
  130.1840  128.1200   70.2740 C   0  0  0  0  0  0  0  0  0  0  0  0
  130.4590  127.5970   71.5350 C   0  0  0  0  0  0  0  0  0  0  0  0
  1  2  2  0
  2  3  1  0
  3  4  2  0
  4  5  1  0
  5  6  2  0
  6  7  1  0
  7  8  2  0
  8  9  1  0
  9 10  1  0
 10 11  2  0
 11 12  1  0
 12 13  2  0
 13 14  1  0
 14 15  1  0
 15 16  2  0
 16 17  1  0
 17 18  2  0
 18 19  1  0
 19 20  2  0
 11 21  1  0
 21 22  1  0
 22 23  1  0
 23 24  2  0
 24 25  1  0
 25 26  2  0
 26 27  1  0
 27 28  2  0
 28 29  1  0
 29 30  2  0
 30 31  1  0
 31 32  2  0
 26 33  1  0
 33 34  2  0
  8 35  1  0
 35 36  2  0
  4 37  1  0
 37 38  2  0
 38  1  1  0
 36  5  1  0
 22  9  2  0
 34 23  1  0
 20 12  1  0
 32 27  1  0
 20 15  1  0
M  END
>  <Binding energies>  (51) 
[-9.87]

>  <Ligand effiencies>  (51) 
[-0.24674999999999997]

>  <Interactions>  (51) 
["V-B:PRO:540:N:9856, V-B:TYR:539:CD2:9846, V-A:GLU:543:CD:4908, V-B:TYR:539:CE2:9848, V-A:LEU:475:CD2:4259, V-B:PRO:540:CA:9855, V-A:TYR:539:CD1:4873, V-B:GLY:454:CA:9020, V-A:TYR:539:C:4867, V-B:ILE:369:CG2:8208, V-B:LEU:475:CD2:9230, V-A:TYR:539:CE1:4875, V-B:ILE:369:CG1:8209, V-B:GLU:543:CB:9878, V-B:GLU:543:CD:9880, V-B:ALA:541:CB:9864, V-A:GLY:544:C:4912, V-A:HIS:456:CD2:4068, V-A:HIS:456:CE1:4070, V-B:HIS:456:CE1:9041, V-B:GLU:543:C:9874, V-A:GLU:543:CB:4906, V-A:GLU:543:C:4902, V-B:TYR:484:CZ:9318, H-B:TYR:484:OH:9319, V-A:ALA:541:CB:4892, V-A:GLU:543:CG:4907, V-B:TYR:539:C:9839, V-B:SER:385:CB:8380, V-B:SER:385:CA:8378, V-B:SER:385:C:8376, V-A:GLU:543:CA:4904, H-A:TYR:539:O:4868, V-B:TYR:484:CE2:9317"]

$$$$
RR4_Rahimova_2017
     RDKit          3D

 40 44  0  0  0  0  0  0  0  0999 V2000
  128.9560  128.1580   75.0800 C   0  0  0  0  0  0  0  0  0  0  0  0
  129.4070  127.0280   74.3430 O   0  0  0  0  0  0  0  0  0  0  0  0
  129.4280  127.0880   72.9630 C   0  0  0  0  0  0  0  0  0  0  0  0
  128.2540  126.7300   72.3030 C   0  0  0  0  0  0  0  0  0  0  0  0
  128.1830  126.7610   70.9140 C   0  0  0  0  0  0  0  0  0  0  0  0
  129.2870  127.1500   70.1410 C   0  0  0  0  0  0  0  0  0  0  0  0
  129.2060  127.1810   68.6410 C   0  0  0  0  0  0  0  0  0  0  0  0
  129.8210  126.2230   67.8290 C   0  0  0  0  0  0  0  0  0  0  0  0
  129.7130  126.2940   66.4340 C   0  0  0  0  0  0  0  0  0  0  0  0
  130.3720  125.2190   65.6330 C   0  0  0  0  0  0  0  0  0  0  0  0
  131.6000  125.4600   65.0110 C   0  0  0  0  0  0  0  0  0  0  0  0
  132.2270  124.4600   64.2720 C   0  0  0  0  0  0  0  0  0  0  0  0
  131.6430  123.2000   64.1460 C   0  0  0  0  0  0  0  0  0  0  0  0
  132.3370  122.2710   63.3950 O   0  0  0  0  0  0  0  0  0  0  0  0
  133.4510  122.6990   62.6180 C   0  0  0  0  0  0  0  0  0  0  0  0
  130.4130  122.9520   64.7730 C   0  0  0  0  0  0  0  0  0  0  0  0
  129.7880  123.9530   65.5120 C   0  0  0  0  0  0  0  0  0  0  0  0
  128.9920  127.3730   65.8670 C   0  0  0  0  0  0  0  0  0  0  0  0
  128.8480  127.4950   64.4130 C   0  0  0  0  0  0  0  0  0  0  0  0
  128.7340  127.5910   63.2660 N   0  0  0  0  0  0  0  0  0  0  0  0
  128.4220  128.3220   66.7460 C   0  0  0  0  0  0  0  0  0  0  0  0
  127.4960  129.7460   66.2110 S   0  0  0  0  0  0  0  0  0  0  0  0
  125.7450  129.2520   66.0760 C   0  0  0  0  0  0  0  0  0  0  0  0
  125.0980  129.5640   64.7200 C   0  0  0  0  0  0  0  0  0  0  0  0
  123.8970  129.8360   64.6470 O   0  0  0  0  0  0  0  0  0  0  0  0
  125.9390  129.4980   63.6620 N   0  0  0  0  0  0  0  0  0  0  0  0
  125.6580  129.7280   62.3130 C   0  0  0  0  0  0  0  0  0  0  0  0
  126.0770  128.6000   61.0510 S   0  0  0  0  0  0  0  0  0  0  0  0
  125.4100  129.6360   59.8270 C   0  0  0  0  0  0  0  0  0  0  0  0
  124.8860  130.8150   60.3780 C   0  0  0  0  0  0  0  0  0  0  0  0
  125.0130  130.8580   61.7880 C   0  0  0  0  0  0  0  0  0  0  0  0
  124.5310  131.9670   62.6050 C   0  0  0  0  0  0  0  0  0  0  0  0
  124.1490  132.8470   63.2520 N   0  0  0  0  0  0  0  0  0  0  0  0
  124.2060  131.8760   59.5050 C   0  0  0  0  0  0  0  0  0  0  0  0
  123.8440  131.2920   58.1200 C   0  0  0  0  0  0  0  0  0  0  0  0
  125.0040  130.4860   57.5090 C   0  0  0  0  0  0  0  0  0  0  0  0
  125.3550  129.2450   58.3560 C   0  0  0  0  0  0  0  0  0  0  0  0
  128.5140  128.2120   68.0920 N   0  0  0  0  0  0  0  0  0  0  0  0
  130.4640  127.5130   70.8150 C   0  0  0  0  0  0  0  0  0  0  0  0
  130.5390  127.4820   72.2040 C   0  0  0  0  0  0  0  0  0  0  0  0
  1  2  1  0
  2  3  1  0
  3  4  2  0
  4  5  1  0
  5  6  2  0
  6  7  1  0
  7  8  2  0
  8  9  1  0
  9 10  1  0
 10 11  2  0
 11 12  1  0
 12 13  2  0
 13 14  1  0
 14 15  1  0
 13 16  1  0
 16 17  2  0
  9 18  2  0
 18 19  1  0
 19 20  3  0
 18 21  1  0
 21 22  1  0
 22 23  1  0
 23 24  1  0
 24 25  2  0
 24 26  1  0
 26 27  1  0
 27 28  1  0
 28 29  1  0
 29 30  2  0
 30 31  1  0
 31 32  1  0
 32 33  3  0
 30 34  1  0
 34 35  1  0
 35 36  1  0
 36 37  1  0
 21 38  2  0
  6 39  1  0
 39 40  2  0
 40  3  1  0
 38  7  1  0
 17 10  1  0
 31 27  2  0
 37 29  1  0
M  END
>  <Binding energies>  (52) 
[-9.77]

>  <Ligand effiencies>  (52) 
[-0.23829268292682926]

>  <Interactions>  (52) 
["V-B:ASP:366:CB:8183, V-B:TYR:531:CZ:9766, V-A:GLU:543:CD:4908, V-B:ASP:366:CG:8184, H-A:TYR:484:OH:4348, V-A:LEU:475:CD2:4259, V-B:ILE:369:CB:8207, V-B:ILE:369:CG2:8208, H-B:ARG:545:NH1:9899, V-A:TYR:539:CE1:4875, V-B:ASP:366:CA:8181, H-B:GLY:454:N:9021, H-B:ARG:545:NH2:9900, V-A:GLY:454:CA:4049, V-A:TYR:484:CZ:4347, V-B:GLU:543:CB:9878, V-B:GLU:543:CG:9879, V-A:TYR:484:CE2:4346, V-B:GLU:543:CD:9880, V-A:GLY:544:C:4912, V-A:HIS:456:CD2:4068, V-A:HIS:456:CE1:4070, H-B:LYS:547:NZ:9923, V-B:HIS:456:CE1:9041, V-B:GLU:543:C:9874, V-A:GLU:543:CB:4906, V-B:TYR:484:CZ:9318, V-B:ARG:545:CZ:9898, H-B:TYR:484:OH:9319, V-A:GLU:543:CG:4907, H-B:ARG:545:NE:9896, V-A:TYR:539:CZ:4877, V-B:ASP:366:C:8179, H-B:GLU:543:OE2:9882"]

$$$$
RR6_Rahimova_2017
     RDKit          3D

 38 41  0  0  0  0  0  0  0  0999 V2000
  132.1830  118.0200   58.4240 C   0  0  0  0  0  0  0  0  0  0  0  0
  131.0160  117.9410   59.2310 O   0  0  0  0  0  0  0  0  0  0  0  0
  131.0750  118.1640   60.5690 C   0  0  0  0  0  0  0  0  0  0  0  0
  131.0940  117.2590   61.4090 O   0  0  0  0  0  0  0  0  0  0  0  0
  131.1170  119.6220   60.9270 C   0  0  0  0  0  0  0  0  0  0  0  0
  132.2830  120.3880   60.7900 C   0  0  0  0  0  0  0  0  0  0  0  0
  132.2920  121.7370   61.1370 C   0  0  0  0  0  0  0  0  0  0  0  0
  131.1280  122.3430   61.6340 C   0  0  0  0  0  0  0  0  0  0  0  0
  131.0340  123.6870   62.0410 N   0  0  0  0  0  0  0  0  0  0  0  0
  131.6810  124.3260   63.0410 C   0  0  0  0  0  0  0  0  0  0  0  0
  132.5110  123.8170   63.7930 O   0  0  0  0  0  0  0  0  0  0  0  0
  131.2760  125.7870   63.2620 C   0  0  0  0  0  0  0  0  0  0  0  0
  129.5120  126.1170   62.9390 S   0  0  0  0  0  0  0  0  0  0  0  0
  128.9280  127.1410   64.2740 C   0  0  0  0  0  0  0  0  0  0  0  0
  128.2310  128.2320   63.8760 N   0  0  0  0  0  0  0  0  0  0  0  0
  127.7090  129.0730   64.8040 C   0  0  0  0  0  0  0  0  0  0  0  0
  126.8990  130.2230   64.2820 C   0  0  0  0  0  0  0  0  0  0  0  0
  127.5150  131.4230   63.8930 C   0  0  0  0  0  0  0  0  0  0  0  0
  126.7630  132.4950   63.4200 C   0  0  0  0  0  0  0  0  0  0  0  0
  125.3760  132.3840   63.3240 C   0  0  0  0  0  0  0  0  0  0  0  0
  124.5580  133.5590   62.8170 C   0  0  0  0  0  0  0  0  0  0  0  0
  124.7460  131.2020   63.7030 C   0  0  0  0  0  0  0  0  0  0  0  0
  125.5030  130.1340   64.1730 C   0  0  0  0  0  0  0  0  0  0  0  0
  127.8940  128.8340   66.1700 C   0  0  0  0  0  0  0  0  0  0  0  0
  128.6160  127.7140   66.6070 C   0  0  0  0  0  0  0  0  0  0  0  0
  128.7590  127.5100   68.0790 C   0  0  0  0  0  0  0  0  0  0  0  0
  129.9950  127.7130   68.7000 C   0  0  0  0  0  0  0  0  0  0  0  0
  130.1340  127.5400   70.0750 C   0  0  0  0  0  0  0  0  0  0  0  0
  129.0410  127.1670   70.8550 C   0  0  0  0  0  0  0  0  0  0  0  0
  129.2710  127.0210   72.2090 O   0  0  0  0  0  0  0  0  0  0  0  0
  130.5520  127.3530   72.7350 C   0  0  0  0  0  0  0  0  0  0  0  0
  127.7970  126.9670   70.2380 C   0  0  0  0  0  0  0  0  0  0  0  0
  127.6610  127.1410   68.8630 C   0  0  0  0  0  0  0  0  0  0  0  0
  129.1570  126.8400   65.6320 C   0  0  0  0  0  0  0  0  0  0  0  0
  129.9460  125.6660   66.0200 C   0  0  0  0  0  0  0  0  0  0  0  0
  130.5670  124.7390   66.3260 N   0  0  0  0  0  0  0  0  0  0  0  0
  129.9610  121.5880   61.7560 C   0  0  0  0  0  0  0  0  0  0  0  0
  129.9560  120.2390   61.4110 C   0  0  0  0  0  0  0  0  0  0  0  0
  1  2  1  0
  2  3  1  0
  3  4  2  0
  3  5  1  0
  5  6  2  0
  6  7  1  0
  7  8  2  0
  8  9  1  0
  9 10  1  0
 10 11  2  0
 10 12  1  0
 12 13  1  0
 13 14  1  0
 14 15  2  0
 15 16  1  0
 16 17  1  0
 17 18  2  0
 18 19  1  0
 19 20  2  0
 20 21  1  0
 20 22  1  0
 22 23  2  0
 16 24  2  0
 24 25  1  0
 25 26  1  0
 26 27  2  0
 27 28  1  0
 28 29  2  0
 29 30  1  0
 30 31  1  0
 29 32  1  0
 32 33  2  0
 25 34  2  0
 34 35  1  0
 35 36  3  0
  8 37  1  0
 37 38  2  0
 38  5  1  0
 34 14  1  0
 23 17  1  0
 33 26  1  0
M  END
>  <Binding energies>  (53) 
[-8.58]

>  <Ligand effiencies>  (53) 
[-0.22]

>  <Interactions>  (53) 
["V-B:TYR:539:CD2:9846, V-A:GLU:543:CD:4908, H-A:TYR:484:OH:4348, V-B:TYR:539:CE2:9848, V-A:LEU:475:CD2:4259, V-B:GLY:454:CA:9020, V-B:LEU:475:CD2:9230, V-B:GLU:543:CB:9878, V-B:GLU:543:CG:9879, V-B:GLU:543:CD:9880, V-B:ALA:541:CB:9864, V-A:HIS:456:CD2:4068, V-A:HIS:456:CE1:4070, V-B:HIS:456:CE1:9041, V-B:GLU:543:C:9874, V-A:GLU:543:CB:4906, V-A:GLU:543:CG:4907, V-B:TYR:539:CG:9844, H-A:HIS:383:HE2:3395, V-A:HIS:383:CE1:3393, H-A:SER:385:OG:3410, V-B:TYR:539:CB:9843, V-A:HIS:383:NE2:3394, V-A:HIS:383:CD2:3392, V-A:SER:385:CB:3409, V-A:HIS:383:CG:3390"]

$$$$
RR7_Rahimova_2017
     RDKit          3D

 47 53  0  0  0  0  0  0  0  0999 V2000
  132.4670  131.0880   62.1210 C   0  0  0  0  0  0  0  0  0  0  0  0
  131.7690  132.2740   61.7560 O   0  0  0  0  0  0  0  0  0  0  0  0
  130.3890  132.2490   61.6890 C   0  0  0  0  0  0  0  0  0  0  0  0
  129.8270  132.2520   60.4140 C   0  0  0  0  0  0  0  0  0  0  0  0
  128.4460  132.2220   60.2470 C   0  0  0  0  0  0  0  0  0  0  0  0
  127.5900  132.2010   61.3580 C   0  0  0  0  0  0  0  0  0  0  0  0
  126.0390  132.1340   61.2010 C   0  0  0  0  0  0  0  0  0  0  0  0
  125.5520  131.3330   62.3010 O   0  0  0  0  0  0  0  0  0  0  0  0
  125.5970  129.9050   62.2230 C   0  0  0  0  0  0  0  0  0  0  0  0
  127.0150  129.4690   61.8190 C   0  0  1  0  0  0  0  0  0  0  0  0
  127.8010  129.4710   63.0070 O   0  0  0  0  0  0  0  0  0  0  0  0
  128.3520  128.2130   63.2730 C   0  0  1  0  0  0  0  0  0  0  0  0
  128.4460  128.0010   64.7040 N   0  0  0  0  0  0  0  0  0  0  0  0
  128.1090  128.8780   65.7200 C   0  0  0  0  0  0  0  0  0  0  0  0
  128.3400  128.4450   66.9350 N   0  0  0  0  0  0  0  0  0  0  0  0
  128.9110  127.2170   66.7410 C   0  0  0  0  0  0  0  0  0  0  0  0
  129.4000  126.2510   67.6420 C   0  0  0  0  0  0  0  0  0  0  0  0
  129.3120  126.5110   69.0230 N   0  0  0  0  0  0  0  0  0  0  0  0
  129.9950  127.4150   69.7650 C   0  0  0  0  0  0  0  0  0  0  0  0
  130.8560  128.1740   69.3160 O   0  0  0  0  0  0  0  0  0  0  0  0
  129.6640  127.4330   71.2430 C   0  0  0  0  0  0  0  0  0  0  0  0
  128.3250  127.5240   71.6530 C   0  0  0  0  0  0  0  0  0  0  0  0
  127.9980  127.5370   73.0060 C   0  0  0  0  0  0  0  0  0  0  0  0
  129.0060  127.4530   73.9600 C   0  0  0  0  0  0  0  0  0  0  0  0
  130.3410  127.3570   73.5740 C   0  0  0  0  0  0  0  0  0  0  0  0
  130.6690  127.3460   72.2210 C   0  0  0  0  0  0  0  0  0  0  0  0
  129.9460  125.0970   67.1530 N   0  0  0  0  0  0  0  0  0  0  0  0
  129.9910  124.9390   65.8050 C   0  0  0  0  0  0  0  0  0  0  0  0
  129.5480  125.8000   64.8500 N   0  0  0  0  0  0  0  0  0  0  0  0
  129.0130  126.9170   65.3580 C   0  0  0  0  0  0  0  0  0  0  0  0
  127.4610  127.2210   62.5330 C   0  0  0  0  0  0  0  0  0  0  0  0
  127.1270  128.0310   61.2920 C   0  0  2  0  0  0  0  0  0  0  0  0
  128.1200  127.8990   60.2880 O   0  0  0  0  0  0  0  0  0  0  0  0
  125.3720  133.5300   61.3280 C   0  0  0  0  0  0  0  0  0  0  0  0
  124.0340  133.6410   61.7390 C   0  0  0  0  0  0  0  0  0  0  0  0
  123.4220  134.8850   61.8430 C   0  0  0  0  0  0  0  0  0  0  0  0
  124.1420  136.0350   61.5350 C   0  0  0  0  0  0  0  0  0  0  0  0
  125.4690  135.9490   61.1250 C   0  0  0  0  0  0  0  0  0  0  0  0
  126.0810  134.7030   61.0210 C   0  0  0  0  0  0  0  0  0  0  0  0
  125.5190  131.5440   59.8600 C   0  0  0  0  0  0  0  0  0  0  0  0
  126.3800  130.8170   59.0220 C   0  0  0  0  0  0  0  0  0  0  0  0
  125.9280  130.2930   57.8160 C   0  0  0  0  0  0  0  0  0  0  0  0
  124.6060  130.4980   57.4280 C   0  0  0  0  0  0  0  0  0  0  0  0
  123.7380  131.2260   58.2360 C   0  0  0  0  0  0  0  0  0  0  0  0
  124.1940  131.7490   59.4430 C   0  0  0  0  0  0  0  0  0  0  0  0
  128.1610  132.1840   62.6390 C   0  0  0  0  0  0  0  0  0  0  0  0
  129.5430  132.2130   62.8060 C   0  0  0  0  0  0  0  0  0  0  0  0
  1  2  1  0
  2  3  1  0
  3  4  2  0
  4  5  1  0
  5  6  2  0
  6  7  1  0
  7  8  1  0
  8  9  1  0
 10  9  1  1
 10 11  1  0
 11 12  1  0
 12 13  1  1
 13 14  1  0
 14 15  2  0
 15 16  1  0
 16 17  2  0
 17 18  1  0
 18 19  1  0
 19 20  2  0
 19 21  1  0
 21 22  2  0
 22 23  1  0
 23 24  2  0
 24 25  1  0
 25 26  2  0
 17 27  1  0
 27 28  2  0
 28 29  1  0
 29 30  2  0
 12 31  1  0
 31 32  1  0
 32 33  1  6
  7 34  1  0
 34 35  2  0
 35 36  1  0
 36 37  2  0
 37 38  1  0
 38 39  2  0
  7 40  1  0
 40 41  2  0
 41 42  1  0
 42 43  2  0
 43 44  1  0
 44 45  2  0
  6 46  1  0
 46 47  2  0
 47  3  1  0
 32 10  1  0
 39 34  1  0
 45 40  1  0
 30 13  1  0
 30 16  1  0
 26 21  1  0
M  END
>  <Binding energies>  (54) 
[-10.04]

>  <Ligand effiencies>  (54) 
[-0.20489795918367346]

>  <Interactions>  (54) 
["V-B:ASP:366:CB:8183, V-B:TYR:531:CZ:9766, V-A:GLU:543:CD:4908, H-A:TYR:484:OH:4348, V-A:PRO:540:C:4881, V-B:ILE:369:CB:8207, V-A:TYR:539:CD1:4873, V-A:PRO:540:CA:4883, V-B:ILE:369:CG2:8208, V-B:LEU:475:CD2:9230, V-A:TYR:539:CE1:4875, V-B:ASP:366:CA:8181, H-A:ALA:541:N:4891, V-B:GLU:543:CB:9878, V-B:GLU:543:CG:9879, V-B:GLU:543:CD:9880, V-B:HIS:456:CD2:9039, V-A:GLY:544:C:4912, V-A:HIS:456:CD2:4068, V-A:HIS:456:CE1:4070, V-B:HIS:456:CE1:9041, H-B:GLU:543:O:9875, V-A:ALA:541:CB:4892, V-A:GLU:543:CG:4907, H-A:HIS:456:NE2:4071, V-B:SER:385:CB:8380, V-B:SER:385:CA:8378, V-B:SER:385:C:8376, V-B:ASP:366:C:8179"]

$$$$
RR8_A_Rahimova_2017
     RDKit          3D

 42 46  0  0  0  0  0  0  0  0999 V2000
  128.9840  126.2700   66.2790 O   0  0  0  0  0  0  0  0  0  0  0  0
  128.9490  127.3200   66.9300 C   0  0  0  0  0  0  0  0  0  0  0  0
  128.7180  128.5570   66.3900 O   0  0  0  0  0  0  0  0  0  0  0  0
  127.8280  128.6370   65.3110 C   0  0  1  0  0  0  0  0  0  0  0  0
  127.2160  129.8930   65.2400 O   0  0  0  0  0  0  0  0  0  0  0  0
  127.0590  130.3300   63.8930 C   0  0  2  0  0  0  0  0  0  0  0  0
  125.5730  130.6450   63.6500 C   0  0  0  0  0  0  0  0  0  0  0  0
  125.4090  132.0540   63.5790 O   0  0  0  0  0  0  0  0  0  0  0  0
  124.4260  132.4760   62.6420 C   0  0  0  0  0  0  0  0  0  0  0  0
  124.7970  133.8430   62.0860 C   0  0  0  0  0  0  0  0  0  0  0  0
  126.1310  134.1400   61.7980 C   0  0  0  0  0  0  0  0  0  0  0  0
  126.4720  135.3890   61.2840 C   0  0  0  0  0  0  0  0  0  0  0  0
  125.4760  136.3360   61.0550 C   0  0  0  0  0  0  0  0  0  0  0  0
  124.1430  136.0470   61.3340 C   0  0  0  0  0  0  0  0  0  0  0  0
  123.8020  134.7980   61.8480 C   0  0  0  0  0  0  0  0  0  0  0  0
  127.6320  129.1720   63.0640 C   0  0  1  0  0  0  0  0  0  0  0  0
  128.3700  129.6100   61.9250 O   0  0  0  0  0  0  0  0  0  0  0  0
  128.6650  131.0010   61.8780 C   0  0  0  0  0  0  0  0  0  0  0  0
  130.1400  131.2090   61.5640 C   0  0  0  0  0  0  0  0  0  0  0  0
  130.6250  130.9120   60.2870 C   0  0  0  0  0  0  0  0  0  0  0  0
  131.9740  131.0910   59.9950 C   0  0  0  0  0  0  0  0  0  0  0  0
  132.8370  131.5640   60.9820 C   0  0  0  0  0  0  0  0  0  0  0  0
  132.3640  131.8550   62.2590 C   0  0  0  0  0  0  0  0  0  0  0  0
  131.0150  131.6740   62.5520 C   0  0  0  0  0  0  0  0  0  0  0  0
  128.6170  128.5160   64.0150 C   0  0  2  0  0  0  0  0  0  0  0  0
  128.8710  127.1690   63.6230 O   0  0  0  0  0  0  0  0  0  0  0  0
  129.7920  127.0030   62.5510 C   0  0  0  0  0  0  0  0  0  0  0  0
  130.9860  126.1820   63.0160 C   0  0  0  0  0  0  0  0  0  0  0  0
  131.9890  125.8220   62.1090 C   0  0  0  0  0  0  0  0  0  0  0  0
  133.0840  125.0800   62.5410 C   0  0  0  0  0  0  0  0  0  0  0  0
  133.1770  124.7010   63.8790 C   0  0  0  0  0  0  0  0  0  0  0  0
  132.1860  125.0600   64.7890 C   0  0  0  0  0  0  0  0  0  0  0  0
  131.0890  125.8040   64.3580 C   0  0  0  0  0  0  0  0  0  0  0  0
  129.1460  127.3650   68.4180 C   0  0  0  0  0  0  0  0  0  0  0  0
  130.3680  127.7470   68.9920 C   0  0  0  0  0  0  0  0  0  0  0  0
  130.5210  127.7780   70.3760 C   0  0  0  0  0  0  0  0  0  0  0  0
  129.4580  127.4270   71.2190 C   0  0  0  0  0  0  0  0  0  0  0  0
  129.6210  127.4620   72.6930 N   0  0  0  0  0  0  0  0  0  0  0  0
  129.2830  126.4800   73.3460 O   0  0  0  0  0  0  0  0  0  0  0  0
  130.0900  128.4730   73.2090 O   0  0  0  0  0  0  0  0  0  0  0  0
  128.2400  127.0440   70.6450 C   0  0  0  0  0  0  0  0  0  0  0  0
  128.0860  127.0120   69.2620 C   0  0  0  0  0  0  0  0  0  0  0  0
  1  2  2  0
  2  3  1  0
  4  3  1  1
  4  5  1  0
  5  6  1  0
  6  7  1  6
  7  8  1  0
  8  9  1  0
  9 10  1  0
 10 11  2  0
 11 12  1  0
 12 13  2  0
 13 14  1  0
 14 15  2  0
  6 16  1  0
 16 17  1  6
 17 18  1  0
 18 19  1  0
 19 20  2  0
 20 21  1  0
 21 22  2  0
 22 23  1  0
 23 24  2  0
 16 25  1  0
 25 26  1  6
 26 27  1  0
 27 28  1  0
 28 29  2  0
 29 30  1  0
 30 31  2  0
 31 32  1  0
 32 33  2  0
  2 34  1  0
 34 35  2  0
 35 36  1  0
 36 37  2  0
 37 38  1  0
 38 39  2  0
 38 40  1  0
 37 41  1  0
 41 42  2  0
 25  4  1  0
 33 28  1  0
 42 34  1  0
 15 10  1  0
 24 19  1  0
M  CHG  2  38   1  40  -1
M  END
>  <Binding energies>  (55) 
[-9.22]

>  <Ligand effiencies>  (55) 
[-0.21952380952380954]

>  <Interactions>  (55) 
["V-A:GLU:543:CD:4908, V-A:ARG:545:CZ:4926, V-A:PRO:540:CB:4885, V-A:TYR:539:CD1:4873, V-B:GLY:454:CA:9020, V-A:PRO:540:CA:4883, V-B:ILE:369:CG2:8208, V-B:LEU:475:CD2:9230, V-A:TYR:539:CE1:4875, V-A:ASP:366:CG:3213, V-B:GLU:543:CB:9878, V-B:GLU:543:CG:9879, V-B:GLU:543:CD:9880, V-A:GLY:544:C:4912, V-A:HIS:456:CE1:4070, H-B:LYS:547:NZ:9923, V-B:HIS:456:CE1:9041, V-B:GLU:543:C:9874, H-A:LYS:547:NZ:4951, V-A:GLU:543:CB:4906, V-A:GLU:543:C:4902, H-B:TYR:484:OH:9319, V-A:GLU:543:CG:4907, V-B:SER:385:CB:8380, V-B:SER:385:CA:8378"]

$$$$
RR8_B_Rahimova_2017
     RDKit          3D

 42 46  0  0  0  0  0  0  0  0999 V2000
  129.3610  125.8430   66.6190 O   0  0  0  0  0  0  0  0  0  0  0  0
  128.8440  126.8140   67.1810 C   0  0  0  0  0  0  0  0  0  0  0  0
  127.8760  127.6030   66.6240 O   0  0  0  0  0  0  0  0  0  0  0  0
  128.2770  128.7770   65.9610 C   0  0  2  0  0  0  0  0  0  0  0  0
  127.2690  129.7480   65.9640 O   0  0  0  0  0  0  0  0  0  0  0  0
  126.4440  129.6470   64.8030 C   0  0  2  0  0  0  0  0  0  0  0  0
  124.9820  129.4260   65.2300 C   0  0  0  0  0  0  0  0  0  0  0  0
  124.1370  130.2680   64.4570 O   0  0  0  0  0  0  0  0  0  0  0  0
  124.1840  130.0400   63.0560 C   0  0  0  0  0  0  0  0  0  0  0  0
  124.2760  131.3760   62.3330 C   0  0  0  0  0  0  0  0  0  0  0  0
  124.3740  131.4050   60.9390 C   0  0  0  0  0  0  0  0  0  0  0  0
  124.4840  132.6230   60.2730 C   0  0  0  0  0  0  0  0  0  0  0  0
  124.4920  133.8090   61.0050 C   0  0  0  0  0  0  0  0  0  0  0  0
  124.3880  133.7880   62.3930 C   0  0  0  0  0  0  0  0  0  0  0  0
  124.2820  132.5700   63.0600 C   0  0  0  0  0  0  0  0  0  0  0  0
  127.0730  128.5110   63.9890 C   0  0  1  0  0  0  0  0  0  0  0  0
  126.9600  128.7940   62.5910 O   0  0  0  0  0  0  0  0  0  0  0  0
  128.1070  129.3530   61.9460 C   0  0  0  0  0  0  0  0  0  0  0  0
  128.0970  130.8780   61.9680 C   0  0  0  0  0  0  0  0  0  0  0  0
  127.9140  131.5950   60.7830 C   0  0  0  0  0  0  0  0  0  0  0  0
  127.8740  132.9870   60.8110 C   0  0  0  0  0  0  0  0  0  0  0  0
  128.0200  133.6560   62.0240 C   0  0  0  0  0  0  0  0  0  0  0  0
  128.2070  132.9480   63.2090 C   0  0  0  0  0  0  0  0  0  0  0  0
  128.2440  131.5560   63.1820 C   0  0  0  0  0  0  0  0  0  0  0  0
  128.5150  128.4720   64.4830 C   0  0  2  0  0  0  0  0  0  0  0  0
  129.0870  127.1880   64.2460 O   0  0  0  0  0  0  0  0  0  0  0  0
  129.6990  127.0140   62.9770 C   0  0  0  0  0  0  0  0  0  0  0  0
  130.9340  126.1480   63.1600 C   0  0  0  0  0  0  0  0  0  0  0  0
  131.7600  125.8580   62.0700 C   0  0  0  0  0  0  0  0  0  0  0  0
  132.8780  125.0470   62.2460 C   0  0  0  0  0  0  0  0  0  0  0  0
  133.1670  124.5310   63.5070 C   0  0  0  0  0  0  0  0  0  0  0  0
  132.3480  124.8180   64.5980 C   0  0  0  0  0  0  0  0  0  0  0  0
  131.2300  125.6280   64.4230 C   0  0  0  0  0  0  0  0  0  0  0  0
  129.2450  127.2780   68.5510 C   0  0  0  0  0  0  0  0  0  0  0  0
  130.5540  127.6920   68.8380 C   0  0  0  0  0  0  0  0  0  0  0  0
  130.8990  128.1100   70.1190 C   0  0  0  0  0  0  0  0  0  0  0  0
  129.9490  128.1140   71.1480 C   0  0  0  0  0  0  0  0  0  0  0  0
  130.3260  128.5340   72.5200 N   0  0  0  0  0  0  0  0  0  0  0  0
  130.0830  129.6860   72.8700 O   0  0  0  0  0  0  0  0  0  0  0  0
  130.8640  127.7140   73.2600 O   0  0  0  0  0  0  0  0  0  0  0  0
  128.6400  127.7060   70.8590 C   0  0  0  0  0  0  0  0  0  0  0  0
  128.2920  127.2950   69.5770 C   0  0  0  0  0  0  0  0  0  0  0  0
  1  2  2  0
  2  3  1  0
  4  3  1  1
  4  5  1  0
  5  6  1  0
  6  7  1  1
  7  8  1  0
  8  9  1  0
  9 10  1  0
 10 11  2  0
 11 12  1  0
 12 13  2  0
 13 14  1  0
 14 15  2  0
  6 16  1  0
 16 17  1  6
 17 18  1  0
 18 19  1  0
 19 20  2  0
 20 21  1  0
 21 22  2  0
 22 23  1  0
 23 24  2  0
 16 25  1  0
 25 26  1  1
 26 27  1  0
 27 28  1  0
 28 29  2  0
 29 30  1  0
 30 31  2  0
 31 32  1  0
 32 33  2  0
  2 34  1  0
 34 35  2  0
 35 36  1  0
 36 37  2  0
 37 38  1  0
 38 39  2  0
 38 40  1  0
 37 41  1  0
 41 42  2  0
 25  4  1  0
 33 28  1  0
 42 34  1  0
 15 10  1  0
 24 19  1  0
M  CHG  2  38   1  40  -1
M  END
>  <Binding energies>  (56) 
[-8.92]

>  <Ligand effiencies>  (56) 
[-0.2123809523809524]

>  <Interactions>  (56) 
["V-A:GLU:543:CD:4908, V-A:ARG:545:CZ:4926, V-A:TYR:539:CD1:4873, V-B:GLY:454:CA:9020, V-B:ILE:369:CG2:8208, V-B:LEU:475:CD2:9230, V-A:TYR:539:CE1:4875, H-B:GLY:454:N:9021, H-B:ARG:545:NH2:9900, V-A:ASP:366:CG:3213, V-B:GLU:543:CB:9878, V-B:GLU:543:CG:9879, V-B:GLU:543:CD:9880, V-B:HIS:456:CD2:9039, V-A:GLY:544:C:4912, V-A:HIS:456:CE1:4070, V-B:HIS:456:CE1:9041, H-A:LYS:547:NZ:4951, V-A:GLU:543:CB:4906, V-A:GLU:543:C:4902, V-B:ARG:545:CZ:9898, H-B:TYR:484:OH:9319, V-A:ALA:541:CB:4892, V-A:GLU:543:CG:4907, V-B:ARG:545:CD:9895"]

$$$$
RR9_Rahimova_2017
     RDKit          3D

 36 40  0  0  0  0  0  0  0  0999 V2000
  127.1540  127.3490   72.5000 C   0  0  0  0  0  0  0  0  0  0  0  0
  128.6440  127.7010   72.4430 C   0  0  0  0  0  0  0  0  0  0  0  0
  128.8970  128.4300   71.2460 O   0  0  0  0  0  0  0  0  0  0  0  0
  129.4420  127.7780   70.1560 C   0  0  0  0  0  0  0  0  0  0  0  0
  128.6770  126.7580   69.5940 C   0  0  0  0  0  0  0  0  0  0  0  0
  129.1460  126.0440   68.4960 C   0  0  0  0  0  0  0  0  0  0  0  0
  130.3960  126.3310   67.9270 C   0  0  0  0  0  0  0  0  0  0  0  0
  130.9080  125.5620   66.7460 C   0  0  0  0  0  0  0  0  0  0  0  0
  130.0990  124.6430   66.0590 C   0  0  0  0  0  0  0  0  0  0  0  0
  130.5800  123.9340   64.9440 C   0  0  0  0  0  0  0  0  0  0  0  0
  129.6330  123.0400   64.1890 C   0  0  0  0  0  0  0  0  0  0  0  0
  129.6560  121.8210   64.3620 O   0  0  0  0  0  0  0  0  0  0  0  0
  128.8070  123.6600   63.3240 N   0  0  0  0  0  0  0  0  0  0  0  0
  127.8930  123.0000   62.3850 C   0  0  0  0  0  0  0  0  0  0  0  0
  128.4530  122.9240   60.9460 C   0  0  0  0  0  0  0  0  0  0  0  0
  127.4280  123.1870   59.8490 C   0  0  0  0  0  0  0  0  0  0  0  0
  127.6950  122.8000   58.5320 C   0  0  0  0  0  0  0  0  0  0  0  0
  126.7420  123.0110   57.5390 C   0  0  0  0  0  0  0  0  0  0  0  0
  125.5280  123.6110   57.8640 C   0  0  0  0  0  0  0  0  0  0  0  0
  125.2570  124.0040   59.1730 C   0  0  0  0  0  0  0  0  0  0  0  0
  126.2090  123.7930   60.1670 C   0  0  0  0  0  0  0  0  0  0  0  0
  131.9280  124.1750   64.5810 C   0  0  0  0  0  0  0  0  0  0  0  0
  132.8880  123.7200   63.6030 C   0  0  0  0  0  0  0  0  0  0  0  0
  132.7550  122.6500   62.5700 C   0  0  0  0  0  0  0  0  0  0  0  0
  131.5270  122.4300   61.9380 C   0  0  0  0  0  0  0  0  0  0  0  0
  131.4020  121.4210   60.9860 C   0  0  0  0  0  0  0  0  0  0  0  0
  132.5050  120.6310   60.6600 C   0  0  0  0  0  0  0  0  0  0  0  0
  132.3640  119.5190   59.6350 C   0  0  0  0  0  0  0  0  0  0  0  0
  133.7320  120.8470   61.2890 C   0  0  0  0  0  0  0  0  0  0  0  0
  133.8560  121.8570   62.2380 C   0  0  0  0  0  0  0  0  0  0  0  0
  134.0180  124.3790   63.7250 N   0  0  0  0  0  0  0  0  0  0  0  0
  133.8980  125.2150   64.7690 N   0  0  0  0  0  0  0  0  0  0  0  0
  132.6500  125.1270   65.3390 C   0  0  0  0  0  0  0  0  0  0  0  0
  132.1990  125.8110   66.3890 N   0  0  0  0  0  0  0  0  0  0  0  0
  131.1600  127.3580   68.4990 C   0  0  0  0  0  0  0  0  0  0  0  0
  130.6930  128.0750   69.5980 C   0  0  0  0  0  0  0  0  0  0  0  0
  1  2  1  0
  2  3  1  0
  3  4  1  0
  4  5  2  0
  5  6  1  0
  6  7  2  0
  7  8  1  0
  8  9  2  0
  9 10  1  0
 10 11  1  0
 11 12  2  0
 11 13  1  0
 13 14  1  0
 14 15  1  0
 15 16  1  0
 16 17  2  0
 17 18  1  0
 18 19  2  0
 19 20  1  0
 20 21  2  0
 10 22  2  0
 22 23  1  0
 23 24  1  0
 24 25  2  0
 25 26  1  0
 26 27  2  0
 27 28  1  0
 27 29  1  0
 29 30  2  0
 23 31  2  0
 31 32  1  0
 32 33  1  0
 33 34  2  0
  7 35  1  0
 35 36  2  0
 36  4  1  0
 34  8  1  0
 21 16  1  0
 33 22  1  0
 30 24  1  0
M  END
>  <Binding energies>  (57) 
[-9.06]

>  <Ligand effiencies>  (57) 
[-0.23842105263157895]

>  <Interactions>  (57) 
["V-B:PRO:540:N:9856, V-A:ARG:545:CD:4923, V-B:TYR:539:CD2:9846, V-A:GLU:543:CD:4908, H-A:GLY:454:N:4050, V-B:PRO:540:CB:9857, H-A:TYR:484:OH:4348, V-B:TYR:539:CE2:9848, H-A:ARG:545:NE:4924, V-A:ARG:545:CZ:4926, V-A:LEU:475:CD2:4259, V-B:PRO:540:CA:9855, V-A:ILE:369:CD1:3239, V-A:GLY:453:C:4042, V-A:GLY:454:CA:4049, V-A:ILE:369:CG2:3237, V-A:TYR:484:CZ:4347, V-B:GLU:543:CB:9878, V-B:GLU:543:CG:9879, V-A:SER:385:C:3405, V-A:TYR:484:CE2:4346, V-B:GLU:543:CD:9880, H-B:GLU:543:OE1:9881, V-B:ALA:541:CB:9864, V-B:HIS:456:CD2:9039, V-B:GLY:544:C:9884, V-B:HIS:456:CG:9037, V-A:HIS:456:CE1:4070, V-B:LYS:547:CE:9922, V-B:HIS:456:CE1:9041, V-B:GLU:543:C:9874, H-A:ARG:545:NH2:4928, V-A:GLU:543:CB:4906, V-A:GLU:543:C:4902, V-A:GLY:453:CA:4044, V-B:TYR:539:CG:9844, V-B:TYR:539:C:9839, V-B:GLU:543:CA:9876, V-A:SER:385:CA:3407, V-A:SER:385:CB:3409, V-A:ARG:545:CG:4922, V-A:GLU:543:CA:4904"]

$$$$
