1a_Ghoteimi_2023
     RDKit          3D

 67 70  0  0  0  0  0  0  0  0999 V2000
  127.0880  131.8750   57.5710 C   0  0  0  0  0  0  0  0  0  0  0  0
  126.6720  130.4310   57.2710 C   0  0  0  0  0  0  0  0  0  0  0  0
  125.2570  130.3200   57.3630 O   0  0  0  0  0  0  0  0  0  0  0  0
  124.5680  130.9400   58.3550 C   0  0  0  0  0  0  0  0  0  0  0  0
  123.7260  131.8200   58.1520 O   0  0  0  0  0  0  0  0  0  0  0  0
  124.9290  130.4440   59.7260 C   0  0  0  0  0  0  0  0  0  0  0  0
  125.6170  129.2380   59.9210 C   0  0  0  0  0  0  0  0  0  0  0  0
  125.9350  128.8020   61.2050 C   0  0  0  0  0  0  0  0  0  0  0  0
  125.5730  129.5710   62.3200 C   0  0  0  0  0  0  0  0  0  0  0  0
  125.8380  129.2250   63.6590 N   0  0  0  0  0  0  0  0  0  0  0  0
  125.1850  129.5740   64.7890 C   0  0  0  0  0  0  0  0  0  0  0  0
  124.1800  130.2820   64.8460 O   0  0  0  0  0  0  0  0  0  0  0  0
  125.7720  129.0170   66.0860 C   0  0  0  0  0  0  0  0  0  0  0  0
  127.4230  129.6950   66.4230 S   0  0  0  0  0  0  0  0  0  0  0  0
  128.4330  128.3170   66.9180 C   0  0  0  0  0  0  0  0  0  0  0  0
  128.6460  128.2430   68.2530 N   0  0  0  0  0  0  0  0  0  0  0  0
  129.3990  127.2320   68.7620 C   0  0  0  0  0  0  0  0  0  0  0  0
  129.5720  127.2080   70.2530 C   0  0  0  0  0  0  0  0  0  0  0  0
  128.6050  126.6270   71.0900 C   0  0  0  0  0  0  0  0  0  0  0  0
  128.7690  126.6060   72.4720 C   0  0  0  0  0  0  0  0  0  0  0  0
  129.9010  127.1640   73.0610 C   0  0  0  0  0  0  0  0  0  0  0  0
  129.9810  127.0940   74.4390 O   0  0  0  0  0  0  0  0  0  0  0  0
  130.9950  126.2940   75.0360 C   0  0  0  0  0  0  0  0  0  0  0  0
  130.8730  127.7500   72.2390 C   0  0  0  0  0  0  0  0  0  0  0  0
  130.7060  127.7710   70.8580 C   0  0  0  0  0  0  0  0  0  0  0  0
  129.9580  126.2660   67.9170 C   0  0  0  0  0  0  0  0  0  0  0  0
  129.7710  126.3350   66.5300 C   0  0  0  0  0  0  0  0  0  0  0  0
  130.4240  125.2880   65.6870 C   0  0  0  0  0  0  0  0  0  0  0  0
  131.6500  125.5330   65.0600 C   0  0  0  0  0  0  0  0  0  0  0  0
  132.2580  124.5460   64.2890 C   0  0  0  0  0  0  0  0  0  0  0  0
  131.6600  123.2960   64.1350 C   0  0  0  0  0  0  0  0  0  0  0  0
  132.3370  122.3810   63.3540 O   0  0  0  0  0  0  0  0  0  0  0  0
  133.5040  122.7950   62.6520 C   0  0  0  0  0  0  0  0  0  0  0  0
  130.4340  123.0440   64.7700 C   0  0  0  0  0  0  0  0  0  0  0  0
  129.8270  124.0320   65.5400 C   0  0  0  0  0  0  0  0  0  0  0  0
  128.9830  127.3890   66.0080 C   0  0  0  0  0  0  0  0  0  0  0  0
  128.7400  127.5050   64.5660 C   0  0  0  0  0  0  0  0  0  0  0  0
  128.5480  127.5960   63.4280 N   0  0  0  0  0  0  0  0  0  0  0  0
  124.8840  130.7690   62.1300 C   0  0  0  0  0  0  0  0  0  0  0  0
  124.5660  131.2040   60.8450 C   0  0  0  0  0  0  0  0  0  0  0  0
  127.1313  132.0254   58.6598 H   0  0  0  0  0  0  0  0  0  0  0  0
  128.0787  132.0694   57.1343 H   0  0  0  0  0  0  0  0  0  0  0  0
  126.3526  132.5667   57.1343 H   0  0  0  0  0  0  0  0  0  0  0  0
  126.9966  130.1586   56.2559 H   0  0  0  0  0  0  0  0  0  0  0  0
  127.1426  129.7535   57.9987 H   0  0  0  0  0  0  0  0  0  0  0  0
  125.9084  128.6304   59.0516 H   0  0  0  0  0  0  0  0  0  0  0  0
  126.4715  127.8519   61.3446 H   0  0  0  0  0  0  0  0  0  0  0  0
  126.6190  128.5960   63.7740 H   0  0  0  0  0  0  0  0  0  0  0  0
  125.1033  129.2763   66.9200 H   0  0  0  0  0  0  0  0  0  0  0  0
  125.8649  127.9262   65.9792 H   0  0  0  0  0  0  0  0  0  0  0  0
  127.7029  126.1811   70.6457 H   0  0  0  0  0  0  0  0  0  0  0  0
  127.9971  126.1442   73.1051 H   0  0  0  0  0  0  0  0  0  0  0  0
  130.9147  126.3574   76.1312 H   0  0  0  0  0  0  0  0  0  0  0  0
  130.8708  125.2480   74.7191 H   0  0  0  0  0  0  0  0  0  0  0  0
  131.9834  126.6582   74.7191 H   0  0  0  0  0  0  0  0  0  0  0  0
  131.7728  128.1957   72.6881 H   0  0  0  0  0  0  0  0  0  0  0  0
  131.4777  128.2379   70.2283 H   0  0  0  0  0  0  0  0  0  0  0  0
  130.5501  125.4443   68.3462 H   0  0  0  0  0  0  0  0  0  0  0  0
  132.1372  126.5123   65.1769 H   0  0  0  0  0  0  0  0  0  0  0  0
  133.2193  124.7544   63.7966 H   0  0  0  0  0  0  0  0  0  0  0  0
  134.2867  123.0727   63.3734 H   0  0  0  0  0  0  0  0  0  0  0  0
  133.8639  121.9697   62.0201 H   0  0  0  0  0  0  0  0  0  0  0  0
  133.2633  123.6626   62.0201 H   0  0  0  0  0  0  0  0  0  0  0  0
  129.9510  122.0620   64.6588 H   0  0  0  0  0  0  0  0  0  0  0  0
  128.8686  123.8228   66.0376 H   0  0  0  0  0  0  0  0  0  0  0  0
  124.5898  131.3742   63.0002 H   0  0  0  0  0  0  0  0  0  0  0  0
  124.0254  132.1522   60.7083 H   0  0  0  0  0  0  0  0  0  0  0  0
  1  2  1  0
  2  3  1  0
  3  4  1  0
  4  5  2  0
  4  6  1  0
  6  7  2  0
  7  8  1  0
  8  9  2  0
  9 10  1  0
 10 11  1  0
 11 12  2  0
 11 13  1  0
 13 14  1  0
 14 15  1  0
 15 16  2  0
 16 17  1  0
 17 18  1  0
 18 19  2  0
 19 20  1  0
 20 21  2  0
 21 22  1  0
 22 23  1  0
 21 24  1  0
 24 25  2  0
 17 26  2  0
 26 27  1  0
 27 28  1  0
 28 29  2  0
 29 30  1  0
 30 31  2  0
 31 32  1  0
 32 33  1  0
 31 34  1  0
 34 35  2  0
 27 36  2  0
 36 37  1  0
 37 38  3  0
  9 39  1  0
 39 40  2  0
 40  6  1  0
 36 15  1  0
 25 18  1  0
 35 28  1  0
  1 41  1  0
  1 42  1  0
  1 43  1  0
  2 44  1  0
  2 45  1  0
  7 46  1  0
  8 47  1  0
 10 48  1  0
 13 49  1  0
 13 50  1  0
 19 51  1  0
 20 52  1  0
 23 53  1  0
 23 54  1  0
 23 55  1  0
 24 56  1  0
 25 57  1  0
 26 58  1  0
 29 59  1  0
 30 60  1  0
 33 61  1  0
 33 62  1  0
 33 63  1  0
 34 64  1  0
 35 65  1  0
 39 66  1  0
 40 67  1  0
M  END
>  <Binding energies>  (1) 
[-8.46]

>  <Ligand effiencies>  (1) 
[-0.20634146341463416]

>  <Interactions>  (1) 
["V-B:ASP:366:CB:8183, V-A:GLU:543:CD:4908, V-B:ASP:366:CG:8184, H-A:TYR:484:OH:4348, V-A:ARG:545:CZ:4926, V-A:LEU:475:CD2:4259, V-A:TYR:539:CD1:4873, V-A:TYR:539:CE1:4875, H-B:GLY:454:N:9021, H-B:TYR:531:OH:9767, V-A:GLY:454:CA:4049, V-A:TYR:484:CZ:4347, V-B:GLU:543:CB:9878, V-B:GLU:543:CG:9879, V-A:TYR:484:CE2:4346, V-B:GLU:543:CD:9880, H-B:GLU:543:OE1:9881, V-A:GLY:544:C:4912, V-A:HIS:456:CD2:4068, V-A:HIS:456:CE1:4070, H-B:LYS:547:NZ:9923, V-B:HIS:456:CE1:9041, V-B:GLU:543:C:9874, H-A:LYS:547:NZ:4951, V-A:GLU:543:CB:4906, V-A:GLU:543:C:4902, V-B:ARG:545:CZ:9898, H-B:TYR:484:OH:9319, V-A:GLU:543:CG:4907, H-B:ARG:545:NE:9896, V-A:TYR:539:CZ:4877, H-B:GLU:543:OE2:9882, H-A:TYR:539:OH:4878"]

$$$$
1a_Grossjean_2025
     RDKit          3D

 45 46  0  0  0  0  0  0  0  0999 V2000
  130.1540  132.3930   73.2760 C   0  0  0  0  0  0  0  0  0  0  0  0
  129.2970  131.1330   73.4230 C   0  0  0  0  0  0  0  0  0  0  0  0
  130.0460  129.9990   73.0050 O   0  0  0  0  0  0  0  0  0  0  0  0
  129.4630  128.7770   72.8910 C   0  0  0  0  0  0  0  0  0  0  0  0
  128.8860  128.2100   73.8240 O   0  0  0  0  0  0  0  0  0  0  0  0
  129.6030  128.1780   71.5220 C   0  0  0  0  0  0  0  0  0  0  0  0
  130.8270  128.2910   70.8490 C   0  0  0  0  0  0  0  0  0  0  0  0
  130.9870  127.7500   69.5770 C   0  0  0  0  0  0  0  0  0  0  0  0
  129.9310  127.0870   68.9500 C   0  0  0  0  0  0  0  0  0  0  0  0
  130.2040  126.5820   67.6640 N   0  0  0  0  0  0  0  0  0  0  0  0
  130.0910  125.3260   67.1830 C   0  0  0  0  0  0  0  0  0  0  0  0
  129.7060  124.3470   67.8220 O   0  0  0  0  0  0  0  0  0  0  0  0
  130.4860  125.1480   65.7150 C   0  0  0  0  0  0  0  0  0  0  0  0
  130.2490  123.4390   65.1440 S   0  0  0  0  0  0  0  0  0  0  0  0
  130.8740  123.3400   63.4810 C   0  0  0  0  0  0  0  0  0  0  0  0
  129.9720  122.8710   62.5840 N   0  0  0  0  0  0  0  0  0  0  0  0
  130.3450  122.7490   61.2880 C   0  0  0  0  0  0  0  0  0  0  0  0
  129.2880  122.2060   60.3450 C   0  0  0  0  0  0  0  0  0  0  0  0
  131.6160  123.0970   60.8360 C   0  0  0  0  0  0  0  0  0  0  0  0
  132.5480  123.6020   61.7500 C   0  0  0  0  0  0  0  0  0  0  0  0
  133.9300  123.9910   61.2290 C   0  0  0  0  0  0  0  0  0  0  0  0
  132.1790  123.7400   63.1080 C   0  0  0  0  0  0  0  0  0  0  0  0
  133.1220  124.3120   64.0730 C   0  0  0  0  0  0  0  0  0  0  0  0
  133.8680  124.7640   64.8340 N   0  0  0  0  0  0  0  0  0  0  0  0
  128.7040  126.9620   69.6200 C   0  0  0  0  0  0  0  0  0  0  0  0
  128.5450  127.5040   70.8920 C   0  0  0  0  0  0  0  0  0  0  0  0
  130.4153  132.7771   74.2731 H   0  0  0  0  0  0  0  0  0  0  0  0
  131.0739  132.1485   72.7246 H   0  0  0  0  0  0  0  0  0  0  0  0
  129.5886  133.1587   72.7246 H   0  0  0  0  0  0  0  0  0  0  0  0
  129.0028  131.0104   74.4758 H   0  0  0  0  0  0  0  0  0  0  0  0
  128.3959  131.2276   72.7992 H   0  0  0  0  0  0  0  0  0  0  0  0
  131.6681  128.8116   71.3302 H   0  0  0  0  0  0  0  0  0  0  0  0
  131.9539  127.8457   69.0613 H   0  0  0  0  0  0  0  0  0  0  0  0
  130.5000  127.2850   67.0030 H   0  0  0  0  0  0  0  0  0  0  0  0
  129.8679  125.8168   65.0980 H   0  0  0  0  0  0  0  0  0  0  0  0
  131.5547  125.3910   65.6205 H   0  0  0  0  0  0  0  0  0  0  0  0
  128.4591  121.7802   60.9295 H   0  0  0  0  0  0  0  0  0  0  0  0
  128.9088  123.0209   59.7109 H   0  0  0  0  0  0  0  0  0  0  0  0
  129.7296  121.4232   59.7109 H   0  0  0  0  0  0  0  0  0  0  0  0
  131.8833  122.9766   59.7758 H   0  0  0  0  0  0  0  0  0  0  0  0
  134.6023  124.1802   62.0788 H   0  0  0  0  0  0  0  0  0  0  0  0
  134.3349  123.1719   60.6165 H   0  0  0  0  0  0  0  0  0  0  0  0
  133.8482  124.9010   60.6165 H   0  0  0  0  0  0  0  0  0  0  0  0
  127.8668  126.4349   69.1390 H   0  0  0  0  0  0  0  0  0  0  0  0
  127.5795  127.4031   71.4094 H   0  0  0  0  0  0  0  0  0  0  0  0
  1  2  1  0
  2  3  1  0
  3  4  1  0
  4  5  2  0
  4  6  1  0
  6  7  2  0
  7  8  1  0
  8  9  2  0
  9 10  1  0
 10 11  1  0
 11 12  2  0
 11 13  1  0
 13 14  1  0
 14 15  1  0
 15 16  2  0
 16 17  1  0
 17 18  1  0
 17 19  2  0
 19 20  1  0
 20 21  1  0
 20 22  2  0
 22 23  1  0
 23 24  3  0
  9 25  1  0
 25 26  2  0
 26  6  1  0
 22 15  1  0
  1 27  1  0
  1 28  1  0
  1 29  1  0
  2 30  1  0
  2 31  1  0
  7 32  1  0
  8 33  1  0
 10 34  1  0
 13 35  1  0
 13 36  1  0
 18 37  1  0
 18 38  1  0
 18 39  1  0
 19 40  1  0
 21 41  1  0
 21 42  1  0
 21 43  1  0
 25 44  1  0
 26 45  1  0
M  END
>  <Binding energies>  (1) 
[-7.91]

>  <Ligand effiencies>  (1) 
[-0.292962962962963]

>  <Interactions>  (1) 
["V-B:TYR:539:CD2:9846, V-A:GLU:543:CD:4908, H-A:GLY:454:N:4050, H-A:TYR:484:OH:4348, V-B:TYR:539:CE2:9848, H-A:ARG:545:NE:4924, V-A:ARG:545:CZ:4926, V-A:LEU:475:CD2:4259, V-B:PRO:540:CA:9855, V-A:ILE:369:CD1:3239, V-A:GLY:454:CA:4049, H-A:GLU:543:OE2:4910, V-B:GLU:543:CB:9878, V-B:GLU:543:CG:9879, V-A:TYR:484:CE2:4346, V-B:HIS:456:CD2:9039, V-A:GLY:544:C:4912, V-A:LYS:547:CE:4950, V-A:HIS:456:CE1:4070, H-B:LYS:547:NZ:9923, V-B:HIS:456:CE1:9041, H-A:LYS:547:NZ:4951, H-A:GLU:543:OE1:4909, H-A:ARG:545:NH2:4928, V-A:GLU:543:CB:4906, V-A:GLU:543:C:4902, V-A:GLY:544:CA:4914"]

$$$$
1aa_Ghoteimi_2023
     RDKit          3D

 67 70  0  0  0  0  0  0  0  0999 V2000
  131.7820  126.5150   74.9680 C   0  0  0  0  0  0  0  0  0  0  0  0
  130.6970  125.8460   74.1190 C   0  0  0  0  0  0  0  0  0  0  0  0
  129.5250  126.6510   74.1280 O   0  0  0  0  0  0  0  0  0  0  0  0
  129.5050  127.8680   73.5270 C   0  0  0  0  0  0  0  0  0  0  0  0
  129.4040  128.9320   74.1460 O   0  0  0  0  0  0  0  0  0  0  0  0
  129.6200  127.7930   72.0310 C   0  0  0  0  0  0  0  0  0  0  0  0
  130.8200  128.0790   71.3630 C   0  0  0  0  0  0  0  0  0  0  0  0
  130.8960  128.0010   69.9740 C   0  0  0  0  0  0  0  0  0  0  0  0
  129.7690  127.6300   69.2270 C   0  0  0  0  0  0  0  0  0  0  0  0
  129.7270  127.5190   67.8250 N   0  0  0  0  0  0  0  0  0  0  0  0
  128.6740  127.5240   66.9760 C   0  0  0  0  0  0  0  0  0  0  0  0
  127.4970  127.6420   67.3160 O   0  0  0  0  0  0  0  0  0  0  0  0
  128.9770  127.3750   65.4770 C   0  0  0  0  0  0  0  0  0  0  0  0
  129.5650  126.0950   65.2090 O   0  0  0  0  0  0  0  0  0  0  0  0
  129.9480  125.7540   63.9190 C   0  0  0  0  0  0  0  0  0  0  0  0
  130.1770  126.7620   63.0320 N   0  0  0  0  0  0  0  0  0  0  0  0
  130.5410  126.4680   61.7560 C   0  0  0  0  0  0  0  0  0  0  0  0
  130.7760  127.6350   60.8400 C   0  0  0  0  0  0  0  0  0  0  0  0
  130.5990  128.9520   61.2890 C   0  0  0  0  0  0  0  0  0  0  0  0
  130.8150  130.0360   60.4420 C   0  0  0  0  0  0  0  0  0  0  0  0
  131.2160  129.8370   59.1230 C   0  0  0  0  0  0  0  0  0  0  0  0
  131.4060  130.9710   58.3560 O   0  0  0  0  0  0  0  0  0  0  0  0
  132.3020  130.9190   57.2510 C   0  0  0  0  0  0  0  0  0  0  0  0
  131.4030  128.5270   58.6610 C   0  0  0  0  0  0  0  0  0  0  0  0
  131.1870  127.4460   59.5110 C   0  0  0  0  0  0  0  0  0  0  0  0
  130.7020  125.1390   61.3480 C   0  0  0  0  0  0  0  0  0  0  0  0
  130.4840  124.0840   62.2440 C   0  0  0  0  0  0  0  0  0  0  0  0
  130.6830  122.6890   61.7500 C   0  0  0  0  0  0  0  0  0  0  0  0
  129.5810  121.8540   61.5390 C   0  0  0  0  0  0  0  0  0  0  0  0
  129.7580  120.5550   61.0700 C   0  0  0  0  0  0  0  0  0  0  0  0
  131.0350  120.0670   60.7960 C   0  0  0  0  0  0  0  0  0  0  0  0
  131.1140  118.7670   60.3340 O   0  0  0  0  0  0  0  0  0  0  0  0
  130.7810  117.6970   61.2110 C   0  0  0  0  0  0  0  0  0  0  0  0
  132.1420  120.9040   60.9990 C   0  0  0  0  0  0  0  0  0  0  0  0
  131.9640  122.2020   61.4690 C   0  0  0  0  0  0  0  0  0  0  0  0
  130.0870  124.4020   63.5640 C   0  0  0  0  0  0  0  0  0  0  0  0
  129.7940  123.3670   64.5570 C   0  0  0  0  0  0  0  0  0  0  0  0
  129.5620  122.5510   65.3430 N   0  0  0  0  0  0  0  0  0  0  0  0
  128.5730  127.3470   69.8890 C   0  0  0  0  0  0  0  0  0  0  0  0
  128.4980  127.4270   71.2760 C   0  0  0  0  0  0  0  0  0  0  0  0
  131.5524  126.3734   76.0344 H   0  0  0  0  0  0  0  0  0  0  0  0
  132.7578  126.0615   74.7397 H   0  0  0  0  0  0  0  0  0  0  0  0
  131.8151  127.5905   74.7397 H   0  0  0  0  0  0  0  0  0  0  0  0
  131.0570  125.7340   73.0856 H   0  0  0  0  0  0  0  0  0  0  0  0
  130.4644  124.8549   74.5356 H   0  0  0  0  0  0  0  0  0  0  0  0
  131.7098  128.3677   71.9416 H   0  0  0  0  0  0  0  0  0  0  0  0
  131.8422  128.2310   69.4623 H   0  0  0  0  0  0  0  0  0  0  0  0
  130.6360  127.4260   67.3940 H   0  0  0  0  0  0  0  0  0  0  0  0
  128.0409  127.4699   64.9072 H   0  0  0  0  0  0  0  0  0  0  0  0
  129.6847  128.1618   65.1769 H   0  0  0  0  0  0  0  0  0  0  0  0
  130.2843  129.1316   62.3276 H   0  0  0  0  0  0  0  0  0  0  0  0
  130.6676  131.0591   60.8181 H   0  0  0  0  0  0  0  0  0  0  0  0
  133.3364  130.8590   57.6202 H   0  0  0  0  0  0  0  0  0  0  0  0
  132.0789  130.0323   56.6395 H   0  0  0  0  0  0  0  0  0  0  0  0
  132.1830  131.8256   56.6395 H   0  0  0  0  0  0  0  0  0  0  0  0
  131.7217  128.3525   57.6227 H   0  0  0  0  0  0  0  0  0  0  0  0
  131.3413  126.4241   59.1342 H   0  0  0  0  0  0  0  0  0  0  0  0
  131.0029  124.9203   60.3128 H   0  0  0  0  0  0  0  0  0  0  0  0
  128.5667  122.2264   61.7452 H   0  0  0  0  0  0  0  0  0  0  0  0
  128.8823  119.9078   60.9142 H   0  0  0  0  0  0  0  0  0  0  0  0
  130.8851  118.0316   62.2537 H   0  0  0  0  0  0  0  0  0  0  0  0
  129.7427  117.3830   61.0286 H   0  0  0  0  0  0  0  0  0  0  0  0
  131.4578  116.8493   61.0286 H   0  0  0  0  0  0  0  0  0  0  0  0
  133.1554  120.5330   60.7858 H   0  0  0  0  0  0  0  0  0  0  0  0
  132.8390  122.8511   61.6209 H   0  0  0  0  0  0  0  0  0  0  0  0
  127.6834  127.0586   69.3098 H   0  0  0  0  0  0  0  0  0  0  0  0
  127.5491  127.2008   71.7844 H   0  0  0  0  0  0  0  0  0  0  0  0
  1  2  1  0
  2  3  1  0
  3  4  1  0
  4  5  2  0
  4  6  1  0
  6  7  2  0
  7  8  1  0
  8  9  2  0
  9 10  1  0
 10 11  1  0
 11 12  2  0
 11 13  1  0
 13 14  1  0
 14 15  1  0
 15 16  2  0
 16 17  1  0
 17 18  1  0
 18 19  2  0
 19 20  1  0
 20 21  2  0
 21 22  1  0
 22 23  1  0
 21 24  1  0
 24 25  2  0
 17 26  2  0
 26 27  1  0
 27 28  1  0
 28 29  2  0
 29 30  1  0
 30 31  2  0
 31 32  1  0
 32 33  1  0
 31 34  1  0
 34 35  2  0
 27 36  2  0
 36 37  1  0
 37 38  3  0
  9 39  1  0
 39 40  2  0
 40  6  1  0
 36 15  1  0
 25 18  1  0
 35 28  1  0
  1 41  1  0
  1 42  1  0
  1 43  1  0
  2 44  1  0
  2 45  1  0
  7 46  1  0
  8 47  1  0
 10 48  1  0
 13 49  1  0
 13 50  1  0
 19 51  1  0
 20 52  1  0
 23 53  1  0
 23 54  1  0
 23 55  1  0
 24 56  1  0
 25 57  1  0
 26 58  1  0
 29 59  1  0
 30 60  1  0
 33 61  1  0
 33 62  1  0
 33 63  1  0
 34 64  1  0
 35 65  1  0
 39 66  1  0
 40 67  1  0
M  END
>  <Binding energies>  (1) 
[-7.42]

>  <Ligand effiencies>  (1) 
[-0.18097560975609756]

>  <Interactions>  (1) 
["V-B:TYR:539:CD2:9846, V-A:GLU:543:CD:4908, H-A:TYR:484:OH:4348, V-B:TYR:539:CE2:9848, V-A:LEU:475:CD2:4259, V-A:TYR:531:CE2:4793, V-A:ASP:366:CB:3212, V-A:TYR:531:CZ:4794, V-A:ASP:366:CG:3213, H-A:GLU:543:OE2:4910, V-B:GLU:543:CB:9878, V-B:GLU:543:CG:9879, V-A:TYR:484:CE2:4346, V-B:GLU:543:CD:9880, V-B:ALA:541:CB:9864, V-B:HIS:456:CD2:9039, V-A:GLY:544:C:4912, V-A:HIS:456:CD2:4068, V-A:HIS:456:CG:4066, V-A:HIS:456:CE1:4070, H-B:LYS:547:NZ:9923, V-B:HIS:456:CE1:9041, H-A:LYS:547:NZ:4951, V-A:GLU:543:CB:4906, V-A:GLU:543:C:4902, V-A:GLU:543:CG:4907, V-B:TYR:539:C:9839, H-A:HIS:383:HE2:3395, H-A:SER:385:OG:3410, V-A:HIS:383:NE2:3394, V-A:LEU:475:CG:4257, V-A:LEU:363:CD1:3189"]

$$$$
1b_Ghoteimi_2023
     RDKit          3D

 54 57  0  0  0  0  0  0  0  0999 V2000
  128.1070  128.5190   74.5070 C   0  0  0  0  0  0  0  0  0  0  0  0
  128.7010  127.3820   73.8930 O   0  0  0  0  0  0  0  0  0  0  0  0
  128.8470  127.3570   72.5190 C   0  0  0  0  0  0  0  0  0  0  0  0
  127.7110  127.0430   71.7760 C   0  0  0  0  0  0  0  0  0  0  0  0
  127.7640  126.9930   70.3860 C   0  0  0  0  0  0  0  0  0  0  0  0
  128.9550  127.2600   69.6950 C   0  0  0  0  0  0  0  0  0  0  0  0
  129.0090  127.2030   68.1940 C   0  0  0  0  0  0  0  0  0  0  0  0
  129.7660  126.2580   67.4950 C   0  0  0  0  0  0  0  0  0  0  0  0
  129.7780  126.2450   66.0940 C   0  0  0  0  0  0  0  0  0  0  0  0
  130.6140  125.2110   65.4140 C   0  0  0  0  0  0  0  0  0  0  0  0
  131.9450  125.4830   65.0860 C   0  0  0  0  0  0  0  0  0  0  0  0
  132.7250  124.5250   64.4450 C   0  0  0  0  0  0  0  0  0  0  0  0
  132.1900  123.2790   64.1150 C   0  0  0  0  0  0  0  0  0  0  0  0
  133.0370  122.3920   63.4800 O   0  0  0  0  0  0  0  0  0  0  0  0
  133.7920  122.8360   62.3570 C   0  0  0  0  0  0  0  0  0  0  0  0
  130.8520  123.0050   64.4350 C   0  0  0  0  0  0  0  0  0  0  0  0
  130.0740  123.9650   65.0760 C   0  0  0  0  0  0  0  0  0  0  0  0
  128.9960  127.2040   65.4040 C   0  0  0  0  0  0  0  0  0  0  0  0
  128.8990  127.1730   63.9420 C   0  0  0  0  0  0  0  0  0  0  0  0
  128.8230  127.1470   62.7870 N   0  0  0  0  0  0  0  0  0  0  0  0
  128.2710  128.1440   66.1710 C   0  0  0  0  0  0  0  0  0  0  0  0
  127.2440  129.4220   65.4770 S   0  0  0  0  0  0  0  0  0  0  0  0
  125.5740  129.2500   66.1890 C   0  0  0  0  0  0  0  0  0  0  0  0
  124.4250  129.6730   65.2620 C   0  0  0  0  0  0  0  0  0  0  0  0
  123.2640  129.7130   65.6760 O   0  0  0  0  0  0  0  0  0  0  0  0
  124.8030  129.9800   64.0010 N   0  0  0  0  0  0  0  0  0  0  0  0
  123.9860  130.3920   62.9550 C   0  0  0  0  0  0  0  0  0  0  0  0
  124.4810  130.7960   61.7160 C   0  0  0  0  0  0  0  0  0  0  0  0
  123.3680  131.1190   60.9740 C   0  0  0  0  0  0  0  0  0  0  0  0
  122.2600  130.9170   61.7270 O   0  0  0  0  0  0  0  0  0  0  0  0
  122.6650  130.4560   62.9800 N   0  0  0  0  0  0  0  0  0  0  0  0
  128.2660  128.1240   67.5260 N   0  0  0  0  0  0  0  0  0  0  0  0
  130.0940  127.5740   70.4540 C   0  0  0  0  0  0  0  0  0  0  0  0
  130.0460  127.6230   71.8440 C   0  0  0  0  0  0  0  0  0  0  0  0
  128.1612  128.4153   75.6008 H   0  0  0  0  0  0  0  0  0  0  0  0
  128.6462  129.4265   74.1976 H   0  0  0  0  0  0  0  0  0  0  0  0
  127.0541  128.5947   74.1976 H   0  0  0  0  0  0  0  0  0  0  0  0
  126.7631  126.8326   72.2929 H   0  0  0  0  0  0  0  0  0  0  0  0
  126.8558  126.7396   69.8194 H   0  0  0  0  0  0  0  0  0  0  0  0
  130.3586  125.5166   68.0510 H   0  0  0  0  0  0  0  0  0  0  0  0
  132.3796  126.4620   65.3364 H   0  0  0  0  0  0  0  0  0  0  0  0
  133.7722  124.7519   64.1963 H   0  0  0  0  0  0  0  0  0  0  0  0
  134.6913  123.3649   62.7057 H   0  0  0  0  0  0  0  0  0  0  0  0
  134.0892  121.9688   61.7490 H   0  0  0  0  0  0  0  0  0  0  0  0
  133.1786  123.5172   61.7490 H   0  0  0  0  0  0  0  0  0  0  0  0
  130.4161  122.0282   64.1785 H   0  0  0  0  0  0  0  0  0  0  0  0
  129.0246  123.7420   65.3192 H   0  0  0  0  0  0  0  0  0  0  0  0
  125.4247  128.1936   66.4569 H   0  0  0  0  0  0  0  0  0  0  0  0
  125.5373  129.9299   67.0530 H   0  0  0  0  0  0  0  0  0  0  0  0
  125.7870  129.9180   63.7850 H   0  0  0  0  0  0  0  0  0  0  0  0
  125.5334  130.8458   61.3999 H   0  0  0  0  0  0  0  0  0  0  0  0
  123.3766  131.4829   59.9360 H   0  0  0  0  0  0  0  0  0  0  0  0
  131.0431  127.7854   69.9396 H   0  0  0  0  0  0  0  0  0  0  0  0
  130.9527  127.8715   72.4151 H   0  0  0  0  0  0  0  0  0  0  0  0
  1  2  1  0
  2  3  1  0
  3  4  2  0
  4  5  1  0
  5  6  2  0
  6  7  1  0
  7  8  2  0
  8  9  1  0
  9 10  1  0
 10 11  2  0
 11 12  1  0
 12 13  2  0
 13 14  1  0
 14 15  1  0
 13 16  1  0
 16 17  2  0
  9 18  2  0
 18 19  1  0
 19 20  3  0
 18 21  1  0
 21 22  1  0
 22 23  1  0
 23 24  1  0
 24 25  2  0
 24 26  1  0
 26 27  1  0
 27 28  1  0
 28 29  2  0
 29 30  1  0
 30 31  1  0
 21 32  2  0
  6 33  1  0
 33 34  2  0
 34  3  1  0
 32  7  1  0
 17 10  1  0
 31 27  2  0
  1 35  1  0
  1 36  1  0
  1 37  1  0
  4 38  1  0
  5 39  1  0
  8 40  1  0
 11 41  1  0
 12 42  1  0
 15 43  1  0
 15 44  1  0
 15 45  1  0
 16 46  1  0
 17 47  1  0
 23 48  1  0
 23 49  1  0
 26 50  1  0
 28 51  1  0
 29 52  1  0
 33 53  1  0
 34 54  1  0
M  END
>  <Binding energies>  (1) 
[-8.81]

>  <Ligand effiencies>  (1) 
[-0.2517142857142857]

>  <Interactions>  (1) 
["V-A:GLU:543:CD:4908, H-A:GLY:454:N:4050, V-B:ASP:366:CG:8184, H-A:TYR:484:OH:4348, V-A:ARG:545:CZ:4926, V-A:LEU:475:CD2:4259, V-B:ILE:369:CB:8207, V-B:GLY:454:CA:9020, V-B:ILE:369:CG2:8208, H-B:ARG:545:NH1:9899, H-B:GLY:454:N:9021, V-B:ILE:369:CG1:8209, V-A:ILE:369:CD1:3239, V-A:GLY:454:CA:4049, V-A:TYR:484:CZ:4347, V-B:GLU:543:CB:9878, V-B:GLU:543:CG:9879, V-A:TYR:484:CE2:4346, V-B:GLU:543:CD:9880, V-B:HIS:456:CD2:9039, V-B:GLY:544:C:9884, V-A:HIS:456:CE1:4070, H-B:LYS:547:NZ:9923, V-B:HIS:456:CE1:9041, V-B:GLU:543:C:9874, V-B:TYR:484:CZ:9318, V-B:ARG:545:CZ:9898, H-B:TYR:484:OH:9319, V-A:GLU:543:CG:4907, H-B:ARG:545:NE:9896, V-B:ARG:545:CD:9895"]

$$$$
1b_Grossjean_2025
     RDKit          3D

 42 43  0  0  0  0  0  0  0  0999 V2000
  131.5640  127.0030   73.5040 C   0  0  0  0  0  0  0  0  0  0  0  0
  130.4340  127.5080   72.8060 O   0  0  0  0  0  0  0  0  0  0  0  0
  129.4620  126.6740   72.3540 C   0  0  0  0  0  0  0  0  0  0  0  0
  129.0420  125.7070   72.9970 O   0  0  0  0  0  0  0  0  0  0  0  0
  128.9420  127.0490   70.9960 C   0  0  0  0  0  0  0  0  0  0  0  0
  129.7250  127.7560   70.0700 C   0  0  0  0  0  0  0  0  0  0  0  0
  129.2120  128.0890   68.8200 C   0  0  0  0  0  0  0  0  0  0  0  0
  127.9130  127.7250   68.4680 C   0  0  0  0  0  0  0  0  0  0  0  0
  127.4990  128.1150   67.1790 N   0  0  0  0  0  0  0  0  0  0  0  0
  127.7170  129.2660   66.5070 C   0  0  0  0  0  0  0  0  0  0  0  0
  128.3580  130.2290   66.9260 O   0  0  0  0  0  0  0  0  0  0  0  0
  127.1080  129.3320   65.1060 C   0  0  0  0  0  0  0  0  0  0  0  0
  125.2980  129.4970   65.1520 S   0  0  0  0  0  0  0  0  0  0  0  0
  124.8340  130.6170   63.8490 C   0  0  0  0  0  0  0  0  0  0  0  0
  123.6220  130.3480   63.3020 N   0  0  0  0  0  0  0  0  0  0  0  0
  123.1690  131.1390   62.3020 C   0  0  0  0  0  0  0  0  0  0  0  0
  121.8000  130.7880   61.7500 C   0  0  0  0  0  0  0  0  0  0  0  0
  123.9030  132.2140   61.8030 C   0  0  0  0  0  0  0  0  0  0  0  0
  125.1630  132.4860   62.3450 C   0  0  0  0  0  0  0  0  0  0  0  0
  125.9560  133.6590   61.7710 C   0  0  0  0  0  0  0  0  0  0  0  0
  125.6570  131.6730   63.3900 C   0  0  0  0  0  0  0  0  0  0  0  0
  126.9920  131.9110   63.9430 C   0  0  0  0  0  0  0  0  0  0  0  0
  128.0470  132.1030   64.3780 N   0  0  0  0  0  0  0  0  0  0  0  0
  127.1240  127.0180   69.3870 C   0  0  0  0  0  0  0  0  0  0  0  0
  127.6370  126.6850   70.6370 C   0  0  0  0  0  0  0  0  0  0  0  0
  131.3905  127.0805   74.5875 H   0  0  0  0  0  0  0  0  0  0  0  0
  131.7217  125.9488   73.2324 H   0  0  0  0  0  0  0  0  0  0  0  0
  132.4546  127.5887   73.2324 H   0  0  0  0  0  0  0  0  0  0  0  0
  130.7518  128.0490   70.3344 H   0  0  0  0  0  0  0  0  0  0  0  0
  129.8363  128.6437   68.1041 H   0  0  0  0  0  0  0  0  0  0  0  0
  126.9450  127.4210   66.7000 H   0  0  0  0  0  0  0  0  0  0  0  0
  127.5296  130.1993   64.5768 H   0  0  0  0  0  0  0  0  0  0  0  0
  127.3487  128.3918   64.5882 H   0  0  0  0  0  0  0  0  0  0  0  0
  121.1037  130.6095   62.5826 H   0  0  0  0  0  0  0  0  0  0  0  0
  121.4288  131.6200   61.1336 H   0  0  0  0  0  0  0  0  0  0  0  0
  121.8750  129.8800   61.1336 H   0  0  0  0  0  0  0  0  0  0  0  0
  123.4968  132.8394   60.9944 H   0  0  0  0  0  0  0  0  0  0  0  0
  126.3645  134.2633   62.5944 H   0  0  0  0  0  0  0  0  0  0  0  0
  126.7813  133.2761   61.1527 H   0  0  0  0  0  0  0  0  0  0  0  0
  125.2931  134.2821   61.1527 H   0  0  0  0  0  0  0  0  0  0  0  0
  126.0978  126.7262   69.1192 H   0  0  0  0  0  0  0  0  0  0  0  0
  127.0113  126.1299   71.3513 H   0  0  0  0  0  0  0  0  0  0  0  0
  1  2  1  0
  2  3  1  0
  3  4  2  0
  3  5  1  0
  5  6  2  0
  6  7  1  0
  7  8  2  0
  8  9  1  0
  9 10  1  0
 10 11  2  0
 10 12  1  0
 12 13  1  0
 13 14  1  0
 14 15  2  0
 15 16  1  0
 16 17  1  0
 16 18  2  0
 18 19  1  0
 19 20  1  0
 19 21  2  0
 21 22  1  0
 22 23  3  0
  8 24  1  0
 24 25  2  0
 25  5  1  0
 21 14  1  0
  1 26  1  0
  1 27  1  0
  1 28  1  0
  6 29  1  0
  7 30  1  0
  9 31  1  0
 12 32  1  0
 12 33  1  0
 17 34  1  0
 17 35  1  0
 17 36  1  0
 18 37  1  0
 20 38  1  0
 20 39  1  0
 20 40  1  0
 24 41  1  0
 25 42  1  0
M  END
>  <Binding energies>  (1) 
[-8.04]

>  <Ligand effiencies>  (1) 
[-0.3092307692307692]

>  <Interactions>  (1) 
["V-A:GLU:543:CD:4908, V-B:ASP:366:CG:8184, V-B:ILE:369:CB:8207, V-B:GLY:454:CA:9020, V-B:GLY:453:C:9013, V-B:ILE:369:CG2:8208, V-B:GLY:453:CA:9015, V-B:LEU:475:CD2:9230, V-B:ASP:366:CA:8181, H-B:GLY:454:N:9021, V-B:ILE:369:CG1:8209, H-B:ARG:545:NH2:9900, V-B:GLU:543:CB:9878, V-B:GLU:543:CD:9880, V-A:GLY:544:C:4912, V-B:GLY:544:C:9884, V-B:GLY:544:CA:9886, V-A:HIS:456:CD2:4068, V-A:HIS:456:CG:4066, V-A:HIS:456:CE1:4070, H-B:LYS:547:NZ:9923, V-B:HIS:456:CE1:9041, V-B:GLU:543:C:9874, H-A:LYS:547:NZ:4951, V-A:GLU:543:CB:4906, V-B:TYR:484:CZ:9318, H-B:TYR:484:OH:9319, V-A:GLU:543:CG:4907, H-B:ARG:545:NE:9896, H-B:GLU:543:OE2:9882"]

$$$$
1c_Ghoteimi_2023
     RDKit          3D

 54 57  0  0  0  0  0  0  0  0999 V2000
  129.7720  127.3840   74.6140 C   0  0  0  0  0  0  0  0  0  0  0  0
  128.6180  127.3280   73.7830 O   0  0  0  0  0  0  0  0  0  0  0  0
  128.7750  127.3290   72.4100 C   0  0  0  0  0  0  0  0  0  0  0  0
  127.6450  127.0310   71.6520 C   0  0  0  0  0  0  0  0  0  0  0  0
  127.7120  127.0060   70.2620 C   0  0  0  0  0  0  0  0  0  0  0  0
  128.9130  127.2780   69.5870 C   0  0  0  0  0  0  0  0  0  0  0  0
  128.9900  127.2470   68.0880 C   0  0  0  0  0  0  0  0  0  0  0  0
  129.7100  126.2730   67.3880 C   0  0  0  0  0  0  0  0  0  0  0  0
  129.7310  126.2700   65.9880 C   0  0  0  0  0  0  0  0  0  0  0  0
  130.4640  125.1620   65.3060 C   0  0  0  0  0  0  0  0  0  0  0  0
  131.7890  125.3330   64.8960 C   0  0  0  0  0  0  0  0  0  0  0  0
  132.4640  124.3070   64.2410 C   0  0  0  0  0  0  0  0  0  0  0  0
  131.8260  123.0940   63.9790 C   0  0  0  0  0  0  0  0  0  0  0  0
  132.5730  122.1330   63.3250 O   0  0  0  0  0  0  0  0  0  0  0  0
  133.6310  122.5430   62.4640 C   0  0  0  0  0  0  0  0  0  0  0  0
  130.4930  122.9220   64.3830 C   0  0  0  0  0  0  0  0  0  0  0  0
  129.8210  123.9490   65.0380 C   0  0  0  0  0  0  0  0  0  0  0  0
  129.0320  127.2900   65.3010 C   0  0  0  0  0  0  0  0  0  0  0  0
  129.0430  127.3620   63.8360 C   0  0  0  0  0  0  0  0  0  0  0  0
  129.0520  127.4160   62.6800 N   0  0  0  0  0  0  0  0  0  0  0  0
  128.3130  128.2300   66.0690 C   0  0  0  0  0  0  0  0  0  0  0  0
  127.2550  129.4610   65.3380 S   0  0  0  0  0  0  0  0  0  0  0  0
  125.6500  129.2530   66.1760 C   0  0  0  0  0  0  0  0  0  0  0  0
  124.4720  129.6210   65.2680 C   0  0  0  0  0  0  0  0  0  0  0  0
  123.3530  129.7810   65.7580 O   0  0  0  0  0  0  0  0  0  0  0  0
  124.7810  129.7860   63.9630 N   0  0  0  0  0  0  0  0  0  0  0  0
  123.9430  130.2640   62.9680 C   0  0  0  0  0  0  0  0  0  0  0  0
  122.6350  130.4030   63.0100 N   0  0  0  0  0  0  0  0  0  0  0  0
  122.1690  130.9280   61.8940 C   0  0  0  0  0  0  0  0  0  0  0  0
  123.1100  131.2300   60.9150 C   0  0  0  0  0  0  0  0  0  0  0  0
  124.6900  130.7960   61.4960 S   0  0  0  0  0  0  0  0  0  0  0  0
  128.2870  128.2010   67.4230 N   0  0  0  0  0  0  0  0  0  0  0  0
  130.0420  127.5820   70.3610 C   0  0  0  0  0  0  0  0  0  0  0  0
  129.9810  127.6060   71.7510 C   0  0  0  0  0  0  0  0  0  0  0  0
  129.4645  127.3691   75.6700 H   0  0  0  0  0  0  0  0  0  0  0  0
  130.4153  126.5160   74.4071 H   0  0  0  0  0  0  0  0  0  0  0  0
  130.3282  128.3102   74.4071 H   0  0  0  0  0  0  0  0  0  0  0  0
  126.6918  126.8136   72.1561 H   0  0  0  0  0  0  0  0  0  0  0  0
  126.8080  126.7689   69.6818 H   0  0  0  0  0  0  0  0  0  0  0  0
  130.2650  125.5021   67.9428 H   0  0  0  0  0  0  0  0  0  0  0  0
  132.3024  126.2858   65.0924 H   0  0  0  0  0  0  0  0  0  0  0  0
  133.5082  124.4535   63.9276 H   0  0  0  0  0  0  0  0  0  0  0  0
  134.4879  122.8751   63.0685 H   0  0  0  0  0  0  0  0  0  0  0  0
  133.9356  121.6978   61.8293 H   0  0  0  0  0  0  0  0  0  0  0  0
  133.2865  123.3727   61.8293 H   0  0  0  0  0  0  0  0  0  0  0  0
  129.9776  121.9715   64.1810 H   0  0  0  0  0  0  0  0  0  0  0  0
  128.7752  123.8060   65.3478 H   0  0  0  0  0  0  0  0  0  0  0  0
  125.5449  128.2024   66.4846 H   0  0  0  0  0  0  0  0  0  0  0  0
  125.6317  129.9285   67.0439 H   0  0  0  0  0  0  0  0  0  0  0  0
  125.7360  129.6170   63.6870 H   0  0  0  0  0  0  0  0  0  0  0  0
  121.0956  131.1168   61.7453 H   0  0  0  0  0  0  0  0  0  0  0  0
  122.8899  131.6720   59.9320 H   0  0  0  0  0  0  0  0  0  0  0  0
  130.9950  127.8060   69.8594 H   0  0  0  0  0  0  0  0  0  0  0  0
  130.8825  127.8432   72.3350 H   0  0  0  0  0  0  0  0  0  0  0  0
  1  2  1  0
  2  3  1  0
  3  4  2  0
  4  5  1  0
  5  6  2  0
  6  7  1  0
  7  8  2  0
  8  9  1  0
  9 10  1  0
 10 11  2  0
 11 12  1  0
 12 13  2  0
 13 14  1  0
 14 15  1  0
 13 16  1  0
 16 17  2  0
  9 18  2  0
 18 19  1  0
 19 20  3  0
 18 21  1  0
 21 22  1  0
 22 23  1  0
 23 24  1  0
 24 25  2  0
 24 26  1  0
 26 27  1  0
 27 28  2  0
 28 29  1  0
 29 30  2  0
 30 31  1  0
 21 32  2  0
  6 33  1  0
 33 34  2  0
 34  3  1  0
 32  7  1  0
 17 10  1  0
 31 27  1  0
  1 35  1  0
  1 36  1  0
  1 37  1  0
  4 38  1  0
  5 39  1  0
  8 40  1  0
 11 41  1  0
 12 42  1  0
 15 43  1  0
 15 44  1  0
 15 45  1  0
 16 46  1  0
 17 47  1  0
 23 48  1  0
 23 49  1  0
 26 50  1  0
 29 51  1  0
 30 52  1  0
 33 53  1  0
 34 54  1  0
M  END
>  <Binding energies>  (1) 
[-8.55]

>  <Ligand effiencies>  (1) 
[-0.2442857142857143]

>  <Interactions>  (1) 
["V-A:GLU:543:CD:4908, V-B:ASP:366:CG:8184, V-A:ARG:545:CZ:4926, V-A:LEU:475:CD2:4259, V-B:ILE:369:CB:8207, V-B:GLY:453:C:9013, V-B:ILE:369:CG2:8208, V-B:GLY:453:CA:9015, H-B:ARG:545:NH1:9899, V-B:ASP:366:CA:8181, H-B:GLY:454:N:9021, V-B:ILE:369:CG1:8209, V-A:GLY:454:CA:4049, V-B:GLU:543:CB:9878, V-B:GLU:543:CG:9879, V-A:TYR:484:CE2:4346, V-B:GLU:543:CD:9880, V-B:HIS:456:CD2:9039, V-B:GLY:544:C:9884, V-A:HIS:456:CE1:4070, H-B:LYS:547:NZ:9923, V-B:HIS:456:CE1:9041, V-B:GLU:543:C:9874, V-B:TYR:484:CZ:9318, V-B:ARG:545:CZ:9898, H-B:TYR:484:OH:9319, V-A:GLU:543:CG:4907, H-B:ARG:545:NE:9896, V-B:ARG:545:CD:9895, H-B:GLU:543:OE2:9882"]

$$$$
1c_Grossjean_2025
     RDKit          3D

 40 41  0  0  0  0  0  0  0  0999 V2000
  129.3780  130.0370   73.0480 C   0  0  0  0  0  0  0  0  0  0  0  0
  130.0280  128.7890   72.8310 O   0  0  0  0  0  0  0  0  0  0  0  0
  130.0910  128.2770   71.5490 C   0  0  0  0  0  0  0  0  0  0  0  0
  128.9240  127.6970   71.0520 C   0  0  0  0  0  0  0  0  0  0  0  0
  128.8880  127.1540   69.7710 C   0  0  0  0  0  0  0  0  0  0  0  0
  130.0330  127.1930   68.9610 C   0  0  0  0  0  0  0  0  0  0  0  0
  130.1100  126.6660   67.6570 N   0  0  0  0  0  0  0  0  0  0  0  0
  129.9820  125.3880   67.2400 C   0  0  0  0  0  0  0  0  0  0  0  0
  129.7470  124.4210   67.9640 O   0  0  0  0  0  0  0  0  0  0  0  0
  130.1420  125.1710   65.7340 C   0  0  0  0  0  0  0  0  0  0  0  0
  130.1830  123.4050   65.3050 S   0  0  0  0  0  0  0  0  0  0  0  0
  130.8320  123.2420   63.6550 C   0  0  0  0  0  0  0  0  0  0  0  0
  129.9810  122.6200   62.7990 N   0  0  0  0  0  0  0  0  0  0  0  0
  130.3660  122.4380   61.5150 C   0  0  0  0  0  0  0  0  0  0  0  0
  129.3590  121.7450   60.6160 C   0  0  0  0  0  0  0  0  0  0  0  0
  131.6060  122.8540   61.0360 C   0  0  0  0  0  0  0  0  0  0  0  0
  132.5000  123.4750   61.9140 C   0  0  0  0  0  0  0  0  0  0  0  0
  133.8610  123.9060   61.3690 C   0  0  0  0  0  0  0  0  0  0  0  0
  132.1210  123.6730   63.2610 C   0  0  0  0  0  0  0  0  0  0  0  0
  133.0650  124.2720   64.2090 C   0  0  0  0  0  0  0  0  0  0  0  0
  133.8110  124.7440   64.9560 N   0  0  0  0  0  0  0  0  0  0  0  0
  131.2060  127.7630   69.4580 C   0  0  0  0  0  0  0  0  0  0  0  0
  131.2380  128.3040   70.7410 C   0  0  0  0  0  0  0  0  0  0  0  0
  129.2836  130.2182   74.1289 H   0  0  0  0  0  0  0  0  0  0  0  0
  129.9707  130.8434   72.5914 H   0  0  0  0  0  0  0  0  0  0  0  0
  128.3775  130.0136   72.5914 H   0  0  0  0  0  0  0  0  0  0  0  0
  128.0213  127.6684   71.6799 H   0  0  0  0  0  0  0  0  0  0  0  0
  127.9624  126.6945   69.3938 H   0  0  0  0  0  0  0  0  0  0  0  0
  130.2310  127.3600   66.9350 H   0  0  0  0  0  0  0  0  0  0  0  0
  129.2954  125.6437   65.2145 H   0  0  0  0  0  0  0  0  0  0  0  0
  131.0974  125.6196   65.4242 H   0  0  0  0  0  0  0  0  0  0  0  0
  128.6095  121.2292   61.2342 H   0  0  0  0  0  0  0  0  0  0  0  0
  128.8596  122.4916   59.9810 H   0  0  0  0  0  0  0  0  0  0  0  0
  129.8779  121.0118   59.9810 H   0  0  0  0  0  0  0  0  0  0  0  0
  131.8782  122.6963   59.9820 H   0  0  0  0  0  0  0  0  0  0  0  0
  134.5402  124.1211   62.2071 H   0  0  0  0  0  0  0  0  0  0  0  0
  134.2824  123.0973   60.7538 H   0  0  0  0  0  0  0  0  0  0  0  0
  133.7401  124.8098   60.7538 H   0  0  0  0  0  0  0  0  0  0  0  0
  132.1107  127.7851   68.8326 H   0  0  0  0  0  0  0  0  0  0  0  0
  132.1662  128.7543   71.1225 H   0  0  0  0  0  0  0  0  0  0  0  0
  1  2  1  0
  2  3  1  0
  3  4  2  0
  4  5  1  0
  5  6  2  0
  6  7  1  0
  7  8  1  0
  8  9  2  0
  8 10  1  0
 10 11  1  0
 11 12  1  0
 12 13  2  0
 13 14  1  0
 14 15  1  0
 14 16  2  0
 16 17  1  0
 17 18  1  0
 17 19  2  0
 19 20  1  0
 20 21  3  0
  6 22  1  0
 22 23  2  0
 23  3  1  0
 19 12  1  0
  1 24  1  0
  1 25  1  0
  1 26  1  0
  4 27  1  0
  5 28  1  0
  7 29  1  0
 10 30  1  0
 10 31  1  0
 15 32  1  0
 15 33  1  0
 15 34  1  0
 16 35  1  0
 18 36  1  0
 18 37  1  0
 18 38  1  0
 22 39  1  0
 23 40  1  0
M  END
>  <Binding energies>  (1) 
[-7.17]

>  <Ligand effiencies>  (1) 
[-0.29875]

>  <Interactions>  (1) 
["V-B:TYR:539:CD2:9846, V-A:GLU:543:CD:4908, H-A:GLY:454:N:4050, H-A:TYR:484:OH:4348, V-B:TYR:539:CE2:9848, H-A:ARG:545:NE:4924, V-A:ARG:545:CZ:4926, V-A:LEU:475:CD2:4259, V-B:PRO:540:CA:9855, V-A:ILE:369:CD1:3239, V-A:GLY:454:CA:4049, H-A:GLU:543:OE2:4910, V-B:GLU:543:CB:9878, V-B:GLU:543:CG:9879, V-A:TYR:484:CE2:4346, V-B:HIS:456:CD2:9039, V-A:GLY:544:C:4912, V-A:HIS:456:CE1:4070, V-B:HIS:456:CE1:9041, H-A:LYS:547:NZ:4951, H-A:GLU:543:OE1:4909, H-A:ARG:545:NH2:4928, V-A:GLU:543:CB:4906, V-A:GLU:543:C:4902, V-B:TYR:539:C:9839, V-A:GLY:544:CA:4914, V-A:ARG:545:CG:4922, V-A:ARG:545:CA:4919"]

$$$$
1d_Ghoteimi_2023
     RDKit          3D

 50 52  0  0  0  0  0  0  0  0999 V2000
  133.6510  124.6940   62.5890 C   0  0  0  0  0  0  0  0  0  0  0  0
  133.8690  124.3840   63.9570 O   0  0  0  0  0  0  0  0  0  0  0  0
  133.1610  125.0060   64.9220 C   0  0  0  0  0  0  0  0  0  0  0  0
  133.5100  125.1700   66.0910 O   0  0  0  0  0  0  0  0  0  0  0  0
  131.8130  125.5130   64.4160 C   0  0  0  0  0  0  0  0  0  0  0  0
  130.5320  124.8710   65.5340 S   0  0  0  0  0  0  0  0  0  0  0  0
  129.5890  126.2690   66.1040 C   0  0  0  0  0  0  0  0  0  0  0  0
  129.4890  126.3460   67.4530 N   0  0  0  0  0  0  0  0  0  0  0  0
  128.7940  127.3630   68.0230 C   0  0  0  0  0  0  0  0  0  0  0  0
  128.7360  127.3790   69.5230 C   0  0  0  0  0  0  0  0  0  0  0  0
  127.5760  126.9930   70.2120 C   0  0  0  0  0  0  0  0  0  0  0  0
  127.5220  127.0150   71.6020 C   0  0  0  0  0  0  0  0  0  0  0  0
  128.6240  127.4250   72.3480 C   0  0  0  0  0  0  0  0  0  0  0  0
  128.4800  127.4180   73.7220 O   0  0  0  0  0  0  0  0  0  0  0  0
  127.8600  128.5300   74.3590 C   0  0  0  0  0  0  0  0  0  0  0  0
  129.7910  127.8140   71.6750 C   0  0  0  0  0  0  0  0  0  0  0  0
  129.8410  127.7900   70.2840 C   0  0  0  0  0  0  0  0  0  0  0  0
  128.1850  128.3430   67.2300 C   0  0  0  0  0  0  0  0  0  0  0  0
  128.2590  128.2790   65.8330 C   0  0  0  0  0  0  0  0  0  0  0  0
  127.5800  129.3530   65.0470 C   0  0  0  0  0  0  0  0  0  0  0  0
  126.2170  129.2530   64.7500 C   0  0  0  0  0  0  0  0  0  0  0  0
  125.5770  130.2510   64.0190 C   0  0  0  0  0  0  0  0  0  0  0  0
  126.2830  131.3680   63.5750 C   0  0  0  0  0  0  0  0  0  0  0  0
  125.5690  132.3030   62.8510 O   0  0  0  0  0  0  0  0  0  0  0  0
  124.2330  132.0070   62.4610 C   0  0  0  0  0  0  0  0  0  0  0  0
  127.6480  131.4790   63.8810 C   0  0  0  0  0  0  0  0  0  0  0  0
  128.2850  130.4810   64.6140 C   0  0  0  0  0  0  0  0  0  0  0  0
  128.9640  127.2000   65.2440 C   0  0  0  0  0  0  0  0  0  0  0  0
  128.9860  127.0260   63.7880 C   0  0  0  0  0  0  0  0  0  0  0  0
  129.0030  126.8900   62.6390 N   0  0  0  0  0  0  0  0  0  0  0  0
  133.0198  125.5916   62.5125 H   0  0  0  0  0  0  0  0  0  0  0  0
  134.6168  124.8819   62.0972 H   0  0  0  0  0  0  0  0  0  0  0  0
  133.1475  123.8487   62.0972 H   0  0  0  0  0  0  0  0  0  0  0  0
  131.7994  126.6129   64.4218 H   0  0  0  0  0  0  0  0  0  0  0  0
  131.6334  125.1725   63.3856 H   0  0  0  0  0  0  0  0  0  0  0  0
  126.6931  126.6670   69.6425 H   0  0  0  0  0  0  0  0  0  0  0  0
  126.6003  126.7057   72.1165 H   0  0  0  0  0  0  0  0  0  0  0  0
  127.9263  128.4111   75.4505 H   0  0  0  0  0  0  0  0  0  0  0  0
  128.3718  129.4564   74.0593 H   0  0  0  0  0  0  0  0  0  0  0  0
  126.8029  128.5817   74.0593 H   0  0  0  0  0  0  0  0  0  0  0  0
  130.6711  128.1397   72.2489 H   0  0  0  0  0  0  0  0  0  0  0  0
  130.7641  128.0990   69.7718 H   0  0  0  0  0  0  0  0  0  0  0  0
  127.6429  129.1716   67.7091 H   0  0  0  0  0  0  0  0  0  0  0  0
  125.6458  128.3791   65.0965 H   0  0  0  0  0  0  0  0  0  0  0  0
  124.5052  130.1570   63.7901 H   0  0  0  0  0  0  0  0  0  0  0  0
  123.6112  131.8692   63.3579 H   0  0  0  0  0  0  0  0  0  0  0  0
  123.8332  132.8383   61.8618 H   0  0  0  0  0  0  0  0  0  0  0  0
  124.2218  131.0846   61.8618 H   0  0  0  0  0  0  0  0  0  0  0  0
  128.2165  132.3571   63.5408 H   0  0  0  0  0  0  0  0  0  0  0  0
  129.3536  130.5807   64.8550 H   0  0  0  0  0  0  0  0  0  0  0  0
  1  2  1  0
  2  3  1  0
  3  4  2  0
  3  5  1  0
  5  6  1  0
  6  7  1  0
  7  8  2  0
  8  9  1  0
  9 10  1  0
 10 11  2  0
 11 12  1  0
 12 13  2  0
 13 14  1  0
 14 15  1  0
 13 16  1  0
 16 17  2  0
  9 18  2  0
 18 19  1  0
 19 20  1  0
 20 21  2  0
 21 22  1  0
 22 23  2  0
 23 24  1  0
 24 25  1  0
 23 26  1  0
 26 27  2  0
 19 28  2  0
 28 29  1  0
 29 30  3  0
 28  7  1  0
 17 10  1  0
 27 20  1  0
  1 31  1  0
  1 32  1  0
  1 33  1  0
  5 34  1  0
  5 35  1  0
 11 36  1  0
 12 37  1  0
 15 38  1  0
 15 39  1  0
 15 40  1  0
 16 41  1  0
 17 42  1  0
 18 43  1  0
 21 44  1  0
 22 45  1  0
 25 46  1  0
 25 47  1  0
 25 48  1  0
 26 49  1  0
 27 50  1  0
M  END
>  <Binding energies>  (1) 
[-7.34]

>  <Ligand effiencies>  (1) 
[-0.24466666666666667]

>  <Interactions>  (1) 
["V-A:GLU:543:CD:4908, H-A:GLY:454:N:4050, H-A:TYR:484:OH:4348, H-A:ARG:545:NE:4924, V-A:ARG:545:CZ:4926, V-B:GLY:454:CA:9020, V-B:GLU:543:CB:9878, V-B:GLU:543:CG:9879, V-B:GLU:543:CD:9880, V-B:HIS:456:CD2:9039, V-B:GLY:544:C:9884, V-B:GLY:544:CA:9886, V-A:HIS:456:CE1:4070, H-B:LYS:547:NZ:9923, V-B:HIS:456:CE1:9041, V-B:GLU:543:C:9874, H-A:ARG:545:NH2:4928, V-A:GLU:543:CB:4906, V-A:GLU:543:CG:4907"]

$$$$
1d_Grossjean_2025
     RDKit          3D

 36 37  0  0  0  0  0  0  0  0999 V2000
  129.2290  122.1130   60.3660 C   0  0  0  0  0  0  0  0  0  0  0  0
  130.2980  122.6730   61.2840 C   0  0  0  0  0  0  0  0  0  0  0  0
  131.5590  123.0240   60.8080 C   0  0  0  0  0  0  0  0  0  0  0  0
  132.5030  123.5450   61.6990 C   0  0  0  0  0  0  0  0  0  0  0  0
  133.8740  123.9360   61.1500 C   0  0  0  0  0  0  0  0  0  0  0  0
  132.1570  123.6950   63.0620 C   0  0  0  0  0  0  0  0  0  0  0  0
  133.1120  124.2830   64.0040 C   0  0  0  0  0  0  0  0  0  0  0  0
  133.8690  124.7480   64.7460 N   0  0  0  0  0  0  0  0  0  0  0  0
  130.8620  123.2900   63.4620 C   0  0  0  0  0  0  0  0  0  0  0  0
  130.2610  123.4070   65.1320 S   0  0  0  0  0  0  0  0  0  0  0  0
  130.5210  125.1200   65.6850 C   0  0  0  0  0  0  0  0  0  0  0  0
  130.0900  125.3280   67.1370 C   0  0  0  0  0  0  0  0  0  0  0  0
  129.6180  124.3810   67.7660 O   0  0  0  0  0  0  0  0  0  0  0  0
  130.2940  126.5700   67.6280 N   0  0  0  0  0  0  0  0  0  0  0  0
  130.0010  127.0970   68.9000 C   0  0  0  0  0  0  0  0  0  0  0  0
  128.6980  126.8830   69.3580 C   0  0  0  0  0  0  0  0  0  0  0  0
  128.3040  127.3580   70.6060 C   0  0  0  0  0  0  0  0  0  0  0  0
  129.2180  128.0440   71.4020 C   0  0  0  0  0  0  0  0  0  0  0  0
  130.5220  128.2560   70.9620 C   0  0  0  0  0  0  0  0  0  0  0  0
  130.9180  127.7830   69.7140 C   0  0  0  0  0  0  0  0  0  0  0  0
  129.9470  122.8050   62.5850 N   0  0  0  0  0  0  0  0  0  0  0  0
  128.4143  121.6862   60.9694 H   0  0  0  0  0  0  0  0  0  0  0  0
  128.8318  122.9189   59.7313 H   0  0  0  0  0  0  0  0  0  0  0  0
  129.6654  121.3277   59.7313 H   0  0  0  0  0  0  0  0  0  0  0  0
  131.8093  122.8931   59.7449 H   0  0  0  0  0  0  0  0  0  0  0  0
  134.5614  124.1321   61.9860 H   0  0  0  0  0  0  0  0  0  0  0  0
  134.2702  123.1150   60.5343 H   0  0  0  0  0  0  0  0  0  0  0  0
  133.7775  124.8424   60.5343 H   0  0  0  0  0  0  0  0  0  0  0  0
  131.5898  125.3636   65.5940 H   0  0  0  0  0  0  0  0  0  0  0  0
  129.9063  125.7769   65.0521 H   0  0  0  0  0  0  0  0  0  0  0  0
  130.7370  127.2270   67.0030 H   0  0  0  0  0  0  0  0  0  0  0  0
  127.9799  126.3364   68.7291 H   0  0  0  0  0  0  0  0  0  0  0  0
  127.2763  127.1923   70.9614 H   0  0  0  0  0  0  0  0  0  0  0  0
  128.9070  128.4218   72.3872 H   0  0  0  0  0  0  0  0  0  0  0  0
  131.2377  128.7961   71.5992 H   0  0  0  0  0  0  0  0  0  0  0  0
  131.9484  127.9463   69.3653 H   0  0  0  0  0  0  0  0  0  0  0  0
  1  2  1  0
  2  3  2  0
  3  4  1  0
  4  5  1  0
  4  6  2  0
  6  7  1  0
  7  8  3  0
  6  9  1  0
  9 10  1  0
 10 11  1  0
 11 12  1  0
 12 13  2  0
 12 14  1  0
 14 15  1  0
 15 16  2  0
 16 17  1  0
 17 18  2  0
 18 19  1  0
 19 20  2  0
  9 21  2  0
 21  2  1  0
 20 15  1  0
  1 22  1  0
  1 23  1  0
  1 24  1  0
  3 25  1  0
  5 26  1  0
  5 27  1  0
  5 28  1  0
 11 29  1  0
 11 30  1  0
 14 31  1  0
 16 32  1  0
 17 33  1  0
 18 34  1  0
 19 35  1  0
 20 36  1  0
M  END
>  <Binding energies>  (1) 
[-7.03]

>  <Ligand effiencies>  (1) 
[-0.3195454545454546]

>  <Interactions>  (1) 
["V-B:TYR:539:CD2:9846, V-A:GLU:543:CD:4908, H-A:GLY:454:N:4050, H-A:TYR:484:OH:4348, V-B:TYR:539:CE2:9848, H-A:ARG:545:NE:4924, V-A:ARG:545:CZ:4926, V-A:LEU:475:CD2:4259, V-B:PRO:540:CA:9855, V-A:ILE:369:CD1:3239, V-A:GLY:454:CA:4049, H-A:GLU:543:OE2:4910, V-B:GLU:543:CB:9878, V-B:GLU:543:CG:9879, V-A:TYR:484:CE2:4346, V-B:HIS:456:CD2:9039, V-A:GLY:544:C:4912, V-A:HIS:456:CE1:4070, V-B:HIS:456:CE1:9041, V-B:GLU:543:C:9874, H-A:GLU:543:OE1:4909, H-A:ARG:545:NH2:4928, V-A:GLU:543:CB:4906, V-A:GLU:543:C:4902, V-B:TYR:539:C:9839"]

$$$$
1e_Grossjean_2025
     RDKit          3D

 38 39  0  0  0  0  0  0  0  0999 V2000
  131.5830  128.1360   69.9800 C   0  0  0  0  0  0  0  0  0  0  0  0
  130.1190  127.8080   69.7500 C   0  0  0  0  0  0  0  0  0  0  0  0
  129.3340  127.2270   70.7500 C   0  0  0  0  0  0  0  0  0  0  0  0
  127.9960  126.9520   70.4660 C   0  0  0  0  0  0  0  0  0  0  0  0
  127.4800  127.2590   69.2050 C   0  0  0  0  0  0  0  0  0  0  0  0
  128.3210  127.8450   68.2510 C   0  0  0  0  0  0  0  0  0  0  0  0
  127.7480  128.1200   66.9960 N   0  0  0  0  0  0  0  0  0  0  0  0
  127.7540  129.2810   66.3060 C   0  0  0  0  0  0  0  0  0  0  0  0
  128.2760  130.3290   66.6900 O   0  0  0  0  0  0  0  0  0  0  0  0
  127.0220  129.2610   64.9620 C   0  0  0  0  0  0  0  0  0  0  0  0
  125.2420  129.5840   65.1520 S   0  0  0  0  0  0  0  0  0  0  0  0
  124.7240  130.6980   63.8620 C   0  0  0  0  0  0  0  0  0  0  0  0
  123.5150  130.3850   63.3320 N   0  0  0  0  0  0  0  0  0  0  0  0
  123.0160  131.1590   62.3400 C   0  0  0  0  0  0  0  0  0  0  0  0
  121.6570  130.7520   61.8040 C   0  0  0  0  0  0  0  0  0  0  0  0
  123.7010  132.2610   61.8310 C   0  0  0  0  0  0  0  0  0  0  0  0
  124.9590  132.5790   62.3520 C   0  0  0  0  0  0  0  0  0  0  0  0
  125.6970  133.7810   61.7640 C   0  0  0  0  0  0  0  0  0  0  0  0
  125.5010  131.7820   63.3860 C   0  0  0  0  0  0  0  0  0  0  0  0
  126.8420  132.0660   63.9020 C   0  0  0  0  0  0  0  0  0  0  0  0
  127.9020  132.2930   64.3090 N   0  0  0  0  0  0  0  0  0  0  0  0
  129.6320  128.1130   68.5210 N   0  0  0  0  0  0  0  0  0  0  0  0
  131.7833  128.1809   71.0607 H   0  0  0  0  0  0  0  0  0  0  0  0
  132.2097  127.3560   69.5230 H   0  0  0  0  0  0  0  0  0  0  0  0
  131.8170  129.1088   69.5230 H   0  0  0  0  0  0  0  0  0  0  0  0
  129.7606  126.9924   71.7364 H   0  0  0  0  0  0  0  0  0  0  0  0
  127.3508  126.4958   71.2313 H   0  0  0  0  0  0  0  0  0  0  0  0
  126.4284  127.0436   68.9648 H   0  0  0  0  0  0  0  0  0  0  0  0
  127.2240  127.3560   66.5940 H   0  0  0  0  0  0  0  0  0  0  0  0
  127.4556  130.0333   64.3097 H   0  0  0  0  0  0  0  0  0  0  0  0
  127.1411  128.2587   64.5246 H   0  0  0  0  0  0  0  0  0  0  0  0
  120.9773  130.5484   62.6446 H   0  0  0  0  0  0  0  0  0  0  0  0
  121.2463  131.5666   61.1893 H   0  0  0  0  0  0  0  0  0  0  0  0
  121.7617  129.8458   61.1893 H   0  0  0  0  0  0  0  0  0  0  0  0
  123.2581  132.8720   61.0306 H   0  0  0  0  0  0  0  0  0  0  0  0
  126.0829  134.4095   62.5802 H   0  0  0  0  0  0  0  0  0  0  0  0
  126.5351  133.4294   61.1443 H   0  0  0  0  0  0  0  0  0  0  0  0
  125.0043  134.3693   61.1443 H   0  0  0  0  0  0  0  0  0  0  0  0
  1  2  1  0
  2  3  2  0
  3  4  1  0
  4  5  2  0
  5  6  1  0
  6  7  1  0
  7  8  1  0
  8  9  2  0
  8 10  1  0
 10 11  1  0
 11 12  1  0
 12 13  2  0
 13 14  1  0
 14 15  1  0
 14 16  2  0
 16 17  1  0
 17 18  1  0
 17 19  2  0
 19 20  1  0
 20 21  3  0
  6 22  2  0
 22  2  1  0
 19 12  1  0
  1 23  1  0
  1 24  1  0
  1 25  1  0
  3 26  1  0
  4 27  1  0
  5 28  1  0
  7 29  1  0
 10 30  1  0
 10 31  1  0
 15 32  1  0
 15 33  1  0
 15 34  1  0
 16 35  1  0
 18 36  1  0
 18 37  1  0
 18 38  1  0
M  END
>  <Binding energies>  (1) 
[-7.36]

>  <Ligand effiencies>  (1) 
[-0.32]

>  <Interactions>  (1) 
["V-A:GLU:543:CD:4908, V-B:ASP:366:CG:8184, V-B:ILE:369:CB:8207, V-B:GLY:454:CA:9020, V-B:GLY:453:C:9013, V-B:ILE:369:CG2:8208, V-B:GLY:453:CA:9015, V-B:LEU:475:CD2:9230, V-B:ASP:366:CA:8181, H-B:GLY:454:N:9021, V-B:ILE:369:CG1:8209, H-B:ARG:545:NH2:9900, V-B:GLU:543:CB:9878, V-B:GLU:543:CD:9880, H-B:GLU:543:OE1:9881, V-A:GLY:544:C:4912, V-A:HIS:456:CE1:4070, V-B:HIS:456:CE1:9041, V-B:GLU:543:C:9874, V-A:GLU:543:CB:4906, V-A:GLU:543:C:4902, V-B:TYR:484:CZ:9318, H-B:TYR:484:OH:9319, V-A:GLU:543:CG:4907, H-B:ARG:545:NE:9896, V-A:GLY:544:CA:4914, V-A:ARG:545:CG:4922, V-A:ARG:545:CA:4919, H-B:GLU:543:OE2:9882, V-B:CYS:365:C:8175"]

$$$$
1f_Grossjean_2025
     RDKit          3D

 35 36  0  0  0  0  0  0  0  0999 V2000
  126.6330  135.4860   61.2020 C   0  0  0  0  0  0  0  0  0  0  0  0
  125.9460  134.2740   61.8030 C   0  0  0  0  0  0  0  0  0  0  0  0
  124.5640  134.1130   61.7400 C   0  0  0  0  0  0  0  0  0  0  0  0
  123.9850  132.9820   62.3230 C   0  0  0  0  0  0  0  0  0  0  0  0
  122.4660  132.8360   62.2570 C   0  0  0  0  0  0  0  0  0  0  0  0
  124.8150  132.0270   62.9540 C   0  0  0  0  0  0  0  0  0  0  0  0
  124.2220  130.8630   63.6190 C   0  0  0  0  0  0  0  0  0  0  0  0
  123.7520  129.9450   64.1430 N   0  0  0  0  0  0  0  0  0  0  0  0
  126.2110  132.2580   62.9460 C   0  0  0  0  0  0  0  0  0  0  0  0
  127.4100  131.1690   63.6890 S   0  0  0  0  0  0  0  0  0  0  0  0
  128.9540  132.1060   63.9530 C   0  0  0  0  0  0  0  0  0  0  0  0
  129.7750  132.3700   62.6820 C   0  0  0  0  0  0  0  0  0  0  0  0
  129.4500  133.2670   61.9030 O   0  0  0  0  0  0  0  0  0  0  0  0
  130.8230  131.5370   62.5080 N   0  0  0  0  0  0  0  0  0  0  0  0
  131.7770  131.4970   61.4740 C   0  0  0  0  0  0  0  0  0  0  0  0
  131.5130  131.1910   60.1250 C   0  0  0  0  0  0  0  0  0  0  0  0
  132.5600  131.1920   59.1990 C   0  0  0  0  0  0  0  0  0  0  0  0
  133.8450  131.5020   59.6430 C   0  0  0  0  0  0  0  0  0  0  0  0
  134.1250  131.8050   60.9350 N   0  0  0  0  0  0  0  0  0  0  0  0
  133.0980  131.8000   61.8240 C   0  0  0  0  0  0  0  0  0  0  0  0
  126.7600  133.3710   62.3990 N   0  0  0  0  0  0  0  0  0  0  0  0
  127.0016  136.1363   62.0090 H   0  0  0  0  0  0  0  0  0  0  0  0
  127.4791  135.1573   60.5806 H   0  0  0  0  0  0  0  0  0  0  0  0
  125.9164  136.0431   60.5806 H   0  0  0  0  0  0  0  0  0  0  0  0
  123.9370  134.8651   61.2387 H   0  0  0  0  0  0  0  0  0  0  0  0
  122.0568  132.7967   63.2773 H   0  0  0  0  0  0  0  0  0  0  0  0
  122.0377  133.6971   61.7231 H   0  0  0  0  0  0  0  0  0  0  0  0
  122.2096  131.9091   61.7231 H   0  0  0  0  0  0  0  0  0  0  0  0
  128.6926  133.0770   64.3989 H   0  0  0  0  0  0  0  0  0  0  0  0
  129.5852  131.4838   64.6046 H   0  0  0  0  0  0  0  0  0  0  0  0
  130.9420  130.8200   63.2090 H   0  0  0  0  0  0  0  0  0  0  0  0
  130.4889  130.9526   59.8019 H   0  0  0  0  0  0  0  0  0  0  0  0
  132.3741  130.9531   58.1415 H   0  0  0  0  0  0  0  0  0  0  0  0
  134.6680  131.5007   58.9131 H   0  0  0  0  0  0  0  0  0  0  0  0
  133.3158  132.0469   62.8736 H   0  0  0  0  0  0  0  0  0  0  0  0
  1  2  1  0
  2  3  2  0
  3  4  1  0
  4  5  1  0
  4  6  2  0
  6  7  1  0
  7  8  3  0
  6  9  1  0
  9 10  1  0
 10 11  1  0
 11 12  1  0
 12 13  2  0
 12 14  1  0
 14 15  1  0
 15 16  2  0
 16 17  1  0
 17 18  2  0
 18 19  1  0
 19 20  2  0
  9 21  2  0
 21  2  1  0
 20 15  1  0
  1 22  1  0
  1 23  1  0
  1 24  1  0
  3 25  1  0
  5 26  1  0
  5 27  1  0
  5 28  1  0
 11 29  1  0
 11 30  1  0
 14 31  1  0
 16 32  1  0
 17 33  1  0
 18 34  1  0
 20 35  1  0
M  END
>  <Binding energies>  (1) 
[-6.73]

>  <Ligand effiencies>  (1) 
[-0.3059090909090909]

>  <Interactions>  (1) 
["V-A:GLU:543:CD:4908, V-A:ASN:362:CB:3176, V-B:ILE:369:CB:8207, V-A:PRO:540:CB:4885, V-A:TYR:539:CD1:4873, V-B:GLY:454:CA:9020, V-A:PRO:540:CA:4883, H-A:LEU:363:N:3186, V-B:GLY:453:C:9013, V-B:ILE:369:CG2:8208, V-B:LEU:475:CD2:9230, H-B:ARG:545:NH1:9899, V-A:TYR:539:CE1:4875, H-B:GLY:454:N:9021, H-A:ALA:541:N:4891, V-B:ILE:369:CG1:8209, H-B:ARG:545:NH2:9900, V-A:ASP:366:CG:3213, H-A:GLU:543:OE1:4909, H-B:TYR:484:OH:9319, V-A:ALA:541:CB:4892, V-A:GLU:543:CG:4907, H-B:ARG:545:NE:9896, V-B:ILE:369:CD1:8210, V-A:ALA:541:CA:4890, V-A:LEU:363:CD1:3189, V-A:LEU:363:CA:3185, V-A:LEU:363:CB:3187, V-A:ASN:362:C:3172"]

$$$$
1g_Grossjean_2025
     RDKit          3D

 39 40  0  0  0  0  0  0  0  0999 V2000
  125.0000  131.1420   58.1500 C   0  0  0  0  0  0  0  0  0  0  0  0
  124.7060  130.8480   59.6090 C   0  0  0  0  0  0  0  0  0  0  0  0
  123.4540  131.1020   60.1670 C   0  0  0  0  0  0  0  0  0  0  0  0
  123.2450  130.8250   61.5220 C   0  0  0  0  0  0  0  0  0  0  0  0
  121.8690  131.1260   62.1150 C   0  0  0  0  0  0  0  0  0  0  0  0
  124.3030  130.2880   62.2890 C   0  0  0  0  0  0  0  0  0  0  0  0
  124.1240  130.0390   63.7220 C   0  0  0  0  0  0  0  0  0  0  0  0
  123.9800  129.8450   64.8540 N   0  0  0  0  0  0  0  0  0  0  0  0
  125.5320  130.0380   61.6340 C   0  0  0  0  0  0  0  0  0  0  0  0
  126.9630  129.3570   62.4440 S   0  0  0  0  0  0  0  0  0  0  0  0
  127.2630  130.3500   63.9360 C   0  0  0  0  0  0  0  0  0  0  0  0
  127.5280  131.8190   63.6030 C   0  0  0  0  0  0  0  0  0  0  0  0
  127.8770  132.6000   64.4890 O   0  0  0  0  0  0  0  0  0  0  0  0
  127.3510  132.1800   62.3200 N   0  0  0  0  0  0  0  0  0  0  0  0
  127.6020  133.5120   61.7700 C   0  0  0  0  0  0  0  0  0  0  0  0
  126.3540  134.3780   61.6290 C   0  0  0  0  0  0  0  0  0  0  0  0
  126.4800  135.7460   61.3660 C   0  0  0  0  0  0  0  0  0  0  0  0
  125.3410  136.5370   61.2360 C   0  0  0  0  0  0  0  0  0  0  0  0
  124.0800  135.9570   61.3650 C   0  0  0  0  0  0  0  0  0  0  0  0
  123.9480  134.5940   61.6230 C   0  0  0  0  0  0  0  0  0  0  0  0
  125.0860  133.8030   61.7540 C   0  0  0  0  0  0  0  0  0  0  0  0
  125.7330  130.3310   60.3240 N   0  0  0  0  0  0  0  0  0  0  0  0
  125.7763  131.9183   58.0816 H   0  0  0  0  0  0  0  0  0  0  0  0
  125.3535  130.2253   57.6553 H   0  0  0  0  0  0  0  0  0  0  0  0
  124.0833  131.4955   57.6553 H   0  0  0  0  0  0  0  0  0  0  0  0
  122.6418  131.5145   59.5503 H   0  0  0  0  0  0  0  0  0  0  0  0
  121.9320  131.1122   63.2131 H   0  0  0  0  0  0  0  0  0  0  0  0
  121.5342  132.1186   61.7794 H   0  0  0  0  0  0  0  0  0  0  0  0
  121.1504  130.3638   61.7794 H   0  0  0  0  0  0  0  0  0  0  0  0
  126.3791  130.2875   64.5878 H   0  0  0  0  0  0  0  0  0  0  0  0
  128.1562  129.9488   64.4372 H   0  0  0  0  0  0  0  0  0  0  0  0
  127.0820  131.4690   61.6540 H   0  0  0  0  0  0  0  0  0  0  0  0
  128.3086  134.0314   62.4340 H   0  0  0  0  0  0  0  0  0  0  0  0
  127.9993  133.3641   60.7550 H   0  0  0  0  0  0  0  0  0  0  0  0
  127.4780  136.1968   61.2619 H   0  0  0  0  0  0  0  0  0  0  0  0
  125.4360  137.6138   61.0326 H   0  0  0  0  0  0  0  0  0  0  0  0
  123.1803  136.5814   61.2621 H   0  0  0  0  0  0  0  0  0  0  0  0
  122.9488  134.1450   61.7227 H   0  0  0  0  0  0  0  0  0  0  0  0
  124.9875  132.7262   61.9558 H   0  0  0  0  0  0  0  0  0  0  0  0
  1  2  1  0
  2  3  2  0
  3  4  1  0
  4  5  1  0
  4  6  2  0
  6  7  1  0
  7  8  3  0
  6  9  1  0
  9 10  1  0
 10 11  1  0
 11 12  1  0
 12 13  2  0
 12 14  1  0
 14 15  1  0
 15 16  1  0
 16 17  2  0
 17 18  1  0
 18 19  2  0
 19 20  1  0
 20 21  2  0
  9 22  2  0
 22  2  1  0
 21 16  1  0
  1 23  1  0
  1 24  1  0
  1 25  1  0
  3 26  1  0
  5 27  1  0
  5 28  1  0
  5 29  1  0
 11 30  1  0
 11 31  1  0
 14 32  1  0
 15 33  1  0
 15 34  1  0
 17 35  1  0
 18 36  1  0
 19 37  1  0
 20 38  1  0
 21 39  1  0
M  END
>  <Binding energies>  (1) 
[-6.65]

>  <Ligand effiencies>  (1) 
[-0.2891304347826087]

>  <Interactions>  (1) 
["V-B:ASP:366:CB:8183, V-B:ASP:366:CG:8184, V-B:ILE:369:CB:8207, V-A:TYR:539:CD1:4873, V-B:GLY:453:C:9013, V-B:ILE:369:CG2:8208, V-B:GLY:453:CA:9015, V-B:LEU:475:CD2:9230, V-A:TYR:539:CE1:4875, V-B:ASP:366:CA:8181, H-B:GLY:454:N:9021, V-B:ILE:369:CG1:8209, H-B:ARG:545:NH2:9900, V-B:ARG:545:CZ:9898, H-B:TYR:484:OH:9319, H-B:ARG:545:NE:9896, V-B:SER:385:CB:8380, V-B:SER:385:CA:8378, V-A:TYR:539:CZ:4877"]

$$$$
1h_Grossjean_2025
     RDKit          3D

 51 52  0  0  0  0  0  0  0  0999 V2000
  128.6320  123.9120   72.6320 C   0  0  0  0  0  0  0  0  0  0  0  0
  129.2910  125.0690   73.1330 O   0  0  0  0  0  0  0  0  0  0  0  0
  129.3110  126.2220   72.3700 C   0  0  0  0  0  0  0  0  0  0  0  0
  128.8950  126.2830   71.0300 C   0  0  0  0  0  0  0  0  0  0  0  0
  128.9560  127.4810   70.3170 C   0  0  0  0  0  0  0  0  0  0  0  0
  128.4800  127.5380   68.8680 C   0  0  0  0  0  0  0  0  0  0  0  0
  129.1270  126.5640   67.9900 N   0  0  0  0  0  0  0  0  0  0  0  0
  129.1370  126.6150   66.6460 C   0  0  0  0  0  0  0  0  0  0  0  0
  128.6130  127.5180   65.9930 O   0  0  0  0  0  0  0  0  0  0  0  0
  129.8410  125.4650   65.9250 C   0  0  0  0  0  0  0  0  0  0  0  0
  130.3650  125.9320   64.2480 S   0  0  0  0  0  0  0  0  0  0  0  0
  130.7560  124.4370   63.3530 C   0  0  0  0  0  0  0  0  0  0  0  0
  129.7100  123.8300   62.7330 N   0  0  0  0  0  0  0  0  0  0  0  0
  129.9380  122.6940   62.0330 C   0  0  0  0  0  0  0  0  0  0  0  0
  128.7230  122.0780   61.3660 C   0  0  0  0  0  0  0  0  0  0  0  0
  131.2010  122.1180   61.9240 C   0  0  0  0  0  0  0  0  0  0  0  0
  132.2860  122.7330   62.5590 C   0  0  0  0  0  0  0  0  0  0  0  0
  133.6630  122.0860   62.4250 C   0  0  0  0  0  0  0  0  0  0  0  0
  132.0710  123.9200   63.2950 C   0  0  0  0  0  0  0  0  0  0  0  0
  133.1870  124.5840   63.9740 C   0  0  0  0  0  0  0  0  0  0  0  0
  134.0700  125.1080   64.5100 N   0  0  0  0  0  0  0  0  0  0  0  0
  129.4020  128.6400   70.9530 C   0  0  0  0  0  0  0  0  0  0  0  0
  129.8190  128.6100   72.2930 C   0  0  0  0  0  0  0  0  0  0  0  0
  130.2730  129.7170   72.9860 O   0  0  0  0  0  0  0  0  0  0  0  0
  129.3480  130.7260   73.3760 C   0  0  0  0  0  0  0  0  0  0  0  0
  129.7790  127.3920   72.9870 C   0  0  0  0  0  0  0  0  0  0  0  0
  130.1770  127.3480   74.3010 O   0  0  0  0  0  0  0  0  0  0  0  0
  131.3580  126.5890   74.5230 C   0  0  0  0  0  0  0  0  0  0  0  0
  128.2814  123.2964   73.4735 H   0  0  0  0  0  0  0  0  0  0  0  0
  127.7721  124.2170   72.0175 H   0  0  0  0  0  0  0  0  0  0  0  0
  129.3330  123.3280   72.0175 H   0  0  0  0  0  0  0  0  0  0  0  0
  128.5166  125.3756   70.5366 H   0  0  0  0  0  0  0  0  0  0  0  0
  127.3961  127.3511   68.8525 H   0  0  0  0  0  0  0  0  0  0  0  0
  128.7437  128.5351   68.4857 H   0  0  0  0  0  0  0  0  0  0  0  0
  129.5700  125.7790   68.4460 H   0  0  0  0  0  0  0  0  0  0  0  0
  130.7281  125.1718   66.5056 H   0  0  0  0  0  0  0  0  0  0  0  0
  129.1287  124.6312   65.8387 H   0  0  0  0  0  0  0  0  0  0  0  0
  128.0225  121.7229   62.1362 H   0  0  0  0  0  0  0  0  0  0  0  0
  128.2265  122.8333   60.7390 H   0  0  0  0  0  0  0  0  0  0  0  0
  129.0388  121.2311   60.7390 H   0  0  0  0  0  0  0  0  0  0  0  0
  131.3440  121.1925   61.3469 H   0  0  0  0  0  0  0  0  0  0  0  0
  134.0759  121.8920   63.4259 H   0  0  0  0  0  0  0  0  0  0  0  0
  133.5705  121.1371   61.8763 H   0  0  0  0  0  0  0  0  0  0  0  0
  134.3343  122.7629   61.8763 H   0  0  0  0  0  0  0  0  0  0  0  0
  129.4272  129.5891   70.3974 H   0  0  0  0  0  0  0  0  0  0  0  0
  129.3017  130.7765   74.4739 H   0  0  0  0  0  0  0  0  0  0  0  0
  129.6757  131.6976   72.9778 H   0  0  0  0  0  0  0  0  0  0  0  0
  128.3516  130.4837   72.9778 H   0  0  0  0  0  0  0  0  0  0  0  0
  131.5264  126.4808   75.6046 H   0  0  0  0  0  0  0  0  0  0  0  0
  131.2452  125.5938   74.0681 H   0  0  0  0  0  0  0  0  0  0  0  0
  132.2164  127.1050   74.0681 H   0  0  0  0  0  0  0  0  0  0  0  0
  1  2  1  0
  2  3  1  0
  3  4  2  0
  4  5  1  0
  5  6  1  0
  6  7  1  0
  7  8  1  0
  8  9  2  0
  8 10  1  0
 10 11  1  0
 11 12  1  0
 12 13  2  0
 13 14  1  0
 14 15  1  0
 14 16  2  0
 16 17  1  0
 17 18  1  0
 17 19  2  0
 19 20  1  0
 20 21  3  0
  5 22  2  0
 22 23  1  0
 23 24  1  0
 24 25  1  0
 23 26  2  0
 26 27  1  0
 27 28  1  0
 26  3  1  0
 19 12  1  0
  1 29  1  0
  1 30  1  0
  1 31  1  0
  4 32  1  0
  6 33  1  0
  6 34  1  0
  7 35  1  0
 10 36  1  0
 10 37  1  0
 15 38  1  0
 15 39  1  0
 15 40  1  0
 16 41  1  0
 18 42  1  0
 18 43  1  0
 18 44  1  0
 22 45  1  0
 25 46  1  0
 25 47  1  0
 25 48  1  0
 28 49  1  0
 28 50  1  0
 28 51  1  0
M  END
>  <Binding energies>  (1) 
[-6.47]

>  <Ligand effiencies>  (1) 
[-0.22310344827586207]

>  <Interactions>  (1) 
["V-A:GLU:543:CD:4908, H-A:GLY:454:N:4050, H-A:TYR:484:OH:4348, H-A:ARG:545:NE:4924, V-A:ARG:545:CZ:4926, V-A:LEU:475:CD2:4259, V-B:PRO:540:CA:9855, V-A:GLY:454:CA:4049, V-B:GLU:543:CB:9878, V-B:GLU:543:CG:9879, V-B:GLU:543:CD:9880, V-B:ALA:541:CB:9864, V-B:HIS:456:CD2:9039, V-B:GLY:544:CA:9886, V-A:HIS:456:CD2:4068, V-A:LYS:547:CE:4950, V-A:HIS:456:CE1:4070, H-B:LYS:547:NZ:9923, V-B:LYS:547:CE:9922, V-B:HIS:456:CE1:9041, V-B:GLU:543:C:9874, H-A:LYS:547:NZ:4951, H-B:GLU:543:O:9875, H-A:ARG:545:NH2:4928, V-A:GLU:543:C:4902, H-A:HIS:456:NE2:4071, V-B:PRO:540:C:9853, H-A:ARG:545:NH1:4927"]

$$$$
1i_Grossjean_2025
     RDKit          3D

 32 33  0  0  0  0  0  0  0  0999 V2000
  128.6780  125.4560   62.5200 C   0  0  0  0  0  0  0  0  0  0  0  0
  129.9770  125.3420   63.2960 C   0  0  0  0  0  0  0  0  0  0  0  0
  131.1960  125.1440   62.6520 C   0  0  0  0  0  0  0  0  0  0  0  0
  132.3630  125.0560   63.4190 C   0  0  0  0  0  0  0  0  0  0  0  0
  133.6910  124.8560   62.6890 C   0  0  0  0  0  0  0  0  0  0  0  0
  132.2760  125.1640   64.8260 C   0  0  0  0  0  0  0  0  0  0  0  0
  133.4910  125.1250   65.6440 C   0  0  0  0  0  0  0  0  0  0  0  0
  134.4520  125.0960   66.2880 N   0  0  0  0  0  0  0  0  0  0  0  0
  130.9930  125.3390   65.3960 C   0  0  0  0  0  0  0  0  0  0  0  0
  130.6990  125.4910   67.1440 S   0  0  0  0  0  0  0  0  0  0  0  0
  129.2440  126.5590   67.3660 C   0  0  0  0  0  0  0  0  0  0  0  0
  129.2160  127.2120   68.7500 C   0  0  0  0  0  0  0  0  0  0  0  0
  129.3330  128.4350   68.8420 O   0  0  0  0  0  0  0  0  0  0  0  0
  129.0570  126.3660   69.7910 N   0  0  0  0  0  0  0  0  0  0  0  0
  129.0020  126.6910   71.1380 C   0  0  0  0  0  0  0  0  0  0  0  0
  129.3640  127.9430   71.6340 C   0  0  0  0  0  0  0  0  0  0  0  0
  129.1700  127.8590   72.9930 C   0  0  0  0  0  0  0  0  0  0  0  0
  128.7180  126.6210   73.3010 O   0  0  0  0  0  0  0  0  0  0  0  0
  128.6170  125.8880   72.1170 N   0  0  0  0  0  0  0  0  0  0  0  0
  129.8690  125.4430   64.6420 N   0  0  0  0  0  0  0  0  0  0  0  0
  127.8358  125.5299   63.2237 H   0  0  0  0  0  0  0  0  0  0  0  0
  128.7068  126.3551   61.8869 H   0  0  0  0  0  0  0  0  0  0  0  0
  128.5498  124.5657   61.8869 H   0  0  0  0  0  0  0  0  0  0  0  0
  131.2407  125.0580   61.5563 H   0  0  0  0  0  0  0  0  0  0  0  0
  134.4993  124.7343   63.4251 H   0  0  0  0  0  0  0  0  0  0  0  0
  133.6309  123.9568   62.0583 H   0  0  0  0  0  0  0  0  0  0  0  0
  133.8984  125.7330   62.0583 H   0  0  0  0  0  0  0  0  0  0  0  0
  129.2639  127.3493   66.6011 H   0  0  0  0  0  0  0  0  0  0  0  0
  128.3453  125.9323   67.2685 H   0  0  0  0  0  0  0  0  0  0  0  0
  129.0040  125.3790   69.5810 H   0  0  0  0  0  0  0  0  0  0  0  0
  129.7263  128.8100   71.0622 H   0  0  0  0  0  0  0  0  0  0  0  0
  129.3530  128.6689   73.7146 H   0  0  0  0  0  0  0  0  0  0  0  0
  1  2  1  0
  2  3  2  0
  3  4  1  0
  4  5  1  0
  4  6  2  0
  6  7  1  0
  7  8  3  0
  6  9  1  0
  9 10  1  0
 10 11  1  0
 11 12  1  0
 12 13  2  0
 12 14  1  0
 14 15  1  0
 15 16  1  0
 16 17  2  0
 17 18  1  0
 18 19  1  0
  9 20  2  0
 20  2  1  0
 19 15  2  0
  1 21  1  0
  1 22  1  0
  1 23  1  0
  3 24  1  0
  5 25  1  0
  5 26  1  0
  5 27  1  0
 11 28  1  0
 11 29  1  0
 14 30  1  0
 16 31  1  0
 17 32  1  0
M  END
>  <Binding energies>  (1) 
[-6.37]

>  <Ligand effiencies>  (1) 
[-0.30333333333333334]

>  <Interactions>  (1) 
["V-A:ARG:545:CD:4923, H-A:GLY:454:N:4050, H-A:TYR:484:OH:4348, H-A:ARG:545:NE:4924, V-A:ARG:545:CZ:4926, V-B:GLU:543:CB:9878, V-B:GLU:543:CG:9879, V-B:GLU:543:CD:9880, V-A:HIS:456:CD2:4068, V-A:HIS:456:CE1:4070, H-B:LYS:547:NZ:9923, V-B:GLU:543:C:9874, H-B:GLU:543:O:9875, H-A:HIS:456:NE2:4071, V-A:ARG:545:CG:4922, H-A:ILE:455:N:4055"]

$$$$
1j_Grossjean_2025
     RDKit          3D

 32 33  0  0  0  0  0  0  0  0999 V2000
  124.3190  127.7490   76.0910 C   0  0  0  0  0  0  0  0  0  0  0  0
  125.5860  128.2810   75.4470 C   0  0  0  0  0  0  0  0  0  0  0  0
  126.3440  129.2850   76.0470 C   0  0  0  0  0  0  0  0  0  0  0  0
  127.5090  129.7260   75.4130 C   0  0  0  0  0  0  0  0  0  0  0  0
  128.3330  130.8160   76.0990 C   0  0  0  0  0  0  0  0  0  0  0  0
  127.8850  129.1510   74.1780 C   0  0  0  0  0  0  0  0  0  0  0  0
  129.1300  129.5620   73.5230 C   0  0  0  0  0  0  0  0  0  0  0  0
  130.1140  129.8870   73.0080 N   0  0  0  0  0  0  0  0  0  0  0  0
  127.0420  128.1560   73.6290 C   0  0  0  0  0  0  0  0  0  0  0  0
  127.3590  127.3290   72.0860 S   0  0  0  0  0  0  0  0  0  0  0  0
  129.1570  127.3250   71.8200 C   0  0  0  0  0  0  0  0  0  0  0  0
  129.8980  126.5620   72.9200 C   0  0  0  0  0  0  0  0  0  0  0  0
  129.4340  125.5000   73.3360 O   0  0  0  0  0  0  0  0  0  0  0  0
  131.0410  127.1340   73.3560 N   0  0  0  0  0  0  0  0  0  0  0  0
  131.8860  126.6470   74.3440 C   0  0  0  0  0  0  0  0  0  0  0  0
  133.1240  127.0140   74.5990 N   0  0  0  0  0  0  0  0  0  0  0  0
  133.6280  126.3390   75.6140 C   0  0  0  0  0  0  0  0  0  0  0  0
  132.7900  125.4000   76.2070 C   0  0  0  0  0  0  0  0  0  0  0  0
  131.2590  125.4100   75.3840 S   0  0  0  0  0  0  0  0  0  0  0  0
  125.9240  127.7190   74.2620 N   0  0  0  0  0  0  0  0  0  0  0  0
  124.4187  127.7908   77.1857 H   0  0  0  0  0  0  0  0  0  0  0  0
  123.4623  128.3634   75.7771 H   0  0  0  0  0  0  0  0  0  0  0  0
  124.1577  126.7072   75.7771 H   0  0  0  0  0  0  0  0  0  0  0  0
  126.0300  129.7239   77.0055 H   0  0  0  0  0  0  0  0  0  0  0  0
  128.2500  130.7062   77.1904 H   0  0  0  0  0  0  0  0  0  0  0  0
  129.3874  130.7214   75.8001 H   0  0  0  0  0  0  0  0  0  0  0  0
  127.9545  131.8046   75.8001 H   0  0  0  0  0  0  0  0  0  0  0  0
  129.3716  126.8493   70.8516 H   0  0  0  0  0  0  0  0  0  0  0  0
  129.5051  128.3683   71.8369 H   0  0  0  0  0  0  0  0  0  0  0  0
  131.3040  128.0210   72.9530 H   0  0  0  0  0  0  0  0  0  0  0  0
  134.6542  126.5091   75.9718 H   0  0  0  0  0  0  0  0  0  0  0  0
  133.0536  124.7557   77.0587 H   0  0  0  0  0  0  0  0  0  0  0  0
  1  2  1  0
  2  3  2  0
  3  4  1  0
  4  5  1  0
  4  6  2  0
  6  7  1  0
  7  8  3  0
  6  9  1  0
  9 10  1  0
 10 11  1  0
 11 12  1  0
 12 13  2  0
 12 14  1  0
 14 15  1  0
 15 16  2  0
 16 17  1  0
 17 18  2  0
 18 19  1  0
  9 20  2  0
 20  2  1  0
 19 15  1  0
  1 21  1  0
  1 22  1  0
  1 23  1  0
  3 24  1  0
  5 25  1  0
  5 26  1  0
  5 27  1  0
 11 28  1  0
 11 29  1  0
 14 30  1  0
 17 31  1  0
 18 32  1  0
M  END
>  <Binding energies>  (1) 
[-6.46]

>  <Ligand effiencies>  (1) 
[-0.3076190476190476]

>  <Interactions>  (1) 
["V-B:HIS:456:CD2:9039, V-B:HIS:456:CB:9036, V-B:HIS:456:CG:9037, V-A:HIS:456:CD2:4068, V-A:HIS:456:CB:4065, V-A:HIS:456:CG:4066, V-A:HIS:456:CE1:4070, H-B:LYS:547:NZ:9923, H-A:GLY:544:O:4913, V-B:LYS:547:CE:9922, H-A:LYS:547:NZ:4951, V-A:LYS:547:CG:4948, V-B:LYS:547:CD:9921, V-B:VAL:458:CG2:9058, V-B:VAL:457:C:9044, V-B:LYS:547:CG:9920"]

$$$$
1k_Grossjean_2025
     RDKit          3D

 50 50  0  0  0  0  0  0  0  0999 V2000
  132.9650  131.8080   62.1450 C   0  0  0  0  0  0  0  0  0  0  0  0
  131.6150  132.2400   62.1760 O   0  0  0  0  0  0  0  0  0  0  0  0
  130.6930  131.2480   61.7450 C   0  0  0  0  0  0  0  0  0  0  0  0
  130.8590  131.0150   60.2370 C   0  0  0  0  0  0  0  0  0  0  0  0
  131.0180  132.2660   59.5800 O   0  0  0  0  0  0  0  0  0  0  0  0
  129.9030  132.6370   58.7810 C   0  0  0  0  0  0  0  0  0  0  0  0
  128.7740  131.6170   58.9750 C   0  0  0  0  0  0  0  0  0  0  0  0
  127.7930  132.1570   59.8510 O   0  0  0  0  0  0  0  0  0  0  0  0
  128.1770  133.3880   60.4500 C   0  0  0  0  0  0  0  0  0  0  0  0
  127.9950  133.2980   61.9770 C   0  0  0  0  0  0  0  0  0  0  0  0
  127.7070  131.9480   62.4640 N   0  0  0  0  0  0  0  0  0  0  0  0
  127.7920  131.5530   63.7460 C   0  0  0  0  0  0  0  0  0  0  0  0
  128.1220  132.3080   64.6630 O   0  0  0  0  0  0  0  0  0  0  0  0
  127.4520  130.0770   64.0080 C   0  0  0  0  0  0  0  0  0  0  0  0
  126.9630  129.1060   62.5400 S   0  0  0  0  0  0  0  0  0  0  0  0
  125.6720  129.9780   61.6630 C   0  0  0  0  0  0  0  0  0  0  0  0
  125.9010  130.2050   60.3440 N   0  0  0  0  0  0  0  0  0  0  0  0
  124.9680  130.8690   59.6230 C   0  0  0  0  0  0  0  0  0  0  0  0
  125.3010  131.0920   58.1610 C   0  0  0  0  0  0  0  0  0  0  0  0
  123.7740  131.3240   60.1780 C   0  0  0  0  0  0  0  0  0  0  0  0
  123.5220  131.0890   61.5330 C   0  0  0  0  0  0  0  0  0  0  0  0
  122.2070  131.5960   62.1220 C   0  0  0  0  0  0  0  0  0  0  0  0
  124.4850  130.4010   62.3050 C   0  0  0  0  0  0  0  0  0  0  0  0
  124.2500  130.1450   63.7290 C   0  0  0  0  0  0  0  0  0  0  0  0
  124.0630  129.9430   64.8530 N   0  0  0  0  0  0  0  0  0  0  0  0
  133.3357  131.6894   63.1738 H   0  0  0  0  0  0  0  0  0  0  0  0
  133.0296  130.8443   61.6186 H   0  0  0  0  0  0  0  0  0  0  0  0
  133.5771  132.5551   61.6186 H   0  0  0  0  0  0  0  0  0  0  0  0
  130.8861  130.3090   62.2844 H   0  0  0  0  0  0  0  0  0  0  0  0
  129.6671  131.5863   61.9527 H   0  0  0  0  0  0  0  0  0  0  0  0
  131.7469  130.3910   60.0577 H   0  0  0  0  0  0  0  0  0  0  0  0
  129.9674  130.5045   59.8440 H   0  0  0  0  0  0  0  0  0  0  0  0
  129.5516  133.6349   59.0823 H   0  0  0  0  0  0  0  0  0  0  0  0
  130.2009  132.6578   57.7223 H   0  0  0  0  0  0  0  0  0  0  0  0
  128.3126  131.3913   58.0023 H   0  0  0  0  0  0  0  0  0  0  0  0
  129.1847  130.6935   59.4091 H   0  0  0  0  0  0  0  0  0  0  0  0
  129.2324  133.5943   60.2186 H   0  0  0  0  0  0  0  0  0  0  0  0
  127.5481  134.1990   60.0541 H   0  0  0  0  0  0  0  0  0  0  0  0
  128.9206  133.6486   62.4569 H   0  0  0  0  0  0  0  0  0  0  0  0
  127.1241  133.9203   62.2308 H   0  0  0  0  0  0  0  0  0  0  0  0
  127.4320  131.2720   61.7670 H   0  0  0  0  0  0  0  0  0  0  0  0
  128.3387  129.5989   64.4498 H   0  0  0  0  0  0  0  0  0  0  0  0
  126.5735  130.0839   64.6700 H   0  0  0  0  0  0  0  0  0  0  0  0
  126.2126  131.7025   58.0816 H   0  0  0  0  0  0  0  0  0  0  0  0
  125.4658  130.1214   57.6703 H   0  0  0  0  0  0  0  0  0  0  0  0
  124.4663  131.6139   57.6703 H   0  0  0  0  0  0  0  0  0  0  0  0
  123.0399  131.8605   59.5590 H   0  0  0  0  0  0  0  0  0  0  0  0
  122.2645  131.5738   63.2203 H   0  0  0  0  0  0  0  0  0  0  0  0
  122.0279  132.6277   61.7849 H   0  0  0  0  0  0  0  0  0  0  0  0
  121.3817  130.9516   61.7849 H   0  0  0  0  0  0  0  0  0  0  0  0
  1  2  1  0
  2  3  1  0
  3  4  1  0
  4  5  1  0
  5  6  1  0
  6  7  1  0
  7  8  1  0
  8  9  1  0
  9 10  1  0
 10 11  1  0
 11 12  1  0
 12 13  2  0
 12 14  1  0
 14 15  1  0
 15 16  1  0
 16 17  2  0
 17 18  1  0
 18 19  1  0
 18 20  2  0
 20 21  1  0
 21 22  1  0
 21 23  2  0
 23 24  1  0
 24 25  3  0
 23 16  1  0
  1 26  1  0
  1 27  1  0
  1 28  1  0
  3 29  1  0
  3 30  1  0
  4 31  1  0
  4 32  1  0
  6 33  1  0
  6 34  1  0
  7 35  1  0
  7 36  1  0
  9 37  1  0
  9 38  1  0
 10 39  1  0
 10 40  1  0
 11 41  1  0
 14 42  1  0
 14 43  1  0
 19 44  1  0
 19 45  1  0
 19 46  1  0
 20 47  1  0
 22 48  1  0
 22 49  1  0
 22 50  1  0
M  END
>  <Binding energies>  (1) 
[-5.19]

>  <Ligand effiencies>  (1) 
[-0.19961538461538464]

>  <Interactions>  (1) 
["V-B:ASP:366:CG:8184, V-A:ASN:362:CB:3176, V-B:ILE:369:CB:8207, V-A:PRO:540:CB:4885, V-A:TYR:539:CD1:4873, V-A:PRO:540:N:4884, V-B:GLY:454:CA:9020, V-A:PRO:540:CA:4883, V-B:GLY:453:C:9013, V-A:TYR:539:C:4867, V-B:ILE:369:CG2:8208, V-B:GLY:453:CA:9015, V-B:LEU:475:CD2:9230, V-A:TYR:539:CE1:4875, H-B:GLY:454:N:9021, H-A:ALA:541:N:4891, V-B:ILE:369:CG1:8209, H-B:ARG:545:NH2:9900, V-B:ARG:545:CZ:9898, H-B:TYR:484:OH:9319, V-A:ALA:541:CB:4892, H-B:ARG:545:NE:9896, V-A:TYR:539:CZ:4877"]

$$$$
1l_Grossjean_2025
     RDKit          3D

 30 30  0  0  0  0  0  0  0  0999 V2000
  133.3080  131.5320   61.7300 C   0  0  0  0  0  0  0  0  0  0  0  0
  132.1810  132.2520   62.2100 O   0  0  0  0  0  0  0  0  0  0  0  0
  131.0760  131.4060   62.2900 N   0  0  0  0  0  0  0  0  0  0  0  0
  129.8410  131.9300   62.1660 C   0  0  0  0  0  0  0  0  0  0  0  0
  129.6220  133.0750   61.7610 O   0  0  0  0  0  0  0  0  0  0  0  0
  128.6920  130.9900   62.5550 C   0  0  0  0  0  0  0  0  0  0  0  0
  127.5700  131.6330   63.8430 S   0  0  0  0  0  0  0  0  0  0  0  0
  126.2920  132.5860   63.0410 C   0  0  0  0  0  0  0  0  0  0  0  0
  126.7100  133.6990   62.3840 N   0  0  0  0  0  0  0  0  0  0  0  0
  125.7920  134.4700   61.7540 C   0  0  0  0  0  0  0  0  0  0  0  0
  126.3350  135.6950   61.0440 C   0  0  0  0  0  0  0  0  0  0  0  0
  124.4320  134.1670   61.7500 C   0  0  0  0  0  0  0  0  0  0  0  0
  123.9890  133.0230   62.4210 C   0  0  0  0  0  0  0  0  0  0  0  0
  122.4940  132.7090   62.4020 C   0  0  0  0  0  0  0  0  0  0  0  0
  124.9300  132.2050   63.0860 C   0  0  0  0  0  0  0  0  0  0  0  0
  124.4940  130.9990   63.7970 C   0  0  0  0  0  0  0  0  0  0  0  0
  124.1490  130.0490   64.3580 N   0  0  0  0  0  0  0  0  0  0  0  0
  133.8941  131.1576   62.5823 H   0  0  0  0  0  0  0  0  0  0  0  0
  132.9677  130.6836   61.1181 H   0  0  0  0  0  0  0  0  0  0  0  0
  133.9347  132.1974   61.1181 H   0  0  0  0  0  0  0  0  0  0  0  0
  131.2780  130.5610   62.8060 H   0  0  0  0  0  0  0  0  0  0  0  0
  128.0957  130.7887   61.6528 H   0  0  0  0  0  0  0  0  0  0  0  0
  129.1617  130.0900   62.9786 H   0  0  0  0  0  0  0  0  0  0  0  0
  126.6631  136.4351   61.7887 H   0  0  0  0  0  0  0  0  0  0  0  0
  127.1890  135.4053   60.4141 H   0  0  0  0  0  0  0  0  0  0  0  0
  125.5468  136.1332   60.4141 H   0  0  0  0  0  0  0  0  0  0  0  0
  123.7169  134.8185   61.2264 H   0  0  0  0  0  0  0  0  0  0  0  0
  122.1226  132.6310   63.4345 H   0  0  0  0  0  0  0  0  0  0  0  0
  121.9569  133.5139   61.8789 H   0  0  0  0  0  0  0  0  0  0  0  0
  122.3261  131.7560   61.8789 H   0  0  0  0  0  0  0  0  0  0  0  0
  1  2  1  0
  2  3  1  0
  3  4  1  0
  4  5  2  0
  4  6  1  0
  6  7  1  0
  7  8  1  0
  8  9  2  0
  9 10  1  0
 10 11  1  0
 10 12  2  0
 12 13  1  0
 13 14  1  0
 13 15  2  0
 15 16  1  0
 16 17  3  0
 15  8  1  0
  1 18  1  0
  1 19  1  0
  1 20  1  0
  3 21  1  0
  6 22  1  0
  6 23  1  0
 11 24  1  0
 11 25  1  0
 11 26  1  0
 12 27  1  0
 14 28  1  0
 14 29  1  0
 14 30  1  0
M  END
>  <Binding energies>  (1) 
[-6.1]

>  <Ligand effiencies>  (1) 
[-0.33888888888888885]

>  <Interactions>  (1) 
["V-A:GLU:543:CD:4908, V-A:ASN:362:CB:3176, V-B:ILE:369:CB:8207, V-A:PRO:540:CB:4885, V-A:TYR:539:CD1:4873, V-B:GLY:454:CA:9020, V-B:GLY:453:C:9013, V-B:ILE:369:CG2:8208, V-B:LEU:475:CD2:9230, V-A:TYR:539:CE1:4875, H-B:GLY:454:N:9021, H-A:ALA:541:N:4891, V-B:ILE:369:CG1:8209, H-B:ARG:545:NH2:9900, H-A:GLU:543:OE1:4909, H-B:TYR:484:OH:9319, V-A:GLU:543:CG:4907, H-B:ARG:545:NE:9896, V-B:ILE:369:CD1:8210"]

$$$$
1m_Grossjean_2025
     RDKit          3D

 35 35  0  0  0  0  0  0  0  0999 V2000
  123.8300  131.0030   61.4010 C   0  0  0  0  0  0  0  0  0  0  0  0
  124.0010  131.3700   62.7630 O   0  0  0  0  0  0  0  0  0  0  0  0
  124.4620  130.4760   63.6610 C   0  0  0  0  0  0  0  0  0  0  0  0
  123.7660  129.8090   64.4320 O   0  0  0  0  0  0  0  0  0  0  0  0
  126.0000  130.3670   63.6130 C   0  0  0  0  0  0  0  0  0  0  0  0
  126.6440  131.5960   63.1250 N   0  0  0  0  0  0  0  0  0  0  0  0
  127.7190  132.1910   63.6750 C   0  0  0  0  0  0  0  0  0  0  0  0
  128.2830  131.7610   64.6840 O   0  0  0  0  0  0  0  0  0  0  0  0
  128.2070  133.4620   62.9670 C   0  0  0  0  0  0  0  0  0  0  0  0
  128.2860  133.3370   61.1470 S   0  0  0  0  0  0  0  0  0  0  0  0
  129.8390  132.5820   60.7140 C   0  0  0  0  0  0  0  0  0  0  0  0
  130.6400  132.3380   61.7830 N   0  0  0  0  0  0  0  0  0  0  0  0
  131.8460  131.7590   61.5750 C   0  0  0  0  0  0  0  0  0  0  0  0
  132.6760  131.5000   62.8170 C   0  0  0  0  0  0  0  0  0  0  0  0
  132.3040  131.4130   60.3050 C   0  0  0  0  0  0  0  0  0  0  0  0
  131.4980  131.6830   59.1940 C   0  0  0  0  0  0  0  0  0  0  0  0
  132.0280  131.3100   57.8120 C   0  0  0  0  0  0  0  0  0  0  0  0
  130.2350  132.2880   59.3870 C   0  0  0  0  0  0  0  0  0  0  0  0
  129.3970  132.6260   58.2340 C   0  0  0  0  0  0  0  0  0  0  0  0
  128.7350  132.8910   57.3240 N   0  0  0  0  0  0  0  0  0  0  0  0
  123.3660  130.0072   61.3451 H   0  0  0  0  0  0  0  0  0  0  0  0
  123.1817  131.7382   60.9018 H   0  0  0  0  0  0  0  0  0  0  0  0
  124.8099  130.9795   60.9018 H   0  0  0  0  0  0  0  0  0  0  0  0
  126.3691  130.1559   64.6275 H   0  0  0  0  0  0  0  0  0  0  0  0
  126.2528  129.5594   62.9102 H   0  0  0  0  0  0  0  0  0  0  0  0
  126.2220  132.0250   62.3140 H   0  0  0  0  0  0  0  0  0  0  0  0
  127.5216  134.2828   63.2249 H   0  0  0  0  0  0  0  0  0  0  0  0
  129.2371  133.6347   63.3122 H   0  0  0  0  0  0  0  0  0  0  0  0
  132.0657  131.6904   63.7121 H   0  0  0  0  0  0  0  0  0  0  0  0
  133.0147  130.4534   62.8200 H   0  0  0  0  0  0  0  0  0  0  0  0
  133.5498  132.1682   62.8200 H   0  0  0  0  0  0  0  0  0  0  0  0
  133.2861  130.9340   60.1780 H   0  0  0  0  0  0  0  0  0  0  0  0
  132.9232  130.6800   57.9204 H   0  0  0  0  0  0  0  0  0  0  0  0
  131.2545  130.7561   57.2599 H   0  0  0  0  0  0  0  0  0  0  0  0
  132.2883  132.2251   57.2599 H   0  0  0  0  0  0  0  0  0  0  0  0
  1  2  1  0
  2  3  1  0
  3  4  2  0
  3  5  1  0
  5  6  1  0
  6  7  1  0
  7  8  2  0
  7  9  1  0
  9 10  1  0
 10 11  1  0
 11 12  2  0
 12 13  1  0
 13 14  1  0
 13 15  2  0
 15 16  1  0
 16 17  1  0
 16 18  2  0
 18 19  1  0
 19 20  3  0
 18 11  1  0
  1 21  1  0
  1 22  1  0
  1 23  1  0
  5 24  1  0
  5 25  1  0
  6 26  1  0
  9 27  1  0
  9 28  1  0
 14 29  1  0
 14 30  1  0
 14 31  1  0
 15 32  1  0
 17 33  1  0
 17 34  1  0
 17 35  1  0
M  END
>  <Binding energies>  (1) 
[-6.19]

>  <Ligand effiencies>  (1) 
[-0.2947619047619048]

>  <Interactions>  (1) 
["V-A:GLU:543:CD:4908, V-B:ASP:366:CG:8184, V-A:ASN:362:CB:3176, V-A:PRO:540:C:4881, V-A:PRO:540:CB:4885, V-A:PRO:540:N:4884, V-B:GLY:454:CA:9020, V-A:PRO:540:CA:4883, V-A:TYR:539:C:4867, V-B:LEU:475:CD2:9230, H-B:ARG:545:NH1:9899, H-B:GLY:454:N:9021, H-A:ALA:541:N:4891, H-B:ARG:545:NH2:9900, V-B:ARG:545:CZ:9898, H-B:TYR:484:OH:9319, V-A:ALA:541:CB:4892, V-A:GLU:543:CG:4907, H-B:ARG:545:NE:9896, V-A:ALA:541:C:4888, V-A:LEU:363:CD1:3189, H-A:TYR:539:N:4870"]

$$$$
1n_Grossjean_2025
     RDKit          3D

 48 49  0  0  0  0  0  0  0  0999 V2000
  127.7290  128.8310   74.1450 C   0  0  0  0  0  0  0  0  0  0  0  0
  128.9940  129.4710   73.5640 C   0  0  0  0  0  0  0  0  0  0  0  0
  129.9450  128.4540   73.2710 O   0  0  0  0  0  0  0  0  0  0  0  0
  129.5640  127.2780   72.7100 C   0  0  0  0  0  0  0  0  0  0  0  0
  129.4290  126.2310   73.3500 O   0  0  0  0  0  0  0  0  0  0  0  0
  129.3090  127.3800   71.2330 C   0  0  0  0  0  0  0  0  0  0  0  0
  130.2870  127.8460   70.3410 C   0  0  0  0  0  0  0  0  0  0  0  0
  130.0170  127.9310   68.9790 C   0  0  0  0  0  0  0  0  0  0  0  0
  128.7670  127.5620   68.4800 C   0  0  0  0  0  0  0  0  0  0  0  0
  128.6010  127.6930   67.0870 N   0  0  0  0  0  0  0  0  0  0  0  0
  128.0520  128.7000   66.3740 C   0  0  0  0  0  0  0  0  0  0  0  0
  127.5830  129.7360   66.8460 O   0  0  0  0  0  0  0  0  0  0  0  0
  128.0320  128.5000   64.8530 C   0  0  0  0  0  0  0  0  0  0  0  0
  127.2000  129.5700   64.1130 C   0  0  0  0  0  0  0  0  0  0  0  0
  125.4540  129.6450   64.6120 S   0  0  0  0  0  0  0  0  0  0  0  0
  124.6480  130.8480   63.5770 C   0  0  0  0  0  0  0  0  0  0  0  0
  123.4490  130.4330   63.0950 N   0  0  0  0  0  0  0  0  0  0  0  0
  122.7380  131.2740   62.3080 C   0  0  0  0  0  0  0  0  0  0  0  0
  121.4040  130.7470   61.8150 C   0  0  0  0  0  0  0  0  0  0  0  0
  123.1900  132.5470   61.9670 C   0  0  0  0  0  0  0  0  0  0  0  0
  124.4340  132.9760   62.4420 C   0  0  0  0  0  0  0  0  0  0  0  0
  124.9150  134.3700   62.0440 C   0  0  0  0  0  0  0  0  0  0  0  0
  125.1970  132.1130   63.2610 C   0  0  0  0  0  0  0  0  0  0  0  0
  126.5230  132.5210   63.7270 C   0  0  0  0  0  0  0  0  0  0  0  0
  127.5720  132.8450   64.0930 N   0  0  0  0  0  0  0  0  0  0  0  0
  127.7880  127.0860   69.3640 C   0  0  0  0  0  0  0  0  0  0  0  0
  128.0610  126.9980   70.7260 C   0  0  0  0  0  0  0  0  0  0  0  0
  127.7772  128.8554   75.2437 H   0  0  0  0  0  0  0  0  0  0  0  0
  126.8453  129.3905   73.8042 H   0  0  0  0  0  0  0  0  0  0  0  0
  127.6563  127.7876   73.8042 H   0  0  0  0  0  0  0  0  0  0  0  0
  128.7405  130.0135   72.6413 H   0  0  0  0  0  0  0  0  0  0  0  0
  129.4201  130.1735   74.2954 H   0  0  0  0  0  0  0  0  0  0  0  0
  131.2744  128.1463   70.7216 H   0  0  0  0  0  0  0  0  0  0  0  0
  130.7948  128.2919   68.2900 H   0  0  0  0  0  0  0  0  0  0  0  0
  128.9890  126.9300   66.5530 H   0  0  0  0  0  0  0  0  0  0  0  0
  129.0663  128.5413   64.4807 H   0  0  0  0  0  0  0  0  0  0  0  0
  127.5624  127.5249   64.6562 H   0  0  0  0  0  0  0  0  0  0  0  0
  127.6549  130.5528   64.3056 H   0  0  0  0  0  0  0  0  0  0  0  0
  127.2096  129.2928   63.0485 H   0  0  0  0  0  0  0  0  0  0  0  0
  120.7680  130.4957   62.6766 H   0  0  0  0  0  0  0  0  0  0  0  0
  120.9083  131.5168   61.2054 H   0  0  0  0  0  0  0  0  0  0  0  0
  121.5683  129.8462   61.2054 H   0  0  0  0  0  0  0  0  0  0  0  0
  122.5775  133.2053   61.3334 H   0  0  0  0  0  0  0  0  0  0  0  0
  125.1186  134.9601   62.9497 H   0  0  0  0  0  0  0  0  0  0  0  0
  125.8354  134.2840   61.4478 H   0  0  0  0  0  0  0  0  0  0  0  0
  124.1374  134.8699   61.4478 H   0  0  0  0  0  0  0  0  0  0  0  0
  126.8029  126.7817   68.9805 H   0  0  0  0  0  0  0  0  0  0  0  0
  127.2870  126.6239   71.4123 H   0  0  0  0  0  0  0  0  0  0  0  0
  1  2  1  0
  2  3  1  0
  3  4  1  0
  4  5  2  0
  4  6  1  0
  6  7  2  0
  7  8  1  0
  8  9  2  0
  9 10  1  0
 10 11  1  0
 11 12  2  0
 11 13  1  0
 13 14  1  0
 14 15  1  0
 15 16  1  0
 16 17  2  0
 17 18  1  0
 18 19  1  0
 18 20  2  0
 20 21  1  0
 21 22  1  0
 21 23  2  0
 23 24  1  0
 24 25  3  0
  9 26  1  0
 26 27  2  0
 27  6  1  0
 23 16  1  0
  1 28  1  0
  1 29  1  0
  1 30  1  0
  2 31  1  0
  2 32  1  0
  7 33  1  0
  8 34  1  0
 10 35  1  0
 13 36  1  0
 13 37  1  0
 14 38  1  0
 14 39  1  0
 19 40  1  0
 19 41  1  0
 19 42  1  0
 20 43  1  0
 22 44  1  0
 22 45  1  0
 22 46  1  0
 26 47  1  0
 27 48  1  0
M  END
>  <Binding energies>  (1) 
[-7.88]

>  <Ligand effiencies>  (1) 
[-0.2814285714285714]

>  <Interactions>  (1) 
["V-A:GLU:543:CD:4908, V-B:ASP:366:CG:8184, V-B:ILE:369:CB:8207, V-B:GLY:454:CA:9020, V-B:GLY:453:C:9013, V-B:ILE:369:CG2:8208, V-B:GLY:453:CA:9015, V-B:LEU:475:CD2:9230, V-B:ASP:366:CA:8181, H-B:GLY:454:N:9021, V-B:ILE:369:CG1:8209, H-B:ARG:545:NH2:9900, H-A:GLU:543:OE2:4910, V-B:GLU:543:CB:9878, V-B:GLU:543:CD:9880, V-B:HIS:456:CD2:9039, V-B:HIS:456:CG:9037, V-A:HIS:456:CE1:4070, H-B:LYS:547:NZ:9923, V-B:HIS:456:CE1:9041, V-B:GLU:543:C:9874, H-A:LYS:547:NZ:4951, V-A:GLU:543:CB:4906, V-A:GLU:543:C:4902, V-B:TYR:484:CZ:9318, H-B:TYR:484:OH:9319, V-A:GLU:543:CG:4907, H-B:GLU:543:OE2:9882, V-B:CYS:365:C:8175"]

$$$$
1o_Grossjean_2025
     RDKit          3D

 45 46  0  0  0  0  0  0  0  0999 V2000
  129.3730  129.6620   73.0050 C   0  0  0  0  0  0  0  0  0  0  0  0
  130.0010  128.4200   73.2900 O   0  0  0  0  0  0  0  0  0  0  0  0
  129.5960  127.2750   72.6810 C   0  0  0  0  0  0  0  0  0  0  0  0
  129.3950  126.2180   73.2870 O   0  0  0  0  0  0  0  0  0  0  0  0
  129.4120  127.4240   71.1990 C   0  0  0  0  0  0  0  0  0  0  0  0
  130.4220  127.9390   70.3730 C   0  0  0  0  0  0  0  0  0  0  0  0
  130.2200  128.0610   69.0010 C   0  0  0  0  0  0  0  0  0  0  0  0
  129.0080  127.6790   68.4270 C   0  0  0  0  0  0  0  0  0  0  0  0
  128.9140  127.8370   67.0300 N   0  0  0  0  0  0  0  0  0  0  0  0
  128.0860  128.6160   66.3010 C   0  0  0  0  0  0  0  0  0  0  0  0
  127.2550  129.3970   66.7640 O   0  0  0  0  0  0  0  0  0  0  0  0
  128.2490  128.5100   64.7770 C   0  0  0  0  0  0  0  0  0  0  0  0
  127.1820  129.2980   63.9920 C   0  0  0  0  0  0  0  0  0  0  0  0
  126.5870  128.4490   62.4990 S   0  0  0  0  0  0  0  0  0  0  0  0
  125.3900  129.4940   61.6950 C   0  0  0  0  0  0  0  0  0  0  0  0
  125.6060  129.6360   60.3620 N   0  0  0  0  0  0  0  0  0  0  0  0
  124.7530  130.4030   59.6420 C   0  0  0  0  0  0  0  0  0  0  0  0
  125.0490  130.5020   58.1580 C   0  0  0  0  0  0  0  0  0  0  0  0
  123.6690  131.0630   60.2160 C   0  0  0  0  0  0  0  0  0  0  0  0
  123.4520  130.9450   61.5930 C   0  0  0  0  0  0  0  0  0  0  0  0
  122.2650  131.6900   62.2010 C   0  0  0  0  0  0  0  0  0  0  0  0
  124.3320  130.1530   62.3660 C   0  0  0  0  0  0  0  0  0  0  0  0
  124.1560  130.0660   63.8180 C   0  0  0  0  0  0  0  0  0  0  0  0
  124.0140  129.9970   64.9640 N   0  0  0  0  0  0  0  0  0  0  0  0
  127.9940  127.1570   69.2460 C   0  0  0  0  0  0  0  0  0  0  0  0
  128.1980  127.0350   70.6170 C   0  0  0  0  0  0  0  0  0  0  0  0
  129.1170  130.1682   73.9474 H   0  0  0  0  0  0  0  0  0  0  0  0
  130.0594  130.2950   72.4234 H   0  0  0  0  0  0  0  0  0  0  0  0
  128.4563  129.4845   72.4234 H   0  0  0  0  0  0  0  0  0  0  0  0
  131.3814  128.2490   70.8129 H   0  0  0  0  0  0  0  0  0  0  0  0
  131.0228  128.4619   68.3647 H   0  0  0  0  0  0  0  0  0  0  0  0
  129.5890  127.2970   66.5080 H   0  0  0  0  0  0  0  0  0  0  0  0
  129.2410  128.8993   64.5043 H   0  0  0  0  0  0  0  0  0  0  0  0
  128.1315  127.4493   64.5104 H   0  0  0  0  0  0  0  0  0  0  0  0
  126.3228  129.4731   64.6562 H   0  0  0  0  0  0  0  0  0  0  0  0
  127.6569  130.2327   63.6592 H   0  0  0  0  0  0  0  0  0  0  0  0
  126.0831  130.8478   58.0126 H   0  0  0  0  0  0  0  0  0  0  0  0
  124.9242  129.5132   57.6925 H   0  0  0  0  0  0  0  0  0  0  0  0
  124.3544  131.2167   57.6925 H   0  0  0  0  0  0  0  0  0  0  0  0
  122.9927  131.6688   59.5950 H   0  0  0  0  0  0  0  0  0  0  0  0
  122.3297  131.6494   63.2983 H   0  0  0  0  0  0  0  0  0  0  0  0
  122.2827  132.7393   61.8712 H   0  0  0  0  0  0  0  0  0  0  0  0
  121.3278  131.2178   61.8712 H   0  0  0  0  0  0  0  0  0  0  0  0
  127.0369  126.8440   68.8032 H   0  0  0  0  0  0  0  0  0  0  0  0
  127.3968  126.6284   71.2516 H   0  0  0  0  0  0  0  0  0  0  0  0
  1  2  1  0
  2  3  1  0
  3  4  2  0
  3  5  1  0
  5  6  2  0
  6  7  1  0
  7  8  2  0
  8  9  1  0
  9 10  1  0
 10 11  2  0
 10 12  1  0
 12 13  1  0
 13 14  1  0
 14 15  1  0
 15 16  2  0
 16 17  1  0
 17 18  1  0
 17 19  2  0
 19 20  1  0
 20 21  1  0
 20 22  2  0
 22 23  1  0
 23 24  3  0
  8 25  1  0
 25 26  2  0
 26  5  1  0
 22 15  1  0
  1 27  1  0
  1 28  1  0
  1 29  1  0
  6 30  1  0
  7 31  1  0
  9 32  1  0
 12 33  1  0
 12 34  1  0
 13 35  1  0
 13 36  1  0
 18 37  1  0
 18 38  1  0
 18 39  1  0
 19 40  1  0
 21 41  1  0
 21 42  1  0
 21 43  1  0
 25 44  1  0
 26 45  1  0
M  END
>  <Binding energies>  (1) 
[-7.78]

>  <Ligand effiencies>  (1) 
[-0.28814814814814815]

>  <Interactions>  (1) 
["V-B:ASP:366:CB:8183, V-A:GLU:543:CD:4908, V-B:ASP:366:CG:8184, V-B:ILE:369:CB:8207, V-B:GLY:454:CA:9020, V-B:GLY:453:C:9013, V-B:ILE:369:CG2:8208, V-B:GLY:453:CA:9015, V-B:ASP:366:CA:8181, H-B:GLY:454:N:9021, V-B:ILE:369:CG1:8209, H-B:ARG:545:NH2:9900, H-A:GLU:543:OE2:4910, V-B:GLU:543:CB:9878, V-B:GLU:543:CD:9880, V-B:HIS:456:CD2:9039, V-A:GLY:544:C:4912, V-A:HIS:456:CE1:4070, H-B:LYS:547:NZ:9923, V-B:HIS:456:CE1:9041, V-B:GLU:543:C:9874, H-A:LYS:547:NZ:4951, H-A:GLU:543:OE1:4909, V-A:GLU:543:CB:4906, V-A:GLU:543:C:4902, V-B:ARG:545:CZ:9898, H-B:TYR:484:OH:9319, V-A:GLU:543:CG:4907, H-B:ARG:545:NE:9896, V-A:GLU:543:CA:4904"]

$$$$
1p_Grossjean_2025
     RDKit          3D

 35 36  0  0  0  0  0  0  0  0999 V2000
  132.8150  131.4650   62.8660 C   0  0  0  0  0  0  0  0  0  0  0  0
  131.9130  131.7530   61.6810 C   0  0  0  0  0  0  0  0  0  0  0  0
  132.2940  131.4280   60.3800 C   0  0  0  0  0  0  0  0  0  0  0  0
  131.4280  131.7290   59.3230 C   0  0  0  0  0  0  0  0  0  0  0  0
  131.8710  131.3770   57.9050 C   0  0  0  0  0  0  0  0  0  0  0  0
  130.1880  132.3480   59.6010 C   0  0  0  0  0  0  0  0  0  0  0  0
  129.2860  132.7170   58.5090 C   0  0  0  0  0  0  0  0  0  0  0  0
  128.5730  133.0080   57.6440 N   0  0  0  0  0  0  0  0  0  0  0  0
  129.8750  132.6210   60.9540 C   0  0  0  0  0  0  0  0  0  0  0  0
  128.3570  133.3850   61.4780 S   0  0  0  0  0  0  0  0  0  0  0  0
  127.2570  132.0470   62.0260 C   0  0  0  0  0  0  0  0  0  0  0  0
  128.0030  130.8000   62.5380 C   0  0  0  0  0  0  0  0  0  0  0  0
  128.1420  130.7520   64.0670 C   0  0  0  0  0  0  0  0  0  0  0  0
  128.2340  131.8040   64.7010 O   0  0  0  0  0  0  0  0  0  0  0  0
  128.1380  129.5160   64.6150 N   0  0  0  0  0  0  0  0  0  0  0  0
  128.2470  129.1950   65.9620 C   0  0  0  0  0  0  0  0  0  0  0  0
  128.5070  127.9020   66.4180 C   0  0  0  0  0  0  0  0  0  0  0  0
  128.5380  128.0060   67.7900 C   0  0  0  0  0  0  0  0  0  0  0  0
  128.3060  129.2920   68.1420 O   0  0  0  0  0  0  0  0  0  0  0  0
  128.1220  130.0360   66.9750 N   0  0  0  0  0  0  0  0  0  0  0  0
  130.7310  132.3440   61.9700 N   0  0  0  0  0  0  0  0  0  0  0  0
  132.2612  131.6418   63.7998 H   0  0  0  0  0  0  0  0  0  0  0  0
  133.1458  130.4166   62.8288 H   0  0  0  0  0  0  0  0  0  0  0  0
  133.6921  132.1278   62.8288 H   0  0  0  0  0  0  0  0  0  0  0  0
  133.2617  130.9418   60.1871 H   0  0  0  0  0  0  0  0  0  0  0  0
  132.7315  130.6932   57.9488 H   0  0  0  0  0  0  0  0  0  0  0  0
  131.0416  130.8889   57.3723 H   0  0  0  0  0  0  0  0  0  0  0  0
  132.1591  132.2953   57.3723 H   0  0  0  0  0  0  0  0  0  0  0  0
  126.6230  132.4302   62.8391 H   0  0  0  0  0  0  0  0  0  0  0  0
  126.6722  131.7331   61.1488 H   0  0  0  0  0  0  0  0  0  0  0  0
  127.4519  129.9061   62.2106 H   0  0  0  0  0  0  0  0  0  0  0  0
  129.0207  130.8393   62.1224 H   0  0  0  0  0  0  0  0  0  0  0  0
  128.0560  128.7310   63.9870 H   0  0  0  0  0  0  0  0  0  0  0  0
  128.6551  126.9959   65.8121 H   0  0  0  0  0  0  0  0  0  0  0  0
  128.7219  127.1765   68.4887 H   0  0  0  0  0  0  0  0  0  0  0  0
  1  2  1  0
  2  3  2  0
  3  4  1  0
  4  5  1  0
  4  6  2  0
  6  7  1  0
  7  8  3  0
  6  9  1  0
  9 10  1  0
 10 11  1  0
 11 12  1  0
 12 13  1  0
 13 14  2  0
 13 15  1  0
 15 16  1  0
 16 17  1  0
 17 18  2  0
 18 19  1  0
 19 20  1  0
  9 21  2  0
 21  2  1  0
 20 16  2  0
  1 22  1  0
  1 23  1  0
  1 24  1  0
  3 25  1  0
  5 26  1  0
  5 27  1  0
  5 28  1  0
 11 29  1  0
 11 30  1  0
 12 31  1  0
 12 32  1  0
 15 33  1  0
 17 34  1  0
 18 35  1  0
M  END
>  <Binding energies>  (1) 
[-6.51]

>  <Ligand effiencies>  (1) 
[-0.2959090909090909]

>  <Interactions>  (1) 
["V-A:GLU:543:CD:4908, V-A:ASN:362:CB:3176, V-A:PRO:540:C:4881, V-A:PRO:540:CB:4885, V-A:TYR:539:CD1:4873, V-A:PRO:540:N:4884, V-A:PRO:540:CA:4883, V-A:TYR:539:C:4867, H-A:ALA:541:N:4891, V-B:GLU:543:CD:9880, V-B:HIS:456:CE1:9041, H-A:GLU:543:OE1:4909, V-A:GLU:543:CB:4906, H-B:TYR:484:OH:9319, V-A:GLU:543:CG:4907, V-A:ALA:541:C:4888, V-A:LEU:363:CD1:3189, H-B:GLU:543:OE2:9882, H-A:TYR:539:N:4870"]

$$$$
1q_Grossjean_2025
     RDKit          3D

 38 38  0  0  0  0  0  0  0  0999 V2000
  133.2130  131.6320   61.8000 C   0  0  0  0  0  0  0  0  0  0  0  0
  131.9710  132.2520   61.4980 O   0  0  0  0  0  0  0  0  0  0  0  0
  130.8390  131.8750   62.1430 C   0  0  0  0  0  0  0  0  0  0  0  0
  130.4980  132.2470   63.2670 O   0  0  0  0  0  0  0  0  0  0  0  0
  129.9700  130.8720   61.3550 C   0  0  0  0  0  0  0  0  0  0  0  0
  129.2170  129.9570   62.2250 N   0  0  0  0  0  0  0  0  0  0  0  0
  127.9280  129.6000   62.0670 C   0  0  0  0  0  0  0  0  0  0  0  0
  127.2220  130.0150   61.1460 O   0  0  0  0  0  0  0  0  0  0  0  0
  127.3710  128.6160   63.1060 C   0  0  0  0  0  0  0  0  0  0  0  0
  127.1900  129.2150   64.5140 C   0  0  0  0  0  0  0  0  0  0  0  0
  125.4610  129.5970   64.9260 S   0  0  0  0  0  0  0  0  0  0  0  0
  124.8300  130.7430   63.7170 C   0  0  0  0  0  0  0  0  0  0  0  0
  123.5980  130.4120   63.2520 N   0  0  0  0  0  0  0  0  0  0  0  0
  123.0150  131.2070   62.3260 C   0  0  0  0  0  0  0  0  0  0  0  0
  121.6470  130.7630   61.8420 C   0  0  0  0  0  0  0  0  0  0  0  0
  123.6220  132.3610   61.8360 C   0  0  0  0  0  0  0  0  0  0  0  0
  124.8800  132.7270   62.3260 C   0  0  0  0  0  0  0  0  0  0  0  0
  125.5170  134.0070   61.7870 C   0  0  0  0  0  0  0  0  0  0  0  0
  125.5080  131.9130   63.2960 C   0  0  0  0  0  0  0  0  0  0  0  0
  126.7990  132.3110   63.8620 C   0  0  0  0  0  0  0  0  0  0  0  0
  127.8190  132.6290   64.3070 N   0  0  0  0  0  0  0  0  0  0  0  0
  133.3363  131.5704   62.8913 H   0  0  0  0  0  0  0  0  0  0  0  0
  133.2310  130.6192   61.3713 H   0  0  0  0  0  0  0  0  0  0  0  0
  134.0333  132.2263   61.3713 H   0  0  0  0  0  0  0  0  0  0  0  0
  129.2555  131.4365   60.7379 H   0  0  0  0  0  0  0  0  0  0  0  0
  130.6479  130.2599   60.7420 H   0  0  0  0  0  0  0  0  0  0  0  0
  129.7180  129.5910   63.0220 H   0  0  0  0  0  0  0  0  0  0  0  0
  126.3910  128.2615   62.7539 H   0  0  0  0  0  0  0  0  0  0  0  0
  128.1098  127.8066   63.2008 H   0  0  0  0  0  0  0  0  0  0  0  0
  127.5716  128.4928   65.2508 H   0  0  0  0  0  0  0  0  0  0  0  0
  127.7437  130.1653   64.5338 H   0  0  0  0  0  0  0  0  0  0  0  0
  121.0018  130.5536   62.7080 H   0  0  0  0  0  0  0  0  0  0  0  0
  121.1965  131.5611   61.2336 H   0  0  0  0  0  0  0  0  0  0  0  0
  121.7510  129.8525   61.2336 H   0  0  0  0  0  0  0  0  0  0  0  0
  123.1193  132.9756   61.0747 H   0  0  0  0  0  0  0  0  0  0  0  0
  125.8329  134.6417   62.6281 H   0  0  0  0  0  0  0  0  0  0  0  0
  126.3924  133.7502   61.1724 H   0  0  0  0  0  0  0  0  0  0  0  0
  124.7843  134.5506   61.1724 H   0  0  0  0  0  0  0  0  0  0  0  0
  1  2  1  0
  2  3  1  0
  3  4  2  0
  3  5  1  0
  5  6  1  0
  6  7  1  0
  7  8  2  0
  7  9  1  0
  9 10  1  0
 10 11  1  0
 11 12  1  0
 12 13  2  0
 13 14  1  0
 14 15  1  0
 14 16  2  0
 16 17  1  0
 17 18  1  0
 17 19  2  0
 19 20  1  0
 20 21  3  0
 19 12  1  0
  1 22  1  0
  1 23  1  0
  1 24  1  0
  5 25  1  0
  5 26  1  0
  6 27  1  0
  9 28  1  0
  9 29  1  0
 10 30  1  0
 10 31  1  0
 15 32  1  0
 15 33  1  0
 15 34  1  0
 16 35  1  0
 18 36  1  0
 18 37  1  0
 18 38  1  0
M  END
>  <Binding energies>  (1) 
[-5.75]

>  <Ligand effiencies>  (1) 
[-0.26136363636363635]

>  <Interactions>  (1) 
["V-A:GLU:543:CD:4908, V-B:ASP:366:CG:8184, V-A:ASN:362:CB:3176, V-B:ILE:369:CB:8207, V-A:PRO:540:CB:4885, V-B:GLY:454:CA:9020, V-A:PRO:540:CA:4883, V-B:GLY:453:C:9013, V-B:ILE:369:CG2:8208, V-B:GLY:453:CA:9015, V-B:LEU:475:CD2:9230, V-B:ASP:366:CA:8181, H-B:GLY:454:N:9021, H-A:ALA:541:N:4891, V-B:ILE:369:CG1:8209, H-B:ARG:545:NH2:9900, V-B:GLU:543:CD:9880, H-A:GLU:543:OE1:4909, V-B:TYR:484:CZ:9318, H-B:TYR:484:OH:9319, H-B:ARG:545:NE:9896, V-B:CYS:365:C:8175"]

$$$$
2a_Ghoteimi_2023
     RDKit          3D

 85 90  0  0  0  0  0  0  0  0999 V2000
  132.7870  131.5070   58.5090 C   0  0  0  0  0  0  0  0  0  0  0  0
  131.9000  131.7090   57.2770 C   0  0  0  0  0  0  0  0  0  0  0  0
  131.1380  132.8980   57.4330 O   0  0  0  0  0  0  0  0  0  0  0  0
  129.8750  132.8620   57.9310 C   0  0  0  0  0  0  0  0  0  0  0  0
  129.0460  133.7580   57.7460 O   0  0  0  0  0  0  0  0  0  0  0  0
  129.5860  131.6200   58.7250 C   0  0  0  0  0  0  0  0  0  0  0  0
  129.1670  130.4290   58.1140 C   0  0  0  0  0  0  0  0  0  0  0  0
  128.9090  129.2960   58.8780 C   0  0  0  0  0  0  0  0  0  0  0  0
  129.0680  129.3240   60.2650 C   0  0  0  0  0  0  0  0  0  0  0  0
  128.7760  128.1230   60.9390 N   0  0  0  0  0  0  0  0  0  0  0  0
  129.6060  127.1480   61.3700 C   0  0  0  0  0  0  0  0  0  0  0  0
  130.8250  127.1260   61.1930 O   0  0  0  0  0  0  0  0  0  0  0  0
  128.9220  125.9830   62.0960 C   0  0  0  0  0  0  0  0  0  0  0  0
  129.7110  125.5050   63.6660 S   0  0  0  0  0  0  0  0  0  0  0  0
  129.1770  126.7100   64.8590 C   0  0  0  0  0  0  0  0  0  0  0  0
  128.5980  127.8040   64.3100 N   0  0  0  0  0  0  0  0  0  0  0  0
  128.1560  128.8000   65.1180 C   0  0  0  0  0  0  0  0  0  0  0  0
  127.5360  129.9810   64.4420 C   0  0  0  0  0  0  0  0  0  0  0  0
  128.2560  131.1650   64.2450 C   0  0  0  0  0  0  0  0  0  0  0  0
  127.6700  132.2650   63.6260 C   0  0  0  0  0  0  0  0  0  0  0  0
  126.3440  132.2210   63.1730 C   0  0  0  0  0  0  0  0  0  0  0  0
  125.7580  133.3440   62.5800 N   0  0  0  0  0  0  0  0  0  0  0  0
  124.3170  133.3850   62.2630 C   0  0  0  0  0  0  0  0  0  0  0  0
  123.7850  134.8010   61.9590 C   0  0  0  0  0  0  0  0  0  0  0  0
  124.5500  135.3950   60.9220 O   0  0  0  0  0  0  0  0  0  0  0  0
  125.9140  135.5150   61.2900 C   0  0  0  0  0  0  0  0  0  0  0  0
  126.5130  134.1220   61.5740 C   0  0  0  0  0  0  0  0  0  0  0  0
  125.6220  131.0350   63.3850 C   0  0  0  0  0  0  0  0  0  0  0  0
  126.2090  129.9350   64.0020 C   0  0  0  0  0  0  0  0  0  0  0  0
  128.2760  128.7110   66.5070 C   0  0  0  0  0  0  0  0  0  0  0  0
  128.8730  127.5880   67.0980 C   0  0  0  0  0  0  0  0  0  0  0  0
  128.9750  127.5610   68.5880 C   0  0  0  0  0  0  0  0  0  0  0  0
  127.9260  127.0500   69.3560 C   0  0  0  0  0  0  0  0  0  0  0  0
  128.0030  127.0380   70.7450 C   0  0  0  0  0  0  0  0  0  0  0  0
  129.1340  127.5350   71.4100 C   0  0  0  0  0  0  0  0  0  0  0  0
  129.2240  127.5500   72.8050 N   0  0  0  0  0  0  0  0  0  0  0  0
  128.6510  128.6860   73.5540 C   0  0  0  0  0  0  0  0  0  0  0  0
  128.4700  128.3940   75.0590 C   0  0  0  0  0  0  0  0  0  0  0  0
  129.7060  127.9860   75.6270 O   0  0  0  0  0  0  0  0  0  0  0  0
  130.2050  126.8100   75.0100 C   0  0  0  0  0  0  0  0  0  0  0  0
  130.4280  127.0580   73.5040 C   0  0  0  0  0  0  0  0  0  0  0  0
  130.1780  128.0580   70.6330 C   0  0  0  0  0  0  0  0  0  0  0  0
  130.1000  128.0710   69.2430 C   0  0  0  0  0  0  0  0  0  0  0  0
  129.3350  126.5500   66.2530 C   0  0  0  0  0  0  0  0  0  0  0  0
  129.9160  125.3260   66.8150 C   0  0  0  0  0  0  0  0  0  0  0  0
  130.3760  124.3620   67.2600 N   0  0  0  0  0  0  0  0  0  0  0  0
  129.4800  130.5140   60.8840 C   0  0  0  0  0  0  0  0  0  0  0  0
  129.7390  131.6470   60.1180 C   0  0  0  0  0  0  0  0  0  0  0  0
  132.1859  131.6439   59.4200 H   0  0  0  0  0  0  0  0  0  0  0  0
  133.2067  130.4903   58.4959 H   0  0  0  0  0  0  0  0  0  0  0  0
  133.6055  132.2417   58.4959 H   0  0  0  0  0  0  0  0  0  0  0  0
  132.5314  131.7929   56.3802 H   0  0  0  0  0  0  0  0  0  0  0  0
  131.2217  130.8499   57.1682 H   0  0  0  0  0  0  0  0  0  0  0  0
  129.0415  130.3909   57.0219 H   0  0  0  0  0  0  0  0  0  0  0  0
  128.5769  128.3701   58.3856 H   0  0  0  0  0  0  0  0  0  0  0  0
  127.7910  127.9690   61.0960 H   0  0  0  0  0  0  0  0  0  0  0  0
  127.8824  126.2732   62.3082 H   0  0  0  0  0  0  0  0  0  0  0  0
  128.9974  125.1112   61.4295 H   0  0  0  0  0  0  0  0  0  0  0  0
  129.3005  131.2269   64.5845 H   0  0  0  0  0  0  0  0  0  0  0  0
  128.2574  133.1850   63.4898 H   0  0  0  0  0  0  0  0  0  0  0  0
  124.1377  132.7509   61.3822 H   0  0  0  0  0  0  0  0  0  0  0  0
  123.7829  133.0275   63.1557 H   0  0  0  0  0  0  0  0  0  0  0  0
  122.7332  134.7350   61.6436 H   0  0  0  0  0  0  0  0  0  0  0  0
  123.8648  135.4188   62.8656 H   0  0  0  0  0  0  0  0  0  0  0  0
  126.4715  135.9899   60.4692 H   0  0  0  0  0  0  0  0  0  0  0  0
  125.9880  136.1300   62.1990 H   0  0  0  0  0  0  0  0  0  0  0  0
  126.5275  133.5519   60.6334 H   0  0  0  0  0  0  0  0  0  0  0  0
  127.5215  134.2830   61.9828 H   0  0  0  0  0  0  0  0  0  0  0  0
  124.5737  130.9749   63.0573 H   0  0  0  0  0  0  0  0  0  0  0  0
  125.6214  129.0163   64.1459 H   0  0  0  0  0  0  0  0  0  0  0  0
  127.8997  129.5271   67.1413 H   0  0  0  0  0  0  0  0  0  0  0  0
  127.0296  126.6529   68.8572 H   0  0  0  0  0  0  0  0  0  0  0  0
  127.1646  126.6328   71.3306 H   0  0  0  0  0  0  0  0  0  0  0  0
  129.3217  129.5509   73.4441 H   0  0  0  0  0  0  0  0  0  0  0  0
  127.6521  128.8814   73.1369 H   0  0  0  0  0  0  0  0  0  0  0  0
  128.1186  129.3042   75.5669 H   0  0  0  0  0  0  0  0  0  0  0  0
  127.7318  127.5881   75.1841 H   0  0  0  0  0  0  0  0  0  0  0  0
  131.1601  126.5302   75.4784 H   0  0  0  0  0  0  0  0  0  0  0  0
  129.4745  125.9976   75.1377 H   0  0  0  0  0  0  0  0  0  0  0  0
  131.2275  127.8046   73.3884 H   0  0  0  0  0  0  0  0  0  0  0  0
  130.6929  126.0908   73.0519 H   0  0  0  0  0  0  0  0  0  0  0  0
  131.0718  128.4640   71.1293 H   0  0  0  0  0  0  0  0  0  0  0  0
  130.9313  128.4864   68.6545 H   0  0  0  0  0  0  0  0  0  0  0  0
  129.5986  130.5516   61.9769 H   0  0  0  0  0  0  0  0  0  0  0  0
  130.0674  132.5737   60.6113 H   0  0  0  0  0  0  0  0  0  0  0  0
  1  2  1  0
  2  3  1  0
  3  4  1  0
  4  5  2  0
  4  6  1  0
  6  7  2  0
  7  8  1  0
  8  9  2  0
  9 10  1  0
 10 11  1  0
 11 12  2  0
 11 13  1  0
 13 14  1  0
 14 15  1  0
 15 16  2  0
 16 17  1  0
 17 18  1  0
 18 19  2  0
 19 20  1  0
 20 21  2  0
 21 22  1  0
 22 23  1  0
 23 24  1  0
 24 25  1  0
 25 26  1  0
 26 27  1  0
 21 28  1  0
 28 29  2  0
 17 30  2  0
 30 31  1  0
 31 32  1  0
 32 33  2  0
 33 34  1  0
 34 35  2  0
 35 36  1  0
 36 37  1  0
 37 38  1  0
 38 39  1  0
 39 40  1  0
 40 41  1  0
 35 42  1  0
 42 43  2  0
 31 44  2  0
 44 45  1  0
 45 46  3  0
  9 47  1  0
 47 48  2  0
 48  6  1  0
 44 15  1  0
 29 18  1  0
 43 32  1  0
 27 22  1  0
 41 36  1  0
  1 49  1  0
  1 50  1  0
  1 51  1  0
  2 52  1  0
  2 53  1  0
  7 54  1  0
  8 55  1  0
 10 56  1  0
 13 57  1  0
 13 58  1  0
 19 59  1  0
 20 60  1  0
 23 61  1  0
 23 62  1  0
 24 63  1  0
 24 64  1  0
 26 65  1  0
 26 66  1  0
 27 67  1  0
 27 68  1  0
 28 69  1  0
 29 70  1  0
 30 71  1  0
 33 72  1  0
 34 73  1  0
 37 74  1  0
 37 75  1  0
 38 76  1  0
 38 77  1  0
 40 78  1  0
 40 79  1  0
 41 80  1  0
 41 81  1  0
 42 82  1  0
 43 83  1  0
 47 84  1  0
 48 85  1  0
M  END
>  <Binding energies>  (1) 
[-10.04]

>  <Ligand effiencies>  (1) 
[-0.20489795918367346]

>  <Interactions>  (1) 
["V-A:GLU:543:CD:4908, H-A:TYR:484:OH:4348, V-A:PRO:540:CB:4885, V-A:TYR:539:CD1:4873, V-A:PRO:540:N:4884, V-A:PRO:540:CA:4883, V-A:TYR:539:C:4867, V-B:ILE:369:CG2:8208, V-B:LEU:475:CD2:9230, V-A:TYR:539:CE1:4875, V-B:GLU:543:CB:9878, V-B:GLU:543:CG:9879, V-B:GLU:543:CD:9880, V-B:HIS:456:CD2:9039, V-A:HIS:456:CD2:4068, V-A:HIS:456:CE1:4070, H-B:LYS:547:NZ:9923, V-B:HIS:456:CE1:9041, V-B:GLU:543:C:9874, H-A:LYS:547:NZ:4951, V-A:GLU:543:CB:4906, V-A:GLU:543:C:4902, V-A:ALA:541:CB:4892, V-A:GLU:543:CG:4907, V-B:SER:385:CB:8380, V-B:SER:385:CA:8378, V-B:SER:385:C:8376, V-A:LEU:363:CD1:3189, H-A:TYR:539:N:4870"]

$$$$
2a_Grossjean_2025
     RDKit          3D

 45 46  0  0  0  0  0  0  0  0999 V2000
  129.3570  132.3060   72.9960 C   0  0  0  0  0  0  0  0  0  0  0  0
  129.1010  130.9590   73.6800 C   0  0  0  0  0  0  0  0  0  0  0  0
  129.8730  129.9510   73.0380 O   0  0  0  0  0  0  0  0  0  0  0  0
  129.3860  128.6940   72.8740 C   0  0  0  0  0  0  0  0  0  0  0  0
  128.8010  128.0690   73.7630 O   0  0  0  0  0  0  0  0  0  0  0  0
  129.6120  128.1490   71.4920 C   0  0  0  0  0  0  0  0  0  0  0  0
  128.5980  127.4920   70.7800 C   0  0  0  0  0  0  0  0  0  0  0  0
  128.8410  126.9970   69.5020 C   0  0  0  0  0  0  0  0  0  0  0  0
  130.0980  127.1400   68.9130 C   0  0  0  0  0  0  0  0  0  0  0  0
  130.2330  126.5890   67.6260 N   0  0  0  0  0  0  0  0  0  0  0  0
  130.0530  125.3200   67.2010 C   0  0  0  0  0  0  0  0  0  0  0  0
  129.7460  124.3650   67.9140 O   0  0  0  0  0  0  0  0  0  0  0  0
  130.2620  125.0900   65.7000 C   0  0  0  0  0  0  0  0  0  0  0  0
  130.1180  123.3390   65.2120 S   0  0  0  0  0  0  0  0  0  0  0  0
  130.6400  123.1410   63.5120 C   0  0  0  0  0  0  0  0  0  0  0  0
  129.7260  122.5870   62.6760 N   0  0  0  0  0  0  0  0  0  0  0  0
  130.0570  122.3960   61.3790 C   0  0  0  0  0  0  0  0  0  0  0  0
  128.9930  121.7470   60.5130 C   0  0  0  0  0  0  0  0  0  0  0  0
  131.2990  122.7520   60.8610 C   0  0  0  0  0  0  0  0  0  0  0  0
  132.2570  123.3350   61.7050 C   0  0  0  0  0  0  0  0  0  0  0  0
  133.6260  123.7250   61.1170 C   0  0  0  0  0  0  0  0  0  0  0  0
  134.5990  123.0670   61.7460 F   0  0  0  0  0  0  0  0  0  0  0  0
  133.6670  123.4210   59.8180 F   0  0  0  0  0  0  0  0  0  0  0  0
  133.8830  125.0300   61.2310 F   0  0  0  0  0  0  0  0  0  0  0  0
  131.9230  123.5370   63.0690 C   0  0  0  0  0  0  0  0  0  0  0  0
  132.8870  124.1390   63.9960 C   0  0  0  0  0  0  0  0  0  0  0  0
  133.6480  124.6130   64.7280 N   0  0  0  0  0  0  0  0  0  0  0  0
  131.1140  127.8030   69.6160 C   0  0  0  0  0  0  0  0  0  0  0  0
  130.8690  128.3020   70.8930 C   0  0  0  0  0  0  0  0  0  0  0  0
  129.5047  133.0832   73.7603 H   0  0  0  0  0  0  0  0  0  0  0  0
  130.2574  132.2332   72.3683 H   0  0  0  0  0  0  0  0  0  0  0  0
  128.4927  132.5686   72.3683 H   0  0  0  0  0  0  0  0  0  0  0  0
  129.3899  131.0241   74.7394 H   0  0  0  0  0  0  0  0  0  0  0  0
  128.0328  130.7065   73.6081 H   0  0  0  0  0  0  0  0  0  0  0  0
  127.6041  127.3671   71.2345 H   0  0  0  0  0  0  0  0  0  0  0  0
  128.0355  126.4888   68.9517 H   0  0  0  0  0  0  0  0  0  0  0  0
  130.4570  127.2650   66.9110 H   0  0  0  0  0  0  0  0  0  0  0  0
  129.5061  125.6692   65.1494 H   0  0  0  0  0  0  0  0  0  0  0  0
  131.2862  125.4119   65.4605 H   0  0  0  0  0  0  0  0  0  0  0  0
  128.2307  121.2820   61.1554 H   0  0  0  0  0  0  0  0  0  0  0  0
  128.5208  122.5110   59.8779 H   0  0  0  0  0  0  0  0  0  0  0  0
  129.4562  120.9775   59.8779 H   0  0  0  0  0  0  0  0  0  0  0  0
  131.5277  122.5779   59.7992 H   0  0  0  0  0  0  0  0  0  0  0  0
  132.1062  127.9292   69.1582 H   0  0  0  0  0  0  0  0  0  0  0  0
  131.6713  128.8219   71.4371 H   0  0  0  0  0  0  0  0  0  0  0  0
  1  2  1  0
  2  3  1  0
  3  4  1  0
  4  5  2  0
  4  6  1  0
  6  7  2  0
  7  8  1  0
  8  9  2  0
  9 10  1  0
 10 11  1  0
 11 12  2  0
 11 13  1  0
 13 14  1  0
 14 15  1  0
 15 16  2  0
 16 17  1  0
 17 18  1  0
 17 19  2  0
 19 20  1  0
 20 21  1  0
 21 22  1  0
 21 23  1  0
 21 24  1  0
 20 25  2  0
 25 26  1  0
 26 27  3  0
  9 28  1  0
 28 29  2  0
 29  6  1  0
 25 15  1  0
  1 30  1  0
  1 31  1  0
  1 32  1  0
  2 33  1  0
  2 34  1  0
  7 35  1  0
  8 36  1  0
 10 37  1  0
 13 38  1  0
 13 39  1  0
 18 40  1  0
 18 41  1  0
 18 42  1  0
 19 43  1  0
 28 44  1  0
 29 45  1  0
M  END
>  <Binding energies>  (1) 
[-7.54]

>  <Ligand effiencies>  (1) 
[-0.25133333333333335]

>  <Interactions>  (1) 
["V-B:PRO:540:N:9856, V-B:TYR:539:CD2:9846, V-A:GLU:543:CD:4908, H-A:GLY:454:N:4050, H-A:TYR:484:OH:4348, V-B:TYR:539:CE2:9848, H-A:ARG:545:NE:4924, V-A:LEU:475:CD2:4259, V-B:PRO:540:CA:9855, V-A:ASP:366:CB:3212, V-A:ILE:369:CD1:3239, V-A:GLY:454:CA:4049, V-A:ASP:366:CG:3213, V-A:ILE:369:CG2:3237, V-A:ILE:369:CB:3236, H-A:GLU:543:OE2:4910, V-B:GLU:543:CB:9878, V-B:GLU:543:CG:9879, V-A:TYR:484:CE2:4346, V-A:ASP:366:CA:3210, V-B:HIS:456:CD2:9039, V-A:GLY:544:C:4912, V-A:LYS:547:CE:4950, V-A:HIS:456:CE1:4070, H-B:LYS:547:NZ:9923, V-B:HIS:456:CE1:9041, H-A:LYS:547:NZ:4951, H-A:GLU:543:OE1:4909, H-A:ARG:545:NH2:4928, V-A:GLU:543:CB:4906, V-A:GLU:543:C:4902, V-B:PRO:540:C:9853, V-B:TYR:539:C:9839, V-A:GLY:544:CA:4914"]

$$$$
2aa_Ghoteimi_2023
     RDKit          3D

 85 90  0  0  0  0  0  0  0  0999 V2000
  127.4790  132.2430   58.9370 C   0  0  0  0  0  0  0  0  0  0  0  0
  128.5850  133.2790   59.1650 C   0  0  0  0  0  0  0  0  0  0  0  0
  129.4760  133.2680   58.0570 O   0  0  0  0  0  0  0  0  0  0  0  0
  130.6700  132.6230   58.1220 C   0  0  0  0  0  0  0  0  0  0  0  0
  131.6660  132.9700   57.4780 O   0  0  0  0  0  0  0  0  0  0  0  0
  130.6630  131.4560   59.0660 C   0  0  0  0  0  0  0  0  0  0  0  0
  131.0990  131.5750   60.3940 C   0  0  0  0  0  0  0  0  0  0  0  0
  131.0770  130.4750   61.2470 C   0  0  0  0  0  0  0  0  0  0  0  0
  130.6280  129.2350   60.7900 C   0  0  0  0  0  0  0  0  0  0  0  0
  130.6450  128.1920   61.7370 N   0  0  0  0  0  0  0  0  0  0  0  0
  130.9660  126.8890   61.5830 C   0  0  0  0  0  0  0  0  0  0  0  0
  131.3470  126.3730   60.5300 O   0  0  0  0  0  0  0  0  0  0  0  0
  130.8480  126.0480   62.8600 C   0  0  0  0  0  0  0  0  0  0  0  0
  129.4910  126.0500   63.3140 O   0  0  0  0  0  0  0  0  0  0  0  0
  129.0610  127.0070   64.2240 C   0  0  0  0  0  0  0  0  0  0  0  0
  128.5090  128.1530   63.7350 N   0  0  0  0  0  0  0  0  0  0  0  0
  128.0760  129.1070   64.5960 C   0  0  0  0  0  0  0  0  0  0  0  0
  127.4850  130.3400   63.9870 C   0  0  0  0  0  0  0  0  0  0  0  0
  128.2860  131.4510   63.7040 C   0  0  0  0  0  0  0  0  0  0  0  0
  127.7420  132.5980   63.1310 C   0  0  0  0  0  0  0  0  0  0  0  0
  126.3790  132.6710   62.8070 C   0  0  0  0  0  0  0  0  0  0  0  0
  125.8140  133.8200   62.2420 N   0  0  0  0  0  0  0  0  0  0  0  0
  126.6130  134.7410   61.4080 C   0  0  0  0  0  0  0  0  0  0  0  0
  125.9420  136.1100   61.1720 C   0  0  0  0  0  0  0  0  0  0  0  0
  124.6450  135.9280   60.6270 O   0  0  0  0  0  0  0  0  0  0  0  0
  123.8140  135.1820   61.5030 C   0  0  0  0  0  0  0  0  0  0  0  0
  124.4220  133.7840   61.7480 C   0  0  0  0  0  0  0  0  0  0  0  0
  125.5760  131.5620   63.1120 C   0  0  0  0  0  0  0  0  0  0  0  0
  126.1200  130.4170   63.6880 C   0  0  0  0  0  0  0  0  0  0  0  0
  128.2010  128.9430   65.9790 C   0  0  0  0  0  0  0  0  0  0  0  0
  128.7760  127.7810   66.5070 C   0  0  0  0  0  0  0  0  0  0  0  0
  128.9060  127.6740   67.9920 C   0  0  0  0  0  0  0  0  0  0  0  0
  127.8010  127.3320   68.7750 C   0  0  0  0  0  0  0  0  0  0  0  0
  127.9100  127.2510   70.1600 C   0  0  0  0  0  0  0  0  0  0  0  0
  129.1270  127.5230   70.8050 C   0  0  0  0  0  0  0  0  0  0  0  0
  129.2610  127.4440   72.1940 N   0  0  0  0  0  0  0  0  0  0  0  0
  128.6590  128.4550   73.0830 C   0  0  0  0  0  0  0  0  0  0  0  0
  128.6060  128.0190   74.5630 C   0  0  0  0  0  0  0  0  0  0  0  0
  129.9050  127.6610   75.0100 O   0  0  0  0  0  0  0  0  0  0  0  0
  130.4400  126.5860   74.2540 C   0  0  0  0  0  0  0  0  0  0  0  0
  130.5430  126.9850   72.7670 C   0  0  0  0  0  0  0  0  0  0  0  0
  130.2320  127.8580   70.0110 C   0  0  0  0  0  0  0  0  0  0  0  0
  130.1230  127.9390   68.6260 C   0  0  0  0  0  0  0  0  0  0  0  0
  129.2040  126.7800   65.6040 C   0  0  0  0  0  0  0  0  0  0  0  0
  129.7700  125.5110   66.0680 C   0  0  0  0  0  0  0  0  0  0  0  0
  130.2170  124.5080   66.4350 N   0  0  0  0  0  0  0  0  0  0  0  0
  130.1840  129.1090   59.4660 C   0  0  0  0  0  0  0  0  0  0  0  0
  130.2040  130.2120   58.6160 C   0  0  0  0  0  0  0  0  0  0  0  0
  127.1018  131.8896   59.9080 H   0  0  0  0  0  0  0  0  0  0  0  0
  126.6567  132.7034   58.3697 H   0  0  0  0  0  0  0  0  0  0  0  0
  127.8847  131.3924   58.3697 H   0  0  0  0  0  0  0  0  0  0  0  0
  128.1369  134.2785   59.2660 H   0  0  0  0  0  0  0  0  0  0  0  0
  129.1371  133.0319   60.0838 H   0  0  0  0  0  0  0  0  0  0  0  0
  131.4612  132.5454   60.7644 H   0  0  0  0  0  0  0  0  0  0  0  0
  131.4157  130.5838   62.2879 H   0  0  0  0  0  0  0  0  0  0  0  0
  130.4170  128.4850   62.6750 H   0  0  0  0  0  0  0  0  0  0  0  0
  131.1613  125.0151   62.6480 H   0  0  0  0  0  0  0  0  0  0  0  0
  131.4942  126.4768   63.6401 H   0  0  0  0  0  0  0  0  0  0  0  0
  129.3605  131.4185   63.9372 H   0  0  0  0  0  0  0  0  0  0  0  0
  128.3925  133.4618   62.9290 H   0  0  0  0  0  0  0  0  0  0  0  0
  127.5791  134.9098   61.9061 H   0  0  0  0  0  0  0  0  0  0  0  0
  126.7242  134.2652   60.4225 H   0  0  0  0  0  0  0  0  0  0  0  0
  125.8628  136.6465   62.1290 H   0  0  0  0  0  0  0  0  0  0  0  0
  126.5513  136.6934   60.4660 H   0  0  0  0  0  0  0  0  0  0  0  0
  123.7260  135.7137   62.4619 H   0  0  0  0  0  0  0  0  0  0  0  0
  122.8199  135.0675   61.0462 H   0  0  0  0  0  0  0  0  0  0  0  0
  123.8028  133.2616   62.4921 H   0  0  0  0  0  0  0  0  0  0  0  0
  124.4385  133.2661   60.7777 H   0  0  0  0  0  0  0  0  0  0  0  0
  124.4987  131.5975   62.8925 H   0  0  0  0  0  0  0  0  0  0  0  0
  125.4672  129.5603   63.9113 H   0  0  0  0  0  0  0  0  0  0  0  0
  127.8450  129.7327   66.6569 H   0  0  0  0  0  0  0  0  0  0  0  0
  126.8348  127.1246   68.2919 H   0  0  0  0  0  0  0  0  0  0  0  0
  127.0304  126.9699   70.7577 H   0  0  0  0  0  0  0  0  0  0  0  0
  129.2528  129.3783   73.0129 H   0  0  0  0  0  0  0  0  0  0  0  0
  127.6205  128.6011   72.7510 H   0  0  0  0  0  0  0  0  0  0  0  0
  128.2266  128.8509   75.1746 H   0  0  0  0  0  0  0  0  0  0  0  0
  127.9383  127.1502   74.6600 H   0  0  0  0  0  0  0  0  0  0  0  0
  131.4416  126.3365   74.6342 H   0  0  0  0  0  0  0  0  0  0  0  0
  129.7766  125.7136   74.3482 H   0  0  0  0  0  0  0  0  0  0  0  0
  131.2779  127.7982   72.6740 H   0  0  0  0  0  0  0  0  0  0  0  0
  130.8455  126.0865   72.2092 H   0  0  0  0  0  0  0  0  0  0  0  0
  131.2012  128.0602   70.4902 H   0  0  0  0  0  0  0  0  0  0  0  0
  131.0023  128.2140   68.0250 H   0  0  0  0  0  0  0  0  0  0  0  0
  129.8197  128.1384   59.0985 H   0  0  0  0  0  0  0  0  0  0  0  0
  129.8549  130.1046   57.5784 H   0  0  0  0  0  0  0  0  0  0  0  0
  1  2  1  0
  2  3  1  0
  3  4  1  0
  4  5  2  0
  4  6  1  0
  6  7  2  0
  7  8  1  0
  8  9  2  0
  9 10  1  0
 10 11  1  0
 11 12  2  0
 11 13  1  0
 13 14  1  0
 14 15  1  0
 15 16  2  0
 16 17  1  0
 17 18  1  0
 18 19  2  0
 19 20  1  0
 20 21  2  0
 21 22  1  0
 22 23  1  0
 23 24  1  0
 24 25  1  0
 25 26  1  0
 26 27  1  0
 21 28  1  0
 28 29  2  0
 17 30  2  0
 30 31  1  0
 31 32  1  0
 32 33  2  0
 33 34  1  0
 34 35  2  0
 35 36  1  0
 36 37  1  0
 37 38  1  0
 38 39  1  0
 39 40  1  0
 40 41  1  0
 35 42  1  0
 42 43  2  0
 31 44  2  0
 44 45  1  0
 45 46  3  0
  9 47  1  0
 47 48  2  0
 48  6  1  0
 44 15  1  0
 29 18  1  0
 43 32  1  0
 27 22  1  0
 41 36  1  0
  1 49  1  0
  1 50  1  0
  1 51  1  0
  2 52  1  0
  2 53  1  0
  7 54  1  0
  8 55  1  0
 10 56  1  0
 13 57  1  0
 13 58  1  0
 19 59  1  0
 20 60  1  0
 23 61  1  0
 23 62  1  0
 24 63  1  0
 24 64  1  0
 26 65  1  0
 26 66  1  0
 27 67  1  0
 27 68  1  0
 28 69  1  0
 29 70  1  0
 30 71  1  0
 33 72  1  0
 34 73  1  0
 37 74  1  0
 37 75  1  0
 38 76  1  0
 38 77  1  0
 40 78  1  0
 40 79  1  0
 41 80  1  0
 41 81  1  0
 42 82  1  0
 43 83  1  0
 47 84  1  0
 48 85  1  0
M  END
>  <Binding energies>  (1) 
[-9.98]

>  <Ligand effiencies>  (1) 
[-0.2036734693877551]

>  <Interactions>  (1) 
["V-A:GLU:543:CD:4908, H-A:TYR:484:OH:4348, V-A:PRO:540:CB:4885, V-A:TYR:539:CD1:4873, V-A:PRO:540:N:4884, V-A:PRO:540:CA:4883, V-A:TYR:539:C:4867, V-B:ILE:369:CG2:8208, V-B:LEU:475:CD2:9230, V-A:TYR:539:CE1:4875, H-A:GLU:543:OE2:4910, V-B:GLU:543:CB:9878, V-B:GLU:543:CG:9879, V-B:GLU:543:CD:9880, V-B:HIS:456:CD2:9039, V-A:HIS:456:CD2:4068, V-A:HIS:456:CE1:4070, H-B:LYS:547:NZ:9923, V-B:HIS:456:CE1:9041, V-B:GLU:543:C:9874, H-A:LYS:547:NZ:4951, H-A:GLU:543:OE1:4909, V-A:GLU:543:CB:4906, V-A:GLU:543:C:4902, V-A:ALA:541:CB:4892, V-A:GLU:543:CG:4907, V-B:SER:385:CB:8380, V-B:SER:385:CA:8378, V-A:PRO:540:CD:4887, H-A:TYR:539:N:4870"]

$$$$
2b_Ghoteimi_2023
     RDKit          3D

 72 77  0  0  0  0  0  0  0  0999 V2000
  130.3260  124.4120   67.0870 N   0  0  0  0  0  0  0  0  0  0  0  0
  129.8310  125.3640   66.6550 C   0  0  0  0  0  0  0  0  0  0  0  0
  129.2030  126.5730   66.1140 C   0  0  0  0  0  0  0  0  0  0  0  0
  128.7840  127.6150   66.9780 C   0  0  0  0  0  0  0  0  0  0  0  0
  128.9400  127.5760   68.4630 C   0  0  0  0  0  0  0  0  0  0  0  0
  130.1020  128.0680   69.0610 C   0  0  0  0  0  0  0  0  0  0  0  0
  130.2530  128.0330   70.4450 C   0  0  0  0  0  0  0  0  0  0  0  0
  129.2530  127.4890   71.2660 C   0  0  0  0  0  0  0  0  0  0  0  0
  129.3760  127.4550   72.6560 N   0  0  0  0  0  0  0  0  0  0  0  0
  130.6360  126.9700   73.2550 C   0  0  0  0  0  0  0  0  0  0  0  0
  130.5090  126.6270   74.7540 C   0  0  0  0  0  0  0  0  0  0  0  0
  129.9990  127.7430   75.4690 O   0  0  0  0  0  0  0  0  0  0  0  0
  128.7180  128.1280   74.9960 C   0  0  0  0  0  0  0  0  0  0  0  0
  128.8040  128.5180   73.5060 C   0  0  0  0  0  0  0  0  0  0  0  0
  128.0920  126.9950   70.6560 C   0  0  0  0  0  0  0  0  0  0  0  0
  127.9390  127.0330   69.2730 C   0  0  0  0  0  0  0  0  0  0  0  0
  128.1930  128.7530   66.4140 C   0  0  0  0  0  0  0  0  0  0  0  0
  128.0540  128.8640   65.0280 C   0  0  0  0  0  0  0  0  0  0  0  0
  127.4580  130.0710   64.3740 C   0  0  0  0  0  0  0  0  0  0  0  0
  126.1080  130.0910   64.0100 C   0  0  0  0  0  0  0  0  0  0  0  0
  125.5430  131.2160   63.4160 C   0  0  0  0  0  0  0  0  0  0  0  0
  126.3110  132.3610   63.1510 C   0  0  0  0  0  0  0  0  0  0  0  0
  125.7510  133.5100   62.5820 N   0  0  0  0  0  0  0  0  0  0  0  0
  126.5260  134.3010   61.6050 C   0  0  0  0  0  0  0  0  0  0  0  0
  125.9590  135.7170   61.3660 C   0  0  0  0  0  0  0  0  0  0  0  0
  124.5940  135.6360   60.9870 O   0  0  0  0  0  0  0  0  0  0  0  0
  123.8090  135.0220   61.9970 C   0  0  0  0  0  0  0  0  0  0  0  0
  124.3130  133.5860   62.2570 C   0  0  0  0  0  0  0  0  0  0  0  0
  127.6630  132.3390   63.5250 C   0  0  0  0  0  0  0  0  0  0  0  0
  128.2260  131.2140   64.1210 C   0  0  0  0  0  0  0  0  0  0  0  0
  128.4570  127.8660   64.2020 N   0  0  0  0  0  0  0  0  0  0  0  0
  129.0010  126.7420   64.7260 C   0  0  0  0  0  0  0  0  0  0  0  0
  129.4670  125.5380   63.5010 S   0  0  0  0  0  0  0  0  0  0  0  0
  131.0600  126.0590   62.7970 C   0  0  0  0  0  0  0  0  0  0  0  0
  132.2460  125.4750   63.5640 C   0  0  0  0  0  0  0  0  0  0  0  0
  133.0340  124.7280   62.9800 O   0  0  0  0  0  0  0  0  0  0  0  0
  132.3320  125.8330   64.8640 N   0  0  0  0  0  0  0  0  0  0  0  0
  133.3060  125.4580   65.7780 C   0  0  0  0  0  0  0  0  0  0  0  0
  133.1140  125.5080   67.1580 C   0  0  0  0  0  0  0  0  0  0  0  0
  134.2960  125.0620   67.7010 C   0  0  0  0  0  0  0  0  0  0  0  0
  135.1550  124.7580   66.7000 O   0  0  0  0  0  0  0  0  0  0  0  0
  134.5160  125.0110   65.4840 N   0  0  0  0  0  0  0  0  0  0  0  0
  130.9037  128.4861   68.4345 H   0  0  0  0  0  0  0  0  0  0  0  0
  131.1687  128.4373   70.9011 H   0  0  0  0  0  0  0  0  0  0  0  0
  130.9529  126.0651   72.7158 H   0  0  0  0  0  0  0  0  0  0  0  0
  131.3711  127.7838   73.1690 H   0  0  0  0  0  0  0  0  0  0  0  0
  129.8252  125.7740   74.8753 H   0  0  0  0  0  0  0  0  0  0  0  0
  131.5026  126.3697   75.1497 H   0  0  0  0  0  0  0  0  0  0  0  0
  128.0181  127.2875   75.1132 H   0  0  0  0  0  0  0  0  0  0  0  0
  128.3621  128.9919   75.5766 H   0  0  0  0  0  0  0  0  0  0  0  0
  127.7899  128.7454   73.1456 H   0  0  0  0  0  0  0  0  0  0  0  0
  129.4739  129.3876   73.4351 H   0  0  0  0  0  0  0  0  0  0  0  0
  127.2904  126.5713   71.2788 H   0  0  0  0  0  0  0  0  0  0  0  0
  127.0230  126.6325   68.8141 H   0  0  0  0  0  0  0  0  0  0  0  0
  127.8363  129.5640   67.0660 H   0  0  0  0  0  0  0  0  0  0  0  0
  125.4834  129.2048   64.1958 H   0  0  0  0  0  0  0  0  0  0  0  0
  124.4758  131.2077   63.1495 H   0  0  0  0  0  0  0  0  0  0  0  0
  127.5572  134.3975   61.9757 H   0  0  0  0  0  0  0  0  0  0  0  0
  126.4744  133.7670   60.6447 H   0  0  0  0  0  0  0  0  0  0  0  0
  126.0457  136.3050   62.2916 H   0  0  0  0  0  0  0  0  0  0  0  0
  126.5290  136.2028   60.5604 H   0  0  0  0  0  0  0  0  0  0  0  0
  123.8852  135.6084   62.9245 H   0  0  0  0  0  0  0  0  0  0  0  0
  122.7608  134.9825   61.6658 H   0  0  0  0  0  0  0  0  0  0  0  0
  123.7442  133.1658   63.0995 H   0  0  0  0  0  0  0  0  0  0  0  0
  124.1643  133.0202   61.3255 H   0  0  0  0  0  0  0  0  0  0  0  0
  128.2886  133.2255   63.3443 H   0  0  0  0  0  0  0  0  0  0  0  0
  129.2907  131.2232   64.3974 H   0  0  0  0  0  0  0  0  0  0  0  0
  131.1130  125.7216   61.7514 H   0  0  0  0  0  0  0  0  0  0  0  0
  131.1186  127.1553   62.8661 H   0  0  0  0  0  0  0  0  0  0  0  0
  131.6280  126.4640   65.2170 H   0  0  0  0  0  0  0  0  0  0  0  0
  132.2117  125.8339   67.6963 H   0  0  0  0  0  0  0  0  0  0  0  0
  134.5092  124.9675   68.7760 H   0  0  0  0  0  0  0  0  0  0  0  0
  1  2  3  0
  2  3  1  0
  3  4  2  0
  4  5  1  0
  5  6  2  0
  6  7  1  0
  7  8  2  0
  8  9  1  0
  9 10  1  0
 10 11  1  0
 11 12  1  0
 12 13  1  0
 13 14  1  0
  8 15  1  0
 15 16  2  0
  4 17  1  0
 17 18  2  0
 18 19  1  0
 19 20  2  0
 20 21  1  0
 21 22  2  0
 22 23  1  0
 23 24  1  0
 24 25  1  0
 25 26  1  0
 26 27  1  0
 27 28  1  0
 22 29  1  0
 29 30  2  0
 18 31  1  0
 31 32  2  0
 32 33  1  0
 33 34  1  0
 34 35  1  0
 35 36  2  0
 35 37  1  0
 37 38  1  0
 38 39  1  0
 39 40  2  0
 40 41  1  0
 41 42  1  0
 32  3  1  0
 42 38  2  0
 16  5  1  0
 30 19  1  0
 14  9  1  0
 28 23  1  0
  6 43  1  0
  7 44  1  0
 10 45  1  0
 10 46  1  0
 11 47  1  0
 11 48  1  0
 13 49  1  0
 13 50  1  0
 14 51  1  0
 14 52  1  0
 15 53  1  0
 16 54  1  0
 17 55  1  0
 20 56  1  0
 21 57  1  0
 24 58  1  0
 24 59  1  0
 25 60  1  0
 25 61  1  0
 27 62  1  0
 27 63  1  0
 28 64  1  0
 28 65  1  0
 29 66  1  0
 30 67  1  0
 34 68  1  0
 34 69  1  0
 37 70  1  0
 39 71  1  0
 40 72  1  0
M  END
>  <Binding energies>  (1) 
[-10.69]

>  <Ligand effiencies>  (1) 
[-0.24860465116279068]

>  <Interactions>  (1) 
["V-A:ARG:545:CD:4923, V-A:GLU:543:CD:4908, H-A:GLY:454:N:4050, H-A:TYR:484:OH:4348, H-A:ARG:545:NE:4924, V-A:ARG:545:CZ:4926, V-A:TYR:539:CD1:4873, V-B:ILE:369:CG2:8208, V-B:LEU:475:CD2:9230, V-A:TYR:539:CE1:4875, V-A:TYR:484:CZ:4347, H-A:GLU:543:OE2:4910, V-B:GLU:543:CB:9878, V-B:GLU:543:CG:9879, V-B:GLU:543:CD:9880, V-B:HIS:456:CD2:9039, V-A:HIS:456:CD2:4068, V-A:HIS:456:CE1:4070, H-B:LYS:547:NZ:9923, V-B:HIS:456:CE1:9041, V-B:GLU:543:C:9874, H-A:LYS:547:NZ:4951, H-A:GLU:543:OE1:4909, H-A:ARG:545:NH2:4928, V-A:GLU:543:CB:4906, V-A:GLU:543:C:4902, V-A:ALA:541:CB:4892, V-A:GLU:543:CG:4907, V-B:SER:385:CB:8380, V-B:SER:385:CA:8378, V-B:SER:385:C:8376, V-A:ILE:455:C:4052, V-A:ARG:545:CB:4921, V-A:ARG:545:CG:4922, V-A:GLU:543:CA:4904, H-A:ARG:545:NH1:4927, H-A:ILE:455:N:4055, V-A:TYR:484:CE1:4345"]

$$$$
2b_Grossjean_2025
     RDKit          3D

 42 43  0  0  0  0  0  0  0  0999 V2000
  129.3780  130.9770   73.2990 C   0  0  0  0  0  0  0  0  0  0  0  0
  130.0510  129.7610   73.0060 O   0  0  0  0  0  0  0  0  0  0  0  0
  129.3590  128.6170   72.7690 C   0  0  0  0  0  0  0  0  0  0  0  0
  128.6280  128.0780   73.6050 O   0  0  0  0  0  0  0  0  0  0  0  0
  129.5730  128.0710   71.3870 C   0  0  0  0  0  0  0  0  0  0  0  0
  128.5660  127.3800   70.6970 C   0  0  0  0  0  0  0  0  0  0  0  0
  128.7980  126.8840   69.4170 C   0  0  0  0  0  0  0  0  0  0  0  0
  130.0340  127.0730   68.7990 C   0  0  0  0  0  0  0  0  0  0  0  0
  130.1620  126.5260   67.5080 N   0  0  0  0  0  0  0  0  0  0  0  0
  129.9780  125.2560   67.0870 C   0  0  0  0  0  0  0  0  0  0  0  0
  129.6730  124.3040   67.8060 O   0  0  0  0  0  0  0  0  0  0  0  0
  130.1930  125.0280   65.5870 C   0  0  0  0  0  0  0  0  0  0  0  0
  130.0740  123.2740   65.1050 S   0  0  0  0  0  0  0  0  0  0  0  0
  130.6290  123.0650   63.4190 C   0  0  0  0  0  0  0  0  0  0  0  0
  129.7130  122.5600   62.5540 N   0  0  0  0  0  0  0  0  0  0  0  0
  130.0660  122.3710   61.2640 C   0  0  0  0  0  0  0  0  0  0  0  0
  128.9900  121.7910   60.3660 C   0  0  0  0  0  0  0  0  0  0  0  0
  131.3330  122.6820   60.7790 C   0  0  0  0  0  0  0  0  0  0  0  0
  132.2950  123.2120   61.6520 C   0  0  0  0  0  0  0  0  0  0  0  0
  133.6910  123.5550   61.0990 C   0  0  0  0  0  0  0  0  0  0  0  0
  134.5720  122.6280   61.4790 F   0  0  0  0  0  0  0  0  0  0  0  0
  133.6580  123.5980   59.7660 F   0  0  0  0  0  0  0  0  0  0  0  0
  134.1410  124.7360   61.5270 F   0  0  0  0  0  0  0  0  0  0  0  0
  131.9400  123.4100   63.0110 C   0  0  0  0  0  0  0  0  0  0  0  0
  132.9070  123.9550   63.9690 C   0  0  0  0  0  0  0  0  0  0  0  0
  133.6690  124.3860   64.7250 N   0  0  0  0  0  0  0  0  0  0  0  0
  131.0490  127.7560   69.4840 C   0  0  0  0  0  0  0  0  0  0  0  0
  130.8160  128.2500   70.7640 C   0  0  0  0  0  0  0  0  0  0  0  0
  129.3079  131.1037   74.3894 H   0  0  0  0  0  0  0  0  0  0  0  0
  129.9383  131.8194   72.8672 H   0  0  0  0  0  0  0  0  0  0  0  0
  128.3666  130.9496   72.8672 H   0  0  0  0  0  0  0  0  0  0  0  0
  127.5850  127.2288   71.1711 H   0  0  0  0  0  0  0  0  0  0  0  0
  128.0011  126.3393   68.8895 H   0  0  0  0  0  0  0  0  0  0  0  0
  130.4870  127.1810   66.8120 H   0  0  0  0  0  0  0  0  0  0  0  0
  129.4300  125.5954   65.0339 H   0  0  0  0  0  0  0  0  0  0  0  0
  131.2122  125.3653   65.3471 H   0  0  0  0  0  0  0  0  0  0  0  0
  128.1894  121.3594   60.9847 H   0  0  0  0  0  0  0  0  0  0  0  0
  128.5740  122.5871   59.7310 H   0  0  0  0  0  0  0  0  0  0  0  0
  129.4263  121.0059   59.7310 H   0  0  0  0  0  0  0  0  0  0  0  0
  131.5781  122.5136   59.7200 H   0  0  0  0  0  0  0  0  0  0  0  0
  132.0305  127.9015   69.0092 H   0  0  0  0  0  0  0  0  0  0  0  0
  131.6167  128.7873   71.2932 H   0  0  0  0  0  0  0  0  0  0  0  0
  1  2  1  0
  2  3  1  0
  3  4  2  0
  3  5  1  0
  5  6  2  0
  6  7  1  0
  7  8  2  0
  8  9  1  0
  9 10  1  0
 10 11  2  0
 10 12  1  0
 12 13  1  0
 13 14  1  0
 14 15  2  0
 15 16  1  0
 16 17  1  0
 16 18  2  0
 18 19  1  0
 19 20  1  0
 20 21  1  0
 20 22  1  0
 20 23  1  0
 19 24  2  0
 24 25  1  0
 25 26  3  0
  8 27  1  0
 27 28  2  0
 28  5  1  0
 24 14  1  0
  1 29  1  0
  1 30  1  0
  1 31  1  0
  6 32  1  0
  7 33  1  0
  9 34  1  0
 12 35  1  0
 12 36  1  0
 17 37  1  0
 17 38  1  0
 17 39  1  0
 18 40  1  0
 27 41  1  0
 28 42  1  0
M  END
>  <Binding energies>  (1) 
[-7.56]

>  <Ligand effiencies>  (1) 
[-0.26068965517241377]

>  <Interactions>  (1) 
["V-B:PRO:540:N:9856, V-B:TYR:539:CD2:9846, V-A:GLU:543:CD:4908, H-A:GLY:454:N:4050, H-A:TYR:484:OH:4348, V-B:TYR:539:CE2:9848, V-A:LEU:475:CD2:4259, V-B:PRO:540:CA:9855, V-A:ILE:369:CD1:3239, V-A:GLY:454:CA:4049, V-A:ASP:366:CG:3213, V-A:ILE:369:CG2:3237, V-A:ILE:369:CG1:3238, V-A:ILE:369:CB:3236, H-A:GLU:543:OE2:4910, V-B:GLU:543:CB:9878, V-B:GLU:543:CG:9879, V-A:TYR:484:CE2:4346, V-B:HIS:456:CD2:9039, V-A:GLY:544:C:4912, V-A:LYS:547:CE:4950, V-A:HIS:456:CE1:4070, H-B:LYS:547:NZ:9923, V-B:HIS:456:CE1:9041, V-B:GLU:543:C:9874, H-A:LYS:547:NZ:4951, H-A:GLU:543:OE1:4909, V-A:GLU:543:CB:4906, V-A:GLU:543:C:4902, V-B:PRO:540:C:9853, V-B:TYR:539:C:9839, V-A:GLY:544:CA:4914"]

$$$$
2c_Ghoteimi_2023
     RDKit          3D

 72 77  0  0  0  0  0  0  0  0999 V2000
  128.4570  127.6600   61.9820 N   0  0  0  0  0  0  0  0  0  0  0  0
  128.5730  127.5930   63.1310 C   0  0  0  0  0  0  0  0  0  0  0  0
  128.7260  127.5030   64.5860 C   0  0  0  0  0  0  0  0  0  0  0  0
  129.4440  126.4310   65.1720 C   0  0  0  0  0  0  0  0  0  0  0  0
  130.0850  125.3330   64.3880 C   0  0  0  0  0  0  0  0  0  0  0  0
  129.4080  124.1300   64.1810 C   0  0  0  0  0  0  0  0  0  0  0  0
  129.9970  123.1030   63.4470 C   0  0  0  0  0  0  0  0  0  0  0  0
  131.2860  123.2460   62.9120 C   0  0  0  0  0  0  0  0  0  0  0  0
  131.8880  122.2370   62.1560 N   0  0  0  0  0  0  0  0  0  0  0  0
  131.1060  121.5610   61.1020 C   0  0  0  0  0  0  0  0  0  0  0  0
  131.7430  120.2380   60.6250 C   0  0  0  0  0  0  0  0  0  0  0  0
  133.0780  120.4670   60.1980 O   0  0  0  0  0  0  0  0  0  0  0  0
  133.8820  120.9860   61.2460 C   0  0  0  0  0  0  0  0  0  0  0  0
  133.3010  122.3270   61.7400 C   0  0  0  0  0  0  0  0  0  0  0  0
  131.9600  124.4560   63.1290 C   0  0  0  0  0  0  0  0  0  0  0  0
  131.3700  125.4830   63.8600 C   0  0  0  0  0  0  0  0  0  0  0  0
  129.5640  126.3920   66.5670 C   0  0  0  0  0  0  0  0  0  0  0  0
  129.0090  127.4050   67.3540 C   0  0  0  0  0  0  0  0  0  0  0  0
  129.1240  127.4190   68.8450 C   0  0  0  0  0  0  0  0  0  0  0  0
  128.0490  127.0280   69.6480 C   0  0  0  0  0  0  0  0  0  0  0  0
  128.1520  127.0330   71.0370 C   0  0  0  0  0  0  0  0  0  0  0  0
  129.3340  127.4410   71.6750 C   0  0  0  0  0  0  0  0  0  0  0  0
  129.4630  127.4280   73.0680 N   0  0  0  0  0  0  0  0  0  0  0  0
  130.7010  126.9120   73.6870 C   0  0  0  0  0  0  0  0  0  0  0  0
  130.5570  126.5990   75.1920 C   0  0  0  0  0  0  0  0  0  0  0  0
  130.0870  127.7450   75.8830 O   0  0  0  0  0  0  0  0  0  0  0  0
  128.8160  128.1560   75.4040 C   0  0  0  0  0  0  0  0  0  0  0  0
  128.9050  128.5100   73.9040 C   0  0  0  0  0  0  0  0  0  0  0  0
  130.4140  127.8200   70.8650 C   0  0  0  0  0  0  0  0  0  0  0  0
  130.3100  127.8130   69.4760 C   0  0  0  0  0  0  0  0  0  0  0  0
  128.3230  128.4330   66.7910 N   0  0  0  0  0  0  0  0  0  0  0  0
  128.1660  128.4760   65.4460 C   0  0  0  0  0  0  0  0  0  0  0  0
  127.2340  129.8820   64.8830 S   0  0  0  0  0  0  0  0  0  0  0  0
  125.7200  129.2530   64.0970 C   0  0  0  0  0  0  0  0  0  0  0  0
  124.8020  130.3850   63.6320 C   0  0  0  0  0  0  0  0  0  0  0  0
  123.5810  130.2500   63.7280 O   0  0  0  0  0  0  0  0  0  0  0  0
  125.4260  131.4730   63.1330 N   0  0  0  0  0  0  0  0  0  0  0  0
  124.8250  132.6320   62.6640 C   0  0  0  0  0  0  0  0  0  0  0  0
  123.5640  132.9890   62.7750 N   0  0  0  0  0  0  0  0  0  0  0  0
  123.3410  134.1620   62.2160 C   0  0  0  0  0  0  0  0  0  0  0  0
  124.4410  134.7840   61.6320 C   0  0  0  0  0  0  0  0  0  0  0  0
  125.8380  133.7680   61.8330 S   0  0  0  0  0  0  0  0  0  0  0  0
  128.4008  123.9918   64.6011 H   0  0  0  0  0  0  0  0  0  0  0  0
  129.4435  122.1664   63.2845 H   0  0  0  0  0  0  0  0  0  0  0  0
  130.1025  121.3434   61.4966 H   0  0  0  0  0  0  0  0  0  0  0  0
  131.0719  122.2380   60.2357 H   0  0  0  0  0  0  0  0  0  0  0  0
  131.7448  119.5150   61.4541 H   0  0  0  0  0  0  0  0  0  0  0  0
  131.1583  119.8391   59.7829 H   0  0  0  0  0  0  0  0  0  0  0  0
  133.9023  120.2684   62.0794 H   0  0  0  0  0  0  0  0  0  0  0  0
  134.9030  121.1503   60.8712 H   0  0  0  0  0  0  0  0  0  0  0  0
  133.8962  122.6691   62.5995 H   0  0  0  0  0  0  0  0  0  0  0  0
  133.3462  123.0306   60.8957 H   0  0  0  0  0  0  0  0  0  0  0  0
  132.9697  124.5957   62.7156 H   0  0  0  0  0  0  0  0  0  0  0  0
  131.9203  126.4213   64.0236 H   0  0  0  0  0  0  0  0  0  0  0  0
  130.0986  125.5586   67.0463 H   0  0  0  0  0  0  0  0  0  0  0  0
  127.1072  126.7115   69.1758 H   0  0  0  0  0  0  0  0  0  0  0  0
  127.2928  126.7119   71.6442 H   0  0  0  0  0  0  0  0  0  0  0  0
  130.9909  125.9876   73.1660 H   0  0  0  0  0  0  0  0  0  0  0  0
  131.4611  127.7016   73.5936 H   0  0  0  0  0  0  0  0  0  0  0  0
  129.8416  125.7742   75.3257 H   0  0  0  0  0  0  0  0  0  0  0  0
  131.5385  126.3108   75.5964 H   0  0  0  0  0  0  0  0  0  0  0  0
  128.0929  127.3388   75.5429 H   0  0  0  0  0  0  0  0  0  0  0  0
  128.4889  129.0437   75.9652 H   0  0  0  0  0  0  0  0  0  0  0  0
  127.8924  128.7411   73.5416 H   0  0  0  0  0  0  0  0  0  0  0  0
  129.5892  129.3669   73.8173 H   0  0  0  0  0  0  0  0  0  0  0  0
  131.3598  128.1282   71.3346 H   0  0  0  0  0  0  0  0  0  0  0  0
  131.1720  128.1214   68.8662 H   0  0  0  0  0  0  0  0  0  0  0  0
  125.9997  128.6422   63.2259 H   0  0  0  0  0  0  0  0  0  0  0  0
  125.1731  128.6569   64.8423 H   0  0  0  0  0  0  0  0  0  0  0  0
  126.4360  131.4660   63.1160 H   0  0  0  0  0  0  0  0  0  0  0  0
  122.3423  134.6231   62.2113 H   0  0  0  0  0  0  0  0  0  0  0  0
  124.4286  135.7603   61.1253 H   0  0  0  0  0  0  0  0  0  0  0  0
  1  2  3  0
  2  3  1  0
  3  4  2  0
  4  5  1  0
  5  6  2  0
  6  7  1  0
  7  8  2  0
  8  9  1  0
  9 10  1  0
 10 11  1  0
 11 12  1  0
 12 13  1  0
 13 14  1  0
  8 15  1  0
 15 16  2  0
  4 17  1  0
 17 18  2  0
 18 19  1  0
 19 20  2  0
 20 21  1  0
 21 22  2  0
 22 23  1  0
 23 24  1  0
 24 25  1  0
 25 26  1  0
 26 27  1  0
 27 28  1  0
 22 29  1  0
 29 30  2  0
 18 31  1  0
 31 32  2  0
 32 33  1  0
 33 34  1  0
 34 35  1  0
 35 36  2  0
 35 37  1  0
 37 38  1  0
 38 39  2  0
 39 40  1  0
 40 41  2  0
 41 42  1  0
 32  3  1  0
 42 38  1  0
 16  5  1  0
 30 19  1  0
 14  9  1  0
 28 23  1  0
  6 43  1  0
  7 44  1  0
 10 45  1  0
 10 46  1  0
 11 47  1  0
 11 48  1  0
 13 49  1  0
 13 50  1  0
 14 51  1  0
 14 52  1  0
 15 53  1  0
 16 54  1  0
 17 55  1  0
 20 56  1  0
 21 57  1  0
 24 58  1  0
 24 59  1  0
 25 60  1  0
 25 61  1  0
 27 62  1  0
 27 63  1  0
 28 64  1  0
 28 65  1  0
 29 66  1  0
 30 67  1  0
 34 68  1  0
 34 69  1  0
 37 70  1  0
 40 71  1  0
 41 72  1  0
M  END
>  <Binding energies>  (1) 
[-10.05]

>  <Ligand effiencies>  (1) 
[-0.23372093023255816]

>  <Interactions>  (1) 
["V-B:TYR:539:CD2:9846, V-A:GLU:543:CD:4908, V-B:TYR:539:CE2:9848, V-A:LEU:475:CD2:4259, V-B:GLY:454:CA:9020, V-B:ILE:369:CG2:8208, V-B:LEU:475:CD2:9230, H-B:ARG:545:NH1:9899, H-B:GLY:454:N:9021, V-B:ILE:369:CG1:8209, H-B:ARG:545:NH2:9900, V-A:ILE:369:CD1:3239, V-A:ILE:369:CG2:3237, V-B:GLU:543:CB:9878, V-B:GLU:543:CG:9879, V-A:SER:385:C:3405, V-B:GLU:543:CD:9880, V-B:HIS:456:CD2:9039, V-A:GLY:544:C:4912, V-A:HIS:456:CD2:4068, V-A:HIS:456:CE1:4070, V-B:HIS:456:CE1:9041, V-B:GLU:543:C:9874, H-A:LYS:547:NZ:4951, V-A:GLU:543:CB:4906, V-A:GLU:543:C:4902, V-B:ARG:545:CZ:9898, H-B:TYR:484:OH:9319, V-A:GLU:543:CG:4907, V-A:SER:385:CA:3407, V-B:SER:385:CA:8378, H-A:SER:385:OG:3410, V-B:SER:385:C:8376, V-A:SER:385:CB:3409"]

$$$$
2c_Grossjean_2025
     RDKit          3D

 40 41  0  0  0  0  0  0  0  0999 V2000
  128.8810  128.8860   73.4710 C   0  0  0  0  0  0  0  0  0  0  0  0
  130.0770  128.8560   72.6990 O   0  0  0  0  0  0  0  0  0  0  0  0
  130.0530  128.2860   71.4410 C   0  0  0  0  0  0  0  0  0  0  0  0
  131.2500  128.3010   70.7270 C   0  0  0  0  0  0  0  0  0  0  0  0
  131.3250  127.7520   69.4500 C   0  0  0  0  0  0  0  0  0  0  0  0
  130.1830  127.1850   68.8650 C   0  0  0  0  0  0  0  0  0  0  0  0
  130.1640  126.5910   67.5890 N   0  0  0  0  0  0  0  0  0  0  0  0
  129.9230  125.3030   67.2630 C   0  0  0  0  0  0  0  0  0  0  0  0
  129.7250  124.3990   68.0770 O   0  0  0  0  0  0  0  0  0  0  0  0
  129.9480  125.0020   65.7570 C   0  0  0  0  0  0  0  0  0  0  0  0
  130.0690  123.2340   65.3120 S   0  0  0  0  0  0  0  0  0  0  0  0
  130.5230  123.0850   63.5880 C   0  0  0  0  0  0  0  0  0  0  0  0
  129.5800  122.5380   62.7770 N   0  0  0  0  0  0  0  0  0  0  0  0
  129.8570  122.3860   61.4640 C   0  0  0  0  0  0  0  0  0  0  0  0
  128.7610  121.7540   60.6290 C   0  0  0  0  0  0  0  0  0  0  0  0
  131.0710  122.7760   60.9020 C   0  0  0  0  0  0  0  0  0  0  0  0
  132.0560  123.3490   61.7190 C   0  0  0  0  0  0  0  0  0  0  0  0
  133.3930  123.7770   61.0820 C   0  0  0  0  0  0  0  0  0  0  0  0
  133.5360  125.1010   61.1670 F   0  0  0  0  0  0  0  0  0  0  0  0
  134.4100  123.1900   61.7140 F   0  0  0  0  0  0  0  0  0  0  0  0
  133.4780  123.4470   59.7910 F   0  0  0  0  0  0  0  0  0  0  0  0
  131.7810  123.5100   63.1000 C   0  0  0  0  0  0  0  0  0  0  0  0
  132.7760  124.1020   64.0020 C   0  0  0  0  0  0  0  0  0  0  0  0
  133.5610  124.5690   64.7130 N   0  0  0  0  0  0  0  0  0  0  0  0
  128.9850  127.1530   69.5810 C   0  0  0  0  0  0  0  0  0  0  0  0
  128.9160  127.7020   70.8580 C   0  0  0  0  0  0  0  0  0  0  0  0
  129.1351  128.8796   74.5412 H   0  0  0  0  0  0  0  0  0  0  0  0
  128.3145  129.7986   73.2341 H   0  0  0  0  0  0  0  0  0  0  0  0
  128.2694  128.0029   73.2341 H   0  0  0  0  0  0  0  0  0  0  0  0
  132.1461  128.7521   71.1780 H   0  0  0  0  0  0  0  0  0  0  0  0
  132.2779  127.7628   68.9007 H   0  0  0  0  0  0  0  0  0  0  0  0
  130.4280  127.2060   66.8340 H   0  0  0  0  0  0  0  0  0  0  0  0
  129.0222  125.4002   65.3161 H   0  0  0  0  0  0  0  0  0  0  0  0
  130.8621  125.4751   65.3689 H   0  0  0  0  0  0  0  0  0  0  0  0
  128.0010  121.3158   61.2926 H   0  0  0  0  0  0  0  0  0  0  0  0
  128.2947  122.5219   59.9942 H   0  0  0  0  0  0  0  0  0  0  0  0
  129.1920  120.9658   59.9942 H   0  0  0  0  0  0  0  0  0  0  0  0
  131.2550  122.6355   59.8266 H   0  0  0  0  0  0  0  0  0  0  0  0
  128.0919  126.6920   69.1340 H   0  0  0  0  0  0  0  0  0  0  0  0
  127.9668  127.6786   71.4134 H   0  0  0  0  0  0  0  0  0  0  0  0
  1  2  1  0
  2  3  1  0
  3  4  2  0
  4  5  1  0
  5  6  2  0
  6  7  1  0
  7  8  1  0
  8  9  2  0
  8 10  1  0
 10 11  1  0
 11 12  1  0
 12 13  2  0
 13 14  1  0
 14 15  1  0
 14 16  2  0
 16 17  1  0
 17 18  1  0
 18 19  1  0
 18 20  1  0
 18 21  1  0
 17 22  2  0
 22 23  1  0
 23 24  3  0
  6 25  1  0
 25 26  2  0
 26  3  1  0
 22 12  1  0
  1 27  1  0
  1 28  1  0
  1 29  1  0
  4 30  1  0
  5 31  1  0
  7 32  1  0
 10 33  1  0
 10 34  1  0
 15 35  1  0
 15 36  1  0
 15 37  1  0
 16 38  1  0
 25 39  1  0
 26 40  1  0
M  END
>  <Binding energies>  (1) 
[-6.76]

>  <Ligand effiencies>  (1) 
[-0.25037037037037035]

>  <Interactions>  (1) 
["V-B:PRO:540:N:9856, V-B:TYR:539:CD2:9846, V-A:GLU:543:CD:4908, H-A:GLY:454:N:4050, H-A:TYR:484:OH:4348, V-B:TYR:539:CE2:9848, H-A:ARG:545:NE:4924, V-A:LEU:475:CD2:4259, V-B:PRO:540:CA:9855, V-A:ASP:366:CB:3212, V-A:ILE:369:CD1:3239, V-A:ASP:366:CG:3213, V-A:ILE:369:CG2:3237, V-A:ILE:369:CB:3236, H-A:GLU:543:OE2:4910, V-B:GLU:543:CB:9878, V-B:GLU:543:CG:9879, V-A:TYR:484:CE2:4346, V-B:GLU:543:CD:9880, V-B:HIS:456:CD2:9039, V-A:GLY:544:C:4912, V-A:HIS:456:CE1:4070, V-B:HIS:456:CE1:9041, H-A:LYS:547:NZ:4951, H-A:GLU:543:OE1:4909, H-A:ARG:545:NH2:4928, V-A:GLU:543:CB:4906, V-A:GLU:543:C:4902, V-B:PRO:540:C:9853, V-B:TYR:539:C:9839, V-A:GLY:544:CA:4914, V-B:GLU:543:CA:9876, V-A:ARG:545:CG:4922, V-A:ARG:545:CA:4919"]

$$$$
2d_Ghoteimi_2023
     RDKit          3D

 68 72  0  0  0  0  0  0  0  0999 V2000
  123.9000  130.3820   62.2460 C   0  0  0  0  0  0  0  0  0  0  0  0
  123.8240  130.7170   63.6240 O   0  0  0  0  0  0  0  0  0  0  0  0
  124.4460  129.9580   64.5490 C   0  0  0  0  0  0  0  0  0  0  0  0
  124.1090  129.8500   65.7320 O   0  0  0  0  0  0  0  0  0  0  0  0
  125.6490  129.2170   63.9460 C   0  0  0  0  0  0  0  0  0  0  0  0
  127.2200  129.8250   64.6510 S   0  0  0  0  0  0  0  0  0  0  0  0
  128.1550  128.4220   65.2260 C   0  0  0  0  0  0  0  0  0  0  0  0
  128.2690  128.3720   66.5760 N   0  0  0  0  0  0  0  0  0  0  0  0
  128.9630  127.3590   67.1540 C   0  0  0  0  0  0  0  0  0  0  0  0
  129.0600  127.3800   68.6450 C   0  0  0  0  0  0  0  0  0  0  0  0
  127.9700  126.9990   69.4360 C   0  0  0  0  0  0  0  0  0  0  0  0
  128.0540  127.0160   70.8250 C   0  0  0  0  0  0  0  0  0  0  0  0
  129.2350  127.4060   71.4750 C   0  0  0  0  0  0  0  0  0  0  0  0
  129.3300  127.4460   72.8710 N   0  0  0  0  0  0  0  0  0  0  0  0
  130.5390  126.9750   73.5760 C   0  0  0  0  0  0  0  0  0  0  0  0
  130.3230  126.7470   75.0870 C   0  0  0  0  0  0  0  0  0  0  0  0
  129.8160  127.9280   75.6870 O   0  0  0  0  0  0  0  0  0  0  0  0
  128.5700  128.3060   75.1230 C   0  0  0  0  0  0  0  0  0  0  0  0
  128.7320  128.5750   73.6120 C   0  0  0  0  0  0  0  0  0  0  0  0
  130.3200  127.8000   70.6790 C   0  0  0  0  0  0  0  0  0  0  0  0
  130.2350  127.7850   69.2900 C   0  0  0  0  0  0  0  0  0  0  0  0
  129.5600  126.3610   66.3790 C   0  0  0  0  0  0  0  0  0  0  0  0
  129.4290  126.3710   64.9850 C   0  0  0  0  0  0  0  0  0  0  0  0
  130.0700  125.2570   64.2240 C   0  0  0  0  0  0  0  0  0  0  0  0
  129.2820  124.3200   63.5530 C   0  0  0  0  0  0  0  0  0  0  0  0
  129.8690  123.2850   62.8310 C   0  0  0  0  0  0  0  0  0  0  0  0
  131.2660  123.1560   62.7620 C   0  0  0  0  0  0  0  0  0  0  0  0
  131.8780  122.1330   62.0330 N   0  0  0  0  0  0  0  0  0  0  0  0
  133.2560  122.2690   61.5230 C   0  0  0  0  0  0  0  0  0  0  0  0
  133.8790  120.9320   61.0670 C   0  0  0  0  0  0  0  0  0  0  0  0
  133.0410  120.3080   60.1060 O   0  0  0  0  0  0  0  0  0  0  0  0
  131.7510  120.0380   60.6320 C   0  0  0  0  0  0  0  0  0  0  0  0
  131.0730  121.3530   61.0720 C   0  0  0  0  0  0  0  0  0  0  0  0
  132.0490  124.1110   63.4240 C   0  0  0  0  0  0  0  0  0  0  0  0
  131.4610  125.1470   64.1450 C   0  0  0  0  0  0  0  0  0  0  0  0
  128.7010  127.4270   64.3830 C   0  0  0  0  0  0  0  0  0  0  0  0
  128.5210  127.4710   62.9290 C   0  0  0  0  0  0  0  0  0  0  0  0
  128.3800  127.5010   61.7800 N   0  0  0  0  0  0  0  0  0  0  0  0
  124.1423  129.3142   62.1411 H   0  0  0  0  0  0  0  0  0  0  0  0
  122.9324  130.5875   61.7648 H   0  0  0  0  0  0  0  0  0  0  0  0
  124.6842  130.9849   61.7648 H   0  0  0  0  0  0  0  0  0  0  0  0
  125.5521  128.1422   64.1593 H   0  0  0  0  0  0  0  0  0  0  0  0
  125.6611  129.3975   62.8610 H   0  0  0  0  0  0  0  0  0  0  0  0
  127.0340  126.6817   68.9531 H   0  0  0  0  0  0  0  0  0  0  0  0
  127.1801  126.7188   71.4234 H   0  0  0  0  0  0  0  0  0  0  0  0
  130.8579  126.0247   73.1229 H   0  0  0  0  0  0  0  0  0  0  0  0
  131.2998  127.7629   73.4739 H   0  0  0  0  0  0  0  0  0  0  0  0
  129.6047  125.9268   75.2328 H   0  0  0  0  0  0  0  0  0  0  0  0
  131.2843  126.4878   75.5547 H   0  0  0  0  0  0  0  0  0  0  0  0
  127.8420  127.4950   75.2722 H   0  0  0  0  0  0  0  0  0  0  0  0
  128.2148  129.2229   75.6160 H   0  0  0  0  0  0  0  0  0  0  0  0
  127.7387  128.7825   73.1873 H   0  0  0  0  0  0  0  0  0  0  0  0
  129.4182  129.4285   73.5081 H   0  0  0  0  0  0  0  0  0  0  0  0
  131.2537  128.1263   71.1603 H   0  0  0  0  0  0  0  0  0  0  0  0
  131.1032  128.0957   68.6903 H   0  0  0  0  0  0  0  0  0  0  0  0
  130.1369  125.5620   66.8676 H   0  0  0  0  0  0  0  0  0  0  0  0
  128.1858  124.4006   63.5954 H   0  0  0  0  0  0  0  0  0  0  0  0
  129.2304  122.5583   62.3074 H   0  0  0  0  0  0  0  0  0  0  0  0
  133.2434  122.9576   60.6653 H   0  0  0  0  0  0  0  0  0  0  0  0
  133.8720  122.6466   62.3524 H   0  0  0  0  0  0  0  0  0  0  0  0
  134.8657  121.1237   60.6201 H   0  0  0  0  0  0  0  0  0  0  0  0
  133.9860  120.2683   61.9376 H   0  0  0  0  0  0  0  0  0  0  0  0
  131.1369  119.5527   59.8591 H   0  0  0  0  0  0  0  0  0  0  0  0
  131.8487  119.3737   61.5033 H   0  0  0  0  0  0  0  0  0  0  0  0
  130.8992  121.9717   60.1793 H   0  0  0  0  0  0  0  0  0  0  0  0
  130.1347  121.0819   61.5781 H   0  0  0  0  0  0  0  0  0  0  0  0
  133.1456  124.0412   63.3733 H   0  0  0  0  0  0  0  0  0  0  0  0
  132.0965  125.8849   64.6566 H   0  0  0  0  0  0  0  0  0  0  0  0
  1  2  1  0
  2  3  1  0
  3  4  2  0
  3  5  1  0
  5  6  1  0
  6  7  1  0
  7  8  2  0
  8  9  1  0
  9 10  1  0
 10 11  2  0
 11 12  1  0
 12 13  2  0
 13 14  1  0
 14 15  1  0
 15 16  1  0
 16 17  1  0
 17 18  1  0
 18 19  1  0
 13 20  1  0
 20 21  2  0
  9 22  2  0
 22 23  1  0
 23 24  1  0
 24 25  2  0
 25 26  1  0
 26 27  2  0
 27 28  1  0
 28 29  1  0
 29 30  1  0
 30 31  1  0
 31 32  1  0
 32 33  1  0
 27 34  1  0
 34 35  2  0
 23 36  2  0
 36 37  1  0
 37 38  3  0
 36  7  1  0
 21 10  1  0
 35 24  1  0
 19 14  1  0
 33 28  1  0
  1 39  1  0
  1 40  1  0
  1 41  1  0
  5 42  1  0
  5 43  1  0
 11 44  1  0
 12 45  1  0
 15 46  1  0
 15 47  1  0
 16 48  1  0
 16 49  1  0
 18 50  1  0
 18 51  1  0
 19 52  1  0
 19 53  1  0
 20 54  1  0
 21 55  1  0
 22 56  1  0
 25 57  1  0
 26 58  1  0
 29 59  1  0
 29 60  1  0
 30 61  1  0
 30 62  1  0
 32 63  1  0
 32 64  1  0
 33 65  1  0
 33 66  1  0
 34 67  1  0
 35 68  1  0
M  END
>  <Binding energies>  (1) 
[-9.24]

>  <Ligand effiencies>  (1) 
[-0.2431578947368421]

>  <Interactions>  (1) 
["V-B:TYR:539:CD2:9846, V-A:GLU:543:CD:4908, V-B:ASP:366:CG:8184, V-B:TYR:539:CE2:9848, V-A:LEU:475:CD2:4259, V-B:GLY:454:CA:9020, H-B:GLY:454:N:9021, V-A:ILE:369:CD1:3239, V-A:ILE:369:CG2:3237, V-B:GLU:543:CB:9878, V-B:GLU:543:CG:9879, V-A:SER:385:C:3405, V-B:GLU:543:CD:9880, V-B:HIS:456:CD2:9039, V-A:HIS:456:CD2:4068, V-A:HIS:456:CE1:4070, H-B:LYS:547:NZ:9923, V-B:HIS:456:CE1:9041, V-B:GLU:543:C:9874, H-A:LYS:547:NZ:4951, V-A:GLU:543:CB:4906, V-B:ARG:545:CZ:9898, H-B:TYR:484:OH:9319, V-A:GLU:543:CG:4907, H-B:ARG:545:NE:9896, V-A:SER:385:CA:3407, H-A:SER:385:OG:3410, V-A:SER:385:CB:3409"]

$$$$
2d_Grossjean_2025
     RDKit          3D

 36 37  0  0  0  0  0  0  0  0999 V2000
  128.9880  121.7720   60.5830 C   0  0  0  0  0  0  0  0  0  0  0  0
  130.0830  122.3590   61.4530 C   0  0  0  0  0  0  0  0  0  0  0  0
  131.3450  122.6500   60.9390 C   0  0  0  0  0  0  0  0  0  0  0  0
  132.3230  123.1970   61.7830 C   0  0  0  0  0  0  0  0  0  0  0  0
  133.7100  123.5220   61.1950 C   0  0  0  0  0  0  0  0  0  0  0  0
  134.6120  122.6480   61.6430 F   0  0  0  0  0  0  0  0  0  0  0  0
  133.6690  123.4560   59.8630 F   0  0  0  0  0  0  0  0  0  0  0  0
  134.1370  124.7430   61.5230 F   0  0  0  0  0  0  0  0  0  0  0  0
  131.9940  123.4280   63.1430 C   0  0  0  0  0  0  0  0  0  0  0  0
  132.9650  124.0400   64.0540 C   0  0  0  0  0  0  0  0  0  0  0  0
  133.7320  124.5240   64.7720 N   0  0  0  0  0  0  0  0  0  0  0  0
  130.6950  123.0780   63.5820 C   0  0  0  0  0  0  0  0  0  0  0  0
  130.1250  123.2710   65.2600 S   0  0  0  0  0  0  0  0  0  0  0  0
  130.4260  124.9910   65.7860 C   0  0  0  0  0  0  0  0  0  0  0  0
  129.9810  125.2630   67.2260 C   0  0  0  0  0  0  0  0  0  0  0  0
  129.4420  124.3600   67.8660 O   0  0  0  0  0  0  0  0  0  0  0  0
  130.1960  126.5170   67.6760 N   0  0  0  0  0  0  0  0  0  0  0  0
  129.9070  127.0700   68.9380 C   0  0  0  0  0  0  0  0  0  0  0  0
  130.9560  127.7460   69.5650 C   0  0  0  0  0  0  0  0  0  0  0  0
  130.7690  128.3220   70.8190 C   0  0  0  0  0  0  0  0  0  0  0  0
  129.5320  128.2140   71.4510 C   0  0  0  0  0  0  0  0  0  0  0  0
  128.4830  127.5310   70.8410 C   0  0  0  0  0  0  0  0  0  0  0  0
  128.6660  126.9550   69.5870 C   0  0  0  0  0  0  0  0  0  0  0  0
  129.7550  122.5700   62.7480 N   0  0  0  0  0  0  0  0  0  0  0  0
  128.1990  121.3490   61.2222 H   0  0  0  0  0  0  0  0  0  0  0  0
  128.5611  122.5622   59.9479 H   0  0  0  0  0  0  0  0  0  0  0  0
  129.4098  120.9790   59.9479 H   0  0  0  0  0  0  0  0  0  0  0  0
  131.5724  122.4526   59.8810 H   0  0  0  0  0  0  0  0  0  0  0  0
  131.5034  125.1983   65.7070 H   0  0  0  0  0  0  0  0  0  0  0  0
  129.8329  125.6445   65.1293 H   0  0  0  0  0  0  0  0  0  0  0  0
  130.5650  127.1760   67.0060 H   0  0  0  0  0  0  0  0  0  0  0  0
  131.9335  127.8237   69.0665 H   0  0  0  0  0  0  0  0  0  0  0  0
  131.5943  128.8599   71.3084 H   0  0  0  0  0  0  0  0  0  0  0  0
  129.3828  128.6720   72.4399 H   0  0  0  0  0  0  0  0  0  0  0  0
  127.5111  127.4467   71.3493 H   0  0  0  0  0  0  0  0  0  0  0  0
  127.8405  126.4107   69.1050 H   0  0  0  0  0  0  0  0  0  0  0  0
  1  2  1  0
  2  3  2  0
  3  4  1  0
  4  5  1  0
  5  6  1  0
  5  7  1  0
  5  8  1  0
  4  9  2  0
  9 10  1  0
 10 11  3  0
  9 12  1  0
 12 13  1  0
 13 14  1  0
 14 15  1  0
 15 16  2  0
 15 17  1  0
 17 18  1  0
 18 19  2  0
 19 20  1  0
 20 21  2  0
 21 22  1  0
 22 23  2  0
 12 24  2  0
 24  2  1  0
 23 18  1  0
  1 25  1  0
  1 26  1  0
  1 27  1  0
  3 28  1  0
 14 29  1  0
 14 30  1  0
 17 31  1  0
 19 32  1  0
 20 33  1  0
 21 34  1  0
 22 35  1  0
 23 36  1  0
M  END
>  <Binding energies>  (1) 
[-6.64]

>  <Ligand effiencies>  (1) 
[-0.2656]

>  <Interactions>  (1) 
["V-B:TYR:539:CD2:9846, V-A:GLU:543:CD:4908, H-A:GLY:454:N:4050, H-A:TYR:484:OH:4348, V-B:TYR:539:CE2:9848, H-A:ARG:545:NE:4924, V-A:LEU:475:CD2:4259, V-B:PRO:540:CA:9855, V-A:ILE:369:CD1:3239, V-A:GLY:454:CA:4049, V-A:ASP:366:CG:3213, V-A:ILE:369:CG2:3237, V-A:ILE:369:CG1:3238, V-A:ILE:369:CB:3236, H-A:GLU:543:OE2:4910, V-B:GLU:543:CB:9878, V-B:GLU:543:CG:9879, V-A:TYR:484:CE2:4346, V-B:HIS:456:CD2:9039, V-A:GLY:544:C:4912, V-A:HIS:456:CE1:4070, V-B:HIS:456:CE1:9041, V-B:GLU:543:C:9874, V-A:GLU:543:CB:4906, V-A:GLU:543:C:4902, V-B:PRO:540:C:9853, V-B:TYR:539:C:9839, V-A:GLY:544:CA:4914, V-B:GLU:543:CA:9876"]

$$$$
2e_Grossjean_2025
     RDKit          3D

 38 39  0  0  0  0  0  0  0  0999 V2000
  127.1280  127.0020   71.3950 C   0  0  0  0  0  0  0  0  0  0  0  0
  128.5090  127.3860   70.8970 C   0  0  0  0  0  0  0  0  0  0  0  0
  129.3810  128.1510   71.6760 C   0  0  0  0  0  0  0  0  0  0  0  0
  130.6400  128.4560   71.1580 C   0  0  0  0  0  0  0  0  0  0  0  0
  130.9940  127.9950   69.8870 C   0  0  0  0  0  0  0  0  0  0  0  0
  130.0680  127.2410   69.1560 C   0  0  0  0  0  0  0  0  0  0  0  0
  130.4910  126.7670   67.9030 N   0  0  0  0  0  0  0  0  0  0  0  0
  130.1820  125.5930   67.3080 C   0  0  0  0  0  0  0  0  0  0  0  0
  129.3950  124.7590   67.7580 O   0  0  0  0  0  0  0  0  0  0  0  0
  130.9190  125.2950   65.9990 C   0  0  0  0  0  0  0  0  0  0  0  0
  129.7720  125.1090   64.5960 S   0  0  0  0  0  0  0  0  0  0  0  0
  130.5410  123.9300   63.5070 C   0  0  0  0  0  0  0  0  0  0  0  0
  131.8880  124.0500   63.4040 N   0  0  0  0  0  0  0  0  0  0  0  0
  132.5470  123.2220   62.5630 C   0  0  0  0  0  0  0  0  0  0  0  0
  134.0500  123.4090   62.4970 C   0  0  0  0  0  0  0  0  0  0  0  0
  131.8980  122.2570   61.7940 C   0  0  0  0  0  0  0  0  0  0  0  0
  130.5040  122.1260   61.8820 C   0  0  0  0  0  0  0  0  0  0  0  0
  129.7990  121.0700   61.0110 C   0  0  0  0  0  0  0  0  0  0  0  0
  129.0910  121.6660   60.0510 F   0  0  0  0  0  0  0  0  0  0  0  0
  130.7020  120.2670   60.4480 F   0  0  0  0  0  0  0  0  0  0  0  0
  128.9590  120.3030   61.7100 F   0  0  0  0  0  0  0  0  0  0  0  0
  129.7990  122.9830   62.7640 C   0  0  0  0  0  0  0  0  0  0  0  0
  128.3390  122.9170   62.8790 C   0  0  0  0  0  0  0  0  0  0  0  0
  127.1860  122.8650   62.9690 N   0  0  0  0  0  0  0  0  0  0  0  0
  128.8370  126.9320   69.6600 N   0  0  0  0  0  0  0  0  0  0  0  0
  127.1222  127.0004   72.4950 H   0  0  0  0  0  0  0  0  0  0  0  0
  126.3897  127.7289   71.0255 H   0  0  0  0  0  0  0  0  0  0  0  0
  126.8710  125.9983   71.0255 H   0  0  0  0  0  0  0  0  0  0  0  0
  129.0819  128.5043   72.6739 H   0  0  0  0  0  0  0  0  0  0  0  0
  131.3499  129.0558   71.7465 H   0  0  0  0  0  0  0  0  0  0  0  0
  131.9853  128.2212   69.4672 H   0  0  0  0  0  0  0  0  0  0  0  0
  131.0660  127.4080   67.3760 H   0  0  0  0  0  0  0  0  0  0  0  0
  131.6107  126.1230   65.7846 H   0  0  0  0  0  0  0  0  0  0  0  0
  131.4605  124.3456   66.1229 H   0  0  0  0  0  0  0  0  0  0  0  0
  134.4583  123.4598   63.5171 H   0  0  0  0  0  0  0  0  0  0  0  0
  134.5020  122.5602   61.9630 H   0  0  0  0  0  0  0  0  0  0  0  0
  134.2802  124.3427   61.9630 H   0  0  0  0  0  0  0  0  0  0  0  0
  132.4747  121.6032   61.1232 H   0  0  0  0  0  0  0  0  0  0  0  0
  1  2  1  0
  2  3  2  0
  3  4  1  0
  4  5  2  0
  5  6  1  0
  6  7  1  0
  7  8  1  0
  8  9  2  0
  8 10  1  0
 10 11  1  0
 11 12  1  0
 12 13  2  0
 13 14  1  0
 14 15  1  0
 14 16  2  0
 16 17  1  0
 17 18  1  0
 18 19  1  0
 18 20  1  0
 18 21  1  0
 17 22  2  0
 22 23  1  0
 23 24  3  0
  6 25  2  0
 25  2  1  0
 22 12  1  0
  1 26  1  0
  1 27  1  0
  1 28  1  0
  3 29  1  0
  4 30  1  0
  5 31  1  0
  7 32  1  0
 10 33  1  0
 10 34  1  0
 15 35  1  0
 15 36  1  0
 15 37  1  0
 16 38  1  0
M  END
>  <Binding energies>  (1) 
[-6.47]

>  <Ligand effiencies>  (1) 
[-0.24884615384615383]

>  <Interactions>  (1) 
["V-B:PRO:540:N:9856, V-B:TYR:539:CD2:9846, V-A:GLU:543:CD:4908, V-B:TYR:539:CE2:9848, V-A:LEU:475:CD2:4259, V-B:PRO:540:CA:9855, V-A:ILE:369:CD1:3239, H-B:ALA:541:N:9863, V-A:GLY:454:CA:4049, H-A:GLU:543:OE2:4910, V-B:GLU:543:CB:9878, V-B:GLU:543:CG:9879, V-B:GLU:543:CD:9880, V-B:ALA:541:CB:9864, V-B:HIS:456:CD2:9039, V-A:GLY:544:C:4912, V-B:GLY:544:C:9884, V-B:HIS:456:CG:9037, V-B:GLY:544:CA:9886, V-A:HIS:456:CE1:4070, V-B:HIS:456:CE1:9041, V-B:GLU:543:C:9874, V-A:GLU:543:CB:4906, V-A:GLU:543:C:4902, V-B:PRO:540:C:9853, V-B:TYR:539:CG:9844, V-B:TYR:539:C:9839, V-A:GLY:544:CA:4914, V-B:ALA:541:CA:9862"]

$$$$
2f_Grossjean_2025
     RDKit          3D

 35 36  0  0  0  0  0  0  0  0999 V2000
  128.0890  122.8710   62.9620 C   0  0  0  0  0  0  0  0  0  0  0  0
  129.4370  123.3710   63.4420 C   0  0  0  0  0  0  0  0  0  0  0  0
  130.5640  123.3330   62.6240 C   0  0  0  0  0  0  0  0  0  0  0  0
  131.7920  123.8010   63.1170 C   0  0  0  0  0  0  0  0  0  0  0  0
  133.0290  123.7390   62.2010 C   0  0  0  0  0  0  0  0  0  0  0  0
  132.6860  123.2710   60.9990 F   0  0  0  0  0  0  0  0  0  0  0  0
  133.5490  124.9580   62.0570 F   0  0  0  0  0  0  0  0  0  0  0  0
  133.9890  122.9460   62.6800 F   0  0  0  0  0  0  0  0  0  0  0  0
  131.8420  124.3070   64.4420 C   0  0  0  0  0  0  0  0  0  0  0  0
  133.1110  124.7540   65.0220 C   0  0  0  0  0  0  0  0  0  0  0  0
  134.1140  125.1080   65.4790 N   0  0  0  0  0  0  0  0  0  0  0  0
  130.6410  124.3310   65.1910 C   0  0  0  0  0  0  0  0  0  0  0  0
  130.5170  124.9410   66.8600 S   0  0  0  0  0  0  0  0  0  0  0  0
  129.2330  126.2380   66.8950 C   0  0  0  0  0  0  0  0  0  0  0  0
  129.2490  127.1360   68.1400 C   0  0  0  0  0  0  0  0  0  0  0  0
  129.3660  128.3580   68.0320 O   0  0  0  0  0  0  0  0  0  0  0  0
  129.1450  126.4720   69.3110 N   0  0  0  0  0  0  0  0  0  0  0  0
  129.1150  126.9750   70.6260 C   0  0  0  0  0  0  0  0  0  0  0  0
  129.7560  128.1480   71.0660 C   0  0  0  0  0  0  0  0  0  0  0  0
  129.6420  128.5390   72.4010 C   0  0  0  0  0  0  0  0  0  0  0  0
  128.8850  127.7480   73.2660 C   0  0  0  0  0  0  0  0  0  0  0  0
  128.2500  126.6180   72.8650 N   0  0  0  0  0  0  0  0  0  0  0  0
  128.3700  126.2510   71.5630 C   0  0  0  0  0  0  0  0  0  0  0  0
  129.4690  123.8540   64.7050 N   0  0  0  0  0  0  0  0  0  0  0  0
  127.4550  122.6358   63.8296 H   0  0  0  0  0  0  0  0  0  0  0  0
  127.6045  123.6492   62.3540 H   0  0  0  0  0  0  0  0  0  0  0  0
  128.2292  121.9651   62.3540 H   0  0  0  0  0  0  0  0  0  0  0  0
  130.4920  122.9392   61.5994 H   0  0  0  0  0  0  0  0  0  0  0  0
  129.3710  126.8782   66.0112 H   0  0  0  0  0  0  0  0  0  0  0  0
  128.2667  125.7125   66.9084 H   0  0  0  0  0  0  0  0  0  0  0  0
  129.1150  125.4640   69.2520 H   0  0  0  0  0  0  0  0  0  0  0  0
  130.3442  128.7539   70.3611 H   0  0  0  0  0  0  0  0  0  0  0  0
  130.1383  129.4513   72.7635 H   0  0  0  0  0  0  0  0  0  0  0  0
  128.7993  128.0539   74.3191 H   0  0  0  0  0  0  0  0  0  0  0  0
  127.8554  125.3383   71.2282 H   0  0  0  0  0  0  0  0  0  0  0  0
  1  2  1  0
  2  3  2  0
  3  4  1  0
  4  5  1  0
  5  6  1  0
  5  7  1  0
  5  8  1  0
  4  9  2  0
  9 10  1  0
 10 11  3  0
  9 12  1  0
 12 13  1  0
 13 14  1  0
 14 15  1  0
 15 16  2  0
 15 17  1  0
 17 18  1  0
 18 19  2  0
 19 20  1  0
 20 21  2  0
 21 22  1  0
 22 23  2  0
 12 24  2  0
 24  2  1  0
 23 18  1  0
  1 25  1  0
  1 26  1  0
  1 27  1  0
  3 28  1  0
 14 29  1  0
 14 30  1  0
 17 31  1  0
 19 32  1  0
 20 33  1  0
 21 34  1  0
 23 35  1  0
M  END
>  <Binding energies>  (1) 
[-6.16]

>  <Ligand effiencies>  (1) 
[-0.2464]

>  <Interactions>  (1) 
["H-A:GLY:454:N:4050, H-A:TYR:484:OH:4348, H-A:ARG:545:NE:4924, V-A:ARG:545:CZ:4926, V-A:ILE:369:CD1:3239, V-A:GLY:454:CA:4049, V-A:ASP:366:CG:3213, V-A:TYR:484:CZ:4347, V-B:GLU:543:CB:9878, V-B:GLU:543:CG:9879, V-A:TYR:484:CE2:4346, V-B:GLU:543:CD:9880, V-B:ALA:541:CB:9864, V-B:HIS:456:CD2:9039, V-A:HIS:456:CE1:4070, H-B:LYS:547:NZ:9923, V-B:GLU:543:C:9874, H-B:GLU:543:O:9875, H-A:ARG:545:NH2:4928, H-A:HIS:456:NE2:4071, V-B:ALA:541:CA:9862, H-A:ARG:545:NH1:4927"]

$$$$
2g_Grossjean_2025
     RDKit          3D

 39 40  0  0  0  0  0  0  0  0999 V2000
  128.5960  127.0750   70.3700 C   0  0  0  0  0  0  0  0  0  0  0  0
  128.7150  127.1170   68.8590 C   0  0  0  0  0  0  0  0  0  0  0  0
  128.0990  128.1150   68.1070 C   0  0  0  0  0  0  0  0  0  0  0  0
  128.2320  128.1070   66.7100 C   0  0  0  0  0  0  0  0  0  0  0  0
  127.5360  129.2130   65.8940 C   0  0  0  0  0  0  0  0  0  0  0  0
  126.2830  129.3830   66.3200 F   0  0  0  0  0  0  0  0  0  0  0  0
  128.1990  130.3620   66.0330 F   0  0  0  0  0  0  0  0  0  0  0  0
  127.4790  128.9350   64.5900 F   0  0  0  0  0  0  0  0  0  0  0  0
  129.0020  127.0790   66.1080 C   0  0  0  0  0  0  0  0  0  0  0  0
  129.1260  126.9920   64.6500 C   0  0  0  0  0  0  0  0  0  0  0  0
  129.2230  126.9240   63.4990 N   0  0  0  0  0  0  0  0  0  0  0  0
  129.6170  126.1250   66.9540 C   0  0  0  0  0  0  0  0  0  0  0  0
  130.6360  124.7880   66.3690 S   0  0  0  0  0  0  0  0  0  0  0  0
  132.2740  125.4840   65.9640 C   0  0  0  0  0  0  0  0  0  0  0  0
  132.7970  125.1230   64.5670 C   0  0  0  0  0  0  0  0  0  0  0  0
  133.8660  124.5280   64.4160 O   0  0  0  0  0  0  0  0  0  0  0  0
  132.0150  125.5040   63.5410 N   0  0  0  0  0  0  0  0  0  0  0  0
  132.2970  125.2650   62.1240 C   0  0  0  0  0  0  0  0  0  0  0  0
  132.5780  123.8080   61.7760 C   0  0  0  0  0  0  0  0  0  0  0  0
  131.5250  122.9630   61.4130 C   0  0  0  0  0  0  0  0  0  0  0  0
  131.7840  121.6410   61.0580 C   0  0  0  0  0  0  0  0  0  0  0  0
  133.0950  121.1720   61.0560 C   0  0  0  0  0  0  0  0  0  0  0  0
  134.1510  122.0130   61.4040 C   0  0  0  0  0  0  0  0  0  0  0  0
  133.8930  123.3340   61.7590 C   0  0  0  0  0  0  0  0  0  0  0  0
  129.4590  126.1350   68.3010 N   0  0  0  0  0  0  0  0  0  0  0  0
  129.5418  127.4088   70.8217 H   0  0  0  0  0  0  0  0  0  0  0  0
  127.7810  127.7398   70.6922 H   0  0  0  0  0  0  0  0  0  0  0  0
  128.3789  126.0459   70.6922 H   0  0  0  0  0  0  0  0  0  0  0  0
  127.5134  128.9025   68.6040 H   0  0  0  0  0  0  0  0  0  0  0  0
  132.2069  126.5798   66.0321 H   0  0  0  0  0  0  0  0  0  0  0  0
  132.9830  125.0481   66.6832 H   0  0  0  0  0  0  0  0  0  0  0  0
  131.1410  125.9650   63.7480 H   0  0  0  0  0  0  0  0  0  0  0  0
  131.4266  125.5969   61.5390 H   0  0  0  0  0  0  0  0  0  0  0  0
  133.2122  125.8271   61.8865 H   0  0  0  0  0  0  0  0  0  0  0  0
  130.4923  123.3419   61.4077 H   0  0  0  0  0  0  0  0  0  0  0  0
  130.9569  120.9710   60.7806 H   0  0  0  0  0  0  0  0  0  0  0  0
  133.2995  120.1278   60.7771 H   0  0  0  0  0  0  0  0  0  0  0  0
  135.1837  121.6343   61.3981 H   0  0  0  0  0  0  0  0  0  0  0  0
  134.7232  124.0044   62.0260 H   0  0  0  0  0  0  0  0  0  0  0  0
  1  2  1  0
  2  3  2  0
  3  4  1  0
  4  5  1  0
  5  6  1  0
  5  7  1  0
  5  8  1  0
  4  9  2  0
  9 10  1  0
 10 11  3  0
  9 12  1  0
 12 13  1  0
 13 14  1  0
 14 15  1  0
 15 16  2  0
 15 17  1  0
 17 18  1  0
 18 19  1  0
 19 20  2  0
 20 21  1  0
 21 22  2  0
 22 23  1  0
 23 24  2  0
 12 25  2  0
 25  2  1  0
 24 19  1  0
  1 26  1  0
  1 27  1  0
  1 28  1  0
  3 29  1  0
 14 30  1  0
 14 31  1  0
 17 32  1  0
 18 33  1  0
 18 34  1  0
 20 35  1  0
 21 36  1  0
 22 37  1  0
 23 38  1  0
 24 39  1  0
M  END
>  <Binding energies>  (1) 
[-6.23]

>  <Ligand effiencies>  (1) 
[-0.23961538461538462]

>  <Interactions>  (1) 
["V-B:TYR:539:CD2:9846, V-A:GLU:543:CD:4908, H-A:GLY:454:N:4050, H-A:TYR:484:OH:4348, V-B:TYR:539:CE2:9848, H-A:ARG:545:NE:4924, V-A:ARG:545:CZ:4926, V-A:LEU:475:CD2:4259, V-A:ILE:369:CD1:3239, V-A:ILE:369:CG2:3237, H-A:GLU:543:OE2:4910, V-B:GLU:543:CB:9878, V-B:GLU:543:CG:9879, V-B:GLU:543:CD:9880, V-B:HIS:456:CE1:9041, H-A:GLU:543:OE1:4909, H-A:ARG:545:NH2:4928, V-A:GLU:543:CB:4906, V-B:TYR:484:CZ:9318, V-A:GLU:543:CG:4907, V-A:SER:385:CB:3409, V-B:TYR:484:CE2:9317"]

$$$$
2h_Grossjean_2025
     RDKit          3D

 51 52  0  0  0  0  0  0  0  0999 V2000
  126.9090  127.7500   73.7390 C   0  0  0  0  0  0  0  0  0  0  0  0
  127.5810  126.7440   72.9900 O   0  0  0  0  0  0  0  0  0  0  0  0
  127.9700  127.0110   71.6890 C   0  0  0  0  0  0  0  0  0  0  0  0
  127.2080  126.6770   70.5590 C   0  0  0  0  0  0  0  0  0  0  0  0
  127.6620  126.9860   69.2790 C   0  0  0  0  0  0  0  0  0  0  0  0
  128.8850  127.6350   69.0990 C   0  0  0  0  0  0  0  0  0  0  0  0
  129.3530  127.9830   67.6870 C   0  0  0  0  0  0  0  0  0  0  0  0
  129.3650  126.8390   66.7750 N   0  0  0  0  0  0  0  0  0  0  0  0
  130.3140  125.8860   66.7460 C   0  0  0  0  0  0  0  0  0  0  0  0
  131.3300  125.9240   67.4430 O   0  0  0  0  0  0  0  0  0  0  0  0
  130.0530  124.7190   65.7840 C   0  0  0  0  0  0  0  0  0  0  0  0
  129.7060  125.2040   64.0600 S   0  0  0  0  0  0  0  0  0  0  0  0
  130.3330  123.9010   63.0230 C   0  0  0  0  0  0  0  0  0  0  0  0
  129.3890  123.3260   62.2380 N   0  0  0  0  0  0  0  0  0  0  0  0
  129.7540  122.3110   61.4230 C   0  0  0  0  0  0  0  0  0  0  0  0
  128.6450  121.7120   60.5800 C   0  0  0  0  0  0  0  0  0  0  0  0
  131.0610  121.8350   61.3540 C   0  0  0  0  0  0  0  0  0  0  0  0
  132.0560  122.4310   62.1440 C   0  0  0  0  0  0  0  0  0  0  0  0
  133.4980  121.8960   62.0470 C   0  0  0  0  0  0  0  0  0  0  0  0
  133.8760  121.3910   63.2210 F   0  0  0  0  0  0  0  0  0  0  0  0
  133.6310  120.9300   61.1350 F   0  0  0  0  0  0  0  0  0  0  0  0
  134.3310  122.8820   61.7110 F   0  0  0  0  0  0  0  0  0  0  0  0
  131.6910  123.5020   62.9990 C   0  0  0  0  0  0  0  0  0  0  0  0
  132.7030  124.1960   63.8000 C   0  0  0  0  0  0  0  0  0  0  0  0
  133.5040  124.7440   64.4290 N   0  0  0  0  0  0  0  0  0  0  0  0
  129.6680  127.9540   70.2190 C   0  0  0  0  0  0  0  0  0  0  0  0
  130.8750  128.5910   70.0490 O   0  0  0  0  0  0  0  0  0  0  0  0
  131.9260  127.7450   69.5990 C   0  0  0  0  0  0  0  0  0  0  0  0
  129.1990  127.6590   71.5100 C   0  0  0  0  0  0  0  0  0  0  0  0
  129.9560  127.9870   72.6100 O   0  0  0  0  0  0  0  0  0  0  0  0
  130.9110  126.9990   72.9740 C   0  0  0  0  0  0  0  0  0  0  0  0
  127.0391  127.5553   74.8138 H   0  0  0  0  0  0  0  0  0  0  0  0
  127.3311  128.7351   73.4911 H   0  0  0  0  0  0  0  0  0  0  0  0
  125.8374  127.7373   73.4911 H   0  0  0  0  0  0  0  0  0  0  0  0
  126.2422  126.1659   70.6854 H   0  0  0  0  0  0  0  0  0  0  0  0
  127.0526  126.7168   68.4037 H   0  0  0  0  0  0  0  0  0  0  0  0
  128.6784  128.7484   67.2758 H   0  0  0  0  0  0  0  0  0  0  0  0
  130.3901  128.3402   67.7699 H   0  0  0  0  0  0  0  0  0  0  0  0
  128.5450  126.7210   66.1970 H   0  0  0  0  0  0  0  0  0  0  0  0
  130.9422  124.0714   65.7839 H   0  0  0  0  0  0  0  0  0  0  0  0
  129.1461  124.2156   66.1502 H   0  0  0  0  0  0  0  0  0  0  0  0
  127.8695  121.2932   61.2382 H   0  0  0  0  0  0  0  0  0  0  0  0
  128.2036  122.4944   59.9451 H   0  0  0  0  0  0  0  0  0  0  0  0
  129.0573  120.9139   59.9451 H   0  0  0  0  0  0  0  0  0  0  0  0
  131.3115  120.9982   60.6854 H   0  0  0  0  0  0  0  0  0  0  0  0
  132.4526  127.3211   70.4668 H   0  0  0  0  0  0  0  0  0  0  0  0
  131.5060  126.9301   68.9911 H   0  0  0  0  0  0  0  0  0  0  0  0
  132.6323  128.3294   68.9911 H   0  0  0  0  0  0  0  0  0  0  0  0
  130.9728  126.9351   74.0704 H   0  0  0  0  0  0  0  0  0  0  0  0
  130.6038  126.0245   72.5666 H   0  0  0  0  0  0  0  0  0  0  0  0
  131.8954  127.2729   72.5666 H   0  0  0  0  0  0  0  0  0  0  0  0
  1  2  1  0
  2  3  1  0
  3  4  2  0
  4  5  1  0
  5  6  2  0
  6  7  1  0
  7  8  1  0
  8  9  1  0
  9 10  2  0
  9 11  1  0
 11 12  1  0
 12 13  1  0
 13 14  2  0
 14 15  1  0
 15 16  1  0
 15 17  2  0
 17 18  1  0
 18 19  1  0
 19 20  1  0
 19 21  1  0
 19 22  1  0
 18 23  2  0
 23 24  1  0
 24 25  3  0
  6 26  1  0
 26 27  1  0
 27 28  1  0
 26 29  2  0
 29 30  1  0
 30 31  1  0
 29  3  1  0
 23 13  1  0
  1 32  1  0
  1 33  1  0
  1 34  1  0
  4 35  1  0
  5 36  1  0
  7 37  1  0
  7 38  1  0
  8 39  1  0
 11 40  1  0
 11 41  1  0
 16 42  1  0
 16 43  1  0
 16 44  1  0
 17 45  1  0
 28 46  1  0
 28 47  1  0
 28 48  1  0
 31 49  1  0
 31 50  1  0
 31 51  1  0
M  END
>  <Binding energies>  (1) 
[-5.85]

>  <Ligand effiencies>  (1) 
[-0.1828125]

>  <Interactions>  (1) 
["V-B:PRO:540:N:9856, V-B:TYR:539:CD2:9846, V-A:GLU:543:CD:4908, H-A:GLY:454:N:4050, H-A:TYR:484:OH:4348, V-B:TYR:539:CE2:9848, H-A:ARG:545:NE:4924, V-A:LEU:475:CD2:4259, V-B:PRO:540:CA:9855, V-A:ILE:369:CD1:3239, V-A:GLY:454:CA:4049, V-A:ILE:369:CG2:3237, H-A:GLU:543:OE2:4910, V-B:GLU:543:CB:9878, V-B:GLU:543:CG:9879, V-A:SER:385:C:3405, V-A:TYR:484:CE2:4346, V-B:GLU:543:CD:9880, V-B:HIS:456:CD2:9039, V-A:GLY:544:C:4912, V-B:GLY:544:C:9884, V-B:HIS:456:CG:9037, V-B:GLY:544:CA:9886, V-A:HIS:456:CD2:4068, V-A:HIS:456:CG:4066, V-A:HIS:456:CE1:4070, H-B:LYS:547:NZ:9923, V-B:LYS:547:CE:9922, V-B:HIS:456:CE1:9041, V-B:GLU:543:C:9874, H-A:LYS:547:NZ:4951, H-A:ARG:545:NH2:4928, V-A:GLU:543:CB:4906, V-A:GLU:543:C:4902, V-A:GLU:543:CG:4907, V-B:PRO:540:C:9853, V-B:TYR:539:C:9839, V-A:SER:385:CA:3407, V-A:SER:385:CB:3409, V-A:LEU:475:CG:4257, V-A:ARG:545:CB:4921, V-A:ARG:545:CG:4922, V-A:ARG:545:CA:4919, H-A:ARG:545:N:4920, H-B:GLU:543:OE2:9882, H-A:GLY:544:N:4915"]

$$$$
2i_Grossjean_2025
     RDKit          3D

 32 33  0  0  0  0  0  0  0  0999 V2000
  128.5050  122.1300   62.2630 C   0  0  0  0  0  0  0  0  0  0  0  0
  129.6800  122.8010   62.9490 C   0  0  0  0  0  0  0  0  0  0  0  0
  129.5110  123.5780   64.0920 C   0  0  0  0  0  0  0  0  0  0  0  0
  130.6310  124.1750   64.6910 C   0  0  0  0  0  0  0  0  0  0  0  0
  130.4260  125.0320   65.9550 C   0  0  0  0  0  0  0  0  0  0  0  0
  129.8360  126.1850   65.6330 F   0  0  0  0  0  0  0  0  0  0  0  0
  129.6570  124.3830   66.8300 F   0  0  0  0  0  0  0  0  0  0  0  0
  131.5730  125.3270   66.5710 F   0  0  0  0  0  0  0  0  0  0  0  0
  131.9050  123.9630   64.1070 C   0  0  0  0  0  0  0  0  0  0  0  0
  133.1090  124.5620   64.6930 C   0  0  0  0  0  0  0  0  0  0  0  0
  134.0590  125.0340   65.1550 N   0  0  0  0  0  0  0  0  0  0  0  0
  131.9850  123.1610   62.9450 C   0  0  0  0  0  0  0  0  0  0  0  0
  133.5330  122.8320   62.1190 S   0  0  0  0  0  0  0  0  0  0  0  0
  133.1660  122.3140   60.4150 C   0  0  0  0  0  0  0  0  0  0  0  0
  132.7170  120.8530   60.3380 C   0  0  0  0  0  0  0  0  0  0  0  0
  133.4630  120.0240   59.8150 O   0  0  0  0  0  0  0  0  0  0  0  0
  131.4910  120.5880   60.8390 N   0  0  0  0  0  0  0  0  0  0  0  0
  130.8590  119.3560   60.8690 C   0  0  0  0  0  0  0  0  0  0  0  0
  131.1080  118.1940   60.1230 C   0  0  0  0  0  0  0  0  0  0  0  0
  130.1790  117.2840   60.5730 C   0  0  0  0  0  0  0  0  0  0  0  0
  129.4230  117.8620   61.5370 O   0  0  0  0  0  0  0  0  0  0  0  0
  129.8700  119.1730   61.7160 N   0  0  0  0  0  0  0  0  0  0  0  0
  130.8890  122.5910   62.3810 N   0  0  0  0  0  0  0  0  0  0  0  0
  127.8138  121.7353   63.0222 H   0  0  0  0  0  0  0  0  0  0  0  0
  127.9792  122.8640   61.6347 H   0  0  0  0  0  0  0  0  0  0  0  0
  128.8700  121.3042   61.6347 H   0  0  0  0  0  0  0  0  0  0  0  0
  128.5087  123.7226   64.5216 H   0  0  0  0  0  0  0  0  0  0  0  0
  132.3641  122.9524   60.0158 H   0  0  0  0  0  0  0  0  0  0  0  0
  134.0893  122.4146   59.8256 H   0  0  0  0  0  0  0  0  0  0  0  0
  130.9560  121.3610   61.2050 H   0  0  0  0  0  0  0  0  0  0  0  0
  131.8758  118.0437   59.3497 H   0  0  0  0  0  0  0  0  0  0  0  0
  130.0680  116.2522   60.2082 H   0  0  0  0  0  0  0  0  0  0  0  0
  1  2  1  0
  2  3  2  0
  3  4  1  0
  4  5  1  0
  5  6  1  0
  5  7  1  0
  5  8  1  0
  4  9  2  0
  9 10  1  0
 10 11  3  0
  9 12  1  0
 12 13  1  0
 13 14  1  0
 14 15  1  0
 15 16  2  0
 15 17  1  0
 17 18  1  0
 18 19  1  0
 19 20  2  0
 20 21  1  0
 21 22  1  0
 12 23  2  0
 23  2  1  0
 22 18  2  0
  1 24  1  0
  1 25  1  0
  1 26  1  0
  3 27  1  0
 14 28  1  0
 14 29  1  0
 17 30  1  0
 19 31  1  0
 20 32  1  0
M  END
>  <Binding energies>  (1) 
[-6.04]

>  <Ligand effiencies>  (1) 
[-0.25166666666666665]

>  <Interactions>  (1) 
["V-B:TYR:539:CD2:9846, V-A:GLU:543:CD:4908, H-A:GLY:454:N:4050, H-A:TYR:484:OH:4348, V-B:TYR:539:CE2:9848, H-A:ARG:545:NE:4924, V-A:ARG:545:CZ:4926, V-A:LEU:475:CD2:4259, V-A:GLY:454:CA:4049, V-A:ILE:369:CG2:3237, V-A:TYR:484:CZ:4347, V-B:GLU:543:CB:9878, V-B:GLU:543:CG:9879, V-A:TYR:484:CE2:4346, V-B:GLU:543:CD:9880, V-B:ALA:541:CB:9864, V-A:HIS:456:CE1:4070, H-A:ARG:545:NH2:4928, V-B:PRO:540:C:9853, V-B:TYR:539:C:9839, V-B:GLU:543:CA:9876, V-B:ALA:541:CA:9862, V-A:PRO:482:CG:4327, V-A:PRO:482:CB:4326, V-A:HIS:383:CE1:3393, H-A:SER:385:OG:3410, V-B:TYR:539:CB:9843, V-A:HIS:383:NE2:3394, H-A:ARG:545:NH1:4927"]

$$$$
2j_Grossjean_2025
     RDKit          3D

 32 33  0  0  0  0  0  0  0  0999 V2000
  128.6270  121.7660   61.1710 C   0  0  0  0  0  0  0  0  0  0  0  0
  129.8540  122.3920   61.8060 C   0  0  0  0  0  0  0  0  0  0  0  0
  131.1380  121.9390   61.5140 C   0  0  0  0  0  0  0  0  0  0  0  0
  132.2420  122.5530   62.1240 C   0  0  0  0  0  0  0  0  0  0  0  0
  133.6560  122.0390   61.7890 C   0  0  0  0  0  0  0  0  0  0  0  0
  134.2260  121.5290   62.8810 F   0  0  0  0  0  0  0  0  0  0  0  0
  133.5880  121.0920   60.8530 F   0  0  0  0  0  0  0  0  0  0  0  0
  134.4580  123.0010   61.3280 F   0  0  0  0  0  0  0  0  0  0  0  0
  132.0100  123.6210   63.0260 C   0  0  0  0  0  0  0  0  0  0  0  0
  133.1260  124.2990   63.6930 C   0  0  0  0  0  0  0  0  0  0  0  0
  134.0080  124.8340   64.2180 N   0  0  0  0  0  0  0  0  0  0  0  0
  130.6720  124.0170   63.2650 C   0  0  0  0  0  0  0  0  0  0  0  0
  130.2610  125.3510   64.3800 S   0  0  0  0  0  0  0  0  0  0  0  0
  131.1970  125.1160   65.9290 C   0  0  0  0  0  0  0  0  0  0  0  0
  130.3800  125.3120   67.2140 C   0  0  0  0  0  0  0  0  0  0  0  0
  129.7590  124.3720   67.7150 O   0  0  0  0  0  0  0  0  0  0  0  0
  130.3990  126.5690   67.7110 N   0  0  0  0  0  0  0  0  0  0  0  0
  129.7520  127.0180   68.8550 C   0  0  0  0  0  0  0  0  0  0  0  0
  128.5280  126.7420   69.2510 N   0  0  0  0  0  0  0  0  0  0  0  0
  128.2400  127.3410   70.3900 C   0  0  0  0  0  0  0  0  0  0  0  0
  129.2450  128.1280   70.9430 C   0  0  0  0  0  0  0  0  0  0  0  0
  130.6400  128.0720   69.9070 S   0  0  0  0  0  0  0  0  0  0  0  0
  129.6170  123.4110   62.6630 N   0  0  0  0  0  0  0  0  0  0  0  0
  127.9436  121.4174   61.9593 H   0  0  0  0  0  0  0  0  0  0  0  0
  128.1156  122.5134   60.5466 H   0  0  0  0  0  0  0  0  0  0  0  0
  128.9319  120.9133   60.5466 H   0  0  0  0  0  0  0  0  0  0  0  0
  131.2854  121.1063   60.8106 H   0  0  0  0  0  0  0  0  0  0  0  0
  131.5997  124.0924   65.9329 H   0  0  0  0  0  0  0  0  0  0  0  0
  131.9775  125.8911   65.9384 H   0  0  0  0  0  0  0  0  0  0  0  0
  130.9340  127.2610   67.2090 H   0  0  0  0  0  0  0  0  0  0  0  0
  127.2599  127.2248   70.8757 H   0  0  0  0  0  0  0  0  0  0  0  0
  129.1693  128.6939   71.8832 H   0  0  0  0  0  0  0  0  0  0  0  0
  1  2  1  0
  2  3  2  0
  3  4  1  0
  4  5  1  0
  5  6  1  0
  5  7  1  0
  5  8  1  0
  4  9  2  0
  9 10  1  0
 10 11  3  0
  9 12  1  0
 12 13  1  0
 13 14  1  0
 14 15  1  0
 15 16  2  0
 15 17  1  0
 17 18  1  0
 18 19  2  0
 19 20  1  0
 20 21  2  0
 21 22  1  0
 12 23  2  0
 23  2  1  0
 22 18  1  0
  1 24  1  0
  1 25  1  0
  1 26  1  0
  3 27  1  0
 14 28  1  0
 14 29  1  0
 17 30  1  0
 20 31  1  0
 21 32  1  0
M  END
>  <Binding energies>  (1) 
[-6.19]

>  <Ligand effiencies>  (1) 
[-0.2579166666666667]

>  <Interactions>  (1) 
["V-A:GLU:543:CD:4908, H-A:GLY:454:N:4050, H-A:TYR:484:OH:4348, H-A:ARG:545:NE:4924, V-A:ARG:545:CZ:4926, V-A:LEU:475:CD2:4259, V-B:PRO:540:CA:9855, V-A:ILE:369:CD1:3239, V-A:GLY:454:CA:4049, V-A:ILE:369:CG2:3237, V-A:ILE:369:CG1:3238, V-A:TYR:484:CZ:4347, V-A:ILE:369:CB:3236, H-A:GLU:543:OE2:4910, V-B:GLU:543:CB:9878, V-A:SER:385:C:3405, V-A:TYR:484:CE2:4346, V-B:ALA:541:CB:9864, V-B:HIS:456:CD2:9039, V-A:GLY:544:C:4912, V-A:HIS:456:CE1:4070, V-B:HIS:456:CE1:9041, H-A:ARG:545:NH2:4928, V-A:GLU:543:CB:4906, V-A:GLU:543:C:4902, V-B:PRO:540:C:9853, V-B:TYR:539:C:9839, V-A:SER:385:CA:3407, V-A:SER:385:CB:3409, H-A:ARG:545:NH1:4927"]

$$$$
2k_Grossjean_2025
     RDKit          3D

 50 50  0  0  0  0  0  0  0  0999 V2000
  133.1180  131.4310   62.5450 C   0  0  0  0  0  0  0  0  0  0  0  0
  132.0430  132.2530   62.1170 O   0  0  0  0  0  0  0  0  0  0  0  0
  131.2470  131.6600   61.0990 C   0  0  0  0  0  0  0  0  0  0  0  0
  129.8330  132.2540   61.1350 C   0  0  0  0  0  0  0  0  0  0  0  0
  129.6340  132.8990   62.3850 O   0  0  0  0  0  0  0  0  0  0  0  0
  129.1890  132.0350   63.4240 C   0  0  0  0  0  0  0  0  0  0  0  0
  127.8200  132.5290   63.9120 C   0  0  0  0  0  0  0  0  0  0  0  0
  126.9320  132.5090   62.8050 O   0  0  0  0  0  0  0  0  0  0  0  0
  126.7630  133.7540   62.1440 C   0  0  0  0  0  0  0  0  0  0  0  0
  125.8550  133.5490   60.9170 C   0  0  0  0  0  0  0  0  0  0  0  0
  124.5040  133.1090   61.2730 N   0  0  0  0  0  0  0  0  0  0  0  0
  123.7540  133.6100   62.2730 C   0  0  0  0  0  0  0  0  0  0  0  0
  124.1230  134.5370   62.9980 O   0  0  0  0  0  0  0  0  0  0  0  0
  122.3900  132.9370   62.4850 C   0  0  0  0  0  0  0  0  0  0  0  0
  122.3530  131.1350   62.1910 S   0  0  0  0  0  0  0  0  0  0  0  0
  123.8190  130.3880   62.8900 C   0  0  0  0  0  0  0  0  0  0  0  0
  123.7690  130.1270   64.2210 N   0  0  0  0  0  0  0  0  0  0  0  0
  124.8440  129.5660   64.8180 C   0  0  0  0  0  0  0  0  0  0  0  0
  124.7150  129.3170   66.3080 C   0  0  0  0  0  0  0  0  0  0  0  0
  126.0010  129.2320   64.1200 C   0  0  0  0  0  0  0  0  0  0  0  0
  126.0720  129.4850   62.7410 C   0  0  0  0  0  0  0  0  0  0  0  0
  127.3590  129.1040   61.9830 C   0  0  0  0  0  0  0  0  0  0  0  0
  128.3520  128.7470   62.7980 F   0  0  0  0  0  0  0  0  0  0  0  0
  127.1200  128.0760   61.1660 F   0  0  0  0  0  0  0  0  0  0  0  0
  127.7860  130.1400   61.2600 F   0  0  0  0  0  0  0  0  0  0  0  0
  124.9540  130.0800   62.1030 C   0  0  0  0  0  0  0  0  0  0  0  0
  124.9750  130.3700   60.6660 C   0  0  0  0  0  0  0  0  0  0  0  0
  124.9910  130.5980   59.5310 N   0  0  0  0  0  0  0  0  0  0  0  0
  133.1473  131.4086   63.6444 H   0  0  0  0  0  0  0  0  0  0  0  0
  132.9744  130.4102   62.1612 H   0  0  0  0  0  0  0  0  0  0  0  0
  134.0655  131.8371   62.1612 H   0  0  0  0  0  0  0  0  0  0  0  0
  131.7019  131.8584   60.1173 H   0  0  0  0  0  0  0  0  0  0  0  0
  131.1900  130.5745   61.2677 H   0  0  0  0  0  0  0  0  0  0  0  0
  129.7191  132.9847   60.3207 H   0  0  0  0  0  0  0  0  0  0  0  0
  129.0900  131.4529   61.0077 H   0  0  0  0  0  0  0  0  0  0  0  0
  129.0981  131.0082   63.0399 H   0  0  0  0  0  0  0  0  0  0  0  0
  129.9104  132.0397   64.2544 H   0  0  0  0  0  0  0  0  0  0  0  0
  127.4440  131.8663   64.7054 H   0  0  0  0  0  0  0  0  0  0  0  0
  127.9020  133.5470   64.3206 H   0  0  0  0  0  0  0  0  0  0  0  0
  126.2979  134.4764   62.8308 H   0  0  0  0  0  0  0  0  0  0  0  0
  127.7413  134.1409   61.8228 H   0  0  0  0  0  0  0  0  0  0  0  0
  125.7814  134.5017   60.3721 H   0  0  0  0  0  0  0  0  0  0  0  0
  126.3074  132.7580   60.3008 H   0  0  0  0  0  0  0  0  0  0  0  0
  124.1200  132.3590   60.7160 H   0  0  0  0  0  0  0  0  0  0  0  0
  122.0801  133.1179   63.5248 H   0  0  0  0  0  0  0  0  0  0  0  0
  121.7136  133.3802   61.7393 H   0  0  0  0  0  0  0  0  0  0  0  0
  125.1526  130.1617   66.8602 H   0  0  0  0  0  0  0  0  0  0  0  0
  123.6519  129.2175   66.5724 H   0  0  0  0  0  0  0  0  0  0  0  0
  125.2469  128.3911   66.5724 H   0  0  0  0  0  0  0  0  0  0  0  0
  126.8524  128.7737   64.6444 H   0  0  0  0  0  0  0  0  0  0  0  0
  1  2  1  0
  2  3  1  0
  3  4  1  0
  4  5  1  0
  5  6  1  0
  6  7  1  0
  7  8  1  0
  8  9  1  0
  9 10  1  0
 10 11  1  0
 11 12  1  0
 12 13  2  0
 12 14  1  0
 14 15  1  0
 15 16  1  0
 16 17  2  0
 17 18  1  0
 18 19  1  0
 18 20  2  0
 20 21  1  0
 21 22  1  0
 22 23  1  0
 22 24  1  0
 22 25  1  0
 21 26  2  0
 26 27  1  0
 27 28  3  0
 26 16  1  0
  1 29  1  0
  1 30  1  0
  1 31  1  0
  3 32  1  0
  3 33  1  0
  4 34  1  0
  4 35  1  0
  6 36  1  0
  6 37  1  0
  7 38  1  0
  7 39  1  0
  9 40  1  0
  9 41  1  0
 10 42  1  0
 10 43  1  0
 11 44  1  0
 14 45  1  0
 14 46  1  0
 19 47  1  0
 19 48  1  0
 19 49  1  0
 20 50  1  0
M  END
>  <Binding energies>  (1) 
[-4.66]

>  <Ligand effiencies>  (1) 
[-0.1606896551724138]

>  <Interactions>  (1) 
["V-A:GLU:543:CD:4908, V-B:ASP:366:CG:8184, V-A:ASN:362:CB:3176, V-B:ILE:369:CB:8207, V-A:PRO:540:CB:4885, V-A:TYR:539:CD1:4873, V-B:GLY:454:CA:9020, V-A:PRO:540:CA:4883, V-B:GLY:453:C:9013, V-B:ILE:369:CG2:8208, V-B:LEU:475:CD2:9230, H-B:ARG:545:NH1:9899, V-A:TYR:539:CE1:4875, H-B:GLY:454:N:9021, H-A:ALA:541:N:4891, V-B:ILE:369:CG1:8209, H-B:ARG:545:NH2:9900, V-B:GLU:543:CD:9880, V-B:HIS:456:CE1:9041, V-B:TYR:484:CZ:9318, V-B:ARG:545:CZ:9898, H-B:TYR:484:OH:9319, V-A:ALA:541:CB:4892, V-A:GLU:543:CG:4907, H-B:ARG:545:NE:9896, V-B:ILE:369:CD1:8210, V-B:ARG:545:CD:9895, V-B:ARG:545:CG:9894, V-B:TYR:484:CE2:9317"]

$$$$
3aa_Grossjean_2025
     RDKit          3D

 52 54  0  0  0  0  0  0  0  0999 V2000
  129.7030  131.6740   73.3820 C   0  0  0  0  0  0  0  0  0  0  0  0
  129.0050  130.3420   73.6750 C   0  0  0  0  0  0  0  0  0  0  0  0
  129.8180  129.2690   73.2150 O   0  0  0  0  0  0  0  0  0  0  0  0
  129.2730  128.0690   72.8910 C   0  0  0  0  0  0  0  0  0  0  0  0
  128.6750  127.3520   73.6990 O   0  0  0  0  0  0  0  0  0  0  0  0
  129.4830  127.6910   71.4520 C   0  0  0  0  0  0  0  0  0  0  0  0
  128.5270  126.9630   70.7280 C   0  0  0  0  0  0  0  0  0  0  0  0
  128.7520  126.6330   69.3940 C   0  0  0  0  0  0  0  0  0  0  0  0
  129.9290  127.0280   68.7560 C   0  0  0  0  0  0  0  0  0  0  0  0
  130.0550  126.6460   67.4050 N   0  0  0  0  0  0  0  0  0  0  0  0
  129.9550  125.4210   66.8440 C   0  0  0  0  0  0  0  0  0  0  0  0
  129.7480  124.3710   67.4540 O   0  0  0  0  0  0  0  0  0  0  0  0
  130.1320  125.3750   65.3260 C   0  0  0  0  0  0  0  0  0  0  0  0
  129.7420  123.7320   64.6500 S   0  0  0  0  0  0  0  0  0  0  0  0
  130.2130  123.7500   62.9350 C   0  0  0  0  0  0  0  0  0  0  0  0
  129.1660  123.6280   62.0840 N   0  0  0  0  0  0  0  0  0  0  0  0
  129.3850  123.6240   60.7430 C   0  0  0  0  0  0  0  0  0  0  0  0
  128.1750  123.5000   59.8670 C   0  0  0  0  0  0  0  0  0  0  0  0
  126.9310  123.9930   60.2930 C   0  0  0  0  0  0  0  0  0  0  0  0
  125.8020  123.8820   59.4850 C   0  0  0  0  0  0  0  0  0  0  0  0
  125.9040  123.2760   58.2370 C   0  0  0  0  0  0  0  0  0  0  0  0
  127.1250  122.7830   57.7910 C   0  0  0  0  0  0  0  0  0  0  0  0
  128.2520  122.8970   58.6010 C   0  0  0  0  0  0  0  0  0  0  0  0
  130.6780  123.7540   60.2260 C   0  0  0  0  0  0  0  0  0  0  0  0
  131.7800  123.8630   61.0890 C   0  0  0  0  0  0  0  0  0  0  0  0
  133.1890  123.9920   60.4810 C   0  0  0  0  0  0  0  0  0  0  0  0
  133.9400  122.9070   60.6800 F   0  0  0  0  0  0  0  0  0  0  0  0
  133.1070  124.1820   59.1640 F   0  0  0  0  0  0  0  0  0  0  0  0
  133.8270  125.0280   61.0280 F   0  0  0  0  0  0  0  0  0  0  0  0
  131.5480  123.8500   62.4860 C   0  0  0  0  0  0  0  0  0  0  0  0
  132.6650  123.9030   63.4340 C   0  0  0  0  0  0  0  0  0  0  0  0
  133.5470  123.9450   64.1820 N   0  0  0  0  0  0  0  0  0  0  0  0
  130.8950  127.7450   69.4780 C   0  0  0  0  0  0  0  0  0  0  0  0
  130.6690  128.0720   70.8110 C   0  0  0  0  0  0  0  0  0  0  0  0
  129.9621  132.1685   74.3298 H   0  0  0  0  0  0  0  0  0  0  0  0
  130.6196  131.4881   72.8029 H   0  0  0  0  0  0  0  0  0  0  0  0
  129.0285  132.3218   72.8029 H   0  0  0  0  0  0  0  0  0  0  0  0
  128.8453  130.2424   74.7588 H   0  0  0  0  0  0  0  0  0  0  0  0
  128.0349  130.3149   73.1572 H   0  0  0  0  0  0  0  0  0  0  0  0
  127.5929  126.6506   71.2177 H   0  0  0  0  0  0  0  0  0  0  0  0
  127.9969  126.0570   68.8391 H   0  0  0  0  0  0  0  0  0  0  0  0
  130.3020  127.4020   66.7830 H   0  0  0  0  0  0  0  0  0  0  0  0
  129.4623  126.1171   64.8668 H   0  0  0  0  0  0  0  0  0  0  0  0
  131.1847  125.5976   65.0976 H   0  0  0  0  0  0  0  0  0  0  0  0
  126.8470  124.4737   61.2789 H   0  0  0  0  0  0  0  0  0  0  0  0
  124.8338  124.2719   59.8322 H   0  0  0  0  0  0  0  0  0  0  0  0
  125.0126  123.1863   57.5988 H   0  0  0  0  0  0  0  0  0  0  0  0
  127.2005  122.3052   56.8031 H   0  0  0  0  0  0  0  0  0  0  0  0
  129.2173  122.5088   58.2438 H   0  0  0  0  0  0  0  0  0  0  0  0
  130.8324  123.7709   59.1370 H   0  0  0  0  0  0  0  0  0  0  0  0
  131.8324  128.0490   68.9892 H   0  0  0  0  0  0  0  0  0  0  0  0
  131.4308  128.6366   71.3686 H   0  0  0  0  0  0  0  0  0  0  0  0
  1  2  1  0
  2  3  1  0
  3  4  1  0
  4  5  2  0
  4  6  1  0
  6  7  2  0
  7  8  1  0
  8  9  2  0
  9 10  1  0
 10 11  1  0
 11 12  2  0
 11 13  1  0
 13 14  1  0
 14 15  1  0
 15 16  2  0
 16 17  1  0
 17 18  1  0
 18 19  2  0
 19 20  1  0
 20 21  2  0
 21 22  1  0
 22 23  2  0
 17 24  2  0
 24 25  1  0
 25 26  1  0
 26 27  1  0
 26 28  1  0
 26 29  1  0
 25 30  2  0
 30 31  1  0
 31 32  3  0
  9 33  1  0
 33 34  2  0
 34  6  1  0
 30 15  1  0
 23 18  1  0
  1 35  1  0
  1 36  1  0
  1 37  1  0
  2 38  1  0
  2 39  1  0
  7 40  1  0
  8 41  1  0
 10 42  1  0
 13 43  1  0
 13 44  1  0
 19 45  1  0
 20 46  1  0
 21 47  1  0
 22 48  1  0
 23 49  1  0
 24 50  1  0
 33 51  1  0
 34 52  1  0
M  END
>  <Binding energies>  (1) 
[-8.63]

>  <Ligand effiencies>  (1) 
[-0.24657142857142858]

>  <Interactions>  (1) 
["V-B:PRO:540:N:9856, V-B:TYR:539:CD2:9846, V-A:GLU:543:CD:4908, H-A:GLY:454:N:4050, V-B:PRO:540:CB:9857, H-A:TYR:484:OH:4348, V-B:TYR:539:CE2:9848, V-B:TYR:539:CZ:9849, V-B:PRO:540:CA:9855, V-A:ASP:366:CB:3212, V-A:ILE:369:CD1:3239, V-A:ASP:366:CG:3213, V-A:ILE:369:CG2:3237, V-A:ILE:369:CB:3236, H-A:GLU:543:OE2:4910, V-B:GLU:543:CB:9878, V-B:GLU:543:CG:9879, V-B:GLU:543:CD:9880, V-A:ASP:366:CA:3210, V-B:HIS:456:CD2:9039, V-A:GLY:544:C:4912, V-A:LYS:547:CE:4950, V-A:HIS:456:CE1:4070, H-B:LYS:547:NZ:9923, V-B:HIS:456:CE1:9041, V-B:GLU:543:C:9874, H-A:LYS:547:NZ:4951, H-A:GLU:543:OE1:4909, V-A:GLU:543:CB:4906, V-A:GLU:543:C:4902, V-B:TYR:539:CG:9844, V-B:TYR:539:C:9839, V-A:GLY:544:CA:4914"]

$$$$
3ab_Grossjean_2025
     RDKit          3D

 49 51  0  0  0  0  0  0  0  0999 V2000
  127.5280  128.5340   74.0920 C   0  0  0  0  0  0  0  0  0  0  0  0
  128.4940  127.8420   73.3130 O   0  0  0  0  0  0  0  0  0  0  0  0
  129.4060  128.5170   72.5690 C   0  0  0  0  0  0  0  0  0  0  0  0
  130.0610  129.4710   72.9970 O   0  0  0  0  0  0  0  0  0  0  0  0
  129.5410  127.9860   71.1710 C   0  0  0  0  0  0  0  0  0  0  0  0
  128.5130  127.2610   70.5480 C   0  0  0  0  0  0  0  0  0  0  0  0
  128.6660  126.7820   69.2510 C   0  0  0  0  0  0  0  0  0  0  0  0
  129.8580  127.0200   68.5490 C   0  0  0  0  0  0  0  0  0  0  0  0
  130.1190  126.5880   67.2340 N   0  0  0  0  0  0  0  0  0  0  0  0
  129.9880  125.3640   66.6820 C   0  0  0  0  0  0  0  0  0  0  0  0
  129.6090  124.3510   67.2700 O   0  0  0  0  0  0  0  0  0  0  0  0
  130.3550  125.2710   65.1990 C   0  0  0  0  0  0  0  0  0  0  0  0
  129.7560  123.7310   64.4410 S   0  0  0  0  0  0  0  0  0  0  0  0
  130.2100  123.7700   62.7200 C   0  0  0  0  0  0  0  0  0  0  0  0
  129.1560  123.6440   61.8790 N   0  0  0  0  0  0  0  0  0  0  0  0
  129.3570  123.6620   60.5360 C   0  0  0  0  0  0  0  0  0  0  0  0
  128.1370  123.5200   59.6740 C   0  0  0  0  0  0  0  0  0  0  0  0
  128.2150  122.8990   58.4170 C   0  0  0  0  0  0  0  0  0  0  0  0
  127.0870  122.7630   57.6130 C   0  0  0  0  0  0  0  0  0  0  0  0
  125.8600  123.2490   58.0560 C   0  0  0  0  0  0  0  0  0  0  0  0
  125.7570  123.8710   59.2960 C   0  0  0  0  0  0  0  0  0  0  0  0
  126.8880  124.0050   60.0960 C   0  0  0  0  0  0  0  0  0  0  0  0
  130.6460  123.7900   60.0060 C   0  0  0  0  0  0  0  0  0  0  0  0
  131.7550  123.9020   60.8570 C   0  0  0  0  0  0  0  0  0  0  0  0
  133.1580  124.0350   60.2330 C   0  0  0  0  0  0  0  0  0  0  0  0
  133.1250  124.1420   58.9030 F   0  0  0  0  0  0  0  0  0  0  0  0
  133.7710  125.1220   60.7050 F   0  0  0  0  0  0  0  0  0  0  0  0
  133.8920  122.9620   60.5320 F   0  0  0  0  0  0  0  0  0  0  0  0
  131.5400  123.8850   62.2570 C   0  0  0  0  0  0  0  0  0  0  0  0
  132.6690  123.9420   63.1900 C   0  0  0  0  0  0  0  0  0  0  0  0
  133.5620  123.9880   63.9240 N   0  0  0  0  0  0  0  0  0  0  0  0
  130.8800  127.7450   69.1630 C   0  0  0  0  0  0  0  0  0  0  0  0
  130.7250  128.2220   70.4610 C   0  0  0  0  0  0  0  0  0  0  0  0
  127.7409  128.3815   75.1604 H   0  0  0  0  0  0  0  0  0  0  0  0
  127.5706  129.6083   73.8594 H   0  0  0  0  0  0  0  0  0  0  0  0
  126.5246  128.1480   73.8594 H   0  0  0  0  0  0  0  0  0  0  0  0
  127.5760  127.0695   71.0915 H   0  0  0  0  0  0  0  0  0  0  0  0
  127.8518  126.2160   68.7749 H   0  0  0  0  0  0  0  0  0  0  0  0
  130.4920  127.3090   66.6330 H   0  0  0  0  0  0  0  0  0  0  0  0
  129.9076  126.1246   64.6688 H   0  0  0  0  0  0  0  0  0  0  0  0
  131.4521  125.2826   65.1204 H   0  0  0  0  0  0  0  0  0  0  0  0
  129.1825  122.5141   58.0623 H   0  0  0  0  0  0  0  0  0  0  0  0
  127.1648  122.2733   56.6311 H   0  0  0  0  0  0  0  0  0  0  0  0
  124.9674  123.1406   57.4223 H   0  0  0  0  0  0  0  0  0  0  0  0
  124.7863  124.2551   59.6426 H   0  0  0  0  0  0  0  0  0  0  0  0
  126.8024  124.4990   61.0751 H   0  0  0  0  0  0  0  0  0  0  0  0
  130.7900  123.8028   58.9155 H   0  0  0  0  0  0  0  0  0  0  0  0
  131.8147  127.9408   68.6171 H   0  0  0  0  0  0  0  0  0  0  0  0
  131.5399  128.7897   70.9338 H   0  0  0  0  0  0  0  0  0  0  0  0
  1  2  1  0
  2  3  1  0
  3  4  2  0
  3  5  1  0
  5  6  2  0
  6  7  1  0
  7  8  2  0
  8  9  1  0
  9 10  1  0
 10 11  2  0
 10 12  1  0
 12 13  1  0
 13 14  1  0
 14 15  2  0
 15 16  1  0
 16 17  1  0
 17 18  2  0
 18 19  1  0
 19 20  2  0
 20 21  1  0
 21 22  2  0
 16 23  2  0
 23 24  1  0
 24 25  1  0
 25 26  1  0
 25 27  1  0
 25 28  1  0
 24 29  2  0
 29 30  1  0
 30 31  3  0
  8 32  1  0
 32 33  2  0
 33  5  1  0
 29 14  1  0
 22 17  1  0
  1 34  1  0
  1 35  1  0
  1 36  1  0
  6 37  1  0
  7 38  1  0
  9 39  1  0
 12 40  1  0
 12 41  1  0
 18 42  1  0
 19 43  1  0
 20 44  1  0
 21 45  1  0
 22 46  1  0
 23 47  1  0
 32 48  1  0
 33 49  1  0
M  END
>  <Binding energies>  (1) 
[-8.56]

>  <Ligand effiencies>  (1) 
[-0.25176470588235295]

>  <Interactions>  (1) 
["V-B:PRO:540:N:9856, V-B:TYR:539:CD2:9846, V-A:GLU:543:CD:4908, H-A:GLY:454:N:4050, V-B:PRO:540:CB:9857, V-B:PRO:540:CD:9859, H-A:TYR:484:OH:4348, V-B:TYR:539:CE2:9848, V-B:TYR:539:CZ:9849, V-B:PRO:540:CA:9855, V-A:ASP:366:CB:3212, V-A:ILE:369:CD1:3239, V-A:ASP:366:CG:3213, V-A:ILE:369:CG2:3237, V-A:ILE:369:CB:3236, H-A:GLU:543:OE2:4910, V-B:GLU:543:CB:9878, V-B:GLU:543:CG:9879, V-A:ASP:366:CA:3210, V-B:HIS:456:CD2:9039, V-A:GLY:544:C:4912, V-B:HIS:456:CG:9037, V-A:HIS:456:CE1:4070, H-B:LYS:547:NZ:9923, V-B:HIS:456:CE1:9041, V-B:GLU:543:C:9874, H-A:LYS:547:NZ:4951, H-A:GLU:543:OE1:4909, V-A:GLU:543:CB:4906, V-A:GLU:543:C:4902, V-B:TYR:539:CG:9844, V-B:TYR:539:C:9839"]

$$$$
3ac_Grossjean_2025
     RDKit          3D

 47 49  0  0  0  0  0  0  0  0999 V2000
  123.4940  136.5620   60.6190 C   0  0  0  0  0  0  0  0  0  0  0  0
  124.7860  135.9690   60.7040 O   0  0  0  0  0  0  0  0  0  0  0  0
  124.9550  134.8240   61.4590 C   0  0  0  0  0  0  0  0  0  0  0  0
  126.2160  134.2300   61.4140 C   0  0  0  0  0  0  0  0  0  0  0  0
  126.4820  133.0760   62.1450 C   0  0  0  0  0  0  0  0  0  0  0  0
  125.4840  132.4930   62.9270 C   0  0  0  0  0  0  0  0  0  0  0  0
  125.8530  131.3400   63.6460 N   0  0  0  0  0  0  0  0  0  0  0  0
  125.0690  130.3590   64.1430 C   0  0  0  0  0  0  0  0  0  0  0  0
  123.8470  130.2870   64.0060 O   0  0  0  0  0  0  0  0  0  0  0  0
  125.7970  129.2690   64.9300 C   0  0  0  0  0  0  0  0  0  0  0  0
  127.5120  129.7310   65.3210 S   0  0  0  0  0  0  0  0  0  0  0  0
  128.3380  128.3180   66.0270 C   0  0  0  0  0  0  0  0  0  0  0  0
  128.3790  128.3450   67.3810 N   0  0  0  0  0  0  0  0  0  0  0  0
  128.9720  127.3300   68.0600 C   0  0  0  0  0  0  0  0  0  0  0  0
  128.9800  127.4400   69.5560 C   0  0  0  0  0  0  0  0  0  0  0  0
  127.8840  126.9960   70.3150 C   0  0  0  0  0  0  0  0  0  0  0  0
  127.8880  127.0900   71.7040 C   0  0  0  0  0  0  0  0  0  0  0  0
  128.9910  127.6330   72.3550 C   0  0  0  0  0  0  0  0  0  0  0  0
  130.0860  128.0850   71.6280 C   0  0  0  0  0  0  0  0  0  0  0  0
  130.0780  127.9890   70.2390 C   0  0  0  0  0  0  0  0  0  0  0  0
  129.5610  126.2600   67.3790 C   0  0  0  0  0  0  0  0  0  0  0  0
  129.5530  126.2190   65.9780 C   0  0  0  0  0  0  0  0  0  0  0  0
  130.2190  125.0240   65.2680 C   0  0  0  0  0  0  0  0  0  0  0  0
  130.4930  124.0160   66.0980 F   0  0  0  0  0  0  0  0  0  0  0  0
  129.4150  124.5460   64.3160 F   0  0  0  0  0  0  0  0  0  0  0  0
  131.3660  125.4110   64.7090 F   0  0  0  0  0  0  0  0  0  0  0  0
  128.9380  127.2830   65.2720 C   0  0  0  0  0  0  0  0  0  0  0  0
  128.9720  127.3230   63.8090 C   0  0  0  0  0  0  0  0  0  0  0  0
  129.0000  127.3540   62.6520 N   0  0  0  0  0  0  0  0  0  0  0  0
  124.2140  133.0890   62.9830 C   0  0  0  0  0  0  0  0  0  0  0  0
  123.9520  134.2430   62.2510 C   0  0  0  0  0  0  0  0  0  0  0  0
  123.1051  136.7405   61.6324 H   0  0  0  0  0  0  0  0  0  0  0  0
  123.5641  137.5180   60.0795 H   0  0  0  0  0  0  0  0  0  0  0  0
  122.8148  135.8855   60.0795 H   0  0  0  0  0  0  0  0  0  0  0  0
  127.0075  134.6777   60.7951 H   0  0  0  0  0  0  0  0  0  0  0  0
  127.4830  132.6216   62.1062 H   0  0  0  0  0  0  0  0  0  0  0  0
  126.8490  131.2180   63.7570 H   0  0  0  0  0  0  0  0  0  0  0  0
  125.2554  129.0898   65.8705 H   0  0  0  0  0  0  0  0  0  0  0  0
  125.8257  128.3642   64.3052 H   0  0  0  0  0  0  0  0  0  0  0  0
  127.0093  126.5675   69.8038 H   0  0  0  0  0  0  0  0  0  0  0  0
  127.0229  126.7365   72.2841 H   0  0  0  0  0  0  0  0  0  0  0  0
  128.9966  127.7051   73.4526 H   0  0  0  0  0  0  0  0  0  0  0  0
  130.9545  128.5163   72.1473 H   0  0  0  0  0  0  0  0  0  0  0  0
  130.9458  128.3490   69.6669 H   0  0  0  0  0  0  0  0  0  0  0  0
  130.0338  125.4450   67.9467 H   0  0  0  0  0  0  0  0  0  0  0  0
  123.4250  132.6431   63.6064 H   0  0  0  0  0  0  0  0  0  0  0  0
  122.9535  134.7026   62.2931 H   0  0  0  0  0  0  0  0  0  0  0  0
  1  2  1  0
  2  3  1  0
  3  4  2  0
  4  5  1  0
  5  6  2  0
  6  7  1  0
  7  8  1  0
  8  9  2  0
  8 10  1  0
 10 11  1  0
 11 12  1  0
 12 13  2  0
 13 14  1  0
 14 15  1  0
 15 16  2  0
 16 17  1  0
 17 18  2  0
 18 19  1  0
 19 20  2  0
 14 21  2  0
 21 22  1  0
 22 23  1  0
 23 24  1  0
 23 25  1  0
 23 26  1  0
 22 27  2  0
 27 28  1  0
 28 29  3  0
  6 30  1  0
 30 31  2  0
 31  3  1  0
 27 12  1  0
 20 15  1  0
  1 32  1  0
  1 33  1  0
  1 34  1  0
  4 35  1  0
  5 36  1  0
  7 37  1  0
 10 38  1  0
 10 39  1  0
 16 40  1  0
 17 41  1  0
 18 42  1  0
 19 43  1  0
 20 44  1  0
 21 45  1  0
 30 46  1  0
 31 47  1  0
M  END
>  <Binding energies>  (1) 
[-7.58]

>  <Ligand effiencies>  (1) 
[-0.236875]

>  <Interactions>  (1) 
["V-A:GLU:543:CD:4908, V-A:TYR:539:CD1:4873, V-B:GLY:454:CA:9020, V-B:ILE:369:CG2:8208, V-B:LEU:475:CD2:9230, V-A:TYR:539:CE1:4875, H-B:GLY:454:N:9021, H-B:ARG:545:NH2:9900, V-A:TYR:484:CZ:4347, V-B:GLU:543:CB:9878, V-B:GLU:543:CG:9879, V-A:TYR:484:CE2:4346, V-B:GLU:543:CD:9880, V-B:HIS:456:CD2:9039, V-A:GLY:544:C:4912, V-B:GLY:544:C:9884, V-A:HIS:456:CE1:4070, V-B:HIS:456:CE1:9041, V-B:GLU:543:C:9874, V-A:GLU:543:CB:4906, V-A:GLU:543:C:4902, V-B:ARG:545:CZ:9898, H-B:TYR:484:OH:9319, V-A:GLU:543:CG:4907, V-B:SER:385:CB:8380, V-B:SER:385:CA:8378, V-B:LEU:373:CD1:8251"]

$$$$
3ad_Grossjean_2025
     RDKit          3D

 43 45  0  0  0  0  0  0  0  0999 V2000
  129.3680  126.8750   63.2010 N   0  0  0  0  0  0  0  0  0  0  0  0
  129.2190  126.9800   64.3440 C   0  0  0  0  0  0  0  0  0  0  0  0
  129.0280  127.1170   65.7920 C   0  0  0  0  0  0  0  0  0  0  0  0
  128.2480  128.1730   66.3220 C   0  0  0  0  0  0  0  0  0  0  0  0
  127.5250  129.2020   65.4330 C   0  0  0  0  0  0  0  0  0  0  0  0
  127.3570  128.7770   64.1790 F   0  0  0  0  0  0  0  0  0  0  0  0
  126.3160  129.4660   65.9340 F   0  0  0  0  0  0  0  0  0  0  0  0
  128.2270  130.3350   65.3790 F   0  0  0  0  0  0  0  0  0  0  0  0
  128.1350  128.2860   67.7170 C   0  0  0  0  0  0  0  0  0  0  0  0
  128.7840  127.3750   68.5560 C   0  0  0  0  0  0  0  0  0  0  0  0
  128.7090  127.4590   70.0520 C   0  0  0  0  0  0  0  0  0  0  0  0
  129.7680  128.0070   70.7930 C   0  0  0  0  0  0  0  0  0  0  0  0
  129.7040  128.0890   72.1810 C   0  0  0  0  0  0  0  0  0  0  0  0
  128.5760  127.6220   72.8490 C   0  0  0  0  0  0  0  0  0  0  0  0
  127.5130  127.0770   72.1380 C   0  0  0  0  0  0  0  0  0  0  0  0
  127.5800  126.9980   70.7490 C   0  0  0  0  0  0  0  0  0  0  0  0
  129.5350  126.3680   68.0420 N   0  0  0  0  0  0  0  0  0  0  0  0
  129.6420  126.2260   66.7000 C   0  0  0  0  0  0  0  0  0  0  0  0
  130.6530  124.8470   66.2070 S   0  0  0  0  0  0  0  0  0  0  0  0
  132.3230  125.4910   65.8850 C   0  0  0  0  0  0  0  0  0  0  0  0
  132.8510  125.0670   64.5130 C   0  0  0  0  0  0  0  0  0  0  0  0
  133.8730  124.3820   64.4510 O   0  0  0  0  0  0  0  0  0  0  0  0
  132.1280  125.4940   63.4560 N   0  0  0  0  0  0  0  0  0  0  0  0
  132.3270  125.2740   62.0810 C   0  0  0  0  0  0  0  0  0  0  0  0
  133.5200  124.6320   61.7360 C   0  0  0  0  0  0  0  0  0  0  0  0
  133.8170  124.3700   60.4010 C   0  0  0  0  0  0  0  0  0  0  0  0
  132.9220  124.7540   59.4070 C   0  0  0  0  0  0  0  0  0  0  0  0
  131.7340  125.4000   59.7350 C   0  0  0  0  0  0  0  0  0  0  0  0
  131.4320  125.6650   61.0690 C   0  0  0  0  0  0  0  0  0  0  0  0
  127.5321  129.0964   68.1526 H   0  0  0  0  0  0  0  0  0  0  0  0
  130.6616  128.3770   70.2689 H   0  0  0  0  0  0  0  0  0  0  0  0
  130.5418  128.5213   72.7477 H   0  0  0  0  0  0  0  0  0  0  0  0
  128.5252  127.6845   73.9460 H   0  0  0  0  0  0  0  0  0  0  0  0
  126.6230  126.7098   72.6700 H   0  0  0  0  0  0  0  0  0  0  0  0
  126.7361  126.5681   70.1895 H   0  0  0  0  0  0  0  0  0  0  0  0
  132.2937  126.5897   65.9293 H   0  0  0  0  0  0  0  0  0  0  0  0
  132.9977  125.0776   66.6491 H   0  0  0  0  0  0  0  0  0  0  0  0
  131.3440  126.0940   63.6680 H   0  0  0  0  0  0  0  0  0  0  0  0
  134.2276  124.3323   62.5231 H   0  0  0  0  0  0  0  0  0  0  0  0
  134.7551  123.8617   60.1333 H   0  0  0  0  0  0  0  0  0  0  0  0
  133.1557  124.5450   58.3526 H   0  0  0  0  0  0  0  0  0  0  0  0
  131.0340  125.7012   58.9418 H   0  0  0  0  0  0  0  0  0  0  0  0
  130.4953  126.1791   61.3303 H   0  0  0  0  0  0  0  0  0  0  0  0
  1  2  3  0
  2  3  1  0
  3  4  2  0
  4  5  1  0
  5  6  1  0
  5  7  1  0
  5  8  1  0
  4  9  1  0
  9 10  2  0
 10 11  1  0
 11 12  2  0
 12 13  1  0
 13 14  2  0
 14 15  1  0
 15 16  2  0
 10 17  1  0
 17 18  2  0
 18 19  1  0
 19 20  1  0
 20 21  1  0
 21 22  2  0
 21 23  1  0
 23 24  1  0
 24 25  2  0
 25 26  1  0
 26 27  2  0
 27 28  1  0
 28 29  2  0
 18  3  1  0
 29 24  1  0
 16 11  1  0
  9 30  1  0
 12 31  1  0
 13 32  1  0
 14 33  1  0
 15 34  1  0
 16 35  1  0
 20 36  1  0
 20 37  1  0
 23 38  1  0
 25 39  1  0
 26 40  1  0
 27 41  1  0
 28 42  1  0
 29 43  1  0
M  END
>  <Binding energies>  (1) 
[-7.75]

>  <Ligand effiencies>  (1) 
[-0.25833333333333336]

>  <Interactions>  (1) 
["V-A:GLU:543:CD:4908, H-A:GLY:454:N:4050, H-A:TYR:484:OH:4348, V-B:TYR:539:CE2:9848, V-A:ARG:545:CZ:4926, V-A:ASP:366:CB:3212, V-A:ILE:369:CD1:3239, V-A:ASP:366:CG:3213, V-A:ILE:369:CG2:3237, H-A:GLU:543:OE2:4910, V-B:GLU:543:CB:9878, V-B:GLU:543:CG:9879, V-B:GLU:543:CD:9880, V-A:ASP:366:CA:3210, V-B:HIS:456:CD2:9039, V-B:GLY:544:C:9884, V-A:HIS:456:CE1:4070, V-B:HIS:456:CE1:9041, V-B:GLU:543:C:9874, H-A:GLU:543:OE1:4909, V-A:GLU:543:CB:4906, V-B:TYR:484:CZ:9318, V-A:GLU:543:CG:4907, V-B:TYR:484:CE2:9317"]

$$$$
3af_Grossjean_2025
     RDKit          3D

 42 44  0  0  0  0  0  0  0  0999 V2000
  129.3320  126.9090   63.2150 N   0  0  0  0  0  0  0  0  0  0  0  0
  129.1940  126.9990   64.3610 C   0  0  0  0  0  0  0  0  0  0  0  0
  129.0180  127.1130   65.8110 C   0  0  0  0  0  0  0  0  0  0  0  0
  128.2320  128.1540   66.3630 C   0  0  0  0  0  0  0  0  0  0  0  0
  127.4850  129.1840   65.4930 C   0  0  0  0  0  0  0  0  0  0  0  0
  127.2980  128.7650   64.2390 F   0  0  0  0  0  0  0  0  0  0  0  0
  126.2840  129.4350   66.0160 F   0  0  0  0  0  0  0  0  0  0  0  0
  128.1780  130.3220   65.4330 F   0  0  0  0  0  0  0  0  0  0  0  0
  128.1380  128.2550   67.7590 C   0  0  0  0  0  0  0  0  0  0  0  0
  128.8100  127.3450   68.5810 C   0  0  0  0  0  0  0  0  0  0  0  0
  128.7600  127.4180   70.0780 C   0  0  0  0  0  0  0  0  0  0  0  0
  129.8470  127.9210   70.8090 C   0  0  0  0  0  0  0  0  0  0  0  0
  129.8050  127.9940   72.1990 C   0  0  0  0  0  0  0  0  0  0  0  0
  128.6710  127.5630   72.8770 C   0  0  0  0  0  0  0  0  0  0  0  0
  127.5780  127.0630   72.1770 C   0  0  0  0  0  0  0  0  0  0  0  0
  127.6240  126.9930   70.7870 C   0  0  0  0  0  0  0  0  0  0  0  0
  129.5650  126.3510   68.0480 N   0  0  0  0  0  0  0  0  0  0  0  0
  129.6530  126.2190   66.7020 C   0  0  0  0  0  0  0  0  0  0  0  0
  130.6740  124.8510   66.1920 S   0  0  0  0  0  0  0  0  0  0  0  0
  132.3460  125.4870   65.8660 C   0  0  0  0  0  0  0  0  0  0  0  0
  132.8520  125.0750   64.4840 C   0  0  0  0  0  0  0  0  0  0  0  0
  133.8720  124.3920   64.3990 O   0  0  0  0  0  0  0  0  0  0  0  0
  132.1140  125.5180   63.4430 N   0  0  0  0  0  0  0  0  0  0  0  0
  132.3070  125.3270   62.0610 C   0  0  0  0  0  0  0  0  0  0  0  0
  133.1960  124.4080   61.4740 C   0  0  0  0  0  0  0  0  0  0  0  0
  133.2870  124.3260   60.0830 C   0  0  0  0  0  0  0  0  0  0  0  0
  132.4850  125.1660   59.3100 C   0  0  0  0  0  0  0  0  0  0  0  0
  131.6200  126.0600   59.8500 N   0  0  0  0  0  0  0  0  0  0  0  0
  131.5430  126.1280   61.2040 C   0  0  0  0  0  0  0  0  0  0  0  0
  127.5321  129.0548   68.2097 H   0  0  0  0  0  0  0  0  0  0  0  0
  130.7463  128.2630   70.2758 H   0  0  0  0  0  0  0  0  0  0  0  0
  130.6654  128.3910   72.7577 H   0  0  0  0  0  0  0  0  0  0  0  0
  128.6376  127.6177   73.9751 H   0  0  0  0  0  0  0  0  0  0  0  0
  126.6822  126.7247   72.7184 H   0  0  0  0  0  0  0  0  0  0  0  0
  126.7576  126.5989   70.2356 H   0  0  0  0  0  0  0  0  0  0  0  0
  132.3267  126.5852   65.9250 H   0  0  0  0  0  0  0  0  0  0  0  0
  133.0258  125.0618   66.6191 H   0  0  0  0  0  0  0  0  0  0  0  0
  131.2980  126.0630   63.6760 H   0  0  0  0  0  0  0  0  0  0  0  0
  133.8164  123.7572   62.1077 H   0  0  0  0  0  0  0  0  0  0  0  0
  133.9768  123.6138   59.6066 H   0  0  0  0  0  0  0  0  0  0  0  0
  132.5575  125.1003   58.2144 H   0  0  0  0  0  0  0  0  0  0  0  0
  130.8438  126.8502   61.6508 H   0  0  0  0  0  0  0  0  0  0  0  0
  1  2  3  0
  2  3  1  0
  3  4  2  0
  4  5  1  0
  5  6  1  0
  5  7  1  0
  5  8  1  0
  4  9  1  0
  9 10  2  0
 10 11  1  0
 11 12  2  0
 12 13  1  0
 13 14  2  0
 14 15  1  0
 15 16  2  0
 10 17  1  0
 17 18  2  0
 18 19  1  0
 19 20  1  0
 20 21  1  0
 21 22  2  0
 21 23  1  0
 23 24  1  0
 24 25  2  0
 25 26  1  0
 26 27  2  0
 27 28  1  0
 28 29  2  0
 18  3  1  0
 29 24  1  0
 16 11  1  0
  9 30  1  0
 12 31  1  0
 13 32  1  0
 14 33  1  0
 15 34  1  0
 16 35  1  0
 20 36  1  0
 20 37  1  0
 23 38  1  0
 25 39  1  0
 26 40  1  0
 27 41  1  0
 29 42  1  0
M  END
>  <Binding energies>  (1) 
[-7.37]

>  <Ligand effiencies>  (1) 
[-0.24566666666666667]

>  <Interactions>  (1) 
["V-A:GLU:543:CD:4908, H-A:GLY:454:N:4050, H-A:TYR:484:OH:4348, V-A:ARG:545:CZ:4926, V-A:ASP:366:CB:3212, V-A:ASP:366:CG:3213, H-A:GLU:543:OE2:4910, V-B:GLU:543:CB:9878, V-B:GLU:543:CG:9879, V-B:GLU:543:CD:9880, V-B:HIS:456:CD2:9039, V-B:GLY:544:C:9884, V-A:HIS:456:CE1:4070, V-B:LYS:547:CE:9922, V-B:HIS:456:CE1:9041, V-B:GLU:543:C:9874, H-A:GLU:543:OE1:4909, V-A:GLU:543:CB:4906, V-B:TYR:484:CZ:9318, V-A:GLU:543:CG:4907, V-B:TYR:484:CE2:9317"]

$$$$
3ag_Grossjean_2025
     RDKit          3D

 46 48  0  0  0  0  0  0  0  0999 V2000
  129.1980  126.8470   63.3390 N   0  0  0  0  0  0  0  0  0  0  0  0
  129.1140  126.9570   64.4890 C   0  0  0  0  0  0  0  0  0  0  0  0
  129.0060  127.0980   65.9440 C   0  0  0  0  0  0  0  0  0  0  0  0
  128.2480  128.1490   66.5150 C   0  0  0  0  0  0  0  0  0  0  0  0
  127.4520  129.1580   65.6640 C   0  0  0  0  0  0  0  0  0  0  0  0
  127.3400  128.7840   64.3880 F   0  0  0  0  0  0  0  0  0  0  0  0
  126.2200  129.2920   66.1540 F   0  0  0  0  0  0  0  0  0  0  0  0
  128.0550  130.3480   65.6790 F   0  0  0  0  0  0  0  0  0  0  0  0
  128.2190  128.2730   67.9120 C   0  0  0  0  0  0  0  0  0  0  0  0
  128.9380  127.3820   68.7160 C   0  0  0  0  0  0  0  0  0  0  0  0
  128.9450  127.4700   70.2120 C   0  0  0  0  0  0  0  0  0  0  0  0
  130.0560  127.9920   70.8940 C   0  0  0  0  0  0  0  0  0  0  0  0
  130.0690  128.0770   72.2840 C   0  0  0  0  0  0  0  0  0  0  0  0
  128.9680  127.6380   73.0130 C   0  0  0  0  0  0  0  0  0  0  0  0
  127.8560  127.1140   72.3610 C   0  0  0  0  0  0  0  0  0  0  0  0
  127.8470  127.0310   70.9720 C   0  0  0  0  0  0  0  0  0  0  0  0
  129.6540  126.3680   68.1650 N   0  0  0  0  0  0  0  0  0  0  0  0
  129.6800  126.2170   66.8190 C   0  0  0  0  0  0  0  0  0  0  0  0
  130.6630  124.8370   66.2770 S   0  0  0  0  0  0  0  0  0  0  0  0
  132.3380  125.4620   65.9470 C   0  0  0  0  0  0  0  0  0  0  0  0
  132.8110  125.1270   64.5320 C   0  0  0  0  0  0  0  0  0  0  0  0
  133.8640  124.5080   64.3660 O   0  0  0  0  0  0  0  0  0  0  0  0
  132.0200  125.5360   63.5250 N   0  0  0  0  0  0  0  0  0  0  0  0
  132.2610  125.2930   62.1030 C   0  0  0  0  0  0  0  0  0  0  0  0
  132.5670  123.8380   61.7640 C   0  0  0  0  0  0  0  0  0  0  0  0
  131.5210  122.9550   61.4840 C   0  0  0  0  0  0  0  0  0  0  0  0
  131.7980  121.6330   61.1450 C   0  0  0  0  0  0  0  0  0  0  0  0
  133.1210  121.2010   61.0780 C   0  0  0  0  0  0  0  0  0  0  0  0
  134.1700  122.0800   61.3410 C   0  0  0  0  0  0  0  0  0  0  0  0
  133.8930  123.4020   61.6800 C   0  0  0  0  0  0  0  0  0  0  0  0
  127.6277  129.0751   68.3778 H   0  0  0  0  0  0  0  0  0  0  0  0
  130.9290  128.3389   70.3218 H   0  0  0  0  0  0  0  0  0  0  0  0
  130.9463  128.4896   72.8037 H   0  0  0  0  0  0  0  0  0  0  0  0
  128.9768  127.7056   74.1109 H   0  0  0  0  0  0  0  0  0  0  0  0
  126.9881  126.7670   72.9409 H   0  0  0  0  0  0  0  0  0  0  0  0
  126.9664  126.6151   70.4605 H   0  0  0  0  0  0  0  0  0  0  0  0
  132.3392  126.5549   66.0715 H   0  0  0  0  0  0  0  0  0  0  0  0
  133.0251  124.9776   66.6564 H   0  0  0  0  0  0  0  0  0  0  0  0
  131.1690  126.0300   63.7520 H   0  0  0  0  0  0  0  0  0  0  0  0
  131.3640  125.5969   61.5436 H   0  0  0  0  0  0  0  0  0  0  0  0
  133.1513  125.8773   61.8274 H   0  0  0  0  0  0  0  0  0  0  0  0
  130.4789  123.3040   61.5313 H   0  0  0  0  0  0  0  0  0  0  0  0
  130.9765  120.9334   60.9312 H   0  0  0  0  0  0  0  0  0  0  0  0
  133.3397  120.1556   60.8149 H   0  0  0  0  0  0  0  0  0  0  0  0
  135.2116  121.7313   61.2811 H   0  0  0  0  0  0  0  0  0  0  0  0
  134.7166  124.1027   61.8815 H   0  0  0  0  0  0  0  0  0  0  0  0
  1  2  3  0
  2  3  1  0
  3  4  2  0
  4  5  1  0
  5  6  1  0
  5  7  1  0
  5  8  1  0
  4  9  1  0
  9 10  2  0
 10 11  1  0
 11 12  2  0
 12 13  1  0
 13 14  2  0
 14 15  1  0
 15 16  2  0
 10 17  1  0
 17 18  2  0
 18 19  1  0
 19 20  1  0
 20 21  1  0
 21 22  2  0
 21 23  1  0
 23 24  1  0
 24 25  1  0
 25 26  2  0
 26 27  1  0
 27 28  2  0
 28 29  1  0
 29 30  2  0
 18  3  1  0
 30 25  1  0
 16 11  1  0
  9 31  1  0
 12 32  1  0
 13 33  1  0
 14 34  1  0
 15 35  1  0
 16 36  1  0
 20 37  1  0
 20 38  1  0
 23 39  1  0
 24 40  1  0
 24 41  1  0
 26 42  1  0
 27 43  1  0
 28 44  1  0
 29 45  1  0
 30 46  1  0
M  END
>  <Binding energies>  (1) 
[-7.95]

>  <Ligand effiencies>  (1) 
[-0.2564516129032258]

>  <Interactions>  (1) 
["V-B:TYR:539:CD2:9846, V-A:GLU:543:CD:4908, H-A:GLY:454:N:4050, H-A:TYR:484:OH:4348, V-B:TYR:539:CE2:9848, V-A:ARG:545:CZ:4926, V-A:LEU:475:CD2:4259, V-A:ILE:369:CD1:3239, V-A:ILE:369:CG2:3237, H-A:GLU:543:OE2:4910, V-B:GLU:543:CB:9878, V-B:GLU:543:CG:9879, V-B:GLU:543:CD:9880, V-B:HIS:456:CD2:9039, V-B:GLY:544:C:9884, V-A:HIS:456:CE1:4070, V-B:HIS:456:CE1:9041, V-B:GLU:543:C:9874, H-A:GLU:543:OE1:4909, H-A:ARG:545:NH2:4928, V-A:GLU:543:CB:4906, V-A:GLU:543:C:4902, V-B:TYR:484:CZ:9318, V-A:GLU:543:CG:4907, V-A:SER:385:CB:3409, V-B:TYR:484:CE2:9317"]

$$$$
3ai_Grossjean_2025
     RDKit          3D

 39 41  0  0  0  0  0  0  0  0999 V2000
  129.2120  126.8500   63.2110 N   0  0  0  0  0  0  0  0  0  0  0  0
  129.1260  126.9630   64.3600 C   0  0  0  0  0  0  0  0  0  0  0  0
  129.0160  127.1060   65.8150 C   0  0  0  0  0  0  0  0  0  0  0  0
  128.2570  128.1590   66.3830 C   0  0  0  0  0  0  0  0  0  0  0  0
  127.4750  129.1750   65.5290 C   0  0  0  0  0  0  0  0  0  0  0  0
  127.3600  128.7990   64.2530 F   0  0  0  0  0  0  0  0  0  0  0  0
  126.2430  129.3260   66.0160 F   0  0  0  0  0  0  0  0  0  0  0  0
  128.0930  130.3560   65.5400 F   0  0  0  0  0  0  0  0  0  0  0  0
  128.2220  128.2820   67.7800 C   0  0  0  0  0  0  0  0  0  0  0  0
  128.9260  127.3820   68.5870 C   0  0  0  0  0  0  0  0  0  0  0  0
  128.9330  127.4730   70.0840 C   0  0  0  0  0  0  0  0  0  0  0  0
  130.0250  128.0370   70.7620 C   0  0  0  0  0  0  0  0  0  0  0  0
  130.0360  128.1290   72.1510 C   0  0  0  0  0  0  0  0  0  0  0  0
  128.9510  127.6580   72.8830 C   0  0  0  0  0  0  0  0  0  0  0  0
  127.8550  127.0970   72.2350 C   0  0  0  0  0  0  0  0  0  0  0  0
  127.8480  127.0070   70.8460 C   0  0  0  0  0  0  0  0  0  0  0  0
  129.6590  126.3800   68.0390 N   0  0  0  0  0  0  0  0  0  0  0  0
  129.6890  126.2260   66.6930 C   0  0  0  0  0  0  0  0  0  0  0  0
  130.6810  124.8480   66.1580 S   0  0  0  0  0  0  0  0  0  0  0  0
  132.3380  125.4830   65.7310 C   0  0  0  0  0  0  0  0  0  0  0  0
  132.8270  125.1230   64.3200 C   0  0  0  0  0  0  0  0  0  0  0  0
  133.8640  124.4750   64.1580 O   0  0  0  0  0  0  0  0  0  0  0  0
  132.0380  125.5720   63.3180 N   0  0  0  0  0  0  0  0  0  0  0  0
  132.2260  125.3920   61.9540 C   0  0  0  0  0  0  0  0  0  0  0  0
  131.6140  126.1900   60.9880 C   0  0  0  0  0  0  0  0  0  0  0  0
  132.0510  125.6920   59.7830 C   0  0  0  0  0  0  0  0  0  0  0  0
  132.8840  124.6490   60.0090 O   0  0  0  0  0  0  0  0  0  0  0  0
  132.9880  124.4690   61.3900 N   0  0  0  0  0  0  0  0  0  0  0  0
  127.6377  129.0906   68.2434 H   0  0  0  0  0  0  0  0  0  0  0  0
  130.8848  128.4118   70.1873 H   0  0  0  0  0  0  0  0  0  0  0  0
  130.8997  128.5726   72.6679 H   0  0  0  0  0  0  0  0  0  0  0  0
  128.9595  127.7295   73.9806 H   0  0  0  0  0  0  0  0  0  0  0  0
  126.9985  126.7265   72.8173 H   0  0  0  0  0  0  0  0  0  0  0  0
  126.9794  126.5641   70.3367 H   0  0  0  0  0  0  0  0  0  0  0  0
  132.3153  126.5796   65.8149 H   0  0  0  0  0  0  0  0  0  0  0  0
  133.0399  125.0060   66.4308 H   0  0  0  0  0  0  0  0  0  0  0  0
  131.2130  126.0940   63.5770 H   0  0  0  0  0  0  0  0  0  0  0  0
  130.9297  127.0351   61.1540 H   0  0  0  0  0  0  0  0  0  0  0  0
  131.7687  126.0795   58.7930 H   0  0  0  0  0  0  0  0  0  0  0  0
  1  2  3  0
  2  3  1  0
  3  4  2  0
  4  5  1  0
  5  6  1  0
  5  7  1  0
  5  8  1  0
  4  9  1  0
  9 10  2  0
 10 11  1  0
 11 12  2  0
 12 13  1  0
 13 14  2  0
 14 15  1  0
 15 16  2  0
 10 17  1  0
 17 18  2  0
 18 19  1  0
 19 20  1  0
 20 21  1  0
 21 22  2  0
 21 23  1  0
 23 24  1  0
 24 25  1  0
 25 26  2  0
 26 27  1  0
 27 28  1  0
 18  3  1  0
 28 24  2  0
 16 11  1  0
  9 29  1  0
 12 30  1  0
 13 31  1  0
 14 32  1  0
 15 33  1  0
 16 34  1  0
 20 35  1  0
 20 36  1  0
 23 37  1  0
 25 38  1  0
 26 39  1  0
M  END
>  <Binding energies>  (1) 
[-6.99]

>  <Ligand effiencies>  (1) 
[-0.2410344827586207]

>  <Interactions>  (1) 
["V-A:GLU:543:CD:4908, H-A:GLY:454:N:4050, H-A:TYR:484:OH:4348, V-A:ARG:545:CZ:4926, V-A:ASP:366:CB:3212, V-A:ASP:366:CG:3213, H-A:GLU:543:OE2:4910, V-B:GLU:543:CB:9878, V-B:GLU:543:CG:9879, V-B:GLU:543:CD:9880, V-B:HIS:456:CD2:9039, V-B:GLY:544:C:9884, V-A:HIS:456:CE1:4070, V-B:HIS:456:CE1:9041, V-B:GLU:543:C:9874, H-A:GLU:543:OE1:4909, H-A:ARG:545:NH2:4928, V-A:GLU:543:CB:4906, V-A:GLU:543:C:4902, V-B:TYR:484:CZ:9318, V-A:GLU:543:CG:4907, V-B:TYR:484:CE2:9317"]

$$$$
3aj_Grossjean_2025
     RDKit          3D

 39 41  0  0  0  0  0  0  0  0999 V2000
  128.6680  127.1440   62.9470 N   0  0  0  0  0  0  0  0  0  0  0  0
  128.8070  127.1720   64.0950 C   0  0  0  0  0  0  0  0  0  0  0  0
  128.9850  127.2060   65.5500 C   0  0  0  0  0  0  0  0  0  0  0  0
  129.7600  126.2200   66.2070 C   0  0  0  0  0  0  0  0  0  0  0  0
  130.4890  125.0930   65.4500 C   0  0  0  0  0  0  0  0  0  0  0  0
  130.8200  124.0690   66.2400 F   0  0  0  0  0  0  0  0  0  0  0  0
  129.7100  124.6170   64.4790 F   0  0  0  0  0  0  0  0  0  0  0  0
  131.6150  125.5610   64.9100 F   0  0  0  0  0  0  0  0  0  0  0  0
  129.8600  126.2690   67.6060 C   0  0  0  0  0  0  0  0  0  0  0  0
  129.2030  127.2710   68.3280 C   0  0  0  0  0  0  0  0  0  0  0  0
  129.2680  127.3650   69.8220 C   0  0  0  0  0  0  0  0  0  0  0  0
  128.1700  126.9910   70.6110 C   0  0  0  0  0  0  0  0  0  0  0  0
  128.2260  127.0710   72.0010 C   0  0  0  0  0  0  0  0  0  0  0  0
  129.3840  127.5290   72.6200 C   0  0  0  0  0  0  0  0  0  0  0  0
  130.4870  127.9050   71.8590 C   0  0  0  0  0  0  0  0  0  0  0  0
  130.4270  127.8210   70.4710 C   0  0  0  0  0  0  0  0  0  0  0  0
  128.4550  128.2100   67.6930 N   0  0  0  0  0  0  0  0  0  0  0  0
  128.3620  128.1980   66.3420 C   0  0  0  0  0  0  0  0  0  0  0  0
  127.3610  129.5150   65.6870 S   0  0  0  0  0  0  0  0  0  0  0  0
  125.6410  129.2310   66.2260 C   0  0  0  0  0  0  0  0  0  0  0  0
  124.5650  129.6720   65.2220 C   0  0  0  0  0  0  0  0  0  0  0  0
  123.3760  129.7160   65.5500 O   0  0  0  0  0  0  0  0  0  0  0  0
  125.0340  129.9940   63.9970 N   0  0  0  0  0  0  0  0  0  0  0  0
  124.2870  130.4270   62.9100 C   0  0  0  0  0  0  0  0  0  0  0  0
  123.0010  130.7060   62.8730 N   0  0  0  0  0  0  0  0  0  0  0  0
  122.6230  131.0960   61.6720 C   0  0  0  0  0  0  0  0  0  0  0  0
  123.6160  131.1390   60.6980 C   0  0  0  0  0  0  0  0  0  0  0  0
  125.1230  130.6380   61.4050 S   0  0  0  0  0  0  0  0  0  0  0  0
  130.4586  125.5149   68.1380 H   0  0  0  0  0  0  0  0  0  0  0  0
  127.2516  126.6294   70.1254 H   0  0  0  0  0  0  0  0  0  0  0  0
  127.3574  126.7729   72.6065 H   0  0  0  0  0  0  0  0  0  0  0  0
  129.4285  127.5945   73.7171 H   0  0  0  0  0  0  0  0  0  0  0  0
  131.4014  128.2667   72.3520 H   0  0  0  0  0  0  0  0  0  0  0  0
  131.3015  128.1165   69.8727 H   0  0  0  0  0  0  0  0  0  0  0  0
  125.5146  128.1540   66.4106 H   0  0  0  0  0  0  0  0  0  0  0  0
  125.4945  129.8482   67.1247 H   0  0  0  0  0  0  0  0  0  0  0  0
  126.0300  129.9250   63.8460 H   0  0  0  0  0  0  0  0  0  0  0  0
  121.5812  131.3720   61.4520 H   0  0  0  0  0  0  0  0  0  0  0  0
  123.4708  131.4411   59.6503 H   0  0  0  0  0  0  0  0  0  0  0  0
  1  2  3  0
  2  3  1  0
  3  4  2  0
  4  5  1  0
  5  6  1  0
  5  7  1  0
  5  8  1  0
  4  9  1  0
  9 10  2  0
 10 11  1  0
 11 12  2  0
 12 13  1  0
 13 14  2  0
 14 15  1  0
 15 16  2  0
 10 17  1  0
 17 18  2  0
 18 19  1  0
 19 20  1  0
 20 21  1  0
 21 22  2  0
 21 23  1  0
 23 24  1  0
 24 25  2  0
 25 26  1  0
 26 27  2  0
 27 28  1  0
 18  3  1  0
 28 24  1  0
 16 11  1  0
  9 29  1  0
 12 30  1  0
 13 31  1  0
 14 32  1  0
 15 33  1  0
 16 34  1  0
 20 35  1  0
 20 36  1  0
 23 37  1  0
 26 38  1  0
 27 39  1  0
M  END
>  <Binding energies>  (1) 
[-7.23]

>  <Ligand effiencies>  (1) 
[-0.2493103448275862]

>  <Interactions>  (1) 
["V-A:GLU:543:CD:4908, V-B:ASP:366:CG:8184, V-A:ARG:545:CZ:4926, V-B:ILE:369:CB:8207, V-B:ILE:369:CG2:8208, H-B:ARG:545:NH1:9899, H-B:GLY:454:N:9021, V-B:ILE:369:CG1:8209, V-A:TYR:484:CZ:4347, V-B:GLU:543:CB:9878, V-B:GLU:543:CG:9879, V-A:TYR:484:CE2:4346, V-B:GLU:543:CD:9880, V-A:GLY:544:C:4912, V-A:HIS:456:CE1:4070, V-B:HIS:456:CE1:9041, V-B:GLU:543:C:9874, V-A:GLU:543:CB:4906, V-A:GLU:543:C:4902, V-B:TYR:484:CZ:9318, V-B:ARG:545:CZ:9898, H-B:TYR:484:OH:9319, V-A:GLU:543:CG:4907, H-B:ARG:545:NE:9896, V-B:ARG:545:CD:9895"]

$$$$
3ak_Grossjean_2025
     RDKit          3D

 57 58  0  0  0  0  0  0  0  0999 V2000
  133.4720  131.9670   61.8680 C   0  0  0  0  0  0  0  0  0  0  0  0
  132.0970  132.2430   62.0870 O   0  0  0  0  0  0  0  0  0  0  0  0
  131.2400  131.1760   61.7080 C   0  0  0  0  0  0  0  0  0  0  0  0
  129.7870  131.6650   61.7430 C   0  0  0  0  0  0  0  0  0  0  0  0
  129.7340  132.9940   61.2350 O   0  0  0  0  0  0  0  0  0  0  0  0
  128.4300  133.4850   60.9340 C   0  0  0  0  0  0  0  0  0  0  0  0
  127.7180  134.1320   62.1370 C   0  0  0  0  0  0  0  0  0  0  0  0
  126.8440  133.1800   62.7290 O   0  0  0  0  0  0  0  0  0  0  0  0
  125.5040  133.2620   62.2630 C   0  0  0  0  0  0  0  0  0  0  0  0
  124.5830  132.3930   63.1390 C   0  0  0  0  0  0  0  0  0  0  0  0
  125.3020  131.3970   63.9370 N   0  0  0  0  0  0  0  0  0  0  0  0
  124.8050  130.2240   64.3710 C   0  0  0  0  0  0  0  0  0  0  0  0
  123.6590  129.8510   64.1170 O   0  0  0  0  0  0  0  0  0  0  0  0
  125.7010  129.3080   65.2210 C   0  0  0  0  0  0  0  0  0  0  0  0
  127.4960  129.6700   65.1980 S   0  0  0  0  0  0  0  0  0  0  0  0
  128.3660  128.3070   65.9560 C   0  0  0  0  0  0  0  0  0  0  0  0
  128.3910  128.3090   67.3120 N   0  0  0  0  0  0  0  0  0  0  0  0
  129.0340  127.3170   67.9800 C   0  0  0  0  0  0  0  0  0  0  0  0
  129.0110  127.3980   69.4770 C   0  0  0  0  0  0  0  0  0  0  0  0
  130.1190  127.8890   70.1860 C   0  0  0  0  0  0  0  0  0  0  0  0
  130.1020  127.9690   71.5760 C   0  0  0  0  0  0  0  0  0  0  0  0
  128.9730  127.5600   72.2770 C   0  0  0  0  0  0  0  0  0  0  0  0
  127.8620  127.0730   71.6000 C   0  0  0  0  0  0  0  0  0  0  0  0
  127.8810  126.9940   70.2100 C   0  0  0  0  0  0  0  0  0  0  0  0
  129.6610  126.2760   67.2870 C   0  0  0  0  0  0  0  0  0  0  0  0
  129.6480  126.2490   65.8850 C   0  0  0  0  0  0  0  0  0  0  0  0
  130.3520  125.0870   65.1580 C   0  0  0  0  0  0  0  0  0  0  0  0
  129.5680  124.6110   64.1910 F   0  0  0  0  0  0  0  0  0  0  0  0
  131.4950  125.5110   64.6170 F   0  0  0  0  0  0  0  0  0  0  0  0
  130.6490  124.0700   65.9710 F   0  0  0  0  0  0  0  0  0  0  0  0
  128.9850  127.2920   65.1950 C   0  0  0  0  0  0  0  0  0  0  0  0
  128.9400  127.3150   63.7290 C   0  0  0  0  0  0  0  0  0  0  0  0
  128.9040  127.3350   62.5720 N   0  0  0  0  0  0  0  0  0  0  0  0
  133.9841  131.8642   62.8361 H   0  0  0  0  0  0  0  0  0  0  0  0
  133.5720  131.0309   61.2991 H   0  0  0  0  0  0  0  0  0  0  0  0
  133.9255  132.7920   61.2991 H   0  0  0  0  0  0  0  0  0  0  0  0
  131.4928  130.8439   60.6903 H   0  0  0  0  0  0  0  0  0  0  0  0
  131.3652  130.3339   62.4045 H   0  0  0  0  0  0  0  0  0  0  0  0
  129.1612  131.0073   61.1218 H   0  0  0  0  0  0  0  0  0  0  0  0
  129.4130  131.6468   62.7773 H   0  0  0  0  0  0  0  0  0  0  0  0
  128.5180  134.2378   60.1368 H   0  0  0  0  0  0  0  0  0  0  0  0
  127.8234  132.6194   60.6294 H   0  0  0  0  0  0  0  0  0  0  0  0
  128.4652  134.4555   62.8766 H   0  0  0  0  0  0  0  0  0  0  0  0
  127.1401  135.0049   61.7993 H   0  0  0  0  0  0  0  0  0  0  0  0
  125.1670  134.3082   62.3076 H   0  0  0  0  0  0  0  0  0  0  0  0
  125.4615  132.8980   61.2258 H   0  0  0  0  0  0  0  0  0  0  0  0
  124.0294  133.0530   63.8231 H   0  0  0  0  0  0  0  0  0  0  0  0
  123.9167  131.8419   62.4591 H   0  0  0  0  0  0  0  0  0  0  0  0
  126.2590  131.6230   64.1700 H   0  0  0  0  0  0  0  0  0  0  0  0
  125.3589  129.3803   66.2640 H   0  0  0  0  0  0  0  0  0  0  0  0
  125.6003  128.3074   64.7752 H   0  0  0  0  0  0  0  0  0  0  0  0
  131.0136  128.2152   69.6353 H   0  0  0  0  0  0  0  0  0  0  0  0
  130.9785  128.3543   72.1175 H   0  0  0  0  0  0  0  0  0  0  0  0
  128.9595  127.6225   73.3751 H   0  0  0  0  0  0  0  0  0  0  0  0
  126.9713  126.7512   72.1595 H   0  0  0  0  0  0  0  0  0  0  0  0
  126.9987  126.6097   69.6772 H   0  0  0  0  0  0  0  0  0  0  0  0
  130.1670  125.4743   67.8449 H   0  0  0  0  0  0  0  0  0  0  0  0
  1  2  1  0
  2  3  1  0
  3  4  1  0
  4  5  1  0
  5  6  1  0
  6  7  1  0
  7  8  1  0
  8  9  1  0
  9 10  1  0
 10 11  1  0
 11 12  1  0
 12 13  2  0
 12 14  1  0
 14 15  1  0
 15 16  1  0
 16 17  2  0
 17 18  1  0
 18 19  1  0
 19 20  2  0
 20 21  1  0
 21 22  2  0
 22 23  1  0
 23 24  2  0
 18 25  2  0
 25 26  1  0
 26 27  1  0
 27 28  1  0
 27 29  1  0
 27 30  1  0
 26 31  2  0
 31 32  1  0
 32 33  3  0
 31 16  1  0
 24 19  1  0
  1 34  1  0
  1 35  1  0
  1 36  1  0
  3 37  1  0
  3 38  1  0
  4 39  1  0
  4 40  1  0
  6 41  1  0
  6 42  1  0
  7 43  1  0
  7 44  1  0
  9 45  1  0
  9 46  1  0
 10 47  1  0
 10 48  1  0
 11 49  1  0
 14 50  1  0
 14 51  1  0
 20 52  1  0
 21 53  1  0
 22 54  1  0
 23 55  1  0
 24 56  1  0
 25 57  1  0
M  END
>  <Binding energies>  (1) 
[-6.67]

>  <Ligand effiencies>  (1) 
[-0.19617647058823529]

>  <Interactions>  (1) 
["V-A:GLU:543:CD:4908, V-A:ASN:362:CB:3176, V-A:PRO:540:CB:4885, V-B:GLY:454:CA:9020, V-A:PRO:540:CA:4883, V-A:TYR:539:C:4867, V-B:LEU:475:CD2:9230, H-B:ARG:545:NH1:9899, H-B:GLY:454:N:9021, H-A:ALA:541:N:4891, H-B:ARG:545:NH2:9900, V-A:TYR:484:CZ:4347, V-B:GLU:543:CB:9878, V-B:GLU:543:CG:9879, V-A:TYR:484:CE2:4346, V-B:GLU:543:CD:9880, V-B:HIS:456:CD2:9039, V-A:GLY:544:C:4912, V-B:GLY:544:C:9884, V-A:HIS:456:CE1:4070, V-B:HIS:456:CE1:9041, V-B:GLU:543:C:9874, V-A:GLU:543:CB:4906, V-A:GLU:543:C:4902, V-B:ARG:545:CZ:9898, H-B:TYR:484:OH:9319, V-A:ALA:541:CB:4892, V-A:GLU:543:CG:4907, H-B:ARG:545:NE:9896"]

$$$$
3bc_Grossjean_2025
     RDKit          3D

 47 49  0  0  0  0  0  0  0  0999 V2000
  128.6440  128.7620   73.4170 C   0  0  0  0  0  0  0  0  0  0  0  0
  129.9410  128.5230   72.8810 O   0  0  0  0  0  0  0  0  0  0  0  0
  130.0610  128.1170   71.5650 C   0  0  0  0  0  0  0  0  0  0  0  0
  128.9080  127.6150   70.9620 C   0  0  0  0  0  0  0  0  0  0  0  0
  128.9310  127.1810   69.6390 C   0  0  0  0  0  0  0  0  0  0  0  0
  130.1150  127.2360   68.9020 C   0  0  0  0  0  0  0  0  0  0  0  0
  130.0380  126.7880   67.5700 N   0  0  0  0  0  0  0  0  0  0  0  0
  129.8890  125.5300   67.1020 C   0  0  0  0  0  0  0  0  0  0  0  0
  129.7510  124.5300   67.8090 O   0  0  0  0  0  0  0  0  0  0  0  0
  129.8580  125.4150   65.5710 C   0  0  0  0  0  0  0  0  0  0  0  0
  130.0700  123.7250   64.9160 S   0  0  0  0  0  0  0  0  0  0  0  0
  130.5290  123.8590   63.2030 C   0  0  0  0  0  0  0  0  0  0  0  0
  129.4870  123.7210   62.3470 N   0  0  0  0  0  0  0  0  0  0  0  0
  129.6970  123.8050   61.0070 C   0  0  0  0  0  0  0  0  0  0  0  0
  128.4960  123.6200   60.1280 C   0  0  0  0  0  0  0  0  0  0  0  0
  128.6390  123.1960   58.7980 C   0  0  0  0  0  0  0  0  0  0  0  0
  127.5290  123.0220   57.9760 C   0  0  0  0  0  0  0  0  0  0  0  0
  126.2550  123.2730   58.4750 C   0  0  0  0  0  0  0  0  0  0  0  0
  126.0850  123.6980   59.7890 C   0  0  0  0  0  0  0  0  0  0  0  0
  127.1990  123.8710   60.6070 C   0  0  0  0  0  0  0  0  0  0  0  0
  130.9770  124.0310   60.4930 C   0  0  0  0  0  0  0  0  0  0  0  0
  132.0600  124.1990   61.3630 C   0  0  0  0  0  0  0  0  0  0  0  0
  133.4380  124.4620   60.7580 C   0  0  0  0  0  0  0  0  0  0  0  0
  131.8440  124.1240   62.7570 C   0  0  0  0  0  0  0  0  0  0  0  0
  132.9520  124.3440   63.6870 C   0  0  0  0  0  0  0  0  0  0  0  0
  133.8300  124.5190   64.4210 N   0  0  0  0  0  0  0  0  0  0  0  0
  131.2760  127.7530   69.4960 C   0  0  0  0  0  0  0  0  0  0  0  0
  131.2480  128.1860   70.8200 C   0  0  0  0  0  0  0  0  0  0  0  0
  128.6940  128.7528   74.5158 H   0  0  0  0  0  0  0  0  0  0  0  0
  128.2807  129.7422   73.0747 H   0  0  0  0  0  0  0  0  0  0  0  0
  127.9552  127.9757   73.0747 H   0  0  0  0  0  0  0  0  0  0  0  0
  127.9717  127.5614   71.5368 H   0  0  0  0  0  0  0  0  0  0  0  0
  128.0129  126.7935   69.1732 H   0  0  0  0  0  0  0  0  0  0  0  0
  130.0390  127.5250   66.8800 H   0  0  0  0  0  0  0  0  0  0  0  0
  128.8879  125.7969   65.2204 H   0  0  0  0  0  0  0  0  0  0  0  0
  130.7169  125.9956   65.2032 H   0  0  0  0  0  0  0  0  0  0  0  0
  129.6445  122.9979   58.3984 H   0  0  0  0  0  0  0  0  0  0  0  0
  127.6588  122.6874   56.9362 H   0  0  0  0  0  0  0  0  0  0  0  0
  125.3769  123.1347   57.8271 H   0  0  0  0  0  0  0  0  0  0  0  0
  125.0760  123.8963   60.1797 H   0  0  0  0  0  0  0  0  0  0  0  0
  127.0613  124.2095   61.6445 H   0  0  0  0  0  0  0  0  0  0  0  0
  131.1329  124.0768   59.4051 H   0  0  0  0  0  0  0  0  0  0  0  0
  134.1721  124.6021   61.5651 H   0  0  0  0  0  0  0  0  0  0  0  0
  133.7354  123.6044   60.1366 H   0  0  0  0  0  0  0  0  0  0  0  0
  133.3986  125.3688   60.1366 H   0  0  0  0  0  0  0  0  0  0  0  0
  132.2087  127.8165   68.9163 H   0  0  0  0  0  0  0  0  0  0  0  0
  132.1622  128.5845   71.2842 H   0  0  0  0  0  0  0  0  0  0  0  0
  1  2  1  0
  2  3  1  0
  3  4  2  0
  4  5  1  0
  5  6  2  0
  6  7  1  0
  7  8  1  0
  8  9  2  0
  8 10  1  0
 10 11  1  0
 11 12  1  0
 12 13  2  0
 13 14  1  0
 14 15  1  0
 15 16  2  0
 16 17  1  0
 17 18  2  0
 18 19  1  0
 19 20  2  0
 14 21  2  0
 21 22  1  0
 22 23  1  0
 22 24  2  0
 24 25  1  0
 25 26  3  0
  6 27  1  0
 27 28  2  0
 28  3  1  0
 24 12  1  0
 20 15  1  0
  1 29  1  0
  1 30  1  0
  1 31  1  0
  4 32  1  0
  5 33  1  0
  7 34  1  0
 10 35  1  0
 10 36  1  0
 16 37  1  0
 17 38  1  0
 18 39  1  0
 19 40  1  0
 20 41  1  0
 21 42  1  0
 23 43  1  0
 23 44  1  0
 23 45  1  0
 27 46  1  0
 28 47  1  0
M  END
>  <Binding energies>  (1) 
[-8.01]

>  <Ligand effiencies>  (1) 
[-0.27620689655172415]

>  <Interactions>  (1) 
["V-B:PRO:540:N:9856, V-B:TYR:539:CD2:9846, V-A:GLU:543:CD:4908, H-A:GLY:454:N:4050, V-B:PRO:540:CB:9857, H-A:TYR:484:OH:4348, V-B:TYR:539:CE2:9848, V-B:TYR:539:CZ:9849, H-A:ARG:545:NE:4924, V-B:PRO:540:CA:9855, V-A:ASP:366:CG:3213, H-A:GLU:543:OE2:4910, V-B:GLU:543:CB:9878, V-B:GLU:543:CG:9879, V-B:GLU:543:CD:9880, V-B:HIS:456:CD2:9039, V-A:GLY:544:C:4912, V-A:HIS:456:CE1:4070, V-B:HIS:456:CE1:9041, H-A:LYS:547:NZ:4951, H-A:GLU:543:OE1:4909, H-A:ARG:545:NH2:4928, V-A:GLU:543:CB:4906, V-A:GLU:543:C:4902, V-B:TYR:539:C:9839, V-A:GLY:544:CA:4914, V-A:ARG:545:CG:4922, V-A:ARG:545:CA:4919"]

$$$$
3bd_Grossjean_2025
     RDKit          3D

 43 45  0  0  0  0  0  0  0  0999 V2000
  127.5090  129.1850   65.6940 C   0  0  0  0  0  0  0  0  0  0  0  0
  128.2790  128.1520   66.5160 C   0  0  0  0  0  0  0  0  0  0  0  0
  128.2560  128.2670   67.9100 C   0  0  0  0  0  0  0  0  0  0  0  0
  128.9520  127.3430   68.6990 C   0  0  0  0  0  0  0  0  0  0  0  0
  128.9660  127.4040   70.1970 C   0  0  0  0  0  0  0  0  0  0  0  0
  127.8450  127.0050   70.9420 C   0  0  0  0  0  0  0  0  0  0  0  0
  127.8510  127.0610   72.3340 C   0  0  0  0  0  0  0  0  0  0  0  0
  128.9820  127.5210   73.0010 C   0  0  0  0  0  0  0  0  0  0  0  0
  130.1040  127.9250   72.2870 C   0  0  0  0  0  0  0  0  0  0  0  0
  130.0940  127.8680   70.8960 C   0  0  0  0  0  0  0  0  0  0  0  0
  129.6420  126.3220   68.1270 N   0  0  0  0  0  0  0  0  0  0  0  0
  129.6750  126.1960   66.7760 C   0  0  0  0  0  0  0  0  0  0  0  0
  130.6260  124.8200   66.1500 S   0  0  0  0  0  0  0  0  0  0  0  0
  132.2220  125.4610   65.5590 C   0  0  0  0  0  0  0  0  0  0  0  0
  132.7910  124.6170   64.4180 C   0  0  0  0  0  0  0  0  0  0  0  0
  133.9610  124.7870   64.0750 O   0  0  0  0  0  0  0  0  0  0  0  0
  131.9320  123.7390   63.8550 N   0  0  0  0  0  0  0  0  0  0  0  0
  132.1630  122.8170   62.8170 C   0  0  0  0  0  0  0  0  0  0  0  0
  133.4990  122.4880   62.5720 C   0  0  0  0  0  0  0  0  0  0  0  0
  133.8260  121.5910   61.5590 C   0  0  0  0  0  0  0  0  0  0  0  0
  132.8170  121.0290   60.7820 C   0  0  0  0  0  0  0  0  0  0  0  0
  131.4830  121.3600   61.0070 C   0  0  0  0  0  0  0  0  0  0  0  0
  131.1520  122.2560   62.0200 C   0  0  0  0  0  0  0  0  0  0  0  0
  129.0040  127.0970   65.9220 C   0  0  0  0  0  0  0  0  0  0  0  0
  129.0460  126.9490   64.4640 C   0  0  0  0  0  0  0  0  0  0  0  0
  129.0770  126.8330   63.3130 N   0  0  0  0  0  0  0  0  0  0  0  0
  126.9909  129.8801   66.3711 H   0  0  0  0  0  0  0  0  0  0  0  0
  128.2110  129.7460   65.0596 H   0  0  0  0  0  0  0  0  0  0  0  0
  126.7708  128.6725   65.0596 H   0  0  0  0  0  0  0  0  0  0  0  0
  127.6917  129.0825   68.3859 H   0  0  0  0  0  0  0  0  0  0  0  0
  126.9480  126.6425   70.4185 H   0  0  0  0  0  0  0  0  0  0  0  0
  126.9652  126.7429   72.9034 H   0  0  0  0  0  0  0  0  0  0  0  0
  128.9883  127.5652   74.1001 H   0  0  0  0  0  0  0  0  0  0  0  0
  130.9959  128.2882   72.8186 H   0  0  0  0  0  0  0  0  0  0  0  0
  130.9831  128.1913   70.3348 H   0  0  0  0  0  0  0  0  0  0  0  0
  132.0805  126.4918   65.2019 H   0  0  0  0  0  0  0  0  0  0  0  0
  132.9341  125.4244   66.3966 H   0  0  0  0  0  0  0  0  0  0  0  0
  130.9770  123.7760   64.1780 H   0  0  0  0  0  0  0  0  0  0  0  0
  134.2952  122.9396   63.1820 H   0  0  0  0  0  0  0  0  0  0  0  0
  134.8776  121.3273   61.3732 H   0  0  0  0  0  0  0  0  0  0  0  0
  133.0754  120.3176   59.9837 H   0  0  0  0  0  0  0  0  0  0  0  0
  130.6923  120.9143   60.3855 H   0  0  0  0  0  0  0  0  0  0  0  0
  130.0998  122.5241   62.1958 H   0  0  0  0  0  0  0  0  0  0  0  0
  1  2  1  0
  2  3  2  0
  3  4  1  0
  4  5  1  0
  5  6  2  0
  6  7  1  0
  7  8  2  0
  8  9  1  0
  9 10  2  0
  4 11  2  0
 11 12  1  0
 12 13  1  0
 13 14  1  0
 14 15  1  0
 15 16  2  0
 15 17  1  0
 17 18  1  0
 18 19  2  0
 19 20  1  0
 20 21  2  0
 21 22  1  0
 22 23  2  0
 12 24  2  0
 24 25  1  0
 25 26  3  0
 24  2  1  0
 10  5  1  0
 23 18  1  0
  1 27  1  0
  1 28  1  0
  1 29  1  0
  3 30  1  0
  6 31  1  0
  7 32  1  0
  8 33  1  0
  9 34  1  0
 10 35  1  0
 14 36  1  0
 14 37  1  0
 17 38  1  0
 19 39  1  0
 20 40  1  0
 21 41  1  0
 22 42  1  0
 23 43  1  0
M  END
>  <Binding energies>  (1) 
[-8.17]

>  <Ligand effiencies>  (1) 
[-0.3025925925925926]

>  <Interactions>  (1) 
["V-B:TYR:539:CD2:9846, V-A:GLU:543:CD:4908, H-A:GLY:454:N:4050, H-A:TYR:484:OH:4348, V-B:TYR:539:CE2:9848, H-A:ARG:545:NE:4924, V-A:ARG:545:CZ:4926, V-A:LEU:475:CD2:4259, V-A:ILE:369:CD1:3239, V-A:GLY:454:CA:4049, V-A:ILE:369:CG2:3237, V-B:GLU:543:CB:9878, V-B:GLU:543:CG:9879, V-A:SER:385:C:3405, V-B:GLU:543:CD:9880, V-B:HIS:456:CD2:9039, V-B:GLY:544:C:9884, V-A:HIS:456:CE1:4070, V-B:LYS:547:CE:9922, V-B:HIS:456:CE1:9041, V-B:GLU:543:C:9874, H-A:ARG:545:NH2:4928, V-A:GLU:543:CB:4906, V-A:GLU:543:CG:4907, V-A:SER:385:CB:3409, H-A:ARG:545:NH1:4927"]

$$$$
3be_Grossjean_2025
     RDKit          3D

 45 47  0  0  0  0  0  0  0  0999 V2000
  121.0580  130.5300   61.7380 C   0  0  0  0  0  0  0  0  0  0  0  0
  122.4550  131.0030   62.0870 C   0  0  0  0  0  0  0  0  0  0  0  0
  123.0820  132.0260   61.3710 C   0  0  0  0  0  0  0  0  0  0  0  0
  124.3700  132.4070   61.7470 C   0  0  0  0  0  0  0  0  0  0  0  0
  124.9950  131.7630   62.8190 C   0  0  0  0  0  0  0  0  0  0  0  0
  124.3090  130.7490   63.4960 C   0  0  0  0  0  0  0  0  0  0  0  0
  124.9950  130.1330   64.5590 N   0  0  0  0  0  0  0  0  0  0  0  0
  124.4970  129.6320   65.7100 C   0  0  0  0  0  0  0  0  0  0  0  0
  123.3040  129.6450   66.0210 O   0  0  0  0  0  0  0  0  0  0  0  0
  125.5450  129.0160   66.6500 C   0  0  0  0  0  0  0  0  0  0  0  0
  127.2810  129.2420   66.1310 S   0  0  0  0  0  0  0  0  0  0  0  0
  128.2680  128.0110   66.9530 C   0  0  0  0  0  0  0  0  0  0  0  0
  128.2170  128.0880   68.3060 N   0  0  0  0  0  0  0  0  0  0  0  0
  128.9220  127.2050   69.0620 C   0  0  0  0  0  0  0  0  0  0  0  0
  128.8230  127.3680   70.5500 C   0  0  0  0  0  0  0  0  0  0  0  0
  129.9020  127.8790   71.2890 C   0  0  0  0  0  0  0  0  0  0  0  0
  129.8170  128.0300   72.6700 C   0  0  0  0  0  0  0  0  0  0  0  0
  128.6500  127.6700   73.3340 C   0  0  0  0  0  0  0  0  0  0  0  0
  127.5670  127.1590   72.6260 C   0  0  0  0  0  0  0  0  0  0  0  0
  127.6560  127.0080   71.2450 C   0  0  0  0  0  0  0  0  0  0  0  0
  129.7060  126.2130   68.4630 C   0  0  0  0  0  0  0  0  0  0  0  0
  129.7500  126.1050   67.0690 C   0  0  0  0  0  0  0  0  0  0  0  0
  130.6060  124.9960   66.4590 C   0  0  0  0  0  0  0  0  0  0  0  0
  129.0080  127.0120   66.2810 C   0  0  0  0  0  0  0  0  0  0  0  0
  128.9970  126.8820   64.8230 C   0  0  0  0  0  0  0  0  0  0  0  0
  128.9890  126.7770   63.6700 N   0  0  0  0  0  0  0  0  0  0  0  0
  123.0490  130.3690   63.1300 N   0  0  0  0  0  0  0  0  0  0  0  0
  120.4938  130.3390   62.6628 H   0  0  0  0  0  0  0  0  0  0  0  0
  120.5451  131.3046   61.1490 H   0  0  0  0  0  0  0  0  0  0  0  0
  121.1212  129.6032   61.1490 H   0  0  0  0  0  0  0  0  0  0  0  0
  122.5718  132.5193   60.5305 H   0  0  0  0  0  0  0  0  0  0  0  0
  124.8907  133.2091   61.2035 H   0  0  0  0  0  0  0  0  0  0  0  0
  126.0117  132.0495   63.1258 H   0  0  0  0  0  0  0  0  0  0  0  0
  125.9980  130.0900   64.4430 H   0  0  0  0  0  0  0  0  0  0  0  0
  125.4238  129.4747   67.6424 H   0  0  0  0  0  0  0  0  0  0  0  0
  125.3624  127.9313   66.6428 H   0  0  0  0  0  0  0  0  0  0  0  0
  130.8283  128.1642   70.7688 H   0  0  0  0  0  0  0  0  0  0  0  0
  130.6708  128.4331   73.2344 H   0  0  0  0  0  0  0  0  0  0  0  0
  128.5825  127.7899   74.4254 H   0  0  0  0  0  0  0  0  0  0  0  0
  126.6450  126.8757   73.1548 H   0  0  0  0  0  0  0  0  0  0  0  0
  126.7990  126.6003   70.6889 H   0  0  0  0  0  0  0  0  0  0  0  0
  130.2872  125.5187   69.0876 H   0  0  0  0  0  0  0  0  0  0  0  0
  131.0644  124.4021   67.2635 H   0  0  0  0  0  0  0  0  0  0  0  0
  129.9739  124.3450   65.8372 H   0  0  0  0  0  0  0  0  0  0  0  0
  131.3959  125.4425   65.8372 H   0  0  0  0  0  0  0  0  0  0  0  0
  1  2  1  0
  2  3  2  0
  3  4  1  0
  4  5  2  0
  5  6  1  0
  6  7  1  0
  7  8  1  0
  8  9  2  0
  8 10  1  0
 10 11  1  0
 11 12  1  0
 12 13  2  0
 13 14  1  0
 14 15  1  0
 15 16  2  0
 16 17  1  0
 17 18  2  0
 18 19  1  0
 19 20  2  0
 14 21  2  0
 21 22  1  0
 22 23  1  0
 22 24  2  0
 24 25  1  0
 25 26  3  0
  6 27  2  0
 27  2  1  0
 24 12  1  0
 20 15  1  0
  1 28  1  0
  1 29  1  0
  1 30  1  0
  3 31  1  0
  4 32  1  0
  5 33  1  0
  7 34  1  0
 10 35  1  0
 10 36  1  0
 16 37  1  0
 17 38  1  0
 18 39  1  0
 19 40  1  0
 20 41  1  0
 21 42  1  0
 23 43  1  0
 23 44  1  0
 23 45  1  0
M  END
>  <Binding energies>  (1) 
[-8.3]

>  <Ligand effiencies>  (1) 
[-0.29642857142857143]

>  <Interactions>  (1) 
["V-A:GLU:543:CD:4908, V-B:ASP:366:CG:8184, V-B:ILE:369:CB:8207, V-B:GLY:454:CA:9020, V-B:GLY:453:C:9013, V-B:ILE:369:CG2:8208, V-B:GLY:453:CA:9015, H-B:ARG:545:NH1:9899, V-B:ASP:366:CA:8181, H-B:GLY:454:N:9021, V-B:ILE:369:CG1:8209, H-B:ARG:545:NH2:9900, V-A:TYR:484:CZ:4347, V-B:GLU:543:CB:9878, V-B:GLU:543:CG:9879, V-A:TYR:484:CE2:4346, V-B:GLU:543:CD:9880, V-B:HIS:456:CD2:9039, V-B:GLY:544:C:9884, V-A:HIS:456:CE1:4070, V-B:LYS:547:CE:9922, V-B:HIS:456:CE1:9041, V-B:GLU:543:C:9874, V-B:TYR:484:CZ:9318, V-B:ARG:545:CZ:9898, H-B:TYR:484:OH:9319, H-B:ARG:545:NE:9896, V-B:ARG:545:CD:9895, V-B:ARG:545:CG:9894, H-B:GLU:543:OE2:9882, V-B:CYS:365:C:8175, V-B:CYS:365:CB:8172"]

$$$$
3bf_Grossjean_2025
     RDKit          3D

 42 44  0  0  0  0  0  0  0  0999 V2000
  127.5100  129.2120   65.5750 C   0  0  0  0  0  0  0  0  0  0  0  0
  128.2450  128.1920   66.4420 C   0  0  0  0  0  0  0  0  0  0  0  0
  128.1450  128.3140   67.8310 C   0  0  0  0  0  0  0  0  0  0  0  0
  128.7910  127.3920   68.6630 C   0  0  0  0  0  0  0  0  0  0  0  0
  128.7040  127.4540   70.1580 C   0  0  0  0  0  0  0  0  0  0  0  0
  129.7710  127.9590   70.9170 C   0  0  0  0  0  0  0  0  0  0  0  0
  129.6980  128.0190   72.3060 C   0  0  0  0  0  0  0  0  0  0  0  0
  128.5530  127.5720   72.9560 C   0  0  0  0  0  0  0  0  0  0  0  0
  127.4820  127.0660   72.2280 C   0  0  0  0  0  0  0  0  0  0  0  0
  127.5600  127.0060   70.8390 C   0  0  0  0  0  0  0  0  0  0  0  0
  129.5210  126.3720   68.1380 N   0  0  0  0  0  0  0  0  0  0  0  0
  129.6490  126.2560   66.7930 C   0  0  0  0  0  0  0  0  0  0  0  0
  130.6440  124.8680   66.2890 S   0  0  0  0  0  0  0  0  0  0  0  0
  132.3100  125.4880   65.8750 C   0  0  0  0  0  0  0  0  0  0  0  0
  132.8080  125.1280   64.4670 C   0  0  0  0  0  0  0  0  0  0  0  0
  133.8370  124.4670   64.3140 O   0  0  0  0  0  0  0  0  0  0  0  0
  132.0190  125.5650   63.4620 N   0  0  0  0  0  0  0  0  0  0  0  0
  132.1930  125.4160   62.0740 C   0  0  0  0  0  0  0  0  0  0  0  0
  133.0030  124.3600   61.6420 C   0  0  0  0  0  0  0  0  0  0  0  0
  133.2040  124.1510   60.2760 C   0  0  0  0  0  0  0  0  0  0  0  0
  132.5790  125.0100   59.3710 C   0  0  0  0  0  0  0  0  0  0  0  0
  131.7810  126.0350   59.7610 N   0  0  0  0  0  0  0  0  0  0  0  0
  131.5940  126.2260   61.0930 C   0  0  0  0  0  0  0  0  0  0  0  0
  129.0090  127.1380   65.8950 C   0  0  0  0  0  0  0  0  0  0  0  0
  129.0870  126.9630   64.4420 C   0  0  0  0  0  0  0  0  0  0  0  0
  129.1480  126.8270   63.2940 N   0  0  0  0  0  0  0  0  0  0  0  0
  126.9893  129.9346   66.2206 H   0  0  0  0  0  0  0  0  0  0  0  0
  128.2343  129.7431   64.9400 H   0  0  0  0  0  0  0  0  0  0  0  0
  126.7770  128.6930   64.9400 H   0  0  0  0  0  0  0  0  0  0  0  0
  127.5587  129.1345   68.2702 H   0  0  0  0  0  0  0  0  0  0  0  0
  130.6789  128.3128   70.4066 H   0  0  0  0  0  0  0  0  0  0  0  0
  130.5425  128.4183   72.8868 H   0  0  0  0  0  0  0  0  0  0  0  0
  128.4941  127.6190   74.0534 H   0  0  0  0  0  0  0  0  0  0  0  0
  126.5777  126.7149   72.7466 H   0  0  0  0  0  0  0  0  0  0  0  0
  126.7126  126.6015   70.2661 H   0  0  0  0  0  0  0  0  0  0  0  0
  132.2968  126.5845   65.9618 H   0  0  0  0  0  0  0  0  0  0  0  0
  133.0016  125.0011   66.5783 H   0  0  0  0  0  0  0  0  0  0  0  0
  131.1600  126.0240   63.7300 H   0  0  0  0  0  0  0  0  0  0  0  0
  133.4806  123.6956   62.3772 H   0  0  0  0  0  0  0  0  0  0  0  0
  133.8410  123.3274   59.9211 H   0  0  0  0  0  0  0  0  0  0  0  0
  132.7405  124.8488   58.2949 H   0  0  0  0  0  0  0  0  0  0  0  0
  130.9445  127.0518   61.4189 H   0  0  0  0  0  0  0  0  0  0  0  0
  1  2  1  0
  2  3  2  0
  3  4  1  0
  4  5  1  0
  5  6  2  0
  6  7  1  0
  7  8  2  0
  8  9  1  0
  9 10  2  0
  4 11  2  0
 11 12  1  0
 12 13  1  0
 13 14  1  0
 14 15  1  0
 15 16  2  0
 15 17  1  0
 17 18  1  0
 18 19  2  0
 19 20  1  0
 20 21  2  0
 21 22  1  0
 22 23  2  0
 12 24  2  0
 24 25  1  0
 25 26  3  0
 24  2  1  0
 10  5  1  0
 23 18  1  0
  1 27  1  0
  1 28  1  0
  1 29  1  0
  3 30  1  0
  6 31  1  0
  7 32  1  0
  8 33  1  0
  9 34  1  0
 10 35  1  0
 14 36  1  0
 14 37  1  0
 17 38  1  0
 19 39  1  0
 20 40  1  0
 21 41  1  0
 23 42  1  0
M  END
>  <Binding energies>  (1) 
[-7.53]

>  <Ligand effiencies>  (1) 
[-0.2788888888888889]

>  <Interactions>  (1) 
["V-A:GLU:543:CD:4908, H-A:GLY:454:N:4050, H-A:TYR:484:OH:4348, V-A:ARG:545:CZ:4926, V-A:ASP:366:CB:3212, V-A:ASP:366:CG:3213, H-A:GLU:543:OE2:4910, V-B:GLU:543:CB:9878, V-B:GLU:543:CG:9879, V-B:GLU:543:CD:9880, V-B:HIS:456:CD2:9039, V-B:GLY:544:C:9884, V-A:HIS:456:CE1:4070, V-B:LYS:547:CE:9922, V-B:HIS:456:CE1:9041, V-B:GLU:543:C:9874, H-A:GLU:543:OE1:4909, H-A:ARG:545:NH2:4928, V-A:GLU:543:CB:4906, V-A:GLU:543:CG:4907"]

$$$$
3bg_Grossjean_2025
     RDKit          3D

 46 48  0  0  0  0  0  0  0  0999 V2000
  130.7480  124.1100   65.3880 C   0  0  0  0  0  0  0  0  0  0  0  0
  130.0450  125.3840   65.8510 C   0  0  0  0  0  0  0  0  0  0  0  0
  130.0360  125.6740   67.2190 C   0  0  0  0  0  0  0  0  0  0  0  0
  129.4080  126.8370   67.6860 C   0  0  0  0  0  0  0  0  0  0  0  0
  129.3720  127.2130   69.1410 C   0  0  0  0  0  0  0  0  0  0  0  0
  128.2160  127.0110   69.9130 C   0  0  0  0  0  0  0  0  0  0  0  0
  128.1840  127.3420   71.2650 C   0  0  0  0  0  0  0  0  0  0  0  0
  129.3130  127.8850   71.8690 C   0  0  0  0  0  0  0  0  0  0  0  0
  130.4670  128.1080   71.1280 C   0  0  0  0  0  0  0  0  0  0  0  0
  130.4930  127.7770   69.7760 C   0  0  0  0  0  0  0  0  0  0  0  0
  128.8200  127.7010   66.8160 N   0  0  0  0  0  0  0  0  0  0  0  0
  128.8230  127.4360   65.4850 C   0  0  0  0  0  0  0  0  0  0  0  0
  128.0470  128.6670   64.4490 S   0  0  0  0  0  0  0  0  0  0  0  0
  128.1810  130.2820   65.2830 C   0  0  0  0  0  0  0  0  0  0  0  0
  128.4720  131.4130   64.2920 C   0  0  0  0  0  0  0  0  0  0  0  0
  127.9060  132.4990   64.4180 O   0  0  0  0  0  0  0  0  0  0  0  0
  129.3380  131.1330   63.3020 N   0  0  0  0  0  0  0  0  0  0  0  0
  129.6200  131.9930   62.1530 C   0  0  0  0  0  0  0  0  0  0  0  0
  131.0530  131.8290   61.6610 C   0  0  0  0  0  0  0  0  0  0  0  0
  132.1130  131.8460   62.5740 C   0  0  0  0  0  0  0  0  0  0  0  0
  133.4220  131.7050   62.1250 C   0  0  0  0  0  0  0  0  0  0  0  0
  133.6690  131.5350   60.7630 C   0  0  0  0  0  0  0  0  0  0  0  0
  132.6180  131.4970   59.8500 C   0  0  0  0  0  0  0  0  0  0  0  0
  131.3080  131.6380   60.3000 C   0  0  0  0  0  0  0  0  0  0  0  0
  129.4210  126.2750   64.9520 C   0  0  0  0  0  0  0  0  0  0  0  0
  129.4210  126.0020   63.5130 C   0  0  0  0  0  0  0  0  0  0  0  0
  129.4220  125.7850   62.3760 N   0  0  0  0  0  0  0  0  0  0  0  0
  131.0687  123.5288   66.2651 H   0  0  0  0  0  0  0  0  0  0  0  0
  130.0545  123.5078   64.7827 H   0  0  0  0  0  0  0  0  0  0  0  0
  131.6272  124.3757   64.7827 H   0  0  0  0  0  0  0  0  0  0  0  0
  130.5221  124.9889   67.9292 H   0  0  0  0  0  0  0  0  0  0  0  0
  127.3194  126.5834   69.4406 H   0  0  0  0  0  0  0  0  0  0  0  0
  127.2695  127.1747   71.8530 H   0  0  0  0  0  0  0  0  0  0  0  0
  129.2922  128.1393   72.9390 H   0  0  0  0  0  0  0  0  0  0  0  0
  131.3559  128.5440   71.6074 H   0  0  0  0  0  0  0  0  0  0  0  0
  131.4078  127.9601   69.1933 H   0  0  0  0  0  0  0  0  0  0  0  0
  127.2332  130.4959   65.7987 H   0  0  0  0  0  0  0  0  0  0  0  0
  129.0168  130.2296   65.9962 H   0  0  0  0  0  0  0  0  0  0  0  0
  129.7500  130.2120   63.2760 H   0  0  0  0  0  0  0  0  0  0  0  0
  128.9311  131.7327   61.3359 H   0  0  0  0  0  0  0  0  0  0  0  0
  129.4841  133.0384   62.4671 H   0  0  0  0  0  0  0  0  0  0  0  0
  131.9110  131.9710   63.6481 H   0  0  0  0  0  0  0  0  0  0  0  0
  134.2575  131.7275   62.8401 H   0  0  0  0  0  0  0  0  0  0  0  0
  134.7042  131.4299   60.4063 H   0  0  0  0  0  0  0  0  0  0  0  0
  132.8219  131.3562   58.7783 H   0  0  0  0  0  0  0  0  0  0  0  0
  130.4735  131.5991   59.5844 H   0  0  0  0  0  0  0  0  0  0  0  0
  1  2  1  0
  2  3  2  0
  3  4  1  0
  4  5  1  0
  5  6  2  0
  6  7  1  0
  7  8  2  0
  8  9  1  0
  9 10  2  0
  4 11  2  0
 11 12  1  0
 12 13  1  0
 13 14  1  0
 14 15  1  0
 15 16  2  0
 15 17  1  0
 17 18  1  0
 18 19  1  0
 19 20  2  0
 20 21  1  0
 21 22  2  0
 22 23  1  0
 23 24  2  0
 12 25  2  0
 25 26  1  0
 26 27  3  0
 25  2  1  0
 10  5  1  0
 24 19  1  0
  1 28  1  0
  1 29  1  0
  1 30  1  0
  3 31  1  0
  6 32  1  0
  7 33  1  0
  8 34  1  0
  9 35  1  0
 10 36  1  0
 14 37  1  0
 14 38  1  0
 17 39  1  0
 18 40  1  0
 18 41  1  0
 20 42  1  0
 21 43  1  0
 22 44  1  0
 23 45  1  0
 24 46  1  0
M  END
>  <Binding energies>  (1) 
[-8.36]

>  <Ligand effiencies>  (1) 
[-0.29857142857142854]

>  <Interactions>  (1) 
["V-A:GLU:543:CD:4908, V-A:ASN:362:CB:3176, V-A:PRO:540:CB:4885, V-A:PRO:540:CA:4883, V-A:ASP:366:CG:3213, V-A:TYR:484:CZ:4347, V-B:GLU:543:CB:9878, V-B:GLU:543:CG:9879, V-A:TYR:484:CE2:4346, V-B:GLU:543:CD:9880, V-B:HIS:456:CD2:9039, V-A:GLY:544:C:4912, V-A:HIS:456:CE1:4070, V-B:HIS:456:CE1:9041, V-B:GLU:543:C:9874, H-A:GLU:543:OE1:4909, V-A:GLU:543:CB:4906, V-A:GLU:543:C:4902, V-B:TYR:484:CZ:9318, H-B:TYR:484:OH:9319, V-A:GLU:543:CG:4907, V-A:ALA:541:CA:4890, V-A:ALA:541:C:4888, V-B:TYR:484:CE2:9317, V-A:LEU:363:CA:3185, V-A:ASN:362:C:3172"]

$$$$
3bk_Grossjean_2025
     RDKit          3D

 57 58  0  0  0  0  0  0  0  0999 V2000
  127.4860  126.9360   72.5880 C   0  0  0  0  0  0  0  0  0  0  0  0
  128.7190  126.2360   72.6690 O   0  0  0  0  0  0  0  0  0  0  0  0
  129.8370  127.0840   72.8920 C   0  0  0  0  0  0  0  0  0  0  0  0
  130.3410  127.6360   71.5510 C   0  0  0  0  0  0  0  0  0  0  0  0
  129.2640  128.2530   70.8610 O   0  0  0  0  0  0  0  0  0  0  0  0
  129.4780  128.3850   69.4620 C   0  0  0  0  0  0  0  0  0  0  0  0
  129.8880  127.0250   68.8820 C   0  0  0  0  0  0  0  0  0  0  0  0
  128.8950  126.5850   67.9660 O   0  0  0  0  0  0  0  0  0  0  0  0
  129.3390  126.5360   66.6160 C   0  0  0  0  0  0  0  0  0  0  0  0
  130.1130  125.2320   66.3790 C   0  0  0  0  0  0  0  0  0  0  0  0
  131.1480  125.3760   65.3540 N   0  0  0  0  0  0  0  0  0  0  0  0
  131.6270  124.3850   64.5830 C   0  0  0  0  0  0  0  0  0  0  0  0
  131.2270  123.2210   64.6390 O   0  0  0  0  0  0  0  0  0  0  0  0
  132.7090  124.7690   63.5710 C   0  0  0  0  0  0  0  0  0  0  0  0
  132.0200  125.0480   61.9090 S   0  0  0  0  0  0  0  0  0  0  0  0
  131.0340  123.6350   61.4450 C   0  0  0  0  0  0  0  0  0  0  0  0
  129.7450  123.8950   61.1090 N   0  0  0  0  0  0  0  0  0  0  0  0
  128.9190  122.8790   60.7440 C   0  0  0  0  0  0  0  0  0  0  0  0
  127.5180  123.2570   60.3680 C   0  0  0  0  0  0  0  0  0  0  0  0
  127.1570  123.4300   59.0220 C   0  0  0  0  0  0  0  0  0  0  0  0
  125.8580  123.7860   58.6680 C   0  0  0  0  0  0  0  0  0  0  0  0
  124.8990  123.9740   59.6570 C   0  0  0  0  0  0  0  0  0  0  0  0
  125.2290  123.8050   60.9980 C   0  0  0  0  0  0  0  0  0  0  0  0
  126.5290  123.4470   61.3490 C   0  0  0  0  0  0  0  0  0  0  0  0
  129.3800  121.5580   60.7040 C   0  0  0  0  0  0  0  0  0  0  0  0
  130.7050  121.2710   61.0490 C   0  0  0  0  0  0  0  0  0  0  0  0
  131.1680  119.8160   60.9910 C   0  0  0  0  0  0  0  0  0  0  0  0
  131.5620  122.3250   61.4300 C   0  0  0  0  0  0  0  0  0  0  0  0
  132.9560  122.0550   61.7940 C   0  0  0  0  0  0  0  0  0  0  0  0
  134.0570  121.8410   62.0810 N   0  0  0  0  0  0  0  0  0  0  0  0
  127.1162  127.1459   73.6025 H   0  0  0  0  0  0  0  0  0  0  0  0
  127.6368  127.8832   72.0494 H   0  0  0  0  0  0  0  0  0  0  0  0
  126.7500  126.3211   72.0494 H   0  0  0  0  0  0  0  0  0  0  0  0
  129.5388  127.9192   73.5427 H   0  0  0  0  0  0  0  0  0  0  0  0
  130.6406  126.5091   73.3753 H   0  0  0  0  0  0  0  0  0  0  0  0
  131.1329  128.3774   71.7335 H   0  0  0  0  0  0  0  0  0  0  0  0
  130.7441  126.8129   70.9427 H   0  0  0  0  0  0  0  0  0  0  0  0
  128.5505  128.7262   68.9788 H   0  0  0  0  0  0  0  0  0  0  0  0
  130.2758  129.1198   69.2786 H   0  0  0  0  0  0  0  0  0  0  0  0
  130.8512  127.1238   68.3600 H   0  0  0  0  0  0  0  0  0  0  0  0
  129.9875  126.2925   69.6966 H   0  0  0  0  0  0  0  0  0  0  0  0
  128.4700  126.5742   65.9426 H   0  0  0  0  0  0  0  0  0  0  0  0
  129.9967  127.3945   66.4149 H   0  0  0  0  0  0  0  0  0  0  0  0
  130.5900  124.9278   67.3224 H   0  0  0  0  0  0  0  0  0  0  0  0
  129.3959  124.4754   66.0277 H   0  0  0  0  0  0  0  0  0  0  0  0
  131.4900  126.3140   65.2010 H   0  0  0  0  0  0  0  0  0  0  0  0
  133.2016  125.6920   63.9108 H   0  0  0  0  0  0  0  0  0  0  0  0
  133.4250  123.9364   63.5067 H   0  0  0  0  0  0  0  0  0  0  0  0
  127.9116  123.2821   58.2354 H   0  0  0  0  0  0  0  0  0  0  0  0
  125.5914  123.9181   57.6090 H   0  0  0  0  0  0  0  0  0  0  0  0
  123.8736  124.2579   59.3777 H   0  0  0  0  0  0  0  0  0  0  0  0
  124.4671  123.9533   61.7775 H   0  0  0  0  0  0  0  0  0  0  0  0
  126.7855  123.3109   62.4100 H   0  0  0  0  0  0  0  0  0  0  0  0
  128.7014  120.7467   60.4017 H   0  0  0  0  0  0  0  0  0  0  0  0
  131.2910  119.4293   62.0134 H   0  0  0  0  0  0  0  0  0  0  0  0
  130.4173  119.2133   60.4589 H   0  0  0  0  0  0  0  0  0  0  0  0
  132.1290  119.7579   60.4589 H   0  0  0  0  0  0  0  0  0  0  0  0
  1  2  1  0
  2  3  1  0
  3  4  1  0
  4  5  1  0
  5  6  1  0
  6  7  1  0
  7  8  1  0
  8  9  1  0
  9 10  1  0
 10 11  1  0
 11 12  1  0
 12 13  2  0
 12 14  1  0
 14 15  1  0
 15 16  1  0
 16 17  2  0
 17 18  1  0
 18 19  1  0
 19 20  2  0
 20 21  1  0
 21 22  2  0
 22 23  1  0
 23 24  2  0
 18 25  2  0
 25 26  1  0
 26 27  1  0
 26 28  2  0
 28 29  1  0
 29 30  3  0
 28 16  1  0
 24 19  1  0
  1 31  1  0
  1 32  1  0
  1 33  1  0
  3 34  1  0
  3 35  1  0
  4 36  1  0
  4 37  1  0
  6 38  1  0
  6 39  1  0
  7 40  1  0
  7 41  1  0
  9 42  1  0
  9 43  1  0
 10 44  1  0
 10 45  1  0
 11 46  1  0
 14 47  1  0
 14 48  1  0
 20 49  1  0
 21 50  1  0
 22 51  1  0
 23 52  1  0
 24 53  1  0
 25 54  1  0
 27 55  1  0
 27 56  1  0
 27 57  1  0
M  END
>  <Binding energies>  (1) 
[-6.44]

>  <Ligand effiencies>  (1) 
[-0.207741935483871]

>  <Interactions>  (1) 
["V-B:PRO:540:N:9856, V-B:TYR:539:CD2:9846, V-A:GLU:543:CD:4908, H-A:GLY:454:N:4050, V-B:PRO:540:CB:9857, H-A:TYR:484:OH:4348, V-B:TYR:539:CE2:9848, V-A:ARG:545:CZ:4926, V-A:LEU:475:CD2:4259, V-B:PRO:540:CA:9855, H-A:GLU:543:OE2:4910, V-B:GLU:543:CB:9878, V-B:GLU:543:CG:9879, V-B:GLU:543:CD:9880, V-B:HIS:456:CD2:9039, V-A:GLY:544:C:4912, V-B:GLY:544:C:9884, V-A:HIS:456:CD2:4068, V-A:HIS:456:CE1:4070, H-B:LYS:547:NZ:9923, V-B:LYS:547:CE:9922, V-B:HIS:456:CE1:9041, H-A:GLU:543:OE1:4909, V-A:GLU:543:CB:4906, V-A:GLU:543:C:4902, V-B:TYR:539:C:9839"]

$$$$
3ca_Grossjean_2025
     RDKit          3D

 52 54  0  0  0  0  0  0  0  0999 V2000
  128.2010  128.7650   74.0060 C   0  0  0  0  0  0  0  0  0  0  0  0
  129.1060  129.9060   73.5340 C   0  0  0  0  0  0  0  0  0  0  0  0
  130.1270  129.3840   72.6930 O   0  0  0  0  0  0  0  0  0  0  0  0
  130.2530  128.0480   72.4900 C   0  0  0  0  0  0  0  0  0  0  0  0
  130.5170  127.2440   73.3900 O   0  0  0  0  0  0  0  0  0  0  0  0
  130.0330  127.6420   71.0610 C   0  0  0  0  0  0  0  0  0  0  0  0
  130.9160  128.1010   70.0750 C   0  0  0  0  0  0  0  0  0  0  0  0
  130.7380  127.7420   68.7420 C   0  0  0  0  0  0  0  0  0  0  0  0
  129.6710  126.9240   68.3660 C   0  0  0  0  0  0  0  0  0  0  0  0
  129.5840  126.6220   66.9930 N   0  0  0  0  0  0  0  0  0  0  0  0
  129.8310  125.4600   66.3500 C   0  0  0  0  0  0  0  0  0  0  0  0
  130.1740  124.4080   66.8860 O   0  0  0  0  0  0  0  0  0  0  0  0
  129.6340  125.4990   64.8310 C   0  0  0  0  0  0  0  0  0  0  0  0
  130.0000  123.9080   64.0180 S   0  0  0  0  0  0  0  0  0  0  0  0
  129.9690  124.1120   62.2420 C   0  0  0  0  0  0  0  0  0  0  0  0
  131.1210  124.5590   61.6820 N   0  0  0  0  0  0  0  0  0  0  0  0
  131.1770  124.7170   60.3410 C   0  0  0  0  0  0  0  0  0  0  0  0
  132.5030  125.2020   59.7900 C   0  0  0  0  0  0  0  0  0  0  0  0
  130.0900  124.4530   59.5100 C   0  0  0  0  0  0  0  0  0  0  0  0
  128.8840  124.0090   60.0660 C   0  0  0  0  0  0  0  0  0  0  0  0
  127.7420  123.7520   59.1370 C   0  0  0  0  0  0  0  0  0  0  0  0
  126.5460  124.4640   59.2810 C   0  0  0  0  0  0  0  0  0  0  0  0
  125.4730  124.2250   58.4260 C   0  0  0  0  0  0  0  0  0  0  0  0
  125.5920  123.2660   57.4240 C   0  0  0  0  0  0  0  0  0  0  0  0
  126.7730  122.5440   57.2710 C   0  0  0  0  0  0  0  0  0  0  0  0
  127.8430  122.7860   58.1290 C   0  0  0  0  0  0  0  0  0  0  0  0
  128.8180  123.8220   61.4710 C   0  0  0  0  0  0  0  0  0  0  0  0
  127.5990  123.3100   62.1040 C   0  0  0  0  0  0  0  0  0  0  0  0
  126.6350  122.9050   62.6030 N   0  0  0  0  0  0  0  0  0  0  0  0
  128.7860  126.4530   69.3480 C   0  0  0  0  0  0  0  0  0  0  0  0
  128.9670  126.8120   70.6810 C   0  0  0  0  0  0  0  0  0  0  0  0
  128.1829  128.7422   75.1056 H   0  0  0  0  0  0  0  0  0  0  0  0
  127.1812  128.9246   73.6258 H   0  0  0  0  0  0  0  0  0  0  0  0
  128.5886  127.8083   73.6258 H   0  0  0  0  0  0  0  0  0  0  0  0
  128.5086  130.6399   72.9732 H   0  0  0  0  0  0  0  0  0  0  0  0
  129.5639  130.3957   74.4061 H   0  0  0  0  0  0  0  0  0  0  0  0
  131.7575  128.7509   70.3568 H   0  0  0  0  0  0  0  0  0  0  0  0
  131.4429  128.1053   67.9796 H   0  0  0  0  0  0  0  0  0  0  0  0
  129.2390  127.3800   66.4240 H   0  0  0  0  0  0  0  0  0  0  0  0
  128.5879  125.7665   64.6209 H   0  0  0  0  0  0  0  0  0  0  0  0
  130.3391  126.2414   64.4289 H   0  0  0  0  0  0  0  0  0  0  0  0
  133.1779  125.4488   60.6228 H   0  0  0  0  0  0  0  0  0  0  0  0
  132.9553  124.4111   59.1736 H   0  0  0  0  0  0  0  0  0  0  0  0
  132.3382  126.0981   59.1736 H   0  0  0  0  0  0  0  0  0  0  0  0
  130.1789  124.5927   58.4225 H   0  0  0  0  0  0  0  0  0  0  0  0
  126.4526  125.2186   60.0759 H   0  0  0  0  0  0  0  0  0  0  0  0
  124.5368  124.7908   58.5418 H   0  0  0  0  0  0  0  0  0  0  0  0
  124.7458  123.0768   56.7471 H   0  0  0  0  0  0  0  0  0  0  0  0
  126.8602  121.7873   56.4774 H   0  0  0  0  0  0  0  0  0  0  0  0
  128.7751  122.2134   58.0136 H   0  0  0  0  0  0  0  0  0  0  0  0
  127.9481  125.7993   69.0642 H   0  0  0  0  0  0  0  0  0  0  0  0
  128.2671  126.4412   71.4443 H   0  0  0  0  0  0  0  0  0  0  0  0
  1  2  1  0
  2  3  1  0
  3  4  1  0
  4  5  2  0
  4  6  1  0
  6  7  2  0
  7  8  1  0
  8  9  2  0
  9 10  1  0
 10 11  1  0
 11 12  2  0
 11 13  1  0
 13 14  1  0
 14 15  1  0
 15 16  2  0
 16 17  1  0
 17 18  1  0
 17 19  2  0
 19 20  1  0
 20 21  1  0
 21 22  2  0
 22 23  1  0
 23 24  2  0
 24 25  1  0
 25 26  2  0
 20 27  2  0
 27 28  1  0
 28 29  3  0
  9 30  1  0
 30 31  2  0
 31  6  1  0
 27 15  1  0
 26 21  1  0
  1 32  1  0
  1 33  1  0
  1 34  1  0
  2 35  1  0
  2 36  1  0
  7 37  1  0
  8 38  1  0
 10 39  1  0
 13 40  1  0
 13 41  1  0
 18 42  1  0
 18 43  1  0
 18 44  1  0
 19 45  1  0
 22 46  1  0
 23 47  1  0
 24 48  1  0
 25 49  1  0
 26 50  1  0
 30 51  1  0
 31 52  1  0
M  END
>  <Binding energies>  (1) 
[-8.3]

>  <Ligand effiencies>  (1) 
[-0.259375]

>  <Interactions>  (1) 
["V-B:PRO:540:N:9856, V-B:TYR:539:CD2:9846, V-A:GLU:543:CD:4908, V-B:LEU:363:CD1:8160, V-B:PRO:540:CB:9857, V-B:PRO:540:CD:9859, H-A:TYR:484:OH:4348, V-B:TYR:539:CE2:9848, V-B:TYR:539:CZ:9849, V-B:PRO:540:CA:9855, V-A:ASP:366:CB:3212, H-B:ALA:541:N:9863, V-A:ASP:366:CG:3213, H-A:GLU:543:OE2:4910, V-B:GLU:543:CB:9878, V-B:GLU:543:CG:9879, V-B:GLU:543:CD:9880, V-B:HIS:456:CD2:9039, V-A:GLY:544:C:4912, V-A:HIS:456:CE1:4070, V-B:GLU:543:C:9874, H-A:LYS:547:NZ:4951, V-A:GLU:543:CB:4906, V-A:GLU:543:C:4902, V-B:TYR:539:CG:9844, V-B:TYR:539:C:9839, H-B:GLU:543:OE2:9882"]

$$$$
3cb_Grossjean_2025
     RDKit          3D

 49 51  0  0  0  0  0  0  0  0999 V2000
  129.3960  131.0020   73.3640 C   0  0  0  0  0  0  0  0  0  0  0  0
  129.7500  129.6280   73.4230 O   0  0  0  0  0  0  0  0  0  0  0  0
  128.8960  128.6660   72.9870 C   0  0  0  0  0  0  0  0  0  0  0  0
  127.9340  128.2610   73.6460 O   0  0  0  0  0  0  0  0  0  0  0  0
  129.2400  128.1420   71.6210 C   0  0  0  0  0  0  0  0  0  0  0  0
  128.3530  127.3400   70.8880 C   0  0  0  0  0  0  0  0  0  0  0  0
  128.7020  126.8730   69.6240 C   0  0  0  0  0  0  0  0  0  0  0  0
  129.9420  127.1910   69.0680 C   0  0  0  0  0  0  0  0  0  0  0  0
  130.1890  126.6680   67.7830 N   0  0  0  0  0  0  0  0  0  0  0  0
  130.1070  125.3970   67.3330 C   0  0  0  0  0  0  0  0  0  0  0  0
  129.7630  124.4290   68.0120 O   0  0  0  0  0  0  0  0  0  0  0  0
  130.4670  125.2230   65.8490 C   0  0  0  0  0  0  0  0  0  0  0  0
  130.3100  123.5190   65.2140 S   0  0  0  0  0  0  0  0  0  0  0  0
  130.0540  123.6150   63.4540 C   0  0  0  0  0  0  0  0  0  0  0  0
  128.7940  123.2940   63.0740 N   0  0  0  0  0  0  0  0  0  0  0  0
  128.4830  123.3320   61.7590 C   0  0  0  0  0  0  0  0  0  0  0  0
  127.0520  122.9730   61.4080 C   0  0  0  0  0  0  0  0  0  0  0  0
  129.4090  123.6830   60.7800 C   0  0  0  0  0  0  0  0  0  0  0  0
  130.7220  124.0040   61.1480 C   0  0  0  0  0  0  0  0  0  0  0  0
  131.6800  124.3680   60.0600 C   0  0  0  0  0  0  0  0  0  0  0  0
  131.4000  125.4430   59.2070 C   0  0  0  0  0  0  0  0  0  0  0  0
  132.2910  125.7980   58.1970 C   0  0  0  0  0  0  0  0  0  0  0  0
  133.4720  125.0780   58.0380 C   0  0  0  0  0  0  0  0  0  0  0  0
  133.7700  124.0110   58.8810 C   0  0  0  0  0  0  0  0  0  0  0  0
  132.8780  123.6610   59.8910 C   0  0  0  0  0  0  0  0  0  0  0  0
  131.0670  123.9550   62.5240 C   0  0  0  0  0  0  0  0  0  0  0  0
  132.4480  124.1890   62.9570 C   0  0  0  0  0  0  0  0  0  0  0  0
  133.5380  124.3740   63.2980 N   0  0  0  0  0  0  0  0  0  0  0  0
  130.8330  127.9960   69.7930 C   0  0  0  0  0  0  0  0  0  0  0  0
  130.4830  128.4640   71.0580 C   0  0  0  0  0  0  0  0  0  0  0  0
  129.2938  131.3985   74.3850 H   0  0  0  0  0  0  0  0  0  0  0  0
  130.1797  131.5600   72.8307 H   0  0  0  0  0  0  0  0  0  0  0  0
  128.4402  131.1118   72.8307 H   0  0  0  0  0  0  0  0  0  0  0  0
  127.3739  127.0780   71.3154 H   0  0  0  0  0  0  0  0  0  0  0  0
  127.9947  126.2483   69.0588 H   0  0  0  0  0  0  0  0  0  0  0  0
  130.4410  127.3660   67.0970 H   0  0  0  0  0  0  0  0  0  0  0  0
  129.8023  125.8703   65.2581 H   0  0  0  0  0  0  0  0  0  0  0  0
  131.5302  125.4897   65.7564 H   0  0  0  0  0  0  0  0  0  0  0  0
  126.4732  122.8278   62.3321 H   0  0  0  0  0  0  0  0  0  0  0  0
  126.6039  123.7866   60.8187 H   0  0  0  0  0  0  0  0  0  0  0  0
  127.0410  122.0443   60.8187 H   0  0  0  0  0  0  0  0  0  0  0  0
  129.1106  123.7081   59.7216 H   0  0  0  0  0  0  0  0  0  0  0  0
  130.4676  126.0123   59.3359 H   0  0  0  0  0  0  0  0  0  0  0  0
  132.0630  126.6419   57.5292 H   0  0  0  0  0  0  0  0  0  0  0  0
  134.1758  125.3547   57.2392 H   0  0  0  0  0  0  0  0  0  0  0  0
  134.7054  123.4473   58.7498 H   0  0  0  0  0  0  0  0  0  0  0  0
  133.1157  122.8224   60.5620 H   0  0  0  0  0  0  0  0  0  0  0  0
  131.8104  128.2585   69.3619 H   0  0  0  0  0  0  0  0  0  0  0  0
  131.1891  129.0924   71.6206 H   0  0  0  0  0  0  0  0  0  0  0  0
  1  2  1  0
  2  3  1  0
  3  4  2  0
  3  5  1  0
  5  6  2  0
  6  7  1  0
  7  8  2  0
  8  9  1  0
  9 10  1  0
 10 11  2  0
 10 12  1  0
 12 13  1  0
 13 14  1  0
 14 15  2  0
 15 16  1  0
 16 17  1  0
 16 18  2  0
 18 19  1  0
 19 20  1  0
 20 21  2  0
 21 22  1  0
 22 23  2  0
 23 24  1  0
 24 25  2  0
 19 26  2  0
 26 27  1  0
 27 28  3  0
  8 29  1  0
 29 30  2  0
 30  5  1  0
 26 14  1  0
 25 20  1  0
  1 31  1  0
  1 32  1  0
  1 33  1  0
  6 34  1  0
  7 35  1  0
  9 36  1  0
 12 37  1  0
 12 38  1  0
 17 39  1  0
 17 40  1  0
 17 41  1  0
 18 42  1  0
 21 43  1  0
 22 44  1  0
 23 45  1  0
 24 46  1  0
 25 47  1  0
 29 48  1  0
 30 49  1  0
M  END
>  <Binding energies>  (1) 
[-8.5]

>  <Ligand effiencies>  (1) 
[-0.27419354838709675]

>  <Interactions>  (1) 
["V-A:GLU:543:CD:4908, H-A:GLY:454:N:4050, V-B:PRO:540:CB:9857, H-A:TYR:484:OH:4348, V-B:TYR:539:CE2:9848, V-B:PRO:540:CA:9855, V-A:ASP:366:CB:3212, V-A:ASP:366:CG:3213, V-A:ILE:369:CG2:3237, V-A:ILE:369:CB:3236, H-A:GLU:543:OE2:4910, V-B:GLU:543:CB:9878, V-B:GLU:543:CG:9879, V-A:TYR:484:CE2:4346, V-A:ASP:366:CA:3210, V-B:HIS:456:CD2:9039, V-A:GLY:544:C:4912, V-A:LYS:547:CE:4950, V-A:HIS:456:CE1:4070, H-B:LYS:547:NZ:9923, V-B:HIS:456:CE1:9041, V-B:GLU:543:C:9874, H-A:LYS:547:NZ:4951, H-A:ARG:545:NH2:4928, V-A:GLU:543:CB:4906, V-A:GLU:543:C:4902, V-B:PRO:540:C:9853, V-A:GLY:544:CA:4914, V-A:ASP:366:C:3208"]

$$$$
3ce_Grossjean_2025
     RDKit          3D

 45 47  0  0  0  0  0  0  0  0999 V2000
  132.2150  126.1010   57.8300 C   0  0  0  0  0  0  0  0  0  0  0  0
  132.7340  125.2950   59.0050 C   0  0  0  0  0  0  0  0  0  0  0  0
  133.8080  124.4120   58.8680 C   0  0  0  0  0  0  0  0  0  0  0  0
  134.2380  123.7110   59.9940 C   0  0  0  0  0  0  0  0  0  0  0  0
  133.5920  123.9040   61.2170 C   0  0  0  0  0  0  0  0  0  0  0  0
  132.5150  124.7960   61.2820 C   0  0  0  0  0  0  0  0  0  0  0  0
  131.9150  124.9650   62.5420 N   0  0  0  0  0  0  0  0  0  0  0  0
  132.5030  124.9320   63.7580 C   0  0  0  0  0  0  0  0  0  0  0  0
  133.7050  124.7470   63.9580 O   0  0  0  0  0  0  0  0  0  0  0  0
  131.5730  125.1540   64.9500 C   0  0  0  0  0  0  0  0  0  0  0  0
  129.8560  125.4440   64.4270 S   0  0  0  0  0  0  0  0  0  0  0  0
  129.2230  126.6960   65.5190 C   0  0  0  0  0  0  0  0  0  0  0  0
  128.7780  127.8080   64.8830 N   0  0  0  0  0  0  0  0  0  0  0  0
  128.2610  128.8130   65.6260 C   0  0  0  0  0  0  0  0  0  0  0  0
  127.7700  130.0210   64.8510 C   0  0  0  0  0  0  0  0  0  0  0  0
  128.1810  128.7560   67.0150 C   0  0  0  0  0  0  0  0  0  0  0  0
  128.6590  127.6260   67.6910 C   0  0  0  0  0  0  0  0  0  0  0  0
  128.5740  127.6210   69.1830 C   0  0  0  0  0  0  0  0  0  0  0  0
  129.5870  128.2150   69.9460 C   0  0  0  0  0  0  0  0  0  0  0  0
  129.5180  128.2090   71.3370 C   0  0  0  0  0  0  0  0  0  0  0  0
  128.4380  127.6020   71.9720 C   0  0  0  0  0  0  0  0  0  0  0  0
  127.4280  126.9970   71.2270 C   0  0  0  0  0  0  0  0  0  0  0  0
  127.4990  127.0060   69.8370 C   0  0  0  0  0  0  0  0  0  0  0  0
  129.1940  126.5580   66.9270 C   0  0  0  0  0  0  0  0  0  0  0  0
  129.6950  125.3440   67.5790 C   0  0  0  0  0  0  0  0  0  0  0  0
  130.0910  124.3870   68.0940 N   0  0  0  0  0  0  0  0  0  0  0  0
  132.0930  125.4920   60.1850 N   0  0  0  0  0  0  0  0  0  0  0  0
  131.6545  126.9715   58.2015 H   0  0  0  0  0  0  0  0  0  0  0  0
  133.0622  126.4443   57.2181 H   0  0  0  0  0  0  0  0  0  0  0  0
  131.5519  125.4718   57.2181 H   0  0  0  0  0  0  0  0  0  0  0  0
  134.3025  124.2731   57.8953 H   0  0  0  0  0  0  0  0  0  0  0  0
  135.0819  123.0094   59.9194 H   0  0  0  0  0  0  0  0  0  0  0  0
  133.9243  123.3634   62.1155 H   0  0  0  0  0  0  0  0  0  0  0  0
  130.9410  125.2290   62.5170 H   0  0  0  0  0  0  0  0  0  0  0  0
  131.6026  124.2632   65.5946 H   0  0  0  0  0  0  0  0  0  0  0  0
  131.9197  126.0470   65.4907 H   0  0  0  0  0  0  0  0  0  0  0  0
  127.4518  130.8039   65.5552 H   0  0  0  0  0  0  0  0  0  0  0  0
  128.5831  130.4058   64.2179 H   0  0  0  0  0  0  0  0  0  0  0  0
  126.9190  129.7294   64.2179 H   0  0  0  0  0  0  0  0  0  0  0  0
  127.7447  129.5939   67.5785 H   0  0  0  0  0  0  0  0  0  0  0  0
  130.4428  128.6894   69.4434 H   0  0  0  0  0  0  0  0  0  0  0  0
  130.3136  128.6819   71.9315 H   0  0  0  0  0  0  0  0  0  0  0  0
  128.3816  127.6000   73.0706 H   0  0  0  0  0  0  0  0  0  0  0  0
  126.5794  126.5150   71.7344 H   0  0  0  0  0  0  0  0  0  0  0  0
  126.7042  126.5261   69.2472 H   0  0  0  0  0  0  0  0  0  0  0  0
  1  2  1  0
  2  3  2  0
  3  4  1  0
  4  5  2  0
  5  6  1  0
  6  7  1  0
  7  8  1  0
  8  9  2  0
  8 10  1  0
 10 11  1  0
 11 12  1  0
 12 13  2  0
 13 14  1  0
 14 15  1  0
 14 16  2  0
 16 17  1  0
 17 18  1  0
 18 19  2  0
 19 20  1  0
 20 21  2  0
 21 22  1  0
 22 23  2  0
 17 24  2  0
 24 25  1  0
 25 26  3  0
  6 27  2  0
 27  2  1  0
 24 12  1  0
 23 18  1  0
  1 28  1  0
  1 29  1  0
  1 30  1  0
  3 31  1  0
  4 32  1  0
  5 33  1  0
  7 34  1  0
 10 35  1  0
 10 36  1  0
 15 37  1  0
 15 38  1  0
 15 39  1  0
 16 40  1  0
 19 41  1  0
 20 42  1  0
 21 43  1  0
 22 44  1  0
 23 45  1  0
M  END
>  <Binding energies>  (1) 
[-7.74]

>  <Ligand effiencies>  (1) 
[-0.2764285714285714]

>  <Interactions>  (1) 
["V-A:GLU:543:CD:4908, H-A:GLY:454:N:4050, H-A:TYR:484:OH:4348, V-B:TYR:539:CE2:9848, H-A:ARG:545:NE:4924, V-A:ARG:545:CZ:4926, V-A:ASP:366:CB:3212, V-A:TYR:531:CZ:4794, V-A:ILE:369:CD1:3239, V-A:ASP:366:CG:3213, V-A:ILE:369:CG2:3237, V-A:ILE:369:CG1:3238, V-A:ILE:369:CB:3236, V-B:GLU:543:CB:9878, V-B:GLU:543:CG:9879, V-A:TYR:484:CE2:4346, V-B:GLU:543:CD:9880, V-A:ASP:366:CA:3210, V-B:HIS:456:CD2:9039, V-B:GLY:544:C:9884, V-B:GLY:544:CA:9886, V-A:HIS:456:CE1:4070, V-B:HIS:456:CE1:9041, V-B:GLU:543:C:9874, H-A:ARG:545:NH2:4928, V-A:GLU:543:CB:4906, V-A:GLU:543:C:4902, V-A:GLU:543:CG:4907, V-B:GLU:543:CA:9876, V-A:ASP:366:C:3208"]

$$$$
3ch_Grossjean_2025
     RDKit          3D

 55 57  0  0  0  0  0  0  0  0999 V2000
  129.3360  130.6820   73.3230 C   0  0  0  0  0  0  0  0  0  0  0  0
  130.1020  129.5500   72.9250 O   0  0  0  0  0  0  0  0  0  0  0  0
  129.5440  128.6130   72.0740 C   0  0  0  0  0  0  0  0  0  0  0  0
  129.4920  128.7540   70.6770 C   0  0  0  0  0  0  0  0  0  0  0  0
  128.9180  127.7560   69.8750 C   0  0  0  0  0  0  0  0  0  0  0  0
  128.8260  127.8050   68.4710 N   0  0  0  0  0  0  0  0  0  0  0  0
  128.6280  128.8640   67.6560 C   0  0  0  0  0  0  0  0  0  0  0  0
  128.5010  130.0330   68.0210 O   0  0  0  0  0  0  0  0  0  0  0  0
  128.6080  128.5500   66.1600 C   0  0  0  0  0  0  0  0  0  0  0  0
  127.0100  128.9560   65.3950 S   0  0  0  0  0  0  0  0  0  0  0  0
  127.2750  130.4470   64.4610 C   0  0  0  0  0  0  0  0  0  0  0  0
  128.5790  130.7990   64.3460 N   0  0  0  0  0  0  0  0  0  0  0  0
  128.8870  131.9230   63.6590 C   0  0  0  0  0  0  0  0  0  0  0  0
  130.3630  132.2620   63.5740 C   0  0  0  0  0  0  0  0  0  0  0  0
  127.9180  132.7310   63.0690 C   0  0  0  0  0  0  0  0  0  0  0  0
  126.5650  132.3800   63.1700 C   0  0  0  0  0  0  0  0  0  0  0  0
  125.5600  133.2820   62.5300 C   0  0  0  0  0  0  0  0  0  0  0  0
  125.8300  133.8660   61.2870 C   0  0  0  0  0  0  0  0  0  0  0  0
  124.9030  134.7150   60.6880 C   0  0  0  0  0  0  0  0  0  0  0  0
  123.6990  134.9850   61.3340 C   0  0  0  0  0  0  0  0  0  0  0  0
  123.4170  134.4180   62.5730 C   0  0  0  0  0  0  0  0  0  0  0  0
  124.3480  133.5710   63.1700 C   0  0  0  0  0  0  0  0  0  0  0  0
  126.2280  131.1930   63.8710 C   0  0  0  0  0  0  0  0  0  0  0  0
  124.8390  130.7270   63.9270 C   0  0  0  0  0  0  0  0  0  0  0  0
  123.7420  130.3590   63.9740 N   0  0  0  0  0  0  0  0  0  0  0  0
  128.3770  126.6230   70.4840 C   0  0  0  0  0  0  0  0  0  0  0  0
  128.4140  126.4610   71.8770 C   0  0  0  0  0  0  0  0  0  0  0  0
  127.9020  125.3590   72.5420 O   0  0  0  0  0  0  0  0  0  0  0  0
  128.6790  124.1690   72.6250 C   0  0  0  0  0  0  0  0  0  0  0  0
  128.9980  127.4640   72.6610 C   0  0  0  0  0  0  0  0  0  0  0  0
  129.0570  127.3100   74.0260 O   0  0  0  0  0  0  0  0  0  0  0  0
  130.2850  126.7690   74.4950 C   0  0  0  0  0  0  0  0  0  0  0  0
  129.3012  130.7334   74.4212 H   0  0  0  0  0  0  0  0  0  0  0  0
  129.8013  131.5970   72.9276 H   0  0  0  0  0  0  0  0  0  0  0  0
  128.3136  130.5903   72.9276 H   0  0  0  0  0  0  0  0  0  0  0  0
  129.9063  129.6578   70.2063 H   0  0  0  0  0  0  0  0  0  0  0  0
  128.9700  126.9150   68.0160 H   0  0  0  0  0  0  0  0  0  0  0  0
  129.3968  129.1351   65.6646 H   0  0  0  0  0  0  0  0  0  0  0  0
  128.7756  127.4696   66.0393 H   0  0  0  0  0  0  0  0  0  0  0  0
  130.7764  132.3570   64.5889 H   0  0  0  0  0  0  0  0  0  0  0  0
  130.8925  131.4621   63.0357 H   0  0  0  0  0  0  0  0  0  0  0  0
  130.4904  133.2128   63.0357 H   0  0  0  0  0  0  0  0  0  0  0  0
  128.2135  133.6409   62.5260 H   0  0  0  0  0  0  0  0  0  0  0  0
  126.7822  133.6526   60.7792 H   0  0  0  0  0  0  0  0  0  0  0  0
  125.1203  135.1698   59.7103 H   0  0  0  0  0  0  0  0  0  0  0  0
  122.9642  135.6527   60.8603 H   0  0  0  0  0  0  0  0  0  0  0  0
  122.4647  134.6373   63.0780 H   0  0  0  0  0  0  0  0  0  0  0  0
  124.1296  133.1256   64.1518 H   0  0  0  0  0  0  0  0  0  0  0  0
  127.9136  125.8436   69.8612 H   0  0  0  0  0  0  0  0  0  0  0  0
  128.8461  123.9131   73.6817 H   0  0  0  0  0  0  0  0  0  0  0  0
  128.1436  123.3462   72.1287 H   0  0  0  0  0  0  0  0  0  0  0  0
  129.6477  124.3282   72.1287 H   0  0  0  0  0  0  0  0  0  0  0  0
  130.2886  126.7674   75.5950 H   0  0  0  0  0  0  0  0  0  0  0  0
  130.3962  125.7386   74.1265 H   0  0  0  0  0  0  0  0  0  0  0  0
  131.1204  127.3824   74.1265 H   0  0  0  0  0  0  0  0  0  0  0  0
  1  2  1  0
  2  3  1  0
  3  4  2  0
  4  5  1  0
  5  6  1  0
  6  7  1  0
  7  8  2  0
  7  9  1  0
  9 10  1  0
 10 11  1  0
 11 12  2  0
 12 13  1  0
 13 14  1  0
 13 15  2  0
 15 16  1  0
 16 17  1  0
 17 18  2  0
 18 19  1  0
 19 20  2  0
 20 21  1  0
 21 22  2  0
 16 23  2  0
 23 24  1  0
 24 25  3  0
  5 26  2  0
 26 27  1  0
 27 28  1  0
 28 29  1  0
 27 30  2  0
 30 31  1  0
 31 32  1  0
 30  3  1  0
 23 11  1  0
 22 17  1  0
  1 33  1  0
  1 34  1  0
  1 35  1  0
  4 36  1  0
  6 37  1  0
  9 38  1  0
  9 39  1  0
 14 40  1  0
 14 41  1  0
 14 42  1  0
 15 43  1  0
 18 44  1  0
 19 45  1  0
 20 46  1  0
 21 47  1  0
 22 48  1  0
 26 49  1  0
 29 50  1  0
 29 51  1  0
 29 52  1  0
 32 53  1  0
 32 54  1  0
 32 55  1  0
M  END
>  <Binding energies>  (1) 
[-7.32]

>  <Ligand effiencies>  (1) 
[-0.22181818181818183]

>  <Interactions>  (1) 
["V-A:GLU:543:CD:4908, V-A:TYR:539:CD1:4873, V-B:GLY:454:CA:9020, V-B:ILE:369:CG2:8208, V-B:LEU:475:CD2:9230, V-A:TYR:539:CE1:4875, H-B:GLY:454:N:9021, H-B:ARG:545:NH2:9900, V-B:HIS:456:CD2:9039, V-B:GLY:544:CA:9886, V-A:HIS:456:CD2:4068, V-A:LYS:547:CE:4950, H-B:LYS:547:NZ:9923, V-B:LYS:547:CE:9922, V-B:HIS:456:CE1:9041, V-B:GLU:543:C:9874, H-A:LYS:547:NZ:4951, V-A:GLU:543:CB:4906, V-A:GLU:543:C:4902, H-B:TYR:484:OH:9319, V-A:ALA:541:CB:4892, V-A:GLU:543:CG:4907, V-B:SER:385:CB:8380, V-B:SER:385:CA:8378, V-B:SER:385:C:8376, V-A:ALA:541:CA:4890, V-A:ALA:541:C:4888"]

$$$$
3ci_Grossjean_2025
     RDKit          3D

 39 41  0  0  0  0  0  0  0  0999 V2000
  127.6680  130.3350   64.7110 C   0  0  0  0  0  0  0  0  0  0  0  0
  128.2150  129.0570   65.3180 C   0  0  0  0  0  0  0  0  0  0  0  0
  128.3910  128.9170   66.6920 C   0  0  0  0  0  0  0  0  0  0  0  0
  128.8850  127.7110   67.2070 C   0  0  0  0  0  0  0  0  0  0  0  0
  129.0430  127.6000   68.6880 C   0  0  0  0  0  0  0  0  0  0  0  0
  130.2400  127.9790   69.3110 C   0  0  0  0  0  0  0  0  0  0  0  0
  130.3850  127.8670   70.6910 C   0  0  0  0  0  0  0  0  0  0  0  0
  129.3350  127.3670   71.4560 C   0  0  0  0  0  0  0  0  0  0  0  0
  128.1420  126.9770   70.8510 C   0  0  0  0  0  0  0  0  0  0  0  0
  128.0000  127.0920   69.4710 C   0  0  0  0  0  0  0  0  0  0  0  0
  129.2010  126.6690   66.2980 C   0  0  0  0  0  0  0  0  0  0  0  0
  129.7610  125.4000   66.7750 C   0  0  0  0  0  0  0  0  0  0  0  0
  130.2030  124.3980   67.1540 N   0  0  0  0  0  0  0  0  0  0  0  0
  128.9860  126.8930   64.9170 C   0  0  0  0  0  0  0  0  0  0  0  0
  129.3290  125.6420   63.6860 S   0  0  0  0  0  0  0  0  0  0  0  0
  130.9050  126.0240   62.8530 C   0  0  0  0  0  0  0  0  0  0  0  0
  132.1320  125.4770   63.5910 C   0  0  0  0  0  0  0  0  0  0  0  0
  132.9600  124.8100   62.9690 O   0  0  0  0  0  0  0  0  0  0  0  0
  132.2010  125.7670   64.9090 N   0  0  0  0  0  0  0  0  0  0  0  0
  133.2110  125.4190   65.7950 C   0  0  0  0  0  0  0  0  0  0  0  0
  133.0750  125.5140   67.1790 C   0  0  0  0  0  0  0  0  0  0  0  0
  134.2810  125.0860   67.6880 C   0  0  0  0  0  0  0  0  0  0  0  0
  135.0990  124.7490   66.6610 O   0  0  0  0  0  0  0  0  0  0  0  0
  134.4100  124.9660   65.4670 N   0  0  0  0  0  0  0  0  0  0  0  0
  128.5080  128.0710   64.4420 N   0  0  0  0  0  0  0  0  0  0  0  0
  127.3725  131.0254   65.5147 H   0  0  0  0  0  0  0  0  0  0  0  0
  128.4431  130.8066   64.0891 H   0  0  0  0  0  0  0  0  0  0  0  0
  126.7917  130.0998   64.0891 H   0  0  0  0  0  0  0  0  0  0  0  0
  128.1438  129.7479   67.3691 H   0  0  0  0  0  0  0  0  0  0  0  0
  131.0713  128.3680   68.7047 H   0  0  0  0  0  0  0  0  0  0  0  0
  131.3247  128.1721   71.1746 H   0  0  0  0  0  0  0  0  0  0  0  0
  129.4480  127.2791   72.5466 H   0  0  0  0  0  0  0  0  0  0  0  0
  127.3168  126.5803   71.4606 H   0  0  0  0  0  0  0  0  0  0  0  0
  127.0600  126.7810   68.9918 H   0  0  0  0  0  0  0  0  0  0  0  0
  130.8812  125.5863   61.8441 H   0  0  0  0  0  0  0  0  0  0  0  0
  131.0023  127.1194   62.8289 H   0  0  0  0  0  0  0  0  0  0  0  0
  131.4520  126.3180   65.3010 H   0  0  0  0  0  0  0  0  0  0  0  0
  132.1948  125.8567   67.7427 H   0  0  0  0  0  0  0  0  0  0  0  0
  134.5389  125.0271   68.7557 H   0  0  0  0  0  0  0  0  0  0  0  0
  1  2  1  0
  2  3  2  0
  3  4  1  0
  4  5  1  0
  5  6  2  0
  6  7  1  0
  7  8  2  0
  8  9  1  0
  9 10  2  0
  4 11  2  0
 11 12  1  0
 12 13  3  0
 11 14  1  0
 14 15  1  0
 15 16  1  0
 16 17  1  0
 17 18  2  0
 17 19  1  0
 19 20  1  0
 20 21  1  0
 21 22  2  0
 22 23  1  0
 23 24  1  0
 14 25  2  0
 25  2  1  0
 10  5  1  0
 24 20  2  0
  1 26  1  0
  1 27  1  0
  1 28  1  0
  3 29  1  0
  6 30  1  0
  7 31  1  0
  8 32  1  0
  9 33  1  0
 10 34  1  0
 16 35  1  0
 16 36  1  0
 19 37  1  0
 21 38  1  0
 22 39  1  0
M  END
>  <Binding energies>  (1) 
[-7.39]

>  <Ligand effiencies>  (1) 
[-0.28423076923076923]

>  <Interactions>  (1) 
["V-A:ARG:545:CD:4923, V-A:GLU:543:CD:4908, H-A:GLY:454:N:4050, H-A:TYR:484:OH:4348, H-A:ARG:545:NE:4924, V-A:ARG:545:CZ:4926, V-A:TYR:484:CZ:4347, H-A:GLU:543:OE2:4910, V-B:GLU:543:CB:9878, V-B:GLU:543:CG:9879, V-B:GLU:543:CD:9880, V-A:GLY:544:C:4912, V-A:HIS:456:CE1:4070, V-B:HIS:456:CE1:9041, V-B:GLU:543:C:9874, H-A:GLU:543:OE1:4909, H-A:ARG:545:NH2:4928, V-A:GLU:543:CB:4906, V-A:GLU:543:C:4902, V-A:GLU:543:CG:4907, V-A:ILE:455:C:4052, V-A:ARG:545:CB:4921, V-A:ARG:545:CG:4922, H-A:ARG:545:NH1:4927, H-A:ILE:455:N:4055"]

$$$$
3cj_Grossjean_2025
     RDKit          3D

 39 41  0  0  0  0  0  0  0  0999 V2000
  128.7690  122.0230   60.6370 C   0  0  0  0  0  0  0  0  0  0  0  0
  129.8410  122.6520   61.5050 C   0  0  0  0  0  0  0  0  0  0  0  0
  129.5190  123.3780   62.6490 C   0  0  0  0  0  0  0  0  0  0  0  0
  130.5450  123.9240   63.4340 C   0  0  0  0  0  0  0  0  0  0  0  0
  130.1560  124.6380   64.6860 C   0  0  0  0  0  0  0  0  0  0  0  0
  129.7100  125.9640   64.6380 C   0  0  0  0  0  0  0  0  0  0  0  0
  129.3600  126.6340   65.8080 C   0  0  0  0  0  0  0  0  0  0  0  0
  129.4630  125.9800   67.0320 C   0  0  0  0  0  0  0  0  0  0  0  0
  129.9140  124.6640   67.0970 C   0  0  0  0  0  0  0  0  0  0  0  0
  130.2630  123.9960   65.9250 C   0  0  0  0  0  0  0  0  0  0  0  0
  131.8850  123.7430   63.0130 C   0  0  0  0  0  0  0  0  0  0  0  0
  133.0000  124.3140   63.7760 C   0  0  0  0  0  0  0  0  0  0  0  0
  133.8790  124.7630   64.3800 N   0  0  0  0  0  0  0  0  0  0  0  0
  132.1200  122.9880   61.8420 C   0  0  0  0  0  0  0  0  0  0  0  0
  133.7560  122.5730   61.2770 S   0  0  0  0  0  0  0  0  0  0  0  0
  134.2680  123.9880   60.2500 C   0  0  0  0  0  0  0  0  0  0  0  0
  133.2520  124.2870   59.1430 C   0  0  0  0  0  0  0  0  0  0  0  0
  133.5300  124.0130   57.9740 O   0  0  0  0  0  0  0  0  0  0  0  0
  132.0800  124.8110   59.5600 N   0  0  0  0  0  0  0  0  0  0  0  0
  130.9560  125.0450   58.7850 C   0  0  0  0  0  0  0  0  0  0  0  0
  129.8600  124.3210   58.7100 N   0  0  0  0  0  0  0  0  0  0  0  0
  128.9800  124.8600   57.8910 C   0  0  0  0  0  0  0  0  0  0  0  0
  129.3570  126.0510   57.2770 C   0  0  0  0  0  0  0  0  0  0  0  0
  130.9560  126.4800   57.8090 S   0  0  0  0  0  0  0  0  0  0  0  0
  131.1160  122.4450   61.1070 N   0  0  0  0  0  0  0  0  0  0  0  0
  127.9976  121.5704   61.2773 H   0  0  0  0  0  0  0  0  0  0  0  0
  128.3113  122.7958   60.0019 H   0  0  0  0  0  0  0  0  0  0  0  0
  129.2203  121.2465   60.0019 H   0  0  0  0  0  0  0  0  0  0  0  0
  128.4667  123.5223   62.9351 H   0  0  0  0  0  0  0  0  0  0  0  0
  129.6354  126.4805   63.6697 H   0  0  0  0  0  0  0  0  0  0  0  0
  129.0043  127.6740   65.7647 H   0  0  0  0  0  0  0  0  0  0  0  0
  129.1856  126.5073   67.9567 H   0  0  0  0  0  0  0  0  0  0  0  0
  129.9943  124.1545   68.0686 H   0  0  0  0  0  0  0  0  0  0  0  0
  130.6246  122.9583   65.9739 H   0  0  0  0  0  0  0  0  0  0  0  0
  134.3666  124.8760   60.8916 H   0  0  0  0  0  0  0  0  0  0  0  0
  135.2267  123.7347   59.7738 H   0  0  0  0  0  0  0  0  0  0  0  0
  131.9710  124.9730   60.5510 H   0  0  0  0  0  0  0  0  0  0  0  0
  128.0013  124.3945   57.7028 H   0  0  0  0  0  0  0  0  0  0  0  0
  128.7428  126.6276   56.5697 H   0  0  0  0  0  0  0  0  0  0  0  0
  1  2  1  0
  2  3  2  0
  3  4  1  0
  4  5  1  0
  5  6  2  0
  6  7  1  0
  7  8  2  0
  8  9  1  0
  9 10  2  0
  4 11  2  0
 11 12  1  0
 12 13  3  0
 11 14  1  0
 14 15  1  0
 15 16  1  0
 16 17  1  0
 17 18  2  0
 17 19  1  0
 19 20  1  0
 20 21  2  0
 21 22  1  0
 22 23  2  0
 23 24  1  0
 14 25  2  0
 25  2  1  0
 10  5  1  0
 24 20  1  0
  1 26  1  0
  1 27  1  0
  1 28  1  0
  3 29  1  0
  6 30  1  0
  7 31  1  0
  8 32  1  0
  9 33  1  0
 10 34  1  0
 16 35  1  0
 16 36  1  0
 19 37  1  0
 22 38  1  0
 23 39  1  0
M  END
>  <Binding energies>  (1) 
[-6.87]

>  <Ligand effiencies>  (1) 
[-0.2642307692307692]

>  <Interactions>  (1) 
["V-B:TYR:539:CD2:9846, V-A:GLU:543:CD:4908, H-A:GLY:454:N:4050, H-A:TYR:484:OH:4348, V-B:TYR:539:CE2:9848, V-B:TYR:539:CZ:9849, H-A:ARG:545:NE:4924, V-A:LEU:475:CD2:4259, V-B:PRO:540:CA:9855, V-A:ASP:366:CB:3212, V-A:ILE:369:CD1:3239, V-A:ASP:366:CG:3213, V-A:ILE:369:CG2:3237, V-A:TYR:484:CZ:4347, V-A:ILE:369:CB:3236, V-B:GLU:543:CB:9878, V-B:GLU:543:CG:9879, V-A:TYR:484:CE2:4346, V-B:GLU:543:CD:9880, H-B:TYR:539:OH:9850, V-A:ASP:366:CA:3210, V-A:HIS:456:CE1:4070, H-A:ARG:545:NH2:4928, V-B:PRO:540:C:9853, V-B:TYR:539:C:9839, V-B:GLU:543:CA:9876, H-A:ARG:545:NH1:4927"]

$$$$
3ck_Grossjean_2025
     RDKit          3D

 57 58  0  0  0  0  0  0  0  0999 V2000
  125.3690  123.6380   61.2990 C   0  0  0  0  0  0  0  0  0  0  0  0
  126.0910  122.9430   62.3050 O   0  0  0  0  0  0  0  0  0  0  0  0
  127.4870  123.2030   62.2820 C   0  0  0  0  0  0  0  0  0  0  0  0
  127.9520  123.3840   60.8310 C   0  0  0  0  0  0  0  0  0  0  0  0
  128.5000  122.1600   60.3570 O   0  0  0  0  0  0  0  0  0  0  0  0
  129.2380  121.4410   61.3360 C   0  0  0  0  0  0  0  0  0  0  0  0
  130.7360  121.6590   61.0940 C   0  0  0  0  0  0  0  0  0  0  0  0
  130.9290  122.9960   60.6560 O   0  0  0  0  0  0  0  0  0  0  0  0
  132.2400  123.2910   60.2000 C   0  0  0  0  0  0  0  0  0  0  0  0
  133.0600  123.9040   61.3500 C   0  0  0  0  0  0  0  0  0  0  0  0
  132.2500  124.3030   62.5050 N   0  0  0  0  0  0  0  0  0  0  0  0
  132.7270  124.6600   63.7110 C   0  0  0  0  0  0  0  0  0  0  0  0
  133.9300  124.7170   63.9730 O   0  0  0  0  0  0  0  0  0  0  0  0
  131.6640  125.0070   64.7660 C   0  0  0  0  0  0  0  0  0  0  0  0
  130.0230  125.4600   64.1050 S   0  0  0  0  0  0  0  0  0  0  0  0
  129.2880  126.7000   65.1600 C   0  0  0  0  0  0  0  0  0  0  0  0
  128.7910  127.7900   64.5240 N   0  0  0  0  0  0  0  0  0  0  0  0
  128.2240  128.7710   65.2620 C   0  0  0  0  0  0  0  0  0  0  0  0
  127.6940  129.9590   64.4820 C   0  0  0  0  0  0  0  0  0  0  0  0
  128.1300  128.7070   66.6500 C   0  0  0  0  0  0  0  0  0  0  0  0
  128.6410  127.5930   67.3280 C   0  0  0  0  0  0  0  0  0  0  0  0
  128.5390  127.5790   68.8180 C   0  0  0  0  0  0  0  0  0  0  0  0
  129.5630  128.1300   69.5990 C   0  0  0  0  0  0  0  0  0  0  0  0
  129.4790  128.1110   70.9890 C   0  0  0  0  0  0  0  0  0  0  0  0
  128.3720  127.5340   71.6050 C   0  0  0  0  0  0  0  0  0  0  0  0
  127.3490  126.9740   70.8420 C   0  0  0  0  0  0  0  0  0  0  0  0
  127.4360  126.9950   69.4530 C   0  0  0  0  0  0  0  0  0  0  0  0
  129.2280  126.5510   66.5650 C   0  0  0  0  0  0  0  0  0  0  0  0
  129.7430  125.3420   67.2190 C   0  0  0  0  0  0  0  0  0  0  0  0
  130.1480  124.3880   67.7340 N   0  0  0  0  0  0  0  0  0  0  0  0
  124.6532  124.3270   61.7712 H   0  0  0  0  0  0  0  0  0  0  0  0
  126.0701  124.2098   60.6733 H   0  0  0  0  0  0  0  0  0  0  0  0
  124.8244  122.9156   60.6733 H   0  0  0  0  0  0  0  0  0  0  0  0
  127.6982  124.1202   62.8514 H   0  0  0  0  0  0  0  0  0  0  0  0
  128.0241  122.3568   62.7353 H   0  0  0  0  0  0  0  0  0  0  0  0
  127.0951  123.6704   60.2035 H   0  0  0  0  0  0  0  0  0  0  0  0
  128.7173  124.1728   60.7849 H   0  0  0  0  0  0  0  0  0  0  0  0
  128.9702  121.8038   62.3393 H   0  0  0  0  0  0  0  0  0  0  0  0
  129.0029  120.3688   61.2643 H   0  0  0  0  0  0  0  0  0  0  0  0
  131.2917  121.4901   62.0282 H   0  0  0  0  0  0  0  0  0  0  0  0
  131.1024  120.9550   60.3323 H   0  0  0  0  0  0  0  0  0  0  0  0
  132.7254  122.3654   59.8569 H   0  0  0  0  0  0  0  0  0  0  0  0
  132.1850  124.0078   59.3674 H   0  0  0  0  0  0  0  0  0  0  0  0
  133.7987  123.1606   61.6843 H   0  0  0  0  0  0  0  0  0  0  0  0
  133.5310  124.8172   60.9573 H   0  0  0  0  0  0  0  0  0  0  0  0
  131.2500  124.2980   62.3680 H   0  0  0  0  0  0  0  0  0  0  0  0
  131.5366  124.1318   65.4200 H   0  0  0  0  0  0  0  0  0  0  0  0
  132.0368  125.8997   65.2896 H   0  0  0  0  0  0  0  0  0  0  0  0
  127.3486  130.7332   65.1829 H   0  0  0  0  0  0  0  0  0  0  0  0
  128.4947  130.3686   63.8487 H   0  0  0  0  0  0  0  0  0  0  0  0
  126.8543  129.6367   63.8487 H   0  0  0  0  0  0  0  0  0  0  0  0
  127.6571  129.5267   67.2107 H   0  0  0  0  0  0  0  0  0  0  0  0
  130.4397  128.5809   69.1110 H   0  0  0  0  0  0  0  0  0  0  0  0
  130.2836  128.5499   71.5973 H   0  0  0  0  0  0  0  0  0  0  0  0
  128.3041  127.5199   72.7028 H   0  0  0  0  0  0  0  0  0  0  0  0
  126.4777  126.5179   71.3347 H   0  0  0  0  0  0  0  0  0  0  0  0
  126.6318  126.5492   68.8492 H   0  0  0  0  0  0  0  0  0  0  0  0
  1  2  1  0
  2  3  1  0
  3  4  1  0
  4  5  1  0
  5  6  1  0
  6  7  1  0
  7  8  1  0
  8  9  1  0
  9 10  1  0
 10 11  1  0
 11 12  1  0
 12 13  2  0
 12 14  1  0
 14 15  1  0
 15 16  1  0
 16 17  2  0
 17 18  1  0
 18 19  1  0
 18 20  2  0
 20 21  1  0
 21 22  1  0
 22 23  2  0
 23 24  1  0
 24 25  2  0
 25 26  1  0
 26 27  2  0
 21 28  2  0
 28 29  1  0
 29 30  3  0
 28 16  1  0
 27 22  1  0
  1 31  1  0
  1 32  1  0
  1 33  1  0
  3 34  1  0
  3 35  1  0
  4 36  1  0
  4 37  1  0
  6 38  1  0
  6 39  1  0
  7 40  1  0
  7 41  1  0
  9 42  1  0
  9 43  1  0
 10 44  1  0
 10 45  1  0
 11 46  1  0
 14 47  1  0
 14 48  1  0
 19 49  1  0
 19 50  1  0
 19 51  1  0
 20 52  1  0
 23 53  1  0
 24 54  1  0
 25 55  1  0
 26 56  1  0
 27 57  1  0
M  END
>  <Binding energies>  (1) 
[-6.65]

>  <Ligand effiencies>  (1) 
[-0.21451612903225808]

>  <Interactions>  (1) 
["V-B:TYR:539:CD2:9846, V-A:GLU:543:CD:4908, H-A:GLY:454:N:4050, V-B:PRO:540:CB:9857, H-A:TYR:484:OH:4348, V-B:TYR:539:CE2:9848, H-A:ARG:545:NE:4924, V-A:ARG:545:CZ:4926, V-A:LEU:475:CD2:4259, V-B:PRO:540:CA:9855, H-B:ALA:541:N:9863, V-B:GLU:543:CB:9878, V-B:GLU:543:CG:9879, V-B:GLU:543:CD:9880, V-B:ALA:541:CB:9864, V-B:HIS:456:CD2:9039, V-B:GLY:544:C:9884, V-B:GLY:544:CA:9886, V-A:HIS:456:CE1:4070, V-B:HIS:456:CE1:9041, V-B:GLU:543:C:9874, H-A:ARG:545:NH2:4928, V-A:GLU:543:CB:4906, V-A:GLU:543:C:4902, V-A:GLU:543:CG:4907, V-B:PRO:540:C:9853, V-B:GLU:543:CA:9876, H-A:ARG:545:NH1:4927"]

$$$$
4aa_Grossjean_2025
     RDKit          3D

 45 47  0  0  0  0  0  0  0  0999 V2000
  126.3800  128.5470   74.5920 C   0  0  0  0  0  0  0  0  0  0  0  0
  126.7900  127.7900   73.3250 C   0  0  0  0  0  0  0  0  0  0  0  0
  128.1840  127.5140   73.3690 O   0  0  0  0  0  0  0  0  0  0  0  0
  129.0730  128.2830   72.6890 C   0  0  0  0  0  0  0  0  0  0  0  0
  129.6290  129.2740   73.1760 O   0  0  0  0  0  0  0  0  0  0  0  0
  129.3120  127.8120   71.2840 C   0  0  0  0  0  0  0  0  0  0  0  0
  130.5060  128.1590   70.6390 C   0  0  0  0  0  0  0  0  0  0  0  0
  130.7540  127.7420   69.3350 C   0  0  0  0  0  0  0  0  0  0  0  0
  129.8200  126.9620   68.6520 C   0  0  0  0  0  0  0  0  0  0  0  0
  130.1690  126.6030   67.3350 N   0  0  0  0  0  0  0  0  0  0  0  0
  130.1480  125.3930   66.7250 C   0  0  0  0  0  0  0  0  0  0  0  0
  129.8370  124.3410   67.2850 O   0  0  0  0  0  0  0  0  0  0  0  0
  130.5530  125.3960   65.3180 C   0  0  0  0  0  0  0  0  0  0  0  0
  129.3560  125.6570   64.0470 S   0  0  0  0  0  0  0  0  0  0  0  0
  130.5690  125.4720   62.8020 C   0  0  0  0  0  0  0  0  0  0  0  0
  130.2700  125.5690   61.5050 N   0  0  0  0  0  0  0  0  0  0  0  0
  131.3020  125.4000   60.6430 C   0  0  0  0  0  0  0  0  0  0  0  0
  130.9390  125.5100   59.1730 C   0  0  0  0  0  0  0  0  0  0  0  0
  132.6120  125.1440   61.0420 C   0  0  0  0  0  0  0  0  0  0  0  0
  132.9220  125.0440   62.4020 C   0  0  0  0  0  0  0  0  0  0  0  0
  134.3660  124.7620   62.7890 C   0  0  0  0  0  0  0  0  0  0  0  0
  131.8660  125.2100   63.3380 C   0  0  0  0  0  0  0  0  0  0  0  0
  131.8270  125.1680   64.7750 C   0  0  0  0  0  0  0  0  0  0  0  0
  132.9480  124.9280   65.5300 N   0  0  0  0  0  0  0  0  0  0  0  0
  128.6190  126.6130   69.2860 C   0  0  0  0  0  0  0  0  0  0  0  0
  128.3710  127.0350   70.5910 C   0  0  0  0  0  0  0  0  0  0  0  0
  126.6904  127.9739   75.4781 H   0  0  0  0  0  0  0  0  0  0  0  0
  126.8673  129.5331   74.6039 H   0  0  0  0  0  0  0  0  0  0  0  0
  125.2878  128.6776   74.6039 H   0  0  0  0  0  0  0  0  0  0  0  0
  126.2306  126.8447   73.2653 H   0  0  0  0  0  0  0  0  0  0  0  0
  126.5653  128.4050   72.4411 H   0  0  0  0  0  0  0  0  0  0  0  0
  131.2545  128.7668   71.1684 H   0  0  0  0  0  0  0  0  0  0  0  0
  131.6929  128.0292   68.8390 H   0  0  0  0  0  0  0  0  0  0  0  0
  130.4970  127.3740   66.7710 H   0  0  0  0  0  0  0  0  0  0  0  0
  129.8903  125.8278   59.0771 H   0  0  0  0  0  0  0  0  0  0  0  0
  131.5923  126.2505   58.6884 H   0  0  0  0  0  0  0  0  0  0  0  0
  131.0714  124.5314   58.6884 H   0  0  0  0  0  0  0  0  0  0  0  0
  133.4026  125.0205   60.2872 H   0  0  0  0  0  0  0  0  0  0  0  0
  134.4551  124.7446   63.8852 H   0  0  0  0  0  0  0  0  0  0  0  0
  134.6713  123.7873   62.3808 H   0  0  0  0  0  0  0  0  0  0  0  0
  135.0156  125.5502   62.3808 H   0  0  0  0  0  0  0  0  0  0  0  0
  133.8660  125.2240   65.2300 H   0  0  0  0  0  0  0  0  0  0  0  0
  132.8930  124.4430   66.4140 H   0  0  0  0  0  0  0  0  0  0  0  0
  127.8723  126.0059   68.7532 H   0  0  0  0  0  0  0  0  0  0  0  0
  127.4276  126.7560   71.0830 H   0  0  0  0  0  0  0  0  0  0  0  0
  1  2  1  0
  2  3  1  0
  3  4  1  0
  4  5  2  0
  4  6  1  0
  6  7  2  0
  7  8  1  0
  8  9  2  0
  9 10  1  0
 10 11  1  0
 11 12  2  0
 11 13  1  0
 13 14  1  0
 14 15  1  0
 15 16  2  0
 16 17  1  0
 17 18  1  0
 17 19  2  0
 19 20  1  0
 20 21  1  0
 20 22  2  0
 22 23  1  0
 23 24  1  0
  9 25  1  0
 25 26  2  0
 26  6  1  0
 23 13  2  0
 22 15  1  0
  1 27  1  0
  1 28  1  0
  1 29  1  0
  2 30  1  0
  2 31  1  0
  7 32  1  0
  8 33  1  0
 10 34  1  0
 18 35  1  0
 18 36  1  0
 18 37  1  0
 19 38  1  0
 21 39  1  0
 21 40  1  0
 21 41  1  0
 24 42  1  0
 24 43  1  0
 25 44  1  0
 26 45  1  0
M  END
>  <Binding energies>  (1) 
[-7.08]

>  <Ligand effiencies>  (1) 
[-0.24413793103448275]

>  <Interactions>  (1) 
["V-A:GLU:543:CD:4908, H-A:TYR:484:OH:4348, V-A:ARG:545:CZ:4926, V-A:GLY:453:C:4042, V-A:ASP:366:CG:3213, V-A:TYR:484:CZ:4347, H-A:GLU:543:OE2:4910, V-B:GLU:543:CB:9878, V-B:GLU:543:CG:9879, V-B:GLU:543:CD:9880, V-B:HIS:456:CD2:9039, V-A:GLY:544:C:4912, V-B:HIS:456:CB:9036, V-B:GLY:544:C:9884, V-B:HIS:456:CG:9037, V-A:HIS:456:CE1:4070, H-B:LYS:547:NZ:9923, V-B:LYS:547:CE:9922, V-B:HIS:456:CE1:9041, V-B:GLU:543:C:9874, H-A:LYS:547:NZ:4951, H-A:GLU:543:OE1:4909, V-A:GLU:543:CB:4906, V-A:GLU:543:C:4902, V-A:GLY:453:CA:4044"]

$$$$
4ab_Grossjean_2025
     RDKit          3D

 42 44  0  0  0  0  0  0  0  0999 V2000
  129.3950  130.7080   73.3470 C   0  0  0  0  0  0  0  0  0  0  0  0
  129.9070  129.4200   73.0360 O   0  0  0  0  0  0  0  0  0  0  0  0
  129.0780  128.4070   72.6750 C   0  0  0  0  0  0  0  0  0  0  0  0
  128.2200  127.9300   73.4240 O   0  0  0  0  0  0  0  0  0  0  0  0
  129.3140  127.9190   71.2750 C   0  0  0  0  0  0  0  0  0  0  0  0
  130.5530  128.1630   70.6660 C   0  0  0  0  0  0  0  0  0  0  0  0
  130.8020  127.7250   69.3680 C   0  0  0  0  0  0  0  0  0  0  0  0
  129.8240  127.0290   68.6570 C   0  0  0  0  0  0  0  0  0  0  0  0
  130.1800  126.6400   67.3510 N   0  0  0  0  0  0  0  0  0  0  0  0
  130.1800  125.4140   66.7740 C   0  0  0  0  0  0  0  0  0  0  0  0
  129.8840  124.3720   67.3610 O   0  0  0  0  0  0  0  0  0  0  0  0
  130.5890  125.3850   65.3690 C   0  0  0  0  0  0  0  0  0  0  0  0
  129.3920  125.5940   64.0890 S   0  0  0  0  0  0  0  0  0  0  0  0
  130.6110  125.3950   62.8500 C   0  0  0  0  0  0  0  0  0  0  0  0
  130.3140  125.4520   61.5520 N   0  0  0  0  0  0  0  0  0  0  0  0
  131.3500  125.2790   60.6960 C   0  0  0  0  0  0  0  0  0  0  0  0
  130.9900  125.3420   59.2230 C   0  0  0  0  0  0  0  0  0  0  0  0
  132.6640  125.0580   61.1040 C   0  0  0  0  0  0  0  0  0  0  0  0
  132.9720  124.9990   62.4680 C   0  0  0  0  0  0  0  0  0  0  0  0
  134.4200  124.7530   62.8630 C   0  0  0  0  0  0  0  0  0  0  0  0
  131.9100  125.1710   63.3970 C   0  0  0  0  0  0  0  0  0  0  0  0
  131.8680  125.1640   64.8340 C   0  0  0  0  0  0  0  0  0  0  0  0
  132.9900  124.9600   65.5980 N   0  0  0  0  0  0  0  0  0  0  0  0
  128.5790  126.7850   69.2560 C   0  0  0  0  0  0  0  0  0  0  0  0
  128.3310  127.2260   70.5530 C   0  0  0  0  0  0  0  0  0  0  0  0
  129.3467  130.8295   74.4392 H   0  0  0  0  0  0  0  0  0  0  0  0
  130.0555  131.4777   72.9213 H   0  0  0  0  0  0  0  0  0  0  0  0
  128.3863  130.8142   72.9213 H   0  0  0  0  0  0  0  0  0  0  0  0
  131.3349  128.7050   71.2182 H   0  0  0  0  0  0  0  0  0  0  0  0
  131.7763  127.9291   68.9000 H   0  0  0  0  0  0  0  0  0  0  0  0
  130.4950  127.4000   66.7670 H   0  0  0  0  0  0  0  0  0  0  0  0
  129.9115  125.5307   59.1169 H   0  0  0  0  0  0  0  0  0  0  0  0
  131.5536  126.1552   58.7422 H   0  0  0  0  0  0  0  0  0  0  0  0
  131.2440  124.3858   58.7422 H   0  0  0  0  0  0  0  0  0  0  0  0
  133.4588  124.9300   60.3544 H   0  0  0  0  0  0  0  0  0  0  0  0
  134.5035  124.7388   63.9597 H   0  0  0  0  0  0  0  0  0  0  0  0
  134.7514  123.7857   62.4575 H   0  0  0  0  0  0  0  0  0  0  0  0
  135.0523  125.5566   62.4575 H   0  0  0  0  0  0  0  0  0  0  0  0
  133.9000  125.2830   65.3050 H   0  0  0  0  0  0  0  0  0  0  0  0
  132.9410  124.4730   66.4820 H   0  0  0  0  0  0  0  0  0  0  0  0
  127.7982  126.2448   68.7004 H   0  0  0  0  0  0  0  0  0  0  0  0
  127.3533  127.0288   71.0168 H   0  0  0  0  0  0  0  0  0  0  0  0
  1  2  1  0
  2  3  1  0
  3  4  2  0
  3  5  1  0
  5  6  2  0
  6  7  1  0
  7  8  2  0
  8  9  1  0
  9 10  1  0
 10 11  2  0
 10 12  1  0
 12 13  1  0
 13 14  1  0
 14 15  2  0
 15 16  1  0
 16 17  1  0
 16 18  2  0
 18 19  1  0
 19 20  1  0
 19 21  2  0
 21 22  1  0
 22 23  1  0
  8 24  1  0
 24 25  2  0
 25  5  1  0
 22 12  2  0
 21 14  1  0
  1 26  1  0
  1 27  1  0
  1 28  1  0
  6 29  1  0
  7 30  1  0
  9 31  1  0
 17 32  1  0
 17 33  1  0
 17 34  1  0
 18 35  1  0
 20 36  1  0
 20 37  1  0
 20 38  1  0
 23 39  1  0
 23 40  1  0
 24 41  1  0
 25 42  1  0
M  END
>  <Binding energies>  (1) 
[-7.03]

>  <Ligand effiencies>  (1) 
[-0.25107142857142856]

>  <Interactions>  (1) 
["V-A:ARG:545:CD:4923, V-A:GLU:543:CD:4908, H-A:TYR:484:OH:4348, V-B:TYR:539:CE2:9848, V-A:ARG:545:CZ:4926, V-A:GLY:453:C:4042, V-A:ASP:366:CG:3213, V-A:TYR:484:CZ:4347, H-A:GLU:543:OE2:4910, V-B:GLU:543:CB:9878, V-B:GLU:543:CG:9879, V-B:GLU:543:CD:9880, V-B:HIS:456:CD2:9039, V-A:GLY:544:C:4912, V-A:LYS:547:CE:4950, V-A:HIS:456:CE1:4070, H-B:LYS:547:NZ:9923, V-B:HIS:456:CE1:9041, V-B:GLU:543:C:9874, H-A:LYS:547:NZ:4951, H-A:GLU:543:OE1:4909, V-A:GLU:543:CB:4906, V-A:GLU:543:C:4902, V-A:GLY:453:CA:4044"]

$$$$
4ac_Grossjean_2025
     RDKit          3D

 40 42  0  0  0  0  0  0  0  0999 V2000
  130.9490  128.1380   70.3740 C   0  0  0  0  0  0  0  0  0  0  0  0
  130.0770  127.2020   69.7480 O   0  0  0  0  0  0  0  0  0  0  0  0
  129.4590  127.5460   68.5620 C   0  0  0  0  0  0  0  0  0  0  0  0
  128.8430  128.7960   68.5210 C   0  0  0  0  0  0  0  0  0  0  0  0
  128.1940  129.2300   67.3670 C   0  0  0  0  0  0  0  0  0  0  0  0
  128.1630  128.4180   66.2330 C   0  0  0  0  0  0  0  0  0  0  0  0
  127.4740  128.9330   65.1190 N   0  0  0  0  0  0  0  0  0  0  0  0
  127.5420  130.1670   64.5650 C   0  0  0  0  0  0  0  0  0  0  0  0
  128.2370  131.0840   65.0070 O   0  0  0  0  0  0  0  0  0  0  0  0
  126.7110  130.3680   63.3750 C   0  0  0  0  0  0  0  0  0  0  0  0
  127.4390  130.3720   61.7680 S   0  0  0  0  0  0  0  0  0  0  0  0
  125.8860  130.6530   61.0130 C   0  0  0  0  0  0  0  0  0  0  0  0
  125.7540  130.7630   59.6910 N   0  0  0  0  0  0  0  0  0  0  0  0
  124.4970  130.9810   59.2350 C   0  0  0  0  0  0  0  0  0  0  0  0
  124.3670  131.1020   57.7280 C   0  0  0  0  0  0  0  0  0  0  0  0
  123.3800  131.0920   60.0620 C   0  0  0  0  0  0  0  0  0  0  0  0
  123.5230  130.9770   61.4490 C   0  0  0  0  0  0  0  0  0  0  0  0
  122.2750  131.1050   62.3090 C   0  0  0  0  0  0  0  0  0  0  0  0
  124.8270  130.7460   61.9640 C   0  0  0  0  0  0  0  0  0  0  0  0
  125.3240  130.5780   63.3030 C   0  0  0  0  0  0  0  0  0  0  0  0
  124.5010  130.6230   64.4000 N   0  0  0  0  0  0  0  0  0  0  0  0
  128.7690  127.1540   66.2700 C   0  0  0  0  0  0  0  0  0  0  0  0
  129.4160  126.7240   67.4250 C   0  0  0  0  0  0  0  0  0  0  0  0
  130.8628  128.0454   71.4667 H   0  0  0  0  0  0  0  0  0  0  0  0
  131.9860  127.9335   70.0694 H   0  0  0  0  0  0  0  0  0  0  0  0
  130.6717  129.1580   70.0694 H   0  0  0  0  0  0  0  0  0  0  0  0
  128.8696  129.4458   69.4082 H   0  0  0  0  0  0  0  0  0  0  0  0
  127.7049  130.2152   67.3500 H   0  0  0  0  0  0  0  0  0  0  0  0
  126.8150  128.2920   64.7010 H   0  0  0  0  0  0  0  0  0  0  0  0
  123.5817  131.8330   57.4852 H   0  0  0  0  0  0  0  0  0  0  0  0
  125.3245  131.4378   57.3032 H   0  0  0  0  0  0  0  0  0  0  0  0
  124.1006  130.1229   57.3032 H   0  0  0  0  0  0  0  0  0  0  0  0
  122.3867  131.2699   59.6241 H   0  0  0  0  0  0  0  0  0  0  0  0
  122.5575  131.0760   63.3717 H   0  0  0  0  0  0  0  0  0  0  0  0
  121.7741  132.0592   62.0886 H   0  0  0  0  0  0  0  0  0  0  0  0
  121.5908  130.2723   62.0886 H   0  0  0  0  0  0  0  0  0  0  0  0
  123.7030  130.0120   64.4950 H   0  0  0  0  0  0  0  0  0  0  0  0
  124.6700  131.2730   65.1560 H   0  0  0  0  0  0  0  0  0  0  0  0
  128.7330  126.5015   65.3852 H   0  0  0  0  0  0  0  0  0  0  0  0
  129.8962  125.7346   67.4468 H   0  0  0  0  0  0  0  0  0  0  0  0
  1  2  1  0
  2  3  1  0
  3  4  2  0
  4  5  1  0
  5  6  2  0
  6  7  1  0
  7  8  1  0
  8  9  2  0
  8 10  1  0
 10 11  1  0
 11 12  1  0
 12 13  2  0
 13 14  1  0
 14 15  1  0
 14 16  2  0
 16 17  1  0
 17 18  1  0
 17 19  2  0
 19 20  1  0
 20 21  1  0
  6 22  1  0
 22 23  2  0
 23  3  1  0
 20 10  2  0
 19 12  1  0
  1 24  1  0
  1 25  1  0
  1 26  1  0
  4 27  1  0
  5 28  1  0
  7 29  1  0
 15 30  1  0
 15 31  1  0
 15 32  1  0
 16 33  1  0
 18 34  1  0
 18 35  1  0
 18 36  1  0
 21 37  1  0
 21 38  1  0
 22 39  1  0
 23 40  1  0
M  END
>  <Binding energies>  (1) 
[-6.27]

>  <Ligand effiencies>  (1) 
[-0.24115384615384614]

>  <Interactions>  (1) 
["V-B:ASP:366:CB:8183, V-A:GLU:543:CD:4908, V-B:ASP:366:CG:8184, V-B:ILE:369:CB:8207, V-B:GLY:454:CA:9020, V-B:GLY:453:C:9013, V-B:ILE:369:CG2:8208, V-B:GLY:453:CA:9015, V-A:TYR:539:CE1:4875, V-B:ASP:366:CA:8181, V-B:ILE:369:CG1:8209, V-B:GLU:543:CB:9878, V-B:GLU:543:CG:9879, V-B:GLU:543:CD:9880, H-B:GLU:543:OE1:9881, V-A:GLY:544:C:4912, V-A:HIS:456:CE1:4070, V-B:HIS:456:CE1:9041, V-A:GLU:543:CB:4906, V-A:GLU:543:C:4902, V-B:TYR:484:CZ:9318, H-B:TYR:484:OH:9319, V-A:GLU:543:CG:4907, V-A:TYR:539:CZ:4877, V-A:GLU:543:CA:4904, H-B:GLU:543:OE2:9882"]

$$$$
4ad_Grossjean_2025
     RDKit          3D

 36 38  0  0  0  0  0  0  0  0999 V2000
  124.3230  131.0790   57.6500 C   0  0  0  0  0  0  0  0  0  0  0  0
  124.4550  130.9820   59.1580 C   0  0  0  0  0  0  0  0  0  0  0  0
  123.3400  131.0960   59.9850 C   0  0  0  0  0  0  0  0  0  0  0  0
  123.4860  131.0060   61.3750 C   0  0  0  0  0  0  0  0  0  0  0  0
  122.2390  131.1390   62.2360 C   0  0  0  0  0  0  0  0  0  0  0  0
  124.7930  130.7980   61.8920 C   0  0  0  0  0  0  0  0  0  0  0  0
  125.2960  130.6600   63.2320 C   0  0  0  0  0  0  0  0  0  0  0  0
  124.4730  130.7130   64.3300 N   0  0  0  0  0  0  0  0  0  0  0  0
  126.6850  130.4680   63.3050 C   0  0  0  0  0  0  0  0  0  0  0  0
  127.5220  130.3090   64.4950 C   0  0  0  0  0  0  0  0  0  0  0  0
  128.2710  131.2170   64.8610 O   0  0  0  0  0  0  0  0  0  0  0  0
  127.3950  129.1240   65.1410 N   0  0  0  0  0  0  0  0  0  0  0  0
  128.0770  128.6440   66.2750 C   0  0  0  0  0  0  0  0  0  0  0  0
  128.6480  127.3740   66.1540 C   0  0  0  0  0  0  0  0  0  0  0  0
  129.3530  126.8160   67.2170 C   0  0  0  0  0  0  0  0  0  0  0  0
  129.4950  127.5330   68.4020 C   0  0  0  0  0  0  0  0  0  0  0  0
  128.9430  128.8060   68.5310 C   0  0  0  0  0  0  0  0  0  0  0  0
  128.2370  129.3650   67.4700 C   0  0  0  0  0  0  0  0  0  0  0  0
  127.4090  130.4490   61.6960 S   0  0  0  0  0  0  0  0  0  0  0  0
  125.8520  130.6990   60.9390 C   0  0  0  0  0  0  0  0  0  0  0  0
  125.7150  130.7840   59.6150 N   0  0  0  0  0  0  0  0  0  0  0  0
  123.4603  131.7130   57.3975 H   0  0  0  0  0  0  0  0  0  0  0  0
  125.2383  131.5209   57.2295 H   0  0  0  0  0  0  0  0  0  0  0  0
  124.1747  130.0734   57.2295 H   0  0  0  0  0  0  0  0  0  0  0  0
  122.3442  131.2568   59.5461 H   0  0  0  0  0  0  0  0  0  0  0  0
  122.5221  131.1088   63.2985 H   0  0  0  0  0  0  0  0  0  0  0  0
  121.7418  132.0953   62.0160 H   0  0  0  0  0  0  0  0  0  0  0  0
  121.5513  130.3091   62.0160 H   0  0  0  0  0  0  0  0  0  0  0  0
  124.6190  131.3780   65.0750 H   0  0  0  0  0  0  0  0  0  0  0  0
  123.6860  130.0860   64.4260 H   0  0  0  0  0  0  0  0  0  0  0  0
  126.7010  128.4900   64.7730 H   0  0  0  0  0  0  0  0  0  0  0  0
  128.5398  126.8126   65.2143 H   0  0  0  0  0  0  0  0  0  0  0  0
  129.7957  125.8136   67.1211 H   0  0  0  0  0  0  0  0  0  0  0  0
  130.0478  127.0907   69.2439 H   0  0  0  0  0  0  0  0  0  0  0  0
  129.0650  129.3675   69.4690 H   0  0  0  0  0  0  0  0  0  0  0  0
  127.8042  130.3716   67.5671 H   0  0  0  0  0  0  0  0  0  0  0  0
  1  2  1  0
  2  3  2  0
  3  4  1  0
  4  5  1  0
  4  6  2  0
  6  7  1  0
  7  8  1  0
  7  9  2  0
  9 10  1  0
 10 11  2  0
 10 12  1  0
 12 13  1  0
 13 14  2  0
 14 15  1  0
 15 16  2  0
 16 17  1  0
 17 18  2  0
  9 19  1  0
 19 20  1  0
 20 21  2  0
 21  2  1  0
 20  6  1  0
 18 13  1  0
  1 22  1  0
  1 23  1  0
  1 24  1  0
  3 25  1  0
  5 26  1  0
  5 27  1  0
  5 28  1  0
  8 29  1  0
  8 30  1  0
 12 31  1  0
 14 32  1  0
 15 33  1  0
 16 34  1  0
 17 35  1  0
 18 36  1  0
M  END
>  <Binding energies>  (1) 
[-6.34]

>  <Ligand effiencies>  (1) 
[-0.26416666666666666]

>  <Interactions>  (1) 
["V-B:ASP:366:CB:8183, V-A:GLU:543:CD:4908, V-B:ASP:366:CG:8184, V-B:ILE:369:CB:8207, V-B:GLY:454:CA:9020, V-B:GLY:453:C:9013, V-B:ILE:369:CG2:8208, V-B:GLY:453:CA:9015, V-A:TYR:539:CE1:4875, V-B:ASP:366:CA:8181, V-B:ILE:369:CG1:8209, V-B:GLU:543:CB:9878, V-B:GLU:543:CG:9879, V-B:GLU:543:CD:9880, H-B:GLU:543:OE1:9881, V-A:HIS:456:CE1:4070, V-B:HIS:456:CE1:9041, V-A:GLU:543:CB:4906, V-A:GLU:543:C:4902, V-B:TYR:484:CZ:9318, H-B:TYR:484:OH:9319, V-A:GLU:543:CG:4907, V-A:TYR:539:CZ:4877, V-A:GLU:543:CA:4904, V-B:TYR:484:CE2:9317, H-B:GLU:543:OE2:9882"]

$$$$
4ae_Grossjean_2025
     RDKit          3D

 38 40  0  0  0  0  0  0  0  0999 V2000
  126.9770  126.9680   69.9120 C   0  0  0  0  0  0  0  0  0  0  0  0
  128.4150  127.1490   69.4650 C   0  0  0  0  0  0  0  0  0  0  0  0
  129.2750  128.0420   70.1090 C   0  0  0  0  0  0  0  0  0  0  0  0
  130.5820  128.1610   69.6380 C   0  0  0  0  0  0  0  0  0  0  0  0
  130.9940  127.3950   68.5450 C   0  0  0  0  0  0  0  0  0  0  0  0
  130.0850  126.5140   67.9510 C   0  0  0  0  0  0  0  0  0  0  0  0
  130.5510  125.7850   66.8430 N   0  0  0  0  0  0  0  0  0  0  0  0
  130.1990  124.5390   66.4380 C   0  0  0  0  0  0  0  0  0  0  0  0
  129.3790  123.8330   67.0260 O   0  0  0  0  0  0  0  0  0  0  0  0
  130.8720  124.0600   65.2280 C   0  0  0  0  0  0  0  0  0  0  0  0
  130.1710  122.7470   64.2810 S   0  0  0  0  0  0  0  0  0  0  0  0
  131.5080  122.7820   63.1540 C   0  0  0  0  0  0  0  0  0  0  0  0
  131.5760  121.9500   62.1150 N   0  0  0  0  0  0  0  0  0  0  0  0
  132.6670  122.0780   61.3210 C   0  0  0  0  0  0  0  0  0  0  0  0
  132.7280  121.1170   60.1480 C   0  0  0  0  0  0  0  0  0  0  0  0
  133.6800  123.0100   61.5390 C   0  0  0  0  0  0  0  0  0  0  0  0
  133.6040  123.8820   62.6310 C   0  0  0  0  0  0  0  0  0  0  0  0
  134.7350  124.8800   62.8300 C   0  0  0  0  0  0  0  0  0  0  0  0
  132.4750  123.7770   63.4880 C   0  0  0  0  0  0  0  0  0  0  0  0
  132.0870  124.4930   64.6740 C   0  0  0  0  0  0  0  0  0  0  0  0
  132.8490  125.5040   65.2020 N   0  0  0  0  0  0  0  0  0  0  0  0
  128.8010  126.3960   68.4030 N   0  0  0  0  0  0  0  0  0  0  0  0
  126.9326  126.9624   71.0111 H   0  0  0  0  0  0  0  0  0  0  0  0
  126.3656  127.7963   69.5245 H   0  0  0  0  0  0  0  0  0  0  0  0
  126.5899  126.0140   69.5245 H   0  0  0  0  0  0  0  0  0  0  0  0
  128.9293  128.6370   70.9672 H   0  0  0  0  0  0  0  0  0  0  0  0
  131.2844  128.8539   70.1242 H   0  0  0  0  0  0  0  0  0  0  0  0
  132.0194  127.4836   68.1569 H   0  0  0  0  0  0  0  0  0  0  0  0
  131.2810  126.2400   66.3150 H   0  0  0  0  0  0  0  0  0  0  0  0
  132.7935  120.0848   60.5226 H   0  0  0  0  0  0  0  0  0  0  0  0
  131.8210  121.2279   59.5356 H   0  0  0  0  0  0  0  0  0  0  0  0
  133.6137  121.3417   59.5356 H   0  0  0  0  0  0  0  0  0  0  0  0
  134.5386  123.0602   60.8533 H   0  0  0  0  0  0  0  0  0  0  0  0
  134.9059  125.0308   63.9061 H   0  0  0  0  0  0  0  0  0  0  0  0
  135.6527  124.4919   62.3639 H   0  0  0  0  0  0  0  0  0  0  0  0
  134.4642  125.8388   62.3639 H   0  0  0  0  0  0  0  0  0  0  0  0
  133.7950  125.3490   65.5220 H   0  0  0  0  0  0  0  0  0  0  0  0
  132.4870  126.4440   65.2880 H   0  0  0  0  0  0  0  0  0  0  0  0
  1  2  1  0
  2  3  2  0
  3  4  1  0
  4  5  2  0
  5  6  1  0
  6  7  1  0
  7  8  1  0
  8  9  2  0
  8 10  1  0
 10 11  1  0
 11 12  1  0
 12 13  2  0
 13 14  1  0
 14 15  1  0
 14 16  2  0
 16 17  1  0
 17 18  1  0
 17 19  2  0
 19 20  1  0
 20 21  1  0
  6 22  2  0
 22  2  1  0
 20 10  2  0
 19 12  1  0
  1 23  1  0
  1 24  1  0
  1 25  1  0
  3 26  1  0
  4 27  1  0
  5 28  1  0
  7 29  1  0
 15 30  1  0
 15 31  1  0
 15 32  1  0
 16 33  1  0
 18 34  1  0
 18 35  1  0
 18 36  1  0
 21 37  1  0
 21 38  1  0
M  END
>  <Binding energies>  (1) 
[-6.7]

>  <Ligand effiencies>  (1) 
[-0.268]

>  <Interactions>  (1) 
["V-A:ARG:545:CD:4923, V-B:TYR:539:CD2:9846, V-A:GLU:543:CD:4908, H-A:TYR:484:OH:4348, V-B:TYR:539:CE2:9848, V-A:ARG:545:CZ:4926, V-A:LEU:475:CD2:4259, V-A:ILE:369:CD1:3239, V-A:GLY:453:C:4042, V-A:ASP:366:CG:3213, V-A:ILE:369:CG2:3237, V-A:TYR:484:CZ:4347, H-A:GLU:543:OE2:4910, V-B:GLU:543:CB:9878, V-B:GLU:543:CG:9879, V-A:TYR:484:CE2:4346, V-B:ALA:541:CB:9864, V-B:GLY:544:C:9884, V-B:GLY:544:CA:9886, V-A:HIS:456:CE1:4070, V-B:HIS:456:CE1:9041, V-B:GLU:543:C:9874, H-A:GLU:543:OE1:4909, V-A:GLU:543:CB:4906, V-A:GLU:543:C:4902, V-A:GLY:453:CA:4044, V-A:ARG:545:CG:4922, V-A:GLU:543:CA:4904"]

$$$$
4af_Grossjean_2025
     RDKit          3D

 35 37  0  0  0  0  0  0  0  0999 V2000
  132.4890  121.0160   60.2230 C   0  0  0  0  0  0  0  0  0  0  0  0
  132.4710  121.9970   61.3810 C   0  0  0  0  0  0  0  0  0  0  0  0
  133.5040  122.9140   61.5610 C   0  0  0  0  0  0  0  0  0  0  0  0
  133.4680  123.8080   62.6380 C   0  0  0  0  0  0  0  0  0  0  0  0
  134.6190  124.7880   62.7940 C   0  0  0  0  0  0  0  0  0  0  0  0
  132.3550  123.7380   63.5200 C   0  0  0  0  0  0  0  0  0  0  0  0
  132.0040  124.4840   64.6990 C   0  0  0  0  0  0  0  0  0  0  0  0
  132.7970  125.4900   65.1910 N   0  0  0  0  0  0  0  0  0  0  0  0
  130.7920  124.0870   65.2850 C   0  0  0  0  0  0  0  0  0  0  0  0
  130.1550  124.6030   66.4980 C   0  0  0  0  0  0  0  0  0  0  0  0
  129.3760  123.9010   67.1440 O   0  0  0  0  0  0  0  0  0  0  0  0
  130.4990  125.8690   66.8410 N   0  0  0  0  0  0  0  0  0  0  0  0
  130.0370  126.6650   67.9060 C   0  0  0  0  0  0  0  0  0  0  0  0
  128.6910  126.8190   68.2850 C   0  0  0  0  0  0  0  0  0  0  0  0
  128.3660  127.6570   69.3530 C   0  0  0  0  0  0  0  0  0  0  0  0
  129.3960  128.3260   70.0160 C   0  0  0  0  0  0  0  0  0  0  0  0
  130.7010  128.2000   69.6650 N   0  0  0  0  0  0  0  0  0  0  0  0
  131.0010  127.3830   68.6240 C   0  0  0  0  0  0  0  0  0  0  0  0
  130.0500  122.7650   64.3810 S   0  0  0  0  0  0  0  0  0  0  0  0
  131.3630  122.7550   63.2260 C   0  0  0  0  0  0  0  0  0  0  0  0
  131.3950  121.9030   62.2000 N   0  0  0  0  0  0  0  0  0  0  0  0
  132.5079  119.9879   60.6137 H   0  0  0  0  0  0  0  0  0  0  0  0
  131.5881  121.1581   59.6080 H   0  0  0  0  0  0  0  0  0  0  0  0
  133.3841  121.1910   59.6080 H   0  0  0  0  0  0  0  0  0  0  0  0
  134.3486  122.9358   60.8566 H   0  0  0  0  0  0  0  0  0  0  0  0
  134.8156  124.9554   63.8633 H   0  0  0  0  0  0  0  0  0  0  0  0
  135.5195  124.3751   62.3158 H   0  0  0  0  0  0  0  0  0  0  0  0
  134.3550  125.7428   62.3158 H   0  0  0  0  0  0  0  0  0  0  0  0
  132.4830  126.4500   65.2250 H   0  0  0  0  0  0  0  0  0  0  0  0
  133.7260  125.3010   65.5420 H   0  0  0  0  0  0  0  0  0  0  0  0
  131.1920  126.3140   66.2570 H   0  0  0  0  0  0  0  0  0  0  0  0
  127.8989  126.2819   67.7426 H   0  0  0  0  0  0  0  0  0  0  0  0
  127.3195  127.7875   69.6657 H   0  0  0  0  0  0  0  0  0  0  0  0
  129.1390  128.9838   70.8594 H   0  0  0  0  0  0  0  0  0  0  0  0
  132.0557  127.2795   68.3291 H   0  0  0  0  0  0  0  0  0  0  0  0
  1  2  1  0
  2  3  2  0
  3  4  1  0
  4  5  1  0
  4  6  2  0
  6  7  1  0
  7  8  1  0
  7  9  2  0
  9 10  1  0
 10 11  2  0
 10 12  1  0
 12 13  1  0
 13 14  2  0
 14 15  1  0
 15 16  2  0
 16 17  1  0
 17 18  2  0
  9 19  1  0
 19 20  1  0
 20 21  2  0
 21  2  1  0
 20  6  1  0
 18 13  1  0
  1 22  1  0
  1 23  1  0
  1 24  1  0
  3 25  1  0
  5 26  1  0
  5 27  1  0
  5 28  1  0
  8 29  1  0
  8 30  1  0
 12 31  1  0
 14 32  1  0
 15 33  1  0
 16 34  1  0
 18 35  1  0
M  END
>  <Binding energies>  (1) 
[-6.36]

>  <Ligand effiencies>  (1) 
[-0.265]

>  <Interactions>  (1) 
["V-A:ARG:545:CD:4923, V-B:TYR:539:CD2:9846, V-A:GLU:543:CD:4908, H-A:TYR:484:OH:4348, V-B:TYR:539:CE2:9848, V-A:ARG:545:CZ:4926, V-A:LEU:475:CD2:4259, V-A:ILE:369:CD1:3239, V-A:GLY:453:C:4042, V-A:ILE:369:CG2:3237, V-A:TYR:484:CZ:4347, H-A:GLU:543:OE2:4910, V-B:GLU:543:CB:9878, V-B:GLU:543:CG:9879, V-A:TYR:484:CE2:4346, V-B:ALA:541:CB:9864, V-A:HIS:456:CE1:4070, V-B:HIS:456:CE1:9041, H-A:GLU:543:OE1:4909, V-A:GLU:543:CB:4906, V-A:GLU:543:C:4902, V-A:GLY:453:CA:4044, V-A:ARG:545:CG:4922"]

$$$$
4ag_Grossjean_2025
     RDKit          3D

 39 41  0  0  0  0  0  0  0  0999 V2000
  122.2480  130.7660   62.4310 C   0  0  0  0  0  0  0  0  0  0  0  0
  123.6590  130.4570   62.8940 C   0  0  0  0  0  0  0  0  0  0  0  0
  124.7430  130.5880   62.0280 C   0  0  0  0  0  0  0  0  0  0  0  0
  126.0370  130.2990   62.4770 C   0  0  0  0  0  0  0  0  0  0  0  0
  127.1870  130.4580   61.4940 C   0  0  0  0  0  0  0  0  0  0  0  0
  126.1920  129.8750   63.8240 C   0  0  0  0  0  0  0  0  0  0  0  0
  127.3470  129.5050   64.5960 C   0  0  0  0  0  0  0  0  0  0  0  0
  128.6150  129.5130   64.0700 N   0  0  0  0  0  0  0  0  0  0  0  0
  127.0540  129.1370   65.9170 C   0  0  0  0  0  0  0  0  0  0  0  0
  127.9790  128.7200   66.9710 C   0  0  0  0  0  0  0  0  0  0  0  0
  128.4090  129.5220   67.8030 O   0  0  0  0  0  0  0  0  0  0  0  0
  128.3420  127.4200   66.9620 N   0  0  0  0  0  0  0  0  0  0  0  0
  129.2310  126.7820   67.9320 C   0  0  0  0  0  0  0  0  0  0  0  0
  128.9960  127.2230   69.3720 C   0  0  0  0  0  0  0  0  0  0  0  0
  127.7610  126.9800   69.9810 C   0  0  0  0  0  0  0  0  0  0  0  0
  127.5520  127.3600   71.3040 C   0  0  0  0  0  0  0  0  0  0  0  0
  128.5810  127.9710   72.0180 C   0  0  0  0  0  0  0  0  0  0  0  0
  129.8190  128.2020   71.4220 C   0  0  0  0  0  0  0  0  0  0  0  0
  130.0290  127.8220   70.0990 C   0  0  0  0  0  0  0  0  0  0  0  0
  125.3250  129.2520   66.2450 S   0  0  0  0  0  0  0  0  0  0  0  0
  125.0040  129.7810   64.6090 C   0  0  0  0  0  0  0  0  0  0  0  0
  123.7700  130.0570   64.1850 N   0  0  0  0  0  0  0  0  0  0  0  0
  121.5977  130.9084   63.3067 H   0  0  0  0  0  0  0  0  0  0  0  0
  122.2537  131.6842   61.8253 H   0  0  0  0  0  0  0  0  0  0  0  0
  121.8694  129.9295   61.8253 H   0  0  0  0  0  0  0  0  0  0  0  0
  124.5817  130.9186   60.9913 H   0  0  0  0  0  0  0  0  0  0  0  0
  128.1280  130.5881   62.0485 H   0  0  0  0  0  0  0  0  0  0  0  0
  127.2553  129.5608   60.8613 H   0  0  0  0  0  0  0  0  0  0  0  0
  127.0093  131.3401   60.8613 H   0  0  0  0  0  0  0  0  0  0  0  0
  128.9210  128.8180   63.4040 H   0  0  0  0  0  0  0  0  0  0  0  0
  129.2870  130.2220   64.3310 H   0  0  0  0  0  0  0  0  0  0  0  0
  127.9070  126.8080   66.2870 H   0  0  0  0  0  0  0  0  0  0  0  0
  129.0814  125.6937   67.8747 H   0  0  0  0  0  0  0  0  0  0  0  0
  130.2561  127.0830   67.6702 H   0  0  0  0  0  0  0  0  0  0  0  0
  126.9554  126.4891   69.4154 H   0  0  0  0  0  0  0  0  0  0  0  0
  126.5788  127.1787   71.7836 H   0  0  0  0  0  0  0  0  0  0  0  0
  128.4142  128.2739   73.0623 H   0  0  0  0  0  0  0  0  0  0  0  0
  130.6266  128.6823   71.9939 H   0  0  0  0  0  0  0  0  0  0  0  0
  131.0073  127.9930   69.6261 H   0  0  0  0  0  0  0  0  0  0  0  0
  1  2  1  0
  2  3  2  0
  3  4  1  0
  4  5  1  0
  4  6  2  0
  6  7  1  0
  7  8  1  0
  7  9  2  0
  9 10  1  0
 10 11  2  0
 10 12  1  0
 12 13  1  0
 13 14  1  0
 14 15  2  0
 15 16  1  0
 16 17  2  0
 17 18  1  0
 18 19  2  0
  9 20  1  0
 20 21  1  0
 21 22  2  0
 22  2  1  0
 21  6  1  0
 19 14  1  0
  1 23  1  0
  1 24  1  0
  1 25  1  0
  3 26  1  0
  5 27  1  0
  5 28  1  0
  5 29  1  0
  8 30  1  0
  8 31  1  0
 12 32  1  0
 13 33  1  0
 13 34  1  0
 15 35  1  0
 16 36  1  0
 17 37  1  0
 18 38  1  0
 19 39  1  0
M  END
>  <Binding energies>  (1) 
[-6.98]

>  <Ligand effiencies>  (1) 
[-0.2792]

>  <Interactions>  (1) 
["V-A:GLU:543:CD:4908, V-B:GLY:453:C:9013, V-B:GLY:453:CA:9015, H-B:ARG:545:NH1:9899, H-B:GLY:454:N:9021, V-B:ILE:369:CG1:8209, H-B:ARG:545:NH2:9900, H-A:GLU:543:OE2:4910, V-B:GLU:543:CB:9878, V-B:GLU:543:CG:9879, V-B:GLU:543:CD:9880, H-B:GLU:543:OE1:9881, V-B:HIS:456:CD2:9039, V-B:GLY:544:C:9884, V-B:HIS:456:CG:9037, V-A:HIS:456:CE1:4070, V-B:HIS:456:CE1:9041, V-B:GLU:543:C:9874, H-A:GLU:543:OE1:4909, V-A:GLU:543:CB:4906, V-B:TYR:484:CZ:9318, V-B:ARG:545:CZ:9898, H-B:TYR:484:OH:9319, V-A:GLU:543:CG:4907, H-B:ARG:545:NE:9896, V-B:ARG:545:CD:9895, V-B:ARG:545:CG:9894, H-B:GLU:543:OE2:9882"]

$$$$
4ah_Grossjean_2025
     RDKit          3D

 51 53  0  0  0  0  0  0  0  0999 V2000
  134.2990  124.7860   62.9230 C   0  0  0  0  0  0  0  0  0  0  0  0
  133.8650  124.6380   64.2710 O   0  0  0  0  0  0  0  0  0  0  0  0
  132.5110  124.5680   64.5440 C   0  0  0  0  0  0  0  0  0  0  0  0
  131.8220  125.4990   65.3380 C   0  0  0  0  0  0  0  0  0  0  0  0
  130.4540  125.3640   65.5730 C   0  0  0  0  0  0  0  0  0  0  0  0
  129.7140  126.4110   66.3980 C   0  0  0  0  0  0  0  0  0  0  0  0
  128.7310  127.1750   65.6290 N   0  0  0  0  0  0  0  0  0  0  0  0
  128.2410  128.3850   65.9710 C   0  0  0  0  0  0  0  0  0  0  0  0
  128.5570  128.9600   67.0140 O   0  0  0  0  0  0  0  0  0  0  0  0
  127.2690  128.9670   65.0460 C   0  0  0  0  0  0  0  0  0  0  0  0
  125.6080  129.2510   65.5690 S   0  0  0  0  0  0  0  0  0  0  0  0
  125.1670  129.8580   63.9880 C   0  0  0  0  0  0  0  0  0  0  0  0
  123.9330  130.2800   63.7130 N   0  0  0  0  0  0  0  0  0  0  0  0
  123.7240  130.7280   62.4510 C   0  0  0  0  0  0  0  0  0  0  0  0
  122.3120  131.2010   62.1580 C   0  0  0  0  0  0  0  0  0  0  0  0
  124.7110  130.7650   61.4690 C   0  0  0  0  0  0  0  0  0  0  0  0
  126.0060  130.3190   61.7590 C   0  0  0  0  0  0  0  0  0  0  0  0
  127.0490  130.3770   60.6540 C   0  0  0  0  0  0  0  0  0  0  0  0
  126.2630  129.8400   63.0730 C   0  0  0  0  0  0  0  0  0  0  0  0
  127.4460  129.3150   63.6990 C   0  0  0  0  0  0  0  0  0  0  0  0
  128.6350  129.1830   63.0280 N   0  0  0  0  0  0  0  0  0  0  0  0
  129.7560  124.3060   64.9900 C   0  0  0  0  0  0  0  0  0  0  0  0
  130.4190  123.3560   64.1970 C   0  0  0  0  0  0  0  0  0  0  0  0
  129.7940  122.2750   63.6020 O   0  0  0  0  0  0  0  0  0  0  0  0
  128.6700  122.4980   62.7570 C   0  0  0  0  0  0  0  0  0  0  0  0
  131.7980  123.4950   63.9870 C   0  0  0  0  0  0  0  0  0  0  0  0
  132.4580  122.5830   63.1980 O   0  0  0  0  0  0  0  0  0  0  0  0
  132.0820  122.6260   61.8280 C   0  0  0  0  0  0  0  0  0  0  0  0
  135.3401  125.1410   62.9099 H   0  0  0  0  0  0  0  0  0  0  0  0
  134.2360  123.8156   62.4089 H   0  0  0  0  0  0  0  0  0  0  0  0
  133.6562  125.5157   62.4089 H   0  0  0  0  0  0  0  0  0  0  0  0
  132.3681  126.3453   65.7801 H   0  0  0  0  0  0  0  0  0  0  0  0
  129.1915  125.9002   67.2203 H   0  0  0  0  0  0  0  0  0  0  0  0
  130.4664  127.1266   66.7611 H   0  0  0  0  0  0  0  0  0  0  0  0
  128.4920  126.8030   64.7230 H   0  0  0  0  0  0  0  0  0  0  0  0
  121.7810  131.3789   63.1048 H   0  0  0  0  0  0  0  0  0  0  0  0
  122.3511  132.1351   61.5784 H   0  0  0  0  0  0  0  0  0  0  0  0
  121.7805  130.4318   61.5784 H   0  0  0  0  0  0  0  0  0  0  0  0
  124.4728  131.1450   60.4646 H   0  0  0  0  0  0  0  0  0  0  0  0
  128.0530  130.4328   61.1000 H   0  0  0  0  0  0  0  0  0  0  0  0
  126.9741  129.4733   60.0313 H   0  0  0  0  0  0  0  0  0  0  0  0
  126.8744  131.2668   60.0313 H   0  0  0  0  0  0  0  0  0  0  0  0
  129.4430  129.7420   63.2570 H   0  0  0  0  0  0  0  0  0  0  0  0
  128.7390  128.5190   62.2720 H   0  0  0  0  0  0  0  0  0  0  0  0
  128.6721  124.2150   65.1538 H   0  0  0  0  0  0  0  0  0  0  0  0
  127.7768  122.6752   63.3741 H   0  0  0  0  0  0  0  0  0  0  0  0
  128.8572  123.3765   62.1220 H   0  0  0  0  0  0  0  0  0  0  0  0
  128.5076  121.6146   62.1220 H   0  0  0  0  0  0  0  0  0  0  0  0
  130.9918  122.7507   61.7507 H   0  0  0  0  0  0  0  0  0  0  0  0
  132.5836  123.4726   61.3365 H   0  0  0  0  0  0  0  0  0  0  0  0
  132.3795  121.6880   61.3365 H   0  0  0  0  0  0  0  0  0  0  0  0
  1  2  1  0
  2  3  1  0
  3  4  2  0
  4  5  1  0
  5  6  1  0
  6  7  1  0
  7  8  1  0
  8  9  2  0
  8 10  1  0
 10 11  1  0
 11 12  1  0
 12 13  2  0
 13 14  1  0
 14 15  1  0
 14 16  2  0
 16 17  1  0
 17 18  1  0
 17 19  2  0
 19 20  1  0
 20 21  1  0
  5 22  2  0
 22 23  1  0
 23 24  1  0
 24 25  1  0
 23 26  2  0
 26 27  1  0
 27 28  1  0
 26  3  1  0
 20 10  2  0
 19 12  1  0
  1 29  1  0
  1 30  1  0
  1 31  1  0
  4 32  1  0
  6 33  1  0
  6 34  1  0
  7 35  1  0
 15 36  1  0
 15 37  1  0
 15 38  1  0
 16 39  1  0
 18 40  1  0
 18 41  1  0
 18 42  1  0
 21 43  1  0
 21 44  1  0
 22 45  1  0
 25 46  1  0
 25 47  1  0
 25 48  1  0
 28 49  1  0
 28 50  1  0
 28 51  1  0
M  END
>  <Binding energies>  (1) 
[-5.89]

>  <Ligand effiencies>  (1) 
[-0.19]

>  <Interactions>  (1) 
["V-A:GLU:543:CD:4908, H-A:GLY:454:N:4050, V-B:ASP:366:CG:8184, H-A:TYR:484:OH:4348, H-A:ARG:545:NE:4924, V-A:ARG:545:CZ:4926, V-A:LEU:475:CD2:4259, V-B:GLY:453:C:9013, V-B:GLY:453:CA:9015, H-B:GLY:454:N:9021, V-B:ILE:369:CG1:8209, H-B:ARG:545:NH2:9900, V-A:GLY:453:C:4042, H-A:GLU:543:OE2:4910, V-B:GLU:543:CB:9878, V-B:GLU:543:CG:9879, V-B:GLU:543:CD:9880, H-B:GLU:543:OE1:9881, V-B:ALA:541:CB:9864, H-A:GLU:543:OE1:4909, H-A:ARG:545:NH2:4928, V-B:ARG:545:CZ:9898, V-A:GLY:453:CA:4044, V-A:GLU:543:CG:4907, V-B:ALA:541:CA:9862, H-B:GLU:543:OE2:9882"]

$$$$
4ai_Grossjean_2025
     RDKit          3D

 32 34  0  0  0  0  0  0  0  0999 V2000
  131.3110  121.1480   60.6920 C   0  0  0  0  0  0  0  0  0  0  0  0
  131.5210  122.1280   61.8310 C   0  0  0  0  0  0  0  0  0  0  0  0
  132.6350  122.9650   61.8610 C   0  0  0  0  0  0  0  0  0  0  0  0
  132.8060  123.8650   62.9180 C   0  0  0  0  0  0  0  0  0  0  0  0
  134.0370  124.7590   62.9050 C   0  0  0  0  0  0  0  0  0  0  0  0
  131.8150  123.8880   63.9370 C   0  0  0  0  0  0  0  0  0  0  0  0
  131.6770  124.6680   65.1370 C   0  0  0  0  0  0  0  0  0  0  0  0
  132.6030  125.6100   65.5090 N   0  0  0  0  0  0  0  0  0  0  0  0
  130.5170  124.3800   65.8740 C   0  0  0  0  0  0  0  0  0  0  0  0
  130.0700  124.9720   67.1370 C   0  0  0  0  0  0  0  0  0  0  0  0
  129.4170  124.3090   67.9450 O   0  0  0  0  0  0  0  0  0  0  0  0
  130.4410  126.2610   67.3380 N   0  0  0  0  0  0  0  0  0  0  0  0
  130.1650  127.0560   68.4430 C   0  0  0  0  0  0  0  0  0  0  0  0
  128.8790  127.2310   68.9540 C   0  0  0  0  0  0  0  0  0  0  0  0
  129.0320  128.0790   70.0270 C   0  0  0  0  0  0  0  0  0  0  0  0
  130.3410  128.3970   70.1570 O   0  0  0  0  0  0  0  0  0  0  0  0
  131.0510  127.7420   69.1480 N   0  0  0  0  0  0  0  0  0  0  0  0
  129.5720  123.1050   65.1020 S   0  0  0  0  0  0  0  0  0  0  0  0
  130.7230  122.9810   63.7900 C   0  0  0  0  0  0  0  0  0  0  0  0
  130.5580  122.1200   62.7850 N   0  0  0  0  0  0  0  0  0  0  0  0
  131.0971  120.1499   61.1018 H   0  0  0  0  0  0  0  0  0  0  0  0
  130.4636  121.4800   60.0742 H   0  0  0  0  0  0  0  0  0  0  0  0
  132.2200  121.1036   60.0742 H   0  0  0  0  0  0  0  0  0  0  0  0
  133.3800  122.9178   61.0531 H   0  0  0  0  0  0  0  0  0  0  0  0
  134.3408  124.9797   63.9389 H   0  0  0  0  0  0  0  0  0  0  0  0
  134.8579  124.2451   62.3833 H   0  0  0  0  0  0  0  0  0  0  0  0
  133.8023  125.6986   62.3833 H   0  0  0  0  0  0  0  0  0  0  0  0
  133.5130  125.3510   65.8640 H   0  0  0  0  0  0  0  0  0  0  0  0
  132.4020  126.5980   65.4450 H   0  0  0  0  0  0  0  0  0  0  0  0
  130.9870  126.7010   66.6130 H   0  0  0  0  0  0  0  0  0  0  0  0
  127.9445  126.7871   68.5801 H   0  0  0  0  0  0  0  0  0  0  0  0
  128.2202  128.4405   70.6753 H   0  0  0  0  0  0  0  0  0  0  0  0
  1  2  1  0
  2  3  2  0
  3  4  1  0
  4  5  1  0
  4  6  2  0
  6  7  1  0
  7  8  1  0
  7  9  2  0
  9 10  1  0
 10 11  2  0
 10 12  1  0
 12 13  1  0
 13 14  1  0
 14 15  2  0
 15 16  1  0
 16 17  1  0
  9 18  1  0
 18 19  1  0
 19 20  2  0
 20  2  1  0
 19  6  1  0
 17 13  2  0
  1 21  1  0
  1 22  1  0
  1 23  1  0
  3 24  1  0
  5 25  1  0
  5 26  1  0
  5 27  1  0
  8 28  1  0
  8 29  1  0
 12 30  1  0
 14 31  1  0
 15 32  1  0
M  END
>  <Binding energies>  (1) 
[-6.1]

>  <Ligand effiencies>  (1) 
[-0.2652173913043478]

>  <Interactions>  (1) 
["V-A:ARG:545:CD:4923, V-B:TYR:539:CD2:9846, V-A:GLU:543:CD:4908, H-A:TYR:484:OH:4348, V-B:TYR:539:CE2:9848, V-A:ARG:545:CZ:4926, V-A:LEU:475:CD2:4259, V-A:TYR:484:CZ:4347, H-A:GLU:543:OE2:4910, V-B:GLU:543:CB:9878, V-B:GLU:543:CG:9879, V-A:TYR:484:CE2:4346, V-A:HIS:456:CE1:4070, V-B:HIS:456:CE1:9041, H-A:GLU:543:OE1:4909, V-A:GLU:543:CB:4906, V-A:GLY:453:CA:4044, V-B:GLU:543:CA:9876"]

$$$$
4aj_Grossjean_2025
     RDKit          3D

 32 34  0  0  0  0  0  0  0  0999 V2000
  131.3140  121.1520   60.6590 C   0  0  0  0  0  0  0  0  0  0  0  0
  131.5160  122.1320   61.8000 C   0  0  0  0  0  0  0  0  0  0  0  0
  132.6270  122.9720   61.8340 C   0  0  0  0  0  0  0  0  0  0  0  0
  132.7970  123.8650   62.8990 C   0  0  0  0  0  0  0  0  0  0  0  0
  134.0260  124.7610   62.8910 C   0  0  0  0  0  0  0  0  0  0  0  0
  131.8080  123.8770   63.9190 C   0  0  0  0  0  0  0  0  0  0  0  0
  131.6700  124.6460   65.1270 C   0  0  0  0  0  0  0  0  0  0  0  0
  132.5930  125.5870   65.5050 N   0  0  0  0  0  0  0  0  0  0  0  0
  130.5140  124.3450   65.8640 C   0  0  0  0  0  0  0  0  0  0  0  0
  130.0690  124.9220   67.1340 C   0  0  0  0  0  0  0  0  0  0  0  0
  129.4190  124.2500   67.9380 O   0  0  0  0  0  0  0  0  0  0  0  0
  130.4320  126.2110   67.3470 N   0  0  0  0  0  0  0  0  0  0  0  0
  130.1500  126.9830   68.4660 C   0  0  0  0  0  0  0  0  0  0  0  0
  130.9900  127.6850   69.1960 N   0  0  0  0  0  0  0  0  0  0  0  0
  130.3740  128.3020   70.1850 C   0  0  0  0  0  0  0  0  0  0  0  0
  128.9990  128.1040   70.2740 C   0  0  0  0  0  0  0  0  0  0  0  0
  128.4970  127.0500   68.9850 S   0  0  0  0  0  0  0  0  0  0  0  0
  129.5690  123.0790   65.0800 S   0  0  0  0  0  0  0  0  0  0  0  0
  130.7170  122.9690   63.7650 C   0  0  0  0  0  0  0  0  0  0  0  0
  130.5520  122.1160   62.7530 N   0  0  0  0  0  0  0  0  0  0  0  0
  131.1078  120.1515   61.0671 H   0  0  0  0  0  0  0  0  0  0  0  0
  130.4642  121.4784   60.0414 H   0  0  0  0  0  0  0  0  0  0  0  0
  132.2236  121.1157   60.0414 H   0  0  0  0  0  0  0  0  0  0  0  0
  133.3705  122.9337   61.0243 H   0  0  0  0  0  0  0  0  0  0  0  0
  134.3267  124.9802   63.9261 H   0  0  0  0  0  0  0  0  0  0  0  0
  134.8492  124.2496   62.3705 H   0  0  0  0  0  0  0  0  0  0  0  0
  133.7910  125.7011   62.3705 H   0  0  0  0  0  0  0  0  0  0  0  0
  132.3940  126.5760   65.4640 H   0  0  0  0  0  0  0  0  0  0  0  0
  133.5090  125.3200   65.8380 H   0  0  0  0  0  0  0  0  0  0  0  0
  130.9690  126.6660   66.6240 H   0  0  0  0  0  0  0  0  0  0  0  0
  130.9165  128.9379   70.9001 H   0  0  0  0  0  0  0  0  0  0  0  0
  128.3377  128.5428   71.0356 H   0  0  0  0  0  0  0  0  0  0  0  0
  1  2  1  0
  2  3  2  0
  3  4  1  0
  4  5  1  0
  4  6  2  0
  6  7  1  0
  7  8  1  0
  7  9  2  0
  9 10  1  0
 10 11  2  0
 10 12  1  0
 12 13  1  0
 13 14  2  0
 14 15  1  0
 15 16  2  0
 16 17  1  0
  9 18  1  0
 18 19  1  0
 19 20  2  0
 20  2  1  0
 19  6  1  0
 17 13  1  0
  1 21  1  0
  1 22  1  0
  1 23  1  0
  3 24  1  0
  5 25  1  0
  5 26  1  0
  5 27  1  0
  8 28  1  0
  8 29  1  0
 12 30  1  0
 15 31  1  0
 16 32  1  0
M  END
>  <Binding energies>  (1) 
[-6.17]

>  <Ligand effiencies>  (1) 
[-0.2682608695652174]

>  <Interactions>  (1) 
["V-A:ARG:545:CD:4923, V-B:TYR:539:CD2:9846, V-A:GLU:543:CD:4908, H-A:TYR:484:OH:4348, V-B:TYR:539:CE2:9848, V-A:ARG:545:CZ:4926, V-A:LEU:475:CD2:4259, V-A:TYR:484:CZ:4347, H-A:GLU:543:OE2:4910, V-B:GLU:543:CB:9878, V-B:GLU:543:CG:9879, V-A:TYR:484:CE2:4346, V-B:HIS:456:CD2:9039, V-A:GLY:544:C:4912, V-A:HIS:456:CE1:4070, V-B:HIS:456:CE1:9041, H-A:GLU:543:OE1:4909, V-A:GLU:543:CB:4906, V-A:GLU:543:C:4902, V-A:GLY:453:CA:4044, V-B:GLU:543:CA:9876"]

$$$$
4ak_Grossjean_2025
     RDKit          3D

 50 51  0  0  0  0  0  0  0  0999 V2000
  134.4660  127.0250   74.5280 C   0  0  0  0  0  0  0  0  0  0  0  0
  133.1260  127.2880   74.9110 O   0  0  0  0  0  0  0  0  0  0  0  0
  132.2720  126.1560   74.7980 C   0  0  0  0  0  0  0  0  0  0  0  0
  130.8780  126.6090   74.3470 C   0  0  0  0  0  0  0  0  0  0  0  0
  131.0090  127.6340   73.3700 O   0  0  0  0  0  0  0  0  0  0  0  0
  130.0660  127.5390   72.3100 C   0  0  0  0  0  0  0  0  0  0  0  0
  130.5060  128.4520   71.1590 C   0  0  0  0  0  0  0  0  0  0  0  0
  130.1340  127.8590   69.9220 O   0  0  0  0  0  0  0  0  0  0  0  0
  128.7290  127.7860   69.7190 C   0  0  0  0  0  0  0  0  0  0  0  0
  128.4350  126.8600   68.5240 C   0  0  0  0  0  0  0  0  0  0  0  0
  127.6750  127.5070   67.4540 N   0  0  0  0  0  0  0  0  0  0  0  0
  127.8600  128.7700   67.0200 C   0  0  0  0  0  0  0  0  0  0  0  0
  128.7280  129.5090   67.4880 O   0  0  0  0  0  0  0  0  0  0  0  0
  126.9720  129.2180   65.9480 C   0  0  0  0  0  0  0  0  0  0  0  0
  125.2260  129.2490   66.1940 S   0  0  0  0  0  0  0  0  0  0  0  0
  124.9640  129.8650   64.5780 C   0  0  0  0  0  0  0  0  0  0  0  0
  123.7420  130.1180   64.1090 N   0  0  0  0  0  0  0  0  0  0  0  0
  123.6770  130.5900   62.8390 C   0  0  0  0  0  0  0  0  0  0  0  0
  122.2780  130.8730   62.3250 C   0  0  0  0  0  0  0  0  0  0  0  0
  124.7950  130.8140   62.0380 C   0  0  0  0  0  0  0  0  0  0  0  0
  126.0770  130.5490   62.5340 C   0  0  0  0  0  0  0  0  0  0  0  0
  127.2650  130.8050   61.6200 C   0  0  0  0  0  0  0  0  0  0  0  0
  126.1840  130.0510   63.8600 C   0  0  0  0  0  0  0  0  0  0  0  0
  127.3150  129.6790   64.6680 C   0  0  0  0  0  0  0  0  0  0  0  0
  128.6050  129.7710   64.2100 N   0  0  0  0  0  0  0  0  0  0  0  0
  135.0873  126.9031   75.4275 H   0  0  0  0  0  0  0  0  0  0  0  0
  134.5020  126.1026   73.9297 H   0  0  0  0  0  0  0  0  0  0  0  0
  134.8480  127.8653   73.9297 H   0  0  0  0  0  0  0  0  0  0  0  0
  132.6872  125.4561   74.0579 H   0  0  0  0  0  0  0  0  0  0  0  0
  132.1963  125.6554   75.7746 H   0  0  0  0  0  0  0  0  0  0  0  0
  130.3369  125.7552   73.9132 H   0  0  0  0  0  0  0  0  0  0  0  0
  130.3185  126.9945   75.2121 H   0  0  0  0  0  0  0  0  0  0  0  0
  130.0148  126.4990   71.9554 H   0  0  0  0  0  0  0  0  0  0  0  0
  129.0740  127.8501   72.6694 H   0  0  0  0  0  0  0  0  0  0  0  0
  130.0161  129.4318   71.2591 H   0  0  0  0  0  0  0  0  0  0  0  0
  131.5974  128.5857   71.1907 H   0  0  0  0  0  0  0  0  0  0  0  0
  128.2475  127.3839   70.6226 H   0  0  0  0  0  0  0  0  0  0  0  0
  128.3338  128.7915   69.5121 H   0  0  0  0  0  0  0  0  0  0  0  0
  129.3929  126.5129   68.1092 H   0  0  0  0  0  0  0  0  0  0  0  0
  127.8179  126.0317   68.9023 H   0  0  0  0  0  0  0  0  0  0  0  0
  126.9490  126.9510   67.0240 H   0  0  0  0  0  0  0  0  0  0  0  0
  121.5955  131.0111   63.1765 H   0  0  0  0  0  0  0  0  0  0  0  0
  122.2901  131.7869   61.7129 H   0  0  0  0  0  0  0  0  0  0  0  0
  121.9340  130.0263   61.7129 H   0  0  0  0  0  0  0  0  0  0  0  0
  124.6701  131.1993   61.0153 H   0  0  0  0  0  0  0  0  0  0  0  0
  128.1608  130.9980   62.2284 H   0  0  0  0  0  0  0  0  0  0  0  0
  127.4360  129.9231   60.9852 H   0  0  0  0  0  0  0  0  0  0  0  0
  127.0576  131.6791   60.9852 H   0  0  0  0  0  0  0  0  0  0  0  0
  129.1910  130.5660   64.4240 H   0  0  0  0  0  0  0  0  0  0  0  0
  129.0140  129.0410   63.6450 H   0  0  0  0  0  0  0  0  0  0  0  0
  1  2  1  0
  2  3  1  0
  3  4  1  0
  4  5  1  0
  5  6  1  0
  6  7  1  0
  7  8  1  0
  8  9  1  0
  9 10  1  0
 10 11  1  0
 11 12  1  0
 12 13  2  0
 12 14  1  0
 14 15  1  0
 15 16  1  0
 16 17  2  0
 17 18  1  0
 18 19  1  0
 18 20  2  0
 20 21  1  0
 21 22  1  0
 21 23  2  0
 23 24  1  0
 24 25  1  0
 24 14  2  0
 23 16  1  0
  1 26  1  0
  1 27  1  0
  1 28  1  0
  3 29  1  0
  3 30  1  0
  4 31  1  0
  4 32  1  0
  6 33  1  0
  6 34  1  0
  7 35  1  0
  7 36  1  0
  9 37  1  0
  9 38  1  0
 10 39  1  0
 10 40  1  0
 11 41  1  0
 19 42  1  0
 19 43  1  0
 19 44  1  0
 20 45  1  0
 22 46  1  0
 22 47  1  0
 22 48  1  0
 25 49  1  0
 25 50  1  0
M  END
>  <Binding energies>  (1) 
[-6.12]

>  <Ligand effiencies>  (1) 
[-0.21857142857142858]

>  <Interactions>  (1) 
["V-A:GLU:543:CD:4908, V-B:GLY:453:C:9013, V-B:GLY:453:CA:9015, H-B:ARG:545:NH1:9899, H-B:GLY:454:N:9021, V-B:ILE:369:CG1:8209, H-B:ARG:545:NH2:9900, H-A:GLU:543:OE2:4910, V-B:GLU:543:CB:9878, V-B:GLU:543:CG:9879, V-B:GLU:543:CD:9880, V-A:GLY:544:C:4912, V-A:HIS:456:CD2:4068, V-A:HIS:456:CB:4065, V-A:HIS:456:CG:4066, V-B:HIS:456:CE1:9041, V-B:GLU:543:C:9874, H-A:LYS:547:NZ:4951, H-A:GLU:543:OE1:4909, V-A:GLU:543:CB:4906, V-A:GLU:543:C:4902, V-B:TYR:484:CZ:9318, V-B:ARG:545:CZ:9898, V-A:GLU:543:CG:4907, H-B:ARG:545:NE:9896, V-A:GLY:544:CA:4914, V-B:ARG:545:CD:9895, V-B:ARG:545:CG:9894, V-A:LYS:547:CG:4948, V-A:ARG:545:C:4917, H-B:GLU:543:OE2:9882"]

$$$$
4al_Grossjean_2025
     RDKit          3D

 28 29  0  0  0  0  0  0  0  0999 V2000
  131.6190  128.7080   58.4000 C   0  0  0  0  0  0  0  0  0  0  0  0
  132.2150  129.8720   57.8480 O   0  0  0  0  0  0  0  0  0  0  0  0
  132.5920  130.9070   58.6440 C   0  0  0  0  0  0  0  0  0  0  0  0
  133.7570  131.2880   58.7730 O   0  0  0  0  0  0  0  0  0  0  0  0
  131.4530  131.5370   59.3470 C   0  0  0  0  0  0  0  0  0  0  0  0
  130.2780  132.4930   58.4410 S   0  0  0  0  0  0  0  0  0  0  0  0
  129.3680  132.8290   59.8960 C   0  0  0  0  0  0  0  0  0  0  0  0
  128.2610  133.5730   59.8790 N   0  0  0  0  0  0  0  0  0  0  0  0
  127.6500  133.7570   61.0760 C   0  0  0  0  0  0  0  0  0  0  0  0
  126.3920  134.6060   61.0340 C   0  0  0  0  0  0  0  0  0  0  0  0
  128.1140  133.2200   62.2740 C   0  0  0  0  0  0  0  0  0  0  0  0
  129.2760  132.4400   62.2890 C   0  0  0  0  0  0  0  0  0  0  0  0
  129.7440  131.8760   63.6200 C   0  0  0  0  0  0  0  0  0  0  0  0
  129.9440  132.2250   61.0530 C   0  0  0  0  0  0  0  0  0  0  0  0
  131.1320  131.4950   60.7090 C   0  0  0  0  0  0  0  0  0  0  0  0
  131.8800  130.8200   61.6390 N   0  0  0  0  0  0  0  0  0  0  0  0
  131.6489  128.7663   59.4980 H   0  0  0  0  0  0  0  0  0  0  0  0
  130.5737  128.6372   58.0649 H   0  0  0  0  0  0  0  0  0  0  0  0
  132.1726  127.8185   58.0649 H   0  0  0  0  0  0  0  0  0  0  0  0
  126.0644  134.8271   62.0606 H   0  0  0  0  0  0  0  0  0  0  0  0
  126.6025  135.5475   60.5055 H   0  0  0  0  0  0  0  0  0  0  0  0
  125.5977  134.0585   60.5055 H   0  0  0  0  0  0  0  0  0  0  0  0
  127.5668  133.4090   63.2094 H   0  0  0  0  0  0  0  0  0  0  0  0
  129.2768  132.4390   64.4414 H   0  0  0  0  0  0  0  0  0  0  0  0
  129.4558  130.8168   63.6911 H   0  0  0  0  0  0  0  0  0  0  0  0
  130.8382  131.9639   63.6911 H   0  0  0  0  0  0  0  0  0  0  0  0
  132.7570  130.3790   61.4030 H   0  0  0  0  0  0  0  0  0  0  0  0
  131.5750  130.7390   62.6010 H   0  0  0  0  0  0  0  0  0  0  0  0
  1  2  1  0
  2  3  1  0
  3  4  2  0
  3  5  1  0
  5  6  1  0
  6  7  1  0
  7  8  2  0
  8  9  1  0
  9 10  1  0
  9 11  2  0
 11 12  1  0
 12 13  1  0
 12 14  2  0
 14 15  1  0
 15 16  1  0
 15  5  2  0
 14  7  1  0
  1 17  1  0
  1 18  1  0
  1 19  1  0
 10 20  1  0
 10 21  1  0
 10 22  1  0
 11 23  1  0
 13 24  1  0
 13 25  1  0
 13 26  1  0
 16 27  1  0
 16 28  1  0
M  END
>  <Binding energies>  (1) 
[-4.88]

>  <Ligand effiencies>  (1) 
[-0.2711111111111111]

>  <Interactions>  (1) 
["V-A:GLU:543:CD:4908, V-A:ASP:366:CB:3212, V-A:PRO:540:CB:4885, V-A:TYR:539:CD1:4873, V-A:PRO:540:N:4884, V-A:PRO:540:CA:4883, V-A:TYR:539:C:4867, V-B:LEU:475:CD2:9230, V-A:TYR:539:CE1:4875, V-A:ASP:366:CG:3213, H-A:GLU:543:OE1:4909, V-A:ALA:541:CB:4892, V-A:GLU:543:CG:4907, H-A:ASP:366:OD2:3215, V-A:LEU:363:CD1:3189, H-A:TYR:531:OH:4795"]

$$$$
4ba_Grossjean_2025
     RDKit          3D

 44 46  0  0  0  0  0  0  0  0999 V2000
  127.7880  128.4870   74.0530 C   0  0  0  0  0  0  0  0  0  0  0  0
  128.0720  127.9460   72.6390 C   0  0  0  0  0  0  0  0  0  0  0  0
  129.4100  128.4030   72.0210 C   0  0  0  0  0  0  0  0  0  0  0  0
  130.1130  129.2150   72.6270 O   0  0  0  0  0  0  0  0  0  0  0  0
  129.7980  127.8220   70.6920 C   0  0  0  0  0  0  0  0  0  0  0  0
  128.9330  126.9250   70.0540 C   0  0  0  0  0  0  0  0  0  0  0  0
  129.2690  126.3710   68.8220 C   0  0  0  0  0  0  0  0  0  0  0  0
  130.4730  126.7040   68.2010 C   0  0  0  0  0  0  0  0  0  0  0  0
  130.7160  126.0800   66.9630 N   0  0  0  0  0  0  0  0  0  0  0  0
  130.2590  124.8990   66.4770 C   0  0  0  0  0  0  0  0  0  0  0  0
  129.5430  124.1210   67.1090 O   0  0  0  0  0  0  0  0  0  0  0  0
  130.6960  124.5710   65.1180 C   0  0  0  0  0  0  0  0  0  0  0  0
  132.0580  125.4250   64.3950 S   0  0  0  0  0  0  0  0  0  0  0  0
  131.8790  124.5390   62.8990 C   0  0  0  0  0  0  0  0  0  0  0  0
  132.6880  124.7560   61.8630 N   0  0  0  0  0  0  0  0  0  0  0  0
  132.4510  124.0110   60.7590 C   0  0  0  0  0  0  0  0  0  0  0  0
  133.3790  124.2800   59.5880 C   0  0  0  0  0  0  0  0  0  0  0  0
  131.4380  123.0610   60.6690 C   0  0  0  0  0  0  0  0  0  0  0  0
  130.5820  122.8280   61.7570 C   0  0  0  0  0  0  0  0  0  0  0  0
  129.4830  121.7700   61.6110 C   0  0  0  0  0  0  0  0  0  0  0  0
  128.2760  122.2190   61.9620 F   0  0  0  0  0  0  0  0  0  0  0  0
  129.4060  121.3690   60.3420 F   0  0  0  0  0  0  0  0  0  0  0  0
  129.7600  120.7220   62.3880 F   0  0  0  0  0  0  0  0  0  0  0  0
  130.8010  123.6020   62.9360 C   0  0  0  0  0  0  0  0  0  0  0  0
  130.1380  123.6510   64.2160 C   0  0  0  0  0  0  0  0  0  0  0  0
  129.0570  122.8620   64.5200 N   0  0  0  0  0  0  0  0  0  0  0  0
  131.3480  127.5970   68.8360 C   0  0  0  0  0  0  0  0  0  0  0  0
  131.0110  128.1510   70.0690 C   0  0  0  0  0  0  0  0  0  0  0  0
  128.1629  127.7729   74.8010 H   0  0  0  0  0  0  0  0  0  0  0  0
  128.2944  129.4547   74.1839 H   0  0  0  0  0  0  0  0  0  0  0  0
  126.7039  128.6198   74.1839 H   0  0  0  0  0  0  0  0  0  0  0  0
  128.0772  126.8472   72.6890 H   0  0  0  0  0  0  0  0  0  0  0  0
  127.2806  128.3507   71.9910 H   0  0  0  0  0  0  0  0  0  0  0  0
  127.9790  126.6555   70.5307 H   0  0  0  0  0  0  0  0  0  0  0  0
  128.5801  125.6655   68.3345 H   0  0  0  0  0  0  0  0  0  0  0  0
  131.3390  126.5930   66.3580 H   0  0  0  0  0  0  0  0  0  0  0  0
  134.3714  124.5677   59.9652 H   0  0  0  0  0  0  0  0  0  0  0  0
  133.4690  123.3710   58.9752 H   0  0  0  0  0  0  0  0  0  0  0  0
  132.9689  125.0962   58.9752 H   0  0  0  0  0  0  0  0  0  0  0  0
  131.3071  122.4886   59.7388 H   0  0  0  0  0  0  0  0  0  0  0  0
  128.6580  122.8360   65.4470 H   0  0  0  0  0  0  0  0  0  0  0  0
  128.6270  122.2700   63.8230 H   0  0  0  0  0  0  0  0  0  0  0  0
  132.3035  127.8609   68.3591 H   0  0  0  0  0  0  0  0  0  0  0  0
  131.7023  128.8528   70.5585 H   0  0  0  0  0  0  0  0  0  0  0  0
  1  2  1  0
  2  3  1  0
  3  4  2  0
  3  5  1  0
  5  6  2  0
  6  7  1  0
  7  8  2  0
  8  9  1  0
  9 10  1  0
 10 11  2  0
 10 12  1  0
 12 13  1  0
 13 14  1  0
 14 15  2  0
 15 16  1  0
 16 17  1  0
 16 18  2  0
 18 19  1  0
 19 20  1  0
 20 21  1  0
 20 22  1  0
 20 23  1  0
 19 24  2  0
 24 25  1  0
 25 26  1  0
  8 27  1  0
 27 28  2  0
 28  5  1  0
 25 12  2  0
 24 14  1  0
  1 29  1  0
  1 30  1  0
  1 31  1  0
  2 32  1  0
  2 33  1  0
  6 34  1  0
  7 35  1  0
  9 36  1  0
 17 37  1  0
 17 38  1  0
 17 39  1  0
 18 40  1  0
 26 41  1  0
 26 42  1  0
 27 43  1  0
 28 44  1  0
M  END
>  <Binding energies>  (1) 
[-6.82]

>  <Ligand effiencies>  (1) 
[-0.22]

>  <Interactions>  (1) 
["V-B:TYR:539:CD2:9846, V-A:GLU:543:CD:4908, H-A:TYR:484:OH:4348, V-B:TYR:539:CE2:9848, V-A:ARG:545:CZ:4926, V-A:LEU:475:CD2:4259, V-B:PRO:540:CA:9855, V-A:ASP:366:CB:3212, V-A:ASP:366:CG:3213, V-A:ILE:369:CG2:3237, V-A:TYR:484:CZ:4347, H-A:GLU:543:OE2:4910, V-B:GLU:543:CB:9878, V-B:GLU:543:CG:9879, V-A:TYR:484:CE2:4346, V-B:GLU:543:CD:9880, V-B:ALA:541:CB:9864, V-A:ASP:366:CA:3210, V-B:HIS:456:CD2:9039, V-A:GLY:544:C:4912, V-B:HIS:456:CG:9037, V-A:HIS:456:CE1:4070, V-B:HIS:456:CE1:9041, V-B:GLU:543:C:9874, H-A:LYS:547:NZ:4951, H-A:GLU:543:OE1:4909, V-A:GLU:543:CB:4906, V-A:GLU:543:C:4902, V-B:PRO:540:C:9853, V-B:TYR:539:C:9839, V-B:ALA:541:CA:9862, V-A:ARG:545:CG:4922"]

$$$$
4bb_Grossjean_2025
     RDKit          3D

 41 43  0  0  0  0  0  0  0  0999 V2000
  129.1500  127.0740   71.1040 C   0  0  0  0  0  0  0  0  0  0  0  0
  130.0080  127.6500   69.9750 C   0  0  0  0  0  0  0  0  0  0  0  0
  131.2070  127.8310   70.1920 O   0  0  0  0  0  0  0  0  0  0  0  0
  129.3420  127.9750   68.6720 C   0  0  0  0  0  0  0  0  0  0  0  0
  128.7740  129.2410   68.4860 C   0  0  0  0  0  0  0  0  0  0  0  0
  128.1500  129.5670   67.2860 C   0  0  0  0  0  0  0  0  0  0  0  0
  128.0880  128.6380   66.2460 C   0  0  0  0  0  0  0  0  0  0  0  0
  127.4310  129.0710   65.0770 N   0  0  0  0  0  0  0  0  0  0  0  0
  127.5320  130.2440   64.4050 C   0  0  0  0  0  0  0  0  0  0  0  0
  128.2440  131.1840   64.7570 O   0  0  0  0  0  0  0  0  0  0  0  0
  126.6940  130.3510   63.2070 C   0  0  0  0  0  0  0  0  0  0  0  0
  127.4260  130.3030   61.6050 S   0  0  0  0  0  0  0  0  0  0  0  0
  125.8710  130.5200   60.8360 C   0  0  0  0  0  0  0  0  0  0  0  0
  125.7520  130.5670   59.5100 N   0  0  0  0  0  0  0  0  0  0  0  0
  124.4980  130.7390   59.0330 C   0  0  0  0  0  0  0  0  0  0  0  0
  124.3840  130.7880   57.5200 C   0  0  0  0  0  0  0  0  0  0  0  0
  123.3720  130.8650   59.8420 C   0  0  0  0  0  0  0  0  0  0  0  0
  123.4910  130.8170   61.2390 C   0  0  0  0  0  0  0  0  0  0  0  0
  122.2230  130.9600   62.0870 C   0  0  0  0  0  0  0  0  0  0  0  0
  122.0790  132.1810   62.6090 F   0  0  0  0  0  0  0  0  0  0  0  0
  121.1490  130.7170   61.3370 F   0  0  0  0  0  0  0  0  0  0  0  0
  122.2570  130.0950   63.1010 F   0  0  0  0  0  0  0  0  0  0  0  0
  124.8010  130.6360   61.7760 C   0  0  0  0  0  0  0  0  0  0  0  0
  125.3040  130.5400   63.1240 C   0  0  0  0  0  0  0  0  0  0  0  0
  124.4910  130.6200   64.2250 N   0  0  0  0  0  0  0  0  0  0  0  0
  128.6480  127.3650   66.4270 C   0  0  0  0  0  0  0  0  0  0  0  0
  129.2710  127.0400   67.6290 C   0  0  0  0  0  0  0  0  0  0  0  0
  129.5796  127.3624   72.0747 H   0  0  0  0  0  0  0  0  0  0  0  0
  128.1263  127.4685   71.0244 H   0  0  0  0  0  0  0  0  0  0  0  0
  129.1275  125.9771   71.0244 H   0  0  0  0  0  0  0  0  0  0  0  0
  128.8215  129.9843   69.2955 H   0  0  0  0  0  0  0  0  0  0  0  0
  127.7025  130.5634   67.1559 H   0  0  0  0  0  0  0  0  0  0  0  0
  126.7710  128.4050   64.7050 H   0  0  0  0  0  0  0  0  0  0  0  0
  123.4068  131.2080   57.2393 H   0  0  0  0  0  0  0  0  0  0  0  0
  125.1859  131.4209   57.1122 H   0  0  0  0  0  0  0  0  0  0  0  0
  124.4766  129.7706   57.1122 H   0  0  0  0  0  0  0  0  0  0  0  0
  122.3821  131.0032   59.3826 H   0  0  0  0  0  0  0  0  0  0  0  0
  124.6700  131.2710   64.9770 H   0  0  0  0  0  0  0  0  0  0  0  0
  123.6790  130.0260   64.3240 H   0  0  0  0  0  0  0  0  0  0  0  0
  128.5949  126.6218   65.6177 H   0  0  0  0  0  0  0  0  0  0  0  0
  129.7115  126.0408   67.7618 H   0  0  0  0  0  0  0  0  0  0  0  0
  1  2  1  0
  2  3  2  0
  2  4  1  0
  4  5  2  0
  5  6  1  0
  6  7  2  0
  7  8  1  0
  8  9  1  0
  9 10  2  0
  9 11  1  0
 11 12  1  0
 12 13  1  0
 13 14  2  0
 14 15  1  0
 15 16  1  0
 15 17  2  0
 17 18  1  0
 18 19  1  0
 19 20  1  0
 19 21  1  0
 19 22  1  0
 18 23  2  0
 23 24  1  0
 24 25  1  0
  7 26  1  0
 26 27  2  0
 27  4  1  0
 24 11  2  0
 23 13  1  0
  1 28  1  0
  1 29  1  0
  1 30  1  0
  5 31  1  0
  6 32  1  0
  8 33  1  0
 16 34  1  0
 16 35  1  0
 16 36  1  0
 17 37  1  0
 25 38  1  0
 25 39  1  0
 26 40  1  0
 27 41  1  0
M  END
>  <Binding energies>  (1) 
[-6.91]

>  <Ligand effiencies>  (1) 
[-0.23033333333333333]

>  <Interactions>  (1) 
["V-B:ASP:366:CB:8183, V-A:GLU:543:CD:4908, V-B:ASP:366:CG:8184, V-B:ILE:369:CB:8207, V-B:GLY:454:CA:9020, V-B:GLY:453:C:9013, V-B:ILE:369:CG2:8208, V-B:GLY:453:CA:9015, V-A:TYR:539:CE1:4875, V-B:ASP:366:CA:8181, V-B:ILE:369:CG1:8209, V-B:GLU:543:CB:9878, V-B:GLU:543:CG:9879, V-B:GLU:543:CD:9880, H-B:GLU:543:OE1:9881, V-A:HIS:456:CE1:4070, V-B:HIS:456:CE1:9041, V-A:GLU:543:CB:4906, V-A:GLU:543:C:4902, V-B:TYR:484:CZ:9318, V-B:ARG:545:CZ:9898, H-B:TYR:484:OH:9319, V-A:GLU:543:CG:4907, V-B:ILE:369:CD1:8210, V-A:GLU:543:CA:4904, V-B:TYR:484:CE2:9317, H-A:ARG:545:N:4920, H-B:GLU:543:OE2:9882, V-B:CYS:365:C:8175"]

$$$$
4bc_Grossjean_2025
     RDKit          3D

 40 42  0  0  0  0  0  0  0  0999 V2000
  129.8380  128.1710   70.9300 C   0  0  0  0  0  0  0  0  0  0  0  0
  130.0670  127.3310   69.8040 O   0  0  0  0  0  0  0  0  0  0  0  0
  129.4550  127.6330   68.6030 C   0  0  0  0  0  0  0  0  0  0  0  0
  128.8150  128.8690   68.5240 C   0  0  0  0  0  0  0  0  0  0  0  0
  128.1700  129.2610   67.3540 C   0  0  0  0  0  0  0  0  0  0  0  0
  128.1640  128.4200   66.2390 C   0  0  0  0  0  0  0  0  0  0  0  0
  127.4740  128.8920   65.1080 N   0  0  0  0  0  0  0  0  0  0  0  0
  127.5390  130.1070   64.5100 C   0  0  0  0  0  0  0  0  0  0  0  0
  128.2310  131.0400   64.9220 O   0  0  0  0  0  0  0  0  0  0  0  0
  126.7100  130.2640   63.3110 C   0  0  0  0  0  0  0  0  0  0  0  0
  127.4490  130.2420   61.7120 S   0  0  0  0  0  0  0  0  0  0  0  0
  125.8980  130.4740   60.9410 C   0  0  0  0  0  0  0  0  0  0  0  0
  125.7840  130.5450   59.6150 N   0  0  0  0  0  0  0  0  0  0  0  0
  124.5320  130.7280   59.1360 C   0  0  0  0  0  0  0  0  0  0  0  0
  124.4240  130.8010   57.6230 C   0  0  0  0  0  0  0  0  0  0  0  0
  123.4020  130.8410   59.9420 C   0  0  0  0  0  0  0  0  0  0  0  0
  123.5160  130.7670   61.3390 C   0  0  0  0  0  0  0  0  0  0  0  0
  122.2440  130.8990   62.1850 C   0  0  0  0  0  0  0  0  0  0  0  0
  122.1080  132.1070   62.7350 F   0  0  0  0  0  0  0  0  0  0  0  0
  121.1730  130.6840   61.4220 F   0  0  0  0  0  0  0  0  0  0  0  0
  122.2670  130.0090   63.1760 F   0  0  0  0  0  0  0  0  0  0  0  0
  124.8230  130.5720   61.8780 C   0  0  0  0  0  0  0  0  0  0  0  0
  125.3200  130.4460   63.2270 C   0  0  0  0  0  0  0  0  0  0  0  0
  124.5010  130.4990   64.3250 N   0  0  0  0  0  0  0  0  0  0  0  0
  128.7940  127.1680   66.3150 C   0  0  0  0  0  0  0  0  0  0  0  0
  129.4370  126.7800   67.4870 C   0  0  0  0  0  0  0  0  0  0  0  0
  129.9948  127.5958   71.8544 H   0  0  0  0  0  0  0  0  0  0  0  0
  130.5376  129.0194   70.9029 H   0  0  0  0  0  0  0  0  0  0  0  0
  128.8046  128.5469   70.9029 H   0  0  0  0  0  0  0  0  0  0  0  0
  128.8196  129.5412   69.3947 H   0  0  0  0  0  0  0  0  0  0  0  0
  127.6635  130.2363   67.3077 H   0  0  0  0  0  0  0  0  0  0  0  0
  126.8190  128.2340   64.7120 H   0  0  0  0  0  0  0  0  0  0  0  0
  123.5419  131.3973   57.3467 H   0  0  0  0  0  0  0  0  0  0  0  0
  125.3289  131.2734   57.2132 H   0  0  0  0  0  0  0  0  0  0  0  0
  124.3230  129.7852   57.2132 H   0  0  0  0  0  0  0  0  0  0  0  0
  122.4143  130.9891   59.4811 H   0  0  0  0  0  0  0  0  0  0  0  0
  123.7080  129.8840   64.4320 H   0  0  0  0  0  0  0  0  0  0  0  0
  124.6680  131.1600   65.0720 H   0  0  0  0  0  0  0  0  0  0  0  0
  128.7796  126.4924   65.4470 H   0  0  0  0  0  0  0  0  0  0  0  0
  129.9338  125.8000   67.5396 H   0  0  0  0  0  0  0  0  0  0  0  0
  1  2  1  0
  2  3  1  0
  3  4  2  0
  4  5  1  0
  5  6  2  0
  6  7  1  0
  7  8  1  0
  8  9  2  0
  8 10  1  0
 10 11  1  0
 11 12  1  0
 12 13  2  0
 13 14  1  0
 14 15  1  0
 14 16  2  0
 16 17  1  0
 17 18  1  0
 18 19  1  0
 18 20  1  0
 18 21  1  0
 17 22  2  0
 22 23  1  0
 23 24  1  0
  6 25  1  0
 25 26  2  0
 26  3  1  0
 23 10  2  0
 22 12  1  0
  1 27  1  0
  1 28  1  0
  1 29  1  0
  4 30  1  0
  5 31  1  0
  7 32  1  0
 15 33  1  0
 15 34  1  0
 15 35  1  0
 16 36  1  0
 24 37  1  0
 24 38  1  0
 25 39  1  0
 26 40  1  0
M  END
>  <Binding energies>  (1) 
[-6.01]

>  <Ligand effiencies>  (1) 
[-0.2072413793103448]

>  <Interactions>  (1) 
["V-B:ASP:366:CB:8183, V-A:GLU:543:CD:4908, V-B:ASP:366:CG:8184, V-B:ILE:369:CB:8207, V-B:GLY:454:CA:9020, V-B:GLY:453:C:9013, V-B:ILE:369:CG2:8208, V-B:GLY:453:CA:9015, V-A:TYR:539:CE1:4875, V-B:ASP:366:CA:8181, V-B:ILE:369:CG1:8209, V-B:GLU:543:CB:9878, V-B:GLU:543:CG:9879, V-B:GLU:543:CD:9880, H-B:GLU:543:OE1:9881, V-B:HIS:456:CE1:9041, V-A:GLU:543:CB:4906, V-A:GLU:543:C:4902, V-B:TYR:484:CZ:9318, V-B:ARG:545:CZ:9898, H-B:TYR:484:OH:9319, V-A:GLU:543:CG:4907, V-A:GLU:543:CA:4904, H-B:GLU:543:OE2:9882, V-B:CYS:365:C:8175"]

$$$$
4bd_Grossjean_2025
     RDKit          3D

 36 38  0  0  0  0  0  0  0  0999 V2000
  124.4260  130.8250   57.6130 C   0  0  0  0  0  0  0  0  0  0  0  0
  124.5290  130.7530   59.1260 C   0  0  0  0  0  0  0  0  0  0  0  0
  123.3970  130.8580   59.9290 C   0  0  0  0  0  0  0  0  0  0  0  0
  123.5070  130.7920   61.3270 C   0  0  0  0  0  0  0  0  0  0  0  0
  122.2330  130.9150   62.1690 C   0  0  0  0  0  0  0  0  0  0  0  0
  121.1190  130.7010   61.4650 F   0  0  0  0  0  0  0  0  0  0  0  0
  122.2580  130.0230   63.1590 F   0  0  0  0  0  0  0  0  0  0  0  0
  122.1490  132.1420   62.6830 F   0  0  0  0  0  0  0  0  0  0  0  0
  124.8140  130.6150   61.8710 C   0  0  0  0  0  0  0  0  0  0  0  0
  125.3090  130.5050   63.2210 C   0  0  0  0  0  0  0  0  0  0  0  0
  124.4860  130.5550   64.3160 N   0  0  0  0  0  0  0  0  0  0  0  0
  126.7020  130.3430   63.3110 C   0  0  0  0  0  0  0  0  0  0  0  0
  127.5310  130.2170   64.5130 C   0  0  0  0  0  0  0  0  0  0  0  0
  128.2650  131.1400   64.8690 O   0  0  0  0  0  0  0  0  0  0  0  0
  127.4120  129.0430   65.1820 N   0  0  0  0  0  0  0  0  0  0  0  0
  128.0890  128.5950   66.3310 C   0  0  0  0  0  0  0  0  0  0  0  0
  128.6600  127.3220   66.2480 C   0  0  0  0  0  0  0  0  0  0  0  0
  129.3600  126.7940   67.3300 C   0  0  0  0  0  0  0  0  0  0  0  0
  129.4960  127.5430   68.4950 C   0  0  0  0  0  0  0  0  0  0  0  0
  128.9430  128.8180   68.5860 C   0  0  0  0  0  0  0  0  0  0  0  0
  128.2430  129.3500   67.5060 C   0  0  0  0  0  0  0  0  0  0  0  0
  127.4450  130.3160   61.7130 S   0  0  0  0  0  0  0  0  0  0  0  0
  125.8920  130.5230   60.9370 C   0  0  0  0  0  0  0  0  0  0  0  0
  125.7810  130.5850   59.6110 N   0  0  0  0  0  0  0  0  0  0  0  0
  123.5540  131.4345   57.3334 H   0  0  0  0  0  0  0  0  0  0  0  0
  125.3392  131.2824   57.2047 H   0  0  0  0  0  0  0  0  0  0  0  0
  124.3101  129.8102   57.2047 H   0  0  0  0  0  0  0  0  0  0  0  0
  122.4090  130.9937   59.4648 H   0  0  0  0  0  0  0  0  0  0  0  0
  124.6470  131.1990   65.0780 H   0  0  0  0  0  0  0  0  0  0  0  0
  123.6810  129.9490   64.3970 H   0  0  0  0  0  0  0  0  0  0  0  0
  126.7290  128.3930   64.8210 H   0  0  0  0  0  0  0  0  0  0  0  0
  128.5560  126.7345   65.3239 H   0  0  0  0  0  0  0  0  0  0  0  0
  129.8034  125.7895   67.2641 H   0  0  0  0  0  0  0  0  0  0  0  0
  130.0450  127.1244   69.3514 H   0  0  0  0  0  0  0  0  0  0  0  0
  129.0590  129.4040   69.5097 H   0  0  0  0  0  0  0  0  0  0  0  0
  127.8114  130.3596   67.5727 H   0  0  0  0  0  0  0  0  0  0  0  0
  1  2  1  0
  2  3  2  0
  3  4  1  0
  4  5  1  0
  5  6  1  0
  5  7  1  0
  5  8  1  0
  4  9  2  0
  9 10  1  0
 10 11  1  0
 10 12  2  0
 12 13  1  0
 13 14  2  0
 13 15  1  0
 15 16  1  0
 16 17  2  0
 17 18  1  0
 18 19  2  0
 19 20  1  0
 20 21  2  0
 12 22  1  0
 22 23  1  0
 23 24  2  0
 24  2  1  0
 23  9  1  0
 21 16  1  0
  1 25  1  0
  1 26  1  0
  1 27  1  0
  3 28  1  0
 11 29  1  0
 11 30  1  0
 15 31  1  0
 17 32  1  0
 18 33  1  0
 19 34  1  0
 20 35  1  0
 21 36  1  0
M  END
>  <Binding energies>  (1) 
[-6.16]

>  <Ligand effiencies>  (1) 
[-0.22814814814814816]

>  <Interactions>  (1) 
["V-B:ASP:366:CB:8183, V-A:GLU:543:CD:4908, V-B:ASP:366:CG:8184, V-B:ILE:369:CB:8207, V-B:GLY:454:CA:9020, V-B:GLY:453:C:9013, V-B:ILE:369:CG2:8208, V-B:GLY:453:CA:9015, V-A:TYR:539:CE1:4875, V-B:ASP:366:CA:8181, V-B:ILE:369:CG1:8209, V-B:GLU:543:CB:9878, V-B:GLU:543:CG:9879, V-B:GLU:543:CD:9880, H-B:GLU:543:OE1:9881, V-A:HIS:456:CE1:4070, V-B:HIS:456:CE1:9041, V-A:GLU:543:CB:4906, V-A:GLU:543:C:4902, V-B:TYR:484:CZ:9318, V-B:ARG:545:CZ:9898, H-B:TYR:484:OH:9319, V-A:GLU:543:CG:4907, V-B:ILE:369:CD1:8210, V-A:GLU:543:CA:4904, H-B:GLU:543:OE2:9882, V-B:CYS:365:C:8175"]

$$$$
4be_Grossjean_2025
     RDKit          3D

 38 40  0  0  0  0  0  0  0  0999 V2000
  124.1290  134.5600   62.5110 C   0  0  0  0  0  0  0  0  0  0  0  0
  123.8460  133.0700   62.5520 C   0  0  0  0  0  0  0  0  0  0  0  0
  122.6510  132.5390   62.0620 C   0  0  0  0  0  0  0  0  0  0  0  0
  122.4580  131.1590   62.1350 C   0  0  0  0  0  0  0  0  0  0  0  0
  123.4540  130.3520   62.6900 C   0  0  0  0  0  0  0  0  0  0  0  0
  124.6300  130.9480   63.1560 C   0  0  0  0  0  0  0  0  0  0  0  0
  125.5900  130.0820   63.7100 N   0  0  0  0  0  0  0  0  0  0  0  0
  126.8500  130.3610   64.1280 C   0  0  0  0  0  0  0  0  0  0  0  0
  127.3550  131.4850   64.0820 O   0  0  0  0  0  0  0  0  0  0  0  0
  127.6140  129.2170   64.6330 C   0  0  0  0  0  0  0  0  0  0  0  0
  128.2970  128.0430   63.5090 S   0  0  0  0  0  0  0  0  0  0  0  0
  128.9450  127.0930   64.8260 C   0  0  0  0  0  0  0  0  0  0  0  0
  129.6340  125.9750   64.6020 N   0  0  0  0  0  0  0  0  0  0  0  0
  130.0870  125.3270   65.7000 C   0  0  0  0  0  0  0  0  0  0  0  0
  130.8680  124.0550   65.4240 C   0  0  0  0  0  0  0  0  0  0  0  0
  129.8700  125.7670   67.0030 C   0  0  0  0  0  0  0  0  0  0  0  0
  129.1450  126.9430   67.2450 C   0  0  0  0  0  0  0  0  0  0  0  0
  128.9340  127.3890   68.6960 C   0  0  0  0  0  0  0  0  0  0  0  0
  129.3110  128.6520   68.9140 F   0  0  0  0  0  0  0  0  0  0  0  0
  127.6430  127.3000   69.0130 F   0  0  0  0  0  0  0  0  0  0  0  0
  129.6440  126.6130   69.5140 F   0  0  0  0  0  0  0  0  0  0  0  0
  128.6490  127.6490   66.1080 C   0  0  0  0  0  0  0  0  0  0  0  0
  127.8770  128.8590   65.9640 C   0  0  0  0  0  0  0  0  0  0  0  0
  127.4460  129.5960   67.0380 N   0  0  0  0  0  0  0  0  0  0  0  0
  124.8240  132.2980   63.0930 N   0  0  0  0  0  0  0  0  0  0  0  0
  124.2026  134.9476   63.5378 H   0  0  0  0  0  0  0  0  0  0  0  0
  125.0771  134.7387   61.9827 H   0  0  0  0  0  0  0  0  0  0  0  0
  123.3124  135.0739   61.9827 H   0  0  0  0  0  0  0  0  0  0  0  0
  121.8801  133.1932   61.6287 H   0  0  0  0  0  0  0  0  0  0  0  0
  121.5275  130.7095   61.7579 H   0  0  0  0  0  0  0  0  0  0  0  0
  123.3152  129.2630   62.7595 H   0  0  0  0  0  0  0  0  0  0  0  0
  125.3040  129.1150   63.7610 H   0  0  0  0  0  0  0  0  0  0  0  0
  131.1553  123.5870   66.3771 H   0  0  0  0  0  0  0  0  0  0  0  0
  130.2419  123.3581   64.8474 H   0  0  0  0  0  0  0  0  0  0  0  0
  131.7727  124.2980   64.8474 H   0  0  0  0  0  0  0  0  0  0  0  0
  130.2700  125.1882   67.8486 H   0  0  0  0  0  0  0  0  0  0  0  0
  128.0260  129.7460   67.8510 H   0  0  0  0  0  0  0  0  0  0  0  0
  126.5240  130.0100   67.0550 H   0  0  0  0  0  0  0  0  0  0  0  0
  1  2  1  0
  2  3  2  0
  3  4  1  0
  4  5  2  0
  5  6  1  0
  6  7  1  0
  7  8  1  0
  8  9  2  0
  8 10  1  0
 10 11  1  0
 11 12  1  0
 12 13  2  0
 13 14  1  0
 14 15  1  0
 14 16  2  0
 16 17  1  0
 17 18  1  0
 18 19  1  0
 18 20  1  0
 18 21  1  0
 17 22  2  0
 22 23  1  0
 23 24  1  0
  6 25  2  0
 25  2  1  0
 23 10  2  0
 22 12  1  0
  1 26  1  0
  1 27  1  0
  1 28  1  0
  3 29  1  0
  4 30  1  0
  5 31  1  0
  7 32  1  0
 15 33  1  0
 15 34  1  0
 15 35  1  0
 16 36  1  0
 24 37  1  0
 24 38  1  0
M  END
>  <Binding energies>  (1) 
[-6.08]

>  <Ligand effiencies>  (1) 
[-0.21714285714285714]

>  <Interactions>  (1) 
["V-A:GLU:543:CD:4908, V-B:ASP:366:CG:8184, V-B:ILE:369:CB:8207, V-B:GLY:454:CA:9020, V-B:GLY:453:C:9013, V-B:ILE:369:CG2:8208, V-B:GLY:453:CA:9015, V-B:LEU:475:CD2:9230, V-B:ILE:369:CG1:8209, V-A:TYR:484:CZ:4347, V-B:GLU:543:CB:9878, V-B:GLU:543:CG:9879, V-A:TYR:484:CE2:4346, V-B:GLU:543:CD:9880, V-A:HIS:456:CE1:4070, V-B:HIS:456:CE1:9041, V-B:GLU:543:C:9874, V-A:GLU:543:CB:4906, V-A:GLU:543:C:4902, V-B:TYR:484:CZ:9318, V-B:ARG:545:CZ:9898, H-B:TYR:484:OH:9319, H-B:HIS:456:NE2:9042, V-A:GLU:543:CG:4907, V-B:ILE:369:CD1:8210, V-B:SER:385:CB:8380, V-A:GLU:543:CA:4904, V-B:TYR:484:CE2:9317, H-B:GLU:543:OE2:9882"]

$$$$
4bf_Grossjean_2025
     RDKit          3D

 35 37  0  0  0  0  0  0  0  0999 V2000
  130.7840  120.7460   60.6570 C   0  0  0  0  0  0  0  0  0  0  0  0
  131.0410  121.7980   61.7210 C   0  0  0  0  0  0  0  0  0  0  0  0
  132.0900  122.7050   61.5950 C   0  0  0  0  0  0  0  0  0  0  0  0
  132.3180  123.6700   62.5890 C   0  0  0  0  0  0  0  0  0  0  0  0
  133.4870  124.6450   62.4080 C   0  0  0  0  0  0  0  0  0  0  0  0
  134.3300  124.2760   61.4410 F   0  0  0  0  0  0  0  0  0  0  0  0
  133.0220  125.8540   62.0930 F   0  0  0  0  0  0  0  0  0  0  0  0
  134.1880  124.7230   63.5400 F   0  0  0  0  0  0  0  0  0  0  0  0
  131.4370  123.6730   63.7110 C   0  0  0  0  0  0  0  0  0  0  0  0
  131.3600  124.4900   64.8970 C   0  0  0  0  0  0  0  0  0  0  0  0
  132.2360  125.5160   65.1450 N   0  0  0  0  0  0  0  0  0  0  0  0
  130.3130  124.1440   65.7660 C   0  0  0  0  0  0  0  0  0  0  0  0
  129.9680  124.7370   67.0620 C   0  0  0  0  0  0  0  0  0  0  0  0
  129.4080  124.0660   67.9300 O   0  0  0  0  0  0  0  0  0  0  0  0
  130.3200  126.0370   67.2180 N   0  0  0  0  0  0  0  0  0  0  0  0
  130.0940  126.9030   68.3040 C   0  0  0  0  0  0  0  0  0  0  0  0
  131.0740  127.6840   68.9410 C   0  0  0  0  0  0  0  0  0  0  0  0
  130.7170  128.4930   70.0230 C   0  0  0  0  0  0  0  0  0  0  0  0
  129.3870  128.4960   70.4450 C   0  0  0  0  0  0  0  0  0  0  0  0
  128.4250  127.7460   69.8520 N   0  0  0  0  0  0  0  0  0  0  0  0
  128.7870  126.9650   68.8020 C   0  0  0  0  0  0  0  0  0  0  0  0
  129.3870  122.7830   65.1380 S   0  0  0  0  0  0  0  0  0  0  0  0
  130.4000  122.6890   63.7170 C   0  0  0  0  0  0  0  0  0  0  0  0
  130.1870  121.7750   62.7710 N   0  0  0  0  0  0  0  0  0  0  0  0
  130.5494  119.7859   61.1398 H   0  0  0  0  0  0  0  0  0  0  0  0
  129.9357  121.0581   60.0301 H   0  0  0  0  0  0  0  0  0  0  0  0
  131.6807  120.6318   60.0301 H   0  0  0  0  0  0  0  0  0  0  0  0
  132.7440  122.6652   60.7114 H   0  0  0  0  0  0  0  0  0  0  0  0
  133.2070  125.3480   65.3670 H   0  0  0  0  0  0  0  0  0  0  0  0
  131.9370  126.4810   65.1120 H   0  0  0  0  0  0  0  0  0  0  0  0
  130.8270  126.4540   66.4510 H   0  0  0  0  0  0  0  0  0  0  0  0
  132.1161  127.6584   68.5897 H   0  0  0  0  0  0  0  0  0  0  0  0
  131.4688  129.1145   70.5315 H   0  0  0  0  0  0  0  0  0  0  0  0
  129.1065  129.1345   71.2957 H   0  0  0  0  0  0  0  0  0  0  0  0
  128.0142  126.3498   68.3181 H   0  0  0  0  0  0  0  0  0  0  0  0
  1  2  1  0
  2  3  2  0
  3  4  1  0
  4  5  1  0
  5  6  1  0
  5  7  1  0
  5  8  1  0
  4  9  2  0
  9 10  1  0
 10 11  1  0
 10 12  2  0
 12 13  1  0
 13 14  2  0
 13 15  1  0
 15 16  1  0
 16 17  2  0
 17 18  1  0
 18 19  2  0
 19 20  1  0
 20 21  2  0
 12 22  1  0
 22 23  1  0
 23 24  2  0
 24  2  1  0
 23  9  1  0
 21 16  1  0
  1 25  1  0
  1 26  1  0
  1 27  1  0
  3 28  1  0
 11 29  1  0
 11 30  1  0
 15 31  1  0
 17 32  1  0
 18 33  1  0
 19 34  1  0
 21 35  1  0
M  END
>  <Binding energies>  (1) 
[-5.83]

>  <Ligand effiencies>  (1) 
[-0.21592592592592594]

>  <Interactions>  (1) 
["V-B:TYR:539:CD2:9846, V-A:GLU:543:CD:4908, H-A:TYR:484:OH:4348, V-B:TYR:539:CE2:9848, V-A:ARG:545:CZ:4926, V-A:LEU:475:CD2:4259, V-A:ILE:369:CD1:3239, V-A:GLY:453:C:4042, V-A:GLY:454:CA:4049, V-A:ASP:366:CG:3213, V-A:TYR:484:CZ:4347, H-A:GLU:543:OE2:4910, V-B:GLU:543:CB:9878, V-B:GLU:543:CG:9879, V-A:TYR:484:CE2:4346, V-B:ALA:541:CB:9864, V-B:HIS:456:CD2:9039, V-A:GLY:544:C:4912, V-A:HIS:456:CE1:4070, V-B:HIS:456:CE1:9041, H-A:GLU:543:OE1:4909, V-A:GLU:543:CB:4906, V-A:GLU:543:C:4902, V-A:GLY:453:CA:4044, V-B:GLU:543:CA:9876, V-A:ARG:545:CG:4922, V-A:GLU:543:CA:4904"]

$$$$
4bg_Grossjean_2025
     RDKit          3D

 39 41  0  0  0  0  0  0  0  0999 V2000
  122.2120  130.7580   62.3200 C   0  0  0  0  0  0  0  0  0  0  0  0
  123.6370  130.5060   62.7790 C   0  0  0  0  0  0  0  0  0  0  0  0
  124.7150  130.7280   61.9270 C   0  0  0  0  0  0  0  0  0  0  0  0
  126.0280  130.4850   62.3630 C   0  0  0  0  0  0  0  0  0  0  0  0
  127.1830  130.7430   61.3900 C   0  0  0  0  0  0  0  0  0  0  0  0
  126.7750  131.2190   60.2110 F   0  0  0  0  0  0  0  0  0  0  0  0
  128.0210  131.6380   61.9130 F   0  0  0  0  0  0  0  0  0  0  0  0
  127.8390  129.6080   61.1560 F   0  0  0  0  0  0  0  0  0  0  0  0
  126.1940  130.0110   63.6980 C   0  0  0  0  0  0  0  0  0  0  0  0
  127.3550  129.6540   64.4760 C   0  0  0  0  0  0  0  0  0  0  0  0
  128.6320  129.7160   63.9760 N   0  0  0  0  0  0  0  0  0  0  0  0
  127.0630  129.2470   65.7870 C   0  0  0  0  0  0  0  0  0  0  0  0
  127.9840  128.7910   66.8270 C   0  0  0  0  0  0  0  0  0  0  0  0
  128.3710  129.5470   67.7200 O   0  0  0  0  0  0  0  0  0  0  0  0
  128.3470  127.4930   66.7670 N   0  0  0  0  0  0  0  0  0  0  0  0
  129.2670  126.8250   67.6880 C   0  0  0  0  0  0  0  0  0  0  0  0
  129.0330  127.1840   69.1500 C   0  0  0  0  0  0  0  0  0  0  0  0
  127.8130  126.8790   69.7610 C   0  0  0  0  0  0  0  0  0  0  0  0
  127.6160  127.1730   71.1070 C   0  0  0  0  0  0  0  0  0  0  0  0
  128.6440  127.7580   71.8440 C   0  0  0  0  0  0  0  0  0  0  0  0
  129.8690  128.0480   71.2460 C   0  0  0  0  0  0  0  0  0  0  0  0
  130.0650  127.7560   69.8990 C   0  0  0  0  0  0  0  0  0  0  0  0
  125.3280  129.2570   66.0900 S   0  0  0  0  0  0  0  0  0  0  0  0
  125.0050  129.8320   64.4710 C   0  0  0  0  0  0  0  0  0  0  0  0
  123.7610  130.0620   64.0510 N   0  0  0  0  0  0  0  0  0  0  0  0
  121.5591  130.8735   63.1977 H   0  0  0  0  0  0  0  0  0  0  0  0
  122.1786  131.6760   61.7149 H   0  0  0  0  0  0  0  0  0  0  0  0
  121.8658  129.9071   61.7149 H   0  0  0  0  0  0  0  0  0  0  0  0
  124.5376  131.0961   60.9057 H   0  0  0  0  0  0  0  0  0  0  0  0
  129.2990  130.4010   64.2980 H   0  0  0  0  0  0  0  0  0  0  0  0
  128.9460  129.0770   63.2580 H   0  0  0  0  0  0  0  0  0  0  0  0
  128.0570  126.9550   65.9640 H   0  0  0  0  0  0  0  0  0  0  0  0
  129.1459  125.7377   67.5731 H   0  0  0  0  0  0  0  0  0  0  0  0
  130.2822  127.1620   67.4313 H   0  0  0  0  0  0  0  0  0  0  0  0
  127.0088  126.4066   69.1778 H   0  0  0  0  0  0  0  0  0  0  0  0
  126.6530  126.9446   71.5871 H   0  0  0  0  0  0  0  0  0  0  0  0
  128.4872  127.9929   72.9071 H   0  0  0  0  0  0  0  0  0  0  0  0
  130.6772  128.5055   71.8356 H   0  0  0  0  0  0  0  0  0  0  0  0
  131.0326  127.9756   69.4240 H   0  0  0  0  0  0  0  0  0  0  0  0
  1  2  1  0
  2  3  2  0
  3  4  1  0
  4  5  1  0
  5  6  1  0
  5  7  1  0
  5  8  1  0
  4  9  2  0
  9 10  1  0
 10 11  1  0
 10 12  2  0
 12 13  1  0
 13 14  2  0
 13 15  1  0
 15 16  1  0
 16 17  1  0
 17 18  2  0
 18 19  1  0
 19 20  2  0
 20 21  1  0
 21 22  2  0
 12 23  1  0
 23 24  1  0
 24 25  2  0
 25  2  1  0
 24  9  1  0
 22 17  1  0
  1 26  1  0
  1 27  1  0
  1 28  1  0
  3 29  1  0
 11 30  1  0
 11 31  1  0
 15 32  1  0
 16 33  1  0
 16 34  1  0
 18 35  1  0
 19 36  1  0
 20 37  1  0
 21 38  1  0
 22 39  1  0
M  END
>  <Binding energies>  (1) 
[-6.5]

>  <Ligand effiencies>  (1) 
[-0.23214285714285715]

>  <Interactions>  (1) 
["V-A:GLU:543:CD:4908, V-B:ASP:366:CG:8184, V-B:GLY:453:C:9013, V-B:GLY:453:CA:9015, H-B:ARG:545:NH1:9899, H-B:GLY:454:N:9021, V-B:ILE:369:CG1:8209, H-B:ARG:545:NH2:9900, H-A:GLU:543:OE2:4910, V-B:GLU:543:CB:9878, V-B:GLU:543:CG:9879, V-B:GLU:543:CD:9880, H-B:GLU:543:OE1:9881, V-B:HIS:456:CD2:9039, V-B:GLY:544:C:9884, V-A:HIS:456:CE1:4070, V-B:HIS:456:CE1:9041, V-B:GLU:543:C:9874, H-A:GLU:543:OE1:4909, V-A:GLU:543:CB:4906, V-B:TYR:484:CZ:9318, V-B:ARG:545:CZ:9898, H-B:TYR:484:OH:9319, V-A:GLU:543:CG:4907, H-B:ARG:545:NE:9896, V-B:ARG:545:CD:9895, V-B:ARG:545:CG:9894, H-B:GLU:543:OE2:9882"]

$$$$
4bh_Grossjean_2025
     RDKit          3D

 51 53  0  0  0  0  0  0  0  0999 V2000
  129.8980  132.2150   73.0280 C   0  0  0  0  0  0  0  0  0  0  0  0
  130.0980  130.9080   73.5530 O   0  0  0  0  0  0  0  0  0  0  0  0
  129.0150  130.0620   73.7000 C   0  0  0  0  0  0  0  0  0  0  0  0
  128.8360  128.8810   72.9620 C   0  0  0  0  0  0  0  0  0  0  0  0
  127.7150  128.0740   73.1610 C   0  0  0  0  0  0  0  0  0  0  0  0
  127.5620  126.7730   72.3840 C   0  0  0  0  0  0  0  0  0  0  0  0
  127.7690  126.9260   70.9430 N   0  0  0  0  0  0  0  0  0  0  0  0
  128.9670  127.0240   70.3310 C   0  0  0  0  0  0  0  0  0  0  0  0
  130.0300  127.0330   70.9550 O   0  0  0  0  0  0  0  0  0  0  0  0
  128.9360  127.1650   68.8750 C   0  0  0  0  0  0  0  0  0  0  0  0
  128.3220  128.6450   68.1460 S   0  0  0  0  0  0  0  0  0  0  0  0
  128.5730  128.0080   66.5380 C   0  0  0  0  0  0  0  0  0  0  0  0
  128.2770  128.7230   65.4530 N   0  0  0  0  0  0  0  0  0  0  0  0
  128.5180  128.1240   64.2640 C   0  0  0  0  0  0  0  0  0  0  0  0
  128.1720  128.9550   63.0410 C   0  0  0  0  0  0  0  0  0  0  0  0
  129.0440  126.8420   64.1340 C   0  0  0  0  0  0  0  0  0  0  0  0
  129.3560  126.0830   65.2730 C   0  0  0  0  0  0  0  0  0  0  0  0
  129.9350  124.6770   65.0810 C   0  0  0  0  0  0  0  0  0  0  0  0
  129.7140  124.1820   63.8610 F   0  0  0  0  0  0  0  0  0  0  0  0
  131.2550  124.7040   65.2660 F   0  0  0  0  0  0  0  0  0  0  0  0
  129.3840  123.8390   65.9590 F   0  0  0  0  0  0  0  0  0  0  0  0
  129.1120  126.6840   66.5430 C   0  0  0  0  0  0  0  0  0  0  0  0
  129.2960  126.2240   67.8980 C   0  0  0  0  0  0  0  0  0  0  0  0
  129.7860  124.9790   68.2000 N   0  0  0  0  0  0  0  0  0  0  0  0
  126.7740  128.4320   74.1280 C   0  0  0  0  0  0  0  0  0  0  0  0
  126.9220  129.6110   74.8760 C   0  0  0  0  0  0  0  0  0  0  0  0
  126.0230  130.0340   75.8380 O   0  0  0  0  0  0  0  0  0  0  0  0
  124.8210  129.2980   76.0400 C   0  0  0  0  0  0  0  0  0  0  0  0
  128.0450  130.4200   74.6480 C   0  0  0  0  0  0  0  0  0  0  0  0
  128.2120  131.5680   75.3860 O   0  0  0  0  0  0  0  0  0  0  0  0
  127.3860  132.6470   74.9700 C   0  0  0  0  0  0  0  0  0  0  0  0
  129.7886  132.9302   73.8566 H   0  0  0  0  0  0  0  0  0  0  0  0
  130.7632  132.4986   72.4107 H   0  0  0  0  0  0  0  0  0  0  0  0
  128.9876  132.2269   72.4107 H   0  0  0  0  0  0  0  0  0  0  0  0
  129.5899  128.5878   72.2166 H   0  0  0  0  0  0  0  0  0  0  0  0
  128.2977  126.0503   72.7667 H   0  0  0  0  0  0  0  0  0  0  0  0
  126.5268  126.4300   72.5277 H   0  0  0  0  0  0  0  0  0  0  0  0
  126.9440  126.8400   70.3650 H   0  0  0  0  0  0  0  0  0  0  0  0
  127.7674  129.9267   63.3605 H   0  0  0  0  0  0  0  0  0  0  0  0
  129.0781  129.1153   62.4383 H   0  0  0  0  0  0  0  0  0  0  0  0
  127.4198  128.4249   62.4383 H   0  0  0  0  0  0  0  0  0  0  0  0
  129.2163  126.4209   63.1325 H   0  0  0  0  0  0  0  0  0  0  0  0
  129.3540  124.3900   68.8990 H   0  0  0  0  0  0  0  0  0  0  0  0
  130.6050  124.6110   67.7370 H   0  0  0  0  0  0  0  0  0  0  0  0
  125.9049  127.7817   74.3064 H   0  0  0  0  0  0  0  0  0  0  0  0
  124.6369  129.1853   77.1186 H   0  0  0  0  0  0  0  0  0  0  0  0
  123.9797  129.8360   75.5787 H   0  0  0  0  0  0  0  0  0  0  0  0
  124.9177  128.3041   75.5787 H   0  0  0  0  0  0  0  0  0  0  0  0
  126.9883  133.1665   75.8543 H   0  0  0  0  0  0  0  0  0  0  0  0
  127.9783  133.3508   74.3668 H   0  0  0  0  0  0  0  0  0  0  0  0
  126.5520  132.2589   74.3668 H   0  0  0  0  0  0  0  0  0  0  0  0
  1  2  1  0
  2  3  1  0
  3  4  2  0
  4  5  1  0
  5  6  1  0
  6  7  1  0
  7  8  1  0
  8  9  2  0
  8 10  1  0
 10 11  1  0
 11 12  1  0
 12 13  2  0
 13 14  1  0
 14 15  1  0
 14 16  2  0
 16 17  1  0
 17 18  1  0
 18 19  1  0
 18 20  1  0
 18 21  1  0
 17 22  2  0
 22 23  1  0
 23 24  1  0
  5 25  2  0
 25 26  1  0
 26 27  1  0
 27 28  1  0
 26 29  2  0
 29 30  1  0
 30 31  1  0
 29  3  1  0
 23 10  2  0
 22 12  1  0
  1 32  1  0
  1 33  1  0
  1 34  1  0
  4 35  1  0
  6 36  1  0
  6 37  1  0
  7 38  1  0
 15 39  1  0
 15 40  1  0
 15 41  1  0
 16 42  1  0
 24 43  1  0
 24 44  1  0
 25 45  1  0
 28 46  1  0
 28 47  1  0
 28 48  1  0
 31 49  1  0
 31 50  1  0
 31 51  1  0
M  END
>  <Binding energies>  (1) 
[-5.41]

>  <Ligand effiencies>  (1) 
[-0.15911764705882353]

>  <Interactions>  (1) 
["V-A:GLU:543:CD:4908, H-A:TYR:484:OH:4348, V-A:TYR:484:CZ:4347, V-B:GLU:543:CB:9878, V-B:GLU:543:CG:9879, V-A:TYR:484:CE2:4346, V-B:GLU:543:CD:9880, V-B:HIS:456:CD2:9039, V-B:HIS:456:CB:9036, V-B:GLY:544:C:9884, V-B:HIS:456:CG:9037, V-B:GLY:544:CA:9886, V-B:ASP:473:CG:9211, V-A:LYS:547:CE:4950, V-A:HIS:456:CE1:4070, V-B:ASP:473:CB:9210, V-B:LYS:547:CE:9922, V-B:HIS:456:CE1:9041, V-B:GLU:543:C:9874, H-A:LYS:547:NZ:4951, H-B:GLU:543:O:9875, V-A:GLU:543:CB:4906, V-A:GLU:543:C:4902, H-B:HIS:456:NE2:9042, V-A:GLU:543:CG:4907, H-A:HIS:456:NE2:4071, V-A:GLY:544:CA:4914, V-B:GLU:543:CA:9876, H-B:GLY:544:O:9885, H-B:LYS:471:NZ:9192"]

$$$$
4bi_Grossjean_2025
     RDKit          3D

 32 34  0  0  0  0  0  0  0  0999 V2000
  130.4970  120.6640   60.9120 C   0  0  0  0  0  0  0  0  0  0  0  0
  130.8330  121.7510   61.9180 C   0  0  0  0  0  0  0  0  0  0  0  0
  131.8840  122.6370   61.6930 C   0  0  0  0  0  0  0  0  0  0  0  0
  132.1810  123.6400   62.6300 C   0  0  0  0  0  0  0  0  0  0  0  0
  133.3410  124.5960   62.3350 C   0  0  0  0  0  0  0  0  0  0  0  0
  134.2270  124.6650   63.3310 F   0  0  0  0  0  0  0  0  0  0  0  0
  133.9950  124.1910   61.2470 F   0  0  0  0  0  0  0  0  0  0  0  0
  132.8710  125.8280   62.1330 F   0  0  0  0  0  0  0  0  0  0  0  0
  131.3690  123.6980   63.8020 C   0  0  0  0  0  0  0  0  0  0  0  0
  131.3740  124.5630   64.9560 C   0  0  0  0  0  0  0  0  0  0  0  0
  132.2810  125.5790   65.1180 N   0  0  0  0  0  0  0  0  0  0  0  0
  130.3670  124.2770   65.8930 C   0  0  0  0  0  0  0  0  0  0  0  0
  130.0930  124.9390   67.1710 C   0  0  0  0  0  0  0  0  0  0  0  0
  129.5840  124.3170   68.1060 O   0  0  0  0  0  0  0  0  0  0  0  0
  130.4520  126.2460   67.2390 N   0  0  0  0  0  0  0  0  0  0  0  0
  130.3200  127.1040   68.3230 C   0  0  0  0  0  0  0  0  0  0  0  0
  129.0930  127.4020   68.9130 C   0  0  0  0  0  0  0  0  0  0  0  0
  129.3890  128.2740   69.9350 C   0  0  0  0  0  0  0  0  0  0  0  0
  130.7260  128.4900   69.9600 O   0  0  0  0  0  0  0  0  0  0  0  0
  131.3050  127.7430   68.9320 N   0  0  0  0  0  0  0  0  0  0  0  0
  129.3920  122.9020   65.3800 S   0  0  0  0  0  0  0  0  0  0  0  0
  130.3240  122.7310   63.9110 C   0  0  0  0  0  0  0  0  0  0  0  0
  130.0450  121.7820   63.0170 N   0  0  0  0  0  0  0  0  0  0  0  0
  130.2130  119.7452   61.4461 H   0  0  0  0  0  0  0  0  0  0  0  0
  129.6592  120.9950   60.2807 H   0  0  0  0  0  0  0  0  0  0  0  0
  131.3754  120.4645   60.2807 H   0  0  0  0  0  0  0  0  0  0  0  0
  132.4850  122.5505   60.7758 H   0  0  0  0  0  0  0  0  0  0  0  0
  133.2690  125.4000   65.2360 H   0  0  0  0  0  0  0  0  0  0  0  0
  131.9900  126.5470   65.1290 H   0  0  0  0  0  0  0  0  0  0  0  0
  130.8740  126.6490   66.4150 H   0  0  0  0  0  0  0  0  0  0  0  0
  128.1020  127.0220   68.6239 H   0  0  0  0  0  0  0  0  0  0  0  0
  128.6571  128.7239   70.6220 H   0  0  0  0  0  0  0  0  0  0  0  0
  1  2  1  0
  2  3  2  0
  3  4  1  0
  4  5  1  0
  5  6  1  0
  5  7  1  0
  5  8  1  0
  4  9  2  0
  9 10  1  0
 10 11  1  0
 10 12  2  0
 12 13  1  0
 13 14  2  0
 13 15  1  0
 15 16  1  0
 16 17  1  0
 17 18  2  0
 18 19  1  0
 19 20  1  0
 12 21  1  0
 21 22  1  0
 22 23  2  0
 23  2  1  0
 22  9  1  0
 20 16  2  0
  1 24  1  0
  1 25  1  0
  1 26  1  0
  3 27  1  0
 11 28  1  0
 11 29  1  0
 15 30  1  0
 17 31  1  0
 18 32  1  0
M  END
>  <Binding energies>  (1) 
[-5.83]

>  <Ligand effiencies>  (1) 
[-0.22423076923076923]

>  <Interactions>  (1) 
["V-B:TYR:539:CD2:9846, V-A:GLU:543:CD:4908, H-A:TYR:484:OH:4348, V-B:TYR:539:CE2:9848, V-A:ARG:545:CZ:4926, V-A:LEU:475:CD2:4259, V-A:ILE:369:CD1:3239, V-A:GLY:453:C:4042, V-A:GLY:454:CA:4049, V-A:ASP:366:CG:3213, V-A:TYR:484:CZ:4347, H-A:GLU:543:OE2:4910, V-B:GLU:543:CB:9878, V-B:GLU:543:CG:9879, V-A:TYR:484:CE2:4346, V-B:ALA:541:CB:9864, V-A:HIS:456:CE1:4070, V-B:HIS:456:CE1:9041, H-A:GLU:543:OE1:4909, V-A:GLU:543:CB:4906, V-A:GLU:543:C:4902, V-A:GLY:453:CA:4044, V-B:GLU:543:CA:9876"]

$$$$
4bj_Grossjean_2025
     RDKit          3D

 32 34  0  0  0  0  0  0  0  0999 V2000
  130.5230  120.6430   60.7510 C   0  0  0  0  0  0  0  0  0  0  0  0
  130.8500  121.7200   61.7690 C   0  0  0  0  0  0  0  0  0  0  0  0
  131.9080  122.6030   61.5650 C   0  0  0  0  0  0  0  0  0  0  0  0
  132.2030  123.5900   62.5180 C   0  0  0  0  0  0  0  0  0  0  0  0
  133.3790  124.5370   62.2510 C   0  0  0  0  0  0  0  0  0  0  0  0
  134.2720  124.5530   63.2430 F   0  0  0  0  0  0  0  0  0  0  0  0
  134.0180  124.1610   61.1440 F   0  0  0  0  0  0  0  0  0  0  0  0
  132.9280  125.7820   62.0990 F   0  0  0  0  0  0  0  0  0  0  0  0
  131.3780  123.6430   63.6810 C   0  0  0  0  0  0  0  0  0  0  0  0
  131.3780  124.4920   64.8470 C   0  0  0  0  0  0  0  0  0  0  0  0
  132.2910  125.4990   65.0310 N   0  0  0  0  0  0  0  0  0  0  0  0
  130.3590  124.2010   65.7680 C   0  0  0  0  0  0  0  0  0  0  0  0
  130.0750  124.8510   67.0500 C   0  0  0  0  0  0  0  0  0  0  0  0
  129.5390  124.2270   67.9690 O   0  0  0  0  0  0  0  0  0  0  0  0
  130.4510  126.1500   67.1410 N   0  0  0  0  0  0  0  0  0  0  0  0
  130.3080  126.9850   68.2410 C   0  0  0  0  0  0  0  0  0  0  0  0
  131.2560  127.5160   68.9820 N   0  0  0  0  0  0  0  0  0  0  0  0
  130.7570  128.2650   69.9450 C   0  0  0  0  0  0  0  0  0  0  0  0
  129.3700  128.3540   69.9990 C   0  0  0  0  0  0  0  0  0  0  0  0
  128.6910  127.3960   68.7170 S   0  0  0  0  0  0  0  0  0  0  0  0
  129.3770  122.8420   65.2260 S   0  0  0  0  0  0  0  0  0  0  0  0
  130.3230  122.6820   63.7650 C   0  0  0  0  0  0  0  0  0  0  0  0
  130.0480  121.7450   62.8590 N   0  0  0  0  0  0  0  0  0  0  0  0
  130.2419  119.7171   61.2742 H   0  0  0  0  0  0  0  0  0  0  0  0
  129.6856  120.9766   60.1205 H   0  0  0  0  0  0  0  0  0  0  0  0
  131.4045  120.4547   60.1205 H   0  0  0  0  0  0  0  0  0  0  0  0
  132.5158  122.5261   60.6514 H   0  0  0  0  0  0  0  0  0  0  0  0
  133.2840  125.3200   65.0720 H   0  0  0  0  0  0  0  0  0  0  0  0
  131.9980  126.4610   65.1360 H   0  0  0  0  0  0  0  0  0  0  0  0
  130.8900  126.5630   66.3320 H   0  0  0  0  0  0  0  0  0  0  0  0
  131.4013  128.7902   70.6655 H   0  0  0  0  0  0  0  0  0  0  0  0
  128.7954  128.9365   70.7342 H   0  0  0  0  0  0  0  0  0  0  0  0
  1  2  1  0
  2  3  2  0
  3  4  1  0
  4  5  1  0
  5  6  1  0
  5  7  1  0
  5  8  1  0
  4  9  2  0
  9 10  1  0
 10 11  1  0
 10 12  2  0
 12 13  1  0
 13 14  2  0
 13 15  1  0
 15 16  1  0
 16 17  2  0
 17 18  1  0
 18 19  2  0
 19 20  1  0
 12 21  1  0
 21 22  1  0
 22 23  2  0
 23  2  1  0
 22  9  1  0
 20 16  1  0
  1 24  1  0
  1 25  1  0
  1 26  1  0
  3 27  1  0
 11 28  1  0
 11 29  1  0
 15 30  1  0
 18 31  1  0
 19 32  1  0
M  END
>  <Binding energies>  (1) 
[-5.82]

>  <Ligand effiencies>  (1) 
[-0.22384615384615386]

>  <Interactions>  (1) 
["V-B:TYR:539:CD2:9846, V-A:GLU:543:CD:4908, H-A:TYR:484:OH:4348, V-B:TYR:539:CE2:9848, V-A:ARG:545:CZ:4926, V-A:LEU:475:CD2:4259, V-A:ILE:369:CD1:3239, V-A:GLY:453:C:4042, V-A:GLY:454:CA:4049, V-A:ASP:366:CG:3213, V-A:TYR:484:CZ:4347, H-A:GLU:543:OE2:4910, V-B:GLU:543:CB:9878, V-B:GLU:543:CG:9879, V-A:TYR:484:CE2:4346, V-B:ALA:541:CB:9864, V-A:GLY:544:C:4912, V-A:HIS:456:CE1:4070, V-B:HIS:456:CE1:9041, H-A:GLU:543:OE1:4909, V-A:GLU:543:CB:4906, V-A:GLU:543:C:4902, V-A:GLY:453:CA:4044, V-B:GLU:543:CA:9876, V-A:GLU:543:CA:4904"]

$$$$
4bk_Grossjean_2025
     RDKit          3D

 50 51  0  0  0  0  0  0  0  0999 V2000
  134.1740  126.6690   74.5500 C   0  0  0  0  0  0  0  0  0  0  0  0
  132.9540  127.3330   74.8380 O   0  0  0  0  0  0  0  0  0  0  0  0
  131.8020  126.5700   74.5040 C   0  0  0  0  0  0  0  0  0  0  0  0
  131.2500  127.0390   73.1520 C   0  0  0  0  0  0  0  0  0  0  0  0
  130.6020  128.2930   73.3160 O   0  0  0  0  0  0  0  0  0  0  0  0
  129.5130  128.4970   72.4260 C   0  0  0  0  0  0  0  0  0  0  0  0
  130.0240  128.4610   70.9790 C   0  0  0  0  0  0  0  0  0  0  0  0
  129.7060  127.2030   70.4000 O   0  0  0  0  0  0  0  0  0  0  0  0
  129.3210  127.2800   69.0330 C   0  0  0  0  0  0  0  0  0  0  0  0
  127.8200  126.9660   68.9070 C   0  0  0  0  0  0  0  0  0  0  0  0
  127.1800  127.6100   67.7580 N   0  0  0  0  0  0  0  0  0  0  0  0
  127.5620  128.7810   67.2080 C   0  0  0  0  0  0  0  0  0  0  0  0
  128.5270  129.4230   67.6250 O   0  0  0  0  0  0  0  0  0  0  0  0
  126.7660  129.2480   66.0710 C   0  0  0  0  0  0  0  0  0  0  0  0
  125.0070  129.2450   66.1630 S   0  0  0  0  0  0  0  0  0  0  0  0
  124.8780  129.9180   64.5560 C   0  0  0  0  0  0  0  0  0  0  0  0
  123.6940  130.1710   64.0010 N   0  0  0  0  0  0  0  0  0  0  0  0
  123.7220  130.6940   62.7530 C   0  0  0  0  0  0  0  0  0  0  0  0
  122.3610  130.9760   62.1410 C   0  0  0  0  0  0  0  0  0  0  0  0
  124.8950  130.9660   62.0540 C   0  0  0  0  0  0  0  0  0  0  0  0
  126.1460  130.7000   62.6320 C   0  0  0  0  0  0  0  0  0  0  0  0
  127.4080  131.0130   61.8220 C   0  0  0  0  0  0  0  0  0  0  0  0
  128.2350  131.8540   62.4480 F   0  0  0  0  0  0  0  0  0  0  0  0
  128.0840  129.8890   61.5880 F   0  0  0  0  0  0  0  0  0  0  0  0
  127.0720  131.5750   60.6610 F   0  0  0  0  0  0  0  0  0  0  0  0
  126.1520  130.1500   63.9480 C   0  0  0  0  0  0  0  0  0  0  0  0
  127.2130  129.7600   64.8440 C   0  0  0  0  0  0  0  0  0  0  0  0
  128.5390  129.8780   64.5180 N   0  0  0  0  0  0  0  0  0  0  0  0
  134.6743  126.3967   75.4910 H   0  0  0  0  0  0  0  0  0  0  0  0
  133.9675  125.7588   73.9678 H   0  0  0  0  0  0  0  0  0  0  0  0
  134.8262  127.3366   73.9678 H   0  0  0  0  0  0  0  0  0  0  0  0
  132.0734  125.5059   74.4397 H   0  0  0  0  0  0  0  0  0  0  0  0
  131.0346  126.7074   75.2800 H   0  0  0  0  0  0  0  0  0  0  0  0
  132.0771  127.1444   72.4345 H   0  0  0  0  0  0  0  0  0  0  0  0
  130.5290  126.2997   72.7731 H   0  0  0  0  0  0  0  0  0  0  0  0
  128.7663  127.7025   72.5715 H   0  0  0  0  0  0  0  0  0  0  0  0
  129.0510  129.4745   72.6285 H   0  0  0  0  0  0  0  0  0  0  0  0
  129.5444  129.2639   70.3998 H   0  0  0  0  0  0  0  0  0  0  0  0
  131.1144  128.6060   70.9695 H   0  0  0  0  0  0  0  0  0  0  0  0
  129.5172  128.2934   68.6529 H   0  0  0  0  0  0  0  0  0  0  0  0
  129.8996  126.5512   68.4464 H   0  0  0  0  0  0  0  0  0  0  0  0
  127.6999  125.8772   68.8067 H   0  0  0  0  0  0  0  0  0  0  0  0
  127.3315  127.3597   69.8105 H   0  0  0  0  0  0  0  0  0  0  0  0
  126.3810  127.1320   67.3690 H   0  0  0  0  0  0  0  0  0  0  0  0
  121.6232  131.1289   62.9424 H   0  0  0  0  0  0  0  0  0  0  0  0
  122.4192  131.8812   61.5187 H   0  0  0  0  0  0  0  0  0  0  0  0
  122.0548  130.1222   61.5187 H   0  0  0  0  0  0  0  0  0  0  0  0
  124.8409  131.3924   61.0415 H   0  0  0  0  0  0  0  0  0  0  0  0
  128.8520  129.9300   63.5580 H   0  0  0  0  0  0  0  0  0  0  0  0
  129.2540  129.9220   65.2320 H   0  0  0  0  0  0  0  0  0  0  0  0
  1  2  1  0
  2  3  1  0
  3  4  1  0
  4  5  1  0
  5  6  1  0
  6  7  1  0
  7  8  1  0
  8  9  1  0
  9 10  1  0
 10 11  1  0
 11 12  1  0
 12 13  2  0
 12 14  1  0
 14 15  1  0
 15 16  1  0
 16 17  2  0
 17 18  1  0
 18 19  1  0
 18 20  2  0
 20 21  1  0
 21 22  1  0
 22 23  1  0
 22 24  1  0
 22 25  1  0
 21 26  2  0
 26 27  1  0
 27 28  1  0
 27 14  2  0
 26 16  1  0
  1 29  1  0
  1 30  1  0
  1 31  1  0
  3 32  1  0
  3 33  1  0
  4 34  1  0
  4 35  1  0
  6 36  1  0
  6 37  1  0
  7 38  1  0
  7 39  1  0
  9 40  1  0
  9 41  1  0
 10 42  1  0
 10 43  1  0
 11 44  1  0
 19 45  1  0
 19 46  1  0
 19 47  1  0
 20 48  1  0
 28 49  1  0
 28 50  1  0
M  END
>  <Binding energies>  (1) 
[-5.85]

>  <Ligand effiencies>  (1) 
[-0.18870967741935482]

>  <Interactions>  (1) 
["V-A:GLU:543:CD:4908, V-B:GLY:453:C:9013, V-B:GLY:453:CA:9015, H-B:ARG:545:NH1:9899, H-B:GLY:454:N:9021, V-B:ILE:369:CG1:8209, H-B:ARG:545:NH2:9900, H-A:GLU:543:OE2:4910, V-B:GLU:543:CB:9878, V-B:GLU:543:CG:9879, V-B:GLU:543:CD:9880, V-B:HIS:456:CD2:9039, V-A:GLY:544:C:4912, V-A:HIS:456:CD2:4068, V-A:HIS:456:CB:4065, V-A:HIS:456:CG:4066, V-A:HIS:456:CE1:4070, V-B:HIS:456:CE1:9041, V-B:GLU:543:C:9874, H-A:LYS:547:NZ:4951, H-A:GLU:543:OE1:4909, V-A:GLU:543:C:4902, V-B:TYR:484:CZ:9318, V-B:ARG:545:CZ:9898, V-A:GLU:543:CG:4907, V-B:ARG:545:CD:9895, V-B:ARG:545:CG:9894, V-A:LYS:547:CG:4948, V-A:ARG:545:C:4917, V-A:HIS:456:CA:4063, H-B:GLU:543:OE2:9882"]

$$$$
4ca_Grossjean_2025
     RDKit          3D

 52 55  0  0  0  0  0  0  0  0999 V2000
  124.7290  127.9060   75.2450 C   0  0  0  0  0  0  0  0  0  0  0  0
  125.8990  128.7170   75.8120 C   0  0  0  0  0  0  0  0  0  0  0  0
  127.0980  127.9620   75.6950 O   0  0  0  0  0  0  0  0  0  0  0  0
  128.2150  128.5010   75.1410 C   0  0  0  0  0  0  0  0  0  0  0  0
  129.0020  129.2210   75.7640 O   0  0  0  0  0  0  0  0  0  0  0  0
  128.3990  128.1310   73.6990 C   0  0  0  0  0  0  0  0  0  0  0  0
  129.6440  128.3450   73.0900 C   0  0  0  0  0  0  0  0  0  0  0  0
  129.8460  128.0080   71.7550 C   0  0  0  0  0  0  0  0  0  0  0  0
  128.8110  127.4580   70.9990 C   0  0  0  0  0  0  0  0  0  0  0  0
  129.1290  127.1460   69.6630 N   0  0  0  0  0  0  0  0  0  0  0  0
  128.3270  127.0580   68.5730 C   0  0  0  0  0  0  0  0  0  0  0  0
  127.1200  127.3000   68.5820 O   0  0  0  0  0  0  0  0  0  0  0  0
  128.9990  126.6620   67.3330 C   0  0  0  0  0  0  0  0  0  0  0  0
  130.2050  125.3780   67.3500 S   0  0  0  0  0  0  0  0  0  0  0  0
  130.4330  125.5090   65.6220 C   0  0  0  0  0  0  0  0  0  0  0  0
  131.2950  124.7270   64.9750 N   0  0  0  0  0  0  0  0  0  0  0  0
  131.3940  124.8920   63.6310 C   0  0  0  0  0  0  0  0  0  0  0  0
  132.3670  123.9890   62.9280 C   0  0  0  0  0  0  0  0  0  0  0  0
  131.9530  122.7520   62.4080 C   0  0  0  0  0  0  0  0  0  0  0  0
  132.8520  121.9080   61.7610 C   0  0  0  0  0  0  0  0  0  0  0  0
  134.1830  122.2900   61.6240 C   0  0  0  0  0  0  0  0  0  0  0  0
  134.6200  123.5090   62.1320 C   0  0  0  0  0  0  0  0  0  0  0  0
  133.7180  124.3500   62.7790 C   0  0  0  0  0  0  0  0  0  0  0  0
  130.6450  125.8550   62.9460 C   0  0  0  0  0  0  0  0  0  0  0  0
  129.7370  126.6870   63.6200 C   0  0  0  0  0  0  0  0  0  0  0  0
  128.9460  127.7180   62.8080 C   0  0  0  0  0  0  0  0  0  0  0  0
  128.9230  128.9260   63.3760 F   0  0  0  0  0  0  0  0  0  0  0  0
  129.4910  127.8570   61.6000 F   0  0  0  0  0  0  0  0  0  0  0  0
  127.6820  127.3160   62.6770 F   0  0  0  0  0  0  0  0  0  0  0  0
  129.6120  126.5110   65.0280 C   0  0  0  0  0  0  0  0  0  0  0  0
  128.7990  127.1530   66.0320 C   0  0  0  0  0  0  0  0  0  0  0  0
  127.9130  128.1570   65.7360 N   0  0  0  0  0  0  0  0  0  0  0  0
  127.5640  127.2340   71.6000 C   0  0  0  0  0  0  0  0  0  0  0  0
  127.3630  127.5690   72.9370 C   0  0  0  0  0  0  0  0  0  0  0  0
  124.1337  127.4933   76.0728 H   0  0  0  0  0  0  0  0  0  0  0  0
  124.0951  128.5594   74.6276 H   0  0  0  0  0  0  0  0  0  0  0  0
  125.1184  127.0831   74.6276 H   0  0  0  0  0  0  0  0  0  0  0  0
  126.0008  129.6568   75.2494 H   0  0  0  0  0  0  0  0  0  0  0  0
  125.7095  128.9435   76.8716 H   0  0  0  0  0  0  0  0  0  0  0  0
  130.4679  128.7830   73.6725 H   0  0  0  0  0  0  0  0  0  0  0  0
  130.8296  128.1767   71.2924 H   0  0  0  0  0  0  0  0  0  0  0  0
  130.1100  126.9750   69.5010 H   0  0  0  0  0  0  0  0  0  0  0  0
  130.9020  122.4449   62.5134 H   0  0  0  0  0  0  0  0  0  0  0  0
  132.5110  120.9423   61.3595 H   0  0  0  0  0  0  0  0  0  0  0  0
  134.8933  121.6246   61.1114 H   0  0  0  0  0  0  0  0  0  0  0  0
  135.6732  123.8073   62.0232 H   0  0  0  0  0  0  0  0  0  0  0  0
  134.0681  125.3126   63.1801 H   0  0  0  0  0  0  0  0  0  0  0  0
  130.7700  125.9623   61.8584 H   0  0  0  0  0  0  0  0  0  0  0  0
  128.1380  128.8930   65.0800 H   0  0  0  0  0  0  0  0  0  0  0  0
  126.9970  128.1950   66.1630 H   0  0  0  0  0  0  0  0  0  0  0  0
  126.7435  126.7932   71.0148 H   0  0  0  0  0  0  0  0  0  0  0  0
  126.3815  127.3911   73.4007 H   0  0  0  0  0  0  0  0  0  0  0  0
  1  2  1  0
  2  3  1  0
  3  4  1  0
  4  5  2  0
  4  6  1  0
  6  7  2  0
  7  8  1  0
  8  9  2  0
  9 10  1  0
 10 11  1  0
 11 12  2  0
 11 13  1  0
 13 14  1  0
 14 15  1  0
 15 16  2  0
 16 17  1  0
 17 18  1  0
 18 19  2  0
 19 20  1  0
 20 21  2  0
 21 22  1  0
 22 23  2  0
 17 24  2  0
 24 25  1  0
 25 26  1  0
 26 27  1  0
 26 28  1  0
 26 29  1  0
 25 30  2  0
 30 31  1  0
 31 32  1  0
  9 33  1  0
 33 34  2  0
 34  6  1  0
 31 13  2  0
 30 15  1  0
 23 18  1  0
  1 35  1  0
  1 36  1  0
  1 37  1  0
  2 38  1  0
  2 39  1  0
  7 40  1  0
  8 41  1  0
 10 42  1  0
 19 43  1  0
 20 44  1  0
 21 45  1  0
 22 46  1  0
 23 47  1  0
 24 48  1  0
 32 49  1  0
 32 50  1  0
 33 51  1  0
 34 52  1  0
M  END
>  <Binding energies>  (1) 
[-7.43]

>  <Ligand effiencies>  (1) 
[-0.2008108108108108]

>  <Interactions>  (1) 
["V-A:GLU:543:CD:4908, H-A:TYR:484:OH:4348, V-A:LEU:475:CD2:4259, V-A:ILE:369:CD1:3239, V-A:GLY:453:C:4042, V-A:GLY:454:CA:4049, V-A:ILE:369:CG2:3237, H-A:GLU:543:OE2:4910, V-B:GLU:543:CB:9878, V-B:GLU:543:CG:9879, V-A:TYR:484:CE2:4346, V-B:GLU:543:CD:9880, V-B:HIS:456:CD2:9039, V-B:HIS:456:CB:9036, V-B:GLY:544:C:9884, V-B:HIS:456:CG:9037, V-A:HIS:456:CE1:4070, H-B:LYS:547:NZ:9923, V-B:LYS:547:CE:9922, V-B:HIS:456:CE1:9041, H-A:LYS:547:NZ:4951, H-A:GLU:543:OE1:4909, V-A:GLY:453:CA:4044, V-A:GLU:543:CG:4907, H-A:HIS:456:NE2:4071, V-B:LYS:547:CD:9921, H-B:GLU:543:OE2:9882"]

$$$$
4cb_Grossjean_2025
     RDKit          3D

 49 52  0  0  0  0  0  0  0  0999 V2000
  125.7600  128.5260   75.6740 C   0  0  0  0  0  0  0  0  0  0  0  0
  127.0130  127.8580   75.6250 O   0  0  0  0  0  0  0  0  0  0  0  0
  128.1320  128.5010   75.2050 C   0  0  0  0  0  0  0  0  0  0  0  0
  128.7830  129.2710   75.9190 O   0  0  0  0  0  0  0  0  0  0  0  0
  128.5030  128.1840   73.7840 C   0  0  0  0  0  0  0  0  0  0  0  0
  127.5650  127.5500   72.9590 C   0  0  0  0  0  0  0  0  0  0  0  0
  127.8750  127.2500   71.6350 C   0  0  0  0  0  0  0  0  0  0  0  0
  129.1280  127.5700   71.1120 C   0  0  0  0  0  0  0  0  0  0  0  0
  129.3290  127.2350   69.7590 N   0  0  0  0  0  0  0  0  0  0  0  0
  128.4270  127.0180   68.7710 C   0  0  0  0  0  0  0  0  0  0  0  0
  127.2090  127.1350   68.9080 O   0  0  0  0  0  0  0  0  0  0  0  0
  128.9990  126.6400   67.4750 C   0  0  0  0  0  0  0  0  0  0  0  0
  130.1460  125.3070   67.3660 S   0  0  0  0  0  0  0  0  0  0  0  0
  130.2670  125.4920   65.6320 C   0  0  0  0  0  0  0  0  0  0  0  0
  131.0500  124.7020   64.9020 N   0  0  0  0  0  0  0  0  0  0  0  0
  131.0700  124.9150   63.5600 C   0  0  0  0  0  0  0  0  0  0  0  0
  131.9580  124.0050   62.7630 C   0  0  0  0  0  0  0  0  0  0  0  0
  131.4530  122.8230   62.1990 C   0  0  0  0  0  0  0  0  0  0  0  0
  132.2720  121.9720   61.4600 C   0  0  0  0  0  0  0  0  0  0  0  0
  133.6130  122.2930   61.2760 C   0  0  0  0  0  0  0  0  0  0  0  0
  134.1400  123.4570   61.8270 C   0  0  0  0  0  0  0  0  0  0  0  0
  133.3180  124.3030   62.5650 C   0  0  0  0  0  0  0  0  0  0  0  0
  130.3210  125.9350   62.9630 C   0  0  0  0  0  0  0  0  0  0  0  0
  129.4950  126.7750   63.7250 C   0  0  0  0  0  0  0  0  0  0  0  0
  128.6990  127.8720   63.0050 C   0  0  0  0  0  0  0  0  0  0  0  0
  129.1960  128.1750   61.8040 F   0  0  0  0  0  0  0  0  0  0  0  0
  127.4410  127.4700   62.8270 F   0  0  0  0  0  0  0  0  0  0  0  0
  128.7070  128.9870   63.7340 F   0  0  0  0  0  0  0  0  0  0  0  0
  129.4540  126.5500   65.1310 C   0  0  0  0  0  0  0  0  0  0  0  0
  128.7350  127.1860   66.2080 C   0  0  0  0  0  0  0  0  0  0  0  0
  127.8720  128.2330   66.0060 N   0  0  0  0  0  0  0  0  0  0  0  0
  130.0720  128.2090   71.9310 C   0  0  0  0  0  0  0  0  0  0  0  0
  129.7600  128.5090   73.2530 C   0  0  0  0  0  0  0  0  0  0  0  0
  125.4682  128.6816   76.7231 H   0  0  0  0  0  0  0  0  0  0  0  0
  125.8434  129.4994   75.1684 H   0  0  0  0  0  0  0  0  0  0  0  0
  124.9983  127.9143   75.1684 H   0  0  0  0  0  0  0  0  0  0  0  0
  126.5752  127.2869   73.3605 H   0  0  0  0  0  0  0  0  0  0  0  0
  127.1266  126.7572   70.9970 H   0  0  0  0  0  0  0  0  0  0  0  0
  130.3000  127.1560   69.4940 H   0  0  0  0  0  0  0  0  0  0  0  0
  130.3935  122.5644   62.3428 H   0  0  0  0  0  0  0  0  0  0  0  0
  131.8599  121.0501   61.0238 H   0  0  0  0  0  0  0  0  0  0  0  0
  134.2605  121.6228   60.6916 H   0  0  0  0  0  0  0  0  0  0  0  0
  135.2010  123.7071   61.6799 H   0  0  0  0  0  0  0  0  0  0  0  0
  133.7393  125.2208   63.0011 H   0  0  0  0  0  0  0  0  0  0  0  0
  130.3810  126.0812   61.8744 H   0  0  0  0  0  0  0  0  0  0  0  0
  128.1980  129.1480   65.7290 H   0  0  0  0  0  0  0  0  0  0  0  0
  126.8740  128.1230   66.1250 H   0  0  0  0  0  0  0  0  0  0  0  0
  131.0603  128.4730   71.5267 H   0  0  0  0  0  0  0  0  0  0  0  0
  130.5071  129.0065   73.8889 H   0  0  0  0  0  0  0  0  0  0  0  0
  1  2  1  0
  2  3  1  0
  3  4  2  0
  3  5  1  0
  5  6  2  0
  6  7  1  0
  7  8  2  0
  8  9  1  0
  9 10  1  0
 10 11  2  0
 10 12  1  0
 12 13  1  0
 13 14  1  0
 14 15  2  0
 15 16  1  0
 16 17  1  0
 17 18  2  0
 18 19  1  0
 19 20  2  0
 20 21  1  0
 21 22  2  0
 16 23  2  0
 23 24  1  0
 24 25  1  0
 25 26  1  0
 25 27  1  0
 25 28  1  0
 24 29  2  0
 29 30  1  0
 30 31  1  0
  8 32  1  0
 32 33  2  0
 33  5  1  0
 30 12  2  0
 29 14  1  0
 22 17  1  0
  1 34  1  0
  1 35  1  0
  1 36  1  0
  6 37  1  0
  7 38  1  0
  9 39  1  0
 18 40  1  0
 19 41  1  0
 20 42  1  0
 21 43  1  0
 22 44  1  0
 23 45  1  0
 31 46  1  0
 31 47  1  0
 32 48  1  0
 33 49  1  0
M  END
>  <Binding energies>  (1) 
[-7.14]

>  <Ligand effiencies>  (1) 
[-0.19833333333333333]

>  <Interactions>  (1) 
["V-A:GLU:543:CD:4908, H-A:TYR:484:OH:4348, V-A:LEU:475:CD2:4259, V-A:ILE:369:CD1:3239, V-A:ILE:369:CG2:3237, H-A:GLU:543:OE2:4910, V-B:GLU:543:CB:9878, V-B:GLU:543:CG:9879, V-A:TYR:484:CE2:4346, V-B:GLU:543:CD:9880, V-B:HIS:456:CD2:9039, V-A:GLY:544:C:4912, V-B:HIS:456:CB:9036, V-B:GLY:544:C:9884, V-B:HIS:456:CG:9037, V-A:HIS:456:CE1:4070, H-B:LYS:547:NZ:9923, V-B:LYS:547:CE:9922, V-B:HIS:456:CE1:9041, H-A:LYS:547:NZ:4951, H-A:GLU:543:OE1:4909, H-B:TYR:484:OH:9319, V-A:GLU:543:CG:4907, H-A:HIS:456:NE2:4071, H-B:GLU:543:OE2:9882"]

$$$$
4cc_Grossjean_2025
     RDKit          3D

 47 50  0  0  0  0  0  0  0  0999 V2000
  126.7820  122.5370   57.2580 C   0  0  0  0  0  0  0  0  0  0  0  0
  127.8760  122.0200   58.0070 O   0  0  0  0  0  0  0  0  0  0  0  0
  128.1600  122.5600   59.2470 C   0  0  0  0  0  0  0  0  0  0  0  0
  127.4800  123.7300   59.5860 C   0  0  0  0  0  0  0  0  0  0  0  0
  127.6990  124.3460   60.8150 C   0  0  0  0  0  0  0  0  0  0  0  0
  128.6120  123.8040   61.7210 C   0  0  0  0  0  0  0  0  0  0  0  0
  128.7550  124.4860   62.9430 N   0  0  0  0  0  0  0  0  0  0  0  0
  129.8410  124.5860   63.7470 C   0  0  0  0  0  0  0  0  0  0  0  0
  130.9390  124.0910   63.4860 O   0  0  0  0  0  0  0  0  0  0  0  0
  129.6390  125.3400   64.9880 C   0  0  0  0  0  0  0  0  0  0  0  0
  130.1120  124.6440   66.5370 S   0  0  0  0  0  0  0  0  0  0  0  0
  129.5790  126.0720   67.3920 C   0  0  0  0  0  0  0  0  0  0  0  0
  129.6830  126.1690   68.7160 N   0  0  0  0  0  0  0  0  0  0  0  0
  129.2510  127.3210   69.2900 C   0  0  0  0  0  0  0  0  0  0  0  0
  129.3770  127.4000   70.7840 C   0  0  0  0  0  0  0  0  0  0  0  0
  128.2370  127.5150   71.5960 C   0  0  0  0  0  0  0  0  0  0  0  0
  128.3470  127.5900   72.9820 C   0  0  0  0  0  0  0  0  0  0  0  0
  129.6030  127.5530   73.5780 C   0  0  0  0  0  0  0  0  0  0  0  0
  130.7490  127.4430   72.7970 C   0  0  0  0  0  0  0  0  0  0  0  0
  130.6350  127.3690   71.4110 C   0  0  0  0  0  0  0  0  0  0  0  0
  128.7020  128.3630   68.5360 C   0  0  0  0  0  0  0  0  0  0  0  0
  128.5870  128.2710   67.1390 C   0  0  0  0  0  0  0  0  0  0  0  0
  127.9810  129.4530   66.3740 C   0  0  0  0  0  0  0  0  0  0  0  0
  128.1550  130.6230   66.9940 F   0  0  0  0  0  0  0  0  0  0  0  0
  128.5490  129.5510   65.1730 F   0  0  0  0  0  0  0  0  0  0  0  0
  126.6690  129.2700   66.2270 F   0  0  0  0  0  0  0  0  0  0  0  0
  129.0450  127.0700   66.5250 C   0  0  0  0  0  0  0  0  0  0  0  0
  129.0880  126.6210   65.1550 C   0  0  0  0  0  0  0  0  0  0  0  0
  128.6320  127.3840   64.1100 N   0  0  0  0  0  0  0  0  0  0  0  0
  129.2910  122.6200   61.3920 C   0  0  0  0  0  0  0  0  0  0  0  0
  129.0680  122.0070   60.1620 C   0  0  0  0  0  0  0  0  0  0  0  0
  126.0066  122.9034   57.9468 H   0  0  0  0  0  0  0  0  0  0  0  0
  127.1306  123.3656   56.6241 H   0  0  0  0  0  0  0  0  0  0  0  0
  126.3631  121.7416   56.6241 H   0  0  0  0  0  0  0  0  0  0  0  0
  126.7643  124.1697   58.8758 H   0  0  0  0  0  0  0  0  0  0  0  0
  127.1502  125.2637   61.0732 H   0  0  0  0  0  0  0  0  0  0  0  0
  127.9340  124.9930   63.2380 H   0  0  0  0  0  0  0  0  0  0  0  0
  127.2413  127.5463   71.1296 H   0  0  0  0  0  0  0  0  0  0  0  0
  127.4436  127.6782   73.6034 H   0  0  0  0  0  0  0  0  0  0  0  0
  129.6908  127.6110   74.6730 H   0  0  0  0  0  0  0  0  0  0  0  0
  131.7407  127.4146   73.2721 H   0  0  0  0  0  0  0  0  0  0  0  0
  131.5438  127.2849   70.7970 H   0  0  0  0  0  0  0  0  0  0  0  0
  128.3533  129.2726   69.0469 H   0  0  0  0  0  0  0  0  0  0  0  0
  129.2120  128.0810   63.6650 H   0  0  0  0  0  0  0  0  0  0  0  0
  127.6950  127.2750   63.7500 H   0  0  0  0  0  0  0  0  0  0  0  0
  129.9998  122.1763   62.1067 H   0  0  0  0  0  0  0  0  0  0  0  0
  129.6073  121.0831   59.9061 H   0  0  0  0  0  0  0  0  0  0  0  0
  1  2  1  0
  2  3  1  0
  3  4  2  0
  4  5  1  0
  5  6  2  0
  6  7  1  0
  7  8  1  0
  8  9  2  0
  8 10  1  0
 10 11  1  0
 11 12  1  0
 12 13  2  0
 13 14  1  0
 14 15  1  0
 15 16  2  0
 16 17  1  0
 17 18  2  0
 18 19  1  0
 19 20  2  0
 14 21  2  0
 21 22  1  0
 22 23  1  0
 23 24  1  0
 23 25  1  0
 23 26  1  0
 22 27  2  0
 27 28  1  0
 28 29  1  0
  6 30  1  0
 30 31  2  0
 31  3  1  0
 28 10  2  0
 27 12  1  0
 20 15  1  0
  1 32  1  0
  1 33  1  0
  1 34  1  0
  4 35  1  0
  5 36  1  0
  7 37  1  0
 16 38  1  0
 17 39  1  0
 18 40  1  0
 19 41  1  0
 20 42  1  0
 21 43  1  0
 29 44  1  0
 29 45  1  0
 30 46  1  0
 31 47  1  0
M  END
>  <Binding energies>  (1) 
[-7.04]

>  <Ligand effiencies>  (1) 
[-0.20705882352941177]

>  <Interactions>  (1) 
["V-B:PRO:540:N:9856, V-B:TYR:539:CD2:9846, V-A:GLU:543:CD:4908, V-B:PRO:540:CB:9857, V-B:PRO:540:CD:9859, V-B:TYR:539:CE2:9848, V-B:PRO:540:CA:9855, V-A:TYR:484:CZ:4347, H-A:GLU:543:OE2:4910, V-B:GLU:543:CB:9878, V-B:GLU:543:CG:9879, V-A:TYR:484:CE2:4346, V-B:GLU:543:CD:9880, H-B:GLU:543:OE1:9881, V-B:HIS:456:CD2:9039, V-A:GLY:544:C:4912, V-A:HIS:456:CD2:4068, V-A:HIS:456:CE1:4070, V-B:HIS:456:CE1:9041, H-A:GLU:543:OE1:4909, V-A:GLU:543:CB:4906, V-B:TYR:484:CZ:9318, V-A:GLU:543:CG:4907, V-B:TYR:539:C:9839, V-A:GLU:543:CA:4904, V-B:TYR:484:CE2:9317, V-B:TYR:484:CD2:9315, H-B:GLU:543:OE2:9882, H-B:TYR:539:N:9842"]

$$$$
4cd_Grossjean_2025
     RDKit          3D

 43 46  0  0  0  0  0  0  0  0999 V2000
  128.9460  127.2870   63.7350 N   0  0  0  0  0  0  0  0  0  0  0  0
  129.3720  126.5930   64.8400 C   0  0  0  0  0  0  0  0  0  0  0  0
  130.1360  125.4180   64.7620 C   0  0  0  0  0  0  0  0  0  0  0  0
  130.6010  124.7080   63.5670 C   0  0  0  0  0  0  0  0  0  0  0  0
  130.1460  124.9820   62.4560 O   0  0  0  0  0  0  0  0  0  0  0  0
  131.5480  123.7620   63.7840 N   0  0  0  0  0  0  0  0  0  0  0  0
  132.1590  122.8790   62.8750 C   0  0  0  0  0  0  0  0  0  0  0  0
  131.3010  122.2300   61.9820 C   0  0  0  0  0  0  0  0  0  0  0  0
  131.8120  121.3470   61.0350 C   0  0  0  0  0  0  0  0  0  0  0  0
  133.1830  121.1170   60.9740 C   0  0  0  0  0  0  0  0  0  0  0  0
  134.0500  121.7670   61.8480 C   0  0  0  0  0  0  0  0  0  0  0  0
  133.5430  122.6510   62.7980 C   0  0  0  0  0  0  0  0  0  0  0  0
  130.5160  124.7990   66.3680 S   0  0  0  0  0  0  0  0  0  0  0  0
  129.6440  126.1090   67.1280 C   0  0  0  0  0  0  0  0  0  0  0  0
  129.5530  126.2060   68.4520 N   0  0  0  0  0  0  0  0  0  0  0  0
  128.8420  127.2520   68.9510 C   0  0  0  0  0  0  0  0  0  0  0  0
  128.7550  127.3340   70.4470 C   0  0  0  0  0  0  0  0  0  0  0  0
  129.8550  127.7630   71.2080 C   0  0  0  0  0  0  0  0  0  0  0  0
  129.7800  127.8420   72.5960 C   0  0  0  0  0  0  0  0  0  0  0  0
  128.6010  127.4930   73.2450 C   0  0  0  0  0  0  0  0  0  0  0  0
  127.4960  127.0690   72.5150 C   0  0  0  0  0  0  0  0  0  0  0  0
  127.5730  126.9930   71.1280 C   0  0  0  0  0  0  0  0  0  0  0  0
  128.2440  128.2030   68.1190 C   0  0  0  0  0  0  0  0  0  0  0  0
  128.3380  128.1110   66.7200 C   0  0  0  0  0  0  0  0  0  0  0  0
  127.6540  129.1860   65.8670 C   0  0  0  0  0  0  0  0  0  0  0  0
  127.2830  128.7430   64.6640 F   0  0  0  0  0  0  0  0  0  0  0  0
  126.5590  129.6260   66.4860 F   0  0  0  0  0  0  0  0  0  0  0  0
  128.4900  130.2070   65.6740 F   0  0  0  0  0  0  0  0  0  0  0  0
  129.0690  127.0130   66.1860 C   0  0  0  0  0  0  0  0  0  0  0  0
  128.0420  127.1190   63.3150 H   0  0  0  0  0  0  0  0  0  0  0  0
  129.5230  127.9960   63.3050 H   0  0  0  0  0  0  0  0  0  0  0  0
  131.8830  123.6790   64.7330 H   0  0  0  0  0  0  0  0  0  0  0  0
  130.2181  122.4179   62.0280 H   0  0  0  0  0  0  0  0  0  0  0  0
  131.1345  120.8329   60.3374 H   0  0  0  0  0  0  0  0  0  0  0  0
  133.5853  120.4153   60.2285 H   0  0  0  0  0  0  0  0  0  0  0  0
  135.1329  121.5831   61.7887 H   0  0  0  0  0  0  0  0  0  0  0  0
  134.2257  123.1699   63.4870 H   0  0  0  0  0  0  0  0  0  0  0  0
  130.7900  128.0408   70.6995 H   0  0  0  0  0  0  0  0  0  0  0  0
  130.6508  128.1795   73.1773 H   0  0  0  0  0  0  0  0  0  0  0  0
  128.5420  127.5526   74.3418 H   0  0  0  0  0  0  0  0  0  0  0  0
  126.5647  126.7948   73.0322 H   0  0  0  0  0  0  0  0  0  0  0  0
  126.6949  126.6607   70.5548 H   0  0  0  0  0  0  0  0  0  0  0  0
  127.6890  129.0397   68.5683 H   0  0  0  0  0  0  0  0  0  0  0  0
  1  2  1  0
  2  3  2  0
  3  4  1  0
  4  5  2  0
  4  6  1  0
  6  7  1  0
  7  8  2  0
  8  9  1  0
  9 10  2  0
 10 11  1  0
 11 12  2  0
  3 13  1  0
 13 14  1  0
 14 15  2  0
 15 16  1  0
 16 17  1  0
 17 18  2  0
 18 19  1  0
 19 20  2  0
 20 21  1  0
 21 22  2  0
 16 23  2  0
 23 24  1  0
 24 25  1  0
 25 26  1  0
 25 27  1  0
 25 28  1  0
 24 29  2  0
 29  2  1  0
 12  7  1  0
 29 14  1  0
 22 17  1  0
  1 30  1  0
  1 31  1  0
  6 32  1  0
  8 33  1  0
  9 34  1  0
 10 35  1  0
 11 36  1  0
 12 37  1  0
 18 38  1  0
 19 39  1  0
 20 40  1  0
 21 41  1  0
 22 42  1  0
 23 43  1  0
M  END
>  <Binding energies>  (1) 
[-7.22]

>  <Ligand effiencies>  (1) 
[-0.225625]

>  <Interactions>  (1) 
["V-B:TYR:539:CD2:9846, V-A:GLU:543:CD:4908, H-A:TYR:484:OH:4348, V-B:TYR:539:CE2:9848, V-A:LEU:475:CD2:4259, V-A:ILE:369:CD1:3239, V-A:GLY:454:CA:4049, V-A:ILE:369:CG2:3237, V-A:TYR:484:CZ:4347, H-A:GLU:543:OE2:4910, V-B:GLU:543:CB:9878, V-B:GLU:543:CG:9879, V-A:SER:385:C:3405, V-A:TYR:484:CE2:4346, V-B:GLU:543:CD:9880, H-B:GLU:543:OE1:9881, V-B:HIS:456:CD2:9039, V-B:GLY:544:C:9884, V-A:HIS:456:CE1:4070, V-B:LYS:547:CE:9922, V-B:HIS:456:CE1:9041, V-B:GLU:543:C:9874, H-A:GLU:543:OE1:4909, V-A:GLU:543:CB:4906, V-B:TYR:484:CZ:9318, V-A:GLU:543:CG:4907, V-A:SER:385:CB:3409, V-B:TYR:484:CE2:9317, H-B:GLU:543:OE2:9882"]

$$$$
4ce_Grossjean_2025
     RDKit          3D

 45 48  0  0  0  0  0  0  0  0999 V2000
  132.2990  125.8390   57.9990 C   0  0  0  0  0  0  0  0  0  0  0  0
  132.7560  125.2570   59.3240 C   0  0  0  0  0  0  0  0  0  0  0  0
  133.8560  124.3990   59.4050 C   0  0  0  0  0  0  0  0  0  0  0  0
  134.2240  123.9090   60.6580 C   0  0  0  0  0  0  0  0  0  0  0  0
  133.4950  124.2850   61.7870 C   0  0  0  0  0  0  0  0  0  0  0  0
  132.4000  125.1440   61.6350 C   0  0  0  0  0  0  0  0  0  0  0  0
  131.7200  125.5050   62.8120 N   0  0  0  0  0  0  0  0  0  0  0  0
  130.8370  124.7760   63.5400 C   0  0  0  0  0  0  0  0  0  0  0  0
  130.5050  123.6230   63.2580 O   0  0  0  0  0  0  0  0  0  0  0  0
  130.2820  125.4500   64.7150 C   0  0  0  0  0  0  0  0  0  0  0  0
  130.6490  124.8570   66.3330 S   0  0  0  0  0  0  0  0  0  0  0  0
  129.7160  126.1410   67.0640 C   0  0  0  0  0  0  0  0  0  0  0  0
  129.6020  126.2500   68.3850 N   0  0  0  0  0  0  0  0  0  0  0  0
  128.8690  127.2900   68.8620 C   0  0  0  0  0  0  0  0  0  0  0  0
  128.7640  127.3880   70.3550 C   0  0  0  0  0  0  0  0  0  0  0  0
  129.8420  127.8650   71.1190 C   0  0  0  0  0  0  0  0  0  0  0  0
  129.7540  127.9520   72.5060 C   0  0  0  0  0  0  0  0  0  0  0  0
  128.5840  127.5640   73.1490 C   0  0  0  0  0  0  0  0  0  0  0  0
  127.5030  127.0870   72.4170 C   0  0  0  0  0  0  0  0  0  0  0  0
  127.5950  126.9990   71.0300 C   0  0  0  0  0  0  0  0  0  0  0  0
  128.2370  128.2020   68.0090 C   0  0  0  0  0  0  0  0  0  0  0  0
  128.3470  128.0920   66.6140 C   0  0  0  0  0  0  0  0  0  0  0  0
  127.6310  129.1260   65.7390 C   0  0  0  0  0  0  0  0  0  0  0  0
  127.2370  128.6350   64.5620 F   0  0  0  0  0  0  0  0  0  0  0  0
  126.5440  129.5740   66.3680 F   0  0  0  0  0  0  0  0  0  0  0  0
  128.4480  130.1500   65.4900 F   0  0  0  0  0  0  0  0  0  0  0  0
  129.1260  127.0140   66.1040 C   0  0  0  0  0  0  0  0  0  0  0  0
  129.4660  126.5930   64.7670 C   0  0  0  0  0  0  0  0  0  0  0  0
  129.0300  127.2540   63.6470 N   0  0  0  0  0  0  0  0  0  0  0  0
  132.0360  125.6310   60.4130 N   0  0  0  0  0  0  0  0  0  0  0  0
  131.6294  126.6918   58.1846 H   0  0  0  0  0  0  0  0  0  0  0  0
  133.1746  126.1782   57.4260 H   0  0  0  0  0  0  0  0  0  0  0  0
  131.7618  125.0689   57.4260 H   0  0  0  0  0  0  0  0  0  0  0  0
  134.4180  124.1169   58.5025 H   0  0  0  0  0  0  0  0  0  0  0  0
  135.0839  123.2301   60.7557 H   0  0  0  0  0  0  0  0  0  0  0  0
  133.7768  123.9116   62.7826 H   0  0  0  0  0  0  0  0  0  0  0  0
  131.9580  126.4160   63.1740 H   0  0  0  0  0  0  0  0  0  0  0  0
  130.7691  128.1743   70.6143 H   0  0  0  0  0  0  0  0  0  0  0  0
  130.6071  128.3264   73.0908 H   0  0  0  0  0  0  0  0  0  0  0  0
  128.5133  127.6350   74.2444 H   0  0  0  0  0  0  0  0  0  0  0  0
  126.5797  126.7806   72.9304 H   0  0  0  0  0  0  0  0  0  0  0  0
  126.7385  126.6188   70.4539 H   0  0  0  0  0  0  0  0  0  0  0  0
  127.6425  129.0209   68.4402 H   0  0  0  0  0  0  0  0  0  0  0  0
  129.5890  127.9640   63.1930 H   0  0  0  0  0  0  0  0  0  0  0  0
  128.1280  127.0550   63.2370 H   0  0  0  0  0  0  0  0  0  0  0  0
  1  2  1  0
  2  3  2  0
  3  4  1  0
  4  5  2  0
  5  6  1  0
  6  7  1  0
  7  8  1  0
  8  9  2  0
  8 10  1  0
 10 11  1  0
 11 12  1  0
 12 13  2  0
 13 14  1  0
 14 15  1  0
 15 16  2  0
 16 17  1  0
 17 18  2  0
 18 19  1  0
 19 20  2  0
 14 21  2  0
 21 22  1  0
 22 23  1  0
 23 24  1  0
 23 25  1  0
 23 26  1  0
 22 27  2  0
 27 28  1  0
 28 29  1  0
  6 30  2  0
 30  2  1  0
 28 10  2  0
 27 12  1  0
 20 15  1  0
  1 31  1  0
  1 32  1  0
  1 33  1  0
  3 34  1  0
  4 35  1  0
  5 36  1  0
  7 37  1  0
 16 38  1  0
 17 39  1  0
 18 40  1  0
 19 41  1  0
 20 42  1  0
 21 43  1  0
 29 44  1  0
 29 45  1  0
M  END
>  <Binding energies>  (1) 
[-7.33]

>  <Ligand effiencies>  (1) 
[-0.22212121212121214]

>  <Interactions>  (1) 
["V-A:GLU:543:CD:4908, V-A:ASP:366:CB:3212, V-A:ILE:369:CD1:3239, V-A:ASP:366:CG:3213, V-A:ILE:369:CG2:3237, V-A:TYR:484:CZ:4347, V-A:ILE:369:CB:3236, H-A:GLU:543:OE2:4910, V-B:GLU:543:CB:9878, V-B:GLU:543:CG:9879, V-A:TYR:484:CE2:4346, V-B:GLU:543:CD:9880, H-B:GLU:543:OE1:9881, V-A:ASP:366:CA:3210, V-B:HIS:456:CD2:9039, V-B:GLY:544:C:9884, V-A:HIS:456:CE1:4070, V-B:LYS:547:CE:9922, V-B:HIS:456:CE1:9041, V-B:GLU:543:C:9874, H-A:GLU:543:OE1:4909, V-A:GLU:543:CB:4906, V-B:TYR:484:CZ:9318, V-A:GLU:543:CG:4907, H-B:GLU:543:OE2:9882"]

$$$$
4cf_Grossjean_2025
     RDKit          3D

 42 45  0  0  0  0  0  0  0  0999 V2000
  128.8990  127.2600   63.6670 N   0  0  0  0  0  0  0  0  0  0  0  0
  129.3610  126.5860   64.7680 C   0  0  0  0  0  0  0  0  0  0  0  0
  130.1510  125.4270   64.6860 C   0  0  0  0  0  0  0  0  0  0  0  0
  130.5960  124.7070   63.4890 C   0  0  0  0  0  0  0  0  0  0  0  0
  130.1450  124.9970   62.3800 O   0  0  0  0  0  0  0  0  0  0  0  0
  131.5200  123.7400   63.7040 N   0  0  0  0  0  0  0  0  0  0  0  0
  132.1100  122.8430   62.7920 C   0  0  0  0  0  0  0  0  0  0  0  0
  131.4220  122.1140   61.8030 C   0  0  0  0  0  0  0  0  0  0  0  0
  132.1290  121.2440   60.9710 C   0  0  0  0  0  0  0  0  0  0  0  0
  133.5080  121.1220   61.1470 C   0  0  0  0  0  0  0  0  0  0  0  0
  134.1930  121.8080   62.0970 N   0  0  0  0  0  0  0  0  0  0  0  0
  133.4910  122.6490   62.9000 C   0  0  0  0  0  0  0  0  0  0  0  0
  130.5690  124.8280   66.2890 S   0  0  0  0  0  0  0  0  0  0  0  0
  129.6810  126.1240   67.0550 C   0  0  0  0  0  0  0  0  0  0  0  0
  129.6050  126.2270   68.3800 N   0  0  0  0  0  0  0  0  0  0  0  0
  128.8770  127.2590   68.8820 C   0  0  0  0  0  0  0  0  0  0  0  0
  128.8040  127.3450   70.3790 C   0  0  0  0  0  0  0  0  0  0  0  0
  127.6250  127.0080   71.0600 C   0  0  0  0  0  0  0  0  0  0  0  0
  127.5480  127.0840   72.4480 C   0  0  0  0  0  0  0  0  0  0  0  0
  128.6580  127.4990   73.1770 C   0  0  0  0  0  0  0  0  0  0  0  0
  129.8410  127.8360   72.5290 C   0  0  0  0  0  0  0  0  0  0  0  0
  129.9120  127.7580   71.1410 C   0  0  0  0  0  0  0  0  0  0  0  0
  128.2510  128.1940   68.0530 C   0  0  0  0  0  0  0  0  0  0  0  0
  128.3280  128.0970   66.6550 C   0  0  0  0  0  0  0  0  0  0  0  0
  127.6130  129.1540   65.8050 C   0  0  0  0  0  0  0  0  0  0  0  0
  128.3810  130.2080   65.5230 F   0  0  0  0  0  0  0  0  0  0  0  0
  127.2300  128.6180   64.6470 F   0  0  0  0  0  0  0  0  0  0  0  0
  126.5400  129.6060   66.4560 F   0  0  0  0  0  0  0  0  0  0  0  0
  129.0730  127.0080   66.1170 C   0  0  0  0  0  0  0  0  0  0  0  0
  128.0000  127.0560   63.2540 H   0  0  0  0  0  0  0  0  0  0  0  0
  129.4460  127.9890   63.2290 H   0  0  0  0  0  0  0  0  0  0  0  0
  131.8450  123.6390   64.6540 H   0  0  0  0  0  0  0  0  0  0  0  0
  130.3343  122.2293   61.6867 H   0  0  0  0  0  0  0  0  0  0  0  0
  131.6095  120.6662   60.1923 H   0  0  0  0  0  0  0  0  0  0  0  0
  134.0642  120.4401   60.4870 H   0  0  0  0  0  0  0  0  0  0  0  0
  134.0368  123.2064   63.6755 H   0  0  0  0  0  0  0  0  0  0  0  0
  126.7458  126.6779   70.4873 H   0  0  0  0  0  0  0  0  0  0  0  0
  126.6147  126.8174   72.9655 H   0  0  0  0  0  0  0  0  0  0  0  0
  128.5992  127.5609   74.2737 H   0  0  0  0  0  0  0  0  0  0  0  0
  130.7161  128.1625   73.1100 H   0  0  0  0  0  0  0  0  0  0  0  0
  130.8500  128.0237   70.6316 H   0  0  0  0  0  0  0  0  0  0  0  0
  127.6865  129.0227   68.5054 H   0  0  0  0  0  0  0  0  0  0  0  0
  1  2  1  0
  2  3  2  0
  3  4  1  0
  4  5  2  0
  4  6  1  0
  6  7  1  0
  7  8  2  0
  8  9  1  0
  9 10  2  0
 10 11  1  0
 11 12  2  0
  3 13  1  0
 13 14  1  0
 14 15  2  0
 15 16  1  0
 16 17  1  0
 17 18  2  0
 18 19  1  0
 19 20  2  0
 20 21  1  0
 21 22  2  0
 16 23  2  0
 23 24  1  0
 24 25  1  0
 25 26  1  0
 25 27  1  0
 25 28  1  0
 24 29  2  0
 29  2  1  0
 12  7  1  0
 29 14  1  0
 22 17  1  0
  1 30  1  0
  1 31  1  0
  6 32  1  0
  8 33  1  0
  9 34  1  0
 10 35  1  0
 12 36  1  0
 18 37  1  0
 19 38  1  0
 20 39  1  0
 21 40  1  0
 22 41  1  0
 23 42  1  0
M  END
>  <Binding energies>  (1) 
[-6.79]

>  <Ligand effiencies>  (1) 
[-0.2121875]

>  <Interactions>  (1) 
["V-B:TYR:539:CD2:9846, V-A:GLU:543:CD:4908, H-A:GLY:454:N:4050, H-A:TYR:484:OH:4348, V-B:TYR:539:CE2:9848, V-A:LEU:475:CD2:4259, V-A:GLY:454:CA:4049, V-A:ILE:369:CG2:3237, V-A:TYR:484:CZ:4347, H-A:GLU:543:OE2:4910, V-B:GLU:543:CB:9878, V-B:GLU:543:CG:9879, V-A:TYR:484:CE2:4346, V-B:GLU:543:CD:9880, H-B:GLU:543:OE1:9881, V-B:HIS:456:CD2:9039, V-B:GLY:544:C:9884, V-A:HIS:456:CE1:4070, V-B:LYS:547:CE:9922, V-B:HIS:456:CE1:9041, V-B:GLU:543:C:9874, H-A:GLU:543:OE1:4909, V-A:GLU:543:CB:4906, V-B:TYR:484:CZ:9318, V-A:GLU:543:CG:4907, V-A:SER:385:CA:3407, V-A:SER:385:CB:3409, V-B:TYR:484:CE2:9317, H-B:GLU:543:OE2:9882"]

$$$$
4cg_Grossjean_2025
     RDKit          3D

 46 49  0  0  0  0  0  0  0  0999 V2000
  128.6680  127.2530   63.6290 N   0  0  0  0  0  0  0  0  0  0  0  0
  129.0670  126.5090   64.7100 C   0  0  0  0  0  0  0  0  0  0  0  0
  129.5670  125.2040   64.6010 C   0  0  0  0  0  0  0  0  0  0  0  0
  129.8070  124.4170   63.3910 C   0  0  0  0  0  0  0  0  0  0  0  0
  130.9490  124.2160   62.9720 O   0  0  0  0  0  0  0  0  0  0  0  0
  128.7080  123.9670   62.7500 N   0  0  0  0  0  0  0  0  0  0  0  0
  128.7100  123.1460   61.5410 C   0  0  0  0  0  0  0  0  0  0  0  0
  127.5250  123.4200   60.6210 C   0  0  0  0  0  0  0  0  0  0  0  0
  127.6660  123.2540   59.2400 C   0  0  0  0  0  0  0  0  0  0  0  0
  126.5770  123.4720   58.3990 C   0  0  0  0  0  0  0  0  0  0  0  0
  125.3510  123.8470   58.9420 C   0  0  0  0  0  0  0  0  0  0  0  0
  125.2000  123.9990   60.3190 C   0  0  0  0  0  0  0  0  0  0  0  0
  126.2870  123.7780   61.1600 C   0  0  0  0  0  0  0  0  0  0  0  0
  130.0030  124.5490   66.1770 S   0  0  0  0  0  0  0  0  0  0  0  0
  129.4900  126.0180   66.9740 C   0  0  0  0  0  0  0  0  0  0  0  0
  129.5730  126.1560   68.2940 N   0  0  0  0  0  0  0  0  0  0  0  0
  129.1550  127.3340   68.8250 C   0  0  0  0  0  0  0  0  0  0  0  0
  129.2590  127.4580   70.3190 C   0  0  0  0  0  0  0  0  0  0  0  0
  128.2170  127.0220   71.1530 C   0  0  0  0  0  0  0  0  0  0  0  0
  128.3080  127.1350   72.5370 C   0  0  0  0  0  0  0  0  0  0  0  0
  129.4480  127.6910   73.1100 C   0  0  0  0  0  0  0  0  0  0  0  0
  130.4940  128.1340   72.3080 C   0  0  0  0  0  0  0  0  0  0  0  0
  130.3980  128.0180   70.9250 C   0  0  0  0  0  0  0  0  0  0  0  0
  128.6390  128.3620   68.0270 C   0  0  0  0  0  0  0  0  0  0  0  0
  128.5470  128.2270   66.6330 C   0  0  0  0  0  0  0  0  0  0  0  0
  127.9710  129.3910   65.8180 C   0  0  0  0  0  0  0  0  0  0  0  0
  128.4880  129.4770   64.5910 F   0  0  0  0  0  0  0  0  0  0  0  0
  126.6530  129.2400   65.6870 F   0  0  0  0  0  0  0  0  0  0  0  0
  128.2220  130.5420   66.4380 F   0  0  0  0  0  0  0  0  0  0  0  0
  128.9960  126.9990   66.0650 C   0  0  0  0  0  0  0  0  0  0  0  0
  127.7670  127.1200   63.1910 H   0  0  0  0  0  0  0  0  0  0  0  0
  129.2620  127.9700   63.2370 H   0  0  0  0  0  0  0  0  0  0  0  0
  127.8110  124.1070   63.1900 H   0  0  0  0  0  0  0  0  0  0  0  0
  129.6373  123.3471   60.9845 H   0  0  0  0  0  0  0  0  0  0  0  0
  128.6366  122.0962   61.8612 H   0  0  0  0  0  0  0  0  0  0  0  0
  128.6358  122.9516   58.8180 H   0  0  0  0  0  0  0  0  0  0  0  0
  126.6852  123.3485   57.3113 H   0  0  0  0  0  0  0  0  0  0  0  0
  124.4928  124.0251   58.2773 H   0  0  0  0  0  0  0  0  0  0  0  0
  124.2266  124.2922   60.7393 H   0  0  0  0  0  0  0  0  0  0  0  0
  126.1711  123.8852   62.2486 H   0  0  0  0  0  0  0  0  0  0  0  0
  127.3132  126.5836   70.7047 H   0  0  0  0  0  0  0  0  0  0  0  0
  127.4827  126.7865   73.1752 H   0  0  0  0  0  0  0  0  0  0  0  0
  129.5220  127.7805   74.2039 H   0  0  0  0  0  0  0  0  0  0  0  0
  131.3928  128.5739   72.7648 H   0  0  0  0  0  0  0  0  0  0  0  0
  131.2275  128.3704   70.2943 H   0  0  0  0  0  0  0  0  0  0  0  0
  128.2989  129.2941   68.5019 H   0  0  0  0  0  0  0  0  0  0  0  0
  1  2  1  0
  2  3  2  0
  3  4  1  0
  4  5  2  0
  4  6  1  0
  6  7  1  0
  7  8  1  0
  8  9  2  0
  9 10  1  0
 10 11  2  0
 11 12  1  0
 12 13  2  0
  3 14  1  0
 14 15  1  0
 15 16  2  0
 16 17  1  0
 17 18  1  0
 18 19  2  0
 19 20  1  0
 20 21  2  0
 21 22  1  0
 22 23  2  0
 17 24  2  0
 24 25  1  0
 25 26  1  0
 26 27  1  0
 26 28  1  0
 26 29  1  0
 25 30  2  0
 30  2  1  0
 13  8  1  0
 30 15  1  0
 23 18  1  0
  1 31  1  0
  1 32  1  0
  6 33  1  0
  7 34  1  0
  7 35  1  0
  9 36  1  0
 10 37  1  0
 11 38  1  0
 12 39  1  0
 13 40  1  0
 19 41  1  0
 20 42  1  0
 21 43  1  0
 22 44  1  0
 23 45  1  0
 24 46  1  0
M  END
>  <Binding energies>  (1) 
[-7.58]

>  <Ligand effiencies>  (1) 
[-0.2296969696969697]

>  <Interactions>  (1) 
["V-B:PRO:540:N:9856, V-A:GLU:543:CD:4908, V-B:PRO:540:CB:9857, V-B:PRO:540:CA:9855, V-A:TYR:484:CZ:4347, H-A:GLU:543:OE2:4910, V-B:GLU:543:CB:9878, V-B:GLU:543:CG:9879, V-A:TYR:484:CE2:4346, V-B:GLU:543:CD:9880, H-B:GLU:543:OE1:9881, V-A:GLY:544:C:4912, V-A:HIS:456:CE1:4070, V-B:HIS:456:CE1:9041, H-A:GLU:543:OE1:4909, V-A:GLU:543:CB:4906, V-A:GLU:543:C:4902, V-B:TYR:484:CZ:9318, V-A:GLU:543:CG:4907, V-A:GLU:543:CA:4904, V-B:TYR:484:CE2:9317, H-B:GLU:543:OE2:9882"]

$$$$
4ch_Grossjean_2025
     RDKit          3D

 58 61  0  0  0  0  0  0  0  0999 V2000
  133.8270  124.1330   60.4100 C   0  0  0  0  0  0  0  0  0  0  0  0
  133.1950  123.0400   59.7520 O   0  0  0  0  0  0  0  0  0  0  0  0
  132.0220  122.5230   60.2690 C   0  0  0  0  0  0  0  0  0  0  0  0
  130.8700  123.2870   60.5160 C   0  0  0  0  0  0  0  0  0  0  0  0
  129.7180  122.6970   61.0390 C   0  0  0  0  0  0  0  0  0  0  0  0
  128.4860  123.5480   61.3260 C   0  0  0  0  0  0  0  0  0  0  0  0
  128.5450  124.2840   62.5890 N   0  0  0  0  0  0  0  0  0  0  0  0
  129.6690  124.5700   63.2790 C   0  0  0  0  0  0  0  0  0  0  0  0
  130.7910  124.2500   62.8790 O   0  0  0  0  0  0  0  0  0  0  0  0
  129.4860  125.3210   64.5210 C   0  0  0  0  0  0  0  0  0  0  0  0
  129.9220  124.5930   66.0640 S   0  0  0  0  0  0  0  0  0  0  0  0
  129.4570  126.0400   66.9270 C   0  0  0  0  0  0  0  0  0  0  0  0
  129.5530  126.1200   68.2510 N   0  0  0  0  0  0  0  0  0  0  0  0
  129.1740  127.2870   68.8340 C   0  0  0  0  0  0  0  0  0  0  0  0
  129.2890  127.3420   70.3310 C   0  0  0  0  0  0  0  0  0  0  0  0
  130.4770  127.7700   70.9450 C   0  0  0  0  0  0  0  0  0  0  0  0
  130.5910  127.8230   72.3320 C   0  0  0  0  0  0  0  0  0  0  0  0
  129.5140  127.4470   73.1270 C   0  0  0  0  0  0  0  0  0  0  0  0
  128.3260  127.0150   72.5450 C   0  0  0  0  0  0  0  0  0  0  0  0
  128.2180  126.9620   71.1580 C   0  0  0  0  0  0  0  0  0  0  0  0
  128.6830  128.3610   68.0850 C   0  0  0  0  0  0  0  0  0  0  0  0
  128.5760  128.2870   66.6860 C   0  0  0  0  0  0  0  0  0  0  0  0
  128.0300  129.5010   65.9270 C   0  0  0  0  0  0  0  0  0  0  0  0
  128.5970  129.6690   64.7300 F   0  0  0  0  0  0  0  0  0  0  0  0
  126.7200  129.3590   65.7310 F   0  0  0  0  0  0  0  0  0  0  0  0
  128.2510  130.6110   66.6310 F   0  0  0  0  0  0  0  0  0  0  0  0
  128.9840  127.0720   66.0650 C   0  0  0  0  0  0  0  0  0  0  0  0
  129.0230  126.6350   64.6900 C   0  0  0  0  0  0  0  0  0  0  0  0
  128.6320  127.4320   63.6450 N   0  0  0  0  0  0  0  0  0  0  0  0
  129.7180  121.3340   61.3370 C   0  0  0  0  0  0  0  0  0  0  0  0
  130.8560  120.5460   61.1020 C   0  0  0  0  0  0  0  0  0  0  0  0
  130.9250  119.1920   61.3720 O   0  0  0  0  0  0  0  0  0  0  0  0
  129.7490  118.4980   61.7740 C   0  0  0  0  0  0  0  0  0  0  0  0
  132.0000  121.1520   60.5620 C   0  0  0  0  0  0  0  0  0  0  0  0
  133.1250  120.3960   60.3420 O   0  0  0  0  0  0  0  0  0  0  0  0
  133.1280  119.7110   59.0960 C   0  0  0  0  0  0  0  0  0  0  0  0
  133.7498  123.9996   61.4991 H   0  0  0  0  0  0  0  0  0  0  0  0
  134.8872  124.1724   60.1196 H   0  0  0  0  0  0  0  0  0  0  0  0
  133.3322  125.0715   60.1196 H   0  0  0  0  0  0  0  0  0  0  0  0
  130.8754  124.3645   60.2945 H   0  0  0  0  0  0  0  0  0  0  0  0
  128.3711  124.2749   60.5085 H   0  0  0  0  0  0  0  0  0  0  0  0
  127.6351  122.8552   61.4040 H   0  0  0  0  0  0  0  0  0  0  0  0
  127.6570  124.5290   63.0020 H   0  0  0  0  0  0  0  0  0  0  0  0
  131.3318  128.0684   70.3202 H   0  0  0  0  0  0  0  0  0  0  0  0
  131.5291  128.1609   72.7966 H   0  0  0  0  0  0  0  0  0  0  0  0
  129.6015  127.4913   74.2226 H   0  0  0  0  0  0  0  0  0  0  0  0
  127.4768  126.7170   73.1775 H   0  0  0  0  0  0  0  0  0  0  0  0
  127.2785  126.6169   70.7016 H   0  0  0  0  0  0  0  0  0  0  0  0
  128.3744  129.2820   68.6013 H   0  0  0  0  0  0  0  0  0  0  0  0
  129.2400  128.1400   63.2560 H   0  0  0  0  0  0  0  0  0  0  0  0
  127.7190  127.3350   63.2230 H   0  0  0  0  0  0  0  0  0  0  0  0
  128.8150  120.8709   61.7614 H   0  0  0  0  0  0  0  0  0  0  0  0
  129.6983  118.4681   62.8724 H   0  0  0  0  0  0  0  0  0  0  0  0
  128.8635  119.0183   61.3801 H   0  0  0  0  0  0  0  0  0  0  0  0
  129.7764  117.4713   61.3801 H   0  0  0  0  0  0  0  0  0  0  0  0
  133.1328  118.6256   59.2743 H   0  0  0  0  0  0  0  0  0  0  0  0
  132.2286  119.9848   58.5249 H   0  0  0  0  0  0  0  0  0  0  0  0
  134.0249  119.9927   58.5249 H   0  0  0  0  0  0  0  0  0  0  0  0
  1  2  1  0
  2  3  1  0
  3  4  2  0
  4  5  1  0
  5  6  1  0
  6  7  1  0
  7  8  1  0
  8  9  2  0
  8 10  1  0
 10 11  1  0
 11 12  1  0
 12 13  2  0
 13 14  1  0
 14 15  1  0
 15 16  2  0
 16 17  1  0
 17 18  2  0
 18 19  1  0
 19 20  2  0
 14 21  2  0
 21 22  1  0
 22 23  1  0
 23 24  1  0
 23 25  1  0
 23 26  1  0
 22 27  2  0
 27 28  1  0
 28 29  1  0
  5 30  2  0
 30 31  1  0
 31 32  1  0
 32 33  1  0
 31 34  2  0
 34 35  1  0
 35 36  1  0
 34  3  1  0
 28 10  2  0
 27 12  1  0
 20 15  1  0
  1 37  1  0
  1 38  1  0
  1 39  1  0
  4 40  1  0
  6 41  1  0
  6 42  1  0
  7 43  1  0
 16 44  1  0
 17 45  1  0
 18 46  1  0
 19 47  1  0
 20 48  1  0
 21 49  1  0
 29 50  1  0
 29 51  1  0
 30 52  1  0
 33 53  1  0
 33 54  1  0
 33 55  1  0
 36 56  1  0
 36 57  1  0
 36 58  1  0
M  END
>  <Binding energies>  (1) 
[-6.8]

>  <Ligand effiencies>  (1) 
[-0.17435897435897435]

>  <Interactions>  (1) 
["V-B:TYR:539:CD2:9846, V-A:GLU:543:CD:4908, V-B:TYR:539:CE2:9848, V-A:LEU:475:CD2:4259, V-A:ILE:369:CD1:3239, V-A:ASP:366:CG:3213, V-A:ILE:369:CG2:3237, V-A:TYR:484:CZ:4347, H-A:GLU:543:OE2:4910, V-B:GLU:543:CB:9878, V-B:GLU:543:CG:9879, V-A:TYR:484:CE2:4346, V-B:GLU:543:CD:9880, H-B:GLU:543:OE1:9881, V-B:ALA:541:CB:9864, V-A:ASP:366:CA:3210, V-A:GLY:544:C:4912, V-A:HIS:456:CE1:4070, V-B:HIS:456:CE1:9041, H-A:GLU:543:OE1:4909, V-A:GLU:543:CB:4906, V-B:TYR:484:CZ:9318, V-A:GLU:543:CG:4907, V-A:PRO:482:CB:4326, H-A:HIS:383:HE2:3395, V-A:SER:385:CA:3407, V-A:LEU:475:CD1:4258, H-A:SER:385:OG:3410, V-A:SER:385:CB:3409, V-A:LEU:475:CG:4257, V-A:GLU:543:CA:4904, V-B:TYR:484:CE2:9317, H-B:GLU:543:OE2:9882"]

$$$$
4ci_Grossjean_2025
     RDKit          3D

 39 42  0  0  0  0  0  0  0  0999 V2000
  128.6840  127.3680   63.7320 N   0  0  0  0  0  0  0  0  0  0  0  0
  129.0800  126.6080   64.8010 C   0  0  0  0  0  0  0  0  0  0  0  0
  129.5880  125.3040   64.6730 C   0  0  0  0  0  0  0  0  0  0  0  0
  129.8040  124.5250   63.4510 C   0  0  0  0  0  0  0  0  0  0  0  0
  130.9460  124.2830   63.0530 O   0  0  0  0  0  0  0  0  0  0  0  0
  128.6790  124.1190   62.8100 N   0  0  0  0  0  0  0  0  0  0  0  0
  128.5940  123.3770   61.6390 C   0  0  0  0  0  0  0  0  0  0  0  0
  128.2160  123.9250   60.4150 C   0  0  0  0  0  0  0  0  0  0  0  0
  128.2540  122.8770   59.5250 C   0  0  0  0  0  0  0  0  0  0  0  0
  128.6370  121.7540   60.1800 O   0  0  0  0  0  0  0  0  0  0  0  0
  128.8490  122.0840   61.5200 N   0  0  0  0  0  0  0  0  0  0  0  0
  130.0060  124.6260   66.2440 S   0  0  0  0  0  0  0  0  0  0  0  0
  129.4920  126.0840   67.0610 C   0  0  0  0  0  0  0  0  0  0  0  0
  129.5650  126.2030   68.3840 N   0  0  0  0  0  0  0  0  0  0  0  0
  129.1460  127.3740   68.9290 C   0  0  0  0  0  0  0  0  0  0  0  0
  129.2360  127.4760   70.4240 C   0  0  0  0  0  0  0  0  0  0  0  0
  128.1840  127.0320   71.2420 C   0  0  0  0  0  0  0  0  0  0  0  0
  128.2620  127.1230   72.6290 C   0  0  0  0  0  0  0  0  0  0  0  0
  129.3990  127.6630   73.2220 C   0  0  0  0  0  0  0  0  0  0  0  0
  130.4530  128.1150   72.4370 C   0  0  0  0  0  0  0  0  0  0  0  0
  130.3700  128.0230   71.0500 C   0  0  0  0  0  0  0  0  0  0  0  0
  128.6380  128.4130   68.1420 C   0  0  0  0  0  0  0  0  0  0  0  0
  128.5570  128.2990   66.7440 C   0  0  0  0  0  0  0  0  0  0  0  0
  127.9910  129.4780   65.9440 C   0  0  0  0  0  0  0  0  0  0  0  0
  128.5270  129.5910   64.7270 F   0  0  0  0  0  0  0  0  0  0  0  0
  126.6760  129.3240   65.7870 F   0  0  0  0  0  0  0  0  0  0  0  0
  128.2260  130.6190   66.5930 F   0  0  0  0  0  0  0  0  0  0  0  0
  129.0060  127.0800   66.1630 C   0  0  0  0  0  0  0  0  0  0  0  0
  129.2690  128.0970   63.3470 H   0  0  0  0  0  0  0  0  0  0  0  0
  127.7900  127.2200   63.2840 H   0  0  0  0  0  0  0  0  0  0  0  0
  127.7960  124.3830   63.2210 H   0  0  0  0  0  0  0  0  0  0  0  0
  127.9455  124.9705   60.2056 H   0  0  0  0  0  0  0  0  0  0  0  0
  128.0124  122.9402   58.4537 H   0  0  0  0  0  0  0  0  0  0  0  0
  127.2825  126.6048   70.7785 H   0  0  0  0  0  0  0  0  0  0  0  0
  127.4283  126.7695   73.2535 H   0  0  0  0  0  0  0  0  0  0  0  0
  129.4640  127.7325   74.3179 H   0  0  0  0  0  0  0  0  0  0  0  0
  131.3492  128.5437   72.9094 H   0  0  0  0  0  0  0  0  0  0  0  0
  131.2061  128.3845   70.4334 H   0  0  0  0  0  0  0  0  0  0  0  0
  128.2949  129.3384   68.6277 H   0  0  0  0  0  0  0  0  0  0  0  0
  1  2  1  0
  2  3  2  0
  3  4  1  0
  4  5  2  0
  4  6  1  0
  6  7  1  0
  7  8  1  0
  8  9  2  0
  9 10  1  0
 10 11  1  0
  3 12  1  0
 12 13  1  0
 13 14  2  0
 14 15  1  0
 15 16  1  0
 16 17  2  0
 17 18  1  0
 18 19  2  0
 19 20  1  0
 20 21  2  0
 15 22  2  0
 22 23  1  0
 23 24  1  0
 24 25  1  0
 24 26  1  0
 24 27  1  0
 23 28  2  0
 28  2  1  0
 11  7  2  0
 28 13  1  0
 21 16  1  0
  1 29  1  0
  1 30  1  0
  6 31  1  0
  8 32  1  0
  9 33  1  0
 17 34  1  0
 18 35  1  0
 19 36  1  0
 20 37  1  0
 21 38  1  0
 22 39  1  0
M  END
>  <Binding energies>  (1) 
[-6.75]

>  <Ligand effiencies>  (1) 
[-0.21774193548387097]

>  <Interactions>  (1) 
["V-B:PRO:540:N:9856, V-B:TYR:539:CD2:9846, V-A:GLU:543:CD:4908, V-B:TYR:539:CE2:9848, V-B:PRO:540:CA:9855, H-B:ALA:541:N:9863, V-A:TYR:484:CZ:4347, H-A:GLU:543:OE2:4910, V-B:GLU:543:CB:9878, V-B:GLU:543:CG:9879, V-A:TYR:484:CE2:4346, V-B:GLU:543:CD:9880, H-B:GLU:543:OE1:9881, V-A:GLY:544:C:4912, V-A:HIS:456:CE1:4070, V-B:HIS:456:CE1:9041, H-A:GLU:543:OE1:4909, V-A:GLU:543:CB:4906, V-A:GLU:543:C:4902, V-B:TYR:484:CZ:9318, V-A:GLU:543:CG:4907, V-B:TYR:539:C:9839, V-A:GLU:543:CA:4904, V-B:TYR:484:CE2:9317, H-B:GLU:543:OE2:9882"]

$$$$
4cj_Grossjean_2025
     RDKit          3D

 39 42  0  0  0  0  0  0  0  0999 V2000
  129.0770  127.2010   63.8610 N   0  0  0  0  0  0  0  0  0  0  0  0
  129.5250  126.5730   64.9950 C   0  0  0  0  0  0  0  0  0  0  0  0
  130.3880  125.4650   64.9710 C   0  0  0  0  0  0  0  0  0  0  0  0
  130.9700  124.7860   63.8110 C   0  0  0  0  0  0  0  0  0  0  0  0
  130.6260  125.0860   62.6650 O   0  0  0  0  0  0  0  0  0  0  0  0
  131.8820  123.8230   64.0970 N   0  0  0  0  0  0  0  0  0  0  0  0
  132.5760  123.0370   63.1880 C   0  0  0  0  0  0  0  0  0  0  0  0
  133.8770  122.8560   63.1050 N   0  0  0  0  0  0  0  0  0  0  0  0
  134.1910  122.0380   62.1200 C   0  0  0  0  0  0  0  0  0  0  0  0
  133.1280  121.5330   61.3760 C   0  0  0  0  0  0  0  0  0  0  0  0
  131.6400  122.1710   62.0110 S   0  0  0  0  0  0  0  0  0  0  0  0
  130.7700  124.9200   66.6030 S   0  0  0  0  0  0  0  0  0  0  0  0
  129.7720  126.1720   67.3020 C   0  0  0  0  0  0  0  0  0  0  0  0
  129.6420  126.3010   68.6200 N   0  0  0  0  0  0  0  0  0  0  0  0
  128.8520  127.3090   69.0720 C   0  0  0  0  0  0  0  0  0  0  0  0
  128.7380  127.4340   70.5640 C   0  0  0  0  0  0  0  0  0  0  0  0
  127.5870  126.9920   71.2360 C   0  0  0  0  0  0  0  0  0  0  0  0
  127.4720  127.1100   72.6190 C   0  0  0  0  0  0  0  0  0  0  0  0
  128.5100  127.6770   73.3520 C   0  0  0  0  0  0  0  0  0  0  0  0
  129.6590  128.1250   72.7110 C   0  0  0  0  0  0  0  0  0  0  0  0
  129.7700  128.0030   71.3290 C   0  0  0  0  0  0  0  0  0  0  0  0
  128.1770  128.1660   68.1980 C   0  0  0  0  0  0  0  0  0  0  0  0
  128.3050  128.0390   66.8060 C   0  0  0  0  0  0  0  0  0  0  0  0
  127.5390  129.0150   65.9050 C   0  0  0  0  0  0  0  0  0  0  0  0
  127.3150  128.5330   64.6810 F   0  0  0  0  0  0  0  0  0  0  0  0
  126.3550  129.2930   66.4480 F   0  0  0  0  0  0  0  0  0  0  0  0
  128.2360  130.1430   65.7680 F   0  0  0  0  0  0  0  0  0  0  0  0
  129.1470  126.9970   66.3210 C   0  0  0  0  0  0  0  0  0  0  0  0
  128.1280  127.0950   63.5300 H   0  0  0  0  0  0  0  0  0  0  0  0
  129.6850  127.7990   63.3170 H   0  0  0  0  0  0  0  0  0  0  0  0
  132.0780  123.6450   65.0710 H   0  0  0  0  0  0  0  0  0  0  0  0
  135.2344  121.7695   61.8983 H   0  0  0  0  0  0  0  0  0  0  0  0
  133.2152  120.8423   60.5244 H   0  0  0  0  0  0  0  0  0  0  0  0
  126.7627  126.5452   70.6607 H   0  0  0  0  0  0  0  0  0  0  0  0
  126.5642  126.7564   73.1298 H   0  0  0  0  0  0  0  0  0  0  0  0
  128.4208  127.7711   74.4443 H   0  0  0  0  0  0  0  0  0  0  0  0
  130.4770  128.5740   73.2934 H   0  0  0  0  0  0  0  0  0  0  0  0
  130.6819  128.3584   70.8268 H   0  0  0  0  0  0  0  0  0  0  0  0
  127.5321  128.9563   68.6097 H   0  0  0  0  0  0  0  0  0  0  0  0
  1  2  1  0
  2  3  2  0
  3  4  1  0
  4  5  2  0
  4  6  1  0
  6  7  1  0
  7  8  2  0
  8  9  1  0
  9 10  2  0
 10 11  1  0
  3 12  1  0
 12 13  1  0
 13 14  2  0
 14 15  1  0
 15 16  1  0
 16 17  2  0
 17 18  1  0
 18 19  2  0
 19 20  1  0
 20 21  2  0
 15 22  2  0
 22 23  1  0
 23 24  1  0
 24 25  1  0
 24 26  1  0
 24 27  1  0
 23 28  2  0
 28  2  1  0
 11  7  1  0
 28 13  1  0
 21 16  1  0
  1 29  1  0
  1 30  1  0
  6 31  1  0
  9 32  1  0
 10 33  1  0
 17 34  1  0
 18 35  1  0
 19 36  1  0
 20 37  1  0
 21 38  1  0
 22 39  1  0
M  END
>  <Binding energies>  (1) 
[-6.93]

>  <Ligand effiencies>  (1) 
[-0.2235483870967742]

>  <Interactions>  (1) 
["V-A:GLU:543:CD:4908, H-A:GLY:454:N:4050, H-A:TYR:484:OH:4348, V-A:LEU:475:CD2:4259, V-A:ILE:369:CD1:3239, V-A:GLY:454:CA:4049, V-A:ILE:369:CG2:3237, V-A:TYR:484:CZ:4347, H-A:GLU:543:OE2:4910, V-B:GLU:543:CB:9878, V-B:GLU:543:CG:9879, V-A:SER:385:C:3405, V-A:TYR:484:CE2:4346, V-B:GLU:543:CD:9880, H-B:GLU:543:OE1:9881, V-B:HIS:456:CD2:9039, V-B:GLY:544:C:9884, V-A:HIS:456:CE1:4070, V-B:LYS:547:CE:9922, V-B:HIS:456:CE1:9041, V-B:GLU:543:C:9874, H-A:GLU:543:OE1:4909, V-A:GLU:543:CB:4906, V-B:TYR:484:CZ:9318, V-A:GLU:543:CG:4907, V-B:TYR:484:CE2:9317, H-B:GLU:543:OE2:9882"]

$$$$
4ck_Grossjean_2025
     RDKit          3D

 57 59  0  0  0  0  0  0  0  0999 V2000
  124.4960  123.6360   61.6980 C   0  0  0  0  0  0  0  0  0  0  0  0
  125.6390  122.9050   62.1160 O   0  0  0  0  0  0  0  0  0  0  0  0
  126.8480  123.3610   61.5260 C   0  0  0  0  0  0  0  0  0  0  0  0
  128.0160  123.0440   62.4680 C   0  0  0  0  0  0  0  0  0  0  0  0
  128.7570  121.9540   61.9380 O   0  0  0  0  0  0  0  0  0  0  0  0
  129.2800  122.2010   60.6400 C   0  0  0  0  0  0  0  0  0  0  0  0
  129.9510  123.5810   60.6230 C   0  0  0  0  0  0  0  0  0  0  0  0
  131.3600  123.4040   60.6840 O   0  0  0  0  0  0  0  0  0  0  0  0
  132.0910  124.6230   60.7050 C   0  0  0  0  0  0  0  0  0  0  0  0
  132.9430  124.6900   61.9820 C   0  0  0  0  0  0  0  0  0  0  0  0
  132.1820  125.1930   63.1260 N   0  0  0  0  0  0  0  0  0  0  0  0
  131.2280  124.5160   63.7990 C   0  0  0  0  0  0  0  0  0  0  0  0
  130.9140  123.3570   63.5230 O   0  0  0  0  0  0  0  0  0  0  0  0
  130.5860  125.2390   64.8980 C   0  0  0  0  0  0  0  0  0  0  0  0
  130.8770  124.7520   66.5660 S   0  0  0  0  0  0  0  0  0  0  0  0
  129.8780  126.0550   67.1650 C   0  0  0  0  0  0  0  0  0  0  0  0
  129.6840  126.2390   68.4690 N   0  0  0  0  0  0  0  0  0  0  0  0
  128.8900  127.2770   68.8400 C   0  0  0  0  0  0  0  0  0  0  0  0
  128.7070  127.4680   70.3180 C   0  0  0  0  0  0  0  0  0  0  0  0
  127.5600  126.9880   70.9690 C   0  0  0  0  0  0  0  0  0  0  0  0
  127.3830  127.1650   72.3390 C   0  0  0  0  0  0  0  0  0  0  0  0
  128.3550  127.8260   73.0810 C   0  0  0  0  0  0  0  0  0  0  0  0
  129.5050  128.3070   72.4620 C   0  0  0  0  0  0  0  0  0  0  0  0
  129.6780  128.1270   71.0920 C   0  0  0  0  0  0  0  0  0  0  0  0
  128.3020  128.1300   67.9010 C   0  0  0  0  0  0  0  0  0  0  0  0
  128.4990  127.9440   66.5230 C   0  0  0  0  0  0  0  0  0  0  0  0
  127.8200  128.9150   65.5480 C   0  0  0  0  0  0  0  0  0  0  0  0
  128.5920  129.9520   65.2200 F   0  0  0  0  0  0  0  0  0  0  0  0
  127.5090  128.2760   64.4200 F   0  0  0  0  0  0  0  0  0  0  0  0
  126.7090  129.4020   66.0990 F   0  0  0  0  0  0  0  0  0  0  0  0
  129.3270  126.8570   66.1230 C   0  0  0  0  0  0  0  0  0  0  0  0
  129.7580  126.3700   64.8340 C   0  0  0  0  0  0  0  0  0  0  0  0
  129.3840  126.9600   63.6540 N   0  0  0  0  0  0  0  0  0  0  0  0
  123.9436  123.9893   62.5812 H   0  0  0  0  0  0  0  0  0  0  0  0
  124.8133  124.4992   61.0945 H   0  0  0  0  0  0  0  0  0  0  0  0
  123.8455  122.9859   61.0945 H   0  0  0  0  0  0  0  0  0  0  0  0
  127.0028  122.8524   60.5630 H   0  0  0  0  0  0  0  0  0  0  0  0
  126.7919  124.4465   61.3570 H   0  0  0  0  0  0  0  0  0  0  0  0
  128.6685  123.9253   62.5555 H   0  0  0  0  0  0  0  0  0  0  0  0
  127.6288  122.7803   63.4632 H   0  0  0  0  0  0  0  0  0  0  0  0
  130.0210  121.4280   60.3883 H   0  0  0  0  0  0  0  0  0  0  0  0
  128.4653  122.1761   59.9014 H   0  0  0  0  0  0  0  0  0  0  0  0
  129.6844  124.1107   59.6966 H   0  0  0  0  0  0  0  0  0  0  0  0
  129.6103  124.1738   61.4847 H   0  0  0  0  0  0  0  0  0  0  0  0
  132.7475  124.6716   59.8237 H   0  0  0  0  0  0  0  0  0  0  0  0
  131.3897  125.4703   60.6884 H   0  0  0  0  0  0  0  0  0  0  0  0
  133.3102  123.6800   62.2167 H   0  0  0  0  0  0  0  0  0  0  0  0
  133.7757  125.3847   61.7974 H   0  0  0  0  0  0  0  0  0  0  0  0
  132.4470  126.1060   63.4670 H   0  0  0  0  0  0  0  0  0  0  0  0
  126.7878  126.4632   70.3874 H   0  0  0  0  0  0  0  0  0  0  0  0
  126.4770  126.7830   72.8323 H   0  0  0  0  0  0  0  0  0  0  0  0
  128.2146  127.9696   74.1625 H   0  0  0  0  0  0  0  0  0  0  0  0
  130.2738  128.8270   73.0523 H   0  0  0  0  0  0  0  0  0  0  0  0
  130.5896  128.5068   70.6074 H   0  0  0  0  0  0  0  0  0  0  0  0
  127.6729  128.9629   68.2483 H   0  0  0  0  0  0  0  0  0  0  0  0
  128.5530  126.6780   63.1520 H   0  0  0  0  0  0  0  0  0  0  0  0
  129.9280  127.7090   63.2450 H   0  0  0  0  0  0  0  0  0  0  0  0
  1  2  1  0
  2  3  1  0
  3  4  1  0
  4  5  1  0
  5  6  1  0
  6  7  1  0
  7  8  1  0
  8  9  1  0
  9 10  1  0
 10 11  1  0
 11 12  1  0
 12 13  2  0
 12 14  1  0
 14 15  1  0
 15 16  1  0
 16 17  2  0
 17 18  1  0
 18 19  1  0
 19 20  2  0
 20 21  1  0
 21 22  2  0
 22 23  1  0
 23 24  2  0
 18 25  2  0
 25 26  1  0
 26 27  1  0
 27 28  1  0
 27 29  1  0
 27 30  1  0
 26 31  2  0
 31 32  1  0
 32 33  1  0
 32 14  2  0
 31 16  1  0
 24 19  1  0
  1 34  1  0
  1 35  1  0
  1 36  1  0
  3 37  1  0
  3 38  1  0
  4 39  1  0
  4 40  1  0
  6 41  1  0
  6 42  1  0
  7 43  1  0
  7 44  1  0
  9 45  1  0
  9 46  1  0
 10 47  1  0
 10 48  1  0
 11 49  1  0
 20 50  1  0
 21 51  1  0
 22 52  1  0
 23 53  1  0
 24 54  1  0
 25 55  1  0
 33 56  1  0
 33 57  1  0
M  END
>  <Binding energies>  (1) 
[-5.96]

>  <Ligand effiencies>  (1) 
[-0.16555555555555557]

>  <Interactions>  (1) 
["V-B:TYR:539:CD2:9846, V-A:GLU:543:CD:4908, V-B:PRO:540:CB:9857, V-B:TYR:539:CE2:9848, V-A:ARG:545:CZ:4926, V-B:PRO:540:CA:9855, H-B:ALA:541:N:9863, V-B:ASN:362:CB:8147, V-A:TYR:484:CZ:4347, H-A:GLU:543:OE2:4910, V-B:GLU:543:CB:9878, V-B:GLU:543:CG:9879, V-A:TYR:484:CE2:4346, V-B:GLU:543:CD:9880, H-B:GLU:543:OE1:9881, V-B:ALA:541:CB:9864, V-B:HIS:456:CD2:9039, V-B:GLY:544:C:9884, V-B:HIS:456:CG:9037, V-A:HIS:456:CE1:4070, V-B:LYS:547:CE:9922, V-B:HIS:456:CE1:9041, V-B:GLU:543:C:9874, H-A:GLU:543:OE1:4909, V-A:GLU:543:CB:4906, V-B:TYR:484:CZ:9318, V-A:GLU:543:CG:4907, H-A:ASP:366:OD1:3214, H-B:GLU:543:OE2:9882"]

$$$$
4dd_Grossjean_2025
     RDKit          3D

 43 46  0  0  0  0  0  0  0  0999 V2000
  127.6530  129.1440   65.9720 C   0  0  0  0  0  0  0  0  0  0  0  0
  128.3480  128.0910   66.8210 C   0  0  0  0  0  0  0  0  0  0  0  0
  128.2570  128.2010   68.2140 C   0  0  0  0  0  0  0  0  0  0  0  0
  128.8740  127.2640   69.0520 C   0  0  0  0  0  0  0  0  0  0  0  0
  128.7980  127.3600   70.5470 C   0  0  0  0  0  0  0  0  0  0  0  0
  129.8810  127.8510   71.2930 C   0  0  0  0  0  0  0  0  0  0  0  0
  129.8160  127.9460   72.6810 C   0  0  0  0  0  0  0  0  0  0  0  0
  128.6620  127.5480   73.3450 C   0  0  0  0  0  0  0  0  0  0  0  0
  127.5730  127.0590   72.6320 C   0  0  0  0  0  0  0  0  0  0  0  0
  127.6410  126.9680   71.2440 C   0  0  0  0  0  0  0  0  0  0  0  0
  129.5940  126.2210   68.5560 N   0  0  0  0  0  0  0  0  0  0  0  0
  129.6760  126.1110   67.2310 C   0  0  0  0  0  0  0  0  0  0  0  0
  130.5530  124.8090   66.4600 S   0  0  0  0  0  0  0  0  0  0  0  0
  130.1460  125.4220   64.8550 C   0  0  0  0  0  0  0  0  0  0  0  0
  130.6030  124.7180   63.6550 C   0  0  0  0  0  0  0  0  0  0  0  0
  130.1550  125.0120   62.5460 O   0  0  0  0  0  0  0  0  0  0  0  0
  131.5330  123.7550   63.8650 N   0  0  0  0  0  0  0  0  0  0  0  0
  132.1310  122.8710   62.9490 C   0  0  0  0  0  0  0  0  0  0  0  0
  131.2620  122.2350   62.0580 C   0  0  0  0  0  0  0  0  0  0  0  0
  131.7590  121.3520   61.1030 C   0  0  0  0  0  0  0  0  0  0  0  0
  133.1280  121.1100   61.0330 C   0  0  0  0  0  0  0  0  0  0  0  0
  134.0060  121.7460   61.9060 C   0  0  0  0  0  0  0  0  0  0  0  0
  133.5130  122.6290   62.8630 C   0  0  0  0  0  0  0  0  0  0  0  0
  129.3690  126.5880   64.9420 C   0  0  0  0  0  0  0  0  0  0  0  0
  128.9120  127.2840   63.8500 N   0  0  0  0  0  0  0  0  0  0  0  0
  129.0840  127.0010   66.2900 C   0  0  0  0  0  0  0  0  0  0  0  0
  127.1665  129.8811   66.6277 H   0  0  0  0  0  0  0  0  0  0  0  0
  128.3945  129.6510   65.3371 H   0  0  0  0  0  0  0  0  0  0  0  0
  126.8953  128.6615   65.3371 H   0  0  0  0  0  0  0  0  0  0  0  0
  127.6928  129.0353   68.6563 H   0  0  0  0  0  0  0  0  0  0  0  0
  130.7971  128.1663   70.7722 H   0  0  0  0  0  0  0  0  0  0  0  0
  130.6742  128.3343   73.2490 H   0  0  0  0  0  0  0  0  0  0  0  0
  128.6097  127.6202   74.4414 H   0  0  0  0  0  0  0  0  0  0  0  0
  126.6616  126.7453   73.1621 H   0  0  0  0  0  0  0  0  0  0  0  0
  126.7760  126.5834   70.6838 H   0  0  0  0  0  0  0  0  0  0  0  0
  131.8630  123.6570   64.8140 H   0  0  0  0  0  0  0  0  0  0  0  0
  130.1813  122.4328   62.1114 H   0  0  0  0  0  0  0  0  0  0  0  0
  131.0727  120.8478   60.4068 H   0  0  0  0  0  0  0  0  0  0  0  0
  133.5197  120.4096   60.2807 H   0  0  0  0  0  0  0  0  0  0  0  0
  135.0867  121.5515   61.8400 H   0  0  0  0  0  0  0  0  0  0  0  0
  134.2045  123.1369   63.5513 H   0  0  0  0  0  0  0  0  0  0  0  0
  128.4430  128.1740   63.9430 H   0  0  0  0  0  0  0  0  0  0  0  0
  129.0350  126.9280   62.9130 H   0  0  0  0  0  0  0  0  0  0  0  0
  1  2  1  0
  2  3  2  0
  3  4  1  0
  4  5  1  0
  5  6  2  0
  6  7  1  0
  7  8  2  0
  8  9  1  0
  9 10  2  0
  4 11  2  0
 11 12  1  0
 12 13  1  0
 13 14  1  0
 14 15  1  0
 15 16  2  0
 15 17  1  0
 17 18  1  0
 18 19  2  0
 19 20  1  0
 20 21  2  0
 21 22  1  0
 22 23  2  0
 14 24  2  0
 24 25  1  0
 24 26  1  0
 26  2  1  0
 10  5  1  0
 26 12  2  0
 23 18  1  0
  1 27  1  0
  1 28  1  0
  1 29  1  0
  3 30  1  0
  6 31  1  0
  7 32  1  0
  8 33  1  0
  9 34  1  0
 10 35  1  0
 17 36  1  0
 19 37  1  0
 20 38  1  0
 21 39  1  0
 22 40  1  0
 23 41  1  0
 25 42  1  0
 25 43  1  0
M  END
>  <Binding energies>  (1) 
[-7.17]

>  <Ligand effiencies>  (1) 
[-0.24724137931034482]

>  <Interactions>  (1) 
["V-B:TYR:539:CD2:9846, V-A:GLU:543:CD:4908, H-A:TYR:484:OH:4348, V-B:TYR:539:CE2:9848, V-A:LEU:475:CD2:4259, V-A:ILE:369:CD1:3239, V-A:GLY:454:CA:4049, V-A:ILE:369:CG2:3237, V-A:TYR:484:CZ:4347, V-B:GLU:543:CB:9878, V-B:GLU:543:CG:9879, V-A:SER:385:C:3405, V-A:TYR:484:CE2:4346, V-B:GLU:543:CD:9880, H-B:GLU:543:OE1:9881, V-B:HIS:456:CD2:9039, V-B:GLY:544:C:9884, V-A:HIS:456:CE1:4070, V-B:LYS:547:CE:9922, V-B:HIS:456:CE1:9041, V-B:GLU:543:C:9874, H-A:GLU:543:OE1:4909, V-A:GLU:543:CB:4906, V-A:GLU:543:CG:4907, V-A:SER:385:CB:3409, H-B:GLU:543:OE2:9882"]

$$$$
4dg_Grossjean_2025
     RDKit          3D

 46 49  0  0  0  0  0  0  0  0999 V2000
  127.9230  129.3550   65.8580 C   0  0  0  0  0  0  0  0  0  0  0  0
  128.5250  128.2180   66.6700 C   0  0  0  0  0  0  0  0  0  0  0  0
  128.6120  128.3730   68.0590 C   0  0  0  0  0  0  0  0  0  0  0  0
  129.1560  127.3630   68.8630 C   0  0  0  0  0  0  0  0  0  0  0  0
  129.2620  127.5000   70.3560 C   0  0  0  0  0  0  0  0  0  0  0  0
  128.2220  127.0670   71.1950 C   0  0  0  0  0  0  0  0  0  0  0  0
  128.3140  127.1960   72.5790 C   0  0  0  0  0  0  0  0  0  0  0  0
  129.4500  127.7600   73.1460 C   0  0  0  0  0  0  0  0  0  0  0  0
  130.4940  128.2010   72.3380 C   0  0  0  0  0  0  0  0  0  0  0  0
  130.3980  128.0720   70.9560 C   0  0  0  0  0  0  0  0  0  0  0  0
  129.6010  126.1900   68.3380 N   0  0  0  0  0  0  0  0  0  0  0  0
  129.5190  126.0410   67.0160 C   0  0  0  0  0  0  0  0  0  0  0  0
  130.0620  124.5860   66.2130 S   0  0  0  0  0  0  0  0  0  0  0  0
  129.6010  125.2320   64.6380 C   0  0  0  0  0  0  0  0  0  0  0  0
  129.8490  124.4560   63.4250 C   0  0  0  0  0  0  0  0  0  0  0  0
  130.9920  124.1420   63.0860 O   0  0  0  0  0  0  0  0  0  0  0  0
  128.7600  124.1440   62.6910 N   0  0  0  0  0  0  0  0  0  0  0  0
  128.7670  123.3590   61.4570 C   0  0  0  0  0  0  0  0  0  0  0  0
  127.5300  123.5780   60.5930 C   0  0  0  0  0  0  0  0  0  0  0  0
  127.6270  123.4750   59.2020 C   0  0  0  0  0  0  0  0  0  0  0  0
  126.4930  123.6430   58.4130 C   0  0  0  0  0  0  0  0  0  0  0  0
  125.2640  123.9020   59.0160 C   0  0  0  0  0  0  0  0  0  0  0  0
  125.1570  123.9890   60.4020 C   0  0  0  0  0  0  0  0  0  0  0  0
  126.2910  123.8200   61.1930 C   0  0  0  0  0  0  0  0  0  0  0  0
  129.0670  126.5240   64.7530 C   0  0  0  0  0  0  0  0  0  0  0  0
  128.6390  127.2710   63.6850 N   0  0  0  0  0  0  0  0  0  0  0  0
  128.9990  127.0050   66.1070 C   0  0  0  0  0  0  0  0  0  0  0  0
  127.5189  130.1182   66.5393 H   0  0  0  0  0  0  0  0  0  0  0  0
  128.7012  129.8047   65.2238 H   0  0  0  0  0  0  0  0  0  0  0  0
  127.1137  128.9642   65.2238 H   0  0  0  0  0  0  0  0  0  0  0  0
  128.2482  129.3005   68.5252 H   0  0  0  0  0  0  0  0  0  0  0  0
  127.3204  126.6188   70.7520 H   0  0  0  0  0  0  0  0  0  0  0  0
  127.4896  126.8523   73.2210 H   0  0  0  0  0  0  0  0  0  0  0  0
  129.5248  127.8585   74.2390 H   0  0  0  0  0  0  0  0  0  0  0  0
  131.3909  128.6495   72.7900 H   0  0  0  0  0  0  0  0  0  0  0  0
  131.2251  128.4235   70.3217 H   0  0  0  0  0  0  0  0  0  0  0  0
  127.8520  124.3660   63.0700 H   0  0  0  0  0  0  0  0  0  0  0  0
  129.6553  123.6381   60.8713 H   0  0  0  0  0  0  0  0  0  0  0  0
  128.7767  122.2980   61.7471 H   0  0  0  0  0  0  0  0  0  0  0  0
  128.5983  123.2615   58.7319 H   0  0  0  0  0  0  0  0  0  0  0  0
  126.5667  123.5716   57.3178 H   0  0  0  0  0  0  0  0  0  0  0  0
  124.3691  124.0392   58.3912 H   0  0  0  0  0  0  0  0  0  0  0  0
  124.1819  124.1902   60.8696 H   0  0  0  0  0  0  0  0  0  0  0  0
  126.2116  123.8769   62.2886 H   0  0  0  0  0  0  0  0  0  0  0  0
  129.2140  127.9890   63.2710 H   0  0  0  0  0  0  0  0  0  0  0  0
  127.7280  127.1200   63.2730 H   0  0  0  0  0  0  0  0  0  0  0  0
  1  2  1  0
  2  3  2  0
  3  4  1  0
  4  5  1  0
  5  6  2  0
  6  7  1  0
  7  8  2  0
  8  9  1  0
  9 10  2  0
  4 11  2  0
 11 12  1  0
 12 13  1  0
 13 14  1  0
 14 15  1  0
 15 16  2  0
 15 17  1  0
 17 18  1  0
 18 19  1  0
 19 20  2  0
 20 21  1  0
 21 22  2  0
 22 23  1  0
 23 24  2  0
 14 25  2  0
 25 26  1  0
 25 27  1  0
 27  2  1  0
 10  5  1  0
 27 12  2  0
 24 19  1  0
  1 28  1  0
  1 29  1  0
  1 30  1  0
  3 31  1  0
  6 32  1  0
  7 33  1  0
  8 34  1  0
  9 35  1  0
 10 36  1  0
 17 37  1  0
 18 38  1  0
 18 39  1  0
 20 40  1  0
 21 41  1  0
 22 42  1  0
 23 43  1  0
 24 44  1  0
 26 45  1  0
 26 46  1  0
M  END
>  <Binding energies>  (1) 
[-7.79]

>  <Ligand effiencies>  (1) 
[-0.25966666666666666]

>  <Interactions>  (1) 
["V-A:GLU:543:CD:4908, V-B:PRO:540:CB:9857, V-B:PRO:540:CA:9855, V-A:TYR:484:CZ:4347, H-A:GLU:543:OE2:4910, V-B:GLU:543:CB:9878, V-B:GLU:543:CG:9879, V-A:TYR:484:CE2:4346, V-B:GLU:543:CD:9880, H-B:GLU:543:OE1:9881, V-A:GLY:544:C:4912, V-A:HIS:456:CE1:4070, V-B:HIS:456:CE1:9041, H-A:GLU:543:OE1:4909, V-A:GLU:543:CB:4906, V-A:GLU:543:C:4902, V-A:GLU:543:CG:4907, H-B:GLU:543:OE2:9882"]

$$$$
4dj_Grossjean_2025
     RDKit          3D

 39 42  0  0  0  0  0  0  0  0999 V2000
  127.9460  129.4660   65.9540 C   0  0  0  0  0  0  0  0  0  0  0  0
  128.5250  128.3210   66.7700 C   0  0  0  0  0  0  0  0  0  0  0  0
  128.5870  128.4660   68.1610 C   0  0  0  0  0  0  0  0  0  0  0  0
  129.1110  127.4500   68.9690 C   0  0  0  0  0  0  0  0  0  0  0  0
  129.1840  127.5760   70.4640 C   0  0  0  0  0  0  0  0  0  0  0  0
  128.0810  127.2490   71.2700 C   0  0  0  0  0  0  0  0  0  0  0  0
  128.1420  127.3640   72.6560 C   0  0  0  0  0  0  0  0  0  0  0  0
  129.3120  127.8140   73.2590 C   0  0  0  0  0  0  0  0  0  0  0  0
  130.4190  128.1480   72.4860 C   0  0  0  0  0  0  0  0  0  0  0  0
  130.3530  128.0310   71.1010 C   0  0  0  0  0  0  0  0  0  0  0  0
  129.5640  126.2780   68.4460 N   0  0  0  0  0  0  0  0  0  0  0  0
  129.5080  126.1380   67.1220 C   0  0  0  0  0  0  0  0  0  0  0  0
  130.0640  124.6880   66.3170 S   0  0  0  0  0  0  0  0  0  0  0  0
  129.6350  125.3450   64.7360 C   0  0  0  0  0  0  0  0  0  0  0  0
  129.8750  124.5650   63.5210 C   0  0  0  0  0  0  0  0  0  0  0  0
  131.0230  124.3590   63.1200 O   0  0  0  0  0  0  0  0  0  0  0  0
  128.7640  124.1100   62.8910 N   0  0  0  0  0  0  0  0  0  0  0  0
  128.7140  123.3550   61.7280 C   0  0  0  0  0  0  0  0  0  0  0  0
  129.2960  122.1980   61.4900 N   0  0  0  0  0  0  0  0  0  0  0  0
  129.0310  121.7640   60.2730 C   0  0  0  0  0  0  0  0  0  0  0  0
  128.2150  122.5770   59.4930 C   0  0  0  0  0  0  0  0  0  0  0  0
  127.7750  123.9850   60.4130 S   0  0  0  0  0  0  0  0  0  0  0  0
  129.0910  126.6330   64.8540 C   0  0  0  0  0  0  0  0  0  0  0  0
  128.6730  127.3860   63.7860 N   0  0  0  0  0  0  0  0  0  0  0  0
  129.0050  127.1090   66.2090 C   0  0  0  0  0  0  0  0  0  0  0  0
  127.5552  130.2388   66.6323 H   0  0  0  0  0  0  0  0  0  0  0  0
  128.7335  129.8991   65.3197 H   0  0  0  0  0  0  0  0  0  0  0  0
  127.1305  129.0885   65.3197 H   0  0  0  0  0  0  0  0  0  0  0  0
  128.2184  129.3922   68.6261 H   0  0  0  0  0  0  0  0  0  0  0  0
  127.1525  126.8958   70.7976 H   0  0  0  0  0  0  0  0  0  0  0  0
  127.2692  127.1003   73.2714 H   0  0  0  0  0  0  0  0  0  0  0  0
  129.3620  127.9063   74.3540 H   0  0  0  0  0  0  0  0  0  0  0  0
  131.3423  128.5030   72.9672 H   0  0  0  0  0  0  0  0  0  0  0  0
  131.2301  128.2989   70.4936 H   0  0  0  0  0  0  0  0  0  0  0  0
  127.8710  124.3440   63.3010 H   0  0  0  0  0  0  0  0  0  0  0  0
  129.4329  120.8121   59.8958 H   0  0  0  0  0  0  0  0  0  0  0  0
  127.8993  122.3635   58.4611 H   0  0  0  0  0  0  0  0  0  0  0  0
  129.2500  128.1090   63.3830 H   0  0  0  0  0  0  0  0  0  0  0  0
  127.7650  127.2400   63.3650 H   0  0  0  0  0  0  0  0  0  0  0  0
  1  2  1  0
  2  3  2  0
  3  4  1  0
  4  5  1  0
  5  6  2  0
  6  7  1  0
  7  8  2  0
  8  9  1  0
  9 10  2  0
  4 11  2  0
 11 12  1  0
 12 13  1  0
 13 14  1  0
 14 15  1  0
 15 16  2  0
 15 17  1  0
 17 18  1  0
 18 19  2  0
 19 20  1  0
 20 21  2  0
 21 22  1  0
 14 23  2  0
 23 24  1  0
 23 25  1  0
 25  2  1  0
 10  5  1  0
 25 12  2  0
 22 18  1  0
  1 26  1  0
  1 27  1  0
  1 28  1  0
  3 29  1  0
  6 30  1  0
  7 31  1  0
  8 32  1  0
  9 33  1  0
 10 34  1  0
 17 35  1  0
 20 36  1  0
 21 37  1  0
 24 38  1  0
 24 39  1  0
M  END
>  <Binding energies>  (1) 
[-6.96]

>  <Ligand effiencies>  (1) 
[-0.24857142857142858]

>  <Interactions>  (1) 
["V-B:PRO:540:N:9856, V-B:TYR:539:CD2:9846, V-A:GLU:543:CD:4908, V-B:TYR:539:CE2:9848, V-B:PRO:540:CA:9855, V-A:TYR:484:CZ:4347, H-A:GLU:543:OE2:4910, V-B:GLU:543:CB:9878, V-B:GLU:543:CG:9879, V-A:TYR:484:CE2:4346, V-B:GLU:543:CD:9880, H-B:GLU:543:OE1:9881, V-B:HIS:456:CD2:9039, V-A:GLY:544:C:4912, V-A:HIS:456:CE1:4070, V-B:HIS:456:CE1:9041, H-A:GLU:543:OE1:4909, V-A:GLU:543:CB:4906, V-A:GLU:543:C:4902, V-A:GLU:543:CG:4907, V-B:TYR:539:C:9839, H-B:GLU:543:OE2:9882"]

$$$$
4ea_Grossjean_2025
     RDKit          3D

 52 55  0  0  0  0  0  0  0  0999 V2000
  129.7550  131.7090   73.3880 C   0  0  0  0  0  0  0  0  0  0  0  0
  129.0520  130.3480   73.3590 C   0  0  0  0  0  0  0  0  0  0  0  0
  130.0200  129.3200   73.1910 O   0  0  0  0  0  0  0  0  0  0  0  0
  129.6460  128.0390   72.9430 C   0  0  0  0  0  0  0  0  0  0  0  0
  129.3370  127.2370   73.8300 O   0  0  0  0  0  0  0  0  0  0  0  0
  129.6470  127.6930   71.4820 C   0  0  0  0  0  0  0  0  0  0  0  0
  130.7480  128.0540   70.6950 C   0  0  0  0  0  0  0  0  0  0  0  0
  130.7800  127.7480   69.3380 C   0  0  0  0  0  0  0  0  0  0  0  0
  129.7140  127.0760   68.7390 C   0  0  0  0  0  0  0  0  0  0  0  0
  129.8560  126.8200   67.3610 N   0  0  0  0  0  0  0  0  0  0  0  0
  130.0130  125.6480   66.6970 C   0  0  0  0  0  0  0  0  0  0  0  0
  130.0590  124.5440   67.2400 O   0  0  0  0  0  0  0  0  0  0  0  0
  130.1300  125.7670   65.2410 C   0  0  0  0  0  0  0  0  0  0  0  0
  129.2840  127.0550   64.3790 S   0  0  0  0  0  0  0  0  0  0  0  0
  129.9130  126.5060   62.8430 C   0  0  0  0  0  0  0  0  0  0  0  0
  129.6130  127.1220   61.6980 N   0  0  0  0  0  0  0  0  0  0  0  0
  130.1660  126.5970   60.5770 C   0  0  0  0  0  0  0  0  0  0  0  0
  129.8110  127.3120   59.2860 C   0  0  0  0  0  0  0  0  0  0  0  0
  131.0030  125.4840   60.5730 C   0  0  0  0  0  0  0  0  0  0  0  0
  131.3160  124.8420   61.7760 C   0  0  0  0  0  0  0  0  0  0  0  0
  132.2070  123.6600   61.7570 C   0  0  0  0  0  0  0  0  0  0  0  0
  131.7250  122.4230   61.3160 C   0  0  0  0  0  0  0  0  0  0  0  0
  132.5630  121.3110   61.2950 C   0  0  0  0  0  0  0  0  0  0  0  0
  133.8840  121.4360   61.7190 C   0  0  0  0  0  0  0  0  0  0  0  0
  134.3730  122.6620   62.1650 C   0  0  0  0  0  0  0  0  0  0  0  0
  133.5330  123.7720   62.1850 C   0  0  0  0  0  0  0  0  0  0  0  0
  130.7550  125.3610   62.9760 C   0  0  0  0  0  0  0  0  0  0  0  0
  130.8610  124.9600   64.3550 C   0  0  0  0  0  0  0  0  0  0  0  0
  131.6150  123.8840   64.7480 N   0  0  0  0  0  0  0  0  0  0  0  0
  128.6060  126.7100   69.5190 C   0  0  0  0  0  0  0  0  0  0  0  0
  128.5770  127.0170   70.8770 C   0  0  0  0  0  0  0  0  0  0  0  0
  129.9142  132.0173   74.4318 H   0  0  0  0  0  0  0  0  0  0  0  0
  130.7257  131.6313   72.8765 H   0  0  0  0  0  0  0  0  0  0  0  0
  129.1298  132.4556   72.8765 H   0  0  0  0  0  0  0  0  0  0  0  0
  128.5127  130.1932   74.3052 H   0  0  0  0  0  0  0  0  0  0  0  0
  128.3382  130.3209   72.5225 H   0  0  0  0  0  0  0  0  0  0  0  0
  131.5953  128.5844   71.1540 H   0  0  0  0  0  0  0  0  0  0  0  0
  131.6519  128.0379   68.7332 H   0  0  0  0  0  0  0  0  0  0  0  0
  129.8360  127.6490   66.7870 H   0  0  0  0  0  0  0  0  0  0  0  0
  129.3330  128.2748   59.5196 H   0  0  0  0  0  0  0  0  0  0  0  0
  130.7258  127.4891   58.7014 H   0  0  0  0  0  0  0  0  0  0  0  0
  129.1169  126.6903   58.7014 H   0  0  0  0  0  0  0  0  0  0  0  0
  131.4175  125.1101   59.6252 H   0  0  0  0  0  0  0  0  0  0  0  0
  130.6804  122.3284   60.9847 H   0  0  0  0  0  0  0  0  0  0  0  0
  132.1839  120.3393   60.9455 H   0  0  0  0  0  0  0  0  0  0  0  0
  134.5472  120.5586   61.7015 H   0  0  0  0  0  0  0  0  0  0  0  0
  135.4170  122.7524   62.4995 H   0  0  0  0  0  0  0  0  0  0  0  0
  133.9143  124.7412   62.5391 H   0  0  0  0  0  0  0  0  0  0  0  0
  132.2290  123.4010   64.1070 H   0  0  0  0  0  0  0  0  0  0  0  0
  131.5810  123.5360   65.6960 H   0  0  0  0  0  0  0  0  0  0  0  0
  127.7598  126.1802   69.0572 H   0  0  0  0  0  0  0  0  0  0  0  0
  127.7055  126.7262   71.4819 H   0  0  0  0  0  0  0  0  0  0  0  0
  1  2  1  0
  2  3  1  0
  3  4  1  0
  4  5  2  0
  4  6  1  0
  6  7  2  0
  7  8  1  0
  8  9  2  0
  9 10  1  0
 10 11  1  0
 11 12  2  0
 11 13  1  0
 13 14  1  0
 14 15  1  0
 15 16  2  0
 16 17  1  0
 17 18  1  0
 17 19  2  0
 19 20  1  0
 20 21  1  0
 21 22  2  0
 22 23  1  0
 23 24  2  0
 24 25  1  0
 25 26  2  0
 20 27  2  0
 27 28  1  0
 28 29  1  0
  9 30  1  0
 30 31  2  0
 31  6  1  0
 28 13  2  0
 27 15  1  0
 26 21  1  0
  1 32  1  0
  1 33  1  0
  1 34  1  0
  2 35  1  0
  2 36  1  0
  7 37  1  0
  8 38  1  0
 10 39  1  0
 18 40  1  0
 18 41  1  0
 18 42  1  0
 19 43  1  0
 22 44  1  0
 23 45  1  0
 24 46  1  0
 25 47  1  0
 26 48  1  0
 29 49  1  0
 29 50  1  0
 30 51  1  0
 31 52  1  0
M  END
>  <Binding energies>  (1) 
[-7.68]

>  <Ligand effiencies>  (1) 
[-0.22588235294117645]

>  <Interactions>  (1) 
["V-A:GLU:543:CD:4908, H-A:TYR:484:OH:4348, V-B:TYR:539:CE2:9848, V-A:LEU:475:CD2:4259, V-A:ILE:369:CD1:3239, V-A:GLY:454:CA:4049, V-A:ILE:369:CG2:3237, V-A:TYR:484:CZ:4347, H-A:GLU:543:OE2:4910, V-B:GLU:543:CB:9878, V-B:GLU:543:CG:9879, V-A:SER:385:C:3405, V-A:TYR:484:CE2:4346, V-B:GLU:543:CD:9880, V-B:HIS:456:CD2:9039, V-A:GLY:544:C:4912, V-A:LYS:547:CE:4950, V-A:HIS:456:CE1:4070, H-B:LYS:547:NZ:9923, V-B:HIS:456:CE1:9041, V-B:GLU:543:C:9874, H-A:LYS:547:NZ:4951, H-A:GLU:543:OE1:4909, V-A:GLU:543:CB:4906, V-A:GLU:543:C:4902, V-A:GLY:544:CA:4914, V-A:SER:385:CA:3407, V-A:SER:385:CB:3409"]

$$$$
4eb_Grossjean_2025
     RDKit          3D

 49 52  0  0  0  0  0  0  0  0999 V2000
  129.3320  131.1420   73.3550 C   0  0  0  0  0  0  0  0  0  0  0  0
  129.6500  129.7580   73.3610 O   0  0  0  0  0  0  0  0  0  0  0  0
  128.7630  128.8350   72.9070 C   0  0  0  0  0  0  0  0  0  0  0  0
  127.7130  128.5570   73.4910 O   0  0  0  0  0  0  0  0  0  0  0  0
  129.1890  128.1860   71.6210 C   0  0  0  0  0  0  0  0  0  0  0  0
  130.5090  128.3450   71.1800 C   0  0  0  0  0  0  0  0  0  0  0  0
  130.9340  127.7560   69.9930 C   0  0  0  0  0  0  0  0  0  0  0  0
  130.0510  126.9980   69.2220 C   0  0  0  0  0  0  0  0  0  0  0  0
  130.5910  126.4510   68.0420 N   0  0  0  0  0  0  0  0  0  0  0  0
  130.2820  125.3070   67.3830 C   0  0  0  0  0  0  0  0  0  0  0  0
  129.4150  124.5110   67.7440 O   0  0  0  0  0  0  0  0  0  0  0  0
  131.0630  125.0550   66.1690 C   0  0  0  0  0  0  0  0  0  0  0  0
  132.7630  125.5220   66.0890 S   0  0  0  0  0  0  0  0  0  0  0  0
  132.9030  124.9140   64.4540 C   0  0  0  0  0  0  0  0  0  0  0  0
  134.0480  124.9800   63.7730 N   0  0  0  0  0  0  0  0  0  0  0  0
  134.0240  124.4740   62.5170 C   0  0  0  0  0  0  0  0  0  0  0  0
  135.3370  124.5600   61.7600 C   0  0  0  0  0  0  0  0  0  0  0  0
  132.8940  123.9090   61.9300 C   0  0  0  0  0  0  0  0  0  0  0  0
  131.6940  123.8420   62.6490 C   0  0  0  0  0  0  0  0  0  0  0  0
  130.5010  123.2390   62.0120 C   0  0  0  0  0  0  0  0  0  0  0  0
  129.5150  124.0570   61.4510 C   0  0  0  0  0  0  0  0  0  0  0  0
  128.3930  123.4900   60.8500 C   0  0  0  0  0  0  0  0  0  0  0  0
  128.2570  122.1040   60.8130 C   0  0  0  0  0  0  0  0  0  0  0  0
  129.2330  121.2810   61.3720 C   0  0  0  0  0  0  0  0  0  0  0  0
  130.3530  121.8490   61.9720 C   0  0  0  0  0  0  0  0  0  0  0  0
  131.6780  124.3630   63.9710 C   0  0  0  0  0  0  0  0  0  0  0  0
  130.6460  124.4560   64.9700 C   0  0  0  0  0  0  0  0  0  0  0  0
  129.3720  123.9950   64.7510 N   0  0  0  0  0  0  0  0  0  0  0  0
  128.7270  126.8340   69.6560 C   0  0  0  0  0  0  0  0  0  0  0  0
  128.3040  127.4230   70.8440 C   0  0  0  0  0  0  0  0  0  0  0  0
  129.2489  131.5036   74.3905 H   0  0  0  0  0  0  0  0  0  0  0  0
  130.1257  131.6983   72.8349 H   0  0  0  0  0  0  0  0  0  0  0  0
  128.3750  131.2961   72.8349 H   0  0  0  0  0  0  0  0  0  0  0  0
  131.2155  128.9404   71.7769 H   0  0  0  0  0  0  0  0  0  0  0  0
  131.9738  127.8887   69.6597 H   0  0  0  0  0  0  0  0  0  0  0  0
  131.3240  127.0080   67.6300 H   0  0  0  0  0  0  0  0  0  0  0  0
  136.1702  124.6146   62.4761 H   0  0  0  0  0  0  0  0  0  0  0  0
  135.4548  123.6676   61.1277 H   0  0  0  0  0  0  0  0  0  0  0  0
  135.3374  125.4601   61.1277 H   0  0  0  0  0  0  0  0  0  0  0  0
  132.9442  123.5162   60.9037 H   0  0  0  0  0  0  0  0  0  0  0  0
  129.6255  125.1509   61.4843 H   0  0  0  0  0  0  0  0  0  0  0  0
  127.6186  124.1335   60.4070 H   0  0  0  0  0  0  0  0  0  0  0  0
  127.3718  121.6554   60.3385 H   0  0  0  0  0  0  0  0  0  0  0  0
  129.1186  120.1875   61.3391 H   0  0  0  0  0  0  0  0  0  0  0  0
  131.1242  121.2025   62.4162 H   0  0  0  0  0  0  0  0  0  0  0  0
  128.8120  123.6100   65.4980 H   0  0  0  0  0  0  0  0  0  0  0  0
  128.9500  124.0260   63.8330 H   0  0  0  0  0  0  0  0  0  0  0  0
  128.0222  126.2391   69.0565 H   0  0  0  0  0  0  0  0  0  0  0  0
  127.2644  127.2889   71.1775 H   0  0  0  0  0  0  0  0  0  0  0  0
  1  2  1  0
  2  3  1  0
  3  4  2  0
  3  5  1  0
  5  6  2  0
  6  7  1  0
  7  8  2  0
  8  9  1  0
  9 10  1  0
 10 11  2  0
 10 12  1  0
 12 13  1  0
 13 14  1  0
 14 15  2  0
 15 16  1  0
 16 17  1  0
 16 18  2  0
 18 19  1  0
 19 20  1  0
 20 21  2  0
 21 22  1  0
 22 23  2  0
 23 24  1  0
 24 25  2  0
 19 26  2  0
 26 27  1  0
 27 28  1  0
  8 29  1  0
 29 30  2  0
 30  5  1  0
 27 12  2  0
 26 14  1  0
 25 20  1  0
  1 31  1  0
  1 32  1  0
  1 33  1  0
  6 34  1  0
  7 35  1  0
  9 36  1  0
 17 37  1  0
 17 38  1  0
 17 39  1  0
 18 40  1  0
 21 41  1  0
 22 42  1  0
 23 43  1  0
 24 44  1  0
 25 45  1  0
 28 46  1  0
 28 47  1  0
 29 48  1  0
 30 49  1  0
M  END
>  <Binding energies>  (1) 
[-7.79]

>  <Ligand effiencies>  (1) 
[-0.23606060606060605]

>  <Interactions>  (1) 
["V-B:PRO:540:N:9856, V-A:ARG:545:CD:4923, H-A:GLY:454:N:4050, H-A:ARG:545:NE:4924, V-A:ARG:545:CZ:4926, V-A:LEU:475:CD2:4259, V-B:PRO:540:CA:9855, V-A:ILE:369:CD1:3239, V-A:GLY:453:C:4042, V-A:ASP:366:CG:3213, V-A:TYR:484:CZ:4347, H-A:GLU:543:OE2:4910, V-B:GLU:543:CB:9878, V-B:GLU:543:CG:9879, V-A:TYR:484:CE2:4346, V-B:GLU:543:CD:9880, H-B:GLU:543:OE1:9881, V-B:ALA:541:CB:9864, V-A:ASP:366:CA:3210, V-B:HIS:456:CD2:9039, V-A:GLY:544:C:4912, V-A:LYS:547:CE:4950, V-A:HIS:456:CE1:4070, V-B:HIS:456:CE1:9041, V-B:GLU:543:C:9874, H-A:LYS:547:NZ:4951, H-A:ARG:545:NH2:4928, V-A:GLU:543:CB:4906, V-A:GLU:543:C:4902, V-A:GLY:453:CA:4044, V-B:PRO:540:C:9853, V-B:TYR:539:C:9839, V-A:ARG:545:CG:4922, H-A:ARG:545:NH1:4927"]

$$$$
8a_Ghoteimi_2023
     RDKit          3D

 67 71  0  0  0  0  0  0  0  0999 V2000
  124.7940  128.0810   75.4860 C   0  0  0  0  0  0  0  0  0  0  0  0
  125.9590  128.6090   76.3270 C   0  0  0  0  0  0  0  0  0  0  0  0
  127.1140  127.8160   76.0850 O   0  0  0  0  0  0  0  0  0  0  0  0
  128.2750  128.3790   75.6600 C   0  0  0  0  0  0  0  0  0  0  0  0
  129.0200  129.0370   76.3930 O   0  0  0  0  0  0  0  0  0  0  0  0
  128.5600  128.1280   74.2070 C   0  0  0  0  0  0  0  0  0  0  0  0
  127.4900  127.9360   73.3250 C   0  0  0  0  0  0  0  0  0  0  0  0
  127.7210  127.6990   71.9720 C   0  0  0  0  0  0  0  0  0  0  0  0
  129.0240  127.6480   71.4740 C   0  0  0  0  0  0  0  0  0  0  0  0
  129.1360  127.3980   70.0920 N   0  0  0  0  0  0  0  0  0  0  0  0
  128.2190  126.9330   69.2080 C   0  0  0  0  0  0  0  0  0  0  0  0
  127.0620  126.6330   69.5020 O   0  0  0  0  0  0  0  0  0  0  0  0
  128.6930  126.8050   67.8260 C   0  0  0  0  0  0  0  0  0  0  0  0
  129.9590  125.6470   67.4220 S   0  0  0  0  0  0  0  0  0  0  0  0
  129.9230  126.1230   65.7400 C   0  0  0  0  0  0  0  0  0  0  0  0
  130.7400  125.5770   64.8400 N   0  0  0  0  0  0  0  0  0  0  0  0
  130.6330  126.0220   63.5600 C   0  0  0  0  0  0  0  0  0  0  0  0
  131.5740  125.4110   62.5710 C   0  0  0  0  0  0  0  0  0  0  0  0
  131.4660  125.6900   61.2010 C   0  0  0  0  0  0  0  0  0  0  0  0
  132.3370  125.1090   60.2850 C   0  0  0  0  0  0  0  0  0  0  0  0
  133.3380  124.2390   60.7120 C   0  0  0  0  0  0  0  0  0  0  0  0
  134.1540  123.7070   59.7310 O   0  0  0  0  0  0  0  0  0  0  0  0
  133.8840  124.0080   58.3660 C   0  0  0  0  0  0  0  0  0  0  0  0
  133.4590  123.9580   62.0800 C   0  0  0  0  0  0  0  0  0  0  0  0
  132.5840  124.5380   62.9950 C   0  0  0  0  0  0  0  0  0  0  0  0
  129.7100  127.0000   63.1850 C   0  0  0  0  0  0  0  0  0  0  0  0
  128.8390  127.5640   64.1230 C   0  0  0  0  0  0  0  0  0  0  0  0
  127.8550  128.5770   63.6640 C   0  0  0  0  0  0  0  0  0  0  0  0
  126.7720  128.1960   62.8690 C   0  0  0  0  0  0  0  0  0  0  0  0
  125.8360  129.1390   62.4540 C   0  0  0  0  0  0  0  0  0  0  0  0
  125.9620  130.4760   62.8300 C   0  0  0  0  0  0  0  0  0  0  0  0
  124.9860  131.3410   62.3720 O   0  0  0  0  0  0  0  0  0  0  0  0
  123.7610  130.8080   61.8820 C   0  0  0  0  0  0  0  0  0  0  0  0
  127.0450  130.8600   63.6370 C   0  0  0  0  0  0  0  0  0  0  0  0
  127.9790  129.9140   64.0520 C   0  0  0  0  0  0  0  0  0  0  0  0
  128.9480  127.1290   65.4740 C   0  0  0  0  0  0  0  0  0  0  0  0
  128.2720  127.5130   66.6890 C   0  0  0  0  0  0  0  0  0  0  0  0
  127.3170  128.4980   66.7210 N   0  0  0  0  0  0  0  0  0  0  0  0
  130.1020  127.8440   72.3500 C   0  0  0  0  0  0  0  0  0  0  0  0
  129.8690  128.0810   73.7030 C   0  0  0  0  0  0  0  0  0  0  0  0
  123.9960  127.7193   76.1511 H   0  0  0  0  0  0  0  0  0  0  0  0
  124.4037  128.8902   74.8513 H   0  0  0  0  0  0  0  0  0  0  0  0
  125.1452  127.2541   74.8513 H   0  0  0  0  0  0  0  0  0  0  0  0
  126.1667  129.6535   76.0514 H   0  0  0  0  0  0  0  0  0  0  0  0
  125.6950  128.5575   77.3936 H   0  0  0  0  0  0  0  0  0  0  0  0
  126.4579  127.9726   73.7037 H   0  0  0  0  0  0  0  0  0  0  0  0
  126.8701  127.5509   71.2908 H   0  0  0  0  0  0  0  0  0  0  0  0
  130.0440  127.6120   69.7090 H   0  0  0  0  0  0  0  0  0  0  0  0
  130.6831  126.3765   60.8464 H   0  0  0  0  0  0  0  0  0  0  0  0
  132.2345  125.3385   59.2141 H   0  0  0  0  0  0  0  0  0  0  0  0
  133.1505  124.8257   58.3090 H   0  0  0  0  0  0  0  0  0  0  0  0
  134.8150  124.3151   57.8672 H   0  0  0  0  0  0  0  0  0  0  0  0
  133.4779  123.1157   57.8672 H   0  0  0  0  0  0  0  0  0  0  0  0
  134.2479  123.2770   62.4319 H   0  0  0  0  0  0  0  0  0  0  0  0
  132.6874  124.3074   64.0656 H   0  0  0  0  0  0  0  0  0  0  0  0
  129.6671  127.3317   62.1371 H   0  0  0  0  0  0  0  0  0  0  0  0
  126.6578  127.1439   62.5688 H   0  0  0  0  0  0  0  0  0  0  0  0
  124.9898  128.8270   61.8242 H   0  0  0  0  0  0  0  0  0  0  0  0
  123.1179  130.5282   62.7294 H   0  0  0  0  0  0  0  0  0  0  0  0
  123.2507  131.5655   61.2689 H   0  0  0  0  0  0  0  0  0  0  0  0
  123.9674  129.9183   61.2689 H   0  0  0  0  0  0  0  0  0  0  0  0
  127.1560  131.9109   63.9423 H   0  0  0  0  0  0  0  0  0  0  0  0
  128.8207  130.2214   64.6900 H   0  0  0  0  0  0  0  0  0  0  0  0
  127.5520  129.4510   66.9600 H   0  0  0  0  0  0  0  0  0  0  0  0
  126.3500  128.3070   66.5040 H   0  0  0  0  0  0  0  0  0  0  0  0
  131.1330  127.8105   71.9680 H   0  0  0  0  0  0  0  0  0  0  0  0
  130.7199  128.2329   74.3833 H   0  0  0  0  0  0  0  0  0  0  0  0
  1  2  1  0
  2  3  1  0
  3  4  1  0
  4  5  2  0
  4  6  1  0
  6  7  2  0
  7  8  1  0
  8  9  2  0
  9 10  1  0
 10 11  1  0
 11 12  2  0
 11 13  1  0
 13 14  1  0
 14 15  1  0
 15 16  2  0
 16 17  1  0
 17 18  1  0
 18 19  2  0
 19 20  1  0
 20 21  2  0
 21 22  1  0
 22 23  1  0
 21 24  1  0
 24 25  2  0
 17 26  2  0
 26 27  1  0
 27 28  1  0
 28 29  2  0
 29 30  1  0
 30 31  2  0
 31 32  1  0
 32 33  1  0
 31 34  1  0
 34 35  2  0
 27 36  2  0
 36 37  1  0
 37 38  1  0
  9 39  1  0
 39 40  2  0
 40  6  1  0
 37 13  2  0
 36 15  1  0
 25 18  1  0
 35 28  1  0
  1 41  1  0
  1 42  1  0
  1 43  1  0
  2 44  1  0
  2 45  1  0
  7 46  1  0
  8 47  1  0
 10 48  1  0
 19 49  1  0
 20 50  1  0
 23 51  1  0
 23 52  1  0
 23 53  1  0
 24 54  1  0
 25 55  1  0
 26 56  1  0
 29 57  1  0
 30 58  1  0
 33 59  1  0
 33 60  1  0
 33 61  1  0
 34 62  1  0
 35 63  1  0
 38 64  1  0
 38 65  1  0
 39 66  1  0
 40 67  1  0
M  END
>  <Binding energies>  (1) 
[-8.01]

>  <Ligand effiencies>  (1) 
[-0.18627906976744185]

>  <Interactions>  (1) 
["V-A:GLU:543:CD:4908, V-B:ASP:366:CG:8184, V-B:TYR:539:CE2:9848, V-B:TYR:539:CZ:9849, V-A:ASP:366:CB:3212, V-A:ASP:366:CG:3213, V-A:ILE:369:CG2:3237, V-A:ILE:369:CB:3236, V-B:GLU:543:CB:9878, V-B:GLU:543:CG:9879, V-B:GLU:543:CD:9880, V-A:ASP:366:CA:3210, V-B:HIS:456:CD2:9039, V-B:HIS:456:CB:9036, V-B:HIS:456:CG:9037, V-A:HIS:456:CE1:4070, H-B:LYS:547:NZ:9923, V-B:LYS:547:CE:9922, V-B:HIS:456:CE1:9041, V-B:GLU:543:C:9874, H-A:LYS:547:NZ:4951, H-B:TYR:484:OH:9319, V-A:GLU:543:CG:4907, H-A:HIS:456:NE2:4071, V-A:ASP:366:C:3208, V-B:LYS:547:CD:9921, H-B:GLU:543:OE2:9882"]

$$$$
8b_Ghoteimi_2023
     RDKit          3D

 54 58  0  0  0  0  0  0  0  0999 V2000
  130.9770  126.9110   73.9250 C   0  0  0  0  0  0  0  0  0  0  0  0
  130.1980  127.9360   73.3170 O   0  0  0  0  0  0  0  0  0  0  0  0
  129.8720  127.8300   71.9780 C   0  0  0  0  0  0  0  0  0  0  0  0
  130.8800  128.1350   71.0650 C   0  0  0  0  0  0  0  0  0  0  0  0
  130.6430  128.0570   69.6970 C   0  0  0  0  0  0  0  0  0  0  0  0
  129.3880  127.6710   69.2040 C   0  0  0  0  0  0  0  0  0  0  0  0
  129.1270  127.5870   67.7330 C   0  0  0  0  0  0  0  0  0  0  0  0
  128.4790  128.6150   67.0400 C   0  0  0  0  0  0  0  0  0  0  0  0
  128.2480  128.5120   65.6650 C   0  0  0  0  0  0  0  0  0  0  0  0
  127.5510  129.6140   64.9630 C   0  0  0  0  0  0  0  0  0  0  0  0
  128.2540  130.7550   64.5720 C   0  0  0  0  0  0  0  0  0  0  0  0
  127.5990  131.7850   63.9030 C   0  0  0  0  0  0  0  0  0  0  0  0
  126.2360  131.6940   63.6180 C   0  0  0  0  0  0  0  0  0  0  0  0
  125.6710  132.7630   62.9500 O   0  0  0  0  0  0  0  0  0  0  0  0
  124.2530  132.8810   62.9010 C   0  0  0  0  0  0  0  0  0  0  0  0
  125.5310  130.5470   64.0160 C   0  0  0  0  0  0  0  0  0  0  0  0
  126.1870  129.5170   64.6840 C   0  0  0  0  0  0  0  0  0  0  0  0
  128.6960  127.3410   64.9970 C   0  0  0  0  0  0  0  0  0  0  0  0
  128.6320  126.9150   63.6230 C   0  0  0  0  0  0  0  0  0  0  0  0
  128.0560  127.6830   62.6430 N   0  0  0  0  0  0  0  0  0  0  0  0
  129.2110  125.6580   63.3900 C   0  0  0  0  0  0  0  0  0  0  0  0
  129.3260  124.9280   62.1260 C   0  0  0  0  0  0  0  0  0  0  0  0
  130.4200  124.8010   61.5690 O   0  0  0  0  0  0  0  0  0  0  0  0
  128.1650  124.4240   61.6370 N   0  0  0  0  0  0  0  0  0  0  0  0
  127.9850  123.6940   60.4700 C   0  0  0  0  0  0  0  0  0  0  0  0
  127.1940  124.1340   59.4110 C   0  0  0  0  0  0  0  0  0  0  0  0
  127.2730  123.1360   58.4660 C   0  0  0  0  0  0  0  0  0  0  0  0
  128.0740  122.1490   58.9300 O   0  0  0  0  0  0  0  0  0  0  0  0
  128.5210  122.5130   60.2020 N   0  0  0  0  0  0  0  0  0  0  0  0
  129.8560  124.9670   64.8800 S   0  0  0  0  0  0  0  0  0  0  0  0
  129.3470  126.3630   65.8030 C   0  0  0  0  0  0  0  0  0  0  0  0
  129.5660  126.4580   67.1140 N   0  0  0  0  0  0  0  0  0  0  0  0
  128.3800  127.3620   70.1260 C   0  0  0  0  0  0  0  0  0  0  0  0
  128.6130  127.4400   71.4970 C   0  0  0  0  0  0  0  0  0  0  0  0
  130.9096  126.9996   75.0194 H   0  0  0  0  0  0  0  0  0  0  0  0
  130.5965  125.9273   73.6127 H   0  0  0  0  0  0  0  0  0  0  0  0
  132.0267  127.0142   73.6127 H   0  0  0  0  0  0  0  0  0  0  0  0
  131.8719  128.4401   71.4299 H   0  0  0  0  0  0  0  0  0  0  0  0
  131.4510  128.3014   68.9917 H   0  0  0  0  0  0  0  0  0  0  0  0
  128.1480  129.5131   67.5822 H   0  0  0  0  0  0  0  0  0  0  0  0
  129.3282  130.8403   64.7931 H   0  0  0  0  0  0  0  0  0  0  0  0
  128.1612  132.6793   63.5960 H   0  0  0  0  0  0  0  0  0  0  0  0
  123.8522  132.9143   63.9249 H   0  0  0  0  0  0  0  0  0  0  0  0
  123.9801  133.8050   62.3701 H   0  0  0  0  0  0  0  0  0  0  0  0
  123.8311  132.0149   62.3701 H   0  0  0  0  0  0  0  0  0  0  0  0
  124.4560  130.4620   63.7991 H   0  0  0  0  0  0  0  0  0  0  0  0
  125.6275  128.6220   64.9936 H   0  0  0  0  0  0  0  0  0  0  0  0
  127.0990  127.5350   62.3540 H   0  0  0  0  0  0  0  0  0  0  0  0
  128.5670  128.4190   62.1760 H   0  0  0  0  0  0  0  0  0  0  0  0
  127.3300  124.5910   62.1780 H   0  0  0  0  0  0  0  0  0  0  0  0
  126.6286  125.0752   59.3443 H   0  0  0  0  0  0  0  0  0  0  0  0
  126.7660  123.1402   57.4898 H   0  0  0  0  0  0  0  0  0  0  0  0
  127.3891  127.0530   69.7618 H   0  0  0  0  0  0  0  0  0  0  0  0
  127.8074  127.1951   72.2049 H   0  0  0  0  0  0  0  0  0  0  0  0
  1  2  1  0
  2  3  1  0
  3  4  2  0
  4  5  1  0
  5  6  2  0
  6  7  1  0
  7  8  2  0
  8  9  1  0
  9 10  1  0
 10 11  2  0
 11 12  1  0
 12 13  2  0
 13 14  1  0
 14 15  1  0
 13 16  1  0
 16 17  2  0
  9 18  2  0
 18 19  1  0
 19 20  1  0
 19 21  2  0
 21 22  1  0
 22 23  2  0
 22 24  1  0
 24 25  1  0
 25 26  1  0
 26 27  2  0
 27 28  1  0
 28 29  1  0
 21 30  1  0
 30 31  1  0
 31 32  2  0
  6 33  1  0
 33 34  2  0
 34  3  1  0
 32  7  1  0
 17 10  1  0
 31 18  1  0
 29 25  2  0
  1 35  1  0
  1 36  1  0
  1 37  1  0
  4 38  1  0
  5 39  1  0
  8 40  1  0
 11 41  1  0
 12 42  1  0
 15 43  1  0
 15 44  1  0
 15 45  1  0
 16 46  1  0
 17 47  1  0
 20 48  1  0
 20 49  1  0
 24 50  1  0
 26 51  1  0
 27 52  1  0
 33 53  1  0
 34 54  1  0
M  END
>  <Binding energies>  (1) 
[-7.45]

>  <Ligand effiencies>  (1) 
[-0.20135135135135135]

>  <Interactions>  (1) 
["V-B:PRO:540:N:9856, V-A:GLU:543:CD:4908, V-B:PRO:540:CB:9857, V-B:PRO:540:CA:9855, V-B:GLY:454:CA:9020, V-B:LEU:475:CD2:9230, V-B:GLU:543:CB:9878, V-B:GLU:543:CG:9879, V-B:GLU:543:CD:9880, H-B:GLU:543:OE1:9881, V-B:HIS:456:CD2:9039, V-A:GLY:544:C:4912, V-A:HIS:456:CD2:4068, V-A:HIS:456:CE1:4070, V-B:HIS:456:CE1:9041, H-A:LYS:547:NZ:4951, H-A:GLU:543:OE1:4909, V-A:GLU:543:CB:4906, V-A:GLU:543:C:4902, V-A:GLU:543:CG:4907, V-A:GLY:544:CA:4914, H-B:GLU:543:OE2:9882"]

$$$$
8c_Ghoteimi_2023
     RDKit          3D

 54 58  0  0  0  0  0  0  0  0999 V2000
  126.9160  128.5100   74.6560 C   0  0  0  0  0  0  0  0  0  0  0  0
  127.9730  127.7060   74.1450 O   0  0  0  0  0  0  0  0  0  0  0  0
  128.1940  127.6710   72.7810 C   0  0  0  0  0  0  0  0  0  0  0  0
  127.2150  127.0540   72.0060 C   0  0  0  0  0  0  0  0  0  0  0  0
  127.3550  126.9700   70.6240 C   0  0  0  0  0  0  0  0  0  0  0  0
  128.4810  127.5030   69.9800 C   0  0  0  0  0  0  0  0  0  0  0  0
  128.6390  127.4130   68.4950 C   0  0  0  0  0  0  0  0  0  0  0  0
  128.0510  128.3430   67.6330 C   0  0  0  0  0  0  0  0  0  0  0  0
  128.2170  128.2380   66.2480 C   0  0  0  0  0  0  0  0  0  0  0  0
  127.5740  129.2350   65.3630 C   0  0  0  0  0  0  0  0  0  0  0  0
  128.3520  130.1680   64.6720 C   0  0  0  0  0  0  0  0  0  0  0  0
  127.7470  131.0980   63.8330 C   0  0  0  0  0  0  0  0  0  0  0  0
  126.3610  131.1140   63.6730 C   0  0  0  0  0  0  0  0  0  0  0  0
  125.8480  132.0700   62.8180 O   0  0  0  0  0  0  0  0  0  0  0  0
  124.7000  132.8110   63.2130 C   0  0  0  0  0  0  0  0  0  0  0  0
  125.5800  130.1780   64.3710 C   0  0  0  0  0  0  0  0  0  0  0  0
  126.1870  129.2470   65.2100 C   0  0  0  0  0  0  0  0  0  0  0  0
  129.0020  127.1640   65.7500 C   0  0  0  0  0  0  0  0  0  0  0  0
  129.3740  126.7640   64.4180 C   0  0  0  0  0  0  0  0  0  0  0  0
  128.9700  127.4540   63.3030 N   0  0  0  0  0  0  0  0  0  0  0  0
  130.1800  125.6150   64.3740 C   0  0  0  0  0  0  0  0  0  0  0  0
  130.7390  124.9380   63.2020 C   0  0  0  0  0  0  0  0  0  0  0  0
  130.4560  123.7630   62.9580 O   0  0  0  0  0  0  0  0  0  0  0  0
  131.5690  125.6900   62.4370 N   0  0  0  0  0  0  0  0  0  0  0  0
  132.2250  125.2950   61.2800 C   0  0  0  0  0  0  0  0  0  0  0  0
  131.8760  125.5300   60.0330 N   0  0  0  0  0  0  0  0  0  0  0  0
  132.7350  125.0060   59.1830 C   0  0  0  0  0  0  0  0  0  0  0  0
  133.8140  124.3240   59.7370 C   0  0  0  0  0  0  0  0  0  0  0  0
  133.6840  124.3780   61.4700 S   0  0  0  0  0  0  0  0  0  0  0  0
  130.5020  125.0000   65.9960 S   0  0  0  0  0  0  0  0  0  0  0  0
  129.5570  126.2800   66.7200 C   0  0  0  0  0  0  0  0  0  0  0  0
  129.3970  126.3790   68.0400 N   0  0  0  0  0  0  0  0  0  0  0  0
  129.4610  128.1250   70.7660 C   0  0  0  0  0  0  0  0  0  0  0  0
  129.3240  128.2090   72.1490 C   0  0  0  0  0  0  0  0  0  0  0  0
  126.9401  128.4917   75.7556 H   0  0  0  0  0  0  0  0  0  0  0  0
  127.0392  129.5448   74.3037 H   0  0  0  0  0  0  0  0  0  0  0  0
  125.9517  128.1151   74.3037 H   0  0  0  0  0  0  0  0  0  0  0  0
  126.3234  126.6294   72.4905 H   0  0  0  0  0  0  0  0  0  0  0  0
  126.5715  126.4787   70.0284 H   0  0  0  0  0  0  0  0  0  0  0  0
  127.4512  129.1663   68.0482 H   0  0  0  0  0  0  0  0  0  0  0  0
  129.4454  130.1669   64.7919 H   0  0  0  0  0  0  0  0  0  0  0  0
  128.3668  131.8273   63.2908 H   0  0  0  0  0  0  0  0  0  0  0  0
  124.6460  132.8458   64.3111 H   0  0  0  0  0  0  0  0  0  0  0  0
  124.7701  133.8347   62.8167 H   0  0  0  0  0  0  0  0  0  0  0  0
  123.7960  132.3255   62.8167 H   0  0  0  0  0  0  0  0  0  0  0  0
  124.4862  130.1805   64.2545 H   0  0  0  0  0  0  0  0  0  0  0  0
  125.5700  128.5173   65.7549 H   0  0  0  0  0  0  0  0  0  0  0  0
  128.0830  127.2630   62.8580 H   0  0  0  0  0  0  0  0  0  0  0  0
  129.5440  128.1730   62.8870 H   0  0  0  0  0  0  0  0  0  0  0  0
  131.7310  126.6430   62.7300 H   0  0  0  0  0  0  0  0  0  0  0  0
  132.6064  125.1023   58.0948 H   0  0  0  0  0  0  0  0  0  0  0  0
  134.6181  123.8311   59.1709 H   0  0  0  0  0  0  0  0  0  0  0  0
  130.3516  128.5532   70.2829 H   0  0  0  0  0  0  0  0  0  0  0  0
  130.1054  128.6994   72.7482 H   0  0  0  0  0  0  0  0  0  0  0  0
  1  2  1  0
  2  3  1  0
  3  4  2  0
  4  5  1  0
  5  6  2  0
  6  7  1  0
  7  8  2  0
  8  9  1  0
  9 10  1  0
 10 11  2  0
 11 12  1  0
 12 13  2  0
 13 14  1  0
 14 15  1  0
 13 16  1  0
 16 17  2  0
  9 18  2  0
 18 19  1  0
 19 20  1  0
 19 21  2  0
 21 22  1  0
 22 23  2  0
 22 24  1  0
 24 25  1  0
 25 26  2  0
 26 27  1  0
 27 28  2  0
 28 29  1  0
 21 30  1  0
 30 31  1  0
 31 32  2  0
  6 33  1  0
 33 34  2  0
 34  3  1  0
 32  7  1  0
 17 10  1  0
 31 18  1  0
 29 25  1  0
  1 35  1  0
  1 36  1  0
  1 37  1  0
  4 38  1  0
  5 39  1  0
  8 40  1  0
 11 41  1  0
 12 42  1  0
 15 43  1  0
 15 44  1  0
 15 45  1  0
 16 46  1  0
 17 47  1  0
 20 48  1  0
 20 49  1  0
 24 50  1  0
 27 51  1  0
 28 52  1  0
 33 53  1  0
 34 54  1  0
M  END
>  <Binding energies>  (1) 
[-7.42]

>  <Ligand effiencies>  (1) 
[-0.20054054054054055]

>  <Interactions>  (1) 
["V-A:GLU:543:CD:4908, V-B:TYR:539:CE2:9848, V-A:ASP:366:CB:3212, V-B:GLY:454:CA:9020, V-B:LEU:475:CD2:9230, V-A:ILE:369:CD1:3239, V-A:ASP:366:CG:3213, V-A:ILE:369:CG2:3237, V-A:ILE:369:CB:3236, H-A:GLU:543:OE2:4910, V-B:GLU:543:CB:9878, V-B:GLU:543:CG:9879, V-A:TYR:484:CE2:4346, V-B:GLU:543:CD:9880, H-B:GLU:543:OE1:9881, V-A:ASP:366:CA:3210, V-B:HIS:456:CD2:9039, V-B:HIS:456:CB:9036, V-B:GLY:544:C:9884, V-B:HIS:456:CG:9037, V-B:GLY:544:CA:9886, H-B:LYS:547:NZ:9923, V-B:LYS:547:CE:9922, V-B:HIS:456:CE1:9041, V-B:GLU:543:C:9874, H-A:GLU:543:OE1:4909, V-A:GLU:543:CB:4906, V-A:GLU:543:CG:4907, H-B:GLU:543:OE2:9882"]

$$$$
8d_Ghoteimi_2023
     RDKit          3D

 50 53  0  0  0  0  0  0  0  0999 V2000
  129.3070  122.5590   64.7330 C   0  0  0  0  0  0  0  0  0  0  0  0
  130.7250  122.5920   64.8220 O   0  0  0  0  0  0  0  0  0  0  0  0
  131.4030  123.7610   64.6820 C   0  0  0  0  0  0  0  0  0  0  0  0
  132.6020  123.8330   64.4010 O   0  0  0  0  0  0  0  0  0  0  0  0
  130.5530  124.9510   64.9020 C   0  0  0  0  0  0  0  0  0  0  0  0
  129.9250  125.8520   63.5200 S   0  0  0  0  0  0  0  0  0  0  0  0
  129.1120  126.9820   64.5780 C   0  0  0  0  0  0  0  0  0  0  0  0
  128.3940  127.9990   64.1010 N   0  0  0  0  0  0  0  0  0  0  0  0
  127.8010  128.8180   65.0110 C   0  0  0  0  0  0  0  0  0  0  0  0
  127.0050  129.9540   64.4500 C   0  0  0  0  0  0  0  0  0  0  0  0
  125.6080  129.8800   64.3490 C   0  0  0  0  0  0  0  0  0  0  0  0
  124.8730  130.9390   63.8250 C   0  0  0  0  0  0  0  0  0  0  0  0
  125.5120  132.0990   63.3890 C   0  0  0  0  0  0  0  0  0  0  0  0
  124.7030  133.0980   62.8840 O   0  0  0  0  0  0  0  0  0  0  0  0
  123.3680  132.7840   62.5000 C   0  0  0  0  0  0  0  0  0  0  0  0
  126.9080  132.1840   63.4870 C   0  0  0  0  0  0  0  0  0  0  0  0
  127.6400  131.1220   64.0110 C   0  0  0  0  0  0  0  0  0  0  0  0
  127.9330  128.6230   66.3890 C   0  0  0  0  0  0  0  0  0  0  0  0
  128.6840  127.5540   66.8880 C   0  0  0  0  0  0  0  0  0  0  0  0
  128.7980  127.3690   68.3540 C   0  0  0  0  0  0  0  0  0  0  0  0
  127.6870  126.9710   69.1000 C   0  0  0  0  0  0  0  0  0  0  0  0
  127.7920  126.8060   70.4780 C   0  0  0  0  0  0  0  0  0  0  0  0
  129.0060  127.0290   71.1290 C   0  0  0  0  0  0  0  0  0  0  0  0
  129.0160  126.8410   72.4970 O   0  0  0  0  0  0  0  0  0  0  0  0
  130.2390  126.9880   73.2090 C   0  0  0  0  0  0  0  0  0  0  0  0
  130.1240  127.4250   70.3750 C   0  0  0  0  0  0  0  0  0  0  0  0
  130.0160  127.5910   68.9970 C   0  0  0  0  0  0  0  0  0  0  0  0
  129.3090  126.6850   65.9560 C   0  0  0  0  0  0  0  0  0  0  0  0
  130.1360  125.5200   66.1110 C   0  0  0  0  0  0  0  0  0  0  0  0
  130.4870  125.0200   67.3400 N   0  0  0  0  0  0  0  0  0  0  0  0
  128.8762  122.5490   65.7451 H   0  0  0  0  0  0  0  0  0  0  0  0
  128.9527  123.4491   64.1925 H   0  0  0  0  0  0  0  0  0  0  0  0
  128.9945  121.6533   64.1925 H   0  0  0  0  0  0  0  0  0  0  0  0
  125.0866  128.9729   64.6885 H   0  0  0  0  0  0  0  0  0  0  0  0
  123.7781  130.8603   63.7541 H   0  0  0  0  0  0  0  0  0  0  0  0
  122.7521  132.6391   63.3998 H   0  0  0  0  0  0  0  0  0  0  0  0
  122.9548  133.6095   61.9018 H   0  0  0  0  0  0  0  0  0  0  0  0
  123.3660  131.8609   61.9018 H   0  0  0  0  0  0  0  0  0  0  0  0
  127.4268  133.0931   63.1487 H   0  0  0  0  0  0  0  0  0  0  0  0
  128.7348  131.2019   64.0812 H   0  0  0  0  0  0  0  0  0  0  0  0
  127.4417  129.3167   67.0871 H   0  0  0  0  0  0  0  0  0  0  0  0
  126.7260  126.7873   68.5973 H   0  0  0  0  0  0  0  0  0  0  0  0
  126.9104  126.4972   71.0589 H   0  0  0  0  0  0  0  0  0  0  0  0
  130.0389  126.9639   74.2904 H   0  0  0  0  0  0  0  0  0  0  0  0
  130.9190  126.1651   72.9435 H   0  0  0  0  0  0  0  0  0  0  0  0
  130.7046  127.9486   72.9435 H   0  0  0  0  0  0  0  0  0  0  0  0
  131.0872  127.6043   70.8751 H   0  0  0  0  0  0  0  0  0  0  0  0
  130.8954  127.8987   68.4123 H   0  0  0  0  0  0  0  0  0  0  0  0
  129.9840  125.2790   68.1780 H   0  0  0  0  0  0  0  0  0  0  0  0
  131.2540  124.3730   67.4500 H   0  0  0  0  0  0  0  0  0  0  0  0
  1  2  1  0
  2  3  1  0
  3  4  2  0
  3  5  1  0
  5  6  1  0
  6  7  1  0
  7  8  2  0
  8  9  1  0
  9 10  1  0
 10 11  2  0
 11 12  1  0
 12 13  2  0
 13 14  1  0
 14 15  1  0
 13 16  1  0
 16 17  2  0
  9 18  2  0
 18 19  1  0
 19 20  1  0
 20 21  2  0
 21 22  1  0
 22 23  2  0
 23 24  1  0
 24 25  1  0
 23 26  1  0
 26 27  2  0
 19 28  2  0
 28 29  1  0
 29 30  1  0
 29  5  2  0
 28  7  1  0
 17 10  1  0
 27 20  1  0
  1 31  1  0
  1 32  1  0
  1 33  1  0
 11 34  1  0
 12 35  1  0
 15 36  1  0
 15 37  1  0
 15 38  1  0
 16 39  1  0
 17 40  1  0
 18 41  1  0
 21 42  1  0
 22 43  1  0
 25 44  1  0
 25 45  1  0
 25 46  1  0
 26 47  1  0
 27 48  1  0
 30 49  1  0
 30 50  1  0
M  END
>  <Binding energies>  (1) 
[-6.62]

>  <Ligand effiencies>  (1) 
[-0.206875]

>  <Interactions>  (1) 
["V-A:GLU:543:CD:4908, H-A:GLY:454:N:4050, H-A:TYR:484:OH:4348, V-B:GLY:454:CA:9020, V-B:LEU:475:CD2:9230, V-B:ILE:369:CG1:8209, V-A:TYR:484:CZ:4347, V-B:GLU:543:CB:9878, V-B:GLU:543:CG:9879, V-A:TYR:484:CE2:4346, V-B:GLU:543:CD:9880, V-B:ALA:541:CB:9864, V-B:GLY:544:C:9884, V-A:HIS:456:CD2:4068, V-A:HIS:456:CE1:4070, H-B:LYS:547:NZ:9923, V-B:HIS:456:CE1:9041, V-B:GLU:543:C:9874, H-B:GLU:543:O:9875, V-A:GLU:543:CB:4906, V-A:GLU:543:CG:4907, H-A:HIS:456:NE2:4071"]

$$$$
9a_Ghoteimi_2023
     RDKit          3D

 85 91  0  0  0  0  0  0  0  0999 V2000
  124.5600  128.4820   75.7270 C   0  0  0  0  0  0  0  0  0  0  0  0
  125.3790  129.6580   76.2690 C   0  0  0  0  0  0  0  0  0  0  0  0
  126.6690  129.6520   75.6700 O   0  0  0  0  0  0  0  0  0  0  0  0
  127.3630  128.4960   75.5110 C   0  0  0  0  0  0  0  0  0  0  0  0
  127.7780  127.8170   76.4560 O   0  0  0  0  0  0  0  0  0  0  0  0
  127.5840  128.1280   74.0720 C   0  0  0  0  0  0  0  0  0  0  0  0
  128.8790  128.1810   73.5420 C   0  0  0  0  0  0  0  0  0  0  0  0
  129.1160  127.8470   72.2120 C   0  0  0  0  0  0  0  0  0  0  0  0
  128.0650  127.4530   71.3840 C   0  0  0  0  0  0  0  0  0  0  0  0
  128.4210  127.1400   70.0580 N   0  0  0  0  0  0  0  0  0  0  0  0
  129.3740  127.6750   69.2540 C   0  0  0  0  0  0  0  0  0  0  0  0
  130.1310  128.5860   69.5900 O   0  0  0  0  0  0  0  0  0  0  0  0
  129.4650  127.0860   67.9150 C   0  0  0  0  0  0  0  0  0  0  0  0
  130.2610  125.5300   67.6790 S   0  0  0  0  0  0  0  0  0  0  0  0
  129.9350  125.5720   65.9620 C   0  0  0  0  0  0  0  0  0  0  0  0
  130.3030  124.5770   65.1560 N   0  0  0  0  0  0  0  0  0  0  0  0
  129.9910  124.7020   63.8390 C   0  0  0  0  0  0  0  0  0  0  0  0
  130.4030  123.5690   62.9550 C   0  0  0  0  0  0  0  0  0  0  0  0
  131.7580  123.3070   62.7220 C   0  0  0  0  0  0  0  0  0  0  0  0
  132.1510  122.2530   61.9010 C   0  0  0  0  0  0  0  0  0  0  0  0
  131.2040  121.4130   61.2940 C   0  0  0  0  0  0  0  0  0  0  0  0
  131.5830  120.3630   60.4520 N   0  0  0  0  0  0  0  0  0  0  0  0
  132.9500  120.2710   59.9010 C   0  0  0  0  0  0  0  0  0  0  0  0
  133.0830  119.2760   58.7280 C   0  0  0  0  0  0  0  0  0  0  0  0
  132.6040  118.0000   59.1170 O   0  0  0  0  0  0  0  0  0  0  0  0
  131.2370  118.0490   59.4930 C   0  0  0  0  0  0  0  0  0  0  0  0
  131.0550  119.0030   60.6910 C   0  0  0  0  0  0  0  0  0  0  0  0
  129.8470  121.6900   61.5200 C   0  0  0  0  0  0  0  0  0  0  0  0
  129.4550  122.7450   62.3380 C   0  0  0  0  0  0  0  0  0  0  0  0
  129.3400  125.8290   63.3300 C   0  0  0  0  0  0  0  0  0  0  0  0
  128.9700  126.8850   64.1700 C   0  0  0  0  0  0  0  0  0  0  0  0
  128.3130  128.0750   63.5720 C   0  0  0  0  0  0  0  0  0  0  0  0
  128.9200  128.7720   62.5250 C   0  0  0  0  0  0  0  0  0  0  0  0
  128.2960  129.8790   61.9570 C   0  0  0  0  0  0  0  0  0  0  0  0
  127.0380  130.3080   62.4090 C   0  0  0  0  0  0  0  0  0  0  0  0
  126.3980  131.4230   61.8620 N   0  0  0  0  0  0  0  0  0  0  0  0
  126.9290  132.7710   62.1480 C   0  0  0  0  0  0  0  0  0  0  0  0
  126.3820  133.8570   61.1990 C   0  0  0  0  0  0  0  0  0  0  0  0
  124.9630  133.8560   61.2250 O   0  0  0  0  0  0  0  0  0  0  0  0
  124.4320  132.6070   60.8120 C   0  0  0  0  0  0  0  0  0  0  0  0
  124.9270  131.4860   61.7510 C   0  0  0  0  0  0  0  0  0  0  0  0
  126.4370  129.5990   63.4590 C   0  0  0  0  0  0  0  0  0  0  0  0
  127.0620  128.4950   64.0300 C   0  0  0  0  0  0  0  0  0  0  0  0
  129.2540  126.7580   65.5600 C   0  0  0  0  0  0  0  0  0  0  0  0
  128.9780  127.5950   66.7010 C   0  0  0  0  0  0  0  0  0  0  0  0
  128.2850  128.7750   66.6010 N   0  0  0  0  0  0  0  0  0  0  0  0
  126.7630  127.3940   71.9060 C   0  0  0  0  0  0  0  0  0  0  0  0
  126.5280  127.7280   73.2380 C   0  0  0  0  0  0  0  0  0  0  0  0
  124.1543  127.8995   76.5673 H   0  0  0  0  0  0  0  0  0  0  0  0
  123.7318  128.8644   75.1123 H   0  0  0  0  0  0  0  0  0  0  0  0
  125.2059  127.8378   75.1123 H   0  0  0  0  0  0  0  0  0  0  0  0
  124.8678  130.6022   76.0298 H   0  0  0  0  0  0  0  0  0  0  0  0
  125.4804  129.5628   77.3602 H   0  0  0  0  0  0  0  0  0  0  0  0
  129.7175  128.4898   74.1835 H   0  0  0  0  0  0  0  0  0  0  0  0
  130.1392  127.8940   71.8110 H   0  0  0  0  0  0  0  0  0  0  0  0
  127.8750  126.3940   69.6520 H   0  0  0  0  0  0  0  0  0  0  0  0
  132.5225  123.9419   63.1935 H   0  0  0  0  0  0  0  0  0  0  0  0
  133.2222  122.0755   61.7250 H   0  0  0  0  0  0  0  0  0  0  0  0
  133.2485  121.2682   59.5455 H   0  0  0  0  0  0  0  0  0  0  0  0
  133.5974  119.9013   60.7098 H   0  0  0  0  0  0  0  0  0  0  0  0
  132.4949  119.6405   57.8729 H   0  0  0  0  0  0  0  0  0  0  0  0
  134.1425  119.1925   58.4442 H   0  0  0  0  0  0  0  0  0  0  0  0
  130.6382  118.4112   58.6443 H   0  0  0  0  0  0  0  0  0  0  0  0
  130.9043  117.0405   59.7799 H   0  0  0  0  0  0  0  0  0  0  0  0
  129.9804  119.0814   60.9126 H   0  0  0  0  0  0  0  0  0  0  0  0
  131.6261  118.5788   61.5300 H   0  0  0  0  0  0  0  0  0  0  0  0
  129.0802  121.0624   61.0423 H   0  0  0  0  0  0  0  0  0  0  0  0
  128.3839  122.9342   62.5022 H   0  0  0  0  0  0  0  0  0  0  0  0
  129.1155  125.8866   62.2547 H   0  0  0  0  0  0  0  0  0  0  0  0
  129.8991  128.4435   62.1462 H   0  0  0  0  0  0  0  0  0  0  0  0
  128.7953  130.4250   61.1430 H   0  0  0  0  0  0  0  0  0  0  0  0
  126.6590  133.0408   63.1797 H   0  0  0  0  0  0  0  0  0  0  0  0
  128.0184  132.7295   62.0016 H   0  0  0  0  0  0  0  0  0  0  0  0
  126.7513  134.8417   61.5213 H   0  0  0  0  0  0  0  0  0  0  0  0
  126.7240  133.6465   60.1749 H   0  0  0  0  0  0  0  0  0  0  0  0
  123.3333  132.6500   60.8436 H   0  0  0  0  0  0  0  0  0  0  0  0
  124.7678  132.3934   59.7865 H   0  0  0  0  0  0  0  0  0  0  0  0
  124.5085  131.6602   62.7533 H   0  0  0  0  0  0  0  0  0  0  0  0
  124.5918  130.5303   61.3217 H   0  0  0  0  0  0  0  0  0  0  0  0
  125.4555  129.9209   63.8373 H   0  0  0  0  0  0  0  0  0  0  0  0
  126.5679  127.9494   64.8474 H   0  0  0  0  0  0  0  0  0  0  0  0
  127.2880  128.7950   66.4410 H   0  0  0  0  0  0  0  0  0  0  0  0
  128.7520  129.6670   66.6830 H   0  0  0  0  0  0  0  0  0  0  0  0
  125.9269  127.0835   71.2621 H   0  0  0  0  0  0  0  0  0  0  0  0
  125.5053  127.6778   73.6400 H   0  0  0  0  0  0  0  0  0  0  0  0
  1  2  1  0
  2  3  1  0
  3  4  1  0
  4  5  2  0
  4  6  1  0
  6  7  2  0
  7  8  1  0
  8  9  2  0
  9 10  1  0
 10 11  1  0
 11 12  2  0
 11 13  1  0
 13 14  1  0
 14 15  1  0
 15 16  2  0
 16 17  1  0
 17 18  1  0
 18 19  2  0
 19 20  1  0
 20 21  2  0
 21 22  1  0
 22 23  1  0
 23 24  1  0
 24 25  1  0
 25 26  1  0
 26 27  1  0
 21 28  1  0
 28 29  2  0
 17 30  2  0
 30 31  1  0
 31 32  1  0
 32 33  2  0
 33 34  1  0
 34 35  2  0
 35 36  1  0
 36 37  1  0
 37 38  1  0
 38 39  1  0
 39 40  1  0
 40 41  1  0
 35 42  1  0
 42 43  2  0
 31 44  2  0
 44 45  1  0
 45 46  1  0
  9 47  1  0
 47 48  2  0
 48  6  1  0
 45 13  2  0
 44 15  1  0
 29 18  1  0
 43 32  1  0
 27 22  1  0
 41 36  1  0
  1 49  1  0
  1 50  1  0
  1 51  1  0
  2 52  1  0
  2 53  1  0
  7 54  1  0
  8 55  1  0
 10 56  1  0
 19 57  1  0
 20 58  1  0
 23 59  1  0
 23 60  1  0
 24 61  1  0
 24 62  1  0
 26 63  1  0
 26 64  1  0
 27 65  1  0
 27 66  1  0
 28 67  1  0
 29 68  1  0
 30 69  1  0
 33 70  1  0
 34 71  1  0
 37 72  1  0
 37 73  1  0
 38 74  1  0
 38 75  1  0
 40 76  1  0
 40 77  1  0
 41 78  1  0
 41 79  1  0
 42 80  1  0
 43 81  1  0
 46 82  1  0
 46 83  1  0
 47 84  1  0
 48 85  1  0
M  END
>  <Binding energies>  (1) 
[-8.32]

>  <Ligand effiencies>  (1) 
[-0.1631372549019608]

>  <Interactions>  (1) 
["V-B:TYR:539:CD2:9846, V-A:GLU:543:CD:4908, H-A:TYR:484:OH:4348, V-B:TYR:539:CE2:9848, V-A:LEU:475:CD2:4259, V-A:TYR:539:CD1:4873, V-B:ILE:369:CG2:8208, V-B:LEU:475:CD2:9230, V-A:TYR:539:CE1:4875, V-A:ILE:369:CG2:3237, H-A:GLU:543:OE2:4910, V-B:GLU:543:CB:9878, V-B:GLU:543:CG:9879, V-B:GLU:543:CD:9880, V-B:ALA:541:CB:9864, V-B:HIS:456:CD2:9039, V-B:HIS:456:CB:9036, V-B:GLY:544:C:9884, V-B:HIS:456:CG:9037, V-B:LYS:471:CD:9190, V-B:GLY:544:CA:9886, V-A:HIS:456:CE1:4070, H-B:LYS:547:NZ:9923, V-B:LYS:547:CE:9922, V-B:HIS:456:CE1:9041, H-A:GLU:543:OE1:4909, H-B:GLU:543:O:9875, V-A:GLU:543:CB:4906, H-B:TYR:484:OH:9319, V-A:GLU:543:CG:4907, V-B:TYR:539:CG:9844, H-A:HIS:383:HE2:3395, V-A:HIS:383:CE1:3393, H-A:SER:385:OG:3410, V-B:TYR:539:CB:9843, V-A:HIS:383:NE2:3394, V-A:HIS:383:CD2:3392, V-A:SER:385:CB:3409, V-B:VAL:458:CG2:9058, H-B:GLU:543:OE2:9882"]

$$$$
9b_Ghoteimi_2023
     RDKit          3D

 72 78  0  0  0  0  0  0  0  0999 V2000
  128.0930  127.7240   62.6310 N   0  0  0  0  0  0  0  0  0  0  0  0
  128.6720  126.9770   63.6260 C   0  0  0  0  0  0  0  0  0  0  0  0
  129.2970  125.7400   63.4000 C   0  0  0  0  0  0  0  0  0  0  0  0
  129.4820  125.0280   62.1330 C   0  0  0  0  0  0  0  0  0  0  0  0
  130.5950  124.9600   61.6070 O   0  0  0  0  0  0  0  0  0  0  0  0
  128.3620  124.4740   61.6070 N   0  0  0  0  0  0  0  0  0  0  0  0
  128.2470  123.7590   60.4220 C   0  0  0  0  0  0  0  0  0  0  0  0
  128.0020  124.3620   59.1890 C   0  0  0  0  0  0  0  0  0  0  0  0
  127.9630  123.3260   58.2850 C   0  0  0  0  0  0  0  0  0  0  0  0
  128.1740  122.1590   58.9400 O   0  0  0  0  0  0  0  0  0  0  0  0
  128.3520  122.4460   60.2930 N   0  0  0  0  0  0  0  0  0  0  0  0
  129.9000  125.0470   64.9050 S   0  0  0  0  0  0  0  0  0  0  0  0
  129.2980  126.4050   65.8250 C   0  0  0  0  0  0  0  0  0  0  0  0
  129.4300  126.4650   67.1490 N   0  0  0  0  0  0  0  0  0  0  0  0
  128.9110  127.5550   67.7720 C   0  0  0  0  0  0  0  0  0  0  0  0
  129.0550  127.5880   69.2590 C   0  0  0  0  0  0  0  0  0  0  0  0
  130.2000  128.1200   69.8640 C   0  0  0  0  0  0  0  0  0  0  0  0
  130.3350  128.1350   71.2490 C   0  0  0  0  0  0  0  0  0  0  0  0
  129.3370  127.6050   72.0800 C   0  0  0  0  0  0  0  0  0  0  0  0
  129.4570  127.6150   73.4740 N   0  0  0  0  0  0  0  0  0  0  0  0
  128.9640  128.7500   74.2800 C   0  0  0  0  0  0  0  0  0  0  0  0
  128.8620  128.4450   75.7890 C   0  0  0  0  0  0  0  0  0  0  0  0
  130.1100  127.9820   76.2760 O   0  0  0  0  0  0  0  0  0  0  0  0
  130.5140  126.7900   75.6220 C   0  0  0  0  0  0  0  0  0  0  0  0
  130.6630  127.0400   74.1060 C   0  0  0  0  0  0  0  0  0  0  0  0
  128.1830  127.0910   71.4690 C   0  0  0  0  0  0  0  0  0  0  0  0
  128.0460  127.0810   70.0840 C   0  0  0  0  0  0  0  0  0  0  0  0
  128.2880  128.5900   67.0700 C   0  0  0  0  0  0  0  0  0  0  0  0
  128.1640  128.5400   65.6760 C   0  0  0  0  0  0  0  0  0  0  0  0
  127.5200  129.6790   64.9740 C   0  0  0  0  0  0  0  0  0  0  0  0
  128.2750  130.7890   64.5920 C   0  0  0  0  0  0  0  0  0  0  0  0
  127.6780  131.8490   63.9170 C   0  0  0  0  0  0  0  0  0  0  0  0
  126.3090  131.8300   63.6060 C   0  0  0  0  0  0  0  0  0  0  0  0
  125.6930  132.8760   62.9160 N   0  0  0  0  0  0  0  0  0  0  0  0
  126.3900  133.4960   61.7720 C   0  0  0  0  0  0  0  0  0  0  0  0
  125.7990  134.8640   61.3690 C   0  0  0  0  0  0  0  0  0  0  0  0
  124.4120  134.7320   61.0990 O   0  0  0  0  0  0  0  0  0  0  0  0
  123.6980  134.2620   62.2330 C   0  0  0  0  0  0  0  0  0  0  0  0
  124.2390  132.8810   62.6620 C   0  0  0  0  0  0  0  0  0  0  0  0
  125.5650  130.7010   63.9790 C   0  0  0  0  0  0  0  0  0  0  0  0
  126.1620  129.6400   64.6550 C   0  0  0  0  0  0  0  0  0  0  0  0
  128.6700  127.3910   65.0070 C   0  0  0  0  0  0  0  0  0  0  0  0
  128.6040  128.4440   62.1390 H   0  0  0  0  0  0  0  0  0  0  0  0
  127.1320  127.5790   62.3550 H   0  0  0  0  0  0  0  0  0  0  0  0
  127.5060  124.5850   62.1300 H   0  0  0  0  0  0  0  0  0  0  0  0
  127.8687  125.4344   58.9836 H   0  0  0  0  0  0  0  0  0  0  0  0
  127.7885  123.4286   57.2038 H   0  0  0  0  0  0  0  0  0  0  0  0
  131.0038  128.5317   69.2361 H   0  0  0  0  0  0  0  0  0  0  0  0
  131.2394  128.5697   71.6996 H   0  0  0  0  0  0  0  0  0  0  0  0
  129.6522  129.5972   74.1432 H   0  0  0  0  0  0  0  0  0  0  0  0
  127.9457  128.9735   73.9290 H   0  0  0  0  0  0  0  0  0  0  0  0
  128.5783  129.3613   76.3274 H   0  0  0  0  0  0  0  0  0  0  0  0
  128.1010  127.6670   75.9492 H   0  0  0  0  0  0  0  0  0  0  0  0
  131.4794  126.4592   76.0326 H   0  0  0  0  0  0  0  0  0  0  0  0
  129.7516  126.0140   75.7853 H   0  0  0  0  0  0  0  0  0  0  0  0
  131.5010  127.7353   73.9501 H   0  0  0  0  0  0  0  0  0  0  0  0
  130.8347  126.0606   73.6356 H   0  0  0  0  0  0  0  0  0  0  0  0
  127.3729  126.6892   72.0953 H   0  0  0  0  0  0  0  0  0  0  0  0
  127.1317  126.6687   69.6322 H   0  0  0  0  0  0  0  0  0  0  0  0
  127.8896  129.4556   67.6196 H   0  0  0  0  0  0  0  0  0  0  0  0
  129.3491  130.8260   64.8262 H   0  0  0  0  0  0  0  0  0  0  0  0
  128.2881  132.7156   63.6224 H   0  0  0  0  0  0  0  0  0  0  0  0
  127.4470  133.6375   62.0415 H   0  0  0  0  0  0  0  0  0  0  0  0
  126.2699  132.8216   60.9114 H   0  0  0  0  0  0  0  0  0  0  0  0
  125.9437  135.5800   62.1914 H   0  0  0  0  0  0  0  0  0  0  0  0
  126.3103  135.2265   60.4651 H   0  0  0  0  0  0  0  0  0  0  0  0
  123.8205  134.9748   63.0618 H   0  0  0  0  0  0  0  0  0  0  0  0
  122.6326  134.1686   61.9759 H   0  0  0  0  0  0  0  0  0  0  0  0
  123.7226  132.5749   63.5838 H   0  0  0  0  0  0  0  0  0  0  0  0
  124.0514  132.1854   61.8308 H   0  0  0  0  0  0  0  0  0  0  0  0
  124.4937  130.6530   63.7338 H   0  0  0  0  0  0  0  0  0  0  0  0
  125.5590  128.7651   64.9395 H   0  0  0  0  0  0  0  0  0  0  0  0
  1  2  1  0
  2  3  2  0
  3  4  1  0
  4  5  2  0
  4  6  1  0
  6  7  1  0
  7  8  1  0
  8  9  2  0
  9 10  1  0
 10 11  1  0
  3 12  1  0
 12 13  1  0
 13 14  2  0
 14 15  1  0
 15 16  1  0
 16 17  2  0
 17 18  1  0
 18 19  2  0
 19 20  1  0
 20 21  1  0
 21 22  1  0
 22 23  1  0
 23 24  1  0
 24 25  1  0
 19 26  1  0
 26 27  2  0
 15 28  2  0
 28 29  1  0
 29 30  1  0
 30 31  2  0
 31 32  1  0
 32 33  2  0
 33 34  1  0
 34 35  1  0
 35 36  1  0
 36 37  1  0
 37 38  1  0
 38 39  1  0
 33 40  1  0
 40 41  2  0
 29 42  2  0
 42  2  1  0
 11  7  2  0
 42 13  1  0
 27 16  1  0
 41 30  1  0
 25 20  1  0
 39 34  1  0
  1 43  1  0
  1 44  1  0
  6 45  1  0
  8 46  1  0
  9 47  1  0
 17 48  1  0
 18 49  1  0
 21 50  1  0
 21 51  1  0
 22 52  1  0
 22 53  1  0
 24 54  1  0
 24 55  1  0
 25 56  1  0
 25 57  1  0
 26 58  1  0
 27 59  1  0
 28 60  1  0
 31 61  1  0
 32 62  1  0
 35 63  1  0
 35 64  1  0
 36 65  1  0
 36 66  1  0
 38 67  1  0
 38 68  1  0
 39 69  1  0
 39 70  1  0
 40 71  1  0
 41 72  1  0
M  END
>  <Binding energies>  (1) 
[-9.23]

>  <Ligand effiencies>  (1) 
[-0.20511111111111113]

>  <Interactions>  (1) 
["V-B:TYR:539:CD2:9846, V-A:GLU:543:CD:4908, V-B:TYR:539:CE2:9848, V-B:TYR:539:CZ:9849, V-A:TYR:539:CD1:4873, V-B:GLY:454:CA:9020, V-B:ILE:369:CG2:8208, V-B:LEU:475:CD2:9230, V-A:TYR:539:CE1:4875, V-B:GLU:543:CB:9878, V-B:GLU:543:CG:9879, V-B:GLU:543:CD:9880, H-B:GLU:543:OE1:9881, V-A:GLY:544:C:4912, V-A:HIS:456:CD2:4068, V-A:HIS:456:CE1:4070, V-B:HIS:456:CE1:9041, V-B:GLU:543:C:9874, H-A:LYS:547:NZ:4951, H-A:GLU:543:OE1:4909, V-A:GLU:543:CB:4906, V-A:GLU:543:C:4902, V-A:GLU:543:CG:4907, H-B:GLU:543:OE2:9882"]

$$$$
9c_Ghoteimi_2023
     RDKit          3D

 72 78  0  0  0  0  0  0  0  0999 V2000
  128.0350  127.7880   62.5640 N   0  0  0  0  0  0  0  0  0  0  0  0
  128.6200  127.0230   63.5410 C   0  0  0  0  0  0  0  0  0  0  0  0
  129.2400  125.7900   63.2910 C   0  0  0  0  0  0  0  0  0  0  0  0
  129.4090  125.0960   62.0100 C   0  0  0  0  0  0  0  0  0  0  0  0
  130.5330  124.8960   61.5450 O   0  0  0  0  0  0  0  0  0  0  0  0
  128.2610  124.7120   61.4010 N   0  0  0  0  0  0  0  0  0  0  0  0
  128.1400  124.0570   60.1830 C   0  0  0  0  0  0  0  0  0  0  0  0
  127.9000  122.7810   59.9720 N   0  0  0  0  0  0  0  0  0  0  0  0
  127.8570  122.5030   58.6830 C   0  0  0  0  0  0  0  0  0  0  0  0
  128.0670  123.5710   57.8150 C   0  0  0  0  0  0  0  0  0  0  0  0
  128.3340  125.0130   58.7480 S   0  0  0  0  0  0  0  0  0  0  0  0
  129.8570  125.0710   64.7780 S   0  0  0  0  0  0  0  0  0  0  0  0
  129.2650  126.4150   65.7260 C   0  0  0  0  0  0  0  0  0  0  0  0
  129.4120  126.4550   67.0490 N   0  0  0  0  0  0  0  0  0  0  0  0
  128.9010  127.5360   67.6940 C   0  0  0  0  0  0  0  0  0  0  0  0
  129.0610  127.5440   69.1800 C   0  0  0  0  0  0  0  0  0  0  0  0
  130.2140  128.0600   69.7820 C   0  0  0  0  0  0  0  0  0  0  0  0
  130.3620  128.0570   71.1650 C   0  0  0  0  0  0  0  0  0  0  0  0
  129.3650  127.5250   71.9990 C   0  0  0  0  0  0  0  0  0  0  0  0
  129.4960  127.5210   73.3930 N   0  0  0  0  0  0  0  0  0  0  0  0
  128.9600  128.6220   74.2190 C   0  0  0  0  0  0  0  0  0  0  0  0
  128.8790  128.2910   75.7240 C   0  0  0  0  0  0  0  0  0  0  0  0
  130.1500  127.8750   76.1960 O   0  0  0  0  0  0  0  0  0  0  0  0
  130.6000  126.7110   75.5220 C   0  0  0  0  0  0  0  0  0  0  0  0
  130.7300  126.9900   74.0090 C   0  0  0  0  0  0  0  0  0  0  0  0
  128.2040  127.0260   71.3920 C   0  0  0  0  0  0  0  0  0  0  0  0
  128.0550  127.0340   70.0080 C   0  0  0  0  0  0  0  0  0  0  0  0
  128.2730  128.5820   67.0150 C   0  0  0  0  0  0  0  0  0  0  0  0
  128.1370  128.5550   65.6230 C   0  0  0  0  0  0  0  0  0  0  0  0
  127.4900  129.7060   64.9440 C   0  0  0  0  0  0  0  0  0  0  0  0
  128.2410  130.8290   64.5920 C   0  0  0  0  0  0  0  0  0  0  0  0
  127.6410  131.9030   63.9400 C   0  0  0  0  0  0  0  0  0  0  0  0
  126.2730  131.8840   63.6250 C   0  0  0  0  0  0  0  0  0  0  0  0
  125.6530  132.9460   62.9610 N   0  0  0  0  0  0  0  0  0  0  0  0
  126.3050  133.5330   61.7740 C   0  0  0  0  0  0  0  0  0  0  0  0
  125.7340  134.9130   61.3850 C   0  0  0  0  0  0  0  0  0  0  0  0
  124.3300  134.8210   61.1920 O   0  0  0  0  0  0  0  0  0  0  0  0
  123.6670  134.3870   62.3690 C   0  0  0  0  0  0  0  0  0  0  0  0
  124.1880  132.9950   62.7880 C   0  0  0  0  0  0  0  0  0  0  0  0
  125.5340  130.7420   63.9660 C   0  0  0  0  0  0  0  0  0  0  0  0
  126.1330  129.6670   64.6170 C   0  0  0  0  0  0  0  0  0  0  0  0
  128.6330  127.4150   64.9290 C   0  0  0  0  0  0  0  0  0  0  0  0
  128.5260  128.5490   62.1160 H   0  0  0  0  0  0  0  0  0  0  0  0
  127.0880  127.6160   62.2590 H   0  0  0  0  0  0  0  0  0  0  0  0
  127.3930  124.9180   61.8740 H   0  0  0  0  0  0  0  0  0  0  0  0
  127.6659  121.4843   58.3147 H   0  0  0  0  0  0  0  0  0  0  0  0
  128.0644  123.5119   56.7166 H   0  0  0  0  0  0  0  0  0  0  0  0
  131.0152  128.4741   69.1522 H   0  0  0  0  0  0  0  0  0  0  0  0
  131.2744  128.4780   71.6127 H   0  0  0  0  0  0  0  0  0  0  0  0
  129.6111  129.4994   74.0917 H   0  0  0  0  0  0  0  0  0  0  0  0
  127.9312  128.8070   73.8765 H   0  0  0  0  0  0  0  0  0  0  0  0
  128.5595  129.1862   76.2776 H   0  0  0  0  0  0  0  0  0  0  0  0
  128.1524  127.4796   75.8777 H   0  0  0  0  0  0  0  0  0  0  0  0
  131.5806  126.4149   75.9228 H   0  0  0  0  0  0  0  0  0  0  0  0
  129.8718  125.9013   75.6772 H   0  0  0  0  0  0  0  0  0  0  0  0
  131.5359  127.7236   73.8595 H   0  0  0  0  0  0  0  0  0  0  0  0
  130.9425  126.0267   73.5223 H   0  0  0  0  0  0  0  0  0  0  0  0
  127.3969  126.6212   72.0202 H   0  0  0  0  0  0  0  0  0  0  0  0
  127.1338  126.6339   69.5592 H   0  0  0  0  0  0  0  0  0  0  0  0
  127.8800  129.4386   67.5822 H   0  0  0  0  0  0  0  0  0  0  0  0
  129.3140  130.8656   64.8314 H   0  0  0  0  0  0  0  0  0  0  0  0
  128.2477  132.7792   63.6677 H   0  0  0  0  0  0  0  0  0  0  0  0
  127.3786  133.6461   61.9852 H   0  0  0  0  0  0  0  0  0  0  0  0
  126.1186  132.8530   60.9297 H   0  0  0  0  0  0  0  0  0  0  0  0
  125.9447  135.6341   62.1885 H   0  0  0  0  0  0  0  0  0  0  0  0
  126.2058  135.2483   60.4496 H   0  0  0  0  0  0  0  0  0  0  0  0
  123.8568  135.1058   63.1797 H   0  0  0  0  0  0  0  0  0  0  0  0
  122.5868  134.3230   62.1713 H   0  0  0  0  0  0  0  0  0  0  0  0
  123.7147  132.7179   63.7415 H   0  0  0  0  0  0  0  0  0  0  0  0
  123.9326  132.2952   61.9787 H   0  0  0  0  0  0  0  0  0  0  0  0
  124.4640  130.6948   63.7151 H   0  0  0  0  0  0  0  0  0  0  0  0
  125.5337  128.7815   64.8753 H   0  0  0  0  0  0  0  0  0  0  0  0
  1  2  1  0
  2  3  2  0
  3  4  1  0
  4  5  2  0
  4  6  1  0
  6  7  1  0
  7  8  2  0
  8  9  1  0
  9 10  2  0
 10 11  1  0
  3 12  1  0
 12 13  1  0
 13 14  2  0
 14 15  1  0
 15 16  1  0
 16 17  2  0
 17 18  1  0
 18 19  2  0
 19 20  1  0
 20 21  1  0
 21 22  1  0
 22 23  1  0
 23 24  1  0
 24 25  1  0
 19 26  1  0
 26 27  2  0
 15 28  2  0
 28 29  1  0
 29 30  1  0
 30 31  2  0
 31 32  1  0
 32 33  2  0
 33 34  1  0
 34 35  1  0
 35 36  1  0
 36 37  1  0
 37 38  1  0
 38 39  1  0
 33 40  1  0
 40 41  2  0
 29 42  2  0
 42  2  1  0
 11  7  1  0
 42 13  1  0
 27 16  1  0
 41 30  1  0
 25 20  1  0
 39 34  1  0
  1 43  1  0
  1 44  1  0
  6 45  1  0
  9 46  1  0
 10 47  1  0
 17 48  1  0
 18 49  1  0
 21 50  1  0
 21 51  1  0
 22 52  1  0
 22 53  1  0
 24 54  1  0
 24 55  1  0
 25 56  1  0
 25 57  1  0
 26 58  1  0
 27 59  1  0
 28 60  1  0
 31 61  1  0
 32 62  1  0
 35 63  1  0
 35 64  1  0
 36 65  1  0
 36 66  1  0
 38 67  1  0
 38 68  1  0
 39 69  1  0
 39 70  1  0
 40 71  1  0
 41 72  1  0
M  END
>  <Binding energies>  (1) 
[-9.09]

>  <Ligand effiencies>  (1) 
[-0.20199999999999999]

>  <Interactions>  (1) 
["V-B:PRO:540:N:9856, V-B:TYR:539:CD2:9846, V-A:GLU:543:CD:4908, V-B:TYR:539:CE2:9848, V-B:TYR:539:CZ:9849, V-B:PRO:540:CA:9855, V-A:TYR:539:CD1:4873, V-B:GLY:454:CA:9020, V-B:ILE:369:CG2:8208, V-B:LEU:475:CD2:9230, V-A:TYR:539:CE1:4875, V-B:GLU:543:CB:9878, V-B:GLU:543:CG:9879, V-B:GLU:543:CD:9880, H-B:GLU:543:OE1:9881, V-A:GLY:544:C:4912, V-A:HIS:456:CD2:4068, V-A:HIS:456:CE1:4070, V-B:HIS:456:CE1:9041, V-B:GLU:543:C:9874, H-A:LYS:547:NZ:4951, H-A:GLU:543:OE1:4909, V-A:GLU:543:CB:4906, V-A:GLU:543:C:4902, V-A:GLU:543:CG:4907, V-B:TYR:539:CG:9844, V-B:TYR:539:C:9839, V-B:SER:385:CB:8380, V-B:SER:385:CA:8378, V-B:SER:385:C:8376, H-B:GLU:543:OE2:9882"]

$$$$
9d_Ghoteimi_2023
     RDKit          3D

 68 73  0  0  0  0  0  0  0  0999 V2000
  132.8630  124.5560   64.3540 C   0  0  0  0  0  0  0  0  0  0  0  0
  132.1540  123.3260   64.3290 O   0  0  0  0  0  0  0  0  0  0  0  0
  130.8700  123.2530   64.7670 C   0  0  0  0  0  0  0  0  0  0  0  0
  130.2770  122.1950   64.9930 O   0  0  0  0  0  0  0  0  0  0  0  0
  130.2460  124.5830   64.9450 C   0  0  0  0  0  0  0  0  0  0  0  0
  129.7230  125.5030   63.5350 S   0  0  0  0  0  0  0  0  0  0  0  0
  129.1310  126.7970   64.5490 C   0  0  0  0  0  0  0  0  0  0  0  0
  128.5370  127.8720   64.0330 N   0  0  0  0  0  0  0  0  0  0  0  0
  128.0960  128.8140   64.9080 C   0  0  0  0  0  0  0  0  0  0  0  0
  127.4090  129.9990   64.3080 C   0  0  0  0  0  0  0  0  0  0  0  0
  128.1290  131.1600   64.0100 C   0  0  0  0  0  0  0  0  0  0  0  0
  127.4980  132.2700   63.4530 C   0  0  0  0  0  0  0  0  0  0  0  0
  126.1250  132.2530   63.1620 C   0  0  0  0  0  0  0  0  0  0  0  0
  125.4740  133.3660   62.6180 N   0  0  0  0  0  0  0  0  0  0  0  0
  126.1190  134.2070   61.5890 C   0  0  0  0  0  0  0  0  0  0  0  0
  125.4190  135.5630   61.3620 C   0  0  0  0  0  0  0  0  0  0  0  0
  124.0480  135.3580   61.0660 O   0  0  0  0  0  0  0  0  0  0  0  0
  123.3790  134.7000   62.1300 C   0  0  0  0  0  0  0  0  0  0  0  0
  124.0160  133.3170   62.3830 C   0  0  0  0  0  0  0  0  0  0  0  0
  125.4060  131.0910   63.4760 C   0  0  0  0  0  0  0  0  0  0  0  0
  126.0360  129.9830   64.0360 C   0  0  0  0  0  0  0  0  0  0  0  0
  128.2810  128.6940   66.2880 C   0  0  0  0  0  0  0  0  0  0  0  0
  128.9220  127.5760   66.8330 C   0  0  0  0  0  0  0  0  0  0  0  0
  129.1170  127.5130   68.3060 C   0  0  0  0  0  0  0  0  0  0  0  0
  130.3590  127.8060   68.8740 C   0  0  0  0  0  0  0  0  0  0  0  0
  130.5310  127.7630   70.2550 C   0  0  0  0  0  0  0  0  0  0  0  0
  129.4620  127.4410   71.1050 C   0  0  0  0  0  0  0  0  0  0  0  0
  129.6120  127.3820   72.4930 N   0  0  0  0  0  0  0  0  0  0  0  0
  128.9570  128.4070   73.3290 C   0  0  0  0  0  0  0  0  0  0  0  0
  128.8720  128.0130   74.8200 C   0  0  0  0  0  0  0  0  0  0  0  0
  130.1660  127.7040   75.3160 O   0  0  0  0  0  0  0  0  0  0  0  0
  130.7550  126.6240   74.6070 C   0  0  0  0  0  0  0  0  0  0  0  0
  130.8900  126.9870   73.1130 C   0  0  0  0  0  0  0  0  0  0  0  0
  128.2200  127.1470   70.5230 C   0  0  0  0  0  0  0  0  0  0  0  0
  128.0490  127.1880   69.1430 C   0  0  0  0  0  0  0  0  0  0  0  0
  129.3540  126.5580   65.9380 C   0  0  0  0  0  0  0  0  0  0  0  0
  129.9760  125.2740   66.1320 C   0  0  0  0  0  0  0  0  0  0  0  0
  130.2580  124.7640   67.3730 N   0  0  0  0  0  0  0  0  0  0  0  0
  133.0370  124.8578   65.3974 H   0  0  0  0  0  0  0  0  0  0  0  0
  133.8288  124.4330   63.8420 H   0  0  0  0  0  0  0  0  0  0  0  0
  132.2725  125.3301   63.8420 H   0  0  0  0  0  0  0  0  0  0  0  0
  129.2085  131.1974   64.2183 H   0  0  0  0  0  0  0  0  0  0  0  0
  128.0854  133.1747   63.2377 H   0  0  0  0  0  0  0  0  0  0  0  0
  127.1563  134.4003   61.8998 H   0  0  0  0  0  0  0  0  0  0  0  0
  126.0590  133.6536   60.6403 H   0  0  0  0  0  0  0  0  0  0  0  0
  125.5076  136.1753   62.2715 H   0  0  0  0  0  0  0  0  0  0  0  0
  125.8974  136.0789   60.5165 H   0  0  0  0  0  0  0  0  0  0  0  0
  123.4588  135.3096   63.0422 H   0  0  0  0  0  0  0  0  0  0  0  0
  122.3209  134.5651   61.8611 H   0  0  0  0  0  0  0  0  0  0  0  0
  123.5370  132.8710   63.2671 H   0  0  0  0  0  0  0  0  0  0  0  0
  123.8581  132.7201   61.4726 H   0  0  0  0  0  0  0  0  0  0  0  0
  124.3249  131.0542   63.2763 H   0  0  0  0  0  0  0  0  0  0  0  0
  125.4472  129.0832   64.2677 H   0  0  0  0  0  0  0  0  0  0  0  0
  127.9176  129.4896   66.9551 H   0  0  0  0  0  0  0  0  0  0  0  0
  131.2069  128.0725   68.2259 H   0  0  0  0  0  0  0  0  0  0  0  0
  131.5186  127.9845   70.6857 H   0  0  0  0  0  0  0  0  0  0  0  0
  129.5290  129.3430   73.2468 H   0  0  0  0  0  0  0  0  0  0  0  0
  127.9263  128.5189   72.9613 H   0  0  0  0  0  0  0  0  0  0  0  0
  128.4524  128.8517   75.3949 H   0  0  0  0  0  0  0  0  0  0  0  0
  128.2256  127.1290   74.9232 H   0  0  0  0  0  0  0  0  0  0  0  0
  131.7517  126.4151   75.0230 H   0  0  0  0  0  0  0  0  0  0  0  0
  130.1161  125.7342   74.7069 H   0  0  0  0  0  0  0  0  0  0  0  0
  131.5974  127.8241   73.0193 H   0  0  0  0  0  0  0  0  0  0  0  0
  131.2430  126.0867   72.5887 H   0  0  0  0  0  0  0  0  0  0  0  0
  127.3691  126.8802   71.1670 H   0  0  0  0  0  0  0  0  0  0  0  0
  127.0641  126.9624   68.7083 H   0  0  0  0  0  0  0  0  0  0  0  0
  129.5860  124.7960   68.1270 H   0  0  0  0  0  0  0  0  0  0  0  0
  131.1490  124.3320   67.5760 H   0  0  0  0  0  0  0  0  0  0  0  0
  1  2  1  0
  2  3  1  0
  3  4  2  0
  3  5  1  0
  5  6  1  0
  6  7  1  0
  7  8  2  0
  8  9  1  0
  9 10  1  0
 10 11  2  0
 11 12  1  0
 12 13  2  0
 13 14  1  0
 14 15  1  0
 15 16  1  0
 16 17  1  0
 17 18  1  0
 18 19  1  0
 13 20  1  0
 20 21  2  0
  9 22  2  0
 22 23  1  0
 23 24  1  0
 24 25  2  0
 25 26  1  0
 26 27  2  0
 27 28  1  0
 28 29  1  0
 29 30  1  0
 30 31  1  0
 31 32  1  0
 32 33  1  0
 27 34  1  0
 34 35  2  0
 23 36  2  0
 36 37  1  0
 37 38  1  0
 37  5  2  0
 36  7  1  0
 21 10  1  0
 35 24  1  0
 19 14  1  0
 33 28  1  0
  1 39  1  0
  1 40  1  0
  1 41  1  0
 11 42  1  0
 12 43  1  0
 15 44  1  0
 15 45  1  0
 16 46  1  0
 16 47  1  0
 18 48  1  0
 18 49  1  0
 19 50  1  0
 19 51  1  0
 20 52  1  0
 21 53  1  0
 22 54  1  0
 25 55  1  0
 26 56  1  0
 29 57  1  0
 29 58  1  0
 30 59  1  0
 30 60  1  0
 32 61  1  0
 32 62  1  0
 33 63  1  0
 33 64  1  0
 34 65  1  0
 35 66  1  0
 38 67  1  0
 38 68  1  0
M  END
>  <Binding energies>  (1) 
[-8.86]

>  <Ligand effiencies>  (1) 
[-0.22149999999999997]

>  <Interactions>  (1) 
["V-A:GLU:543:CD:4908, H-A:TYR:484:OH:4348, V-A:ARG:545:CZ:4926, V-A:LEU:475:CD2:4259, V-A:TYR:539:CD1:4873, V-B:GLY:454:CA:9020, V-B:ILE:369:CG2:8208, V-B:LEU:475:CD2:9230, V-A:TYR:539:CE1:4875, V-A:TYR:484:CZ:4347, V-B:GLU:543:CB:9878, V-B:GLU:543:CG:9879, V-A:TYR:484:CE2:4346, V-B:GLU:543:CD:9880, V-B:HIS:456:CD2:9039, V-A:HIS:456:CD2:4068, V-A:HIS:456:CG:4066, V-A:HIS:456:CE1:4070, V-B:HIS:456:CE1:9041, V-B:GLU:543:C:9874, H-A:LYS:547:NZ:4951, H-B:GLU:543:O:9875, V-A:GLU:543:CB:4906, V-A:GLU:543:C:4902, V-A:GLU:543:CG:4907, H-A:HIS:456:NE2:4071, V-B:GLU:543:CA:9876, V-B:SER:385:CB:8380, V-B:SER:385:CA:8378, V-B:SER:385:C:8376"]

$$$$
RR10_Rahimova_2017
     RDKit          3D

 66 70  0  0  0  0  0  0  0  0999 V2000
  133.8340  131.8720   61.2960 C   0  0  0  0  0  0  0  0  0  0  0  0
  132.5760  131.5000   60.4920 C   0  0  1  0  0  0  0  0  0  0  0  0
  132.9300  130.8420   59.1380 C   0  0  0  0  0  0  0  0  0  0  0  0
  131.6530  130.5100   58.3330 C   0  0  0  0  0  0  0  0  0  0  0  0
  130.6950  129.5760   59.1160 C   0  0  1  0  0  0  0  0  0  0  0  0
  131.2810  128.2380   59.2700 N   0  0  0  0  0  0  0  0  0  0  0  0
  130.6230  127.1410   59.6860 C   0  0  0  0  0  0  0  0  0  0  0  0
  129.4220  127.1440   59.9670 O   0  0  0  0  0  0  0  0  0  0  0  0
  131.4490  125.8440   59.8180 C   0  0  1  0  0  0  0  0  0  0  0  0
  132.4900  125.7790   58.6700 C   0  0  0  0  0  0  0  0  0  0  0  0
  133.3810  124.5260   58.8510 C   0  0  0  0  0  0  0  0  0  0  0  0
  133.9980  124.4380   60.2660 C   0  0  0  0  0  0  0  0  0  0  0  0
  132.9450  124.5730   61.3080 N   0  0  0  0  0  0  0  0  0  0  0  0
  133.4850  124.1910   62.9520 S   0  0  0  0  0  0  0  0  0  0  0  0
  134.6230  125.0620   63.2720 O   0  0  0  0  0  0  0  0  0  0  0  0
  133.6190  122.7330   63.0550 O   0  0  0  0  0  0  0  0  0  0  0  0
  132.1330  124.6970   64.0160 C   0  0  0  0  0  0  0  0  0  0  0  0
  130.8190  124.6010   63.5460 C   0  0  0  0  0  0  0  0  0  0  0  0
  129.7220  124.9820   64.3250 C   0  0  0  0  0  0  0  0  0  0  0  0
  130.0030  125.4630   65.6050 C   0  0  0  0  0  0  0  0  0  0  0  0
  129.2260  125.9280   66.6400 N   0  0  0  0  0  0  0  0  0  0  0  0
  130.0640  126.2760   67.6790 C   0  0  0  0  0  0  0  0  0  0  0  0
  129.5800  126.8360   68.9850 C   0  0  0  0  0  0  0  0  0  0  0  0
  130.4400  127.5880   69.7970 C   0  0  0  0  0  0  0  0  0  0  0  0
  129.9920  128.1110   71.0070 C   0  0  0  0  0  0  0  0  0  0  0  0
  128.6800  127.8830   71.4130 C   0  0  0  0  0  0  0  0  0  0  0  0
  127.8130  127.1380   70.6190 C   0  0  0  0  0  0  0  0  0  0  0  0
  128.2630  126.6150   69.4090 C   0  0  0  0  0  0  0  0  0  0  0  0
  131.3280  126.0610   67.3840 N   0  0  0  0  0  0  0  0  0  0  0  0
  131.3220  125.5620   66.1090 C   0  0  0  0  0  0  0  0  0  0  0  0
  132.4030  125.1710   65.3050 C   0  0  0  0  0  0  0  0  0  0  0  0
  132.1570  125.8270   61.1950 C   0  0  0  0  0  0  0  0  0  0  0  0
  130.3620  130.2410   60.4790 C   0  0  0  0  0  0  0  0  0  0  0  0
  131.6350  130.5680   61.2910 C   0  0  0  0  0  0  0  0  0  0  0  0
  133.6141  131.8070   62.3718 H   0  0  0  0  0  0  0  0  0  0  0  0
  134.6483  131.1762   61.0455 H   0  0  0  0  0  0  0  0  0  0  0  0
  134.1389  132.8988   61.0455 H   0  0  0  0  0  0  0  0  0  0  0  0
  132.0492  132.4454   60.2953 H   0  0  0  0  0  0  0  0  0  0  0  0
  133.5537  131.5345   58.5537 H   0  0  0  0  0  0  0  0  0  0  0  0
  133.4736  129.9061   59.3346 H   0  0  0  0  0  0  0  0  0  0  0  0
  131.1251  131.4473   58.1033 H   0  0  0  0  0  0  0  0  0  0  0  0
  131.9585  129.9879   57.4143 H   0  0  0  0  0  0  0  0  0  0  0  0
  129.7574  129.4360   58.5580 H   0  0  0  0  0  0  0  0  0  0  0  0
  132.2840  128.1810   59.1610 H   0  0  0  0  0  0  0  0  0  0  0  0
  130.7885  124.9672   59.7472 H   0  0  0  0  0  0  0  0  0  0  0  0
  131.9672  125.7206   57.7039 H   0  0  0  0  0  0  0  0  0  0  0  0
  133.1181  126.6818   58.6933 H   0  0  0  0  0  0  0  0  0  0  0  0
  132.7683  123.6292   58.6769 H   0  0  0  0  0  0  0  0  0  0  0  0
  134.2082  124.5968   58.1294 H   0  0  0  0  0  0  0  0  0  0  0  0
  134.4982  123.4652   60.3820 H   0  0  0  0  0  0  0  0  0  0  0  0
  134.7227  125.2566   60.3874 H   0  0  0  0  0  0  0  0  0  0  0  0
  130.6431  124.2136   62.5316 H   0  0  0  0  0  0  0  0  0  0  0  0
  128.6911  124.9066   63.9487 H   0  0  0  0  0  0  0  0  0  0  0  0
  128.2210  126.0220   66.6820 H   0  0  0  0  0  0  0  0  0  0  0  0
  131.4768  127.7663   69.4758 H   0  0  0  0  0  0  0  0  0  0  0  0
  130.6714  128.7015   71.6392 H   0  0  0  0  0  0  0  0  0  0  0  0
  128.3256  128.2951   72.3693 H   0  0  0  0  0  0  0  0  0  0  0  0
  126.7772  126.9630   70.9455 H   0  0  0  0  0  0  0  0  0  0  0  0
  127.5794  126.0241   68.7817 H   0  0  0  0  0  0  0  0  0  0  0  0
  133.4359  125.2352   65.6778 H   0  0  0  0  0  0  0  0  0  0  0  0
  131.4063  125.8664   61.9980 H   0  0  0  0  0  0  0  0  0  0  0  0
  132.8225  126.6981   61.2858 H   0  0  0  0  0  0  0  0  0  0  0  0
  129.8101  131.1742   60.2932 H   0  0  0  0  0  0  0  0  0  0  0  0
  129.7591  129.5313   61.0645 H   0  0  0  0  0  0  0  0  0  0  0  0
  131.3461  131.0658   62.2284 H   0  0  0  0  0  0  0  0  0  0  0  0
  132.1674  129.6290   61.5025 H   0  0  0  0  0  0  0  0  0  0  0  0
  1  2  1  0
  2  3  1  0
  3  4  1  0
  4  5  1  0
  5  6  1  0
  6  7  1  0
  7  8  2  0
  7  9  1  0
  9 10  1  0
 10 11  1  0
 11 12  1  0
 12 13  1  0
 13 14  1  0
 14 15  2  0
 14 16  2  0
 14 17  1  0
 17 18  2  0
 18 19  1  0
 19 20  2  0
 20 21  1  0
 21 22  1  0
 22 23  1  0
 23 24  2  0
 24 25  1  0
 25 26  2  0
 26 27  1  0
 27 28  2  0
 22 29  2  0
 29 30  1  0
 30 31  2  0
 13 32  1  0
  5 33  1  0
 33 34  1  0
 34  2  1  0
 32  9  1  0
 31 17  1  0
 30 20  1  0
 28 23  1  0
  1 35  1  0
  1 36  1  0
  1 37  1  0
  2 38  1  6
  3 39  1  0
  3 40  1  0
  4 41  1  0
  4 42  1  0
  5 43  1  6
  6 44  1  0
  9 45  1  1
 10 46  1  0
 10 47  1  0
 11 48  1  0
 11 49  1  0
 12 50  1  0
 12 51  1  0
 18 52  1  0
 19 53  1  0
 21 54  1  0
 24 55  1  0
 25 56  1  0
 26 57  1  0
 27 58  1  0
 28 59  1  0
 31 60  1  0
 32 61  1  0
 32 62  1  0
 33 63  1  0
 33 64  1  0
 34 65  1  0
 34 66  1  0
M  END
>  <Binding energies>  (1) 
[-9.84]

>  <Ligand effiencies>  (1) 
[-0.2733333333333333]

>  <Interactions>  (1) 
["V-A:GLU:543:CD:4908, H-A:GLY:454:N:4050, H-A:TYR:484:OH:4348, V-B:TYR:539:CE2:9848, V-A:ARG:545:CZ:4926, V-A:ASN:362:CB:3176, V-A:ASP:366:CB:3212, V-A:PRO:540:CB:4885, V-A:PRO:540:CA:4883, V-A:ILE:369:CD1:3239, V-A:ASP:366:CG:3213, V-A:ILE:369:CG2:3237, V-B:GLU:543:CB:9878, V-B:GLU:543:CG:9879, V-B:GLU:543:CD:9880, V-A:ASP:366:CA:3210, V-B:HIS:456:CD2:9039, V-B:GLY:544:C:9884, V-A:HIS:456:CE1:4070, V-B:HIS:456:CE1:9041, V-B:GLU:543:C:9874, H-A:ARG:545:NH2:4928, V-A:GLU:543:CB:4906, V-A:GLU:543:C:4902, H-A:ASP:366:OD2:3215, V-A:LEU:363:CD1:3189, H-A:ASP:366:OD1:3214, H-A:ARG:545:NH1:4927, V-A:LEU:363:CA:3185, V-A:ASN:362:C:3172, H-B:GLU:543:OE2:9882, H-A:TYR:531:OH:4795"]

$$$$
RR11_Rahimova_2017
     RDKit          3D

 55 60  0  0  0  0  0  0  0  0999 V2000
  129.6350  133.3320   57.4680 N   0  0  0  0  0  0  0  0  0  0  0  0
  130.0420  132.0590   57.8630 C   0  0  0  0  0  0  0  0  0  0  0  0
  129.0970  131.0460   58.0190 C   0  0  0  0  0  0  0  0  0  0  0  0
  129.5040  129.7740   58.4100 C   0  0  0  0  0  0  0  0  0  0  0  0
  130.8580  129.5020   58.6480 C   0  0  0  0  0  0  0  0  0  0  0  0
  131.2960  128.1290   59.0640 C   0  0  0  0  0  0  0  0  0  0  0  0
  131.0000  127.5730   60.2190 N   0  0  0  0  0  0  0  0  0  0  0  0
  131.5790  126.3310   60.1810 C   0  0  0  0  0  0  0  0  0  0  0  0
  131.5680  125.3190   61.1500 C   0  0  0  0  0  0  0  0  0  0  0  0
  132.2260  124.1170   60.8650 C   0  0  0  0  0  0  0  0  0  0  0  0
  132.2360  123.0010   61.9010 C   0  0  0  0  0  0  0  0  0  0  0  0
  131.4810  123.3640   63.1710 C   0  0  0  0  0  0  0  0  0  0  0  0
  130.4300  122.5480   63.6040 C   0  0  0  0  0  0  0  0  0  0  0  0
  129.7130  122.8340   64.7680 C   0  0  0  0  0  0  0  0  0  0  0  0
  130.0770  123.9680   65.5060 C   0  0  0  0  0  0  0  0  0  0  0  0
  129.5340  124.4620   66.6630 N   0  0  0  0  0  0  0  0  0  0  0  0
  130.2310  125.5430   66.9410 C   0  0  0  0  0  0  0  0  0  0  0  0
  129.9820  126.4340   68.1240 C   0  0  0  0  0  0  0  0  0  0  0  0
  128.7220  126.4680   68.7340 C   0  0  0  0  0  0  0  0  0  0  0  0
  128.4870  127.3020   69.8250 C   0  0  0  0  0  0  0  0  0  0  0  0
  129.5130  128.1080   70.3130 C   0  0  0  0  0  0  0  0  0  0  0  0
  129.2780  128.9470   71.4010 N   0  0  0  0  0  0  0  0  0  0  0  0
  130.7720  128.0810   69.7190 C   0  0  0  0  0  0  0  0  0  0  0  0
  131.0060  127.2470   68.6290 C   0  0  0  0  0  0  0  0  0  0  0  0
  131.2210  125.7720   66.0080 N   0  0  0  0  0  0  0  0  0  0  0  0
  131.1510  124.7760   65.0630 C   0  0  0  0  0  0  0  0  0  0  0  0
  131.8760  124.4920   63.9030 C   0  0  0  0  0  0  0  0  0  0  0  0
  132.9010  123.9430   59.6500 C   0  0  0  0  0  0  0  0  0  0  0  0
  132.9340  124.9350   58.6670 C   0  0  0  0  0  0  0  0  0  0  0  0
  132.2600  126.1230   58.9580 C   0  0  0  0  0  0  0  0  0  0  0  0
  132.0580  127.2970   58.2700 N   0  0  0  0  0  0  0  0  0  0  0  0
  131.7970  130.5300   58.4880 C   0  0  0  0  0  0  0  0  0  0  0  0
  131.3920  131.8030   58.0970 C   0  0  0  0  0  0  0  0  0  0  0  0
  128.6610  133.5000   57.2590 H   0  0  0  0  0  0  0  0  0  0  0  0
  130.3110  134.0810   57.4360 H   0  0  0  0  0  0  0  0  0  0  0  0
  128.0324  131.2516   57.8335 H   0  0  0  0  0  0  0  0  0  0  0  0
  128.7572  128.9759   58.5332 H   0  0  0  0  0  0  0  0  0  0  0  0
  131.0545  125.4657   62.1117 H   0  0  0  0  0  0  0  0  0  0  0  0
  131.7701  122.1079   61.4591 H   0  0  0  0  0  0  0  0  0  0  0  0
  133.2844  122.8204   62.1809 H   0  0  0  0  0  0  0  0  0  0  0  0
  130.1619  121.6596   63.0133 H   0  0  0  0  0  0  0  0  0  0  0  0
  128.8859  122.1872   65.0961 H   0  0  0  0  0  0  0  0  0  0  0  0
  127.9117  125.8315   68.3489 H   0  0  0  0  0  0  0  0  0  0  0  0
  127.4948  127.3239   70.2994 H   0  0  0  0  0  0  0  0  0  0  0  0
  128.9980  128.5470   72.2860 H   0  0  0  0  0  0  0  0  0  0  0  0
  129.4250  129.9420   71.3030 H   0  0  0  0  0  0  0  0  0  0  0  0
  131.5798  128.7171   70.1100 H   0  0  0  0  0  0  0  0  0  0  0  0
  132.0012  127.2260   68.1610 H   0  0  0  0  0  0  0  0  0  0  0  0
  131.8560  126.5550   66.0550 H   0  0  0  0  0  0  0  0  0  0  0  0
  132.7166  125.1235   63.5797 H   0  0  0  0  0  0  0  0  0  0  0  0
  133.4229  122.9928   59.4636 H   0  0  0  0  0  0  0  0  0  0  0  0
  133.4631  124.7881   57.7138 H   0  0  0  0  0  0  0  0  0  0  0  0
  132.3830  127.5520   57.3500 H   0  0  0  0  0  0  0  0  0  0  0  0
  132.8626  130.3292   58.6729 H   0  0  0  0  0  0  0  0  0  0  0  0
  132.1351  132.6045   57.9730 H   0  0  0  0  0  0  0  0  0  0  0  0
  1  2  1  0
  2  3  2  0
  3  4  1  0
  4  5  2  0
  5  6  1  0
  6  7  2  0
  7  8  1  0
  8  9  2  0
  9 10  1  0
 10 11  1  0
 11 12  1  0
 12 13  2  0
 13 14  1  0
 14 15  2  0
 15 16  1  0
 16 17  2  0
 17 18  1  0
 18 19  2  0
 19 20  1  0
 20 21  2  0
 21 22  1  0
 21 23  1  0
 23 24  2  0
 17 25  1  0
 25 26  1  0
 26 27  2  0
 10 28  2  0
 28 29  1  0
 29 30  2  0
 30 31  1  0
  5 32  1  0
 32 33  2  0
 33  2  1  0
 31  6  1  0
 30  8  1  0
 27 12  1  0
 26 15  1  0
 24 18  1  0
  1 34  1  0
  1 35  1  0
  3 36  1  0
  4 37  1  0
  9 38  1  0
 11 39  1  0
 11 40  1  0
 13 41  1  0
 14 42  1  0
 19 43  1  0
 20 44  1  0
 22 45  1  0
 22 46  1  0
 23 47  1  0
 24 48  1  0
 25 49  1  0
 27 50  1  0
 28 51  1  0
 29 52  1  0
 31 53  1  0
 32 54  1  0
 33 55  1  0
M  END
>  <Binding energies>  (1) 
[-8.19]

>  <Ligand effiencies>  (1) 
[-0.21]

>  <Interactions>  (1) 
["V-A:GLU:543:CD:4908, H-A:TYR:484:OH:4348, V-B:TYR:539:CE2:9848, V-A:LEU:475:CD2:4259, V-A:TYR:539:CA:4869, V-A:ASP:366:CB:3212, V-A:PRO:540:CB:4885, V-A:TYR:539:CD1:4873, V-A:PRO:540:N:4884, V-A:PRO:540:CA:4883, V-A:TYR:531:CZ:4794, V-A:TYR:539:C:4867, V-A:ASP:366:CG:3213, V-A:ILE:369:CG2:3237, V-A:TYR:484:CZ:4347, H-A:GLU:543:OE2:4910, V-B:GLU:543:CB:9878, V-B:GLU:543:CG:9879, V-A:TYR:484:CE2:4346, V-B:ALA:541:CB:9864, V-A:ASP:366:CA:3210, V-B:HIS:456:CD2:9039, V-A:GLY:544:C:4912, V-A:HIS:456:CE1:4070, V-B:HIS:456:CE1:9041, V-B:GLU:543:C:9874, H-A:GLU:543:OE1:4909, V-A:GLU:543:CB:4906, V-A:GLU:543:C:4902, H-B:HIS:456:NE2:9042, V-B:GLU:543:CA:9876, V-A:ARG:545:CG:4922, V-A:GLU:543:CA:4904, H-A:GLU:543:O:4903, H-A:TYR:539:O:4868, H-A:TYR:531:OH:4795, V-A:TYR:539:CG:4872"]

$$$$
RR11_Rahimova_2017-again1
     RDKit          3D

 56 61  0  0  0  0  0  0  0  0999 V2000
  129.4370  128.9410   71.5720 N   0  0  0  0  0  0  0  0  0  0  0  0
  129.6280  128.1160   70.4650 C   0  0  0  0  0  0  0  0  0  0  0  0
  130.8210  128.1800   69.7490 C   0  0  0  0  0  0  0  0  0  0  0  0
  131.0090  127.3570   68.6410 C   0  0  0  0  0  0  0  0  0  0  0  0
  130.0050  126.4660   68.2400 C   0  0  0  0  0  0  0  0  0  0  0  0
  130.2050  125.5850   67.0400 C   0  0  0  0  0  0  0  0  0  0  0  0
  129.4990  124.5060   66.7860 N   0  0  0  0  0  0  0  0  0  0  0  0
  130.0180  123.9990   65.6230 C   0  0  0  0  0  0  0  0  0  0  0  0
  129.6410  122.8560   64.9070 C   0  0  0  0  0  0  0  0  0  0  0  0
  130.3460  122.5450   63.7430 C   0  0  0  0  0  0  0  0  0  0  0  0
  131.4040  123.3420   63.2920 C   0  0  0  0  0  0  0  0  0  0  0  0
  132.1430  122.9550   62.0190 C   0  0  0  0  0  0  0  0  0  0  0  0
  132.1420  124.0670   60.9790 C   0  0  0  0  0  0  0  0  0  0  0  0
  132.8160  123.8790   59.7670 C   0  0  0  0  0  0  0  0  0  0  0  0
  132.8520  124.8640   58.7760 C   0  0  0  0  0  0  0  0  0  0  0  0
  132.1740  126.0550   59.0520 C   0  0  0  0  0  0  0  0  0  0  0  0
  132.0160  127.2220   58.3160 N   0  0  0  0  0  0  0  0  0  0  0  0
  131.2590  128.1270   59.0230 C   0  0  0  0  0  0  0  0  0  0  0  0
  130.8740  129.5060   58.5940 C   0  0  0  0  0  0  0  0  0  0  0  0
  129.5880  129.9910   58.8590 C   0  0  0  0  0  0  0  0  0  0  0  0
  129.2270  131.2780   58.4690 C   0  0  0  0  0  0  0  0  0  0  0  0
  130.1520  132.0870   57.8110 C   0  0  0  0  0  0  0  0  0  0  0  0
  129.7900  133.3770   57.4250 N   0  0  0  0  0  0  0  0  0  0  0  0
  131.4350  131.6130   57.5400 C   0  0  0  0  0  0  0  0  0  0  0  0
  131.7950  130.3260   57.9300 C   0  0  0  0  0  0  0  0  0  0  0  0
  130.9320  127.5150   60.2110 N   0  0  0  0  0  0  0  0  0  0  0  0
  131.4830  126.2430   60.2600 C   0  0  0  0  0  0  0  0  0  0  0  0
  131.4450  125.2520   61.2450 C   0  0  0  0  0  0  0  0  0  0  0  0
  131.7840  124.5040   63.9780 C   0  0  0  0  0  0  0  0  0  0  0  0
  131.0800  124.8040   65.1460 C   0  0  0  0  0  0  0  0  0  0  0  0
  131.1650  125.8130   66.0770 N   0  0  0  0  0  0  0  0  0  0  0  0
  128.8110  126.4110   68.9700 C   0  0  0  0  0  0  0  0  0  0  0  0
  128.6220  127.2330   70.0780 C   0  0  0  0  0  0  0  0  0  0  0  0
  129.6640  129.9230   71.5050 H   0  0  0  0  0  0  0  0  0  0  0  0
  129.1130  128.5400   72.4400 H   0  0  0  0  0  0  0  0  0  0  0  0
  131.6126  128.8786   70.0577 H   0  0  0  0  0  0  0  0  0  0  0  0
  131.9521  127.4070   68.0771 H   0  0  0  0  0  0  0  0  0  0  0  0
  128.8121  122.2207   65.2524 H   0  0  0  0  0  0  0  0  0  0  0  0
  130.0630  121.6520   63.1665 H   0  0  0  0  0  0  0  0  0  0  0  0
  133.1851  122.7144   62.2762 H   0  0  0  0  0  0  0  0  0  0  0  0
  131.6223  122.0902   61.5819 H   0  0  0  0  0  0  0  0  0  0  0  0
  133.3342  122.9252   59.5885 H   0  0  0  0  0  0  0  0  0  0  0  0
  133.3867  124.7099   57.8271 H   0  0  0  0  0  0  0  0  0  0  0  0
  132.3880  127.4250   57.3990 H   0  0  0  0  0  0  0  0  0  0  0  0
  128.8586  129.3519   59.3782 H   0  0  0  0  0  0  0  0  0  0  0  0
  128.2153  131.6550   58.6794 H   0  0  0  0  0  0  0  0  0  0  0  0
  130.5040  134.0840   57.3230 H   0  0  0  0  0  0  0  0  0  0  0  0
  128.8170  133.5980   57.2780 H   0  0  0  0  0  0  0  0  0  0  0  0
  132.1611  132.2545   57.0192 H   0  0  0  0  0  0  0  0  0  0  0  0
  132.8069  129.9516   57.7158 H   0  0  0  0  0  0  0  0  0  0  0  0
  130.3740  127.9720   60.9170 H   0  0  0  0  0  0  0  0  0  0  0  0
  130.8931  125.3963   62.1855 H   0  0  0  0  0  0  0  0  0  0  0  0
  132.5976  125.1485   63.6137 H   0  0  0  0  0  0  0  0  0  0  0  0
  131.8030  126.5960   66.1030 H   0  0  0  0  0  0  0  0  0  0  0  0
  128.0167  125.7134   68.6659 H   0  0  0  0  0  0  0  0  0  0  0  0
  127.6813  127.1854   70.6461 H   0  0  0  0  0  0  0  0  0  0  0  0
  1  2  1  0
  2  3  2  0
  3  4  1  0
  4  5  2  0
  5  6  1  0
  6  7  2  0
  7  8  1  0
  8  9  2  0
  9 10  1  0
 10 11  2  0
 11 12  1  0
 12 13  1  0
 13 14  2  0
 14 15  1  0
 15 16  2  0
 16 17  1  0
 17 18  1  0
 18 19  1  0
 19 20  2  0
 20 21  1  0
 21 22  2  0
 22 23  1  0
 22 24  1  0
 24 25  2  0
 18 26  2  0
 26 27  1  0
 27 28  2  0
 11 29  1  0
 29 30  2  0
 30 31  1  0
  5 32  1  0
 32 33  2  0
 33  2  1  0
 31  6  1  0
 30  8  1  0
 28 13  1  0
 27 16  1  0
 25 19  1  0
  1 34  1  0
  1 35  1  0
  3 36  1  0
  4 37  1  0
  9 38  1  0
 10 39  1  0
 12 40  1  0
 12 41  1  0
 14 42  1  0
 15 43  1  0
 17 44  1  0
 20 45  1  0
 21 46  1  0
 23 47  1  0
 23 48  1  0
 24 49  1  0
 25 50  1  0
 26 51  1  0
 28 52  1  0
 29 53  1  0
 31 54  1  0
 32 55  1  0
 33 56  1  0
M  CHG  1  26   1
M  END
>  <Binding energies>  (1) 
[-8.94]

>  <Ligand effiencies>  (1) 
[-0.22349999999999998]

>  <Interactions>  (1) 
["V-A:GLU:543:CD:4908, H-A:TYR:484:OH:4348, V-B:TYR:539:CE2:9848, V-A:LEU:475:CD2:4259, V-A:TYR:539:CA:4869, V-A:ASP:366:CB:3212, V-A:TYR:539:CD1:4873, V-A:PRO:540:N:4884, V-A:PRO:540:CA:4883, V-A:TYR:539:C:4867, V-A:ASP:366:CG:3213, V-A:ILE:369:CG2:3237, V-A:TYR:484:CZ:4347, H-A:GLU:543:OE2:4910, V-B:GLU:543:CB:9878, V-B:GLU:543:CG:9879, V-A:TYR:484:CE2:4346, V-B:ALA:541:CB:9864, V-A:ASP:366:CA:3210, V-B:HIS:456:CD2:9039, V-A:GLY:544:C:4912, V-A:HIS:456:CE1:4070, V-B:HIS:456:CE1:9041, V-B:GLU:543:C:9874, H-A:GLU:543:OE1:4909, V-A:GLU:543:CB:4906, V-A:GLU:543:C:4902, H-B:HIS:456:NE2:9042, V-B:GLU:543:CA:9876, V-A:ARG:545:CG:4922, V-A:GLU:543:CA:4904, H-A:GLU:543:O:4903, H-A:TYR:539:O:4868, H-A:ASP:366:OD2:3215, V-A:PRO:540:CD:4887, H-A:TYR:531:OH:4795"]

$$$$
RR11_Rahimova_2017-again2
     RDKit          3D

 57 62  0  0  0  0  0  0  0  0999 V2000
  129.5600  133.5580   57.6310 N   0  0  0  0  0  0  0  0  0  0  0  0
  129.9870  132.2830   58.0000 C   0  0  0  0  0  0  0  0  0  0  0  0
  131.0980  131.7170   57.3780 C   0  0  0  0  0  0  0  0  0  0  0  0
  131.5200  130.4410   57.7410 C   0  0  0  0  0  0  0  0  0  0  0  0
  130.8340  129.7250   58.7300 C   0  0  0  0  0  0  0  0  0  0  0  0
  131.2810  128.3520   59.1130 C   0  0  0  0  0  0  0  0  0  0  0  0
  131.0660  127.7220   60.3180 N   0  0  0  0  0  0  0  0  0  0  0  0
  131.6130  126.4460   60.2940 C   0  0  0  0  0  0  0  0  0  0  0  0
  131.6470  125.4310   61.2530 C   0  0  0  0  0  0  0  0  0  0  0  0
  132.2750  124.2340   60.8880 C   0  0  0  0  0  0  0  0  0  0  0  0
  132.3390  123.0880   61.8900 C   0  0  0  0  0  0  0  0  0  0  0  0
  131.5910  123.3910   63.1810 C   0  0  0  0  0  0  0  0  0  0  0  0
  130.5800  122.5250   63.6120 C   0  0  0  0  0  0  0  0  0  0  0  0
  129.8590  122.7510   64.7870 C   0  0  0  0  0  0  0  0  0  0  0  0
  130.2000  123.8890   65.5220 C   0  0  0  0  0  0  0  0  0  0  0  0
  129.6930  124.4110   66.7050 N   0  0  0  0  0  0  0  0  0  0  0  0
  130.3600  125.5690   67.0340 C   0  0  0  0  0  0  0  0  0  0  0  0
  130.1070  126.4430   68.2190 C   0  0  0  0  0  0  0  0  0  0  0  0
  131.0810  127.3520   68.6460 C   0  0  0  0  0  0  0  0  0  0  0  0
  130.8420  128.1750   69.7440 C   0  0  0  0  0  0  0  0  0  0  0  0
  129.6260  128.0920   70.4210 C   0  0  0  0  0  0  0  0  0  0  0  0
  129.3840  128.9190   71.5170 N   0  0  0  0  0  0  0  0  0  0  0  0
  128.6500  127.1870   70.0060 C   0  0  0  0  0  0  0  0  0  0  0  0
  128.8900  126.3650   68.9080 C   0  0  0  0  0  0  0  0  0  0  0  0
  131.3000  125.7680   66.0500 N   0  0  0  0  0  0  0  0  0  0  0  0
  131.2230  124.7550   65.1030 C   0  0  0  0  0  0  0  0  0  0  0  0
  131.9450  124.5210   63.9300 C   0  0  0  0  0  0  0  0  0  0  0  0
  132.8670  124.0800   59.6280 C   0  0  0  0  0  0  0  0  0  0  0  0
  132.8420  125.0940   58.6680 C   0  0  0  0  0  0  0  0  0  0  0  0
  132.1970  126.2810   59.0270 C   0  0  0  0  0  0  0  0  0  0  0  0
  131.9790  127.4620   58.3300 N   0  0  0  0  0  0  0  0  0  0  0  0
  129.7220  130.3050   59.3510 C   0  0  0  0  0  0  0  0  0  0  0  0
  129.2990  131.5810   58.9870 C   0  0  0  0  0  0  0  0  0  0  0  0
  130.1980  134.3370   57.7060 H   0  0  0  0  0  0  0  0  0  0  0  0
  128.5980  133.7010   57.3570 H   0  0  0  0  0  0  0  0  0  0  0  0
  131.6403  132.2771   56.6020 H   0  0  0  0  0  0  0  0  0  0  0  0
  132.3960  129.9932   57.2489 H   0  0  0  0  0  0  0  0  0  0  0  0
  130.5700  128.1640   61.0780 H   0  0  0  0  0  0  0  0  0  0  0  0
  131.2008  125.5659   62.2494 H   0  0  0  0  0  0  0  0  0  0  0  0
  131.8961  122.1928   61.4290 H   0  0  0  0  0  0  0  0  0  0  0  0
  133.3968  122.9327   62.1486 H   0  0  0  0  0  0  0  0  0  0  0  0
  130.3453  121.6375   63.0060 H   0  0  0  0  0  0  0  0  0  0  0  0
  129.0629  122.0673   65.1168 H   0  0  0  0  0  0  0  0  0  0  0  0
  128.9450  124.0380   67.2720 H   0  0  0  0  0  0  0  0  0  0  0  0
  132.0404  127.4171   68.1119 H   0  0  0  0  0  0  0  0  0  0  0  0
  131.6105  128.8885   70.0761 H   0  0  0  0  0  0  0  0  0  0  0  0
  128.8240  128.5780   72.2840 H   0  0  0  0  0  0  0  0  0  0  0  0
  129.7160  129.8730   71.5010 H   0  0  0  0  0  0  0  0  0  0  0  0
  127.6930  127.1225   70.5445 H   0  0  0  0  0  0  0  0  0  0  0  0
  128.1202  125.6510   68.5801 H   0  0  0  0  0  0  0  0  0  0  0  0
  131.9290  126.5580   66.0550 H   0  0  0  0  0  0  0  0  0  0  0  0
  132.7544  125.1932   63.6091 H   0  0  0  0  0  0  0  0  0  0  0  0
  133.3674  123.1305   59.3870 H   0  0  0  0  0  0  0  0  0  0  0  0
  133.3065  124.9651   57.6792 H   0  0  0  0  0  0  0  0  0  0  0  0
  132.2640  127.6820   57.3870 H   0  0  0  0  0  0  0  0  0  0  0  0
  129.1793  129.7502   60.1306 H   0  0  0  0  0  0  0  0  0  0  0  0
  128.4243  132.0331   59.4774 H   0  0  0  0  0  0  0  0  0  0  0  0
  1  2  1  0
  2  3  2  0
  3  4  1  0
  4  5  2  0
  5  6  1  0
  6  7  1  0
  7  8  1  0
  8  9  2  0
  9 10  1  0
 10 11  1  0
 11 12  1  0
 12 13  2  0
 13 14  1  0
 14 15  2  0
 15 16  1  0
 16 17  1  0
 17 18  1  0
 18 19  2  0
 19 20  1  0
 20 21  2  0
 21 22  1  0
 21 23  1  0
 23 24  2  0
 17 25  2  0
 25 26  1  0
 26 27  2  0
 10 28  2  0
 28 29  1  0
 29 30  2  0
 30 31  1  0
  5 32  1  0
 32 33  2  0
 33  2  1  0
 31  6  2  0
 30  8  1  0
 27 12  1  0
 26 15  1  0
 24 18  1  0
  1 34  1  0
  1 35  1  0
  3 36  1  0
  4 37  1  0
  7 38  1  0
  9 39  1  0
 11 40  1  0
 11 41  1  0
 13 42  1  0
 14 43  1  0
 16 44  1  0
 19 45  1  0
 20 46  1  0
 22 47  1  0
 22 48  1  0
 23 49  1  0
 24 50  1  0
 25 51  1  0
 27 52  1  0
 28 53  1  0
 29 54  1  0
 31 55  1  0
 32 56  1  0
 33 57  1  0
M  CHG  2  25   1  31   1
M  END
>  <Binding energies>  (1) 
[-9.38]

>  <Ligand effiencies>  (1) 
[-0.22878048780487806]

>  <Interactions>  (1) 
["V-A:GLU:543:CD:4908, V-B:TYR:539:CE2:9848, V-A:LEU:475:CD2:4259, V-A:TYR:539:CA:4869, V-A:ASP:366:CB:3212, V-A:TYR:539:CD1:4873, V-A:PRO:540:N:4884, V-A:PRO:540:CA:4883, V-A:TYR:531:CZ:4794, V-A:TYR:539:C:4867, V-A:ASP:366:CG:3213, V-A:TYR:484:CZ:4347, H-A:GLU:543:OE2:4910, V-B:GLU:543:CB:9878, V-B:GLU:543:CG:9879, V-A:TYR:484:CE2:4346, V-B:ALA:541:CB:9864, V-A:ASP:366:CA:3210, V-B:HIS:456:CD2:9039, V-A:GLY:544:C:4912, V-A:HIS:456:CE1:4070, V-B:HIS:456:CE1:9041, V-B:GLU:543:C:9874, H-A:GLU:543:OE1:4909, H-B:GLU:543:O:9875, V-A:GLU:543:CB:4906, V-A:GLU:543:C:4902, H-B:HIS:456:NE2:9042, V-B:GLU:543:CA:9876, V-A:ARG:545:CG:4922, V-A:GLU:543:CA:4904, H-A:GLU:543:O:4903, H-A:TYR:539:O:4868, H-A:ASP:366:OD2:3215, V-A:PRO:540:CD:4887, H-A:TYR:531:OH:4795, V-A:TYR:539:CG:4872"]

$$$$
RR12_Rahimova_2017
     RDKit          3D

 51 53  0  0  0  0  0  0  0  0999 V2000
  129.9570  125.2210   60.5370 C   0  0  0  0  0  0  0  0  0  0  0  0
  129.4720  124.5880   59.2250 C   0  0  0  0  0  0  0  0  0  0  0  0
  128.9340  123.1590   59.4210 C   0  0  0  0  0  0  0  0  0  0  0  0
  127.7820  123.1580   60.3200 N   0  0  0  0  0  0  0  0  0  0  0  0
  127.7750  122.8980   61.6820 C   0  0  0  0  0  0  0  0  0  0  0  0
  129.0100  122.5140   62.4780 C   0  0  0  0  0  0  0  0  0  0  0  0
  128.8870  122.8830   63.9680 C   0  0  0  0  0  0  0  0  0  0  0  0
  130.0640  122.3590   64.8110 C   0  0  0  0  0  0  0  0  0  0  0  0
  131.2450  123.2210   64.7770 N   0  0  0  0  0  0  0  0  0  0  0  0
  131.2180  124.5660   64.7560 C   0  0  0  0  0  0  0  0  0  0  0  0
  130.1740  125.2210   64.7600 O   0  0  0  0  0  0  0  0  0  0  0  0
  132.5880  125.2570   64.7310 C   0  0  0  0  0  0  0  0  0  0  0  0
  133.5700  124.3510   64.2260 O   0  0  0  0  0  0  0  0  0  0  0  0
  133.4780  123.9140   62.9180 C   0  0  0  0  0  0  0  0  0  0  0  0
  133.4830  122.5310   62.7240 C   0  0  0  0  0  0  0  0  0  0  0  0
  133.3910  121.9950   61.4420 C   0  0  0  0  0  0  0  0  0  0  0  0
  133.2930  122.8470   60.3460 C   0  0  0  0  0  0  0  0  0  0  0  0
  133.2880  124.2290   60.5200 C   0  0  0  0  0  0  0  0  0  0  0  0
  133.3810  124.7630   61.8030 C   0  0  0  0  0  0  0  0  0  0  0  0
  126.5860  122.9990   62.2240 N   0  0  0  0  0  0  0  0  0  0  0  0
  125.7620  123.3660   61.1960 C   0  0  0  0  0  0  0  0  0  0  0  0
  124.3830  123.6240   61.2200 C   0  0  0  0  0  0  0  0  0  0  0  0
  123.7630  123.9930   60.0250 C   0  0  0  0  0  0  0  0  0  0  0  0
  124.4870  124.1040   58.8380 C   0  0  0  0  0  0  0  0  0  0  0  0
  125.8590  123.8530   58.7820 C   0  0  0  0  0  0  0  0  0  0  0  0
  126.4810  123.4820   59.9800 C   0  0  0  0  0  0  0  0  0  0  0  0
  129.5338  124.6687   61.3890 H   0  0  0  0  0  0  0  0  0  0  0  0
  131.0553  125.1777   60.5810 H   0  0  0  0  0  0  0  0  0  0  0  0
  129.6294  126.2702   60.5810 H   0  0  0  0  0  0  0  0  0  0  0  0
  128.6685  125.2130   58.8082 H   0  0  0  0  0  0  0  0  0  0  0  0
  130.3343  124.5291   58.5446 H   0  0  0  0  0  0  0  0  0  0  0  0
  128.6309  122.7507   58.4456 H   0  0  0  0  0  0  0  0  0  0  0  0
  129.7283  122.5405   59.8644 H   0  0  0  0  0  0  0  0  0  0  0  0
  129.1602  121.4275   62.3945 H   0  0  0  0  0  0  0  0  0  0  0  0
  129.8626  123.0721   62.0638 H   0  0  0  0  0  0  0  0  0  0  0  0
  128.8512  123.9788   64.0570 H   0  0  0  0  0  0  0  0  0  0  0  0
  127.9695  122.4126   64.3513 H   0  0  0  0  0  0  0  0  0  0  0  0
  129.7299  122.2697   65.8552 H   0  0  0  0  0  0  0  0  0  0  0  0
  130.3611  121.3918   64.3795 H   0  0  0  0  0  0  0  0  0  0  0  0
  132.1410  122.7540   64.7750 H   0  0  0  0  0  0  0  0  0  0  0  0
  132.5394  126.1439   64.0821 H   0  0  0  0  0  0  0  0  0  0  0  0
  132.8624  125.5633   65.7512 H   0  0  0  0  0  0  0  0  0  0  0  0
  133.5603  121.8591   63.5915 H   0  0  0  0  0  0  0  0  0  0  0  0
  133.3958  120.9047   61.2965 H   0  0  0  0  0  0  0  0  0  0  0  0
  133.2188  122.4251   59.3328 H   0  0  0  0  0  0  0  0  0  0  0  0
  133.2110  124.8955   59.6483 H   0  0  0  0  0  0  0  0  0  0  0  0
  133.3785  125.8540   61.9438 H   0  0  0  0  0  0  0  0  0  0  0  0
  123.8072  123.5380   62.1533 H   0  0  0  0  0  0  0  0  0  0  0  0
  122.6827  124.2002   60.0193 H   0  0  0  0  0  0  0  0  0  0  0  0
  123.9608  124.3983   57.9180 H   0  0  0  0  0  0  0  0  0  0  0  0
  126.4239  123.9424   57.8424 H   0  0  0  0  0  0  0  0  0  0  0  0
  1  2  1  0
  2  3  1  0
  3  4  1  0
  4  5  1  0
  5  6  1  0
  6  7  1  0
  7  8  1  0
  8  9  1  0
  9 10  1  0
 10 11  2  0
 10 12  1  0
 12 13  1  0
 13 14  1  0
 14 15  2  0
 15 16  1  0
 16 17  2  0
 17 18  1  0
 18 19  2  0
  5 20  2  0
 20 21  1  0
 21 22  2  0
 22 23  1  0
 23 24  2  0
 24 25  1  0
 25 26  2  0
 26  4  1  0
 19 14  1  0
 26 21  1  0
  1 27  1  0
  1 28  1  0
  1 29  1  0
  2 30  1  0
  2 31  1  0
  3 32  1  0
  3 33  1  0
  6 34  1  0
  6 35  1  0
  7 36  1  0
  7 37  1  0
  8 38  1  0
  8 39  1  0
  9 40  1  0
 12 41  1  0
 12 42  1  0
 15 43  1  0
 16 44  1  0
 17 45  1  0
 18 46  1  0
 19 47  1  0
 22 48  1  0
 23 49  1  0
 24 50  1  0
 25 51  1  0
M  END
>  <Binding energies>  (1) 
[-6.69]

>  <Ligand effiencies>  (1) 
[-0.2477777777777778]

>  <Interactions>  (1) 
["V-B:LEU:363:CA:8156, V-B:TYR:539:CD2:9846, H-A:GLY:454:N:4050, V-B:ASP:366:CG:8184, V-B:LEU:363:CD1:8160, V-B:PRO:540:CB:9857, H-A:TYR:484:OH:4348, V-B:TYR:539:CE2:9848, V-B:TYR:539:CZ:9849, V-A:ARG:545:CZ:4926, V-A:LEU:475:CD2:4259, V-B:PRO:540:CA:9855, H-B:ALA:541:N:9863, V-A:GLY:454:CA:4049, V-B:ASN:362:CB:8147, V-A:ASP:366:CG:3213, V-A:ILE:369:CG2:3237, V-A:TYR:484:CZ:4347, V-B:LEU:363:CB:8158, V-B:GLU:543:CG:9879, V-A:TYR:484:CE2:4346, V-B:GLU:543:CD:9880, V-B:ASN:362:C:8143, V-B:ALA:541:CB:9864, V-B:PRO:540:C:9853"]

$$$$
RR13_Rahimova_2017
     RDKit          3D

 84 90  0  0  0  0  0  0  0  0999 V2000
  129.3510  122.2580   64.8960 Cl  0  0  0  0  0  0  0  0  0  0  0  0
  129.7640  122.7870   63.3000 C   0  0  0  0  0  0  0  0  0  0  0  0
  130.0030  121.8080   62.3320 C   0  0  0  0  0  0  0  0  0  0  0  0
  130.3600  122.1690   61.0360 C   0  0  0  0  0  0  0  0  0  0  0  0
  130.4830  123.5140   60.6980 C   0  0  0  0  0  0  0  0  0  0  0  0
  130.2460  124.4960   61.6580 C   0  0  0  0  0  0  0  0  0  0  0  0
  129.8740  124.1520   62.9680 C   0  0  0  0  0  0  0  0  0  0  0  0
  129.6420  125.2590   64.0200 C   0  0  1  0  0  0  0  0  0  0  0  0
  130.8520  125.3940   64.9560 C   0  0  0  0  0  0  0  0  0  0  0  0
  132.1160  125.4570   64.6010 N   0  0  0  0  0  0  0  0  0  0  0  0
  132.8410  125.5460   65.7850 N   0  0  0  0  0  0  0  0  0  0  0  0
  131.9850  125.5160   66.8690 N   0  0  0  0  0  0  0  0  0  0  0  0
  130.7660  125.3960   66.3320 N   0  0  0  0  0  0  0  0  0  0  0  0
  129.5840  125.3700   67.1860 C   0  0  0  0  0  0  0  0  0  0  0  0
  129.1060  126.8050   67.4790 C   0  0  0  0  0  0  0  0  0  0  0  0
  129.3840  127.2210   68.9150 C   0  0  0  0  0  0  0  0  0  0  0  0
  128.3830  127.1000   69.8830 C   0  0  0  0  0  0  0  0  0  0  0  0
  128.6360  127.4880   71.1960 C   0  0  0  0  0  0  0  0  0  0  0  0
  129.8890  127.9950   71.5360 C   0  0  0  0  0  0  0  0  0  0  0  0
  130.8900  128.1190   70.5760 C   0  0  0  0  0  0  0  0  0  0  0  0
  130.6380  127.7310   69.2620 C   0  0  0  0  0  0  0  0  0  0  0  0
  129.2360  126.5580   63.4310 N   0  0  0  0  0  0  0  0  0  0  0  0
  128.6830  127.4470   64.4700 C   0  0  0  0  0  0  0  0  0  0  0  0
  128.3820  128.8490   63.8890 C   0  0  0  0  0  0  0  0  0  0  0  0
  127.3840  128.7600   62.8110 N   0  0  0  0  0  0  0  0  0  0  0  0
  127.0040  130.0900   62.2810 C   0  0  1  0  0  0  0  0  0  0  0  0
  125.4870  130.3330   62.1170 C   0  0  0  0  0  0  0  0  0  0  0  0
  125.0450  130.8070   60.8740 C   0  0  0  0  0  0  0  0  0  0  0  0
  123.6920  131.0380   60.6310 C   0  0  0  0  0  0  0  0  0  0  0  0
  122.7560  130.8040   61.6350 C   0  0  0  0  0  0  0  0  0  0  0  0
  123.1760  130.3500   62.8820 C   0  0  0  0  0  0  0  0  0  0  0  0
  124.5300  130.1180   63.1370 C   0  0  0  0  0  0  0  0  0  0  0  0
  124.9580  129.6200   64.7390 Cl  0  0  0  0  0  0  0  0  0  0  0  0
  127.6420  131.2490   63.0500 C   0  0  0  0  0  0  0  0  0  0  0  0
  127.5570  131.4420   64.3460 N   0  0  0  0  0  0  0  0  0  0  0  0
  128.2940  132.5920   64.6100 N   0  0  0  0  0  0  0  0  0  0  0  0
  128.8400  133.0830   63.4420 N   0  0  0  0  0  0  0  0  0  0  0  0
  128.4420  132.2260   62.4950 N   0  0  0  0  0  0  0  0  0  0  0  0
  128.8220  132.4460   61.1040 C   0  0  0  0  0  0  0  0  0  0  0  0
  129.6450  131.2570   60.5760 C   0  0  0  0  0  0  0  0  0  0  0  0
  131.1310  131.4170   60.8560 C   0  0  0  0  0  0  0  0  0  0  0  0
  132.0470  131.3840   59.8010 C   0  0  0  0  0  0  0  0  0  0  0  0
  133.4070  131.5380   60.0570 C   0  0  0  0  0  0  0  0  0  0  0  0
  133.8460  131.7240   61.3670 C   0  0  0  0  0  0  0  0  0  0  0  0
  132.9370  131.7590   62.4230 C   0  0  0  0  0  0  0  0  0  0  0  0
  131.5770  131.6060   62.1680 C   0  0  0  0  0  0  0  0  0  0  0  0
  127.9420  127.8750   61.7730 C   0  0  0  0  0  0  0  0  0  0  0  0
  128.2320  126.4730   62.3570 C   0  0  0  0  0  0  0  0  0  0  0  0
  129.9083  120.7444   62.5961 H   0  0  0  0  0  0  0  0  0  0  0  0
  130.5448  121.3922   60.2794 H   0  0  0  0  0  0  0  0  0  0  0  0
  130.7668  123.8011   59.6748 H   0  0  0  0  0  0  0  0  0  0  0  0
  130.3519  125.5565   61.3857 H   0  0  0  0  0  0  0  0  0  0  0  0
  128.7821  124.9390   64.6268 H   0  0  0  0  0  0  0  0  0  0  0  0
  128.7808  124.8164   66.6776 H   0  0  0  0  0  0  0  0  0  0  0  0
  129.8386  124.8762   68.1354 H   0  0  0  0  0  0  0  0  0  0  0  0
  129.6280  127.4974   66.8022 H   0  0  0  0  0  0  0  0  0  0  0  0
  128.0176  126.8369   67.3228 H   0  0  0  0  0  0  0  0  0  0  0  0
  127.3965  126.6987   69.6078 H   0  0  0  0  0  0  0  0  0  0  0  0
  127.8511  127.3949   71.9610 H   0  0  0  0  0  0  0  0  0  0  0  0
  130.0892  128.3004   72.5736 H   0  0  0  0  0  0  0  0  0  0  0  0
  131.8753  128.5215   70.8539 H   0  0  0  0  0  0  0  0  0  0  0  0
  131.4246  127.8259   68.4990 H   0  0  0  0  0  0  0  0  0  0  0  0
  127.7517  127.0105   64.8600 H   0  0  0  0  0  0  0  0  0  0  0  0
  129.4238  127.5508   65.2765 H   0  0  0  0  0  0  0  0  0  0  0  0
  127.9931  129.4959   64.6891 H   0  0  0  0  0  0  0  0  0  0  0  0
  129.3116  129.2693   63.4777 H   0  0  0  0  0  0  0  0  0  0  0  0
  127.4202  130.0673   61.2630 H   0  0  0  0  0  0  0  0  0  0  0  0
  125.7782  130.9999   60.0770 H   0  0  0  0  0  0  0  0  0  0  0  0
  123.3641  131.4048   59.6472 H   0  0  0  0  0  0  0  0  0  0  0  0
  121.6869  130.9776   61.4431 H   0  0  0  0  0  0  0  0  0  0  0  0
  122.4344  130.1721   63.6747 H   0  0  0  0  0  0  0  0  0  0  0  0
  127.9136  132.5571   60.4937 H   0  0  0  0  0  0  0  0  0  0  0  0
  129.4339  133.3580   61.0421 H   0  0  0  0  0  0  0  0  0  0  0  0
  129.2900  130.3366   61.0627 H   0  0  0  0  0  0  0  0  0  0  0  0
  129.5101  131.2110   59.4853 H   0  0  0  0  0  0  0  0  0  0  0  0
  131.6940  131.2365   58.7697 H   0  0  0  0  0  0  0  0  0  0  0  0
  134.1314  131.5130   59.2296 H   0  0  0  0  0  0  0  0  0  0  0  0
  134.9205  131.8443   61.5693 H   0  0  0  0  0  0  0  0  0  0  0  0
  133.2926  131.9069   63.4534 H   0  0  0  0  0  0  0  0  0  0  0  0
  130.8545  131.6337   62.9970 H   0  0  0  0  0  0  0  0  0  0  0  0
  127.2188  127.7818   60.9494 H   0  0  0  0  0  0  0  0  0  0  0  0
  128.8830  128.3086   61.4034 H   0  0  0  0  0  0  0  0  0  0  0  0
  127.3013  126.0512   62.7643 H   0  0  0  0  0  0  0  0  0  0  0  0
  128.6225  125.8283   61.5559 H   0  0  0  0  0  0  0  0  0  0  0  0
  1  2  1  0
  2  3  2  0
  3  4  1  0
  4  5  2  0
  5  6  1  0
  6  7  2  0
  7  8  1  0
  8  9  1  0
  9 10  2  0
 10 11  1  0
 11 12  2  0
 12 13  1  0
 13 14  1  0
 14 15  1  0
 15 16  1  0
 16 17  2  0
 17 18  1  0
 18 19  2  0
 19 20  1  0
 20 21  2  0
  8 22  1  0
 22 23  1  0
 23 24  1  0
 24 25  1  0
 25 26  1  0
 26 27  1  0
 27 28  2  0
 28 29  1  0
 29 30  2  0
 30 31  1  0
 31 32  2  0
 32 33  1  0
 26 34  1  0
 34 35  2  0
 35 36  1  0
 36 37  2  0
 37 38  1  0
 38 39  1  0
 39 40  1  0
 40 41  1  0
 41 42  2  0
 42 43  1  0
 43 44  2  0
 44 45  1  0
 45 46  2  0
 25 47  1  0
 47 48  1  0
  7  2  1  0
 13  9  1  0
 21 16  1  0
 48 22  1  0
 32 27  1  0
 38 34  1  0
 46 41  1  0
  3 49  1  0
  4 50  1  0
  5 51  1  0
  6 52  1  0
  8 53  1  1
 14 54  1  0
 14 55  1  0
 15 56  1  0
 15 57  1  0
 17 58  1  0
 18 59  1  0
 19 60  1  0
 20 61  1  0
 21 62  1  0
 23 63  1  0
 23 64  1  0
 24 65  1  0
 24 66  1  0
 26 67  1  6
 28 68  1  0
 29 69  1  0
 30 70  1  0
 31 71  1  0
 39 72  1  0
 39 73  1  0
 40 74  1  0
 40 75  1  0
 42 76  1  0
 43 77  1  0
 44 78  1  0
 45 79  1  0
 46 80  1  0
 47 81  1  0
 47 82  1  0
 48 83  1  0
 48 84  1  0
M  END
>  <Binding energies>  (1) 
[-12.5]

>  <Ligand effiencies>  (1) 
[-0.2604166666666667]

>  <Interactions>  (1) 
["V-B:TYR:539:CD2:9846, V-A:GLU:543:CD:4908, V-B:ASP:366:CG:8184, H-A:TYR:484:OH:4348, V-B:TYR:539:CE2:9848, H-A:ARG:545:NE:4924, V-A:LEU:475:CD2:4259, V-A:ASN:362:CB:3176, V-B:ILE:369:CB:8207, V-A:PRO:540:CB:4885, V-A:PRO:540:CA:4883, V-B:GLY:453:C:9013, V-B:ILE:369:CG2:8208, V-B:GLY:453:CA:9015, V-B:ASP:366:CA:8181, H-A:ALA:541:N:4891, V-B:ILE:369:CG1:8209, V-A:ASP:366:CG:3213, V-B:GLU:543:CB:9878, V-B:GLU:543:CG:9879, V-A:TYR:484:CE2:4346, V-B:GLU:543:CD:9880, V-B:ALA:541:CB:9864, V-B:HIS:456:CD2:9039, V-A:GLY:544:C:4912, V-A:HIS:456:CE1:4070, V-B:HIS:456:CE1:9041, V-B:GLU:543:C:9874, H-A:ARG:545:NH2:4928, V-A:GLU:543:CB:4906, V-A:GLU:543:C:4902, V-B:ARG:545:CZ:9898, H-B:TYR:484:OH:9319, V-B:GLU:543:CA:9876, V-A:LEU:363:CA:3185, V-A:LEU:363:CB:3187, V-A:ASN:362:C:3172"]

$$$$
RR14_Rahimova_2017
     RDKit          3D

 76 80  0  0  0  0  0  0  0  0999 V2000
  127.3370  128.8750   74.7780 C   0  0  0  0  0  0  0  0  0  0  0  0
  128.1500  127.8330   74.2490 O   0  0  0  0  0  0  0  0  0  0  0  0
  128.3360  127.7530   72.8820 C   0  0  0  0  0  0  0  0  0  0  0  0
  127.4810  126.8980   72.1860 C   0  0  0  0  0  0  0  0  0  0  0  0
  127.6090  126.7340   70.8110 C   0  0  0  0  0  0  0  0  0  0  0  0
  128.6040  127.4240   70.1150 C   0  0  0  0  0  0  0  0  0  0  0  0
  128.7900  127.1970   68.6190 C   0  0  0  0  0  0  0  0  0  0  0  0
  130.1670  126.8700   68.2500 N   0  0  0  0  0  0  0  0  0  0  0  0
  131.1890  127.5490   68.7820 N   0  0  0  0  0  0  0  0  0  0  0  0
  132.3150  127.0040   68.1970 N   0  0  0  0  0  0  0  0  0  0  0  0
  131.9520  125.9980   67.3060 N   0  0  0  0  0  0  0  0  0  0  0  0
  130.6420  125.9390   67.3510 C   0  0  0  0  0  0  0  0  0  0  0  0
  129.7780  124.9980   66.5230 C   0  0  0  0  0  0  0  0  0  0  0  0
  130.4380  124.5790   65.2760 N   0  0  0  0  0  0  0  0  0  0  0  0
  129.4720  124.0990   64.2780 C   0  0  0  0  0  0  0  0  0  0  0  0
  129.4880  122.5650   64.0990 C   0  0  0  0  0  0  0  0  0  0  0  0
  129.9400  122.1100   62.6950 C   0  0  0  0  0  0  0  0  0  0  0  0
  128.8900  122.2350   61.6790 N   0  0  0  0  0  0  0  0  0  0  0  0
  129.4650  122.6860   60.4050 C   0  0  0  0  0  0  0  0  0  0  0  0
  128.3780  122.8780   59.3260 C   0  0  0  0  0  0  0  0  0  0  0  0
  127.3650  123.7570   59.8030 O   0  0  0  0  0  0  0  0  0  0  0  0
  126.7300  123.2620   60.9760 C   0  0  0  0  0  0  0  0  0  0  0  0
  127.7670  123.0830   62.1060 C   0  0  0  0  0  0  0  0  0  0  0  0
  131.2350  125.6860   64.7290 C   0  0  0  0  0  0  0  0  0  0  0  0
  131.6700  125.5440   63.2720 C   0  0  0  0  0  0  0  0  0  0  0  0
  130.8800  125.9800   62.2610 C   0  0  0  0  0  0  0  0  0  0  0  0
  131.2590  125.8190   60.8420 C   0  0  0  0  0  0  0  0  0  0  0  0
  130.4740  126.2770   59.7700 C   0  0  0  0  0  0  0  0  0  0  0  0
  129.1480  126.9890   59.9990 C   0  0  0  0  0  0  0  0  0  0  0  0
  130.9260  126.0760   58.4630 C   0  0  0  0  0  0  0  0  0  0  0  0
  132.1370  125.4310   58.2190 C   0  0  0  0  0  0  0  0  0  0  0  0
  132.9260  124.9730   59.2790 C   0  0  0  0  0  0  0  0  0  0  0  0
  134.2450  124.2740   58.9800 C   0  0  0  0  0  0  0  0  0  0  0  0
  132.4820  125.1700   60.5960 C   0  0  0  0  0  0  0  0  0  0  0  0
  133.2430  124.7230   61.6970 N   0  0  0  0  0  0  0  0  0  0  0  0
  132.9350  124.8490   63.0120 C   0  0  0  0  0  0  0  0  0  0  0  0
  133.6880  124.3960   63.8750 O   0  0  0  0  0  0  0  0  0  0  0  0
  129.4460  128.3050   70.7970 C   0  0  0  0  0  0  0  0  0  0  0  0
  129.3170  128.4670   72.1740 C   0  0  0  0  0  0  0  0  0  0  0  0
  127.3647  128.8395   75.8771 H   0  0  0  0  0  0  0  0  0  0  0  0
  127.7172  129.8478   74.4328 H   0  0  0  0  0  0  0  0  0  0  0  0
  126.3010  128.7428   74.4328 H   0  0  0  0  0  0  0  0  0  0  0  0
  126.6985  126.3486   72.7298 H   0  0  0  0  0  0  0  0  0  0  0  0
  126.9265  126.0608   70.2715 H   0  0  0  0  0  0  0  0  0  0  0  0
  128.1388  126.3667   68.3083 H   0  0  0  0  0  0  0  0  0  0  0  0
  128.5318  128.1385   68.1122 H   0  0  0  0  0  0  0  0  0  0  0  0
  129.5560  124.1030   67.1228 H   0  0  0  0  0  0  0  0  0  0  0  0
  128.8601  125.5393   66.2503 H   0  0  0  0  0  0  0  0  0  0  0  0
  128.4633  124.4029   64.5945 H   0  0  0  0  0  0  0  0  0  0  0  0
  129.7551  124.5422   63.3119 H   0  0  0  0  0  0  0  0  0  0  0  0
  130.1764  122.1356   64.8418 H   0  0  0  0  0  0  0  0  0  0  0  0
  128.4541  122.2143   64.2338 H   0  0  0  0  0  0  0  0  0  0  0  0
  130.7982  122.7258   62.3878 H   0  0  0  0  0  0  0  0  0  0  0  0
  130.1995  121.0434   62.7659 H   0  0  0  0  0  0  0  0  0  0  0  0
  129.9812  123.6440   60.5658 H   0  0  0  0  0  0  0  0  0  0  0  0
  130.1665  121.9154   60.0527 H   0  0  0  0  0  0  0  0  0  0  0  0
  128.8348  123.3061   58.4215 H   0  0  0  0  0  0  0  0  0  0  0  0
  127.9270  121.9024   59.0917 H   0  0  0  0  0  0  0  0  0  0  0  0
  125.9581  123.9754   61.3004 H   0  0  0  0  0  0  0  0  0  0  0  0
  126.2698  122.2882   60.7524 H   0  0  0  0  0  0  0  0  0  0  0  0
  128.1550  124.0710   62.3946 H   0  0  0  0  0  0  0  0  0  0  0  0
  127.2693  122.5935   62.9561 H   0  0  0  0  0  0  0  0  0  0  0  0
  130.6363  126.6049   64.8131 H   0  0  0  0  0  0  0  0  0  0  0  0
  132.1655  125.6986   65.3156 H   0  0  0  0  0  0  0  0  0  0  0  0
  129.9256  126.4697   62.5046 H   0  0  0  0  0  0  0  0  0  0  0  0
  128.9661  127.0867   61.0794 H   0  0  0  0  0  0  0  0  0  0  0  0
  129.1848  127.9887   59.5415 H   0  0  0  0  0  0  0  0  0  0  0  0
  128.3350  126.4061   59.5415 H   0  0  0  0  0  0  0  0  0  0  0  0
  130.3190  126.4310   57.6171 H   0  0  0  0  0  0  0  0  0  0  0  0
  132.4754  125.2807   57.1832 H   0  0  0  0  0  0  0  0  0  0  0  0
  134.7426  124.0103   59.9249 H   0  0  0  0  0  0  0  0  0  0  0  0
  134.0521  123.3597   58.3995 H   0  0  0  0  0  0  0  0  0  0  0  0
  134.8933  124.9469   58.3995 H   0  0  0  0  0  0  0  0  0  0  0  0
  134.1140  124.2490   61.5140 H   0  0  0  0  0  0  0  0  0  0  0  0
  130.2115  128.8712   70.2462 H   0  0  0  0  0  0  0  0  0  0  0  0
  129.9859  129.1568   72.7095 H   0  0  0  0  0  0  0  0  0  0  0  0
  1  2  1  0
  2  3  1  0
  3  4  2  0
  4  5  1  0
  5  6  2  0
  6  7  1  0
  7  8  1  0
  8  9  1  0
  9 10  2  0
 10 11  1  0
 11 12  2  0
 12 13  1  0
 13 14  1  0
 14 15  1  0
 15 16  1  0
 16 17  1  0
 17 18  1  0
 18 19  1  0
 19 20  1  0
 20 21  1  0
 21 22  1  0
 22 23  1  0
 14 24  1  0
 24 25  1  0
 25 26  2  0
 26 27  1  0
 27 28  2  0
 28 29  1  0
 28 30  1  0
 30 31  2  0
 31 32  1  0
 32 33  1  0
 32 34  2  0
 34 35  1  0
 35 36  1  0
 36 37  2  0
  6 38  1  0
 38 39  2  0
 39  3  1  0
 12  8  1  0
 23 18  1  0
 36 25  1  0
 34 27  1  0
  1 40  1  0
  1 41  1  0
  1 42  1  0
  4 43  1  0
  5 44  1  0
  7 45  1  0
  7 46  1  0
 13 47  1  0
 13 48  1  0
 15 49  1  0
 15 50  1  0
 16 51  1  0
 16 52  1  0
 17 53  1  0
 17 54  1  0
 19 55  1  0
 19 56  1  0
 20 57  1  0
 20 58  1  0
 22 59  1  0
 22 60  1  0
 23 61  1  0
 23 62  1  0
 24 63  1  0
 24 64  1  0
 26 65  1  0
 29 66  1  0
 29 67  1  0
 29 68  1  0
 30 69  1  0
 31 70  1  0
 33 71  1  0
 33 72  1  0
 33 73  1  0
 35 74  1  0
 38 75  1  0
 39 76  1  0
M  END
>  <Binding energies>  (1) 
[-8.33]

>  <Ligand effiencies>  (1) 
[-0.20825]

>  <Interactions>  (1) 
["V-B:TYR:539:CD2:9846, V-A:GLU:543:CD:4908, H-A:GLY:454:N:4050, V-B:PRO:540:CB:9857, H-A:TYR:484:OH:4348, V-B:TYR:539:CE2:9848, V-B:TYR:539:CZ:9849, H-A:ARG:545:NE:4924, V-A:ARG:545:CZ:4926, V-A:LEU:475:CD2:4259, V-B:PRO:540:CA:9855, V-A:ASP:366:CB:3212, V-A:ILE:369:CD1:3239, H-B:ALA:541:N:9863, V-A:ASP:366:CG:3213, V-A:ILE:369:CG2:3237, V-A:ILE:369:CB:3236, V-B:GLU:543:CB:9878, V-B:GLU:543:CG:9879, V-A:TYR:484:CE2:4346, V-B:GLU:543:CD:9880, V-B:ALA:541:CB:9864, V-A:ASP:366:CA:3210, V-B:HIS:456:CD2:9039, V-B:GLY:544:C:9884, V-B:GLY:544:CA:9886, V-A:HIS:456:CE1:4070, H-B:LYS:547:NZ:9923, V-B:LYS:547:CE:9922, V-B:HIS:456:CE1:9041, V-B:GLU:543:C:9874, H-A:ARG:545:NH2:4928, V-A:GLU:543:CB:4906, V-A:GLU:543:C:4902, V-B:PRO:540:C:9853, V-B:TYR:539:C:9839, V-B:GLU:543:CA:9876, V-A:ASP:366:C:3208, H-A:HIS:456:ND1:4067, H-A:ASP:366:OD1:3214"]

$$$$
RR15_Rahimova_2017
     RDKit          3D

 85 89  0  0  0  0  0  0  0  0999 V2000
  127.2070  128.5420   74.8080 C   0  0  0  0  0  0  0  0  0  0  0  0
  128.2400  127.7510   74.2300 O   0  0  0  0  0  0  0  0  0  0  0  0
  128.3480  127.6720   72.8520 C   0  0  0  0  0  0  0  0  0  0  0  0
  127.6060  126.7790   72.0640 C   0  0  0  0  0  0  0  0  0  0  0  0
  127.7640  126.7490   70.6810 C   0  0  0  0  0  0  0  0  0  0  0  0
  128.6680  127.6070   70.0450 C   0  0  0  0  0  0  0  0  0  0  0  0
  128.8440  127.5710   68.5520 C   0  0  0  0  0  0  0  0  0  0  0  0
  128.5730  128.6050   67.7690 N   0  0  0  0  0  0  0  0  0  0  0  0
  128.8470  128.1920   66.4820 N   0  0  0  0  0  0  0  0  0  0  0  0
  129.2980  126.9470   66.6410 N   0  0  0  0  0  0  0  0  0  0  0  0
  129.5570  126.0660   65.5030 C   0  0  0  0  0  0  0  0  0  0  0  0
  129.3310  126.7150   64.1150 C   0  0  0  0  0  0  0  0  0  0  0  0
  128.5780  127.6900   64.0430 O   0  0  0  0  0  0  0  0  0  0  0  0
  129.9850  126.2190   63.0200 N   0  0  0  0  0  0  0  0  0  0  0  0
  129.8850  124.7940   62.6460 C   0  0  0  0  0  0  0  0  0  0  0  0
  130.4400  123.8330   63.7200 C   0  0  0  0  0  0  0  0  0  0  0  0
  131.9380  123.4810   63.5640 C   0  0  0  0  0  0  0  0  0  0  0  0
  132.1820  122.2970   62.7330 N   0  0  0  0  0  0  0  0  0  0  0  0
  131.2560  122.1750   61.5970 C   0  0  0  0  0  0  0  0  0  0  0  0
  131.6100  120.9630   60.7090 C   0  0  0  0  0  0  0  0  0  0  0  0
  132.9680  121.0400   60.2900 O   0  0  0  0  0  0  0  0  0  0  0  0
  133.8740  121.0540   61.3890 C   0  0  0  0  0  0  0  0  0  0  0  0
  133.5840  122.2710   62.2940 C   0  0  0  0  0  0  0  0  0  0  0  0
  130.6820  127.0820   62.0170 C   0  0  2  0  0  0  0  0  0  0  0  0
  129.7820  128.2020   61.4070 C   0  0  0  0  0  0  0  0  0  0  0  0
  128.7930  127.9240   60.7300 O   0  0  0  0  0  0  0  0  0  0  0  0
  130.1400  129.4630   61.7070 N   0  0  0  0  0  0  0  0  0  0  0  0
  129.3960  130.6620   61.3360 C   0  0  0  0  0  0  0  0  0  0  0  0
  130.3320  131.8760   61.1920 C   0  0  2  0  0  0  0  0  0  0  0  0
  131.2480  131.8600   59.9560 C   0  0  0  0  0  0  0  0  0  0  0  0
  132.5920  131.4230   60.4860 C   0  0  0  0  0  0  0  0  0  0  0  0
  132.5800  132.0380   61.8750 C   0  0  0  0  0  0  0  0  0  0  0  0
  131.2410  131.8120   62.3000 O   0  0  0  0  0  0  0  0  0  0  0  0
  131.4970  126.2320   61.0500 C   0  0  0  0  0  0  0  0  0  0  0  0
  131.0200  126.0800   59.7420 C   0  0  0  0  0  0  0  0  0  0  0  0
  131.7230  125.3140   58.8160 C   0  0  0  0  0  0  0  0  0  0  0  0
  132.9120  124.6960   59.1910 C   0  0  0  0  0  0  0  0  0  0  0  0
  133.5950  123.9530   58.2910 F   0  0  0  0  0  0  0  0  0  0  0  0
  133.4030  124.8370   60.4860 C   0  0  0  0  0  0  0  0  0  0  0  0
  132.6990  125.6020   61.4120 C   0  0  0  0  0  0  0  0  0  0  0  0
  129.2760  126.5050   67.9030 N   0  0  0  0  0  0  0  0  0  0  0  0
  129.4060  128.5000   70.8340 C   0  0  0  0  0  0  0  0  0  0  0  0
  129.2540  128.5440   72.2310 C   0  0  0  0  0  0  0  0  0  0  0  0
  129.9570  129.4090   73.0520 O   0  0  0  0  0  0  0  0  0  0  0  0
  129.4180  130.6930   73.3460 C   0  0  0  0  0  0  0  0  0  0  0  0
  127.2753  128.4897   75.9046 H   0  0  0  0  0  0  0  0  0  0  0  0
  127.3198  129.5868   74.4830 H   0  0  0  0  0  0  0  0  0  0  0  0
  126.2278  128.1606   74.4830 H   0  0  0  0  0  0  0  0  0  0  0  0
  126.8912  126.0947   72.5445 H   0  0  0  0  0  0  0  0  0  0  0  0
  127.1712  126.0426   70.0814 H   0  0  0  0  0  0  0  0  0  0  0  0
  130.6040  125.7335   65.5589 H   0  0  0  0  0  0  0  0  0  0  0  0
  128.8347  125.2399   65.5800 H   0  0  0  0  0  0  0  0  0  0  0  0
  128.8253  124.5522   62.4771 H   0  0  0  0  0  0  0  0  0  0  0  0
  130.4951  124.6541   61.7414 H   0  0  0  0  0  0  0  0  0  0  0  0
  130.2996  124.3027   64.7047 H   0  0  0  0  0  0  0  0  0  0  0  0
  129.8868  122.8891   63.6063 H   0  0  0  0  0  0  0  0  0  0  0  0
  132.4504  124.3392   63.1048 H   0  0  0  0  0  0  0  0  0  0  0  0
  132.3210  123.2525   64.5695 H   0  0  0  0  0  0  0  0  0  0  0  0
  130.2328  122.0504   61.9812 H   0  0  0  0  0  0  0  0  0  0  0  0
  131.3356  123.0864   60.9863 H   0  0  0  0  0  0  0  0  0  0  0  0
  131.4586  120.0363   61.2820 H   0  0  0  0  0  0  0  0  0  0  0  0
  130.9601  120.9665   59.8216 H   0  0  0  0  0  0  0  0  0  0  0  0
  133.7542  120.1291   61.9722 H   0  0  0  0  0  0  0  0  0  0  0  0
  134.9038  121.1230   61.0084 H   0  0  0  0  0  0  0  0  0  0  0  0
  134.2345  122.2203   63.1796 H   0  0  0  0  0  0  0  0  0  0  0  0
  133.7799  123.1851   61.7144 H   0  0  0  0  0  0  0  0  0  0  0  0
  131.4298  127.6967   62.5394 H   0  0  0  0  0  0  0  0  0  0  0  0
  130.9500  129.6070   62.2920 H   0  0  0  0  0  0  0  0  0  0  0  0
  128.8868  130.4859   60.3770 H   0  0  0  0  0  0  0  0  0  0  0  0
  128.6653  130.8778   62.1294 H   0  0  0  0  0  0  0  0  0  0  0  0
  129.6809  132.7602   61.1265 H   0  0  0  0  0  0  0  0  0  0  0  0
  130.8757  131.1471   59.2056 H   0  0  0  0  0  0  0  0  0  0  0  0
  131.2939  132.8393   59.4572 H   0  0  0  0  0  0  0  0  0  0  0  0
  132.6694  130.3267   60.5319 H   0  0  0  0  0  0  0  0  0  0  0  0
  133.4439  131.7340   59.8635 H   0  0  0  0  0  0  0  0  0  0  0  0
  133.2982  131.5346   62.5389 H   0  0  0  0  0  0  0  0  0  0  0  0
  132.8711  133.0987   61.8876 H   0  0  0  0  0  0  0  0  0  0  0  0
  130.0816  126.5702   59.4436 H   0  0  0  0  0  0  0  0  0  0  0  0
  131.3398  125.1977   57.7915 H   0  0  0  0  0  0  0  0  0  0  0  0
  134.3435  124.3459   60.7765 H   0  0  0  0  0  0  0  0  0  0  0  0
  133.0872  125.7139   62.4351 H   0  0  0  0  0  0  0  0  0  0  0  0
  130.1202  129.1818   70.3492 H   0  0  0  0  0  0  0  0  0  0  0  0
  129.3621  130.8263   74.4365 H   0  0  0  0  0  0  0  0  0  0  0  0
  130.0658  131.4702   72.9144 H   0  0  0  0  0  0  0  0  0  0  0  0
  128.4095  130.7749   72.9144 H   0  0  0  0  0  0  0  0  0  0  0  0
  1  2  1  0
  2  3  1  0
  3  4  2  0
  4  5  1  0
  5  6  2  0
  6  7  1  0
  7  8  1  0
  8  9  2  0
  9 10  1  0
 10 11  1  0
 11 12  1  0
 12 13  2  0
 12 14  1  0
 14 15  1  0
 15 16  1  0
 16 17  1  0
 17 18  1  0
 18 19  1  0
 19 20  1  0
 20 21  1  0
 21 22  1  0
 22 23  1  0
 14 24  1  0
 24 25  1  0
 25 26  2  0
 25 27  1  0
 27 28  1  0
 28 29  1  0
 29 30  1  0
 30 31  1  0
 31 32  1  0
 32 33  1  0
 24 34  1  0
 34 35  2  0
 35 36  1  0
 36 37  2  0
 37 38  1  0
 37 39  1  0
 39 40  2  0
 10 41  1  0
  6 42  1  0
 42 43  2  0
 43 44  1  0
 44 45  1  0
 43  3  1  0
 41  7  2  0
 23 18  1  0
 33 29  1  0
 40 34  1  0
  1 46  1  0
  1 47  1  0
  1 48  1  0
  4 49  1  0
  5 50  1  0
 11 51  1  0
 11 52  1  0
 15 53  1  0
 15 54  1  0
 16 55  1  0
 16 56  1  0
 17 57  1  0
 17 58  1  0
 19 59  1  0
 19 60  1  0
 20 61  1  0
 20 62  1  0
 22 63  1  0
 22 64  1  0
 23 65  1  0
 23 66  1  0
 24 67  1  1
 27 68  1  0
 28 69  1  0
 28 70  1  0
 29 71  1  1
 30 72  1  0
 30 73  1  0
 31 74  1  0
 31 75  1  0
 32 76  1  0
 32 77  1  0
 35 78  1  0
 36 79  1  0
 39 80  1  0
 40 81  1  0
 42 82  1  0
 45 83  1  0
 45 84  1  0
 45 85  1  0
M  END
>  <Binding energies>  (1) 
[-8.64]

>  <Ligand effiencies>  (1) 
[-0.18782608695652175]

>  <Interactions>  (1) 
["V-B:TYR:539:CD2:9846, V-A:GLU:543:CD:4908, V-B:TYR:539:CE2:9848, V-B:TYR:539:CZ:9849, V-A:LEU:475:CD2:4259, V-A:PRO:540:C:4881, V-A:ASP:366:CB:3212, V-A:PRO:540:CB:4885, V-A:PRO:540:CA:4883, H-A:ALA:541:N:4891, V-A:ILE:369:CD1:3239, V-A:GLY:454:CA:4049, V-A:ASP:366:CG:3213, V-A:ILE:369:CG2:3237, V-A:ILE:369:CB:3236, V-B:GLU:543:CB:9878, V-B:GLU:543:CG:9879, V-A:SER:385:C:3405, V-B:GLU:543:CD:9880, V-A:ASP:366:CA:3210, V-B:HIS:456:CD2:9039, V-B:GLY:544:C:9884, V-B:GLY:544:CA:9886, V-A:LYS:547:CE:4950, H-B:LYS:547:NZ:9923, V-B:LYS:547:CE:9922, V-B:HIS:456:CE1:9041, V-B:GLU:543:C:9874, H-A:LYS:547:NZ:4951, H-A:GLU:543:OE1:4909, V-A:GLU:543:CB:4906, V-A:GLU:543:C:4902, V-A:SER:385:CA:3407, H-A:SER:385:OG:3410, V-A:SER:385:CB:3409, H-A:ASP:366:OD2:3215"]

$$$$
RR16_Rahimova_2017
     RDKit          3D

 80 85  0  0  0  0  0  0  0  0999 V2000
  132.0320  121.3730   60.8410 O   0  0  0  0  0  0  0  0  0  0  0  0
  130.6190  121.3640   61.2360 S   0  0  0  0  0  0  0  0  0  0  0  0
  129.8950  120.0990   61.4110 O   0  0  0  0  0  0  0  0  0  0  0  0
  129.7330  122.3450   60.0680 N   0  0  0  0  0  0  0  0  0  0  0  0
  128.2760  122.1650   59.8720 C   0  0  0  0  0  0  0  0  0  0  0  0
  127.5120  123.0130   60.9230 C   0  0  0  0  0  0  0  0  0  0  0  0
  127.9390  124.4840   61.0900 C   0  0  0  0  0  0  0  0  0  0  0  0
  128.8880  124.9880   59.9890 C   0  0  0  0  0  0  0  0  0  0  0  0
  128.2840  125.0620   58.5780 C   0  0  0  0  0  0  0  0  0  0  0  0
  127.3910  123.8860   58.1340 C   0  0  0  0  0  0  0  0  0  0  0  0
  127.9380  122.4690   58.3940 C   0  0  0  0  0  0  0  0  0  0  0  0
  130.5030  122.2810   62.7680 C   0  0  0  0  0  0  0  0  0  0  0  0
  129.2670  122.4530   63.3950 C   0  0  0  0  0  0  0  0  0  0  0  0
  129.1710  123.2700   64.5170 C   0  0  0  0  0  0  0  0  0  0  0  0
  130.3110  123.9110   65.0080 C   0  0  0  0  0  0  0  0  0  0  0  0
  130.1670  125.0720   66.3640 S   0  0  0  0  0  0  0  0  0  0  0  0
  131.5070  125.6130   66.6240 O   0  0  0  0  0  0  0  0  0  0  0  0
  129.4160  124.4060   67.4360 O   0  0  0  0  0  0  0  0  0  0  0  0
  129.1570  126.3780   65.7120 N   0  0  0  0  0  0  0  0  0  0  0  0
  128.9930  127.5410   66.6210 C   0  0  0  0  0  0  0  0  0  0  0  0
  127.8680  128.4670   66.1150 C   0  0  0  0  0  0  0  0  0  0  0  0
  128.0850  128.8800   64.6380 C   0  0  0  0  0  0  0  0  0  0  0  0
  126.9550  129.7620   64.1010 C   0  0  0  0  0  0  0  0  0  0  0  0
  125.6220  129.3480   64.2420 C   0  0  0  0  0  0  0  0  0  0  0  0
  124.5610  130.1240   63.7750 C   0  0  0  0  0  0  0  0  0  0  0  0
  123.2640  129.7040   63.9240 O   0  0  0  0  0  0  0  0  0  0  0  0
  124.8570  131.3470   63.1540 C   0  0  0  0  0  0  0  0  0  0  0  0
  124.0410  132.3050   62.6270 N   0  0  0  0  0  0  0  0  0  0  0  0
  124.8440  133.3260   62.1670 N   0  0  0  0  0  0  0  0  0  0  0  0
  126.1300  132.9800   62.3690 N   0  0  0  0  0  0  0  0  0  0  0  0
  127.2000  133.9180   62.0530 C   0  0  0  0  0  0  0  0  0  0  0  0
  128.3060  133.2870   61.2180 C   0  0  0  0  0  0  0  0  0  0  0  0
  128.2140  133.2820   59.8220 C   0  0  0  0  0  0  0  0  0  0  0  0
  129.2370  132.7250   59.0530 C   0  0  0  0  0  0  0  0  0  0  0  0
  130.3570  132.1710   59.6760 C   0  0  0  0  0  0  0  0  0  0  0  0
  130.4550  132.1760   61.0680 C   0  0  0  0  0  0  0  0  0  0  0  0
  131.8420  131.5020   61.8410 Cl  0  0  0  0  0  0  0  0  0  0  0  0
  129.4290  132.7290   61.8370 C   0  0  0  0  0  0  0  0  0  0  0  0
  126.2040  131.7540   63.0090 C   0  0  0  0  0  0  0  0  0  0  0  0
  127.2700  130.9750   63.4730 C   0  0  0  0  0  0  0  0  0  0  0  0
  128.3820  127.6620   63.7240 C   0  0  0  0  0  0  0  0  0  0  0  0
  129.4820  126.7560   64.3120 C   0  0  0  0  0  0  0  0  0  0  0  0
  131.5540  123.7040   64.4050 C   0  0  0  0  0  0  0  0  0  0  0  0
  131.6490  122.8910   63.2810 C   0  0  0  0  0  0  0  0  0  0  0  0
  130.1120  123.2730   59.8570 H   0  0  0  0  0  0  0  0  0  0  0  0
  127.9493  121.1293   60.0470 H   0  0  0  0  0  0  0  0  0  0  0  0
  126.4485  123.0075   60.6421 H   0  0  0  0  0  0  0  0  0  0  0  0
  127.7432  122.5405   61.8891 H   0  0  0  0  0  0  0  0  0  0  0  0
  127.0346  125.1101   61.0806 H   0  0  0  0  0  0  0  0  0  0  0  0
  128.4895  124.5501   62.0400 H   0  0  0  0  0  0  0  0  0  0  0  0
  129.2239  125.9978   60.2672 H   0  0  0  0  0  0  0  0  0  0  0  0
  129.7019  124.2503   59.9308 H   0  0  0  0  0  0  0  0  0  0  0  0
  127.6768  125.9777   58.5250 H   0  0  0  0  0  0  0  0  0  0  0  0
  129.1475  125.0367   57.8970 H   0  0  0  0  0  0  0  0  0  0  0  0
  126.4318  123.9762   58.6648 H   0  0  0  0  0  0  0  0  0  0  0  0
  127.3187  123.9732   57.0398 H   0  0  0  0  0  0  0  0  0  0  0  0
  127.1816  121.7436   58.0599 H   0  0  0  0  0  0  0  0  0  0  0  0
  128.8847  122.3960   57.8387 H   0  0  0  0  0  0  0  0  0  0  0  0
  128.3734  121.9448   63.0035 H   0  0  0  0  0  0  0  0  0  0  0  0
  128.2007  123.4108   65.0158 H   0  0  0  0  0  0  0  0  0  0  0  0
  128.7392  127.1801   67.6286 H   0  0  0  0  0  0  0  0  0  0  0  0
  129.9355  128.1076   66.6477 H   0  0  0  0  0  0  0  0  0  0  0  0
  126.9068  127.9389   66.1997 H   0  0  0  0  0  0  0  0  0  0  0  0
  127.8729  129.3791   66.7298 H   0  0  0  0  0  0  0  0  0  0  0  0
  128.9893  129.5060   64.6200 H   0  0  0  0  0  0  0  0  0  0  0  0
  125.4081  128.3873   64.7332 H   0  0  0  0  0  0  0  0  0  0  0  0
  122.9120  129.2750   63.1410 H   0  0  0  0  0  0  0  0  0  0  0  0
  126.7735  134.7626   61.4919 H   0  0  0  0  0  0  0  0  0  0  0  0
  127.6465  134.2456   63.0034 H   0  0  0  0  0  0  0  0  0  0  0  0
  127.3328  133.7183   59.3290 H   0  0  0  0  0  0  0  0  0  0  0  0
  129.1608  132.7225   57.9556 H   0  0  0  0  0  0  0  0  0  0  0  0
  131.1621  131.7306   59.0695 H   0  0  0  0  0  0  0  0  0  0  0  0
  129.5044  132.7257   62.9344 H   0  0  0  0  0  0  0  0  0  0  0  0
  128.3132  131.3015   63.3499 H   0  0  0  0  0  0  0  0  0  0  0  0
  127.4608  127.0724   63.6069 H   0  0  0  0  0  0  0  0  0  0  0  0
  128.7359  128.0420   62.7543 H   0  0  0  0  0  0  0  0  0  0  0  0
  129.5641  125.8447   63.7015 H   0  0  0  0  0  0  0  0  0  0  0  0
  130.4346  127.3060   64.3057 H   0  0  0  0  0  0  0  0  0  0  0  0
  132.4543  124.1824   64.8179 H   0  0  0  0  0  0  0  0  0  0  0  0
  132.6238  122.7291   62.7977 H   0  0  0  0  0  0  0  0  0  0  0  0
  1  2  2  0
  2  3  2  0
  2  4  1  0
  4  5  1  0
  5  6  1  0
  6  7  1  0
  7  8  1  0
  8  9  1  0
  9 10  1  0
 10 11  1  0
  2 12  1  0
 12 13  2  0
 13 14  1  0
 14 15  2  0
 15 16  1  0
 16 17  2  0
 16 18  2  0
 16 19  1  0
 19 20  1  0
 20 21  1  0
 21 22  1  0
 22 23  1  0
 23 24  2  0
 24 25  1  0
 25 26  1  0
 25 27  2  0
 27 28  1  0
 28 29  2  0
 29 30  1  0
 30 31  1  0
 31 32  1  0
 32 33  2  0
 33 34  1  0
 34 35  2  0
 35 36  1  0
 36 37  1  0
 36 38  2  0
 30 39  1  0
 39 40  2  0
 22 41  1  0
 41 42  1  0
 15 43  1  0
 43 44  2  0
 11  5  1  0
 44 12  1  0
 42 19  1  0
 40 23  1  0
 39 27  1  0
 38 32  1  0
  4 45  1  0
  5 46  1  0
  6 47  1  0
  6 48  1  0
  7 49  1  0
  7 50  1  0
  8 51  1  0
  8 52  1  0
  9 53  1  0
  9 54  1  0
 10 55  1  0
 10 56  1  0
 11 57  1  0
 11 58  1  0
 13 59  1  0
 14 60  1  0
 20 61  1  0
 20 62  1  0
 21 63  1  0
 21 64  1  0
 22 65  1  0
 24 66  1  0
 26 67  1  0
 31 68  1  0
 31 69  1  0
 33 70  1  0
 34 71  1  0
 35 72  1  0
 38 73  1  0
 40 74  1  0
 41 75  1  0
 41 76  1  0
 42 77  1  0
 42 78  1  0
 43 79  1  0
 44 80  1  0
M  END
>  <Binding energies>  (1) 
[-8.61]

>  <Ligand effiencies>  (1) 
[-0.17937499999999998]

>  <Interactions>  (1) 
["V-B:PRO:540:N:9856, V-B:TYR:539:CD2:9846, V-A:GLU:543:CD:4908, H-A:TYR:484:OH:4348, V-B:TYR:539:CE2:9848, V-B:TYR:539:CZ:9849, V-A:LEU:475:CD2:4259, V-B:PRO:540:CA:9855, H-B:ASP:366:OD2:8186, V-A:PRO:540:C:4881, V-A:PRO:540:CB:4885, V-A:TYR:539:CD1:4873, V-A:PRO:540:N:4884, V-A:PRO:540:CA:4883, V-A:TYR:539:C:4867, V-B:LEU:475:CD2:9230, H-B:ARG:545:NH1:9899, V-A:TYR:539:CE1:4875, H-B:GLY:454:N:9021, H-B:ARG:545:NH2:9900, V-A:TYR:484:CZ:4347, V-B:GLU:543:CB:9878, V-B:GLU:543:CG:9879, V-A:TYR:484:CE2:4346, V-B:GLU:543:CD:9880, V-B:ALA:541:CB:9864, V-A:GLU:543:CB:4906, V-B:ARG:545:CZ:9898, V-A:ALA:541:CB:4892, V-A:GLU:543:CG:4907, H-B:ARG:545:NE:9896, V-B:PRO:540:C:9853, V-B:TYR:539:CG:9844, V-B:TYR:539:C:9839"]

$$$$
RR17_Rahimova_2017
     RDKit          3D

 63 66  0  0  0  0  0  0  0  0999 V2000
  127.0440  132.9610   74.1840 C   0  0  0  0  0  0  0  0  0  0  0  0
  127.7280  132.3340   75.4020 C   0  0  0  0  0  0  0  0  0  0  0  0
  127.1410  131.0590   75.6510 O   0  0  0  0  0  0  0  0  0  0  0  0
  127.4350  130.0020   74.8090 C   0  0  0  0  0  0  0  0  0  0  0  0
  126.4420  129.0360   74.6540 C   0  0  0  0  0  0  0  0  0  0  0  0
  126.6470  127.9350   73.8280 C   0  0  0  0  0  0  0  0  0  0  0  0
  127.8570  127.7770   73.1370 C   0  0  0  0  0  0  0  0  0  0  0  0
  128.0480  126.5800   72.2520 C   0  0  0  0  0  0  0  0  0  0  0  0
  128.6600  125.5740   72.6240 O   0  0  0  0  0  0  0  0  0  0  0  0
  127.4570  126.6590   70.8270 C   0  0  0  0  0  0  0  0  0  0  0  0
  128.4470  127.7330   69.7280 S   0  0  0  0  0  0  0  0  0  0  0  0
  129.0320  126.5280   68.5700 C   0  0  0  0  0  0  0  0  0  0  0  0
  129.4480  125.3210   68.8740 N   0  0  0  0  0  0  0  0  0  0  0  0
  129.8130  124.6860   67.6930 N   0  0  0  0  0  0  0  0  0  0  0  0
  129.6000  125.5340   66.7180 C   0  0  0  0  0  0  0  0  0  0  0  0
  129.8550  125.2400   65.2470 C   0  0  0  0  0  0  0  0  0  0  0  0
  131.0750  125.8530   64.7260 N   0  0  0  0  0  0  0  0  0  0  0  0
  131.6710  125.4890   63.5050 C   0  0  0  0  0  0  0  0  0  0  0  0
  132.8200  124.6990   63.5620 C   0  0  0  0  0  0  0  0  0  0  0  0
  133.4640  124.3080   62.3920 C   0  0  0  0  0  0  0  0  0  0  0  0
  132.9630  124.7000   61.1470 C   0  0  0  0  0  0  0  0  0  0  0  0
  133.6850  124.2670   59.8720 C   0  0  0  0  0  0  0  0  0  0  0  0
  133.4060  123.0050   59.5370 F   0  0  0  0  0  0  0  0  0  0  0  0
  133.3360  125.0500   58.8510 F   0  0  0  0  0  0  0  0  0  0  0  0
  135.0010  124.3690   60.0600 F   0  0  0  0  0  0  0  0  0  0  0  0
  131.8060  125.4850   61.0880 C   0  0  0  0  0  0  0  0  0  0  0  0
  131.1630  125.8750   62.2580 C   0  0  0  0  0  0  0  0  0  0  0  0
  129.1140  126.7290   67.2070 N   0  0  0  0  0  0  0  0  0  0  0  0
  128.7560  127.8740   66.4790 C   0  0  0  0  0  0  0  0  0  0  0  0
  128.5850  127.7850   65.0980 C   0  0  0  0  0  0  0  0  0  0  0  0
  128.2330  128.9220   64.3760 C   0  0  0  0  0  0  0  0  0  0  0  0
  128.0520  130.1500   65.0330 C   0  0  0  0  0  0  0  0  0  0  0  0
  127.7030  131.3270   64.3990 O   0  0  0  0  0  0  0  0  0  0  0  0
  128.7200  132.1190   63.7960 C   0  0  0  0  0  0  0  0  0  0  0  0
  128.2300  130.2200   66.4160 C   0  0  0  0  0  0  0  0  0  0  0  0
  128.5810  129.0870   67.1440 C   0  0  0  0  0  0  0  0  0  0  0  0
  128.8540  128.7510   73.2930 C   0  0  0  0  0  0  0  0  0  0  0  0
  128.6470  129.8520   74.1190 C   0  0  0  0  0  0  0  0  0  0  0  0
  126.2721  133.6686   74.5208 H   0  0  0  0  0  0  0  0  0  0  0  0
  127.7912  133.4945   73.5781 H   0  0  0  0  0  0  0  0  0  0  0  0
  126.5774  132.1703   73.5781 H   0  0  0  0  0  0  0  0  0  0  0  0
  128.8029  132.2137   75.2015 H   0  0  0  0  0  0  0  0  0  0  0  0
  127.5983  132.9838   76.2800 H   0  0  0  0  0  0  0  0  0  0  0  0
  125.4874  129.1451   75.1896 H   0  0  0  0  0  0  0  0  0  0  0  0
  125.8530  127.1820   73.7161 H   0  0  0  0  0  0  0  0  0  0  0  0
  127.4269  125.6460   70.3993 H   0  0  0  0  0  0  0  0  0  0  0  0
  126.4484  127.0914   70.9030 H   0  0  0  0  0  0  0  0  0  0  0  0
  129.9327  124.1502   65.1195 H   0  0  0  0  0  0  0  0  0  0  0  0
  129.0141  125.6708   64.6837 H   0  0  0  0  0  0  0  0  0  0  0  0
  131.6210  126.4130   65.3640 H   0  0  0  0  0  0  0  0  0  0  0  0
  133.2189  124.3836   64.5374 H   0  0  0  0  0  0  0  0  0  0  0  0
  134.3709  123.6880   62.4469 H   0  0  0  0  0  0  0  0  0  0  0  0
  131.4035  125.7949   60.1123 H   0  0  0  0  0  0  0  0  0  0  0  0
  130.2519  126.4890   62.2039 H   0  0  0  0  0  0  0  0  0  0  0  0
  128.7272  126.8235   64.5829 H   0  0  0  0  0  0  0  0  0  0  0  0
  128.0961  128.8583   63.2864 H   0  0  0  0  0  0  0  0  0  0  0  0
  129.3287  132.5931   64.5800 H   0  0  0  0  0  0  0  0  0  0  0  0
  129.3605  131.4794   63.1709 H   0  0  0  0  0  0  0  0  0  0  0  0
  128.2568  132.8967   63.1709 H   0  0  0  0  0  0  0  0  0  0  0  0
  128.0915  131.1798   66.9352 H   0  0  0  0  0  0  0  0  0  0  0  0
  128.7191  129.1478   68.2336 H   0  0  0  0  0  0  0  0  0  0  0  0
  129.8088  128.6438   72.7574 H   0  0  0  0  0  0  0  0  0  0  0  0
  129.4378  130.6083   74.2312 H   0  0  0  0  0  0  0  0  0  0  0  0
  1  2  1  0
  2  3  1  0
  3  4  1  0
  4  5  2  0
  5  6  1  0
  6  7  2  0
  7  8  1  0
  8  9  2  0
  8 10  1  0
 10 11  1  0
 11 12  1  0
 12 13  2  0
 13 14  1  0
 14 15  2  0
 15 16  1  0
 16 17  1  0
 17 18  1  0
 18 19  2  0
 19 20  1  0
 20 21  2  0
 21 22  1  0
 22 23  1  0
 22 24  1  0
 22 25  1  0
 21 26  1  0
 26 27  2  0
 15 28  1  0
 28 29  1  0
 29 30  2  0
 30 31  1  0
 31 32  2  0
 32 33  1  0
 33 34  1  0
 32 35  1  0
 35 36  2  0
  7 37  1  0
 37 38  2  0
 38  4  1  0
 28 12  1  0
 36 29  1  0
 27 18  1  0
  1 39  1  0
  1 40  1  0
  1 41  1  0
  2 42  1  0
  2 43  1  0
  5 44  1  0
  6 45  1  0
 10 46  1  0
 10 47  1  0
 16 48  1  0
 16 49  1  0
 17 50  1  0
 19 51  1  0
 20 52  1  0
 26 53  1  0
 27 54  1  0
 30 55  1  0
 31 56  1  0
 34 57  1  0
 34 58  1  0
 34 59  1  0
 35 60  1  0
 36 61  1  0
 37 62  1  0
 38 63  1  0
M  END
>  <Binding energies>  (1) 
[-7.78]

>  <Ligand effiencies>  (1) 
[-0.1994871794871795]

>  <Interactions>  (1) 
["V-A:GLU:543:CD:4908, H-A:TYR:484:OH:4348, V-B:TYR:539:CE2:9848, V-A:ARG:545:CZ:4926, V-A:ASP:366:CB:3212, V-A:ILE:369:CD1:3239, V-A:ASP:366:CG:3213, V-A:ILE:369:CG2:3237, V-A:ILE:369:CG1:3238, V-A:ILE:369:CB:3236, H-A:GLU:543:OE2:4910, V-B:GLU:543:CB:9878, V-B:GLU:543:CG:9879, V-B:GLU:543:CD:9880, V-A:ASP:366:CA:3210, V-B:HIS:456:CD2:9039, V-B:HIS:456:CB:9036, V-B:GLY:544:C:9884, V-B:HIS:456:CG:9037, V-B:GLY:544:CA:9886, V-B:ASP:473:CG:9211, V-A:HIS:456:CE1:4070, H-B:LYS:547:NZ:9923, V-B:ASP:473:CB:9210, V-B:LYS:547:CE:9922, V-B:HIS:456:CE1:9041, V-B:GLU:543:C:9874, H-A:GLU:543:OE1:4909, V-A:GLU:543:CB:4906, V-B:TYR:484:CZ:9318, H-B:TYR:484:OH:9319, V-A:ALA:541:CB:4892, V-A:GLU:543:CG:4907, V-B:GLU:543:CA:9876, V-A:ASP:366:C:3208, V-A:GLU:543:CA:4904, V-B:TYR:484:CB:9312, H-B:LYS:471:NZ:9192, V-B:TYR:484:CE2:9317"]

$$$$
RR18_Rahimova_2017
     RDKit          3D

 56 61  0  0  0  0  0  0  0  0999 V2000
  133.6010  131.5820   61.4080 C   0  0  0  0  0  0  0  0  0  0  0  0
  132.1460  131.4320   61.7760 C   0  0  0  0  0  0  0  0  0  0  0  0
  131.3590  131.9000   62.8160 C   0  0  0  0  0  0  0  0  0  0  0  0
  130.0710  131.4120   62.5980 C   0  0  0  0  0  0  0  0  0  0  0  0
  130.1170  130.6630   61.4330 C   0  0  0  0  0  0  0  0  0  0  0  0
  129.0780  129.8750   60.6400 C   0  0  1  0  0  0  0  0  0  0  0  0
  129.4250  128.3570   60.5940 C   0  0  0  0  0  0  0  0  0  0  0  0
  130.6270  127.8940   59.9090 C   0  0  0  0  0  0  0  0  0  0  0  0
  131.2470  128.6150   59.1250 O   0  0  0  0  0  0  0  0  0  0  0  0
  130.9940  126.6300   60.2250 N   0  0  0  0  0  0  0  0  0  0  0  0
  132.0710  125.8480   59.7560 C   0  0  0  0  0  0  0  0  0  0  0  0
  132.4120  125.7340   58.3960 C   0  0  0  0  0  0  0  0  0  0  0  0
  133.4850  124.9380   57.9970 C   0  0  0  0  0  0  0  0  0  0  0  0
  134.2270  124.2410   58.9460 C   0  0  0  0  0  0  0  0  0  0  0  0
  133.8940  124.3350   60.2950 C   0  0  0  0  0  0  0  0  0  0  0  0
  132.8210  125.1300   60.7100 C   0  0  0  0  0  0  0  0  0  0  0  0
  132.4950  125.1960   62.1990 C   0  0  0  0  0  0  0  0  0  0  0  0
  128.6410  127.4930   61.2920 C   0  0  0  0  0  0  0  0  0  0  0  0
  127.4940  127.8360   61.9410 N   0  0  0  0  0  0  0  0  0  0  0  0
  127.0480  129.0330   61.8440 C   0  0  0  0  0  0  0  0  0  0  0  0
  125.5190  129.5790   62.4920 S   0  0  0  0  0  0  0  0  0  0  0  0
  125.7790  131.2330   61.8540 C   0  0  0  0  0  0  0  0  0  0  0  0
  124.9320  132.3140   61.9730 C   0  0  0  0  0  0  0  0  0  0  0  0
  123.6180  132.1600   62.6150 C   0  0  0  0  0  0  0  0  0  0  0  0
  123.0990  131.1700   63.1290 O   0  0  0  0  0  0  0  0  0  0  0  0
  122.9980  133.3420   62.5420 N   0  0  0  0  0  0  0  0  0  0  0  0
  123.7580  134.3050   61.9500 C   0  0  0  0  0  0  0  0  0  0  0  0
  123.4250  135.6410   61.7290 C   0  0  0  0  0  0  0  0  0  0  0  0
  124.3630  136.4770   61.1300 C   0  0  0  0  0  0  0  0  0  0  0  0
  125.6120  135.9700   60.7740 C   0  0  0  0  0  0  0  0  0  0  0  0
  125.9210  134.6270   61.0060 C   0  0  0  0  0  0  0  0  0  0  0  0
  124.9780  133.7600   61.5880 C   0  0  0  0  0  0  0  0  0  0  0  0
  127.0630  131.2500   61.1530 C   0  0  0  0  0  0  0  0  0  0  0  0
  127.5490  132.1980   60.5430 O   0  0  0  0  0  0  0  0  0  0  0  0
  127.6990  130.0490   61.2200 N   0  0  0  0  0  0  0  0  0  0  0  0
  131.3840  130.6800   60.9390 O   0  0  0  0  0  0  0  0  0  0  0  0
  134.2064  131.6444   62.3243 H   0  0  0  0  0  0  0  0  0  0  0  0
  133.9210  130.7121   60.8157 H   0  0  0  0  0  0  0  0  0  0  0  0
  133.7368  132.4989   60.8157 H   0  0  0  0  0  0  0  0  0  0  0  0
  131.6871  132.5344   63.6526 H   0  0  0  0  0  0  0  0  0  0  0  0
  129.1878  131.5879   63.2297 H   0  0  0  0  0  0  0  0  0  0  0  0
  129.0922  130.2759   59.6158 H   0  0  0  0  0  0  0  0  0  0  0  0
  130.4470  126.1820   60.9440 H   0  0  0  0  0  0  0  0  0  0  0  0
  131.8266  126.2780   57.6401 H   0  0  0  0  0  0  0  0  0  0  0  0
  133.7453  124.8608   56.9310 H   0  0  0  0  0  0  0  0  0  0  0  0
  135.0758  123.6164   58.6308 H   0  0  0  0  0  0  0  0  0  0  0  0
  134.4805  123.7787   61.0410 H   0  0  0  0  0  0  0  0  0  0  0  0
  133.4087  125.0110   62.7829 H   0  0  0  0  0  0  0  0  0  0  0  0
  132.0989  126.1926   62.4438 H   0  0  0  0  0  0  0  0  0  0  0  0
  131.7424  124.4320   62.4438 H   0  0  0  0  0  0  0  0  0  0  0  0
  128.9562  126.4400   61.3357 H   0  0  0  0  0  0  0  0  0  0  0  0
  122.0720  133.5030   62.9100 H   0  0  0  0  0  0  0  0  0  0  0  0
  122.4380  136.0276   62.0230 H   0  0  0  0  0  0  0  0  0  0  0  0
  124.1200  137.5326   60.9384 H   0  0  0  0  0  0  0  0  0  0  0  0
  126.3581  136.6305   60.3081 H   0  0  0  0  0  0  0  0  0  0  0  0
  126.9141  134.2428   60.7301 H   0  0  0  0  0  0  0  0  0  0  0  0
  1  2  1  0
  2  3  2  0
  3  4  1  0
  4  5  2  0
  5  6  1  0
  6  7  1  0
  7  8  1  0
  8  9  2  0
  8 10  1  0
 10 11  1  0
 11 12  2  0
 12 13  1  0
 13 14  2  0
 14 15  1  0
 15 16  2  0
 16 17  1  0
  7 18  2  0
 18 19  1  0
 19 20  2  0
 20 21  1  0
 21 22  1  0
 22 23  2  0
 23 24  1  0
 24 25  2  0
 24 26  1  0
 26 27  1  0
 27 28  2  0
 28 29  1  0
 29 30  2  0
 30 31  1  0
 31 32  2  0
 22 33  1  0
 33 34  2  0
 33 35  1  0
  5 36  1  0
 36  2  1  0
 35  6  1  0
 16 11  1  0
 35 20  1  0
 32 23  1  0
 32 27  1  0
  1 37  1  0
  1 38  1  0
  1 39  1  0
  3 40  1  0
  4 41  1  0
  6 42  1  6
 10 43  1  0
 12 44  1  0
 13 45  1  0
 14 46  1  0
 15 47  1  0
 17 48  1  0
 17 49  1  0
 17 50  1  0
 18 51  1  0
 26 52  1  0
 28 53  1  0
 29 54  1  0
 30 55  1  0
 31 56  1  0
M  END
>  <Binding energies>  (1) 
[-7.89]

>  <Ligand effiencies>  (1) 
[-0.20763157894736842]

>  <Interactions>  (1) 
["V-A:GLU:543:CD:4908, V-B:TYR:539:CE2:9848, V-B:TYR:539:CZ:9849, V-A:ASN:362:CB:3176, V-A:ASP:366:CB:3212, V-A:PRO:540:CB:4885, V-A:TYR:539:CD1:4873, V-B:GLY:454:CA:9020, V-A:PRO:540:CA:4883, V-B:ILE:369:CG2:8208, V-B:LEU:475:CD2:9230, V-A:TYR:539:CE1:4875, H-B:GLY:454:N:9021, V-B:ILE:369:CG1:8209, V-A:ILE:369:CD1:3239, V-A:ASP:366:CG:3213, V-A:ILE:369:CG2:3237, V-A:ILE:369:CB:3236, V-A:ASP:366:CA:3210, V-A:ALA:541:CB:4892, V-A:GLU:543:CG:4907, V-B:SER:385:CB:8380, V-B:SER:385:CA:8378, V-B:SER:385:C:8376, V-A:ASP:366:C:3208, V-A:ALA:541:CA:4890, V-A:ALA:541:C:4888, V-A:LEU:363:CA:3185, V-A:ASN:362:C:3172, V-A:TYR:539:CG:4872, H-B:SER:385:O:8377"]

$$$$
RR19_Rahimova_2017
     RDKit          3D

 72 77  0  0  0  0  0  0  0  0999 V2000
  128.3190  128.9920   61.0350 O   0  0  0  0  0  0  0  0  0  0  0  0
  128.4340  127.8700   61.5350 C   0  0  0  0  0  0  0  0  0  0  0  0
  128.5140  127.5920   62.8610 N   0  0  0  0  0  0  0  0  0  0  0  0
  128.2880  128.3420   63.9890 C   0  0  0  0  0  0  0  0  0  0  0  0
  127.5660  129.8730   64.0270 S   0  0  0  0  0  0  0  0  0  0  0  0
  128.7420  127.6420   65.0800 N   0  0  0  0  0  0  0  0  0  0  0  0
  128.6410  127.8480   66.4180 C   0  0  0  0  0  0  0  0  0  0  0  0
  127.9190  128.6770   66.9780 O   0  0  0  0  0  0  0  0  0  0  0  0
  129.5630  126.9360   67.2650 C   0  0  2  0  0  0  0  0  0  0  0  0
  129.4220  125.4140   66.9740 C   0  0  0  0  0  0  0  0  0  0  0  0
  130.5030  124.8230   66.0830 C   0  0  0  0  0  0  0  0  0  0  0  0
  130.2310  123.7130   65.2530 C   0  0  0  0  0  0  0  0  0  0  0  0
  131.2060  123.2360   64.3880 C   0  0  0  0  0  0  0  0  0  0  0  0
  132.4480  123.8580   64.3210 C   0  0  0  0  0  0  0  0  0  0  0  0
  132.7190  124.9690   65.1090 C   0  0  0  0  0  0  0  0  0  0  0  0
  131.7560  125.4630   65.9790 C   0  0  0  0  0  0  0  0  0  0  0  0
  129.4260  127.2290   68.7180 N   0  0  0  0  0  0  0  0  0  0  0  0
  128.2480  127.0270   69.3740 C   0  0  0  0  0  0  0  0  0  0  0  0
  127.1850  126.6280   68.8950 O   0  0  0  0  0  0  0  0  0  0  0  0
  128.5160  127.3840   70.7890 C   0  0  0  0  0  0  0  0  0  0  0  0
  127.6830  127.3760   71.9080 C   0  0  0  0  0  0  0  0  0  0  0  0
  128.2150  127.7620   73.1430 C   0  0  0  0  0  0  0  0  0  0  0  0
  129.5600  128.1450   73.2440 C   0  0  0  0  0  0  0  0  0  0  0  0
  130.3800  128.1450   72.1100 C   0  0  0  0  0  0  0  0  0  0  0  0
  129.8290  127.7580   70.8870 C   0  0  0  0  0  0  0  0  0  0  0  0
  130.4360  127.6490   69.5380 C   0  0  0  0  0  0  0  0  0  0  0  0
  131.6060  127.8800   69.2290 O   0  0  0  0  0  0  0  0  0  0  0  0
  128.5140  126.6250   60.6120 C   0  0  2  0  0  0  0  0  0  0  0  0
  127.5080  125.4980   60.9850 C   0  0  0  0  0  0  0  0  0  0  0  0
  127.0920  124.6300   59.8110 C   0  0  0  0  0  0  0  0  0  0  0  0
  127.9490  123.6090   59.3460 C   0  0  0  0  0  0  0  0  0  0  0  0
  127.5230  122.7510   58.3390 C   0  0  0  0  0  0  0  0  0  0  0  0
  126.2480  122.8760   57.8050 C   0  0  0  0  0  0  0  0  0  0  0  0
  125.3790  123.8510   58.2810 C   0  0  0  0  0  0  0  0  0  0  0  0
  125.7850  124.7190   59.2860 C   0  0  0  0  0  0  0  0  0  0  0  0
  129.8980  126.0930   60.4550 N   0  0  0  0  0  0  0  0  0  0  0  0
  130.6760  125.7920   61.5330 C   0  0  0  0  0  0  0  0  0  0  0  0
  130.3860  125.9210   62.7230 O   0  0  0  0  0  0  0  0  0  0  0  0
  131.9470  125.2750   60.9680 C   0  0  0  0  0  0  0  0  0  0  0  0
  133.1090  124.8220   61.5940 C   0  0  0  0  0  0  0  0  0  0  0  0
  134.1720  124.3810   60.7970 C   0  0  0  0  0  0  0  0  0  0  0  0
  134.0610  124.3960   59.4010 C   0  0  0  0  0  0  0  0  0  0  0  0
  132.8860  124.8520   58.7910 C   0  0  0  0  0  0  0  0  0  0  0  0
  131.8390  125.2900   59.6040 C   0  0  0  0  0  0  0  0  0  0  0  0
  130.4960  125.8150   59.2590 C   0  0  0  0  0  0  0  0  0  0  0  0
  130.0220  125.9690   58.1330 O   0  0  0  0  0  0  0  0  0  0  0  0
  128.6830  126.6160   63.0550 H   0  0  0  0  0  0  0  0  0  0  0  0
  129.3490  126.8720   64.8410 H   0  0  0  0  0  0  0  0  0  0  0  0
  130.5851  127.1890   66.9467 H   0  0  0  0  0  0  0  0  0  0  0  0
  129.4438  124.8801   67.9355 H   0  0  0  0  0  0  0  0  0  0  0  0
  128.4755  125.2940   66.4266 H   0  0  0  0  0  0  0  0  0  0  0  0
  129.2454  123.2261   65.2922 H   0  0  0  0  0  0  0  0  0  0  0  0
  130.9955  122.3627   63.7531 H   0  0  0  0  0  0  0  0  0  0  0  0
  133.2194  123.4682   63.6406 H   0  0  0  0  0  0  0  0  0  0  0  0
  133.7012  125.4600   65.0437 H   0  0  0  0  0  0  0  0  0  0  0  0
  131.9703  126.3540   66.5875 H   0  0  0  0  0  0  0  0  0  0  0  0
  126.6293  127.0724   71.8211 H   0  0  0  0  0  0  0  0  0  0  0  0
  127.5757  127.7650   74.0382 H   0  0  0  0  0  0  0  0  0  0  0  0
  129.9722  128.4466   74.2182 H   0  0  0  0  0  0  0  0  0  0  0  0
  131.4363  128.4436   72.1807 H   0  0  0  0  0  0  0  0  0  0  0  0
  128.2029  127.0018   59.6265 H   0  0  0  0  0  0  0  0  0  0  0  0
  127.9761  124.8533   61.7434 H   0  0  0  0  0  0  0  0  0  0  0  0
  126.5975  125.9927   61.3541 H   0  0  0  0  0  0  0  0  0  0  0  0
  128.9529  123.4927   59.7803 H   0  0  0  0  0  0  0  0  0  0  0  0
  128.1995  121.9692   57.9634 H   0  0  0  0  0  0  0  0  0  0  0  0
  125.9233  122.1997   57.0005 H   0  0  0  0  0  0  0  0  0  0  0  0
  124.3662  123.9352   57.8601 H   0  0  0  0  0  0  0  0  0  0  0  0
  125.0875  125.4764   59.6731 H   0  0  0  0  0  0  0  0  0  0  0  0
  133.1880  124.8117   62.6911 H   0  0  0  0  0  0  0  0  0  0  0  0
  135.0981  124.0213   61.2691 H   0  0  0  0  0  0  0  0  0  0  0  0
  134.9004  124.0481   58.7811 H   0  0  0  0  0  0  0  0  0  0  0  0
  132.7900  124.8648   57.6953 H   0  0  0  0  0  0  0  0  0  0  0  0
  1  2  2  0
  2  3  1  0
  3  4  1  0
  4  5  2  0
  4  6  1  0
  6  7  1  0
  7  8  2  0
  7  9  1  0
  9 10  1  0
 10 11  1  0
 11 12  2  0
 12 13  1  0
 13 14  2  0
 14 15  1  0
 15 16  2  0
  9 17  1  0
 17 18  1  0
 18 19  2  0
 18 20  1  0
 20 21  2  0
 21 22  1  0
 22 23  2  0
 23 24  1  0
 24 25  2  0
 25 26  1  0
 26 27  2  0
  2 28  1  0
 28 29  1  0
 29 30  1  0
 30 31  2  0
 31 32  1  0
 32 33  2  0
 33 34  1  0
 34 35  2  0
 28 36  1  0
 36 37  1  0
 37 38  2  0
 37 39  1  0
 39 40  2  0
 40 41  1  0
 41 42  2  0
 42 43  1  0
 43 44  2  0
 44 45  1  0
 45 46  2  0
 16 11  1  0
 26 17  1  0
 35 30  1  0
 45 36  1  0
 25 20  1  0
 44 39  1  0
  3 47  1  0
  6 48  1  0
  9 49  1  6
 10 50  1  0
 10 51  1  0
 12 52  1  0
 13 53  1  0
 14 54  1  0
 15 55  1  0
 16 56  1  0
 21 57  1  0
 22 58  1  0
 23 59  1  0
 24 60  1  0
 28 61  1  6
 29 62  1  0
 29 63  1  0
 31 64  1  0
 32 65  1  0
 33 66  1  0
 34 67  1  0
 35 68  1  0
 40 69  1  0
 41 70  1  0
 42 71  1  0
 43 72  1  0
M  END
>  <Binding energies>  (1) 
[-10.8]

>  <Ligand effiencies>  (1) 
[-0.225]

>  <Interactions>  (1) 
["V-B:PRO:540:N:9856, V-B:TYR:539:CD2:9846, V-A:GLU:543:CD:4908, V-B:PRO:540:CB:9857, V-B:PRO:540:CD:9859, V-B:TYR:539:CE2:9848, V-A:ARG:545:CZ:4926, V-A:LEU:475:CD2:4259, V-B:PRO:540:CA:9855, V-A:ASP:366:CB:3212, V-A:ILE:369:CD1:3239, V-A:ASP:366:CG:3213, V-A:ILE:369:CG2:3237, V-A:TYR:484:CZ:4347, V-A:ILE:369:CB:3236, H-A:GLU:543:OE2:4910, V-B:GLU:543:CB:9878, V-B:GLU:543:CG:9879, V-A:TYR:484:CE2:4346, V-B:GLU:543:CD:9880, H-B:TYR:539:OH:9850, H-B:GLU:543:OE1:9881, V-A:ASP:366:CA:3210, V-B:HIS:456:CD2:9039, V-A:GLY:544:C:4912, V-B:GLY:544:C:9884, V-B:HIS:456:CG:9037, V-A:HIS:456:CE1:4070, V-B:HIS:456:CE1:9041, V-B:GLU:543:C:9874, H-A:GLU:543:OE1:4909, V-A:GLU:543:CB:4906, V-A:GLU:543:CG:4907, V-B:TYR:539:C:9839, V-B:GLU:543:CA:9876, V-A:ASP:366:C:3208, H-A:ARG:545:N:4920, H-B:GLU:543:OE2:9882"]

$$$$
RR19_Rahimova_2017-again1
     RDKit          3D

 71 76  0  0  0  0  0  0  0  0999 V2000
  128.9880  126.5110   64.9320 O   0  0  0  0  0  0  0  0  0  0  0  0
  129.1910  127.0370   63.8350 C   0  0  0  0  0  0  0  0  0  0  0  0
  128.8010  128.2820   63.4700 N   0  0  0  0  0  0  0  0  0  0  0  0
  128.2500  129.3230   64.1630 C   0  0  0  0  0  0  0  0  0  0  0  0
  127.7270  129.4080   65.7580 S   0  0  0  0  0  0  0  0  0  0  0  0
  128.2540  130.4130   63.3110 N   0  0  0  0  0  0  0  0  0  0  0  0
  128.0570  131.6620   63.5810 C   0  0  0  0  0  0  0  0  0  0  0  0
  127.8950  132.2370   64.6760 O   0  0  0  0  0  0  0  0  0  0  0  0
  127.9950  132.6160   62.3400 C   0  0  2  0  0  0  0  0  0  0  0  0
  126.5460  132.6920   61.7520 C   0  0  0  0  0  0  0  0  0  0  0  0
  125.9900  134.1070   61.6180 C   0  0  0  0  0  0  0  0  0  0  0  0
  126.8570  135.1770   61.3770 C   0  0  0  0  0  0  0  0  0  0  0  0
  126.3490  136.4660   61.2390 C   0  0  0  0  0  0  0  0  0  0  0  0
  124.9760  136.6820   61.3460 C   0  0  0  0  0  0  0  0  0  0  0  0
  124.1070  135.6210   61.5920 C   0  0  0  0  0  0  0  0  0  0  0  0
  124.6150  134.3320   61.7300 C   0  0  0  0  0  0  0  0  0  0  0  0
  129.0680  132.3510   61.3260 N   0  0  0  0  0  0  0  0  0  0  0  0
  130.3400  132.0330   61.6980 C   0  0  0  0  0  0  0  0  0  0  0  0
  130.7810  131.9330   62.8430 O   0  0  0  0  0  0  0  0  0  0  0  0
  131.0840  131.8350   60.4280 C   0  0  0  0  0  0  0  0  0  0  0  0
  132.4190  131.5010   60.1930 C   0  0  0  0  0  0  0  0  0  0  0  0
  132.8550  131.3800   58.8690 C   0  0  0  0  0  0  0  0  0  0  0  0
  131.9630  131.5880   57.8090 C   0  0  0  0  0  0  0  0  0  0  0  0
  130.6290  131.9220   58.0650 C   0  0  0  0  0  0  0  0  0  0  0  0
  130.2140  132.0400   59.3930 C   0  0  0  0  0  0  0  0  0  0  0  0
  128.8900  132.3740   59.9690 C   0  0  0  0  0  0  0  0  0  0  0  0
  127.8530  132.6180   59.3530 O   0  0  0  0  0  0  0  0  0  0  0  0
  129.9540  126.2480   62.7300 C   0  0  2  0  0  0  0  0  0  0  0  0
  131.1270  127.0440   62.0900 C   0  0  0  0  0  0  0  0  0  0  0  0
  131.3980  126.6830   60.6400 C   0  0  0  0  0  0  0  0  0  0  0  0
  132.0070  125.4510   60.3190 C   0  0  0  0  0  0  0  0  0  0  0  0
  132.1640  125.0790   58.9900 C   0  0  0  0  0  0  0  0  0  0  0  0
  131.7000  125.9030   57.9720 C   0  0  0  0  0  0  0  0  0  0  0  0
  131.0650  127.1020   58.2750 C   0  0  0  0  0  0  0  0  0  0  0  0
  130.8980  127.4910   59.5970 C   0  0  0  0  0  0  0  0  0  0  0  0
  129.0650  125.6310   61.6990 N   0  0  0  0  0  0  0  0  0  0  0  0
  128.2160  126.3840   60.9450 C   0  0  0  0  0  0  0  0  0  0  0  0
  128.0000  127.5920   61.0430 O   0  0  0  0  0  0  0  0  0  0  0  0
  127.6120  125.4420   59.9710 C   0  0  0  0  0  0  0  0  0  0  0  0
  126.6850  125.6530   58.9480 C   0  0  0  0  0  0  0  0  0  0  0  0
  126.3020  124.5650   58.1570 C   0  0  0  0  0  0  0  0  0  0  0  0
  126.8410  123.2940   58.3950 C   0  0  0  0  0  0  0  0  0  0  0  0
  127.7660  123.1010   59.4270 C   0  0  0  0  0  0  0  0  0  0  0  0
  128.1370  124.2000   60.2030 C   0  0  0  0  0  0  0  0  0  0  0  0
  129.0990  124.3160   61.3270 C   0  0  0  0  0  0  0  0  0  0  0  0
  129.7890  123.4190   61.8120 O   0  0  0  0  0  0  0  0  0  0  0  0
  129.0420  128.5220   62.5200 H   0  0  0  0  0  0  0  0  0  0  0  0
  128.2296  133.6297   62.6968 H   0  0  0  0  0  0  0  0  0  0  0  0
  126.5560  132.2309   60.7533 H   0  0  0  0  0  0  0  0  0  0  0  0
  125.8923  132.1653   62.4628 H   0  0  0  0  0  0  0  0  0  0  0  0
  127.9398  135.0006   61.2965 H   0  0  0  0  0  0  0  0  0  0  0  0
  127.0278  137.3099   61.0465 H   0  0  0  0  0  0  0  0  0  0  0  0
  124.5746  137.7001   61.2351 H   0  0  0  0  0  0  0  0  0  0  0  0
  123.0251  135.8008   61.6768 H   0  0  0  0  0  0  0  0  0  0  0  0
  123.9343  133.4907   61.9272 H   0  0  0  0  0  0  0  0  0  0  0  0
  133.1130  131.3365   61.0305 H   0  0  0  0  0  0  0  0  0  0  0  0
  133.9032  131.1203   58.6594 H   0  0  0  0  0  0  0  0  0  0  0  0
  132.3131  131.4882   56.7710 H   0  0  0  0  0  0  0  0  0  0  0  0
  129.9225  132.0880   57.2384 H   0  0  0  0  0  0  0  0  0  0  0  0
  130.4123  125.4084   63.2732 H   0  0  0  0  0  0  0  0  0  0  0  0
  130.8861  128.1161   62.1406 H   0  0  0  0  0  0  0  0  0  0  0  0
  132.0337  126.7871   62.6574 H   0  0  0  0  0  0  0  0  0  0  0  0
  132.3574  124.7852   61.1215 H   0  0  0  0  0  0  0  0  0  0  0  0
  132.6579  124.1278   58.7423 H   0  0  0  0  0  0  0  0  0  0  0  0
  131.8357  125.6053   56.9218 H   0  0  0  0  0  0  0  0  0  0  0  0
  130.6933  127.7452   57.4637 H   0  0  0  0  0  0  0  0  0  0  0  0
  130.3754  128.4300   59.8317 H   0  0  0  0  0  0  0  0  0  0  0  0
  126.2650  126.6536   58.7682 H   0  0  0  0  0  0  0  0  0  0  0  0
  125.5744  124.7079   57.3445 H   0  0  0  0  0  0  0  0  0  0  0  0
  126.5356  122.4437   57.7676 H   0  0  0  0  0  0  0  0  0  0  0  0
  128.1912  122.1055   59.6222 H   0  0  0  0  0  0  0  0  0  0  0  0
  1  2  2  0
  2  3  1  0
  3  4  1  0
  4  5  2  0
  4  6  1  0
  6  7  2  0
  7  8  1  0
  7  9  1  0
  9 10  1  0
 10 11  1  0
 11 12  2  0
 12 13  1  0
 13 14  2  0
 14 15  1  0
 15 16  2  0
  9 17  1  0
 17 18  1  0
 18 19  2  0
 18 20  1  0
 20 21  2  0
 21 22  1  0
 22 23  2  0
 23 24  1  0
 24 25  2  0
 25 26  1  0
 26 27  2  0
  2 28  1  0
 28 29  1  0
 29 30  1  0
 30 31  2  0
 31 32  1  0
 32 33  2  0
 33 34  1  0
 34 35  2  0
 28 36  1  0
 36 37  1  0
 37 38  2  0
 37 39  1  0
 39 40  2  0
 40 41  1  0
 41 42  2  0
 42 43  1  0
 43 44  2  0
 44 45  1  0
 45 46  2  0
 16 11  1  0
 26 17  1  0
 35 30  1  0
 45 36  1  0
 25 20  1  0
 44 39  1  0
  3 47  1  0
  9 48  1  1
 10 49  1  0
 10 50  1  0
 12 51  1  0
 13 52  1  0
 14 53  1  0
 15 54  1  0
 16 55  1  0
 21 56  1  0
 22 57  1  0
 23 58  1  0
 24 59  1  0
 28 60  1  1
 29 61  1  0
 29 62  1  0
 31 63  1  0
 32 64  1  0
 33 65  1  0
 34 66  1  0
 35 67  1  0
 40 68  1  0
 41 69  1  0
 42 70  1  0
 43 71  1  0
M  CHG  1   8  -1
M  END
>  <Binding energies>  (1) 
[-10.08]

>  <Ligand effiencies>  (1) 
[-0.214468085106383]

>  <Interactions>  (1) 
["V-B:PRO:540:N:9856, V-A:GLU:543:CD:4908, V-B:PRO:540:CB:9857, V-B:TYR:539:CE2:9848, V-B:PRO:540:CA:9855, V-A:ASP:366:CB:3212, V-A:PRO:540:CB:4885, V-A:TYR:539:CD1:4873, V-A:PRO:540:CA:4883, V-B:ILE:369:CG2:8208, V-B:LEU:475:CD2:9230, H-A:ALA:541:N:4891, V-A:ASP:366:CG:3213, V-B:GLU:543:CD:9880, H-A:GLU:543:OE1:4909, H-B:TYR:484:OH:9319, V-A:GLU:543:CG:4907, V-B:SER:385:CB:8380, V-B:SER:385:CA:8378, V-A:LEU:363:CD1:3189, V-A:LEU:363:CA:3185"]

$$$$
RR1_Rahimova_2017
     RDKit          3D

 68 71  0  0  0  0  0  0  0  0999 V2000
  129.0020  133.9300   76.6040 C   0  0  0  0  0  0  0  0  0  0  0  0
  128.4590  132.6180   76.6850 O   0  0  0  0  0  0  0  0  0  0  0  0
  128.5870  131.7670   75.6050 C   0  0  0  0  0  0  0  0  0  0  0  0
  128.0810  130.4580   75.5640 C   0  0  0  0  0  0  0  0  0  0  0  0
  128.2660  129.6690   74.4330 C   0  0  0  0  0  0  0  0  0  0  0  0
  128.9500  130.1720   73.3250 C   0  0  0  0  0  0  0  0  0  0  0  0
  129.1250  129.2820   72.2480 N   0  0  0  0  0  0  0  0  0  0  0  0
  128.9900  127.9390   72.2170 C   0  0  0  0  0  0  0  0  0  0  0  0
  128.7440  127.2360   73.1970 O   0  0  0  0  0  0  0  0  0  0  0  0
  129.1750  127.3100   70.8270 C   0  0  0  0  0  0  0  0  0  0  0  0
  130.5240  128.0170   69.8190 S   0  0  0  0  0  0  0  0  0  0  0  0
  130.1000  127.2630   68.2850 C   0  0  0  0  0  0  0  0  0  0  0  0
  130.7570  126.2670   67.7470 N   0  0  0  0  0  0  0  0  0  0  0  0
  130.0920  126.0160   66.6240 C   0  0  0  0  0  0  0  0  0  0  0  0
  130.4950  124.9190   65.6800 C   0  0  0  0  0  0  0  0  0  0  0  0
  131.6400  125.0280   64.8730 C   0  0  0  0  0  0  0  0  0  0  0  0
  131.9870  123.9930   64.0020 C   0  0  0  0  0  0  0  0  0  0  0  0
  131.1750  122.8620   63.9570 C   0  0  0  0  0  0  0  0  0  0  0  0
  130.0620  122.7230   64.7220 N   0  0  0  0  0  0  0  0  0  0  0  0
  129.7420  123.7400   65.5630 C   0  0  0  0  0  0  0  0  0  0  0  0
  129.0500  126.7930   66.3980 N   0  0  0  0  0  0  0  0  0  0  0  0
  129.0530  127.5980   67.4650 N   0  0  0  0  0  0  0  0  0  0  0  0
  128.0210  128.6220   67.6260 C   0  0  0  0  0  0  0  0  0  0  0  0
  127.6940  129.4210   66.3530 C   0  0  0  0  0  0  0  0  0  0  0  0
  128.5290  130.1810   65.8500 O   0  0  0  0  0  0  0  0  0  0  0  0
  126.4550  129.2240   65.8610 N   0  0  0  0  0  0  0  0  0  0  0  0
  126.1390  129.7960   64.6360 N   0  0  0  0  0  0  0  0  0  0  0  0
  124.8330  129.9120   64.3130 C   0  0  0  0  0  0  0  0  0  0  0  0
  123.9030  129.6380   65.0790 O   0  0  0  0  0  0  0  0  0  0  0  0
  124.5460  130.4410   62.9230 C   0  0  0  0  0  0  0  0  0  0  0  0
  123.2350  130.7600   62.5530 C   0  0  0  0  0  0  0  0  0  0  0  0
  122.9470  131.2350   61.2780 C   0  0  0  0  0  0  0  0  0  0  0  0
  123.9660  131.4010   60.3270 C   0  0  0  0  0  0  0  0  0  0  0  0
  123.7460  131.8560   59.0390 O   0  0  0  0  0  0  0  0  0  0  0  0
  123.7760  130.9350   57.9550 C   0  0  0  0  0  0  0  0  0  0  0  0
  125.2860  131.0810   60.6750 C   0  0  0  0  0  0  0  0  0  0  0  0
  126.2500  131.2430   59.6940 O   0  0  0  0  0  0  0  0  0  0  0  0
  126.9390  130.1040   59.1900 C   0  0  0  0  0  0  0  0  0  0  0  0
  125.5640  130.6070   61.9690 C   0  0  0  0  0  0  0  0  0  0  0  0
  129.4570  131.4800   73.3620 C   0  0  0  0  0  0  0  0  0  0  0  0
  129.2690  132.2660   74.4950 C   0  0  0  0  0  0  0  0  0  0  0  0
  129.1646  134.3228   77.6185 H   0  0  0  0  0  0  0  0  0  0  0  0
  129.9606  133.8975   76.0654 H   0  0  0  0  0  0  0  0  0  0  0  0
  128.3008  134.5844   76.0654 H   0  0  0  0  0  0  0  0  0  0  0  0
  127.5358  130.0544   76.4300 H   0  0  0  0  0  0  0  0  0  0  0  0
  127.8709  128.6426   74.4118 H   0  0  0  0  0  0  0  0  0  0  0  0
  129.4270  129.7220   71.3900 H   0  0  0  0  0  0  0  0  0  0  0  0
  129.3803  126.2381   70.9644 H   0  0  0  0  0  0  0  0  0  0  0  0
  128.2456  127.5156   70.2757 H   0  0  0  0  0  0  0  0  0  0  0  0
  132.2651  125.9315   64.9274 H   0  0  0  0  0  0  0  0  0  0  0  0
  132.8812  124.0691   63.3659 H   0  0  0  0  0  0  0  0  0  0  0  0
  131.4475  122.0458   63.2717 H   0  0  0  0  0  0  0  0  0  0  0  0
  128.8426  123.6341   66.1874 H   0  0  0  0  0  0  0  0  0  0  0  0
  127.0989  128.1269   67.9644 H   0  0  0  0  0  0  0  0  0  0  0  0
  128.4184  129.3477   68.3509 H   0  0  0  0  0  0  0  0  0  0  0  0
  125.8420  128.4660   66.1270 H   0  0  0  0  0  0  0  0  0  0  0  0
  126.8350  129.5790   63.9370 H   0  0  0  0  0  0  0  0  0  0  0  0
  122.4202  130.6333   63.2811 H   0  0  0  0  0  0  0  0  0  0  0  0
  121.9090  131.4834   61.0118 H   0  0  0  0  0  0  0  0  0  0  0  0
  123.8095  129.9079   58.3473 H   0  0  0  0  0  0  0  0  0  0  0  0
  122.8732  131.0633   57.3398 H   0  0  0  0  0  0  0  0  0  0  0  0
  124.6685  131.1218   57.3398 H   0  0  0  0  0  0  0  0  0  0  0  0
  127.3066  129.4964   60.0301 H   0  0  0  0  0  0  0  0  0  0  0  0
  126.2530  129.5028   58.5752 H   0  0  0  0  0  0  0  0  0  0  0  0
  127.7899  130.4326   58.5752 H   0  0  0  0  0  0  0  0  0  0  0  0
  126.6011  130.3607   62.2405 H   0  0  0  0  0  0  0  0  0  0  0  0
  130.0025  131.8837   72.4963 H   0  0  0  0  0  0  0  0  0  0  0  0
  129.6628  133.2929   74.5155 H   0  0  0  0  0  0  0  0  0  0  0  0
  1  2  1  0
  2  3  1  0
  3  4  2  0
  4  5  1  0
  5  6  2  0
  6  7  1  0
  7  8  1  0
  8  9  2  0
  8 10  1  0
 10 11  1  0
 11 12  1  0
 12 13  2  0
 13 14  1  0
 14 15  1  0
 15 16  2  0
 16 17  1  0
 17 18  2  0
 18 19  1  0
 19 20  2  0
 14 21  2  0
 21 22  1  0
 22 23  1  0
 23 24  1  0
 24 25  2  0
 24 26  1  0
 26 27  1  0
 27 28  1  0
 28 29  2  0
 28 30  1  0
 30 31  2  0
 31 32  1  0
 32 33  2  0
 33 34  1  0
 34 35  1  0
 33 36  1  0
 36 37  1  0
 37 38  1  0
 36 39  2  0
  6 40  1  0
 40 41  2  0
 41  3  1  0
 22 12  1  0
 39 30  1  0
 20 15  1  0
  1 42  1  0
  1 43  1  0
  1 44  1  0
  4 45  1  0
  5 46  1  0
  7 47  1  0
 10 48  1  0
 10 49  1  0
 16 50  1  0
 17 51  1  0
 18 52  1  0
 20 53  1  0
 23 54  1  0
 23 55  1  0
 26 56  1  0
 27 57  1  0
 31 58  1  0
 32 59  1  0
 35 60  1  0
 35 61  1  0
 35 62  1  0
 38 63  1  0
 38 64  1  0
 38 65  1  0
 39 66  1  0
 40 67  1  0
 41 68  1  0
M  END
>  <Binding energies>  (1) 
[-8.86]

>  <Ligand effiencies>  (1) 
[-0.20136363636363636]

>  <Interactions>  (1) 
["V-B:ASP:366:CB:8183, V-A:GLU:543:CD:4908, V-B:ASP:366:CG:8184, H-A:TYR:484:OH:4348, V-A:LEU:475:CD2:4259, V-B:ILE:369:CB:8207, V-B:GLY:453:C:9013, V-B:ILE:369:CG2:8208, V-B:GLY:453:CA:9015, H-B:ARG:545:NH1:9899, V-B:ASP:366:CA:8181, H-B:GLY:454:N:9021, V-B:ILE:369:CG1:8209, H-B:ARG:545:NH2:9900, V-A:TYR:484:CZ:4347, V-B:GLU:543:CB:9878, V-B:GLU:543:CG:9879, V-A:TYR:484:CE2:4346, V-B:GLU:543:CD:9880, V-B:HIS:456:CD2:9039, V-A:LYS:547:CE:4950, V-A:HIS:456:CE1:4070, H-B:LYS:547:NZ:9923, V-B:HIS:456:CE1:9041, V-A:GLU:543:CB:4906, V-B:TYR:484:CZ:9318, V-B:ARG:545:CZ:9898, H-B:TYR:484:OH:9319, H-B:HIS:456:NE2:9042, V-A:GLU:543:CG:4907, H-B:ARG:545:NE:9896, V-B:GLU:543:CA:9876, H-A:GLU:543:O:4903, V-B:ASP:366:C:8179, H-B:LYS:471:NZ:9192, H-B:GLU:543:OE2:9882"]

$$$$
RR20_Rahimova_2017
     RDKit          3D

 68 73  0  0  0  0  0  0  0  0999 V2000
  133.3880  124.0970   76.0240 C   0  0  0  0  0  0  0  0  0  0  0  0
  132.4970  125.0710   75.2750 C   0  0  0  0  0  0  0  0  0  0  0  0
  133.0680  126.0990   74.5240 C   0  0  0  0  0  0  0  0  0  0  0  0
  132.2530  126.9880   73.8290 C   0  0  0  0  0  0  0  0  0  0  0  0
  130.8600  126.8650   73.8890 C   0  0  0  0  0  0  0  0  0  0  0  0
  129.9920  127.8280   73.1100 C   0  0  0  0  0  0  0  0  0  0  0  0
  130.1050  129.0300   73.3620 O   0  0  0  0  0  0  0  0  0  0  0  0
  129.1390  127.3430   72.1610 N   0  0  0  0  0  0  0  0  0  0  0  0
  127.7370  127.0220   72.4750 C   0  0  0  0  0  0  0  0  0  0  0  0
  127.0740  126.6640   71.1560 C   0  0  0  0  0  0  0  0  0  0  0  0
  128.0520  127.1730   70.1410 C   0  0  0  0  0  0  0  0  0  0  0  0
  127.9410  127.2030   68.7510 C   0  0  0  0  0  0  0  0  0  0  0  0
  129.0350  127.5690   67.9560 C   0  0  0  0  0  0  0  0  0  0  0  0
  128.9130  127.6090   66.4580 C   0  0  0  0  0  0  0  0  0  0  0  0
  128.3120  128.6500   65.9040 N   0  0  0  0  0  0  0  0  0  0  0  0
  128.2800  128.5900   64.5970 C   0  0  0  0  0  0  0  0  0  0  0  0
  127.7360  129.5090   63.7120 N   0  0  0  0  0  0  0  0  0  0  0  0
  127.7410  130.8590   63.8340 C   0  0  0  0  0  0  0  0  0  0  0  0
  128.2670  131.4640   64.7700 O   0  0  0  0  0  0  0  0  0  0  0  0
  127.0670  131.6910   62.7180 C   0  0  0  0  0  0  0  0  0  0  0  0
  127.8870  131.7850   61.4950 N   0  0  0  0  0  0  0  0  0  0  0  0
  127.7330  133.0790   60.8130 C   0  0  0  0  0  0  0  0  0  0  0  0
  128.3920  133.0270   59.4160 C   0  0  0  0  0  0  0  0  0  0  0  0
  129.7830  132.3920   59.4360 C   0  0  0  0  0  0  0  0  0  0  0  0
  130.6390  132.4970   58.3340 C   0  0  0  0  0  0  0  0  0  0  0  0
  131.8910  131.8860   58.3360 C   0  0  0  0  0  0  0  0  0  0  0  0
  132.3040  131.1610   59.4500 C   0  0  0  0  0  0  0  0  0  0  0  0
  131.4660  131.0570   60.5580 C   0  0  0  0  0  0  0  0  0  0  0  0
  130.2050  131.6640   60.5670 C   0  0  0  0  0  0  0  0  0  0  0  0
  129.3100  131.5980   61.8050 C   0  0  0  0  0  0  0  0  0  0  0  0
  129.0110  127.1820   63.9320 S   0  0  0  0  0  0  0  0  0  0  0  0
  129.3760  126.6330   65.5500 C   0  0  0  0  0  0  0  0  0  0  0  0
  130.0540  125.2980   65.7720 C   0  0  0  0  0  0  0  0  0  0  0  0
  130.2560  127.8500   68.5860 C   0  0  0  0  0  0  0  0  0  0  0  0
  130.3750  127.8030   69.9750 C   0  0  0  0  0  0  0  0  0  0  0  0
  129.2520  127.5190   70.7630 C   0  0  0  0  0  0  0  0  0  0  0  0
  130.2940  125.8130   74.6210 C   0  0  0  0  0  0  0  0  0  0  0  0
  131.1090  124.9220   75.3160 C   0  0  0  0  0  0  0  0  0  0  0  0
  133.2578  124.2393   77.1070 H   0  0  0  0  0  0  0  0  0  0  0  0
  133.1133  123.0667   75.7539 H   0  0  0  0  0  0  0  0  0  0  0  0
  134.4387  124.2791   75.7539 H   0  0  0  0  0  0  0  0  0  0  0  0
  134.1619  126.2069   74.4812 H   0  0  0  0  0  0  0  0  0  0  0  0
  132.7060  127.7914   73.2295 H   0  0  0  0  0  0  0  0  0  0  0  0
  127.6879  126.1701   73.1692 H   0  0  0  0  0  0  0  0  0  0  0  0
  127.2317  127.8713   72.9581 H   0  0  0  0  0  0  0  0  0  0  0  0
  126.9379  125.5764   71.0638 H   0  0  0  0  0  0  0  0  0  0  0  0
  126.0681  127.0948   71.0443 H   0  0  0  0  0  0  0  0  0  0  0  0
  126.9859  126.9369   68.2746 H   0  0  0  0  0  0  0  0  0  0  0  0
  127.2820  129.1230   62.8960 H   0  0  0  0  0  0  0  0  0  0  0  0
  126.1067  131.2202   62.4610 H   0  0  0  0  0  0  0  0  0  0  0  0
  126.9328  132.7123   63.1039 H   0  0  0  0  0  0  0  0  0  0  0  0
  126.6625  133.3061   60.7017 H   0  0  0  0  0  0  0  0  0  0  0  0
  128.2221  133.8612   61.4120 H   0  0  0  0  0  0  0  0  0  0  0  0
  127.7476  132.4390   58.7459 H   0  0  0  0  0  0  0  0  0  0  0  0
  128.5081  134.0639   59.0676 H   0  0  0  0  0  0  0  0  0  0  0  0
  130.3182  133.0711   57.4522 H   0  0  0  0  0  0  0  0  0  0  0  0
  132.5507  131.9762   57.4604 H   0  0  0  0  0  0  0  0  0  0  0  0
  133.2891  130.6716   59.4555 H   0  0  0  0  0  0  0  0  0  0  0  0
  131.8004  130.4894   61.4389 H   0  0  0  0  0  0  0  0  0  0  0  0
  129.4391  130.6137   62.2788 H   0  0  0  0  0  0  0  0  0  0  0  0
  129.6117  132.4181   62.4731 H   0  0  0  0  0  0  0  0  0  0  0  0
  130.1494  125.1102   66.8517 H   0  0  0  0  0  0  0  0  0  0  0  0
  129.4519  124.5001   65.3128 H   0  0  0  0  0  0  0  0  0  0  0  0
  131.0535  125.3135   65.3128 H   0  0  0  0  0  0  0  0  0  0  0  0
  131.1330  128.1114   67.9757 H   0  0  0  0  0  0  0  0  0  0  0  0
  131.3492  127.9887   70.4510 H   0  0  0  0  0  0  0  0  0  0  0  0
  129.2012  125.6899   74.6471 H   0  0  0  0  0  0  0  0  0  0  0  0
  130.6599  124.1024   75.8961 H   0  0  0  0  0  0  0  0  0  0  0  0
  1  2  1  0
  2  3  2  0
  3  4  1  0
  4  5  2  0
  5  6  1  0
  6  7  2  0
  6  8  1  0
  8  9  1  0
  9 10  1  0
 10 11  1  0
 11 12  2  0
 12 13  1  0
 13 14  1  0
 14 15  1  0
 15 16  2  0
 16 17  1  0
 17 18  1  0
 18 19  2  0
 18 20  1  0
 20 21  1  0
 21 22  1  0
 22 23  1  0
 23 24  1  0
 24 25  2  0
 25 26  1  0
 26 27  2  0
 27 28  1  0
 28 29  2  0
 29 30  1  0
 16 31  1  0
 31 32  1  0
 32 33  1  0
 13 34  2  0
 34 35  1  0
 35 36  2  0
  5 37  1  0
 37 38  2  0
 38  2  1  0
 36  8  1  0
 36 11  1  0
 32 14  2  0
 30 21  1  0
 29 24  1  0
  1 39  1  0
  1 40  1  0
  1 41  1  0
  3 42  1  0
  4 43  1  0
  9 44  1  0
  9 45  1  0
 10 46  1  0
 10 47  1  0
 12 48  1  0
 17 49  1  0
 20 50  1  0
 20 51  1  0
 22 52  1  0
 22 53  1  0
 23 54  1  0
 23 55  1  0
 25 56  1  0
 26 57  1  0
 27 58  1  0
 28 59  1  0
 30 60  1  0
 30 61  1  0
 33 62  1  0
 33 63  1  0
 33 64  1  0
 34 65  1  0
 35 66  1  0
 37 67  1  0
 38 68  1  0
M  END
>  <Binding energies>  (1) 
[-10.07]

>  <Ligand effiencies>  (1) 
[-0.2582051282051282]

>  <Interactions>  (1) 
["V-A:GLU:543:CD:4908, V-A:PRO:540:CB:4885, V-A:TYR:539:CD1:4873, V-A:PRO:540:N:4884, V-A:PRO:540:CA:4883, V-A:TYR:539:C:4867, V-A:TYR:539:CE1:4875, V-B:GLU:543:CB:9878, V-B:GLU:543:CG:9879, V-B:GLU:543:CD:9880, V-B:HIS:456:CD2:9039, V-A:GLY:544:C:4912, V-B:GLY:544:C:9884, V-B:GLY:544:CA:9886, V-A:HIS:456:CD2:4068, V-A:HIS:456:CB:4065, V-A:HIS:456:CG:4066, V-A:HIS:456:CE1:4070, V-B:LYS:547:CE:9922, V-B:HIS:456:CE1:9041, V-B:GLU:543:C:9874, H-A:LYS:547:NZ:4951, V-A:GLU:543:CB:4906, V-A:GLU:543:C:4902, H-B:TYR:484:OH:9319, V-A:GLU:543:CG:4907, V-A:LEU:363:CD1:3189"]

$$$$
RR20_Rahimova_2017-again1
     RDKit          3D

 68 73  0  0  0  0  0  0  0  0999 V2000
  131.4790  123.6150   76.7020 C   0  0  0  0  0  0  0  0  0  0  0  0
  131.0600  124.6420   75.6650 C   0  0  0  0  0  0  0  0  0  0  0  0
  131.6220  125.9190   75.6840 C   0  0  0  0  0  0  0  0  0  0  0  0
  131.2450  126.8590   74.7300 C   0  0  0  0  0  0  0  0  0  0  0  0
  130.2940  126.5340   73.7550 C   0  0  0  0  0  0  0  0  0  0  0  0
  129.9090  127.5640   72.7150 C   0  0  0  0  0  0  0  0  0  0  0  0
  130.4660  128.6620   72.7630 O   0  0  0  0  0  0  0  0  0  0  0  0
  128.9930  127.2340   71.7580 N   0  0  0  0  0  0  0  0  0  0  0  0
  127.5670  127.0710   72.0840 C   0  0  0  0  0  0  0  0  0  0  0  0
  126.8460  126.8590   70.7630 C   0  0  0  0  0  0  0  0  0  0  0  0
  127.8680  127.2920   69.7540 C   0  0  0  0  0  0  0  0  0  0  0  0
  127.7450  127.3950   68.3680 C   0  0  0  0  0  0  0  0  0  0  0  0
  128.8680  127.6580   67.5680 C   0  0  0  0  0  0  0  0  0  0  0  0
  128.7370  127.7630   66.0760 C   0  0  0  0  0  0  0  0  0  0  0  0
  128.2380  128.8790   65.5680 N   0  0  0  0  0  0  0  0  0  0  0  0
  128.1520  128.8800   64.2600 C   0  0  0  0  0  0  0  0  0  0  0  0
  127.6480  129.8460   63.4300 N   0  0  0  0  0  0  0  0  0  0  0  0
  127.5270  131.0950   63.7350 C   0  0  0  0  0  0  0  0  0  0  0  0
  127.8740  131.7360   64.7450 O   0  0  0  0  0  0  0  0  0  0  0  0
  126.8400  131.9410   62.6430 C   0  0  0  0  0  0  0  0  0  0  0  0
  127.6610  133.2370   62.3810 N   0  0  2  0  0  0  0  0  0  0  0  0
  127.2900  133.9130   61.0450 C   0  0  0  0  0  0  0  0  0  0  0  0
  127.6860  133.0030   59.8670 C   0  0  0  0  0  0  0  0  0  0  0  0
  129.1150  132.4790   59.9670 C   0  0  0  0  0  0  0  0  0  0  0  0
  129.7620  132.0040   58.8200 C   0  0  0  0  0  0  0  0  0  0  0  0
  131.0480  131.4750   58.8820 C   0  0  0  0  0  0  0  0  0  0  0  0
  131.7100  131.4160   60.1020 C   0  0  0  0  0  0  0  0  0  0  0  0
  131.0860  131.8970   61.2500 C   0  0  0  0  0  0  0  0  0  0  0  0
  129.7960  132.4400   61.2070 C   0  0  0  0  0  0  0  0  0  0  0  0
  129.1860  133.0020   62.4970 C   0  0  0  0  0  0  0  0  0  0  0  0
  128.6900  127.4080   63.5420 S   0  0  0  0  0  0  0  0  0  0  0  0
  129.0930  126.7870   65.1240 C   0  0  0  0  0  0  0  0  0  0  0  0
  129.7310  125.4220   65.2740 C   0  0  0  0  0  0  0  0  0  0  0  0
  130.1190  127.7680   68.1900 C   0  0  0  0  0  0  0  0  0  0  0  0
  130.2480  127.6480   69.5740 C   0  0  0  0  0  0  0  0  0  0  0  0
  129.1090  127.4630   70.3690 C   0  0  0  0  0  0  0  0  0  0  0  0
  129.7570  125.2410   73.7230 C   0  0  0  0  0  0  0  0  0  0  0  0
  130.1350  124.3010   74.6780 C   0  0  0  0  0  0  0  0  0  0  0  0
  131.3126  124.0228   77.7100 H   0  0  0  0  0  0  0  0  0  0  0  0
  130.8824  122.6998   76.5736 H   0  0  0  0  0  0  0  0  0  0  0  0
  132.5456  123.3784   76.5736 H   0  0  0  0  0  0  0  0  0  0  0  0
  132.3630  126.1825   76.4531 H   0  0  0  0  0  0  0  0  0  0  0  0
  131.6961  127.8622   74.7418 H   0  0  0  0  0  0  0  0  0  0  0  0
  127.4239  126.1994   72.7396 H   0  0  0  0  0  0  0  0  0  0  0  0
  127.1762  127.9517   72.6146 H   0  0  0  0  0  0  0  0  0  0  0  0
  126.5754  125.8019   70.6244 H   0  0  0  0  0  0  0  0  0  0  0  0
  125.8990  127.4137   70.6896 H   0  0  0  0  0  0  0  0  0  0  0  0
  126.7586  127.2689   67.8978 H   0  0  0  0  0  0  0  0  0  0  0  0
  126.7768  131.3554   61.7140 H   0  0  0  0  0  0  0  0  0  0  0  0
  125.8293  132.2149   62.9799 H   0  0  0  0  0  0  0  0  0  0  0  0
  127.3980  133.8850   63.1120 H   0  0  0  0  0  0  0  0  0  0  0  0
  126.2053  134.0940   61.0170 H   0  0  0  0  0  0  0  0  0  0  0  0
  127.8295  134.8679   60.9612 H   0  0  0  0  0  0  0  0  0  0  0  0
  126.9994  132.1439   59.8426 H   0  0  0  0  0  0  0  0  0  0  0  0
  127.6229  133.6082   58.9506 H   0  0  0  0  0  0  0  0  0  0  0  0
  129.2439  132.0497   57.8507 H   0  0  0  0  0  0  0  0  0  0  0  0
  131.5379  131.1053   57.9691 H   0  0  0  0  0  0  0  0  0  0  0  0
  132.7229  130.9911   60.1608 H   0  0  0  0  0  0  0  0  0  0  0  0
  131.6180  131.8494   62.2116 H   0  0  0  0  0  0  0  0  0  0  0  0
  129.3715  132.2892   63.3140 H   0  0  0  0  0  0  0  0  0  0  0  0
  129.6592  133.9756   62.6926 H   0  0  0  0  0  0  0  0  0  0  0  0
  129.8420  125.1845   66.3423 H   0  0  0  0  0  0  0  0  0  0  0  0
  129.0936  124.6646   64.7943 H   0  0  0  0  0  0  0  0  0  0  0  0
  130.7209  125.4252   64.7943 H   0  0  0  0  0  0  0  0  0  0  0  0
  131.0137  127.9519   67.5771 H   0  0  0  0  0  0  0  0  0  0  0  0
  131.2428  127.6986   70.0407 H   0  0  0  0  0  0  0  0  0  0  0  0
  129.0340  124.9671   72.9406 H   0  0  0  0  0  0  0  0  0  0  0  0
  129.7041  123.2892   74.6542 H   0  0  0  0  0  0  0  0  0  0  0  0
  1  2  1  0
  2  3  2  0
  3  4  1  0
  4  5  2  0
  5  6  1  0
  6  7  2  0
  6  8  1  0
  8  9  1  0
  9 10  1  0
 10 11  1  0
 11 12  2  0
 12 13  1  0
 13 14  1  0
 14 15  1  0
 15 16  2  0
 16 17  1  0
 17 18  2  0
 18 19  1  0
 18 20  1  0
 20 21  1  0
 21 22  1  0
 22 23  1  0
 23 24  1  0
 24 25  2  0
 25 26  1  0
 26 27  2  0
 27 28  1  0
 28 29  2  0
 29 30  1  0
 16 31  1  0
 31 32  1  0
 32 33  1  0
 13 34  2  0
 34 35  1  0
 35 36  2  0
  5 37  1  0
 37 38  2  0
 38  2  1  0
 36  8  1  0
 36 11  1  0
 32 14  2  0
 30 21  1  0
 29 24  1  0
  1 39  1  0
  1 40  1  0
  1 41  1  0
  3 42  1  0
  4 43  1  0
  9 44  1  0
  9 45  1  0
 10 46  1  0
 10 47  1  0
 12 48  1  0
 20 49  1  0
 20 50  1  0
 21 51  1  1
 22 52  1  0
 22 53  1  0
 23 54  1  0
 23 55  1  0
 25 56  1  0
 26 57  1  0
 27 58  1  0
 28 59  1  0
 30 60  1  0
 30 61  1  0
 33 62  1  0
 33 63  1  0
 33 64  1  0
 34 65  1  0
 35 66  1  0
 37 67  1  0
 38 68  1  0
M  CHG  2  19  -1  21   1
M  END
>  <Binding energies>  (1) 
[-7.89]

>  <Ligand effiencies>  (1) 
[-0.2023076923076923]

>  <Interactions>  (1) 
["V-A:GLU:543:CD:4908, V-A:PRO:540:C:4881, V-A:PRO:540:CB:4885, V-A:TYR:539:CD1:4873, V-A:PRO:540:CA:4883, V-B:LEU:475:CD2:9230, V-A:TYR:539:CE1:4875, V-B:GLU:543:CB:9878, V-B:GLU:543:CG:9879, V-B:GLU:543:CD:9880, V-B:HIS:456:CD2:9039, V-B:GLY:544:C:9884, V-B:HIS:456:CG:9037, V-B:GLY:544:CA:9886, V-A:HIS:456:CD2:4068, V-A:HIS:456:CE1:4070, V-B:LYS:547:CE:9922, V-B:HIS:456:CE1:9041, V-B:GLU:543:C:9874, H-A:LYS:547:NZ:4951, V-A:GLU:543:CB:4906, H-B:TYR:484:OH:9319, V-A:ALA:541:CB:4892, V-A:GLU:543:CG:4907, V-A:ALA:541:CA:4890"]

$$$$
RR21_Rahimova_2017
     RDKit          3D

 62 67  0  0  0  0  0  0  0  0999 V2000
  124.2250  130.4390   62.2340 C   0  0  0  0  0  0  0  0  0  0  0  0
  125.5890  130.8220   62.3810 O   0  0  0  0  0  0  0  0  0  0  0  0
  126.5010  129.9010   62.8610 C   0  0  0  0  0  0  0  0  0  0  0  0
  127.1360  129.9950   64.1110 C   0  0  0  0  0  0  0  0  0  0  0  0
  128.0430  129.0200   64.5220 C   0  0  0  0  0  0  0  0  0  0  0  0
  128.3370  127.9250   63.7000 C   0  0  0  0  0  0  0  0  0  0  0  0
  129.3080  126.8760   64.1470 C   0  0  0  0  0  0  0  0  0  0  0  0
  130.2170  126.4240   63.3050 N   0  0  0  0  0  0  0  0  0  0  0  0
  130.9360  125.5080   63.9710 N   0  0  0  0  0  0  0  0  0  0  0  0
  132.0230  124.8310   63.3580 C   0  0  0  0  0  0  0  0  0  0  0  0
  132.7150  125.4090   62.2830 C   0  0  0  0  0  0  0  0  0  0  0  0
  133.7820  124.7370   61.6940 C   0  0  0  0  0  0  0  0  0  0  0  0
  134.1610  123.4860   62.1760 C   0  0  0  0  0  0  0  0  0  0  0  0
  133.4810  122.9000   63.2400 C   0  0  0  0  0  0  0  0  0  0  0  0
  132.4130  123.5700   63.8310 C   0  0  0  0  0  0  0  0  0  0  0  0
  130.4810  125.3940   65.2600 C   0  0  0  0  0  0  0  0  0  0  0  0
  129.4090  126.2590   65.4140 C   0  0  0  0  0  0  0  0  0  0  0  0
  128.6310  126.5220   66.6160 C   0  0  0  0  0  0  0  0  0  0  0  0
  129.0820  126.8340   67.8530 C   0  0  0  0  0  0  0  0  0  0  0  0
  130.7670  127.0080   68.3900 S   0  0  0  0  0  0  0  0  0  0  0  0
  130.1970  127.4160   70.0020 C   0  0  0  0  0  0  0  0  0  0  0  0
  130.9080  127.7210   71.0430 N   0  0  0  0  0  0  0  0  0  0  0  0
  130.3170  128.0460   72.2950 C   0  0  0  0  0  0  0  0  0  0  0  0
  130.9170  128.3650   73.3210 O   0  0  0  0  0  0  0  0  0  0  0  0
  128.8140  127.9820   72.2930 C   0  0  0  0  0  0  0  0  0  0  0  0
  128.0650  128.2930   73.5950 C   0  0  0  0  0  0  0  0  0  0  0  0
  128.1740  129.7460   74.0520 C   0  0  0  0  0  0  0  0  0  0  0  0
  127.4180  130.1970   75.1370 C   0  0  0  0  0  0  0  0  0  0  0  0
  127.5300  131.5180   75.5640 C   0  0  0  0  0  0  0  0  0  0  0  0
  128.4010  132.3900   74.9090 C   0  0  0  0  0  0  0  0  0  0  0  0
  128.5290  133.8260   75.3850 C   0  0  0  0  0  0  0  0  0  0  0  0
  129.1670  131.9380   73.8310 C   0  0  0  0  0  0  0  0  0  0  0  0
  129.0540  130.6190   73.4040 C   0  0  0  0  0  0  0  0  0  0  0  0
  128.1190  127.6700   71.2480 N   0  0  0  0  0  0  0  0  0  0  0  0
  128.8300  127.3840   70.0750 N   0  0  0  0  0  0  0  0  0  0  0  0
  128.1490  127.0690   68.9460 C   0  0  0  0  0  0  0  0  0  0  0  0
  126.9170  127.0010   68.8620 O   0  0  0  0  0  0  0  0  0  0  0  0
  127.7100  127.8340   62.4530 C   0  0  0  0  0  0  0  0  0  0  0  0
  126.8020  128.8090   62.0390 C   0  0  0  0  0  0  0  0  0  0  0  0
  126.2120  128.6910   60.8270 F   0  0  0  0  0  0  0  0  0  0  0  0
  123.7708  130.3115   63.2277 H   0  0  0  0  0  0  0  0  0  0  0  0
  123.6826  131.2196   61.6804 H   0  0  0  0  0  0  0  0  0  0  0  0
  124.1682  129.4902   61.6804 H   0  0  0  0  0  0  0  0  0  0  0  0
  126.9150  130.8464   64.7715 H   0  0  0  0  0  0  0  0  0  0  0  0
  128.5332  129.1115   65.5025 H   0  0  0  0  0  0  0  0  0  0  0  0
  132.4132  126.3967   61.9044 H   0  0  0  0  0  0  0  0  0  0  0  0
  134.3238  125.1917   60.8515 H   0  0  0  0  0  0  0  0  0  0  0  0
  135.0057  122.9562   61.7114 H   0  0  0  0  0  0  0  0  0  0  0  0
  133.7863  121.9111   63.6126 H   0  0  0  0  0  0  0  0  0  0  0  0
  131.8737  123.1087   64.6714 H   0  0  0  0  0  0  0  0  0  0  0  0
  130.8943  124.7322   66.0354 H   0  0  0  0  0  0  0  0  0  0  0  0
  127.5385  126.4591   66.5046 H   0  0  0  0  0  0  0  0  0  0  0  0
  127.0009  128.0582   73.4446 H   0  0  0  0  0  0  0  0  0  0  0  0
  128.5316  127.6803   74.3804 H   0  0  0  0  0  0  0  0  0  0  0  0
  126.7339  129.5083   75.6543 H   0  0  0  0  0  0  0  0  0  0  0  0
  126.9327  131.8736   76.4165 H   0  0  0  0  0  0  0  0  0  0  0  0
  128.5310  133.8489   76.4848 H   0  0  0  0  0  0  0  0  0  0  0  0
  129.4689  134.2550   75.0076 H   0  0  0  0  0  0  0  0  0  0  0  0
  127.6797  134.4145   75.0076 H   0  0  0  0  0  0  0  0  0  0  0  0
  129.8585  132.6246   73.3207 H   0  0  0  0  0  0  0  0  0  0  0  0
  129.6571  130.2622   72.5561 H   0  0  0  0  0  0  0  0  0  0  0  0
  127.9353  126.9845   61.7915 H   0  0  0  0  0  0  0  0  0  0  0  0
  1  2  1  0
  2  3  1  0
  3  4  2  0
  4  5  1  0
  5  6  2  0
  6  7  1  0
  7  8  2  0
  8  9  1  0
  9 10  1  0
 10 11  2  0
 11 12  1  0
 12 13  2  0
 13 14  1  0
 14 15  2  0
  9 16  1  0
 16 17  2  0
 17 18  1  0
 18 19  2  0
 19 20  1  0
 20 21  1  0
 21 22  2  0
 22 23  1  0
 23 24  2  0
 23 25  1  0
 25 26  1  0
 26 27  1  0
 27 28  2  0
 28 29  1  0
 29 30  2  0
 30 31  1  0
 30 32  1  0
 32 33  2  0
 25 34  2  0
 34 35  1  0
 35 36  1  0
 36 37  2  0
  6 38  1  0
 38 39  2  0
 39 40  1  0
 39  3  1  0
 17  7  1  0
 36 19  1  0
 15 10  1  0
 35 21  1  0
 33 27  1  0
  1 41  1  0
  1 42  1  0
  1 43  1  0
  4 44  1  0
  5 45  1  0
 11 46  1  0
 12 47  1  0
 13 48  1  0
 14 49  1  0
 15 50  1  0
 16 51  1  0
 18 52  1  0
 26 53  1  0
 26 54  1  0
 28 55  1  0
 29 56  1  0
 31 57  1  0
 31 58  1  0
 31 59  1  0
 32 60  1  0
 33 61  1  0
 38 62  1  0
M  END
>  <Binding energies>  (1) 
[-8.22]

>  <Ligand effiencies>  (1) 
[-0.20550000000000002]

>  <Interactions>  (1) 
["V-A:GLU:543:CD:4908, V-B:ASP:366:CG:8184, V-A:ARG:545:CZ:4926, V-A:LEU:475:CD2:4259, V-A:ILE:369:CD1:3239, V-A:GLY:454:CA:4049, V-A:ASP:366:CG:3213, V-B:GLU:543:CB:9878, V-B:GLU:543:CG:9879, V-B:GLU:543:CD:9880, V-B:HIS:456:CD2:9039, V-A:GLY:544:C:4912, V-B:HIS:456:CG:9037, V-B:ASP:473:CG:9211, V-A:LYS:547:CE:4950, V-A:HIS:456:CE1:4070, V-B:HIS:456:CE1:9041, V-B:GLU:543:C:9874, H-A:LYS:547:NZ:4951, V-A:GLU:543:CB:4906, V-A:GLU:543:CG:4907"]

$$$$
RR22_Rahimova_2017
     RDKit          3D

 49 54  0  0  0  0  0  0  0  0999 V2000
  131.4280  126.9220   75.9280 O   0  0  0  0  0  0  0  0  0  0  0  0
  130.5000  127.3750   75.2620 C   0  0  0  0  0  0  0  0  0  0  0  0
  129.3440  127.9800   75.7260 N   0  0  0  0  0  0  0  0  0  0  0  0
  128.3830  128.5130   74.8090 C   0  0  1  0  0  0  0  0  0  0  0  0
  127.1490  127.8720   75.1460 O   0  0  0  0  0  0  0  0  0  0  0  0
  126.0720  128.6700   75.5340 C   0  0  0  0  0  0  0  0  0  0  0  0
  125.0280  128.0260   76.1980 C   0  0  0  0  0  0  0  0  0  0  0  0
  123.8990  128.7500   76.5810 C   0  0  0  0  0  0  0  0  0  0  0  0
  123.8120  130.1130   76.2930 C   0  0  0  0  0  0  0  0  0  0  0  0
  124.8570  130.7570   75.6280 C   0  0  0  0  0  0  0  0  0  0  0  0
  126.0050  130.0500   75.2600 C   0  0  0  0  0  0  0  0  0  0  0  0
  127.1700  130.6440   74.5000 C   0  0  1  0  0  0  0  0  0  0  0  0
  127.5920  132.0910   74.6570 C   0  0  0  0  0  0  0  0  0  0  0  0
  129.0920  131.9580   74.3790 C   0  0  0  0  0  0  0  0  0  0  0  0
  129.9420  133.1100   74.0210 C   0  0  0  0  0  0  0  0  0  0  0  0
  130.6280  133.8260   75.0130 C   0  0  0  0  0  0  0  0  0  0  0  0
  131.4300  134.9110   74.6700 C   0  0  0  0  0  0  0  0  0  0  0  0
  131.5510  135.2860   73.3350 C   0  0  0  0  0  0  0  0  0  0  0  0
  130.8770  134.5860   72.3380 C   0  0  0  0  0  0  0  0  0  0  0  0
  130.0760  133.5000   72.6800 C   0  0  0  0  0  0  0  0  0  0  0  0
  129.4830  130.7470   74.5250 N   0  0  0  0  0  0  0  0  0  0  0  0
  128.3700  129.9800   74.9100 N   0  0  0  0  0  0  0  0  0  0  0  0
  128.7800  128.0180   73.4260 C   0  0  0  0  0  0  0  0  0  0  0  0
  127.9350  128.0300   72.3680 C   0  0  0  0  0  0  0  0  0  0  0  0
  128.1930  127.6030   70.9800 C   0  0  0  0  0  0  0  0  0  0  0  0
  129.4400  127.7450   70.3530 C   0  0  0  0  0  0  0  0  0  0  0  0
  129.6100  127.3180   69.0350 C   0  0  0  0  0  0  0  0  0  0  0  0
  128.5190  126.7600   68.3700 C   0  0  0  0  0  0  0  0  0  0  0  0
  127.3000  126.6180   68.9480 N   0  0  0  0  0  0  0  0  0  0  0  0
  127.1540  127.0380   70.2310 C   0  0  0  0  0  0  0  0  0  0  0  0
  130.4210  127.3570   73.4450 S   0  0  0  0  0  0  0  0  0  0  0  0
  129.1400  128.0160   76.7130 H   0  0  0  0  0  0  0  0  0  0  0  0
  125.0948  126.9505   76.4189 H   0  0  0  0  0  0  0  0  0  0  0  0
  123.0767  128.2465   77.1104 H   0  0  0  0  0  0  0  0  0  0  0  0
  122.9182  130.6809   76.5906 H   0  0  0  0  0  0  0  0  0  0  0  0
  124.7763  131.8284   75.3920 H   0  0  0  0  0  0  0  0  0  0  0  0
  126.7739  130.5317   73.4799 H   0  0  0  0  0  0  0  0  0  0  0  0
  127.0964  132.7434   73.9230 H   0  0  0  0  0  0  0  0  0  0  0  0
  127.3374  132.5470   75.6251 H   0  0  0  0  0  0  0  0  0  0  0  0
  130.5318  133.5286   76.0677 H   0  0  0  0  0  0  0  0  0  0  0  0
  131.9661  135.4699   75.4511 H   0  0  0  0  0  0  0  0  0  0  0  0
  132.1851  136.1434   73.0652 H   0  0  0  0  0  0  0  0  0  0  0  0
  130.9769  134.8895   71.2854 H   0  0  0  0  0  0  0  0  0  0  0  0
  129.5446  132.9440   71.8936 H   0  0  0  0  0  0  0  0  0  0  0  0
  126.9221  128.4083   72.5705 H   0  0  0  0  0  0  0  0  0  0  0  0
  130.2831  128.1925   70.8997 H   0  0  0  0  0  0  0  0  0  0  0  0
  130.5831  127.4195   68.5322 H   0  0  0  0  0  0  0  0  0  0  0  0
  128.6524  126.4204   67.3323 H   0  0  0  0  0  0  0  0  0  0  0  0
  126.1681  126.9286   70.7065 H   0  0  0  0  0  0  0  0  0  0  0  0
  1  2  2  0
  2  3  1  0
  3  4  1  0
  4  5  1  1
  5  6  1  0
  6  7  2  0
  7  8  1  0
  8  9  2  0
  9 10  1  0
 10 11  2  0
 11 12  1  0
 12 13  1  0
 13 14  1  0
 14 15  1  0
 15 16  2  0
 16 17  1  0
 17 18  2  0
 18 19  1  0
 19 20  2  0
 14 21  2  0
 21 22  1  0
  4 23  1  0
 23 24  2  0
 24 25  1  0
 25 26  2  0
 26 27  1  0
 27 28  2  0
 28 29  1  0
 29 30  2  0
 23 31  1  0
 31  2  1  0
 22  4  1  0
 30 25  1  0
 11  6  1  0
 22 12  1  0
 20 15  1  0
  3 32  1  0
  7 33  1  0
  8 34  1  0
  9 35  1  0
 10 36  1  0
 12 37  1  6
 13 38  1  0
 13 39  1  0
 16 40  1  0
 17 41  1  0
 18 42  1  0
 19 43  1  0
 20 44  1  0
 24 45  1  0
 26 46  1  0
 27 47  1  0
 28 48  1  0
 30 49  1  0
M  END
>  <Binding energies>  (1) 
[-8.35]

>  <Ligand effiencies>  (1) 
[-0.2609375]

>  <Interactions>  (1) 
["V-B:GLU:543:CB:9878, V-B:VAL:457:CA:9046, V-B:HIS:456:CD2:9039, V-B:HIS:456:CB:9036, V-B:GLY:544:C:9884, V-B:HIS:456:CG:9037, V-B:LYS:471:CD:9190, V-A:LYS:547:CE:4950, V-B:HIS:456:C:9032, V-A:HIS:456:CE1:4070, H-B:LYS:547:NZ:9923, V-B:LYS:547:CE:9922, V-B:HIS:456:CE1:9041, V-B:GLU:543:C:9874, H-A:LYS:547:NZ:4951, V-A:GLU:543:CB:4906, V-A:GLU:543:C:4902, V-A:GLY:544:CA:4914, V-B:LYS:547:CD:9921, V-B:TYR:484:CB:9312, V-B:VAL:458:CG2:9058, V-B:HIS:456:CA:9034, V-B:VAL:457:C:9044"]

$$$$
RR23_Rahimova_2017
     RDKit          3D

 65 70  0  0  0  0  0  0  0  0999 V2000
  133.3170  124.0070   76.5980 C   0  0  0  0  0  0  0  0  0  0  0  0
  132.5880  124.9510   75.6590 C   0  0  0  0  0  0  0  0  0  0  0  0
  131.2010  124.8740   75.5300 C   0  0  0  0  0  0  0  0  0  0  0  0
  130.5310  125.7460   74.6750 C   0  0  0  0  0  0  0  0  0  0  0  0
  131.2460  126.6950   73.9340 C   0  0  0  0  0  0  0  0  0  0  0  0
  130.4980  127.6460   73.0270 C   0  0  0  0  0  0  0  0  0  0  0  0
  130.8790  128.8190   72.9920 O   0  0  0  0  0  0  0  0  0  0  0  0
  129.4550  127.1790   72.2790 N   0  0  0  0  0  0  0  0  0  0  0  0
  128.1160  126.9890   72.8600 C   0  0  0  0  0  0  0  0  0  0  0  0
  127.2010  126.6070   71.7080 C   0  0  0  0  0  0  0  0  0  0  0  0
  128.0100  126.9760   70.5020 C   0  0  0  0  0  0  0  0  0  0  0  0
  127.6500  126.9330   69.1550 C   0  0  0  0  0  0  0  0  0  0  0  0
  128.6080  127.1680   68.1570 C   0  0  0  0  0  0  0  0  0  0  0  0
  128.2540  127.1300   66.6620 C   0  0  2  0  0  0  0  0  0  0  0  0
  129.3040  126.5310   65.8670 N   0  0  0  0  0  0  0  0  0  0  0  0
  129.3660  127.0400   64.7030 C   0  0  0  0  0  0  0  0  0  0  0  0
  130.2400  126.7440   63.7040 N   0  0  0  0  0  0  0  0  0  0  0  0
  131.3330  125.9450   63.7510 C   0  0  0  0  0  0  0  0  0  0  0  0
  131.7070  125.2990   64.7320 O   0  0  0  0  0  0  0  0  0  0  0  0
  132.1540  125.8670   62.4520 C   0  0  0  0  0  0  0  0  0  0  0  0
  132.2250  124.4570   62.0070 N   0  0  0  0  0  0  0  0  0  0  0  0
  133.4920  124.0030   61.6650 N   0  0  0  0  0  0  0  0  0  0  0  0
  133.6880  122.7890   61.2590 N   0  0  0  0  0  0  0  0  0  0  0  0
  132.6100  121.9070   61.1610 C   0  0  0  0  0  0  0  0  0  0  0  0
  132.8560  120.6050   60.7180 C   0  0  0  0  0  0  0  0  0  0  0  0
  131.7990  119.7000   60.6090 C   0  0  0  0  0  0  0  0  0  0  0  0
  130.5000  120.0930   60.9400 C   0  0  0  0  0  0  0  0  0  0  0  0
  130.2520  121.3940   61.3820 C   0  0  0  0  0  0  0  0  0  0  0  0
  131.3130  122.3010   61.4930 C   0  0  0  0  0  0  0  0  0  0  0  0
  131.0650  123.7150   61.9660 C   0  0  0  0  0  0  0  0  0  0  0  0
  129.9510  124.1520   62.2690 O   0  0  0  0  0  0  0  0  0  0  0  0
  128.1780  128.3170   64.3120 S   0  0  0  0  0  0  0  0  0  0  0  0
  127.8370  128.4980   66.0720 C   0  0  2  0  0  0  0  0  0  0  0  0
  128.5850  129.7380   66.6040 C   0  0  0  0  0  0  0  0  0  0  0  0
  129.9360  127.3970   68.5350 C   0  0  0  0  0  0  0  0  0  0  0  0
  130.3010  127.4200   69.8820 C   0  0  0  0  0  0  0  0  0  0  0  0
  129.3240  127.2640   70.8750 C   0  0  0  0  0  0  0  0  0  0  0  0
  132.6350  126.7840   74.0890 C   0  0  0  0  0  0  0  0  0  0  0  0
  133.3040  125.9130   74.9450 C   0  0  0  0  0  0  0  0  0  0  0  0
  133.1010  124.2867   77.6397 H   0  0  0  0  0  0  0  0  0  0  0  0
  132.9783  122.9762   76.4174 H   0  0  0  0  0  0  0  0  0  0  0  0
  134.4000  124.0741   76.4174 H   0  0  0  0  0  0  0  0  0  0  0  0
  130.6363  124.1244   76.1037 H   0  0  0  0  0  0  0  0  0  0  0  0
  129.4365  125.6889   74.5816 H   0  0  0  0  0  0  0  0  0  0  0  0
  128.1374  126.1861   73.6116 H   0  0  0  0  0  0  0  0  0  0  0  0
  127.7653  127.9022   73.3630 H   0  0  0  0  0  0  0  0  0  0  0  0
  126.9776  125.5300   71.7204 H   0  0  0  0  0  0  0  0  0  0  0  0
  126.2228  127.1087   71.7452 H   0  0  0  0  0  0  0  0  0  0  0  0
  126.6095  126.7137   68.8736 H   0  0  0  0  0  0  0  0  0  0  0  0
  127.3628  126.4875   66.6075 H   0  0  0  0  0  0  0  0  0  0  0  0
  130.0830  127.2150   62.8250 H   0  0  0  0  0  0  0  0  0  0  0  0
  131.6700  126.4749   61.6734 H   0  0  0  0  0  0  0  0  0  0  0  0
  133.1693  126.2500   62.6321 H   0  0  0  0  0  0  0  0  0  0  0  0
  133.8783  120.2945   60.4562 H   0  0  0  0  0  0  0  0  0  0  0  0
  131.9895  118.6739   60.2613 H   0  0  0  0  0  0  0  0  0  0  0  0
  129.6706  119.3758   60.8522 H   0  0  0  0  0  0  0  0  0  0  0  0
  129.2292  121.7046   61.6415 H   0  0  0  0  0  0  0  0  0  0  0  0
  126.7916  128.6985   66.3496 H   0  0  0  0  0  0  0  0  0  0  0  0
  128.5781  129.7265   67.7039 H   0  0  0  0  0  0  0  0  0  0  0  0
  129.6242  129.7219   66.2437 H   0  0  0  0  0  0  0  0  0  0  0  0
  128.0861  130.6497   66.2437 H   0  0  0  0  0  0  0  0  0  0  0  0
  130.7009  127.5607   67.7616 H   0  0  0  0  0  0  0  0  0  0  0  0
  131.3549  127.5605   70.1642 H   0  0  0  0  0  0  0  0  0  0  0  0
  133.2002  127.5456   73.5318 H   0  0  0  0  0  0  0  0  0  0  0  0
  134.3959  125.9831   75.0584 H   0  0  0  0  0  0  0  0  0  0  0  0
  1  2  1  0
  2  3  2  0
  3  4  1  0
  4  5  2  0
  5  6  1  0
  6  7  2  0
  6  8  1  0
  8  9  1  0
  9 10  1  0
 10 11  1  0
 11 12  2  0
 12 13  1  0
 13 14  1  0
 14 15  1  0
 15 16  2  0
 16 17  1  0
 17 18  1  0
 18 19  2  0
 18 20  1  0
 20 21  1  0
 21 22  1  0
 22 23  2  0
 23 24  1  0
 24 25  2  0
 25 26  1  0
 26 27  2  0
 27 28  1  0
 28 29  2  0
 29 30  1  0
 30 31  2  0
 16 32  1  0
 32 33  1  0
 33 34  1  0
 13 35  2  0
 35 36  1  0
 36 37  2  0
  5 38  1  0
 38 39  2  0
 39  2  1  0
 37  8  1  0
 37 11  1  0
 33 14  1  0
 30 21  1  0
 29 24  1  0
  1 40  1  0
  1 41  1  0
  1 42  1  0
  3 43  1  0
  4 44  1  0
  9 45  1  0
  9 46  1  0
 10 47  1  0
 10 48  1  0
 12 49  1  0
 14 50  1  1
 17 51  1  0
 20 52  1  0
 20 53  1  0
 25 54  1  0
 26 55  1  0
 27 56  1  0
 28 57  1  0
 33 58  1  6
 34 59  1  0
 34 60  1  0
 34 61  1  0
 35 62  1  0
 36 63  1  0
 38 64  1  0
 39 65  1  0
M  END
>  <Binding energies>  (1) 
[-8.93]

>  <Ligand effiencies>  (1) 
[-0.22325]

>  <Interactions>  (1) 
["V-B:TYR:539:CD2:9846, V-A:GLU:543:CD:4908, H-A:TYR:484:OH:4348, V-B:TYR:539:CE2:9848, V-A:ARG:545:CZ:4926, V-A:LEU:475:CD2:4259, V-A:ASP:366:CG:3213, V-A:ILE:369:CG2:3237, H-A:GLU:543:OE2:4910, V-B:GLU:543:CB:9878, V-B:GLU:543:CG:9879, V-B:GLU:543:CD:9880, V-B:GLY:544:C:9884, V-B:GLY:544:CA:9886, V-A:HIS:456:CD2:4068, V-A:HIS:456:CB:4065, V-A:HIS:456:CG:4066, V-A:HIS:456:CE1:4070, V-B:LYS:547:CE:9922, V-B:HIS:456:CE1:9041, V-B:GLU:543:C:9874, H-A:LYS:547:NZ:4951, H-A:GLU:543:OE1:4909, H-A:ARG:545:NH2:4928, V-A:GLU:543:CB:4906, V-B:TYR:484:CZ:9318, V-A:GLU:543:CG:4907, V-A:SER:385:CB:3409, V-A:GLU:543:CA:4904, V-A:VAL:458:CG2:4087, V-B:TYR:484:CE2:9317, V-A:LYS:471:CD:4219"]

$$$$
RR24_Rahimova_2017
     RDKit          3D

 65 71  0  0  0  0  0  0  0  0999 V2000
  128.3890  127.7290   67.0320 C   0  0  0  0  0  0  0  0  0  0  0  0
  129.5130  127.1980   67.9330 C   0  0  2  0  0  0  0  0  0  0  0  0
  129.9290  125.7350   67.5990 C   0  0  0  0  0  0  0  0  0  0  0  0
  129.3850  124.7610   68.1290 O   0  0  0  0  0  0  0  0  0  0  0  0
  130.9530  125.6750   66.6970 O   0  0  0  0  0  0  0  0  0  0  0  0
  130.7310  125.1330   65.4520 C   0  0  0  0  0  0  0  0  0  0  0  0
  130.1290  123.8770   65.3490 C   0  0  0  0  0  0  0  0  0  0  0  0
  129.8910  123.3230   64.0950 C   0  0  0  0  0  0  0  0  0  0  0  0
  130.2450  124.0230   62.9390 C   0  0  0  0  0  0  0  0  0  0  0  0
  129.9980  123.3990   61.5600 C   0  0  1  0  0  0  0  0  0  0  0  0
  128.5320  123.5750   61.1000 C   0  0  0  0  0  0  0  0  0  0  0  0
  128.2020  124.0760   59.8960 C   0  0  0  0  0  0  0  0  0  0  0  0
  129.1490  124.4700   58.9820 N   0  0  0  0  0  0  0  0  0  0  0  0
  130.4920  124.3730   59.2580 C   0  0  0  0  0  0  0  0  0  0  0  0
  131.2950  124.7960   58.2490 N   0  0  0  0  0  0  0  0  0  0  0  0
  132.6500  124.8470   58.3690 C   0  0  0  0  0  0  0  0  0  0  0  0
  133.3010  125.5230   57.5690 O   0  0  0  0  0  0  0  0  0  0  0  0
  133.1390  124.2430   59.5170 N   0  0  0  0  0  0  0  0  0  0  0  0
  134.6090  124.1910   59.6530 C   0  0  0  0  0  0  0  0  0  0  0  0
  132.4150  123.7820   60.6030 C   0  0  0  0  0  0  0  0  0  0  0  0
  132.9220  123.3000   61.6200 O   0  0  0  0  0  0  0  0  0  0  0  0
  130.9610  123.8910   60.4390 C   0  0  0  0  0  0  0  0  0  0  0  0
  126.7590  124.1280   59.7350 C   0  0  0  0  0  0  0  0  0  0  0  0
  125.9320  124.5590   58.6960 C   0  0  0  0  0  0  0  0  0  0  0  0
  124.5460  124.4780   58.8510 C   0  0  0  0  0  0  0  0  0  0  0  0
  123.9970  123.9710   60.0320 C   0  0  0  0  0  0  0  0  0  0  0  0
  124.8300  123.5410   61.0690 C   0  0  0  0  0  0  0  0  0  0  0  0
  126.2140  123.6250   60.9090 C   0  0  0  0  0  0  0  0  0  0  0  0
  127.3100  123.2450   61.8260 C   0  0  0  0  0  0  0  0  0  0  0  0
  127.2590  122.7590   62.9540 O   0  0  0  0  0  0  0  0  0  0  0  0
  130.8310  125.2890   63.0440 C   0  0  0  0  0  0  0  0  0  0  0  0
  131.0680  125.8450   64.2980 C   0  0  0  0  0  0  0  0  0  0  0  0
  129.2060  127.3840   69.3820 N   0  0  0  0  0  0  0  0  0  0  0  0
  130.1230  127.9070   70.2440 C   0  0  0  0  0  0  0  0  0  0  0  0
  131.2710  128.2720   69.9830 O   0  0  0  0  0  0  0  0  0  0  0  0
  129.4480  127.9420   71.5650 C   0  0  0  0  0  0  0  0  0  0  0  0
  129.9030  128.3740   72.8120 C   0  0  0  0  0  0  0  0  0  0  0  0
  129.0340  128.2930   73.9060 C   0  0  0  0  0  0  0  0  0  0  0  0
  127.7370  127.7890   73.7420 C   0  0  0  0  0  0  0  0  0  0  0  0
  127.3000  127.3610   72.4840 C   0  0  0  0  0  0  0  0  0  0  0  0
  128.1820  127.4490   71.4050 C   0  0  0  0  0  0  0  0  0  0  0  0
  128.0110  127.0840   69.9770 C   0  0  0  0  0  0  0  0  0  0  0  0
  127.0060  126.6160   69.4420 O   0  0  0  0  0  0  0  0  0  0  0  0
  127.5703  128.1158   67.6565 H   0  0  0  0  0  0  0  0  0  0  0  0
  128.7794  128.5379   66.3970 H   0  0  0  0  0  0  0  0  0  0  0  0
  128.0121  126.9137   66.3970 H   0  0  0  0  0  0  0  0  0  0  0  0
  130.3957  127.8154   67.7101 H   0  0  0  0  0  0  0  0  0  0  0  0
  129.8435  123.3267   66.2576 H   0  0  0  0  0  0  0  0  0  0  0  0
  129.4227  122.3310   64.0136 H   0  0  0  0  0  0  0  0  0  0  0  0
  130.2133  122.3308   61.7106 H   0  0  0  0  0  0  0  0  0  0  0  0
  128.8560  124.8380   58.0880 H   0  0  0  0  0  0  0  0  0  0  0  0
  130.9040  125.1140   57.3750 H   0  0  0  0  0  0  0  0  0  0  0  0
  134.8785  124.1815   60.7194 H   0  0  0  0  0  0  0  0  0  0  0  0
  134.9898  123.2788   59.1704 H   0  0  0  0  0  0  0  0  0  0  0  0
  135.0533  125.0740   59.1704 H   0  0  0  0  0  0  0  0  0  0  0  0
  126.3662  124.9573   57.7671 H   0  0  0  0  0  0  0  0  0  0  0  0
  123.8838  124.8148   58.0398 H   0  0  0  0  0  0  0  0  0  0  0  0
  122.9046  123.9100   60.1460 H   0  0  0  0  0  0  0  0  0  0  0  0
  124.4002  123.1415   61.9994 H   0  0  0  0  0  0  0  0  0  0  0  0
  131.1046  125.8453   62.1353 H   0  0  0  0  0  0  0  0  0  0  0  0
  131.5203  126.8443   64.3803 H   0  0  0  0  0  0  0  0  0  0  0  0
  130.9224  128.7695   72.9321 H   0  0  0  0  0  0  0  0  0  0  0  0
  129.3706  128.6264   74.8987 H   0  0  0  0  0  0  0  0  0  0  0  0
  127.0593  127.7296   74.6064 H   0  0  0  0  0  0  0  0  0  0  0  0
  126.2834  126.9636   72.3476 H   0  0  0  0  0  0  0  0  0  0  0  0
  1  2  1  0
  2  3  1  0
  3  4  2  0
  3  5  1  0
  5  6  1  0
  6  7  2  0
  7  8  1  0
  8  9  2  0
  9 10  1  0
 10 11  1  0
 11 12  2  0
 12 13  1  0
 13 14  1  0
 14 15  1  0
 15 16  1  0
 16 17  2  0
 16 18  1  0
 18 19  1  0
 18 20  1  0
 20 21  2  0
 20 22  1  0
 12 23  1  0
 23 24  2  0
 24 25  1  0
 25 26  2  0
 26 27  1  0
 27 28  2  0
 28 29  1  0
 29 30  2  0
  9 31  1  0
 31 32  2  0
  2 33  1  0
 33 34  1  0
 34 35  2  0
 34 36  1  0
 36 37  2  0
 37 38  1  0
 38 39  2  0
 39 40  1  0
 40 41  2  0
 41 42  1  0
 42 43  2  0
 32  6  1  0
 42 33  1  0
 22 10  1  0
 28 23  1  0
 41 36  1  0
 29 11  1  0
 22 14  2  0
  1 44  1  0
  1 45  1  0
  1 46  1  0
  2 47  1  6
  7 48  1  0
  8 49  1  0
 10 50  1  1
 13 51  1  0
 15 52  1  0
 19 53  1  0
 19 54  1  0
 19 55  1  0
 24 56  1  0
 25 57  1  0
 26 58  1  0
 27 59  1  0
 31 60  1  0
 32 61  1  0
 37 62  1  0
 38 63  1  0
 39 64  1  0
 40 65  1  0
M  END
>  <Binding energies>  (1) 
[-11.42]

>  <Ligand effiencies>  (1) 
[-0.25377777777777777]

>  <Interactions>  (1) 
["V-B:LEU:363:CA:8156, V-B:ASP:366:CB:8183, V-A:GLU:543:CD:4908, V-B:ASP:366:CG:8184, V-B:PRO:540:CB:9857, H-A:TYR:484:OH:4348, V-B:TYR:539:CE2:9848, V-B:TYR:539:CZ:9849, V-B:PRO:540:CA:9855, V-A:ASP:366:CB:3212, V-A:ILE:369:CD1:3239, H-B:ALA:541:N:9863, V-B:ASN:362:CB:8147, V-A:ASP:366:CG:3213, V-A:ILE:369:CG2:3237, V-A:ILE:369:CG1:3238, V-A:TYR:484:CZ:4347, V-A:ILE:369:CB:3236, V-B:GLU:543:CB:9878, V-B:GLU:543:CG:9879, V-A:TYR:484:CE2:4346, V-B:GLU:543:CD:9880, H-B:TYR:539:OH:9850, V-B:ASN:362:C:8143, V-A:ASP:366:CA:3210, V-B:HIS:456:CD2:9039, V-B:GLY:544:C:9884, V-B:HIS:456:CG:9037, V-A:HIS:456:CE1:4070, V-B:LYS:547:CE:9922, V-B:HIS:456:CE1:9041, V-B:GLU:543:C:9874, V-A:GLU:543:CB:4906, V-A:GLU:543:C:4902, V-A:ASP:366:C:3208, H-A:ARG:545:N:4920, H-A:TYR:531:OH:4795"]

$$$$
RR24_Rahimova_2017-again1
     RDKit          3D

 63 69  0  0  0  0  0  0  0  0999 V2000
  130.0050  126.2080   67.5410 C   0  0  0  0  0  0  0  0  0  0  0  0
  128.6120  126.6910   67.9650 C   0  0  2  0  0  0  0  0  0  0  0  0
  128.0170  127.7700   67.0140 C   0  0  0  0  0  0  0  0  0  0  0  0
  127.3660  128.7310   67.4400 O   0  0  0  0  0  0  0  0  0  0  0  0
  128.2750  127.5120   65.6980 O   0  0  0  0  0  0  0  0  0  0  0  0
  128.2570  128.5430   64.7870 C   0  0  0  0  0  0  0  0  0  0  0  0
  128.2440  129.8630   65.2410 C   0  0  0  0  0  0  0  0  0  0  0  0
  128.2460  130.9120   64.3260 C   0  0  0  0  0  0  0  0  0  0  0  0
  128.2690  130.6470   62.9530 C   0  0  0  0  0  0  0  0  0  0  0  0
  128.2710  131.8000   61.9400 C   0  0  1  0  0  0  0  0  0  0  0  0
  129.4910  131.7150   60.9920 C   0  0  0  0  0  0  0  0  0  0  0  0
  130.8210  131.8030   61.2140 C   0  0  0  0  0  0  0  0  0  0  0  0
  131.3660  132.0310   62.3600 O   0  0  0  0  0  0  0  0  0  0  0  0
  131.5580  131.5740   59.9710 C   0  0  0  0  0  0  0  0  0  0  0  0
  132.9280  131.5460   59.6760 C   0  0  0  0  0  0  0  0  0  0  0  0
  133.3460  131.2900   58.3700 C   0  0  0  0  0  0  0  0  0  0  0  0
  132.4030  131.0650   57.3640 C   0  0  0  0  0  0  0  0  0  0  0  0
  131.0400  131.0960   57.6630 C   0  0  0  0  0  0  0  0  0  0  0  0
  130.6230  131.3480   58.9720 C   0  0  0  0  0  0  0  0  0  0  0  0
  129.3060  131.4580   59.5740 C   0  0  0  0  0  0  0  0  0  0  0  0
  128.1470  131.3710   59.0370 N   0  0  0  0  0  0  0  0  0  0  0  0
  127.0100  131.6250   59.7450 C   0  0  0  0  0  0  0  0  0  0  0  0
  125.8880  131.6430   58.9680 N   0  0  0  0  0  0  0  0  0  0  0  0
  124.7450  131.8550   59.5170 C   0  0  0  0  0  0  0  0  0  0  0  0
  123.7950  131.8440   58.7160 O   0  0  0  0  0  0  0  0  0  0  0  0
  124.6040  132.0780   60.8860 N   0  0  0  0  0  0  0  0  0  0  0  0
  123.3010  132.3230   61.5470 C   0  0  0  0  0  0  0  0  0  0  0  0
  125.6850  132.0960   61.7460 C   0  0  0  0  0  0  0  0  0  0  0  0
  125.6070  132.3140   62.9590 O   0  0  0  0  0  0  0  0  0  0  0  0
  126.9750  131.8390   61.0980 C   0  0  0  0  0  0  0  0  0  0  0  0
  128.2950  129.3240   62.5020 C   0  0  0  0  0  0  0  0  0  0  0  0
  128.2950  128.2740   63.4160 C   0  0  0  0  0  0  0  0  0  0  0  0
  128.5780  127.1160   69.3960 N   0  0  0  0  0  0  0  0  0  0  0  0
  129.6580  127.6910   69.9950 C   0  0  0  0  0  0  0  0  0  0  0  0
  130.7550  127.9320   69.4890 O   0  0  0  0  0  0  0  0  0  0  0  0
  129.2340  127.9680   71.3900 C   0  0  0  0  0  0  0  0  0  0  0  0
  129.9250  128.5430   72.4590 C   0  0  0  0  0  0  0  0  0  0  0  0
  129.2640  128.6820   73.6840 C   0  0  0  0  0  0  0  0  0  0  0  0
  127.9380  128.2540   73.8260 C   0  0  0  0  0  0  0  0  0  0  0  0
  127.2620  127.6820   72.7430 C   0  0  0  0  0  0  0  0  0  0  0  0
  127.9390  127.5490   71.5290 C   0  0  0  0  0  0  0  0  0  0  0  0
  127.4960  126.9940   70.2250 C   0  0  0  0  0  0  0  0  0  0  0  0
  126.3910  126.5270   69.9500 O   0  0  0  0  0  0  0  0  0  0  0  0
  130.6087  125.9987   68.4364 H   0  0  0  0  0  0  0  0  0  0  0  0
  129.9083  125.2909   66.9413 H   0  0  0  0  0  0  0  0  0  0  0  0
  130.4968  126.9881   66.9413 H   0  0  0  0  0  0  0  0  0  0  0  0
  127.9496  125.8178   67.8715 H   0  0  0  0  0  0  0  0  0  0  0  0
  128.2322  130.0739   66.3205 H   0  0  0  0  0  0  0  0  0  0  0  0
  128.2294  131.9521   64.6838 H   0  0  0  0  0  0  0  0  0  0  0  0
  128.3317  132.7265   62.5299 H   0  0  0  0  0  0  0  0  0  0  0  0
  133.6688  131.7248   60.4693 H   0  0  0  0  0  0  0  0  0  0  0  0
  134.4196  131.2652   58.1319 H   0  0  0  0  0  0  0  0  0  0  0  0
  132.7352  130.8632   56.3350 H   0  0  0  0  0  0  0  0  0  0  0  0
  130.2970  130.9226   56.8707 H   0  0  0  0  0  0  0  0  0  0  0  0
  123.4333  132.2981   62.6387 H   0  0  0  0  0  0  0  0  0  0  0  0
  122.9171  133.3091   61.2465 H   0  0  0  0  0  0  0  0  0  0  0  0
  122.5852  131.5437   61.2465 H   0  0  0  0  0  0  0  0  0  0  0  0
  128.3155  129.1123   61.4228 H   0  0  0  0  0  0  0  0  0  0  0  0
  128.3249  127.2338   63.0596 H   0  0  0  0  0  0  0  0  0  0  0  0
  130.9657  128.8790   72.3403 H   0  0  0  0  0  0  0  0  0  0  0  0
  129.7887  129.1300   74.5407 H   0  0  0  0  0  0  0  0  0  0  0  0
  127.4261  128.3681   74.7929 H   0  0  0  0  0  0  0  0  0  0  0  0
  126.2201  127.3444   72.8455 H   0  0  0  0  0  0  0  0  0  0  0  0
  1  2  1  0
  2  3  1  0
  3  4  2  0
  3  5  1  0
  5  6  1  0
  6  7  2  0
  7  8  1  0
  8  9  2  0
  9 10  1  0
 10 11  1  0
 11 12  2  0
 12 13  1  0
 12 14  1  0
 14 15  2  0
 15 16  1  0
 16 17  2  0
 17 18  1  0
 18 19  2  0
 19 20  1  0
 20 21  2  0
 21 22  1  0
 22 23  1  0
 23 24  2  0
 24 25  1  0
 24 26  1  0
 26 27  1  0
 26 28  1  0
 28 29  2  0
 28 30  1  0
  9 31  1  0
 31 32  2  0
  2 33  1  0
 33 34  1  0
 34 35  2  0
 34 36  1  0
 36 37  2  0
 37 38  1  0
 38 39  2  0
 39 40  1  0
 40 41  2  0
 41 42  1  0
 42 43  2  0
 32  6  1  0
 42 33  1  0
 30 10  1  0
 41 36  1  0
 20 11  1  0
 30 22  2  0
 19 14  1  0
  1 44  1  0
  1 45  1  0
  1 46  1  0
  2 47  1  1
  7 48  1  0
  8 49  1  0
 10 50  1  1
 15 51  1  0
 16 52  1  0
 17 53  1  0
 18 54  1  0
 27 55  1  0
 27 56  1  0
 27 57  1  0
 31 58  1  0
 32 59  1  0
 37 60  1  0
 38 61  1  0
 39 62  1  0
 40 63  1  0
M  CHG  2  13  -1  25  -1
M  END
>  <Binding energies>  (1) 
[-8.57]

>  <Ligand effiencies>  (1) 
[-0.19930232558139535]

>  <Interactions>  (1) 
["V-A:GLU:543:CD:4908, V-A:TYR:531:CE2:4793, V-A:ASP:366:CB:3212, V-B:ILE:369:CB:8207, V-A:PRO:540:CB:4885, V-A:PRO:540:CA:4883, V-B:ILE:369:CG2:8208, V-A:TYR:539:CE1:4875, H-A:ALA:541:N:4891, V-B:ILE:369:CG1:8209, V-B:GLU:543:CB:9878, V-B:GLU:543:CG:9879, V-B:GLU:543:CD:9880, V-B:HIS:456:CD2:9039, V-B:GLY:544:C:9884, V-B:HIS:456:CG:9037, V-A:HIS:456:CE1:4070, V-B:LYS:547:CE:9922, V-B:HIS:456:CE1:9041, V-B:GLU:543:C:9874, V-A:GLU:543:CB:4906, H-B:TYR:484:OH:9319, V-A:GLU:543:CG:4907, H-B:HIS:456:ND1:9038, V-A:LEU:363:CD1:3189, V-A:LEU:363:CA:3185, V-A:LEU:363:CB:3187, H-A:TYR:539:OH:4878, H-B:ARG:545:N:9892, H-B:GLY:544:N:9887, V-A:LEU:363:CG:3188"]

$$$$
RR25_Rahimova_2017
     RDKit          3D

 63 68  0  0  0  0  0  0  0  0999 V2000
  134.2450  124.5260   66.1600 O   0  0  0  0  0  0  0  0  0  0  0  0
  133.6030  124.7720   65.1380 C   0  0  0  0  0  0  0  0  0  0  0  0
  134.3290  124.8760   63.9770 O   0  0  0  0  0  0  0  0  0  0  0  0
  133.7110  124.9000   62.7400 C   0  0  0  0  0  0  0  0  0  0  0  0
  134.4650  124.4570   61.6540 C   0  0  0  0  0  0  0  0  0  0  0  0
  133.9080  124.4620   60.3770 C   0  0  0  0  0  0  0  0  0  0  0  0
  132.5960  124.9110   60.1660 C   0  0  0  0  0  0  0  0  0  0  0  0
  132.0020  124.9080   58.8070 N   0  0  0  0  0  0  0  0  0  0  0  0
  132.7430  125.0760   57.8420 O   0  0  0  0  0  0  0  0  0  0  0  0
  130.7920  124.7360   58.6950 O   0  0  0  0  0  0  0  0  0  0  0  0
  131.8580  125.3650   61.2720 C   0  0  0  0  0  0  0  0  0  0  0  0
  132.4040  125.3740   62.5580 C   0  0  0  0  0  0  0  0  0  0  0  0
  131.6440  125.8440   63.7850 C   0  0  0  0  0  0  0  0  0  0  0  0
  132.0680  124.9980   65.0190 C   0  0  2  0  0  0  0  0  0  0  0  0
  131.3820  125.5160   66.3160 C   0  0  0  0  0  0  0  0  0  0  0  0
  132.0170  125.3640   67.3640 O   0  0  0  0  0  0  0  0  0  0  0  0
  130.2060  126.2130   66.2890 N   0  0  0  0  0  0  0  0  0  0  0  0
  129.2680  126.1570   65.1480 C   0  0  0  0  0  0  0  0  0  0  0  0
  128.6350  127.5500   64.9490 C   0  0  0  0  0  0  0  0  0  0  0  0
  128.0040  128.0320   66.1810 N   0  0  0  0  0  0  0  0  0  0  0  0
  127.2870  129.2950   65.9600 C   0  0  0  0  0  0  0  0  0  0  0  0
  126.3810  129.2610   64.7010 C   0  0  0  0  0  0  0  0  0  0  0  0
  126.1750  130.5650   64.0050 N   0  0  0  0  0  0  0  0  0  0  0  0
  127.3290  131.2340   63.6550 C   0  0  0  0  0  0  0  0  0  0  0  0
  128.4620  130.8150   63.9230 O   0  0  0  0  0  0  0  0  0  0  0  0
  127.1040  132.5240   62.8900 C   0  0  0  0  0  0  0  0  0  0  0  0
  128.2090  133.2710   62.4620 C   0  0  0  0  0  0  0  0  0  0  0  0
  128.0390  134.4570   61.7500 C   0  0  0  0  0  0  0  0  0  0  0  0
  126.7660  134.9320   61.4410 C   0  0  0  0  0  0  0  0  0  0  0  0
  125.6200  134.2110   61.8540 C   0  0  0  0  0  0  0  0  0  0  0  0
  124.2990  134.6330   61.5730 C   0  0  0  0  0  0  0  0  0  0  0  0
  123.2140  133.8730   62.0060 C   0  0  0  0  0  0  0  0  0  0  0  0
  123.4070  132.6920   62.7190 C   0  0  0  0  0  0  0  0  0  0  0  0
  124.6960  132.2340   63.0200 C   0  0  0  0  0  0  0  0  0  0  0  0
  125.8050  133.0020   62.5810 C   0  0  0  0  0  0  0  0  0  0  0  0
  124.8640  130.9380   63.7900 C   0  0  0  0  0  0  0  0  0  0  0  0
  123.8970  130.2730   64.1730 O   0  0  0  0  0  0  0  0  0  0  0  0
  129.0090  128.1580   67.2380 C   0  0  0  0  0  0  0  0  0  0  0  0
  129.6890  126.8020   67.5460 C   0  0  0  0  0  0  0  0  0  0  0  0
  135.4961  124.1048   61.8050 H   0  0  0  0  0  0  0  0  0  0  0  0
  134.5049  124.1092   59.5231 H   0  0  0  0  0  0  0  0  0  0  0  0
  130.8281  125.7211   61.1222 H   0  0  0  0  0  0  0  0  0  0  0  0
  131.8714  126.9038   63.9724 H   0  0  0  0  0  0  0  0  0  0  0  0
  130.5642  125.7231   63.6136 H   0  0  0  0  0  0  0  0  0  0  0  0
  131.6878  123.9786   64.8567 H   0  0  0  0  0  0  0  0  0  0  0  0
  129.8120  125.8656   64.2374 H   0  0  0  0  0  0  0  0  0  0  0  0
  128.4803  125.4164   65.3506 H   0  0  0  0  0  0  0  0  0  0  0  0
  129.4194  128.2597   64.6474 H   0  0  0  0  0  0  0  0  0  0  0  0
  127.8606  127.4704   64.1718 H   0  0  0  0  0  0  0  0  0  0  0  0
  126.6589  129.5008   66.8393 H   0  0  0  0  0  0  0  0  0  0  0  0
  128.0411  130.0804   65.8036 H   0  0  0  0  0  0  0  0  0  0  0  0
  126.8328  128.5632   63.9806 H   0  0  0  0  0  0  0  0  0  0  0  0
  125.3867  128.9577   65.0606 H   0  0  0  0  0  0  0  0  0  0  0  0
  129.2249  132.9167   62.6910 H   0  0  0  0  0  0  0  0  0  0  0  0
  128.9229  135.0266   61.4272 H   0  0  0  0  0  0  0  0  0  0  0  0
  126.6515  135.8685   60.8754 H   0  0  0  0  0  0  0  0  0  0  0  0
  124.1280  135.5632   61.0114 H   0  0  0  0  0  0  0  0  0  0  0  0
  122.1913  134.2103   61.7817 H   0  0  0  0  0  0  0  0  0  0  0  0
  122.5342  132.1104   63.0506 H   0  0  0  0  0  0  0  0  0  0  0  0
  129.7768  128.8768   66.9160 H   0  0  0  0  0  0  0  0  0  0  0  0
  128.5039  128.5037   68.1520 H   0  0  0  0  0  0  0  0  0  0  0  0
  130.5220  126.9602   68.2468 H   0  0  0  0  0  0  0  0  0  0  0  0
  128.9555  126.1178   67.9974 H   0  0  0  0  0  0  0  0  0  0  0  0
  1  2  2  0
  2  3  1  0
  3  4  1  0
  4  5  2  0
  5  6  1  0
  6  7  2  0
  7  8  1  0
  8  9  2  0
  8 10  1  0
  7 11  1  0
 11 12  2  0
 12 13  1  0
 13 14  1  0
 14 15  1  0
 15 16  2  0
 15 17  1  0
 17 18  1  0
 18 19  1  0
 19 20  1  0
 20 21  1  0
 21 22  1  0
 22 23  1  0
 23 24  1  0
 24 25  2  0
 24 26  1  0
 26 27  2  0
 27 28  1  0
 28 29  2  0
 29 30  1  0
 30 31  2  0
 31 32  1  0
 32 33  2  0
 33 34  1  0
 34 35  2  0
 34 36  1  0
 36 37  2  0
 20 38  1  0
 38 39  1  0
 14  2  1  0
 39 17  1  0
 12  4  1  0
 36 23  1  0
 35 26  1  0
 35 30  1  0
  5 40  1  0
  6 41  1  0
 11 42  1  0
 13 43  1  0
 13 44  1  0
 14 45  1  6
 18 46  1  0
 18 47  1  0
 19 48  1  0
 19 49  1  0
 21 50  1  0
 21 51  1  0
 22 52  1  0
 22 53  1  0
 27 54  1  0
 28 55  1  0
 29 56  1  0
 31 57  1  0
 32 58  1  0
 33 59  1  0
 38 60  1  0
 38 61  1  0
 39 62  1  0
 39 63  1  0
M  CHG  2   8   1  10  -1
M  END
>  <Binding energies>  (1) 
[-10.36]

>  <Ligand effiencies>  (1) 
[-0.26564102564102565]

>  <Interactions>  (1) 
["V-A:ARG:545:CD:4923, V-A:GLU:543:CD:4908, H-A:GLY:454:N:4050, H-A:TYR:484:OH:4348, V-B:TYR:539:CE2:9848, V-B:TYR:539:CZ:9849, H-A:ARG:545:NE:4924, V-A:ARG:545:CZ:4926, V-A:PRO:540:C:4881, V-A:ASP:366:CB:3212, V-A:TYR:539:CD1:4873, V-B:GLY:454:CA:9020, V-B:GLY:453:C:9013, V-A:TYR:539:C:4867, V-B:ILE:369:CG2:8208, V-B:LEU:475:CD2:9230, H-B:GLY:454:N:9021, V-B:ILE:369:CG1:8209, H-B:ARG:545:NH2:9900, V-A:ILE:369:CD1:3239, V-A:GLY:454:CA:4049, V-A:ASP:366:CG:3213, V-B:GLU:543:CB:9878, V-B:GLU:543:CG:9879, V-B:GLU:543:CD:9880, H-B:TYR:539:OH:9850, V-A:ASP:366:CA:3210, V-A:HIS:456:CE1:4070, H-A:ARG:545:NH2:4928, V-A:GLU:543:CB:4906, V-B:TYR:484:CZ:9318, H-B:TYR:484:OH:9319, V-A:ALA:541:CB:4892, V-A:GLU:543:CG:4907, V-B:SER:385:C:8376, H-A:HIS:456:ND1:4067, H-A:ARG:545:NH1:4927, H-A:ILE:455:N:4055"]

$$$$
RR26_Rahimova_2017
     RDKit          3D

 59 65  0  0  0  0  0  0  0  0999 V2000
  123.7630  132.6160   62.1200 C   0  0  0  0  0  0  0  0  0  0  0  0
  124.8060  133.6600   61.7390 C   0  0  0  0  0  0  0  0  0  0  0  0
  124.3810  134.8010   61.0500 C   0  0  0  0  0  0  0  0  0  0  0  0
  125.2840  135.8060   60.7120 C   0  0  0  0  0  0  0  0  0  0  0  0
  126.6240  135.6820   61.0670 C   0  0  0  0  0  0  0  0  0  0  0  0
  127.0590  134.5510   61.7550 C   0  0  0  0  0  0  0  0  0  0  0  0
  126.1660  133.5240   62.0960 C   0  0  0  0  0  0  0  0  0  0  0  0
  126.7200  132.3330   62.8230 C   0  0  0  0  0  0  0  0  0  0  0  0
  127.1490  132.4030   64.0800 N   0  0  0  0  0  0  0  0  0  0  0  0
  127.5220  131.1730   64.3070 C   0  0  0  0  0  0  0  0  0  0  0  0
  128.2050  130.3130   65.6370 S   0  0  0  0  0  0  0  0  0  0  0  0
  128.1960  128.8100   64.6410 C   0  0  0  0  0  0  0  0  0  0  0  0
  128.6210  127.5780   64.9980 C   0  0  0  0  0  0  0  0  0  0  0  0
  129.1830  127.1570   66.2710 C   0  0  0  0  0  0  0  0  0  0  0  0
  128.9270  127.6730   67.5320 C   0  0  0  0  0  0  0  0  0  0  0  0
  129.6480  126.9410   68.4420 N   0  0  0  0  0  0  0  0  0  0  0  0
  129.6990  127.0960   69.8510 C   0  0  0  0  0  0  0  0  0  0  0  0
  128.6560  126.6270   70.6630 C   0  0  0  0  0  0  0  0  0  0  0  0
  128.7160  126.7890   72.0450 C   0  0  0  0  0  0  0  0  0  0  0  0
  129.8190  127.4170   72.6190 C   0  0  0  0  0  0  0  0  0  0  0  0
  130.8630  127.8840   71.8240 C   0  0  0  0  0  0  0  0  0  0  0  0
  130.8040  127.7260   70.4420 C   0  0  0  0  0  0  0  0  0  0  0  0
  130.3280  125.9660   67.8200 N   0  0  0  0  0  0  0  0  0  0  0  0
  130.0670  126.0860   66.5330 C   0  0  0  0  0  0  0  0  0  0  0  0
  130.6910  125.1390   65.5540 C   0  0  0  0  0  0  0  0  0  0  0  0
  129.9890  124.0050   65.1170 C   0  0  0  0  0  0  0  0  0  0  0  0
  130.5640  123.1150   64.2070 C   0  0  0  0  0  0  0  0  0  0  0  0
  131.8500  123.3540   63.7270 C   0  0  0  0  0  0  0  0  0  0  0  0
  132.5540  124.4940   64.1420 C   0  0  0  0  0  0  0  0  0  0  0  0
  131.9800  125.3780   65.0550 C   0  0  0  0  0  0  0  0  0  0  0  0
  133.8460  124.7480   63.7270 O   0  0  0  0  0  0  0  0  0  0  0  0
  134.2310  124.0380   62.5450 C   0  0  0  0  0  0  0  0  0  0  0  0
  133.7800  122.5590   62.6280 C   0  0  0  0  0  0  0  0  0  0  0  0
  132.3610  122.4750   62.7930 O   0  0  0  0  0  0  0  0  0  0  0  0
  127.6640  129.0360   63.3000 C   0  0  0  0  0  0  0  0  0  0  0  0
  127.5230  128.2350   62.3740 O   0  0  0  0  0  0  0  0  0  0  0  0
  127.3180  130.3940   63.2290 N   0  0  0  0  0  0  0  0  0  0  0  0
  126.7900  131.1390   62.2540 N   0  0  0  0  0  0  0  0  0  0  0  0
  123.6953  132.5482   63.2158 H   0  0  0  0  0  0  0  0  0  0  0  0
  122.7851  132.9079   61.7096 H   0  0  0  0  0  0  0  0  0  0  0  0
  124.0559  131.6384   61.7096 H   0  0  0  0  0  0  0  0  0  0  0  0
  123.3218  134.9055   60.7721 H   0  0  0  0  0  0  0  0  0  0  0  0
  124.9388  136.6960   60.1655 H   0  0  0  0  0  0  0  0  0  0  0  0
  127.3389  136.4759   60.8048 H   0  0  0  0  0  0  0  0  0  0  0  0
  128.1190  134.4620   62.0351 H   0  0  0  0  0  0  0  0  0  0  0  0
  128.5305  126.7961   64.2296 H   0  0  0  0  0  0  0  0  0  0  0  0
  128.2634  128.5194   67.7625 H   0  0  0  0  0  0  0  0  0  0  0  0
  127.7875  126.1295   70.2067 H   0  0  0  0  0  0  0  0  0  0  0  0
  127.8961  126.4227   72.6803 H   0  0  0  0  0  0  0  0  0  0  0  0
  129.8659  127.5453   73.7105 H   0  0  0  0  0  0  0  0  0  0  0  0
  131.7313  128.3760   72.2866 H   0  0  0  0  0  0  0  0  0  0  0  0
  131.6262  128.0962   69.8119 H   0  0  0  0  0  0  0  0  0  0  0  0
  128.9739  123.8149   65.4957 H   0  0  0  0  0  0  0  0  0  0  0  0
  130.0043  122.2297   63.8709 H   0  0  0  0  0  0  0  0  0  0  0  0
  132.5398  126.2656   65.3849 H   0  0  0  0  0  0  0  0  0  0  0  0
  133.7613  124.5108   61.6699 H   0  0  0  0  0  0  0  0  0  0  0  0
  135.3266  124.0706   62.4521 H   0  0  0  0  0  0  0  0  0  0  0  0
  134.0678  122.0405   61.7015 H   0  0  0  0  0  0  0  0  0  0  0  0
  134.2669  122.0872   63.4943 H   0  0  0  0  0  0  0  0  0  0  0  0
  1  2  1  0
  2  3  2  0
  3  4  1  0
  4  5  2  0
  5  6  1  0
  6  7  2  0
  7  8  1  0
  8  9  1  0
  9 10  2  0
 10 11  1  0
 11 12  1  0
 12 13  2  0
 13 14  1  0
 14 15  2  0
 15 16  1  0
 16 17  1  0
 17 18  2  0
 18 19  1  0
 19 20  2  0
 20 21  1  0
 21 22  2  0
 16 23  1  0
 23 24  2  0
 24 25  1  0
 25 26  2  0
 26 27  1  0
 27 28  2  0
 28 29  1  0
 29 30  2  0
 29 31  1  0
 31 32  1  0
 32 33  1  0
 33 34  1  0
 12 35  1  0
 35 36  2  0
 35 37  1  0
 37 38  1  0
  7  2  1  0
 38  8  2  0
 37 10  1  0
 24 14  1  0
 30 25  1  0
 22 17  1  0
 34 28  1  0
  1 39  1  0
  1 40  1  0
  1 41  1  0
  3 42  1  0
  4 43  1  0
  5 44  1  0
  6 45  1  0
 13 46  1  0
 15 47  1  0
 18 48  1  0
 19 49  1  0
 20 50  1  0
 21 51  1  0
 22 52  1  0
 26 53  1  0
 27 54  1  0
 30 55  1  0
 32 56  1  0
 32 57  1  0
 33 58  1  0
 33 59  1  0
M  END
>  <Binding energies>  (1) 
[-9.48]

>  <Ligand effiencies>  (1) 
[-0.24947368421052632]

>  <Interactions>  (1) 
["V-A:GLU:543:CD:4908, H-A:GLY:454:N:4050, V-A:ARG:545:CZ:4926, V-A:LEU:475:CD2:4259, V-A:TYR:539:CD1:4873, V-B:GLY:454:CA:9020, V-B:ILE:369:CG2:8208, V-B:LEU:475:CD2:9230, V-A:TYR:539:CE1:4875, V-A:ILE:369:CD1:3239, V-A:GLY:453:C:4042, V-A:GLY:454:CA:4049, V-B:GLU:543:CB:9878, V-B:GLU:543:CG:9879, V-A:TYR:484:CE2:4346, V-B:GLU:543:CD:9880, V-A:GLY:544:C:4912, V-A:HIS:456:CE1:4070, V-B:GLU:543:C:9874, H-A:ARG:545:NH2:4928, V-A:GLU:543:CB:4906, V-A:GLU:543:C:4902, V-B:TYR:484:CZ:9318, H-B:TYR:484:OH:9319, V-A:GLY:453:CA:4044, V-A:GLU:543:CG:4907, H-A:ARG:545:NH1:4927, V-B:TYR:484:CE2:9317"]

$$$$
RR27_Rahimova_2017
     RDKit          3D

 66 71  0  0  0  0  0  0  0  0999 V2000
  127.3000  122.8500   62.1550 O   0  0  0  0  0  0  0  0  0  0  0  0
  128.4650  123.2390   62.0380 C   0  0  0  0  0  0  0  0  0  0  0  0
  129.5770  122.4930   62.8310 C   0  0  0  0  0  0  0  0  0  0  0  0
  130.3970  123.4240   63.7440 C   0  0  0  0  0  0  0  0  0  0  0  0
  131.7990  123.4670   63.6890 C   0  0  0  0  0  0  0  0  0  0  0  0
  132.5090  124.3220   64.5270 C   0  0  0  0  0  0  0  0  0  0  0  0
  131.8230  125.1370   65.4230 C   0  0  0  0  0  0  0  0  0  0  0  0
  130.4330  125.1030   65.4900 C   0  0  0  0  0  0  0  0  0  0  0  0
  129.7220  124.2480   64.6520 C   0  0  0  0  0  0  0  0  0  0  0  0
  130.4130  121.5760   61.9190 C   0  0  0  0  0  0  0  0  0  0  0  0
  130.0830  120.2280   61.7250 C   0  0  0  0  0  0  0  0  0  0  0  0
  130.8680  119.4240   60.9020 C   0  0  0  0  0  0  0  0  0  0  0  0
  131.9880  119.9630   60.2750 C   0  0  0  0  0  0  0  0  0  0  0  0
  132.3340  121.2980   60.4670 C   0  0  0  0  0  0  0  0  0  0  0  0
  131.5500  122.1000   61.2900 C   0  0  0  0  0  0  0  0  0  0  0  0
  128.8120  124.1930   61.1270 N   0  0  0  0  0  0  0  0  0  0  0  0
  130.1180  124.8690   61.1180 C   0  0  0  0  0  0  0  0  0  0  0  0
  129.9990  126.0850   62.0640 C   0  0  0  0  0  0  0  0  0  0  0  0
  128.8140  127.0300   61.6870 C   0  0  0  0  0  0  0  0  0  0  0  0
  128.5820  128.1970   62.6640 C   0  0  0  0  0  0  0  0  0  0  0  0
  128.2290  127.8600   63.9390 N   0  0  0  0  0  0  0  0  0  0  0  0
  128.0380  128.8530   64.8510 C   0  0  0  0  0  0  0  0  0  0  0  0
  127.6880  128.6410   66.1580 O   0  0  0  0  0  0  0  0  0  0  0  0
  128.2110  130.1890   64.4400 C   0  0  0  0  0  0  0  0  0  0  0  0
  128.1080  131.3910   65.0780 N   0  0  0  0  0  0  0  0  0  0  0  0
  128.3880  132.3740   64.1480 N   0  0  0  0  0  0  0  0  0  0  0  0
  128.6670  131.7890   62.9640 N   0  0  0  0  0  0  0  0  0  0  0  0
  128.9770  132.6010   61.7900 C   0  0  0  0  0  0  0  0  0  0  0  0
  130.2840  132.2180   61.1090 C   0  0  0  0  0  0  0  0  0  0  0  0
  131.4000  131.8650   61.8740 C   0  0  0  0  0  0  0  0  0  0  0  0
  132.5950  131.5040   61.2490 C   0  0  0  0  0  0  0  0  0  0  0  0
  132.6780  131.4880   59.8570 C   0  0  0  0  0  0  0  0  0  0  0  0
  131.5640  131.8300   59.0870 C   0  0  0  0  0  0  0  0  0  0  0  0
  131.6570  131.7850   57.3640 Cl  0  0  0  0  0  0  0  0  0  0  0  0
  130.3730  132.1990   59.7120 C   0  0  0  0  0  0  0  0  0  0  0  0
  128.5650  130.4140   63.0920 C   0  0  0  0  0  0  0  0  0  0  0  0
  128.7510  129.4590   62.1770 N   0  0  0  0  0  0  0  0  0  0  0  0
  127.5160  126.2320   61.3570 C   0  0  0  0  0  0  0  0  0  0  0  0
  127.7720  124.9930   60.4620 C   0  0  0  0  0  0  0  0  0  0  0  0
  129.0762  121.8150   63.5378 H   0  0  0  0  0  0  0  0  0  0  0  0
  132.3391  122.8220   62.9803 H   0  0  0  0  0  0  0  0  0  0  0  0
  133.6076  124.3535   64.4814 H   0  0  0  0  0  0  0  0  0  0  0  0
  132.3842  125.8139   66.0839 H   0  0  0  0  0  0  0  0  0  0  0  0
  129.8985  125.7489   66.2021 H   0  0  0  0  0  0  0  0  0  0  0  0
  128.6236  124.2200   64.7039 H   0  0  0  0  0  0  0  0  0  0  0  0
  129.2001  119.8029   62.2249 H   0  0  0  0  0  0  0  0  0  0  0  0
  130.6040  118.3673   60.7481 H   0  0  0  0  0  0  0  0  0  0  0  0
  132.6052  119.3285   59.6220 H   0  0  0  0  0  0  0  0  0  0  0  0
  133.2222  121.7161   59.9707 H   0  0  0  0  0  0  0  0  0  0  0  0
  131.8248  123.1533   61.4481 H   0  0  0  0  0  0  0  0  0  0  0  0
  130.9008  124.1849   61.4775 H   0  0  0  0  0  0  0  0  0  0  0  0
  130.3908  125.1861   60.1006 H   0  0  0  0  0  0  0  0  0  0  0  0
  129.8442  125.7188   63.0896 H   0  0  0  0  0  0  0  0  0  0  0  0
  130.9284  126.6667   61.9749 H   0  0  0  0  0  0  0  0  0  0  0  0
  129.1276  127.5312   60.7594 H   0  0  0  0  0  0  0  0  0  0  0  0
  126.9760  128.0050   66.2520 H   0  0  0  0  0  0  0  0  0  0  0  0
  128.1598  132.4863   61.0627 H   0  0  0  0  0  0  0  0  0  0  0  0
  129.0873  133.6390   62.1369 H   0  0  0  0  0  0  0  0  0  0  0  0
  131.3361  131.8718   62.9721 H   0  0  0  0  0  0  0  0  0  0  0  0
  133.4718  131.2320   61.8550 H   0  0  0  0  0  0  0  0  0  0  0  0
  133.6208  131.2060   59.3654 H   0  0  0  0  0  0  0  0  0  0  0  0
  129.4992  132.4765   59.1042 H   0  0  0  0  0  0  0  0  0  0  0  0
  127.0639  125.8939   62.3011 H   0  0  0  0  0  0  0  0  0  0  0  0
  126.8505  126.9068   60.7986 H   0  0  0  0  0  0  0  0  0  0  0  0
  126.8491  124.4034   60.3593 H   0  0  0  0  0  0  0  0  0  0  0  0
  128.0920  125.2949   59.4538 H   0  0  0  0  0  0  0  0  0  0  0  0
  1  2  2  0
  2  3  1  0
  3  4  1  0
  4  5  2  0
  5  6  1  0
  6  7  2  0
  7  8  1  0
  8  9  2  0
  3 10  1  0
 10 11  2  0
 11 12  1  0
 12 13  2  0
 13 14  1  0
 14 15  2  0
  2 16  1  0
 16 17  1  0
 17 18  1  0
 18 19  1  0
 19 20  1  0
 20 21  2  0
 21 22  1  0
 22 23  1  0
 22 24  2  0
 24 25  1  0
 25 26  2  0
 26 27  1  0
 27 28  1  0
 28 29  1  0
 29 30  2  0
 30 31  1  0
 31 32  2  0
 32 33  1  0
 33 34  1  0
 33 35  2  0
 27 36  1  0
 36 37  2  0
 19 38  1  0
 38 39  1  0
  9  4  1  0
 15 10  1  0
 39 16  1  0
 37 20  1  0
 36 24  1  0
 35 29  1  0
  3 40  1  0
  5 41  1  0
  6 42  1  0
  7 43  1  0
  8 44  1  0
  9 45  1  0
 11 46  1  0
 12 47  1  0
 13 48  1  0
 14 49  1  0
 15 50  1  0
 17 51  1  0
 17 52  1  0
 18 53  1  0
 18 54  1  0
 19 55  1  0
 23 56  1  0
 28 57  1  0
 28 58  1  0
 30 59  1  0
 31 60  1  0
 32 61  1  0
 35 62  1  0
 38 63  1  0
 38 64  1  0
 39 65  1  0
 39 66  1  0
M  END
>  <Binding energies>  (1) 
[-10.01]

>  <Ligand effiencies>  (1) 
[-0.25025]

>  <Interactions>  (1) 
["V-B:TYR:539:CD2:9846, V-A:GLU:543:CD:4908, V-B:TYR:539:CE2:9848, V-A:LEU:475:CD2:4259, V-A:PRO:540:C:4881, V-A:PRO:540:CB:4885, V-A:PRO:540:N:4884, V-A:PRO:540:CA:4883, H-B:ALA:541:N:9863, V-A:ILE:369:CG2:3237, V-B:GLU:543:CG:9879, V-B:GLU:543:CD:9880, V-B:ALA:541:CB:9864, H-B:TYR:484:OH:9319, V-A:GLU:543:CG:4907, V-A:LEU:363:CD1:3189, H-B:GLU:543:OE2:9882"]

$$$$
RR27_Rahimova_2017-again1
     RDKit          3D

 66 71  0  0  0  0  0  0  0  0999 V2000
  127.2100  122.8970   62.8500 O   0  0  0  0  0  0  0  0  0  0  0  0
  128.3580  123.1920   62.5030 C   0  0  0  0  0  0  0  0  0  0  0  0
  129.5490  122.5590   63.2840 C   0  0  0  0  0  0  0  0  0  0  0  0
  130.1860  123.5410   64.2860 C   0  0  0  0  0  0  0  0  0  0  0  0
  131.1950  124.4400   63.9080 C   0  0  0  0  0  0  0  0  0  0  0  0
  131.7450  125.3140   64.8410 C   0  0  0  0  0  0  0  0  0  0  0  0
  131.2910  125.2930   66.1570 C   0  0  0  0  0  0  0  0  0  0  0  0
  130.2910  124.4090   66.5470 C   0  0  0  0  0  0  0  0  0  0  0  0
  129.7400  123.5350   65.6140 C   0  0  0  0  0  0  0  0  0  0  0  0
  130.5660  121.8870   62.3430 C   0  0  0  0  0  0  0  0  0  0  0  0
  131.8910  122.3410   62.2530 C   0  0  0  0  0  0  0  0  0  0  0  0
  132.7870  121.7310   61.3800 C   0  0  0  0  0  0  0  0  0  0  0  0
  132.3660  120.6620   60.5940 C   0  0  0  0  0  0  0  0  0  0  0  0
  131.0550  120.2010   60.6700 C   0  0  0  0  0  0  0  0  0  0  0  0
  130.1560  120.8160   61.5380 C   0  0  0  0  0  0  0  0  0  0  0  0
  128.5900  123.9150   61.3690 N   0  0  0  0  0  0  0  0  0  0  0  0
  129.8840  124.5330   61.0470 C   0  0  0  0  0  0  0  0  0  0  0  0
  129.9350  125.9110   61.7480 C   0  0  0  0  0  0  0  0  0  0  0  0
  128.6350  126.7740   61.6450 C   0  0  0  0  0  0  0  0  0  0  0  0
  128.4750  127.7770   62.7920 C   0  0  0  0  0  0  0  0  0  0  0  0
  128.4870  127.3760   64.0250 N   0  0  0  0  0  0  0  0  0  0  0  0
  128.3310  128.3530   64.9600 C   0  0  0  0  0  0  0  0  0  0  0  0
  128.1610  129.7070   64.7140 C   0  0  0  0  0  0  0  0  0  0  0  0
  128.0300  130.3680   65.8510 N   0  0  0  0  0  0  0  0  0  0  0  0
  128.1140  129.4410   66.8850 N   0  0  0  0  0  0  0  0  0  0  0  0
  128.3130  128.2350   66.3260 N   0  0  0  0  0  0  0  0  0  0  0  0
  128.4240  127.0370   67.1480 C   0  0  0  0  0  0  0  0  0  0  0  0
  129.0200  127.3020   68.5230 C   0  0  0  0  0  0  0  0  0  0  0  0
  130.3400  127.7510   68.6410 C   0  0  0  0  0  0  0  0  0  0  0  0
  130.8920  127.9860   69.9010 C   0  0  0  0  0  0  0  0  0  0  0  0
  130.1270  127.7760   71.0480 C   0  0  0  0  0  0  0  0  0  0  0  0
  128.8090  127.3330   70.9370 C   0  0  0  0  0  0  0  0  0  0  0  0
  127.8650  127.0700   72.3570 Cl  0  0  0  0  0  0  0  0  0  0  0  0
  128.2550  127.0990   69.6780 C   0  0  0  0  0  0  0  0  0  0  0  0
  128.1510  130.1860   63.3320 C   0  0  0  0  0  0  0  0  0  0  0  0
  128.0190  131.3370   62.9210 O   0  0  0  0  0  0  0  0  0  0  0  0
  128.3200  129.1220   62.4710 N   0  0  0  0  0  0  0  0  0  0  0  0
  127.3150  125.9910   61.3560 C   0  0  0  0  0  0  0  0  0  0  0  0
  127.4770  124.6000   60.6950 C   0  0  0  0  0  0  0  0  0  0  0  0
  129.1352  121.7479   63.9011 H   0  0  0  0  0  0  0  0  0  0  0  0
  131.5533  124.4540   62.8681 H   0  0  0  0  0  0  0  0  0  0  0  0
  132.5347  126.0181   64.5401 H   0  0  0  0  0  0  0  0  0  0  0  0
  131.7274  125.9821   66.8950 H   0  0  0  0  0  0  0  0  0  0  0  0
  129.9368  124.4003   67.5884 H   0  0  0  0  0  0  0  0  0  0  0  0
  128.9492  122.8350   65.9216 H   0  0  0  0  0  0  0  0  0  0  0  0
  132.2234  123.1842   62.8763 H   0  0  0  0  0  0  0  0  0  0  0  0
  133.8237  122.0922   61.3114 H   0  0  0  0  0  0  0  0  0  0  0  0
  133.0755  120.1775   59.9070 H   0  0  0  0  0  0  0  0  0  0  0  0
  130.7302  119.3545   60.0472 H   0  0  0  0  0  0  0  0  0  0  0  0
  129.1171  120.4585   61.5919 H   0  0  0  0  0  0  0  0  0  0  0  0
  130.7040  123.8968   61.4115 H   0  0  0  0  0  0  0  0  0  0  0  0
  129.9946  124.6502   59.9589 H   0  0  0  0  0  0  0  0  0  0  0  0
  130.1432  125.7399   62.8145 H   0  0  0  0  0  0  0  0  0  0  0  0
  130.7163  126.4834   61.2266 H   0  0  0  0  0  0  0  0  0  0  0  0
  128.8075  127.3552   60.7271 H   0  0  0  0  0  0  0  0  0  0  0  0
  127.4189  126.6099   67.2798 H   0  0  0  0  0  0  0  0  0  0  0  0
  129.1033  126.3466   66.6266 H   0  0  0  0  0  0  0  0  0  0  0  0
  130.9446  127.9193   67.7376 H   0  0  0  0  0  0  0  0  0  0  0  0
  131.9307  128.3370   69.9895 H   0  0  0  0  0  0  0  0  0  0  0  0
  130.5633  127.9598   72.0409 H   0  0  0  0  0  0  0  0  0  0  0  0
  127.2140  126.7540   69.5926 H   0  0  0  0  0  0  0  0  0  0  0  0
  128.3230  129.3670   61.4920 H   0  0  0  0  0  0  0  0  0  0  0  0
  126.7924  125.8490   62.3134 H   0  0  0  0  0  0  0  0  0  0  0  0
  126.7637  126.6019   60.6260 H   0  0  0  0  0  0  0  0  0  0  0  0
  126.5512  124.0180   60.8138 H   0  0  0  0  0  0  0  0  0  0  0  0
  127.6821  124.7047   59.6194 H   0  0  0  0  0  0  0  0  0  0  0  0
  1  2  2  0
  2  3  1  0
  3  4  1  0
  4  5  2  0
  5  6  1  0
  6  7  2  0
  7  8  1  0
  8  9  2  0
  3 10  1  0
 10 11  2  0
 11 12  1  0
 12 13  2  0
 13 14  1  0
 14 15  2  0
  2 16  1  0
 16 17  1  0
 17 18  1  0
 18 19  1  0
 19 20  1  0
 20 21  2  0
 21 22  1  0
 22 23  2  0
 23 24  1  0
 24 25  2  0
 25 26  1  0
 26 27  1  0
 27 28  1  0
 28 29  2  0
 29 30  1  0
 30 31  2  0
 31 32  1  0
 32 33  1  0
 32 34  2  0
 23 35  1  0
 35 36  2  0
 35 37  1  0
 19 38  1  0
 38 39  1  0
  9  4  1  0
 15 10  1  0
 39 16  1  0
 37 20  1  0
 26 22  1  0
 34 28  1  0
  3 40  1  0
  5 41  1  0
  6 42  1  0
  7 43  1  0
  8 44  1  0
  9 45  1  0
 11 46  1  0
 12 47  1  0
 13 48  1  0
 14 49  1  0
 15 50  1  0
 17 51  1  0
 17 52  1  0
 18 53  1  0
 18 54  1  0
 19 55  1  0
 27 56  1  0
 27 57  1  0
 29 58  1  0
 30 59  1  0
 31 60  1  0
 34 61  1  0
 37 62  1  0
 38 63  1  0
 38 64  1  0
 39 65  1  0
 39 66  1  0
M  END
>  <Binding energies>  (1) 
[-9.59]

>  <Ligand effiencies>  (1) 
[-0.23975]

>  <Interactions>  (1) 
["V-B:TYR:539:CD2:9846, V-A:GLU:543:CD:4908, V-B:TYR:539:CE2:9848, V-A:ARG:545:CZ:4926, V-A:LEU:475:CD2:4259, H-B:ALA:541:N:9863, V-A:ILE:369:CG2:3237, V-A:TYR:484:CZ:4347, V-B:GLU:543:CB:9878, V-B:GLU:543:CG:9879, V-A:TYR:484:CE2:4346, V-B:GLU:543:CD:9880, V-B:ALA:541:CB:9864, V-B:HIS:456:CD2:9039, V-A:GLY:544:C:4912, V-B:GLY:544:C:9884, V-A:HIS:456:CE1:4070, V-B:LYS:547:CE:9922, V-B:HIS:456:CE1:9041, V-B:GLU:543:C:9874, V-A:GLU:543:CB:4906, V-A:GLU:543:C:4902, H-B:TYR:484:OH:9319, V-A:GLU:543:CG:4907, V-B:GLU:543:CA:9876"]

$$$$
RR28_Rahimova_2017
     RDKit          3D

 82 85  0  0  0  0  0  0  0  0999 V2000
  132.6030  120.9520   60.5750 C   0  0  0  0  0  0  0  0  0  0  0  0
  131.2290  121.4130   61.0490 C   0  0  0  0  0  0  0  0  0  0  0  0
  130.4240  120.5850   61.4720 O   0  0  0  0  0  0  0  0  0  0  0  0
  130.9820  122.7360   60.9700 N   0  0  0  0  0  0  0  0  0  0  0  0
  129.7480  123.4620   61.3460 C   0  0  0  0  0  0  0  0  0  0  0  0
  129.8830  123.9160   62.8280 C   0  0  0  0  0  0  0  0  0  0  0  0
  129.9310  125.2860   63.1260 C   0  0  0  0  0  0  0  0  0  0  0  0
  130.0560  125.7280   64.4390 C   0  0  0  0  0  0  0  0  0  0  0  0
  130.1370  124.8090   65.4870 C   0  0  0  0  0  0  0  0  0  0  0  0
  130.2780  125.3140   66.9220 C   0  0  0  0  0  0  0  0  0  0  0  0
  131.5430  125.6050   67.2350 F   0  0  0  0  0  0  0  0  0  0  0  0
  129.5460  126.4130   67.1000 F   0  0  0  0  0  0  0  0  0  0  0  0
  129.8480  124.3710   67.7620 F   0  0  0  0  0  0  0  0  0  0  0  0
  130.0920  123.4420   65.2030 C   0  0  0  0  0  0  0  0  0  0  0  0
  129.9670  123.0000   63.8880 C   0  0  0  0  0  0  0  0  0  0  0  0
  128.4820  122.5740   61.0700 C   0  0  0  0  0  0  0  0  0  0  0  0
  128.2520  122.2850   59.5650 C   0  0  0  0  0  0  0  0  0  0  0  0
  128.1120  123.5930   58.9060 N   0  0  0  0  0  0  0  0  0  0  0  0
  126.8790  124.1390   58.7150 C   0  0  0  0  0  0  0  0  0  0  0  0
  125.8440  123.5030   58.9250 O   0  0  0  0  0  0  0  0  0  0  0  0
  126.7730  125.5380   58.0620 C   0  0  0  0  0  0  0  0  0  0  0  0
  126.2320  126.6730   58.9740 C   0  0  0  0  0  0  0  0  0  0  0  0
  127.2890  127.7060   59.4330 C   0  0  0  0  0  0  0  0  0  0  0  0
  128.4350  127.3030   59.6510 O   0  0  0  0  0  0  0  0  0  0  0  0
  126.9740  129.0320   59.4540 N   0  0  0  0  0  0  0  0  0  0  0  0
  125.5960  129.5340   59.5160 C   0  0  0  0  0  0  0  0  0  0  0  0
  125.2050  129.5630   61.0100 C   0  0  0  0  0  0  0  0  0  0  0  0
  126.1580  130.4120   61.9210 C   0  0  0  0  0  0  0  0  0  0  0  0
  125.9320  130.0450   63.3350 N   0  0  0  0  0  0  0  0  0  0  0  0
  124.7650  130.0150   64.0100 C   0  0  0  0  0  0  0  0  0  0  0  0
  124.8450  129.6110   65.4790 C   0  0  0  0  0  0  0  0  0  0  0  0
  123.6740  130.2920   63.5140 O   0  0  0  0  0  0  0  0  0  0  0  0
  125.7530  131.9130   61.7530 C   0  0  0  0  0  0  0  0  0  0  0  0
  126.6820  132.9640   61.8150 C   0  0  0  0  0  0  0  0  0  0  0  0
  126.2790  134.2880   61.6590 C   0  0  0  0  0  0  0  0  0  0  0  0
  124.9340  134.5950   61.4400 C   0  0  0  0  0  0  0  0  0  0  0  0
  124.4760  136.0420   61.2630 C   0  0  0  0  0  0  0  0  0  0  0  0
  125.2460  136.6730   60.3750 F   0  0  0  0  0  0  0  0  0  0  0  0
  123.2190  136.0520   60.8210 F   0  0  0  0  0  0  0  0  0  0  0  0
  124.5230  136.7280   62.4070 F   0  0  0  0  0  0  0  0  0  0  0  0
  123.9970  133.5610   61.3850 C   0  0  0  0  0  0  0  0  0  0  0  0
  124.4040  132.2400   61.5410 C   0  0  0  0  0  0  0  0  0  0  0  0
  127.6540  130.1240   61.5100 C   0  0  0  0  0  0  0  0  0  0  0  0
  127.9320  130.0080   59.9870 C   0  0  0  0  0  0  0  0  0  0  0  0
  129.3380  124.4020   58.9490 C   0  0  0  0  0  0  0  0  0  0  0  0
  129.6140  124.7290   60.4400 C   0  0  0  0  0  0  0  0  0  0  0  0
  133.2390  120.7386   61.4467 H   0  0  0  0  0  0  0  0  0  0  0  0
  132.4949  120.0409   59.9682 H   0  0  0  0  0  0  0  0  0  0  0  0
  133.0663  121.7439   59.9682 H   0  0  0  0  0  0  0  0  0  0  0  0
  131.7130  123.3170   60.5850 H   0  0  0  0  0  0  0  0  0  0  0  0
  129.8689  126.0210   62.3100 H   0  0  0  0  0  0  0  0  0  0  0  0
  130.0912  126.8065   64.6526 H   0  0  0  0  0  0  0  0  0  0  0  0
  130.1556  122.7107   66.0222 H   0  0  0  0  0  0  0  0  0  0  0  0
  129.9337  121.9208   63.6779 H   0  0  0  0  0  0  0  0  0  0  0  0
  128.6070  121.6152   61.5945 H   0  0  0  0  0  0  0  0  0  0  0  0
  127.6066  123.1334   61.4317 H   0  0  0  0  0  0  0  0  0  0  0  0
  129.1105  121.7388   59.1472 H   0  0  0  0  0  0  0  0  0  0  0  0
  127.3573  121.6638   59.4110 H   0  0  0  0  0  0  0  0  0  0  0  0
  127.7782  125.8286   57.7226 H   0  0  0  0  0  0  0  0  0  0  0  0
  126.0383  125.4327   57.2501 H   0  0  0  0  0  0  0  0  0  0  0  0
  125.4480  127.2105   58.4204 H   0  0  0  0  0  0  0  0  0  0  0  0
  125.8651  126.1831   59.8880 H   0  0  0  0  0  0  0  0  0  0  0  0
  125.5411  130.5464   59.0894 H   0  0  0  0  0  0  0  0  0  0  0  0
  124.9133  128.8927   58.9392 H   0  0  0  0  0  0  0  0  0  0  0  0
  124.1911  129.9819   61.0906 H   0  0  0  0  0  0  0  0  0  0  0  0
  125.2749  128.5257   61.3693 H   0  0  0  0  0  0  0  0  0  0  0  0
  126.7690  129.8280   63.8560 H   0  0  0  0  0  0  0  0  0  0  0  0
  124.6703  130.4935   66.1120 H   0  0  0  0  0  0  0  0  0  0  0  0
  124.0802  128.8497   65.6921 H   0  0  0  0  0  0  0  0  0  0  0  0
  125.8423  129.1986   65.6921 H   0  0  0  0  0  0  0  0  0  0  0  0
  127.7443  132.7382   61.9895 H   0  0  0  0  0  0  0  0  0  0  0  0
  127.0237  135.0961   61.7085 H   0  0  0  0  0  0  0  0  0  0  0  0
  122.9345  133.7917   61.2179 H   0  0  0  0  0  0  0  0  0  0  0  0
  123.6545  131.4360   61.4974 H   0  0  0  0  0  0  0  0  0  0  0  0
  128.2746  130.9424   61.9038 H   0  0  0  0  0  0  0  0  0  0  0  0
  127.8917  129.1357   61.9306 H   0  0  0  0  0  0  0  0  0  0  0  0
  127.7885  130.9841   59.5005 H   0  0  0  0  0  0  0  0  0  0  0  0
  128.9674  129.6883   59.7981 H   0  0  0  0  0  0  0  0  0  0  0  0
  130.1797  123.8351   58.5246 H   0  0  0  0  0  0  0  0  0  0  0  0
  129.2207  125.3238   58.3603 H   0  0  0  0  0  0  0  0  0  0  0  0
  130.5512  125.3015   60.5024 H   0  0  0  0  0  0  0  0  0  0  0  0
  128.7491  125.2991   60.8099 H   0  0  0  0  0  0  0  0  0  0  0  0
  1  2  1  0
  2  3  2  0
  2  4  1  0
  4  5  1  0
  5  6  1  0
  6  7  2  0
  7  8  1  0
  8  9  2  0
  9 10  1  0
 10 11  1  0
 10 12  1  0
 10 13  1  0
  9 14  1  0
 14 15  2  0
  5 16  1  0
 16 17  1  0
 17 18  1  0
 18 19  1  0
 19 20  2  0
 19 21  1  0
 21 22  1  0
 22 23  1  0
 23 24  2  0
 23 25  1  0
 25 26  1  0
 26 27  1  0
 27 28  1  0
 28 29  1  0
 29 30  1  0
 30 31  1  0
 30 32  2  0
 28 33  1  0
 33 34  2  0
 34 35  1  0
 35 36  2  0
 36 37  1  0
 37 38  1  0
 37 39  1  0
 37 40  1  0
 36 41  1  0
 41 42  2  0
 28 43  1  0
 43 44  1  0
 18 45  1  0
 45 46  1  0
 46  5  1  0
 15  6  1  0
 44 25  1  0
 42 33  1  0
  1 47  1  0
  1 48  1  0
  1 49  1  0
  4 50  1  0
  7 51  1  0
  8 52  1  0
 14 53  1  0
 15 54  1  0
 16 55  1  0
 16 56  1  0
 17 57  1  0
 17 58  1  0
 21 59  1  0
 21 60  1  0
 22 61  1  0
 22 62  1  0
 26 63  1  0
 26 64  1  0
 27 65  1  0
 27 66  1  0
 29 67  1  0
 31 68  1  0
 31 69  1  0
 31 70  1  0
 34 71  1  0
 35 72  1  0
 41 73  1  0
 42 74  1  0
 43 75  1  0
 43 76  1  0
 44 77  1  0
 44 78  1  0
 45 79  1  0
 45 80  1  0
 46 81  1  0
 46 82  1  0
M  END
>  <Binding energies>  (1) 
[-8.04]

>  <Ligand effiencies>  (1) 
[-0.16749999999999998]

>  <Interactions>  (1) 
["V-B:PRO:540:N:9856, V-B:ASP:366:CB:8183, V-B:TYR:539:CD2:9846, V-A:GLU:543:CD:4908, V-B:ASP:366:CG:8184, V-B:TYR:539:CE2:9848, V-B:TYR:539:CZ:9849, V-A:LEU:475:CD2:4259, V-B:PRO:540:CA:9855, V-A:TYR:539:CD1:4873, V-B:ILE:369:CG2:8208, V-B:LEU:475:CD2:9230, V-A:TYR:539:CE1:4875, H-B:GLY:454:N:9021, H-B:ARG:545:NH2:9900, V-A:ILE:369:CG2:3237, V-A:TYR:484:CZ:4347, V-B:GLU:543:CB:9878, V-B:GLU:543:CG:9879, V-A:TYR:484:CE2:4346, V-B:GLU:543:CD:9880, V-A:HIS:456:CE1:4070, V-B:GLU:543:C:9874, V-B:ARG:545:CZ:9898, H-B:TYR:484:OH:9319, V-B:TYR:539:C:9839, V-B:GLU:543:CA:9876, V-B:SER:385:CB:8380, V-B:SER:385:CA:8378, V-B:SER:385:C:8376, V-B:ARG:545:CD:9895, V-A:TYR:484:CD2:4344, V-B:LEU:373:CD1:8251, V-A:TYR:539:CG:4872, V-B:LEU:475:CG:9228"]

$$$$
RR29_Rahimova_2017
     RDKit          3D

 35 36  0  0  0  0  0  0  0  0999 V2000
  129.7400  124.7490   67.7410 C   0  0  0  0  0  0  0  0  0  0  0  0
  129.7910  125.8580   66.7000 C   0  0  0  0  0  0  0  0  0  0  0  0
  129.2590  127.2080   67.2300 C   0  0  0  0  0  0  0  0  0  0  0  0
  128.3420  127.0180   68.4560 C   0  0  0  0  0  0  0  0  0  0  0  0
  129.0700  127.2760   69.7660 C   0  0  0  0  0  0  0  0  0  0  0  0
  130.1920  128.1270   69.7920 C   0  0  0  0  0  0  0  0  0  0  0  0
  130.8770  128.3800   70.9890 C   0  0  0  0  0  0  0  0  0  0  0  0
  130.4140  127.7510   72.1390 C   0  0  0  0  0  0  0  0  0  0  0  0
  129.3270  126.9230   72.1200 C   0  0  0  0  0  0  0  0  0  0  0  0
  128.6220  126.6630   70.9500 C   0  0  0  0  0  0  0  0  0  0  0  0
  129.0790  126.4780   73.3800 O   0  0  0  0  0  0  0  0  0  0  0  0
  130.1780  126.8870   74.1500 C   0  0  0  0  0  0  0  0  0  0  0  0
  130.8810  127.8520   73.4120 O   0  0  0  0  0  0  0  0  0  0  0  0
  130.2380  125.5820   65.5310 N   0  0  0  0  0  0  0  0  0  0  0  0
  130.2050  126.5610   64.5620 N   0  0  0  0  0  0  0  0  0  0  0  0
  129.4510  126.4950   63.4520 C   0  0  0  0  0  0  0  0  0  0  0  0
  128.6250  125.4920   63.1510 N   0  0  0  0  0  0  0  0  0  0  0  0
  129.5300  127.5000   62.5930 N   0  0  0  0  0  0  0  0  0  0  0  0
  129.7603  125.1905   68.7483 H   0  0  0  0  0  0  0  0  0  0  0  0
  128.8142  124.1688   67.6135 H   0  0  0  0  0  0  0  0  0  0  0  0
  130.6086  124.0862   67.6135 H   0  0  0  0  0  0  0  0  0  0  0  0
  130.1126  127.8394   67.5177 H   0  0  0  0  0  0  0  0  0  0  0  0
  128.6698  127.6819   66.4311 H   0  0  0  0  0  0  0  0  0  0  0  0
  127.4966  127.7173   68.3773 H   0  0  0  0  0  0  0  0  0  0  0  0
  127.9992  125.9728   68.4614 H   0  0  0  0  0  0  0  0  0  0  0  0
  130.5357  128.5998   68.8602 H   0  0  0  0  0  0  0  0  0  0  0  0
  131.7481  129.0511   71.0170 H   0  0  0  0  0  0  0  0  0  0  0  0
  127.7439  126.0005   70.9504 H   0  0  0  0  0  0  0  0  0  0  0  0
  129.8298  127.3214   75.0987 H   0  0  0  0  0  0  0  0  0  0  0  0
  130.8275  126.0296   74.3801 H   0  0  0  0  0  0  0  0  0  0  0  0
  130.8130  127.3560   64.6990 H   0  0  0  0  0  0  0  0  0  0  0  0
  127.8730  125.6340   62.4920 H   0  0  0  0  0  0  0  0  0  0  0  0
  128.7520  124.5930   63.5940 H   0  0  0  0  0  0  0  0  0  0  0  0
  130.3380  128.1050   62.5960 H   0  0  0  0  0  0  0  0  0  0  0  0
  128.7830  127.6550   61.9310 H   0  0  0  0  0  0  0  0  0  0  0  0
  1  2  1  0
  2  3  1  0
  3  4  1  0
  4  5  1  0
  5  6  2  0
  6  7  1  0
  7  8  2  0
  8  9  1  0
  9 10  2  0
  9 11  1  0
 11 12  1  0
 12 13  1  0
  2 14  2  0
 14 15  1  0
 15 16  1  0
 16 17  1  0
 16 18  2  0
 10  5  1  0
 13  8  1  0
  1 19  1  0
  1 20  1  0
  1 21  1  0
  3 22  1  0
  3 23  1  0
  4 24  1  0
  4 25  1  0
  6 26  1  0
  7 27  1  0
 10 28  1  0
 12 29  1  0
 12 30  1  0
 15 31  1  0
 17 32  1  0
 17 33  1  0
 18 34  1  0
 18 35  1  0
M  CHG  1  18   1
M  END
>  <Binding energies>  (1) 
[-7.01]

>  <Ligand effiencies>  (1) 
[-0.30478260869565216]

>  <Interactions>  (1) 
["V-A:GLU:543:CD:4908, V-A:TYR:484:CZ:4347, H-A:GLU:543:OE2:4910, V-B:GLU:543:CB:9878, V-B:GLU:543:CG:9879, V-A:TYR:484:CE2:4346, V-B:GLU:543:CD:9880, H-B:GLU:543:OE1:9881, V-A:GLY:544:C:4912, V-A:HIS:456:CD2:4068, V-A:HIS:456:CE1:4070, H-B:LYS:547:NZ:9923, V-B:HIS:456:CE1:9041, V-B:GLU:543:C:9874, H-A:LYS:547:NZ:4951, H-A:GLU:543:OE1:4909, V-A:GLU:543:CB:4906, V-A:GLU:543:C:4902, V-A:GLY:544:CA:4914, V-B:GLU:543:CA:9876, H-B:GLU:543:OE2:9882"]

$$$$
RR29_Rahimova_2017-again1
     RDKit          3D

 34 35  0  0  0  0  0  0  0  0999 V2000
  123.8070  131.9950   61.2300 C   0  0  0  0  0  0  0  0  0  0  0  0
  124.1870  131.7450   62.6820 C   0  0  0  0  0  0  0  0  0  0  0  0
  125.0900  132.8420   63.2780 C   0  0  0  0  0  0  0  0  0  0  0  0
  125.7100  133.7260   62.1750 C   0  0  0  0  0  0  0  0  0  0  0  0
  127.1490  133.3400   61.8680 C   0  0  0  0  0  0  0  0  0  0  0  0
  127.6040  133.3280   60.5350 C   0  0  0  0  0  0  0  0  0  0  0  0
  128.9260  132.9770   60.2290 C   0  0  0  0  0  0  0  0  0  0  0  0
  129.7620  132.6350   61.2860 C   0  0  0  0  0  0  0  0  0  0  0  0
  129.3250  132.6420   62.5820 C   0  0  0  0  0  0  0  0  0  0  0  0
  128.0220  132.9950   62.9140 C   0  0  0  0  0  0  0  0  0  0  0  0
  130.3510  132.3010   63.4030 O   0  0  0  0  0  0  0  0  0  0  0  0
  131.3850  131.8700   62.5590 C   0  0  0  0  0  0  0  0  0  0  0  0
  131.0750  132.2890   61.2570 O   0  0  0  0  0  0  0  0  0  0  0  0
  123.7620  130.6810   63.2670 N   0  0  0  0  0  0  0  0  0  0  0  0
  124.1320  130.4910   64.4930 N   0  0  0  0  0  0  0  0  0  0  0  0
  125.0000  129.5730   64.7120 C   0  0  0  0  0  0  0  0  0  0  0  0
  125.6240  128.7130   63.7660 N   0  0  0  0  0  0  0  0  0  0  0  0
  125.4650  129.3000   66.0160 N   0  0  0  0  0  0  0  0  0  0  0  0
  122.8886  132.5992   61.1901 H   0  0  0  0  0  0  0  0  0  0  0  0
  124.6225  132.5336   60.7251 H   0  0  0  0  0  0  0  0  0  0  0  0
  123.6352  131.0330   60.7251 H   0  0  0  0  0  0  0  0  0  0  0  0
  124.4890  133.4749   63.9475 H   0  0  0  0  0  0  0  0  0  0  0  0
  125.9074  132.3542   63.8292 H   0  0  0  0  0  0  0  0  0  0  0  0
  125.1117  133.6195   61.2581 H   0  0  0  0  0  0  0  0  0  0  0  0
  125.7096  134.7651   62.5360 H   0  0  0  0  0  0  0  0  0  0  0  0
  126.9125  133.5977   59.7232 H   0  0  0  0  0  0  0  0  0  0  0  0
  129.2888  132.9723   59.1906 H   0  0  0  0  0  0  0  0  0  0  0  0
  127.6853  133.0040   63.9612 H   0  0  0  0  0  0  0  0  0  0  0  0
  132.3392  132.3144   62.8784 H   0  0  0  0  0  0  0  0  0  0  0  0
  131.4834  130.7751   62.5983 H   0  0  0  0  0  0  0  0  0  0  0  0
  125.4110  128.7570   62.7790 H   0  0  0  0  0  0  0  0  0  0  0  0
  126.2980  128.0110   64.0320 H   0  0  0  0  0  0  0  0  0  0  0  0
  125.1310  129.8090   66.8220 H   0  0  0  0  0  0  0  0  0  0  0  0
  126.1440  128.5800   66.2110 H   0  0  0  0  0  0  0  0  0  0  0  0
  1  2  1  0
  2  3  1  0
  3  4  1  0
  4  5  1  0
  5  6  2  0
  6  7  1  0
  7  8  2  0
  8  9  1  0
  9 10  2  0
  9 11  1  0
 11 12  1  0
 12 13  1  0
  2 14  2  0
 14 15  1  0
 15 16  2  0
 16 17  1  0
 16 18  1  0
 10  5  1  0
 13  8  1  0
  1 19  1  0
  1 20  1  0
  1 21  1  0
  3 22  1  0
  3 23  1  0
  4 24  1  0
  4 25  1  0
  6 26  1  0
  7 27  1  0
 10 28  1  0
 12 29  1  0
 12 30  1  0
 17 31  1  0
 17 32  1  0
 18 33  1  0
 18 34  1  0
M  END
>  <Binding energies>  (1) 
[-6.42]

>  <Ligand effiencies>  (1) 
[-0.2918181818181818]

>  <Interactions>  (1) 
["V-A:GLU:543:CD:4908, H-B:ASP:366:OD1:8185, H-B:ASP:366:OD2:8186, V-A:PRO:540:C:4881, V-A:TYR:539:CD1:4873, V-A:PRO:540:N:4884, V-B:GLY:454:CA:9020, V-A:PRO:540:CA:4883, V-A:TYR:539:C:4867, V-B:ILE:369:CG2:8208, V-B:LEU:475:CD2:9230, V-A:TYR:539:CE1:4875, H-B:GLY:454:N:9021, H-A:ALA:541:N:4891, V-B:GLU:543:CD:9880, H-B:GLU:543:OE1:9881, V-B:HIS:456:CE1:9041, V-B:TYR:484:CZ:9318, V-B:ARG:545:CZ:9898, H-B:TYR:484:OH:9319, V-A:ALA:541:CB:4892, V-A:GLU:543:CG:4907, V-A:ALA:541:CA:4890, H-B:GLU:543:OE2:9882"]

$$$$
RR2_Rahimova_2017
     RDKit          3D

 76 80  0  0  0  0  0  0  0  0999 V2000
  128.3150  133.3810   62.3110 C   0  0  0  0  0  0  0  0  0  0  0  0
  128.8380  132.7710   61.1370 O   0  0  0  0  0  0  0  0  0  0  0  0
  129.3440  131.4870   61.2120 C   0  0  0  0  0  0  0  0  0  0  0  0
  128.6050  130.3680   61.6200 C   0  0  0  0  0  0  0  0  0  0  0  0
  129.2010  129.1110   61.6670 C   0  0  0  0  0  0  0  0  0  0  0  0
  130.5460  128.9430   61.3130 C   0  0  0  0  0  0  0  0  0  0  0  0
  131.1740  127.5640   61.3800 C   0  0  0  0  0  0  0  0  0  0  0  0
  131.3780  127.0250   62.4740 O   0  0  0  0  0  0  0  0  0  0  0  0
  131.4920  127.0010   60.1910 N   0  0  0  0  0  0  0  0  0  0  0  0
  132.1540  125.7780   60.1990 N   0  0  0  0  0  0  0  0  0  0  0  0
  132.8200  125.4060   59.0880 C   0  0  0  0  0  0  0  0  0  0  0  0
  132.7460  125.9780   57.9960 O   0  0  0  0  0  0  0  0  0  0  0  0
  133.7430  124.1910   59.2460 C   0  0  0  0  0  0  0  0  0  0  0  0
  133.0230  122.7870   60.1750 S   0  0  0  0  0  0  0  0  0  0  0  0
  133.0280  123.4460   61.8150 C   0  0  0  0  0  0  0  0  0  0  0  0
  134.1260  123.7530   62.4580 N   0  0  0  0  0  0  0  0  0  0  0  0
  133.7620  124.1680   63.7310 N   0  0  0  0  0  0  0  0  0  0  0  0
  132.4530  124.1250   63.8000 C   0  0  0  0  0  0  0  0  0  0  0  0
  131.6810  124.5180   65.0180 C   0  0  0  0  0  0  0  0  0  0  0  0
  132.1880  125.4990   65.8750 C   0  0  0  0  0  0  0  0  0  0  0  0
  131.4800  125.8670   67.0150 C   0  0  0  0  0  0  0  0  0  0  0  0
  130.2480  125.2670   67.3010 C   0  0  0  0  0  0  0  0  0  0  0  0
  129.4970  125.5910   68.4410 N   0  0  0  0  0  0  0  0  0  0  0  0
  128.7420  127.1720   68.7410 S   0  0  0  0  0  0  0  0  0  0  0  0
  127.3070  126.9870   68.4970 O   0  0  0  0  0  0  0  0  0  0  0  0
  129.5050  128.1880   68.0060 O   0  0  0  0  0  0  0  0  0  0  0  0
  128.9330  127.4570   70.4990 C   0  0  0  0  0  0  0  0  0  0  0  0
  130.1300  127.9630   71.0120 C   0  0  0  0  0  0  0  0  0  0  0  0
  130.2640  128.1630   72.3830 C   0  0  0  0  0  0  0  0  0  0  0  0
  129.2020  127.8630   73.2390 C   0  0  0  0  0  0  0  0  0  0  0  0
  129.3550  128.0670   74.7350 C   0  0  0  0  0  0  0  0  0  0  0  0
  128.0080  127.3530   72.7240 C   0  0  0  0  0  0  0  0  0  0  0  0
  127.8730  127.1520   71.3540 C   0  0  0  0  0  0  0  0  0  0  0  0
  129.7420  124.2910   66.4440 C   0  0  0  0  0  0  0  0  0  0  0  0
  130.4520  123.9180   65.3060 C   0  0  0  0  0  0  0  0  0  0  0  0
  131.9170  123.6670   62.6080 N   0  0  0  0  0  0  0  0  0  0  0  0
  130.5630  123.4340   62.2870 C   0  0  0  0  0  0  0  0  0  0  0  0
  129.6790  124.5080   62.1750 C   0  0  0  0  0  0  0  0  0  0  0  0
  128.3460  124.2720   61.8530 C   0  0  0  0  0  0  0  0  0  0  0  0
  127.8850  122.9720   61.6440 C   0  0  0  0  0  0  0  0  0  0  0  0
  126.5460  122.8370   61.3310 O   0  0  0  0  0  0  0  0  0  0  0  0
  125.7760  124.0030   61.0550 C   0  0  0  0  0  0  0  0  0  0  0  0
  128.7820  121.8970   61.7590 C   0  0  0  0  0  0  0  0  0  0  0  0
  130.1160  122.1280   62.0780 C   0  0  0  0  0  0  0  0  0  0  0  0
  131.2780  130.0670   60.9000 C   0  0  0  0  0  0  0  0  0  0  0  0
  130.6800  131.3220   60.8510 C   0  0  0  0  0  0  0  0  0  0  0  0
  128.7373  132.8885   63.1993 H   0  0  0  0  0  0  0  0  0  0  0  0
  128.5835  134.4477   62.3207 H   0  0  0  0  0  0  0  0  0  0  0  0
  127.2198  133.2785   62.3207 H   0  0  0  0  0  0  0  0  0  0  0  0
  127.5487  130.4838   61.9045 H   0  0  0  0  0  0  0  0  0  0  0  0
  128.6094  128.2400   61.9856 H   0  0  0  0  0  0  0  0  0  0  0  0
  131.7560  127.5640   59.3950 H   0  0  0  0  0  0  0  0  0  0  0  0
  132.4000  125.4640   61.1280 H   0  0  0  0  0  0  0  0  0  0  0  0
  134.0112  123.8333   58.2409 H   0  0  0  0  0  0  0  0  0  0  0  0
  134.6075  124.5361   59.8322 H   0  0  0  0  0  0  0  0  0  0  0  0
  133.1499  125.9817   65.6475 H   0  0  0  0  0  0  0  0  0  0  0  0
  131.8892  126.6308   67.6927 H   0  0  0  0  0  0  0  0  0  0  0  0
  129.3530  124.8660   69.1300 H   0  0  0  0  0  0  0  0  0  0  0  0
  130.9633  128.2024   70.3351 H   0  0  0  0  0  0  0  0  0  0  0  0
  131.2060  128.5572   72.7921 H   0  0  0  0  0  0  0  0  0  0  0  0
  128.7786  127.2984   75.2707 H   0  0  0  0  0  0  0  0  0  0  0  0
  130.4172  127.9863   75.0093 H   0  0  0  0  0  0  0  0  0  0  0  0
  128.9802  129.0641   75.0093 H   0  0  0  0  0  0  0  0  0  0  0  0
  127.1754  127.1106   73.4008 H   0  0  0  0  0  0  0  0  0  0  0  0
  126.9326  126.7535   70.9455 H   0  0  0  0  0  0  0  0  0  0  0  0
  128.7769  123.8131   66.6680 H   0  0  0  0  0  0  0  0  0  0  0  0
  130.0449  123.1496   64.6323 H   0  0  0  0  0  0  0  0  0  0  0  0
  130.0341  125.5359   62.3404 H   0  0  0  0  0  0  0  0  0  0  0  0
  127.6493  125.1184   61.7624 H   0  0  0  0  0  0  0  0  0  0  0  0
  125.4670  124.4709   62.0014 H   0  0  0  0  0  0  0  0  0  0  0  0
  126.3826  124.7143   60.4752 H   0  0  0  0  0  0  0  0  0  0  0  0
  124.8837  123.7244   60.4752 H   0  0  0  0  0  0  0  0  0  0  0  0
  128.4280  120.8684   61.5961 H   0  0  0  0  0  0  0  0  0  0  0  0
  130.8165  121.2844   62.1653 H   0  0  0  0  0  0  0  0  0  0  0  0
  132.3338  129.9546   60.6125 H   0  0  0  0  0  0  0  0  0  0  0  0
  131.2673  132.1927   60.5241 H   0  0  0  0  0  0  0  0  0  0  0  0
  1  2  1  0
  2  3  1  0
  3  4  2  0
  4  5  1  0
  5  6  2  0
  6  7  1  0
  7  8  2  0
  7  9  1  0
  9 10  1  0
 10 11  1  0
 11 12  2  0
 11 13  1  0
 13 14  1  0
 14 15  1  0
 15 16  2  0
 16 17  1  0
 17 18  2  0
 18 19  1  0
 19 20  2  0
 20 21  1  0
 21 22  2  0
 22 23  1  0
 23 24  1  0
 24 25  2  0
 24 26  2  0
 24 27  1  0
 27 28  2  0
 28 29  1  0
 29 30  2  0
 30 31  1  0
 30 32  1  0
 32 33  2  0
 22 34  1  0
 34 35  2  0
 18 36  1  0
 36 37  1  0
 37 38  2  0
 38 39  1  0
 39 40  2  0
 40 41  1  0
 41 42  1  0
 40 43  1  0
 43 44  2  0
  6 45  1  0
 45 46  2  0
 46  3  1  0
 36 15  1  0
 44 37  1  0
 35 19  1  0
 33 27  1  0
  1 47  1  0
  1 48  1  0
  1 49  1  0
  4 50  1  0
  5 51  1  0
  9 52  1  0
 10 53  1  0
 13 54  1  0
 13 55  1  0
 20 56  1  0
 21 57  1  0
 23 58  1  0
 28 59  1  0
 29 60  1  0
 31 61  1  0
 31 62  1  0
 31 63  1  0
 32 64  1  0
 33 65  1  0
 34 66  1  0
 35 67  1  0
 38 68  1  0
 39 69  1  0
 42 70  1  0
 42 71  1  0
 42 72  1  0
 43 73  1  0
 44 74  1  0
 45 75  1  0
 46 76  1  0
M  END
>  <Binding energies>  (1) 
[-10.1]

>  <Ligand effiencies>  (1) 
[-0.20612244897959184]

>  <Interactions>  (1) 
["V-A:GLU:543:CD:4908, H-A:GLY:454:N:4050, V-B:PRO:540:CB:9857, H-A:TYR:484:OH:4348, V-B:TYR:539:CE2:9848, V-A:ARG:545:CZ:4926, V-A:LEU:475:CD2:4259, V-B:PRO:540:CA:9855, V-A:ASP:366:CB:3212, V-A:PRO:540:CA:4883, V-B:LEU:475:CD2:9230, H-B:ALA:541:N:9863, V-A:ASP:366:CG:3213, V-A:ILE:369:CG2:3237, V-A:TYR:484:CZ:4347, V-A:ILE:369:CB:3236, V-B:GLU:543:CB:9878, V-B:GLU:543:CG:9879, V-A:TYR:484:CE2:4346, V-B:GLU:543:CD:9880, H-B:TYR:539:OH:9850, V-B:ALA:541:CB:9864, V-A:ASP:366:CA:3210, V-B:HIS:456:CD2:9039, V-A:GLY:544:C:4912, V-B:GLY:544:C:9884, V-A:HIS:456:CE1:4070, V-B:HIS:456:CE1:9041, V-B:GLU:543:C:9874, H-B:GLU:543:O:9875, H-A:ARG:545:NH2:4928, V-A:ALA:541:CB:4892, H-A:HIS:456:NE2:4071, V-B:PRO:540:C:9853, V-B:GLU:543:CA:9876, H-A:ASP:366:OD2:3215, H-A:ASP:366:OD1:3214, H-A:TYR:531:OH:4795"]

$$$$
RR30_Rahimova_2017
     RDKit          3D

 29 30  0  0  0  0  0  0  0  0999 V2000
  123.7090  127.3610   74.8740 C   0  0  0  0  0  0  0  0  0  0  0  0
  124.1800  128.0730   76.1500 C   0  0  0  0  0  0  0  0  0  0  0  0
  125.2240  129.1300   75.8640 C   0  0  0  0  0  0  0  0  0  0  0  0
  125.1890  130.4050   76.1650 N   0  0  0  0  0  0  0  0  0  0  0  0
  126.3780  130.9440   75.6800 N   0  0  0  0  0  0  0  0  0  0  0  0
  127.0240  129.9520   75.1210 C   0  0  0  0  0  0  0  0  0  0  0  0
  128.6040  130.0020   74.3400 S   0  0  0  0  0  0  0  0  0  0  0  0
  129.0770  128.2490   74.4790 C   0  0  0  0  0  0  0  0  0  0  0  0
  129.2550  127.5880   73.1090 C   0  0  0  0  0  0  0  0  0  0  0  0
  129.0110  126.3860   72.9850 O   0  0  0  0  0  0  0  0  0  0  0  0
  129.7120  128.3890   72.1220 N   0  0  0  0  0  0  0  0  0  0  0  0
  129.9550  128.0200   70.8070 C   0  0  0  0  0  0  0  0  0  0  0  0
  131.0760  128.1150   70.1280 N   0  0  0  0  0  0  0  0  0  0  0  0
  130.9470  127.6450   68.8270 N   0  0  0  0  0  0  0  0  0  0  0  0
  129.7410  127.2070   68.5490 C   0  0  0  0  0  0  0  0  0  0  0  0
  129.3530  126.6510   67.1980 C   0  0  0  0  0  0  0  0  0  0  0  0
  128.6430  127.3380   69.8960 S   0  0  0  0  0  0  0  0  0  0  0  0
  126.3540  128.7740   75.2050 O   0  0  0  0  0  0  0  0  0  0  0  0
  123.1209  126.4720   75.1459 H   0  0  0  0  0  0  0  0  0  0  0  0
  123.0852  128.0459   74.2809 H   0  0  0  0  0  0  0  0  0  0  0  0
  124.5834  127.0549   74.2809 H   0  0  0  0  0  0  0  0  0  0  0  0
  123.3131  128.5520   76.6286 H   0  0  0  0  0  0  0  0  0  0  0  0
  124.6355  127.3187   76.8084 H   0  0  0  0  0  0  0  0  0  0  0  0
  130.0258  128.1807   75.0313 H   0  0  0  0  0  0  0  0  0  0  0  0
  128.2683  127.7216   75.0062 H   0  0  0  0  0  0  0  0  0  0  0  0
  129.9060  129.3530   72.3520 H   0  0  0  0  0  0  0  0  0  0  0  0
  128.7284  125.7560   67.3355 H   0  0  0  0  0  0  0  0  0  0  0  0
  128.7876  127.4102   66.6377 H   0  0  0  0  0  0  0  0  0  0  0  0
  130.2606  126.3822   66.6377 H   0  0  0  0  0  0  0  0  0  0  0  0
  1  2  1  0
  2  3  1  0
  3  4  2  0
  4  5  1  0
  5  6  2  0
  6  7  1  0
  7  8  1  0
  8  9  1  0
  9 10  2  0
  9 11  1  0
 11 12  1  0
 12 13  2  0
 13 14  1  0
 14 15  2  0
 15 16  1  0
 15 17  1  0
  6 18  1  0
 18  3  1  0
 17 12  1  0
  1 19  1  0
  1 20  1  0
  1 21  1  0
  2 22  1  0
  2 23  1  0
  8 24  1  0
  8 25  1  0
 11 26  1  0
 16 27  1  0
 16 28  1  0
 16 29  1  0
M  END
>  <Binding energies>  (1) 
[-6.33]

>  <Ligand effiencies>  (1) 
[-0.3331578947368421]

>  <Interactions>  (1) 
["V-A:GLU:543:CD:4908, V-B:GLU:543:CB:9878, V-B:GLU:543:CG:9879, V-B:HIS:456:CD2:9039, V-B:HIS:456:CB:9036, V-B:HIS:456:CG:9037, V-B:HIS:456:C:9032, V-A:HIS:456:CE1:4070, H-B:LYS:547:NZ:9923, H-A:GLY:544:O:4913, V-B:LYS:547:CE:9922, V-B:HIS:456:CE1:9041, H-A:LYS:547:NZ:4951, V-A:GLU:543:CB:4906, V-A:GLU:543:C:4902, H-B:HIS:456:NE2:9042, V-B:LYS:547:CD:9921, H-A:GLU:543:O:4903, V-B:VAL:458:CG2:9058, V-B:VAL:457:C:9044, H-B:LYS:471:NZ:9192, V-B:LYS:547:CG:9920, V-B:LYS:547:CB:9919, H-A:ARG:545:N:4920"]

$$$$
RR31_Rahimova_2017
     RDKit          3D

 44 45  0  0  0  0  0  0  0  0999 V2000
  129.5920  128.5050   72.7250 C   0  0  0  0  0  0  0  0  0  0  0  0
  129.6630  127.9840   71.2950 C   0  0  0  0  0  0  0  0  0  0  0  0
  130.8100  128.2250   70.5390 C   0  0  0  0  0  0  0  0  0  0  0  0
  130.9060  127.7590   69.2290 C   0  0  0  0  0  0  0  0  0  0  0  0
  129.8620  127.0290   68.6400 C   0  0  0  0  0  0  0  0  0  0  0  0
  129.9390  126.5640   67.3250 N   0  0  0  0  0  0  0  0  0  0  0  0
  130.4580  125.2210   67.0000 C   0  0  0  0  0  0  0  0  0  0  0  0
  130.8520  125.0390   65.5150 C   0  0  0  0  0  0  0  0  0  0  0  0
  129.7260  125.3560   64.6330 N   0  0  0  0  0  0  0  0  0  0  0  0
  130.0580  125.1580   63.2180 C   0  0  0  0  0  0  0  0  0  0  0  0
  131.4620  125.6790   62.8500 C   0  0  0  0  0  0  0  0  0  0  0  0
  131.4710  126.4370   61.5130 C   0  0  0  0  0  0  0  0  0  0  0  0
  131.3790  127.9460   61.7660 N   0  0  0  0  0  0  0  0  0  0  0  0
  129.3690  126.7550   64.8640 C   0  0  0  0  0  0  0  0  0  0  0  0
  128.9290  126.9740   66.3290 C   0  0  0  0  0  0  0  0  0  0  0  0
  128.7110  126.8020   69.4080 C   0  0  0  0  0  0  0  0  0  0  0  0
  128.6010  127.2660   70.7240 C   0  0  0  0  0  0  0  0  0  0  0  0
  127.3220  126.9880   71.5050 C   0  0  0  0  0  0  0  0  0  0  0  0
  129.7063  127.6659   73.4270 H   0  0  0  0  0  0  0  0  0  0  0  0
  130.3991  129.2339   72.8902 H   0  0  0  0  0  0  0  0  0  0  0  0
  128.6193  128.9913   72.8902 H   0  0  0  0  0  0  0  0  0  0  0  0
  131.6459  128.7876   70.9804 H   0  0  0  0  0  0  0  0  0  0  0  0
  131.8157  127.9670   68.6467 H   0  0  0  0  0  0  0  0  0  0  0  0
  131.3482  125.0355   67.6189 H   0  0  0  0  0  0  0  0  0  0  0  0
  129.6444  124.5088   67.2021 H   0  0  0  0  0  0  0  0  0  0  0  0
  131.6927  125.7086   65.2807 H   0  0  0  0  0  0  0  0  0  0  0  0
  131.1403  123.9898   65.3538 H   0  0  0  0  0  0  0  0  0  0  0  0
  130.0138  124.0818   62.9948 H   0  0  0  0  0  0  0  0  0  0  0  0
  129.3289  125.7304   62.6257 H   0  0  0  0  0  0  0  0  0  0  0  0
  131.8067  126.3579   63.6439 H   0  0  0  0  0  0  0  0  0  0  0  0
  132.1277  124.8092   62.7482 H   0  0  0  0  0  0  0  0  0  0  0  0
  132.4036  126.2141   60.9740 H   0  0  0  0  0  0  0  0  0  0  0  0
  130.6073  126.1182   60.9111 H   0  0  0  0  0  0  0  0  0  0  0  0
  131.2340  128.1250   62.7490 H   0  0  0  0  0  0  0  0  0  0  0  0
  130.6070  128.3390   61.2470 H   0  0  0  0  0  0  0  0  0  0  0  0
  132.2320  128.4010   61.4750 H   0  0  0  0  0  0  0  0  0  0  0  0
  130.2416  127.3899   64.6507 H   0  0  0  0  0  0  0  0  0  0  0  0
  128.5320  127.0195   64.2010 H   0  0  0  0  0  0  0  0  0  0  0  0
  128.7174  128.0441   66.4707 H   0  0  0  0  0  0  0  0  0  0  0  0
  128.0434  126.3427   66.4940 H   0  0  0  0  0  0  0  0  0  0  0  0
  127.8726  126.2447   68.9647 H   0  0  0  0  0  0  0  0  0  0  0  0
  127.5336  127.0340   72.5835 H   0  0  0  0  0  0  0  0  0  0  0  0
  126.5639  127.7423   71.2476 H   0  0  0  0  0  0  0  0  0  0  0  0
  126.9454  125.9870   71.2476 H   0  0  0  0  0  0  0  0  0  0  0  0
  1  2  1  0
  2  3  2  0
  3  4  1  0
  4  5  2  0
  5  6  1  0
  6  7  1  0
  7  8  1  0
  8  9  1  0
  9 10  1  0
 10 11  1  0
 11 12  1  0
 12 13  1  0
  9 14  1  0
 14 15  1  0
  5 16  1  0
 16 17  2  0
 17 18  1  0
 17  2  1  0
 15  6  1  0
  1 19  1  0
  1 20  1  0
  1 21  1  0
  3 22  1  0
  4 23  1  0
  7 24  1  0
  7 25  1  0
  8 26  1  0
  8 27  1  0
 10 28  1  0
 10 29  1  0
 11 30  1  0
 11 31  1  0
 12 32  1  0
 12 33  1  0
 13 34  1  0
 13 35  1  0
 13 36  1  0
 14 37  1  0
 14 38  1  0
 15 39  1  0
 15 40  1  0
 16 41  1  0
 18 42  1  0
 18 43  1  0
 18 44  1  0
M  CHG  1  13   1
M  END
>  <Binding energies>  (1) 
[-6.41]

>  <Ligand effiencies>  (1) 
[-0.30523809523809525]

>  <Interactions>  (1) 
["V-A:GLU:543:CD:4908, V-A:ASP:366:CG:3213, V-A:TYR:484:CZ:4347, H-A:GLU:543:OE2:4910, V-B:GLU:543:CB:9878, V-B:GLU:543:CG:9879, V-A:TYR:484:CE2:4346, V-B:GLU:543:CD:9880, V-B:HIS:456:CD2:9039, V-A:GLY:544:C:4912, V-B:GLY:544:C:9884, V-B:HIS:456:CG:9037, V-B:GLY:544:CA:9886, V-A:HIS:456:CE1:4070, V-B:HIS:456:CE1:9041, V-B:GLU:543:C:9874, H-A:GLU:543:OE1:4909, V-A:GLU:543:CB:4906, V-A:GLU:543:C:4902, H-A:ASP:366:OD2:3215, H-A:ASP:366:OD1:3214"]

$$$$
RR32_Rahimova_2017
     RDKit          3D

 37 39  0  0  0  0  0  0  0  0999 V2000
  123.8240  131.6620   62.3590 C   0  0  0  0  0  0  0  0  0  0  0  0
  124.9750  132.5980   62.0050 C   0  0  0  0  0  0  0  0  0  0  0  0
  126.2720  132.0830   62.0120 C   0  0  0  0  0  0  0  0  0  0  0  0
  127.3460  132.9070   61.6910 C   0  0  0  0  0  0  0  0  0  0  0  0
  128.6310  132.3910   61.7000 N   0  0  0  0  0  0  0  0  0  0  0  0
  129.4650  132.6350   60.5100 C   0  0  0  0  0  0  0  0  0  0  0  0
  130.8090  131.8700   60.5380 C   0  0  0  0  0  0  0  0  0  0  0  0
  131.5750  132.2380   61.7280 N   0  0  0  0  0  0  0  0  0  0  0  0
  132.8570  131.5410   61.7390 C   0  0  0  0  0  0  0  0  0  0  0  0
  130.7880  131.8700   62.9030 C   0  0  0  0  0  0  0  0  0  0  0  0
  129.4420  132.6320   62.9090 C   0  0  0  0  0  0  0  0  0  0  0  0
  127.1930  134.2160   61.3670 N   0  0  0  0  0  0  0  0  0  0  0  0
  125.9410  134.7500   61.3540 C   0  0  0  0  0  0  0  0  0  0  0  0
  125.8120  136.1180   61.0140 C   0  0  0  0  0  0  0  0  0  0  0  0
  124.5570  136.7170   60.9850 C   0  0  0  0  0  0  0  0  0  0  0  0
  123.4180  135.9800   61.2860 C   0  0  0  0  0  0  0  0  0  0  0  0
  123.5100  134.6330   61.6240 C   0  0  0  0  0  0  0  0  0  0  0  0
  124.7750  133.9780   61.6680 C   0  0  0  0  0  0  0  0  0  0  0  0
  123.7340  131.5889   63.4529 H   0  0  0  0  0  0  0  0  0  0  0  0
  122.8873  132.0579   61.9397 H   0  0  0  0  0  0  0  0  0  0  0  0
  124.0206  130.6642   61.9397 H   0  0  0  0  0  0  0  0  0  0  0  0
  126.4448  131.0279   62.2707 H   0  0  0  0  0  0  0  0  0  0  0  0
  128.9024  132.3201   59.6187 H   0  0  0  0  0  0  0  0  0  0  0  0
  129.7016  133.7091   60.4924 H   0  0  0  0  0  0  0  0  0  0  0  0
  130.6110  130.7881   60.5536 H   0  0  0  0  0  0  0  0  0  0  0  0
  131.3901  132.1326   59.6417 H   0  0  0  0  0  0  0  0  0  0  0  0
  133.1723  131.3696   62.7788 H   0  0  0  0  0  0  0  0  0  0  0  0
  132.7536  130.5749   61.2232 H   0  0  0  0  0  0  0  0  0  0  0  0
  133.6116  132.1531   61.2232 H   0  0  0  0  0  0  0  0  0  0  0  0
  130.5920  130.7878   62.8839 H   0  0  0  0  0  0  0  0  0  0  0  0
  131.3529  132.1352   63.8089 H   0  0  0  0  0  0  0  0  0  0  0  0
  128.8630  132.3116   63.7877 H   0  0  0  0  0  0  0  0  0  0  0  0
  129.6754  133.7066   62.9366 H   0  0  0  0  0  0  0  0  0  0  0  0
  126.7073  136.7094   60.7719 H   0  0  0  0  0  0  0  0  0  0  0  0
  124.4655  137.7812   60.7221 H   0  0  0  0  0  0  0  0  0  0  0  0
  122.4321  136.4669   61.2568 H   0  0  0  0  0  0  0  0  0  0  0  0
  122.5963  134.0677   61.8598 H   0  0  0  0  0  0  0  0  0  0  0  0
  1  2  1  0
  2  3  2  0
  3  4  1  0
  4  5  1  0
  5  6  1  0
  6  7  1  0
  7  8  1  0
  8  9  1  0
  8 10  1  0
 10 11  1  0
  4 12  2  0
 12 13  1  0
 13 14  2  0
 14 15  1  0
 15 16  2  0
 16 17  1  0
 17 18  2  0
 18  2  1  0
 11  5  1  0
 18 13  1  0
  1 19  1  0
  1 20  1  0
  1 21  1  0
  3 22  1  0
  6 23  1  0
  6 24  1  0
  7 25  1  0
  7 26  1  0
  9 27  1  0
  9 28  1  0
  9 29  1  0
 10 30  1  0
 10 31  1  0
 11 32  1  0
 11 33  1  0
 14 34  1  0
 15 35  1  0
 16 36  1  0
 17 37  1  0
M  END
>  <Binding energies>  (1) 
[-6.13]

>  <Ligand effiencies>  (1) 
[-0.34055555555555556]

>  <Interactions>  (1) 
["V-A:GLU:543:CD:4908, V-A:ASN:362:CB:3176, V-A:PRO:540:CB:4885, V-A:TYR:539:CD1:4873, V-A:PRO:540:N:4884, V-A:PRO:540:CA:4883, V-B:ILE:369:CG2:8208, V-B:LEU:475:CD2:9230, V-A:TYR:539:CE1:4875, H-A:ALA:541:N:4891, V-A:ALA:541:CB:4892, V-A:GLU:543:CG:4907, V-B:SER:385:CB:8380, V-B:SER:385:CA:8378, V-B:SER:385:C:8376, V-A:ALA:541:CA:4890"]

$$$$
RR32_Rahimova_2017-again1
     RDKit          3D

 38 40  0  0  0  0  0  0  0  0999 V2000
  128.4850  123.7260   58.3470 C   0  0  0  0  0  0  0  0  0  0  0  0
  128.0380  123.4240   59.7710 C   0  0  0  0  0  0  0  0  0  0  0  0
  128.9700  123.0350   60.7330 C   0  0  0  0  0  0  0  0  0  0  0  0
  128.5570  122.7630   62.0420 C   0  0  0  0  0  0  0  0  0  0  0  0
  129.4730  122.3610   63.0210 N   0  0  0  0  0  0  0  0  0  0  0  0
  130.9240  122.4670   62.7740 C   0  0  0  0  0  0  0  0  0  0  0  0
  131.4880  123.8620   63.1330 C   0  0  0  0  0  0  0  0  0  0  0  0
  131.2510  124.1150   64.6350 N   0  0  0  0  0  0  0  0  0  0  0  0
  131.7800  125.5020   65.0470 C   0  0  0  0  0  0  0  0  0  0  0  0
  129.7400  124.0000   64.9240 C   0  0  0  0  0  0  0  0  0  0  0  0
  129.2560  122.6050   64.4630 C   0  0  0  0  0  0  0  0  0  0  0  0
  127.2470  122.8430   62.4020 N   0  0  0  0  0  0  0  0  0  0  0  0
  126.3150  123.2230   61.4860 C   0  0  0  0  0  0  0  0  0  0  0  0
  124.9640  123.3100   61.9000 C   0  0  0  0  0  0  0  0  0  0  0  0
  123.9790  123.6970   60.9960 C   0  0  0  0  0  0  0  0  0  0  0  0
  124.3080  124.0010   59.6790 C   0  0  0  0  0  0  0  0  0  0  0  0
  125.6280  123.9230   59.2420 C   0  0  0  0  0  0  0  0  0  0  0  0
  126.6620  123.5320   60.1360 C   0  0  0  0  0  0  0  0  0  0  0  0
  129.3962  124.3417   58.3715 H   0  0  0  0  0  0  0  0  0  0  0  0
  128.6936  122.7830   57.8204 H   0  0  0  0  0  0  0  0  0  0  0  0
  127.6880  124.2715   57.8204 H   0  0  0  0  0  0  0  0  0  0  0  0
  130.0320  122.9418   60.4621 H   0  0  0  0  0  0  0  0  0  0  0  0
  131.4412  121.7106   63.3826 H   0  0  0  0  0  0  0  0  0  0  0  0
  131.0916  122.3064   61.6988 H   0  0  0  0  0  0  0  0  0  0  0  0
  132.5662  123.8928   62.9174 H   0  0  0  0  0  0  0  0  0  0  0  0
  130.9838  124.6367   62.5367 H   0  0  0  0  0  0  0  0  0  0  0  0
  131.7330  123.4000   65.1600 H   0  0  0  0  0  0  0  0  0  0  0  0
  131.8071  125.5730   66.1444 H   0  0  0  0  0  0  0  0  0  0  0  0
  132.7945  125.6416   64.6454 H   0  0  0  0  0  0  0  0  0  0  0  0
  131.1161  126.2818   64.6454 H   0  0  0  0  0  0  0  0  0  0  0  0
  129.5586  124.1178   66.0025 H   0  0  0  0  0  0  0  0  0  0  0  0
  129.1924  124.7861   64.3835 H   0  0  0  0  0  0  0  0  0  0  0  0
  129.8022  121.8392   65.0333 H   0  0  0  0  0  0  0  0  0  0  0  0
  128.1718  122.5589   64.6431 H   0  0  0  0  0  0  0  0  0  0  0  0
  124.6920  123.0711   62.9387 H   0  0  0  0  0  0  0  0  0  0  0  0
  122.9317  123.7630   61.3257 H   0  0  0  0  0  0  0  0  0  0  0  0
  123.5184  124.3058   58.9764 H   0  0  0  0  0  0  0  0  0  0  0  0
  125.8724  124.1657   58.1973 H   0  0  0  0  0  0  0  0  0  0  0  0
  1  2  1  0
  2  3  2  0
  3  4  1  0
  4  5  1  0
  5  6  1  0
  6  7  1  0
  7  8  1  0
  8  9  1  0
  8 10  1  0
 10 11  1  0
  4 12  2  0
 12 13  1  0
 13 14  2  0
 14 15  1  0
 15 16  2  0
 16 17  1  0
 17 18  2  0
 18  2  1  0
 11  5  1  0
 18 13  1  0
  1 19  1  0
  1 20  1  0
  1 21  1  0
  3 22  1  0
  6 23  1  0
  6 24  1  0
  7 25  1  0
  7 26  1  0
  8 27  1  0
  9 28  1  0
  9 29  1  0
  9 30  1  0
 10 31  1  0
 10 32  1  0
 11 33  1  0
 11 34  1  0
 14 35  1  0
 15 36  1  0
 16 37  1  0
 17 38  1  0
M  CHG  1   8   1
M  END
>  <Binding energies>  (1) 
[-6.47]

>  <Ligand effiencies>  (1) 
[-0.3405263157894737]

>  <Interactions>  (1) 
["V-B:LEU:363:CA:8156, V-B:TYR:539:CD2:9846, V-A:GLU:543:CD:4908, V-B:ASP:366:CG:8184, V-B:PRO:540:CB:9857, H-A:TYR:484:OH:4348, V-B:TYR:539:CE2:9848, V-B:TYR:539:CZ:9849, V-A:ARG:545:CZ:4926, V-A:LEU:475:CD2:4259, V-B:PRO:540:CA:9855, H-B:ALA:541:N:9863, V-B:ASN:362:CB:8147, V-B:GLU:543:CG:9879, V-A:TYR:484:CE2:4346, V-B:GLU:543:CD:9880, V-B:ASN:362:C:8143, V-B:ALA:541:CB:9864, V-B:PRO:540:C:9853"]

$$$$
RR32_Rahimova_2017-again2
     RDKit          3D

 39 41  0  0  0  0  0  0  0  0999 V2000
  130.8170  130.4490   57.5070 C   0  0  0  0  0  0  0  0  0  0  0  0
  130.6440  130.3680   59.0180 C   0  0  0  0  0  0  0  0  0  0  0  0
  129.4780  129.8200   59.5630 C   0  0  0  0  0  0  0  0  0  0  0  0
  129.2980  129.7430   60.9500 C   0  0  0  0  0  0  0  0  0  0  0  0
  128.1240  129.1740   61.5620 N   0  0  0  0  0  0  0  0  0  0  0  0
  128.0450  127.7180   61.8540 C   0  0  0  0  0  0  0  0  0  0  0  0
  128.6960  127.3970   63.2260 C   0  0  0  0  0  0  0  0  0  0  0  0
  127.9660  128.1840   64.3400 N   0  0  0  0  0  0  0  0  0  0  0  0
  128.6220  127.9340   65.7120 C   0  0  0  0  0  0  0  0  0  0  0  0
  127.9460  129.6940   64.0030 C   0  0  0  0  0  0  0  0  0  0  0  0
  127.3310  129.8940   62.5920 C   0  0  0  0  0  0  0  0  0  0  0  0
  130.2880  130.2050   61.7420 N   0  0  0  0  0  0  0  0  0  0  0  0
  131.4660  130.7580   61.2970 C   0  0  0  0  0  0  0  0  0  0  0  0
  132.4390  131.2140   62.2150 C   0  0  0  0  0  0  0  0  0  0  0  0
  133.6220  131.7650   61.7290 C   0  0  0  0  0  0  0  0  0  0  0  0
  133.8470  131.8670   60.3590 C   0  0  0  0  0  0  0  0  0  0  0  0
  132.8950  131.4220   59.4410 C   0  0  0  0  0  0  0  0  0  0  0  0
  131.6700  130.8510   59.8880 C   0  0  0  0  0  0  0  0  0  0  0  0
  131.7905  130.9048   57.2733 H   0  0  0  0  0  0  0  0  0  0  0  0
  130.7736  129.4370   57.0782 H   0  0  0  0  0  0  0  0  0  0  0  0
  130.0119  131.0638   57.0782 H   0  0  0  0  0  0  0  0  0  0  0  0
  128.6911  129.4441   58.8926 H   0  0  0  0  0  0  0  0  0  0  0  0
  126.9890  127.4107   61.8748 H   0  0  0  0  0  0  0  0  0  0  0  0
  128.5867  127.1702   61.0689 H   0  0  0  0  0  0  0  0  0  0  0  0
  128.6160  126.3184   63.4264 H   0  0  0  0  0  0  0  0  0  0  0  0
  129.7565  127.6886   63.2058 H   0  0  0  0  0  0  0  0  0  0  0  0
  127.0080  127.8620   64.3680 H   0  0  0  0  0  0  0  0  0  0  0  0
  127.9153  128.2033   66.5108 H   0  0  0  0  0  0  0  0  0  0  0  0
  128.8896  126.8709   65.8022 H   0  0  0  0  0  0  0  0  0  0  0  0
  129.5293  128.5494   65.8022 H   0  0  0  0  0  0  0  0  0  0  0  0
  127.3391  130.2292   64.7481 H   0  0  0  0  0  0  0  0  0  0  0  0
  128.9723  130.0896   64.0183 H   0  0  0  0  0  0  0  0  0  0  0  0
  126.3013  129.5070   62.5896 H   0  0  0  0  0  0  0  0  0  0  0  0
  127.3379  130.9680   62.3542 H   0  0  0  0  0  0  0  0  0  0  0  0
  130.1540  130.1340   62.7390 H   0  0  0  0  0  0  0  0  0  0  0  0
  132.2643  131.1348   63.2981 H   0  0  0  0  0  0  0  0  0  0  0  0
  134.3861  132.1231   62.4346 H   0  0  0  0  0  0  0  0  0  0  0  0
  134.7884  132.3045   59.9951 H   0  0  0  0  0  0  0  0  0  0  0  0
  133.0928  131.5132   58.3628 H   0  0  0  0  0  0  0  0  0  0  0  0
  1  2  1  0
  2  3  2  0
  3  4  1  0
  4  5  1  0
  5  6  1  0
  6  7  1  0
  7  8  1  0
  8  9  1  0
  8 10  1  0
 10 11  1  0
  4 12  2  0
 12 13  1  0
 13 14  2  0
 14 15  1  0
 15 16  2  0
 16 17  1  0
 17 18  2  0
 18  2  1  0
 11  5  1  0
 18 13  1  0
  1 19  1  0
  1 20  1  0
  1 21  1  0
  3 22  1  0
  6 23  1  0
  6 24  1  0
  7 25  1  0
  7 26  1  0
  8 27  1  0
  9 28  1  0
  9 29  1  0
  9 30  1  0
 10 31  1  0
 10 32  1  0
 11 33  1  0
 11 34  1  0
 12 35  1  0
 14 36  1  0
 15 37  1  0
 16 38  1  0
 17 39  1  0
M  CHG  2   8   1  12   1
M  END
>  <Binding energies>  (1) 
[-6.72]

>  <Ligand effiencies>  (1) 
[-0.33599999999999997]

>  <Interactions>  (1) 
["V-A:GLU:543:CD:4908, V-A:ASN:362:CB:3176, V-A:PRO:540:CB:4885, V-A:PRO:540:CA:4883, V-B:GLU:543:CD:9880, H-B:GLU:543:OE1:9881, H-A:GLU:543:OE1:4909, V-A:GLU:543:CG:4907, V-A:LEU:363:CD1:3189, V-A:LEU:363:CA:3185, V-A:LEU:363:CB:3187, V-A:ASN:362:C:3172, H-B:GLU:543:OE2:9882"]

$$$$
RR33_Rahimova_2017
     RDKit          3D

 36 37  0  0  0  0  0  0  0  0999 V2000
  124.8910  129.1950   67.0040 C   0  0  0  0  0  0  0  0  0  0  0  0
  123.5750  129.8220   66.5350 C   0  0  0  0  0  0  0  0  0  0  0  0
  123.5040  129.7280   65.1150 O   0  0  0  0  0  0  0  0  0  0  0  0
  124.5960  130.0990   64.3550 C   0  0  0  0  0  0  0  0  0  0  0  0
  124.6490  131.4330   63.9520 C   0  0  0  0  0  0  0  0  0  0  0  0
  125.7100  131.8980   63.1800 C   0  0  0  0  0  0  0  0  0  0  0  0
  126.7390  131.0310   62.7990 C   0  0  0  0  0  0  0  0  0  0  0  0
  127.8780  131.5320   61.9690 C   0  0  0  0  0  0  0  0  0  0  0  0
  129.1540  131.5460   62.2830 N   0  0  0  0  0  0  0  0  0  0  0  0
  129.7660  132.0780   61.2370 C   0  0  0  0  0  0  0  0  0  0  0  0
  131.2690  132.2500   61.2190 C   0  0  0  0  0  0  0  0  0  0  0  0
  131.8420  131.8890   62.5080 N   0  0  0  0  0  0  0  0  0  0  0  0
  133.1640  131.3090   62.3360 C   0  0  0  0  0  0  0  0  0  0  0  0
  128.8290  132.3960   60.2610 C   0  0  0  0  0  0  0  0  0  0  0  0
  128.8820  133.0030   58.8800 C   0  0  0  0  0  0  0  0  0  0  0  0
  127.6140  132.0430   60.7380 O   0  0  0  0  0  0  0  0  0  0  0  0
  126.6920  129.6940   63.2040 C   0  0  0  0  0  0  0  0  0  0  0  0
  125.6290  129.2280   63.9750 C   0  0  0  0  0  0  0  0  0  0  0  0
  124.9194  129.1815   68.1036 H   0  0  0  0  0  0  0  0  0  0  0  0
  124.9632  128.1657   66.6227 H   0  0  0  0  0  0  0  0  0  0  0  0
  125.7358  129.7874   66.6227 H   0  0  0  0  0  0  0  0  0  0  0  0
  122.7277  129.2834   66.9843 H   0  0  0  0  0  0  0  0  0  0  0  0
  123.5321  130.8771   66.8431 H   0  0  0  0  0  0  0  0  0  0  0  0
  123.8454  132.1239   64.2467 H   0  0  0  0  0  0  0  0  0  0  0  0
  125.7391  132.9525   62.8682 H   0  0  0  0  0  0  0  0  0  0  0  0
  131.6975  131.6033   60.4391 H   0  0  0  0  0  0  0  0  0  0  0  0
  131.5026  133.3044   61.0100 H   0  0  0  0  0  0  0  0  0  0  0  0
  131.2440  131.2110   62.9590 H   0  0  0  0  0  0  0  0  0  0  0  0
  133.6098  131.1134   63.3224 H   0  0  0  0  0  0  0  0  0  0  0  0
  133.0804  130.3649   61.7777 H   0  0  0  0  0  0  0  0  0  0  0  0
  133.8021  132.0098   61.7777 H   0  0  0  0  0  0  0  0  0  0  0  0
  128.9774  134.0957   58.9632 H   0  0  0  0  0  0  0  0  0  0  0  0
  129.7483  132.5997   58.3352 H   0  0  0  0  0  0  0  0  0  0  0  0
  127.9589  132.7560   58.3352 H   0  0  0  0  0  0  0  0  0  0  0  0
  127.4989  129.0057   62.9123 H   0  0  0  0  0  0  0  0  0  0  0  0
  125.5993  128.1736   64.2870 H   0  0  0  0  0  0  0  0  0  0  0  0
  1  2  1  0
  2  3  1  0
  3  4  1  0
  4  5  2  0
  5  6  1  0
  6  7  2  0
  7  8  1  0
  8  9  2  0
  9 10  1  0
 10 11  1  0
 11 12  1  0
 12 13  1  0
 10 14  2  0
 14 15  1  0
 14 16  1  0
  7 17  1  0
 17 18  2  0
 18  4  1  0
 16  8  1  0
  1 19  1  0
  1 20  1  0
  1 21  1  0
  2 22  1  0
  2 23  1  0
  5 24  1  0
  6 25  1  0
 11 26  1  0
 11 27  1  0
 12 28  1  0
 13 29  1  0
 13 30  1  0
 13 31  1  0
 15 32  1  0
 15 33  1  0
 15 34  1  0
 17 35  1  0
 18 36  1  0
M  END
>  <Binding energies>  (1) 
[-4.86]

>  <Ligand effiencies>  (1) 
[-0.25578947368421057]

>  <Interactions>  (1) 
["V-A:GLU:543:CD:4908, V-A:ASN:362:CB:3176, V-A:PRO:540:C:4881, V-A:PRO:540:CB:4885, V-A:TYR:539:CD1:4873, V-A:PRO:540:N:4884, V-B:GLY:454:CA:9020, V-A:PRO:540:CA:4883, V-B:GLY:453:C:9013, V-A:TYR:539:C:4867, H-B:ARG:545:NH1:9899, V-A:TYR:539:CE1:4875, H-B:GLY:454:N:9021, H-A:ALA:541:N:4891, H-B:ARG:545:NH2:9900, V-B:GLU:543:CD:9880, V-B:HIS:456:CE1:9041, H-A:GLU:543:OE1:4909, V-B:TYR:484:CZ:9318, V-B:ARG:545:CZ:9898, H-B:TYR:484:OH:9319, H-B:ARG:545:NE:9896, V-B:ARG:545:CD:9895, V-B:GLY:454:C:9018, V-B:ARG:545:CG:9894, H-A:ALA:541:O:4889"]

$$$$
RR33_Rahimova_2017-again1
     RDKit          3D

 37 38  0  0  0  0  0  0  0  0999 V2000
  131.0620  126.6250   74.1180 C   0  0  0  0  0  0  0  0  0  0  0  0
  129.7850  127.4450   73.9120 C   0  0  0  0  0  0  0  0  0  0  0  0
  128.9050  126.7180   73.0600 O   0  0  0  0  0  0  0  0  0  0  0  0
  128.8880  126.9960   71.7060 C   0  0  0  0  0  0  0  0  0  0  0  0
  127.6910  126.7490   71.0360 C   0  0  0  0  0  0  0  0  0  0  0  0
  127.5770  126.9980   69.6710 C   0  0  0  0  0  0  0  0  0  0  0  0
  128.6680  127.5000   68.9530 C   0  0  0  0  0  0  0  0  0  0  0  0
  128.5500  127.7700   67.4870 C   0  0  0  0  0  0  0  0  0  0  0  0
  128.9790  127.0200   66.4960 N   0  0  0  0  0  0  0  0  0  0  0  0
  128.6440  127.6700   65.3920 C   0  0  0  0  0  0  0  0  0  0  0  0
  128.9870  127.1180   64.0220 C   0  0  0  0  0  0  0  0  0  0  0  0
  130.4650  126.6930   64.0050 N   0  0  0  0  0  0  0  0  0  0  0  0
  130.7000  125.3120   63.3790 C   0  0  0  0  0  0  0  0  0  0  0  0
  127.9990  128.8540   65.7280 C   0  0  0  0  0  0  0  0  0  0  0  0
  127.3950  130.0050   64.9620 C   0  0  0  0  0  0  0  0  0  0  0  0
  127.9390  128.9110   67.0800 O   0  0  0  0  0  0  0  0  0  0  0  0
  129.8710  127.7490   69.6220 C   0  0  0  0  0  0  0  0  0  0  0  0
  129.9830  127.5000   70.9870 C   0  0  0  0  0  0  0  0  0  0  0  0
  131.2503  126.5041   75.1950 H   0  0  0  0  0  0  0  0  0  0  0  0
  130.9411  125.6352   73.6535 H   0  0  0  0  0  0  0  0  0  0  0  0
  131.9117  127.1467   73.6535 H   0  0  0  0  0  0  0  0  0  0  0  0
  129.2982  127.6211   74.8826 H   0  0  0  0  0  0  0  0  0  0  0  0
  130.0329  128.4139   73.4540 H   0  0  0  0  0  0  0  0  0  0  0  0
  126.8278  126.3534   71.5913 H   0  0  0  0  0  0  0  0  0  0  0  0
  126.6260  126.7994   69.1552 H   0  0  0  0  0  0  0  0  0  0  0  0
  128.3509  126.2469   63.8063 H   0  0  0  0  0  0  0  0  0  0  0  0
  128.8153  127.8906   63.2581 H   0  0  0  0  0  0  0  0  0  0  0  0
  130.9960  127.3820   63.4920 H   0  0  0  0  0  0  0  0  0  0  0  0
  130.8070  126.6830   64.9560 H   0  0  0  0  0  0  0  0  0  0  0  0
  130.8271  124.5649   64.1763 H   0  0  0  0  0  0  0  0  0  0  0  0
  129.8353  125.0399   62.7560 H   0  0  0  0  0  0  0  0  0  0  0  0
  131.6061  125.3412   62.7560 H   0  0  0  0  0  0  0  0  0  0  0  0
  127.0036  130.7510   65.6693 H   0  0  0  0  0  0  0  0  0  0  0  0
  128.1658  130.4689   64.3291 H   0  0  0  0  0  0  0  0  0  0  0  0
  126.5752  129.6343   64.3291 H   0  0  0  0  0  0  0  0  0  0  0  0
  130.7340  128.1441   69.0659 H   0  0  0  0  0  0  0  0  0  0  0  0
  130.9333  127.6990   71.5041 H   0  0  0  0  0  0  0  0  0  0  0  0
  1  2  1  0
  2  3  1  0
  3  4  1  0
  4  5  2  0
  5  6  1  0
  6  7  2  0
  7  8  1  0
  8  9  2  0
  9 10  1  0
 10 11  1  0
 11 12  1  0
 12 13  1  0
 10 14  2  0
 14 15  1  0
 14 16  1  0
  7 17  1  0
 17 18  2  0
 18  4  1  0
 16  8  1  0
  1 19  1  0
  1 20  1  0
  1 21  1  0
  2 22  1  0
  2 23  1  0
  5 24  1  0
  6 25  1  0
 11 26  1  0
 11 27  1  0
 12 28  1  0
 12 29  1  0
 13 30  1  0
 13 31  1  0
 13 32  1  0
 15 33  1  0
 15 34  1  0
 15 35  1  0
 17 36  1  0
 18 37  1  0
M  CHG  1  12   1
M  END
>  <Binding energies>  (1) 
[-6.11]

>  <Ligand effiencies>  (1) 
[-0.3055]

>  <Interactions>  (1) 
["V-A:GLU:543:CD:4908, H-A:GLU:543:OE2:4910, V-B:GLU:543:CB:9878, V-B:GLU:543:CG:9879, V-B:GLU:543:CD:9880, V-B:GLY:544:C:9884, V-B:GLY:544:CA:9886, V-A:HIS:456:CD2:4068, V-A:HIS:456:CE1:4070, H-B:LYS:547:NZ:9923, V-B:HIS:456:CE1:9041, V-B:GLU:543:C:9874, H-A:GLU:543:OE1:4909, V-A:GLU:543:CB:4906, V-B:TYR:484:CZ:9318, H-B:TYR:484:OH:9319, V-A:GLU:543:CG:4907"]

$$$$
RR3_Rahimova_2017
     RDKit          3D

 63 69  0  0  0  0  0  0  0  0999 V2000
  129.4960  126.8360   72.1890 C   0  0  0  0  0  0  0  0  0  0  0  0
  128.2640  126.5930   71.5920 C   0  0  0  0  0  0  0  0  0  0  0  0
  127.9940  127.1180   70.3310 C   0  0  0  0  0  0  0  0  0  0  0  0
  128.9490  127.8880   69.6520 C   0  0  0  0  0  0  0  0  0  0  0  0
  128.6570  128.4510   68.2950 C   0  0  0  0  0  0  0  0  0  0  0  0
  128.5140  127.6110   67.1830 C   0  0  0  0  0  0  0  0  0  0  0  0
  128.2460  128.1340   65.9210 C   0  0  0  0  0  0  0  0  0  0  0  0
  128.1230  129.5150   65.7420 C   0  0  0  0  0  0  0  0  0  0  0  0
  127.8410  130.0850   64.3870 C   0  0  0  0  0  0  0  0  0  0  0  0
  127.4850  131.3590   64.2630 N   0  0  0  0  0  0  0  0  0  0  0  0
  127.3490  131.5860   62.9790 C   0  0  0  0  0  0  0  0  0  0  0  0
  126.9650  132.8650   62.3870 C   0  0  0  0  0  0  0  0  0  0  0  0
  127.8270  133.7860   61.8170 C   0  0  0  0  0  0  0  0  0  0  0  0
  127.1260  134.8680   61.3530 N   0  0  0  0  0  0  0  0  0  0  0  0
  125.7820  134.6970   61.6040 C   0  0  0  0  0  0  0  0  0  0  0  0
  124.6880  135.5220   61.3190 C   0  0  0  0  0  0  0  0  0  0  0  0
  123.4300  135.0610   61.7070 C   0  0  0  0  0  0  0  0  0  0  0  0
  123.2630  133.8390   62.3500 C   0  0  0  0  0  0  0  0  0  0  0  0
  124.3520  133.0170   62.6330 C   0  0  0  0  0  0  0  0  0  0  0  0
  125.6430  133.4350   62.2620 C   0  0  0  0  0  0  0  0  0  0  0  0
  127.6090  130.4580   62.2520 N   0  0  0  0  0  0  0  0  0  0  0  0
  127.9110  129.4520   63.1340 C   0  0  0  0  0  0  0  0  0  0  0  0
  128.1930  128.0510   62.7010 C   0  0  0  0  0  0  0  0  0  0  0  0
  127.3620  127.4250   61.7710 C   0  0  0  0  0  0  0  0  0  0  0  0
  127.6140  126.1150   61.3750 C   0  0  0  0  0  0  0  0  0  0  0  0
  128.7050  125.4020   61.8940 C   0  0  0  0  0  0  0  0  0  0  0  0
  128.9620  123.9880   61.4800 C   0  0  0  0  0  0  0  0  0  0  0  0
  128.3900  123.4650   60.3100 C   0  0  0  0  0  0  0  0  0  0  0  0
  128.6340  122.1490   59.9220 C   0  0  0  0  0  0  0  0  0  0  0  0
  129.4530  121.3410   60.7040 C   0  0  0  0  0  0  0  0  0  0  0  0
  130.0310  121.8390   61.8670 C   0  0  0  0  0  0  0  0  0  0  0  0
  129.7850  123.1530   62.2520 C   0  0  0  0  0  0  0  0  0  0  0  0
  129.5420  126.0490   62.8140 C   0  0  0  0  0  0  0  0  0  0  0  0
  129.2920  127.3590   63.2130 C   0  0  0  0  0  0  0  0  0  0  0  0
  128.2520  130.3590   66.8460 C   0  0  0  0  0  0  0  0  0  0  0  0
  128.5200  129.8330   68.1070 C   0  0  0  0  0  0  0  0  0  0  0  0
  130.1840  128.1200   70.2740 C   0  0  0  0  0  0  0  0  0  0  0  0
  130.4590  127.5970   71.5350 C   0  0  0  0  0  0  0  0  0  0  0  0
  129.7106  126.4233   73.1858 H   0  0  0  0  0  0  0  0  0  0  0  0
  127.5066  125.9891   72.1132 H   0  0  0  0  0  0  0  0  0  0  0  0
  127.0181  126.9261   69.8610 H   0  0  0  0  0  0  0  0  0  0  0  0
  128.6149  126.5229   67.3088 H   0  0  0  0  0  0  0  0  0  0  0  0
  128.1305  127.4578   65.0611 H   0  0  0  0  0  0  0  0  0  0  0  0
  128.9182  133.6664   61.7466 H   0  0  0  0  0  0  0  0  0  0  0  0
  127.5730  135.6510   60.9000 H   0  0  0  0  0  0  0  0  0  0  0  0
  124.8145  136.4900   60.8121 H   0  0  0  0  0  0  0  0  0  0  0  0
  122.5456  135.6810   61.4987 H   0  0  0  0  0  0  0  0  0  0  0  0
  122.2526  133.5155   62.6405 H   0  0  0  0  0  0  0  0  0  0  0  0
  124.2039  132.0524   63.1406 H   0  0  0  0  0  0  0  0  0  0  0  0
  127.5590  130.3720   61.2460 H   0  0  0  0  0  0  0  0  0  0  0  0
  126.5042  127.9693   61.3492 H   0  0  0  0  0  0  0  0  0  0  0  0
  126.9483  125.6317   60.6447 H   0  0  0  0  0  0  0  0  0  0  0  0
  127.7408  124.1020   59.6913 H   0  0  0  0  0  0  0  0  0  0  0  0
  128.1812  121.7511   59.0019 H   0  0  0  0  0  0  0  0  0  0  0  0
  129.6448  120.3012   60.4006 H   0  0  0  0  0  0  0  0  0  0  0  0
  130.6801  121.1964   62.4799 H   0  0  0  0  0  0  0  0  0  0  0  0
  130.2415  123.5429   63.1737 H   0  0  0  0  0  0  0  0  0  0  0  0
  130.4095  125.5133   63.2268 H   0  0  0  0  0  0  0  0  0  0  0  0
  129.9623  127.8502   63.9337 H   0  0  0  0  0  0  0  0  0  0  0  0
  128.1413  131.4460   66.7192 H   0  0  0  0  0  0  0  0  0  0  0  0
  128.6256  130.5109   68.9668 H   0  0  0  0  0  0  0  0  0  0  0  0
  130.9460  128.7233   69.7589 H   0  0  0  0  0  0  0  0  0  0  0  0
  131.4326  127.7848   72.0112 H   0  0  0  0  0  0  0  0  0  0  0  0
  1  2  2  0
  2  3  1  0
  3  4  2  0
  4  5  1  0
  5  6  2  0
  6  7  1  0
  7  8  2  0
  8  9  1  0
  9 10  1  0
 10 11  2  0
 11 12  1  0
 12 13  2  0
 13 14  1  0
 14 15  1  0
 15 16  2  0
 16 17  1  0
 17 18  2  0
 18 19  1  0
 19 20  2  0
 11 21  1  0
 21 22  1  0
 22 23  1  0
 23 24  2  0
 24 25  1  0
 25 26  2  0
 26 27  1  0
 27 28  2  0
 28 29  1  0
 29 30  2  0
 30 31  1  0
 31 32  2  0
 26 33  1  0
 33 34  2  0
  8 35  1  0
 35 36  2  0
  4 37  1  0
 37 38  2  0
 38  1  1  0
 36  5  1  0
 22  9  2  0
 34 23  1  0
 20 12  1  0
 32 27  1  0
 20 15  1  0
  1 39  1  0
  2 40  1  0
  3 41  1  0
  6 42  1  0
  7 43  1  0
 13 44  1  0
 14 45  1  0
 16 46  1  0
 17 47  1  0
 18 48  1  0
 19 49  1  0
 21 50  1  0
 24 51  1  0
 25 52  1  0
 28 53  1  0
 29 54  1  0
 30 55  1  0
 31 56  1  0
 32 57  1  0
 33 58  1  0
 34 59  1  0
 35 60  1  0
 36 61  1  0
 37 62  1  0
 38 63  1  0
M  END
>  <Binding energies>  (1) 
[-9.87]

>  <Ligand effiencies>  (1) 
[-0.24674999999999997]

>  <Interactions>  (1) 
["V-B:PRO:540:N:9856, V-B:TYR:539:CD2:9846, V-A:GLU:543:CD:4908, V-B:TYR:539:CE2:9848, V-A:LEU:475:CD2:4259, V-B:PRO:540:CA:9855, V-A:TYR:539:CD1:4873, V-B:GLY:454:CA:9020, V-A:TYR:539:C:4867, V-B:ILE:369:CG2:8208, V-B:LEU:475:CD2:9230, V-A:TYR:539:CE1:4875, V-B:ILE:369:CG1:8209, V-B:GLU:543:CB:9878, V-B:GLU:543:CD:9880, V-B:ALA:541:CB:9864, V-A:GLY:544:C:4912, V-A:HIS:456:CD2:4068, V-A:HIS:456:CE1:4070, V-B:HIS:456:CE1:9041, V-B:GLU:543:C:9874, V-A:GLU:543:CB:4906, V-A:GLU:543:C:4902, V-B:TYR:484:CZ:9318, H-B:TYR:484:OH:9319, V-A:ALA:541:CB:4892, V-A:GLU:543:CG:4907, V-B:TYR:539:C:9839, V-B:SER:385:CB:8380, V-B:SER:385:CA:8378, V-B:SER:385:C:8376, V-A:GLU:543:CA:4904, H-A:TYR:539:O:4868, V-B:TYR:484:CE2:9317"]

$$$$
RR4_Rahimova_2017
     RDKit          3D

 66 70  0  0  0  0  0  0  0  0999 V2000
  128.9560  128.1580   75.0800 C   0  0  0  0  0  0  0  0  0  0  0  0
  129.4070  127.0280   74.3430 O   0  0  0  0  0  0  0  0  0  0  0  0
  129.4280  127.0880   72.9630 C   0  0  0  0  0  0  0  0  0  0  0  0
  128.2540  126.7300   72.3030 C   0  0  0  0  0  0  0  0  0  0  0  0
  128.1830  126.7610   70.9140 C   0  0  0  0  0  0  0  0  0  0  0  0
  129.2870  127.1500   70.1410 C   0  0  0  0  0  0  0  0  0  0  0  0
  129.2060  127.1810   68.6410 C   0  0  0  0  0  0  0  0  0  0  0  0
  129.8210  126.2230   67.8290 C   0  0  0  0  0  0  0  0  0  0  0  0
  129.7130  126.2940   66.4340 C   0  0  0  0  0  0  0  0  0  0  0  0
  130.3720  125.2190   65.6330 C   0  0  0  0  0  0  0  0  0  0  0  0
  131.6000  125.4600   65.0110 C   0  0  0  0  0  0  0  0  0  0  0  0
  132.2270  124.4600   64.2720 C   0  0  0  0  0  0  0  0  0  0  0  0
  131.6430  123.2000   64.1460 C   0  0  0  0  0  0  0  0  0  0  0  0
  132.3370  122.2710   63.3950 O   0  0  0  0  0  0  0  0  0  0  0  0
  133.4510  122.6990   62.6180 C   0  0  0  0  0  0  0  0  0  0  0  0
  130.4130  122.9520   64.7730 C   0  0  0  0  0  0  0  0  0  0  0  0
  129.7880  123.9530   65.5120 C   0  0  0  0  0  0  0  0  0  0  0  0
  128.9920  127.3730   65.8670 C   0  0  0  0  0  0  0  0  0  0  0  0
  128.8480  127.4950   64.4130 C   0  0  0  0  0  0  0  0  0  0  0  0
  128.7340  127.5910   63.2660 N   0  0  0  0  0  0  0  0  0  0  0  0
  128.4220  128.3220   66.7460 C   0  0  0  0  0  0  0  0  0  0  0  0
  127.4960  129.7460   66.2110 S   0  0  0  0  0  0  0  0  0  0  0  0
  125.7450  129.2520   66.0760 C   0  0  0  0  0  0  0  0  0  0  0  0
  125.0980  129.5640   64.7200 C   0  0  0  0  0  0  0  0  0  0  0  0
  123.8970  129.8360   64.6470 O   0  0  0  0  0  0  0  0  0  0  0  0
  125.9390  129.4980   63.6620 N   0  0  0  0  0  0  0  0  0  0  0  0
  125.6580  129.7280   62.3130 C   0  0  0  0  0  0  0  0  0  0  0  0
  126.0770  128.6000   61.0510 S   0  0  0  0  0  0  0  0  0  0  0  0
  125.4100  129.6360   59.8270 C   0  0  0  0  0  0  0  0  0  0  0  0
  124.8860  130.8150   60.3780 C   0  0  0  0  0  0  0  0  0  0  0  0
  125.0130  130.8580   61.7880 C   0  0  0  0  0  0  0  0  0  0  0  0
  124.5310  131.9670   62.6050 C   0  0  0  0  0  0  0  0  0  0  0  0
  124.1490  132.8470   63.2520 N   0  0  0  0  0  0  0  0  0  0  0  0
  124.2060  131.8760   59.5050 C   0  0  0  0  0  0  0  0  0  0  0  0
  123.8440  131.2920   58.1200 C   0  0  0  0  0  0  0  0  0  0  0  0
  125.0040  130.4860   57.5090 C   0  0  0  0  0  0  0  0  0  0  0  0
  125.3550  129.2450   58.3560 C   0  0  0  0  0  0  0  0  0  0  0  0
  128.5140  128.2120   68.0920 N   0  0  0  0  0  0  0  0  0  0  0  0
  130.4640  127.5130   70.8150 C   0  0  0  0  0  0  0  0  0  0  0  0
  130.5390  127.4820   72.2040 C   0  0  0  0  0  0  0  0  0  0  0  0
  129.0389  127.9502   76.1570 H   0  0  0  0  0  0  0  0  0  0  0  0
  129.5743  129.0317   74.8265 H   0  0  0  0  0  0  0  0  0  0  0  0
  127.9060  128.3659   74.8265 H   0  0  0  0  0  0  0  0  0  0  0  0
  127.3745  126.4197   72.8863 H   0  0  0  0  0  0  0  0  0  0  0  0
  127.2458  126.4758   70.4137 H   0  0  0  0  0  0  0  0  0  0  0  0
  130.3951  125.4058   68.2900 H   0  0  0  0  0  0  0  0  0  0  0  0
  132.0751  126.4475   65.1059 H   0  0  0  0  0  0  0  0  0  0  0  0
  133.1909  124.6657   63.7836 H   0  0  0  0  0  0  0  0  0  0  0  0
  134.2661  123.0121   63.2870 H   0  0  0  0  0  0  0  0  0  0  0  0
  133.7958  121.8693   61.9834 H   0  0  0  0  0  0  0  0  0  0  0  0
  133.1516  123.5461   61.9834 H   0  0  0  0  0  0  0  0  0  0  0  0
  129.9404  121.9630   64.6805 H   0  0  0  0  0  0  0  0  0  0  0  0
  128.8266  123.7468   66.0051 H   0  0  0  0  0  0  0  0  0  0  0  0
  125.6801  128.1672   66.2460 H   0  0  0  0  0  0  0  0  0  0  0  0
  125.1958  129.8390   66.8269 H   0  0  0  0  0  0  0  0  0  0  0  0
  126.9000  129.2640   63.8630 H   0  0  0  0  0  0  0  0  0  0  0  0
  123.2876  132.2197   60.0035 H   0  0  0  0  0  0  0  0  0  0  0  0
  124.9007  132.7172   59.3642 H   0  0  0  0  0  0  0  0  0  0  0  0
  122.9724  130.6302   58.2312 H   0  0  0  0  0  0  0  0  0  0  0  0
  123.6241  132.1326   57.4455 H   0  0  0  0  0  0  0  0  0  0  0  0
  124.7150  130.1570   56.4999 H   0  0  0  0  0  0  0  0  0  0  0  0
  125.8901  131.1370   57.4769 H   0  0  0  0  0  0  0  0  0  0  0  0
  124.5864  128.4717   58.2102 H   0  0  0  0  0  0  0  0  0  0  0  0
  126.3335  128.8514   58.0434 H   0  0  0  0  0  0  0  0  0  0  0  0
  131.3434  127.8278   70.2340 H   0  0  0  0  0  0  0  0  0  0  0  0
  131.4737  127.7678   72.7086 H   0  0  0  0  0  0  0  0  0  0  0  0
  1  2  1  0
  2  3  1  0
  3  4  2  0
  4  5  1  0
  5  6  2  0
  6  7  1  0
  7  8  2  0
  8  9  1  0
  9 10  1  0
 10 11  2  0
 11 12  1  0
 12 13  2  0
 13 14  1  0
 14 15  1  0
 13 16  1  0
 16 17  2  0
  9 18  2  0
 18 19  1  0
 19 20  3  0
 18 21  1  0
 21 22  1  0
 22 23  1  0
 23 24  1  0
 24 25  2  0
 24 26  1  0
 26 27  1  0
 27 28  1  0
 28 29  1  0
 29 30  2  0
 30 31  1  0
 31 32  1  0
 32 33  3  0
 30 34  1  0
 34 35  1  0
 35 36  1  0
 36 37  1  0
 21 38  2  0
  6 39  1  0
 39 40  2  0
 40  3  1  0
 38  7  1  0
 17 10  1  0
 31 27  2  0
 37 29  1  0
  1 41  1  0
  1 42  1  0
  1 43  1  0
  4 44  1  0
  5 45  1  0
  8 46  1  0
 11 47  1  0
 12 48  1  0
 15 49  1  0
 15 50  1  0
 15 51  1  0
 16 52  1  0
 17 53  1  0
 23 54  1  0
 23 55  1  0
 26 56  1  0
 34 57  1  0
 34 58  1  0
 35 59  1  0
 35 60  1  0
 36 61  1  0
 36 62  1  0
 37 63  1  0
 37 64  1  0
 39 65  1  0
 40 66  1  0
M  END
>  <Binding energies>  (1) 
[-9.77]

>  <Ligand effiencies>  (1) 
[-0.23829268292682926]

>  <Interactions>  (1) 
["V-B:ASP:366:CB:8183, V-B:TYR:531:CZ:9766, V-A:GLU:543:CD:4908, V-B:ASP:366:CG:8184, H-A:TYR:484:OH:4348, V-A:LEU:475:CD2:4259, V-B:ILE:369:CB:8207, V-B:ILE:369:CG2:8208, H-B:ARG:545:NH1:9899, V-A:TYR:539:CE1:4875, V-B:ASP:366:CA:8181, H-B:GLY:454:N:9021, H-B:ARG:545:NH2:9900, V-A:GLY:454:CA:4049, V-A:TYR:484:CZ:4347, V-B:GLU:543:CB:9878, V-B:GLU:543:CG:9879, V-A:TYR:484:CE2:4346, V-B:GLU:543:CD:9880, V-A:GLY:544:C:4912, V-A:HIS:456:CD2:4068, V-A:HIS:456:CE1:4070, H-B:LYS:547:NZ:9923, V-B:HIS:456:CE1:9041, V-B:GLU:543:C:9874, V-A:GLU:543:CB:4906, V-B:TYR:484:CZ:9318, V-B:ARG:545:CZ:9898, H-B:TYR:484:OH:9319, V-A:GLU:543:CG:4907, H-B:ARG:545:NE:9896, V-A:TYR:539:CZ:4877, V-B:ASP:366:C:8179, H-B:GLU:543:OE2:9882"]

$$$$
RR5_Rahimova_2017
     RDKit          3D

 77 82  0  0  0  0  0  0  0  0999 V2000
  128.6000  122.6920   58.5080 O   0  0  0  0  0  0  0  0  0  0  0  0
  127.9900  123.0950   59.4970 C   0  0  0  0  0  0  0  0  0  0  0  0
  126.4610  123.2720   59.4320 C   0  0  0  0  0  0  0  0  0  0  0  0
  125.8690  124.1440   60.5970 C   0  0  2  0  0  0  0  0  0  0  0  0
  126.6940  125.3040   60.9880 N   0  0  0  0  0  0  0  0  0  0  0  0
  127.1540  126.2190   60.0510 C   0  0  0  0  0  0  0  0  0  0  0  0
  126.9130  126.2180   58.8410 O   0  0  0  0  0  0  0  0  0  0  0  0
  127.9320  127.1160   60.6810 O   0  0  0  0  0  0  0  0  0  0  0  0
  127.5400  128.4810   60.8070 C   0  0  0  0  0  0  0  0  0  0  0  0
  126.0040  128.6030   60.9190 C   0  0  0  0  0  0  0  0  0  0  0  0
  125.5380  129.2620   62.2040 C   0  0  0  0  0  0  0  0  0  0  0  0
  125.7720  128.8900   63.5310 C   0  0  0  0  0  0  0  0  0  0  0  0
  125.2580  129.6650   64.5720 C   0  0  0  0  0  0  0  0  0  0  0  0
  124.5110  130.8100   64.2900 C   0  0  0  0  0  0  0  0  0  0  0  0
  124.2730  131.1830   62.9660 C   0  0  0  0  0  0  0  0  0  0  0  0
  124.7870  130.4050   61.9260 C   0  0  0  0  0  0  0  0  0  0  0  0
  124.6870  130.5530   60.4660 C   0  0  0  0  0  0  0  0  0  0  0  0
  124.0410  131.5120   59.6810 C   0  0  0  0  0  0  0  0  0  0  0  0
  124.0830  131.4070   58.2900 C   0  0  0  0  0  0  0  0  0  0  0  0
  124.7700  130.3510   57.6870 C   0  0  0  0  0  0  0  0  0  0  0  0
  125.4170  129.3980   58.4750 C   0  0  0  0  0  0  0  0  0  0  0  0
  125.3800  129.5010   59.8670 C   0  0  0  0  0  0  0  0  0  0  0  0
  125.5740  123.2700   61.8410 C   0  0  0  0  0  0  0  0  0  0  0  0
  124.5150  122.7190   62.0650 O   0  0  0  0  0  0  0  0  0  0  0  0
  126.6870  123.2030   62.6290 O   0  0  0  0  0  0  0  0  0  0  0  0
  128.5580  123.3770   60.6910 N   0  0  0  0  0  0  0  0  0  0  0  0
  129.9650  123.3430   61.1930 C   0  0  0  0  0  0  0  0  0  0  0  0
  130.2810  121.8100   61.1780 C   0  0  0  0  0  0  0  0  0  0  0  0
  131.4770  121.3130   60.6330 C   0  0  0  0  0  0  0  0  0  0  0  0
  131.7480  119.9470   60.6270 C   0  0  0  0  0  0  0  0  0  0  0  0
  130.8220  119.0540   61.1560 C   0  0  0  0  0  0  0  0  0  0  0  0
  129.6310  119.5180   61.7020 C   0  0  0  0  0  0  0  0  0  0  0  0
  129.3660  120.8840   61.7180 C   0  0  0  0  0  0  0  0  0  0  0  0
  130.8430  124.1490   60.1780 C   0  0  0  0  0  0  0  0  0  0  0  0
  130.2680  124.9440   59.1740 C   0  0  0  0  0  0  0  0  0  0  0  0
  131.0680  125.6370   58.2680 C   0  0  0  0  0  0  0  0  0  0  0  0
  132.4530  125.5410   58.3540 C   0  0  0  0  0  0  0  0  0  0  0  0
  133.0460  124.7620   59.3420 C   0  0  0  0  0  0  0  0  0  0  0  0
  132.2450  124.0780   60.2510 C   0  0  0  0  0  0  0  0  0  0  0  0
  129.9240  123.9420   62.6400 C   0  0  0  0  0  0  0  0  0  0  0  0
  129.6570  125.3070   62.8510 C   0  0  0  0  0  0  0  0  0  0  0  0
  129.6280  125.8470   64.1340 C   0  0  0  0  0  0  0  0  0  0  0  0
  129.8600  125.0270   65.2320 C   0  0  0  0  0  0  0  0  0  0  0  0
  130.1130  123.6720   65.0570 C   0  0  0  0  0  0  0  0  0  0  0  0
  130.1410  123.1360   63.7720 C   0  0  0  0  0  0  0  0  0  0  0  0
  126.2089  123.7545   58.4762 H   0  0  0  0  0  0  0  0  0  0  0  0
  126.0199  122.2690   59.5292 H   0  0  0  0  0  0  0  0  0  0  0  0
  124.9368  124.5613   60.1885 H   0  0  0  0  0  0  0  0  0  0  0  0
  127.0670  125.3310   61.9260 H   0  0  0  0  0  0  0  0  0  0  0  0
  128.0023  128.9070   61.7096 H   0  0  0  0  0  0  0  0  0  0  0  0
  127.8726  129.0272   59.9120 H   0  0  0  0  0  0  0  0  0  0  0  0
  125.6974  127.5504   60.8290 H   0  0  0  0  0  0  0  0  0  0  0  0
  126.3603  127.9878   63.7546 H   0  0  0  0  0  0  0  0  0  0  0  0
  125.4419  129.3729   65.6164 H   0  0  0  0  0  0  0  0  0  0  0  0
  124.1091  131.4196   65.1127 H   0  0  0  0  0  0  0  0  0  0  0  0
  123.6839  132.0847   62.7429 H   0  0  0  0  0  0  0  0  0  0  0  0
  123.5025  132.3448   60.1568 H   0  0  0  0  0  0  0  0  0  0  0  0
  123.5740  132.1574   57.6673 H   0  0  0  0  0  0  0  0  0  0  0  0
  124.8011  130.2704   56.5904 H   0  0  0  0  0  0  0  0  0  0  0  0
  125.9562  128.5655   57.9994 H   0  0  0  0  0  0  0  0  0  0  0  0
  126.7630  123.9580   63.2160 H   0  0  0  0  0  0  0  0  0  0  0  0
  127.9250  123.7890   61.3610 H   0  0  0  0  0  0  0  0  0  0  0  0
  132.2097  122.0129   60.2050 H   0  0  0  0  0  0  0  0  0  0  0  0
  132.6930  119.5748   60.2045 H   0  0  0  0  0  0  0  0  0  0  0  0
  131.0334  117.9746   61.1422 H   0  0  0  0  0  0  0  0  0  0  0  0
  128.9013  118.8087   62.1195 H   0  0  0  0  0  0  0  0  0  0  0  0
  128.4263  121.2473   62.1597 H   0  0  0  0  0  0  0  0  0  0  0  0
  129.1731  125.0207   59.1018 H   0  0  0  0  0  0  0  0  0  0  0  0
  130.6057  126.2583   57.4869 H   0  0  0  0  0  0  0  0  0  0  0  0
  133.0838  126.0850   57.6355 H   0  0  0  0  0  0  0  0  0  0  0  0
  134.1417  124.6872   59.4043 H   0  0  0  0  0  0  0  0  0  0  0  0
  132.7162  123.4722   61.0391 H   0  0  0  0  0  0  0  0  0  0  0  0
  129.4676  125.9599   61.9862 H   0  0  0  0  0  0  0  0  0  0  0  0
  129.4224  126.9180   64.2780 H   0  0  0  0  0  0  0  0  0  0  0  0
  129.8432  125.4534   66.2459 H   0  0  0  0  0  0  0  0  0  0  0  0
  130.2903  123.0258   65.9293 H   0  0  0  0  0  0  0  0  0  0  0  0
  130.3366  122.0616   63.6398 H   0  0  0  0  0  0  0  0  0  0  0  0
  1  2  2  0
  2  3  1  0
  3  4  1  0
  4  5  1  0
  5  6  1  0
  6  7  2  0
  6  8  1  0
  8  9  1  0
  9 10  1  0
 10 11  1  0
 11 12  2  0
 12 13  1  0
 13 14  2  0
 14 15  1  0
 15 16  2  0
 16 17  1  0
 17 18  2  0
 18 19  1  0
 19 20  2  0
 20 21  1  0
 21 22  2  0
  4 23  1  0
 23 24  2  0
 23 25  1  0
  2 26  1  0
 26 27  1  0
 27 28  1  0
 28 29  2  0
 29 30  1  0
 30 31  2  0
 31 32  1  0
 32 33  2  0
 27 34  1  0
 34 35  2  0
 35 36  1  0
 36 37  2  0
 37 38  1  0
 38 39  2  0
 27 40  1  0
 40 41  2  0
 41 42  1  0
 42 43  2  0
 43 44  1  0
 44 45  2  0
 22 10  1  0
 33 28  1  0
 39 34  1  0
 45 40  1  0
 16 11  1  0
 22 17  1  0
  3 46  1  0
  3 47  1  0
  4 48  1  6
  5 49  1  0
  9 50  1  0
  9 51  1  0
 10 52  1  0
 12 53  1  0
 13 54  1  0
 14 55  1  0
 15 56  1  0
 18 57  1  0
 19 58  1  0
 20 59  1  0
 21 60  1  0
 25 61  1  0
 26 62  1  0
 29 63  1  0
 30 64  1  0
 31 65  1  0
 32 66  1  0
 33 67  1  0
 35 68  1  0
 36 69  1  0
 37 70  1  0
 38 71  1  0
 39 72  1  0
 41 73  1  0
 42 74  1  0
 43 75  1  0
 44 76  1  0
 45 77  1  0
M  END
>  <Binding energies>  (1) 
[-10.42]

>  <Ligand effiencies>  (1) 
[-0.21708333333333332]

>  <Interactions>  (1) 
["V-B:PRO:540:N:9856, V-B:ASP:366:CB:8183, V-B:TYR:539:CD2:9846, V-B:TYR:531:CZ:9766, V-B:ASP:366:CG:8184, V-B:PRO:540:CB:9857, V-B:TYR:539:CE2:9848, V-B:TYR:539:CZ:9849, V-A:LEU:475:CD2:4259, V-B:PRO:540:CA:9855, V-A:ASP:366:CB:3212, V-B:ILE:369:CB:8207, V-B:GLY:454:CA:9020, V-B:ILE:369:CG2:8208, V-A:TYR:539:CE1:4875, H-B:ALA:541:N:9863, V-A:ASP:366:CG:3213, V-A:TYR:484:CZ:4347, V-B:GLU:543:CB:9878, V-B:GLU:543:CG:9879, V-A:TYR:484:CE2:4346, V-B:GLU:543:CD:9880, H-B:GLU:543:OE1:9881, V-B:ALA:541:CB:9864, V-A:ASP:366:CA:3210, V-B:ARG:545:CZ:9898, V-B:PRO:540:C:9853, V-B:TYR:539:C:9839, V-B:ALA:541:CA:9862, V-A:LEU:475:CG:4257, V-A:TYR:539:CZ:4877, H-B:GLU:543:OE2:9882"]

$$$$
RR5_Rahimova_2017-again1
     RDKit          3D

 76 81  0  0  0  0  0  0  0  0999 V2000
  129.4350  125.7090   60.6870 O   0  0  0  0  0  0  0  0  0  0  0  0
  128.7830  124.7040   60.4050 C   0  0  0  0  0  0  0  0  0  0  0  0
  127.4730  124.8680   59.6070 C   0  0  0  0  0  0  0  0  0  0  0  0
  126.1700  125.1090   60.4380 C   0  0  2  0  0  0  0  0  0  0  0  0
  126.2920  126.3890   61.1670 N   0  0  0  0  0  0  0  0  0  0  0  0
  126.5220  127.5890   60.5030 C   0  0  0  0  0  0  0  0  0  0  0  0
  126.6710  127.7380   59.2860 O   0  0  0  0  0  0  0  0  0  0  0  0
  126.5580  128.5840   61.4090 O   0  0  0  0  0  0  0  0  0  0  0  0
  126.3690  128.3190   62.7940 C   0  0  0  0  0  0  0  0  0  0  0  0
  126.1370  129.6360   63.5590 C   0  0  0  0  0  0  0  0  0  0  0  0
  127.2440  130.6560   63.3600 C   0  0  0  0  0  0  0  0  0  0  0  0
  128.6070  130.5600   63.6520 C   0  0  0  0  0  0  0  0  0  0  0  0
  129.4580  131.6310   63.3680 C   0  0  0  0  0  0  0  0  0  0  0  0
  128.9480  132.7980   62.7970 C   0  0  0  0  0  0  0  0  0  0  0  0
  127.5860  132.9000   62.5090 C   0  0  0  0  0  0  0  0  0  0  0  0
  126.7380  131.8270   62.7930 C   0  0  0  0  0  0  0  0  0  0  0  0
  125.2870  131.6660   62.6090 C   0  0  0  0  0  0  0  0  0  0  0  0
  124.3240  132.5370   62.0970 C   0  0  0  0  0  0  0  0  0  0  0  0
  122.9880  132.1360   62.0450 C   0  0  0  0  0  0  0  0  0  0  0  0
  122.6180  130.8690   62.5010 C   0  0  0  0  0  0  0  0  0  0  0  0
  123.5840  129.9990   63.0110 C   0  0  0  0  0  0  0  0  0  0  0  0
  124.9240  130.3970   63.0620 C   0  0  0  0  0  0  0  0  0  0  0  0
  125.8560  123.9040   61.4130 C   0  0  0  0  0  0  0  0  0  0  0  0
  124.7150  123.9400   61.9280 O   0  0  0  0  0  0  0  0  0  0  0  0
  126.7480  123.0310   61.5390 O   0  0  0  0  0  0  0  0  0  0  0  0
  129.2230  123.4520   60.6530 N   0  0  0  0  0  0  0  0  0  0  0  0
  130.4410  123.0020   61.3740 C   0  0  0  0  0  0  0  0  0  0  0  0
  130.5950  121.4530   61.2530 C   0  0  0  0  0  0  0  0  0  0  0  0
  131.7320  120.8840   60.6530 C   0  0  0  0  0  0  0  0  0  0  0  0
  131.8770  119.5030   60.5550 C   0  0  0  0  0  0  0  0  0  0  0  0
  130.8870  118.6690   61.0630 C   0  0  0  0  0  0  0  0  0  0  0  0
  129.7530  119.2050   61.6660 C   0  0  0  0  0  0  0  0  0  0  0  0
  129.6090  120.5870   61.7610 C   0  0  0  0  0  0  0  0  0  0  0  0
  131.7900  123.5500   60.8070 C   0  0  0  0  0  0  0  0  0  0  0  0
  132.9720  123.4810   61.5650 C   0  0  0  0  0  0  0  0  0  0  0  0
  134.1760  123.9690   61.0640 C   0  0  0  0  0  0  0  0  0  0  0  0
  134.2150  124.5300   59.7910 C   0  0  0  0  0  0  0  0  0  0  0  0
  133.0610  124.6010   59.0170 C   0  0  0  0  0  0  0  0  0  0  0  0
  131.8600  124.1120   59.5210 C   0  0  0  0  0  0  0  0  0  0  0  0
  130.1810  123.4170   62.8630 C   0  0  0  0  0  0  0  0  0  0  0  0
  129.6620  122.5100   63.8030 C   0  0  0  0  0  0  0  0  0  0  0  0
  129.4540  122.8890   65.1260 C   0  0  0  0  0  0  0  0  0  0  0  0
  129.7770  124.1790   65.5340 C   0  0  0  0  0  0  0  0  0  0  0  0
  130.3130  125.0890   64.6300 C   0  0  0  0  0  0  0  0  0  0  0  0
  130.5190  124.7080   63.3070 C   0  0  0  0  0  0  0  0  0  0  0  0
  127.6001  125.7257   58.9301 H   0  0  0  0  0  0  0  0  0  0  0  0
  127.3194  123.9030   59.1018 H   0  0  0  0  0  0  0  0  0  0  0  0
  125.3151  125.1686   59.7484 H   0  0  0  0  0  0  0  0  0  0  0  0
  126.1380  126.3940   62.1650 H   0  0  0  0  0  0  0  0  0  0  0  0
  125.4943  127.6646   62.9230 H   0  0  0  0  0  0  0  0  0  0  0  0
  127.2681  127.8256   63.1918 H   0  0  0  0  0  0  0  0  0  0  0  0
  126.0506  129.2887   64.5992 H   0  0  0  0  0  0  0  0  0  0  0  0
  129.0096  129.6421   64.1051 H   0  0  0  0  0  0  0  0  0  0  0  0
  130.5316  131.5544   63.5948 H   0  0  0  0  0  0  0  0  0  0  0  0
  129.6208  133.6391   62.5735 H   0  0  0  0  0  0  0  0  0  0  0  0
  127.1828  133.8201   62.0609 H   0  0  0  0  0  0  0  0  0  0  0  0
  124.6164  133.5342   61.7364 H   0  0  0  0  0  0  0  0  0  0  0  0
  122.2250  132.8194   61.6440 H   0  0  0  0  0  0  0  0  0  0  0  0
  121.5644  130.5559   62.4584 H   0  0  0  0  0  0  0  0  0  0  0  0
  123.2915  129.0020   63.3722 H   0  0  0  0  0  0  0  0  0  0  0  0
  128.5780  122.7060   60.4360 H   0  0  0  0  0  0  0  0  0  0  0  0
  132.5196  121.5405   60.2546 H   0  0  0  0  0  0  0  0  0  0  0  0
  132.7704  119.0735   60.0780 H   0  0  0  0  0  0  0  0  0  0  0  0
  131.0010  117.5775   60.9877 H   0  0  0  0  0  0  0  0  0  0  0  0
  128.9736  118.5398   62.0660 H   0  0  0  0  0  0  0  0  0  0  0  0
  128.7122  121.0073   62.2397 H   0  0  0  0  0  0  0  0  0  0  0  0
  132.9452  123.0344   62.5699 H   0  0  0  0  0  0  0  0  0  0  0  0
  135.0914  123.9114   61.6712 H   0  0  0  0  0  0  0  0  0  0  0  0
  135.1641  124.9197   59.3943 H   0  0  0  0  0  0  0  0  0  0  0  0
  133.0981  125.0422   58.0101 H   0  0  0  0  0  0  0  0  0  0  0  0
  130.9514  124.1661   58.9034 H   0  0  0  0  0  0  0  0  0  0  0  0
  129.4165  121.4850   63.4882 H   0  0  0  0  0  0  0  0  0  0  0  0
  129.0356  122.1708   65.8465 H   0  0  0  0  0  0  0  0  0  0  0  0
  129.6073  124.4808   66.5781 H   0  0  0  0  0  0  0  0  0  0  0  0
  130.5733  126.1059   64.9588 H   0  0  0  0  0  0  0  0  0  0  0  0
  130.9530  125.4280   62.5976 H   0  0  0  0  0  0  0  0  0  0  0  0
  1  2  2  0
  2  3  1  0
  3  4  1  0
  4  5  1  0
  5  6  1  0
  6  7  2  0
  6  8  1  0
  8  9  1  0
  9 10  1  0
 10 11  1  0
 11 12  2  0
 12 13  1  0
 13 14  2  0
 14 15  1  0
 15 16  2  0
 16 17  1  0
 17 18  2  0
 18 19  1  0
 19 20  2  0
 20 21  1  0
 21 22  2  0
  4 23  1  0
 23 24  2  0
 23 25  1  0
  2 26  1  0
 26 27  1  0
 27 28  1  0
 28 29  2  0
 29 30  1  0
 30 31  2  0
 31 32  1  0
 32 33  2  0
 27 34  1  0
 34 35  2  0
 35 36  1  0
 36 37  2  0
 37 38  1  0
 38 39  2  0
 27 40  1  0
 40 41  2  0
 41 42  1  0
 42 43  2  0
 43 44  1  0
 44 45  2  0
 22 10  1  0
 33 28  1  0
 39 34  1  0
 45 40  1  0
 16 11  1  0
 22 17  1  0
  3 46  1  0
  3 47  1  0
  4 48  1  6
  5 49  1  0
  9 50  1  0
  9 51  1  0
 10 52  1  0
 12 53  1  0
 13 54  1  0
 14 55  1  0
 15 56  1  0
 18 57  1  0
 19 58  1  0
 20 59  1  0
 21 60  1  0
 26 61  1  0
 29 62  1  0
 30 63  1  0
 31 64  1  0
 32 65  1  0
 33 66  1  0
 35 67  1  0
 36 68  1  0
 37 69  1  0
 38 70  1  0
 39 71  1  0
 41 72  1  0
 42 73  1  0
 43 74  1  0
 44 75  1  0
 45 76  1  0
M  CHG  1  25  -1
M  END
>  <Binding energies>  (1) 
[-8.45]

>  <Ligand effiencies>  (1) 
[-0.17978723404255317]

>  <Interactions>  (1) 
["V-B:TYR:539:CD2:9846, V-A:GLU:543:CD:4908, H-B:ASP:366:OD1:8185, V-B:ASP:366:CG:8184, V-B:PRO:540:CB:9857, V-B:TYR:539:CE2:9848, V-B:TYR:539:CZ:9849, V-A:LEU:475:CD2:4259, V-B:PRO:540:CA:9855, V-A:ASP:366:CB:3212, V-B:ILE:369:CB:8207, V-B:GLY:454:CA:9020, V-B:GLY:453:C:9013, V-B:ILE:369:CG2:8208, V-B:GLY:453:CA:9015, V-B:LEU:475:CD2:9230, V-B:ILE:369:CG1:8209, H-B:ARG:545:NH2:9900, V-A:ILE:369:CD1:3239, H-B:ALA:541:N:9863, V-A:ASP:366:CG:3213, V-A:ILE:369:CG2:3237, V-A:ILE:369:CB:3236, V-B:GLU:543:CB:9878, V-B:GLU:543:CG:9879, V-A:TYR:484:CE2:4346, V-B:GLU:543:CD:9880, H-B:GLU:543:OE1:9881, V-B:ALA:541:CB:9864, V-A:ASP:366:CA:3210, V-B:ARG:545:CZ:9898, V-A:ALA:541:CB:4892, V-A:GLU:543:CG:4907, V-B:PRO:540:C:9853, V-B:TYR:539:C:9839, V-A:LEU:475:CD1:4258, V-A:SER:385:CB:3409, V-A:ALA:541:CA:4890, H-B:GLU:543:OE2:9882, H-B:TYR:539:O:9840"]

$$$$
RR6_Rahimova_2017
     RDKit          3D

 63 66  0  0  0  0  0  0  0  0999 V2000
  132.1830  118.0200   58.4240 C   0  0  0  0  0  0  0  0  0  0  0  0
  131.0160  117.9410   59.2310 O   0  0  0  0  0  0  0  0  0  0  0  0
  131.0750  118.1640   60.5690 C   0  0  0  0  0  0  0  0  0  0  0  0
  131.0940  117.2590   61.4090 O   0  0  0  0  0  0  0  0  0  0  0  0
  131.1170  119.6220   60.9270 C   0  0  0  0  0  0  0  0  0  0  0  0
  132.2830  120.3880   60.7900 C   0  0  0  0  0  0  0  0  0  0  0  0
  132.2920  121.7370   61.1370 C   0  0  0  0  0  0  0  0  0  0  0  0
  131.1280  122.3430   61.6340 C   0  0  0  0  0  0  0  0  0  0  0  0
  131.0340  123.6870   62.0410 N   0  0  0  0  0  0  0  0  0  0  0  0
  131.6810  124.3260   63.0410 C   0  0  0  0  0  0  0  0  0  0  0  0
  132.5110  123.8170   63.7930 O   0  0  0  0  0  0  0  0  0  0  0  0
  131.2760  125.7870   63.2620 C   0  0  0  0  0  0  0  0  0  0  0  0
  129.5120  126.1170   62.9390 S   0  0  0  0  0  0  0  0  0  0  0  0
  128.9280  127.1410   64.2740 C   0  0  0  0  0  0  0  0  0  0  0  0
  128.2310  128.2320   63.8760 N   0  0  0  0  0  0  0  0  0  0  0  0
  127.7090  129.0730   64.8040 C   0  0  0  0  0  0  0  0  0  0  0  0
  126.8990  130.2230   64.2820 C   0  0  0  0  0  0  0  0  0  0  0  0
  127.5150  131.4230   63.8930 C   0  0  0  0  0  0  0  0  0  0  0  0
  126.7630  132.4950   63.4200 C   0  0  0  0  0  0  0  0  0  0  0  0
  125.3760  132.3840   63.3240 C   0  0  0  0  0  0  0  0  0  0  0  0
  124.5580  133.5590   62.8170 C   0  0  0  0  0  0  0  0  0  0  0  0
  124.7460  131.2020   63.7030 C   0  0  0  0  0  0  0  0  0  0  0  0
  125.5030  130.1340   64.1730 C   0  0  0  0  0  0  0  0  0  0  0  0
  127.8940  128.8340   66.1700 C   0  0  0  0  0  0  0  0  0  0  0  0
  128.6160  127.7140   66.6070 C   0  0  0  0  0  0  0  0  0  0  0  0
  128.7590  127.5100   68.0790 C   0  0  0  0  0  0  0  0  0  0  0  0
  129.9950  127.7130   68.7000 C   0  0  0  0  0  0  0  0  0  0  0  0
  130.1340  127.5400   70.0750 C   0  0  0  0  0  0  0  0  0  0  0  0
  129.0410  127.1670   70.8550 C   0  0  0  0  0  0  0  0  0  0  0  0
  129.2710  127.0210   72.2090 O   0  0  0  0  0  0  0  0  0  0  0  0
  130.5520  127.3530   72.7350 C   0  0  0  0  0  0  0  0  0  0  0  0
  127.7970  126.9670   70.2380 C   0  0  0  0  0  0  0  0  0  0  0  0
  127.6610  127.1410   68.8630 C   0  0  0  0  0  0  0  0  0  0  0  0
  129.1570  126.8400   65.6320 C   0  0  0  0  0  0  0  0  0  0  0  0
  129.9460  125.6660   66.0200 C   0  0  0  0  0  0  0  0  0  0  0  0
  130.5670  124.7390   66.3260 N   0  0  0  0  0  0  0  0  0  0  0  0
  129.9610  121.5880   61.7560 C   0  0  0  0  0  0  0  0  0  0  0  0
  129.9560  120.2390   61.4110 C   0  0  0  0  0  0  0  0  0  0  0  0
  133.0717  118.0802   59.0694 H   0  0  0  0  0  0  0  0  0  0  0  0
  132.2510  117.1244   57.7890 H   0  0  0  0  0  0  0  0  0  0  0  0
  132.1297  118.9166   57.7890 H   0  0  0  0  0  0  0  0  0  0  0  0
  133.2003  119.9190   60.4045 H   0  0  0  0  0  0  0  0  0  0  0  0
  133.2126  122.3279   61.0213 H   0  0  0  0  0  0  0  0  0  0  0  0
  130.3180  124.2160   61.5660 H   0  0  0  0  0  0  0  0  0  0  0  0
  131.4932  126.0531   64.3070 H   0  0  0  0  0  0  0  0  0  0  0  0
  131.8520  126.3916   62.5459 H   0  0  0  0  0  0  0  0  0  0  0  0
  128.6087  131.5178   63.9630 H   0  0  0  0  0  0  0  0  0  0  0  0
  127.2624  133.4288   63.1222 H   0  0  0  0  0  0  0  0  0  0  0  0
  124.1627  134.1268   63.6722 H   0  0  0  0  0  0  0  0  0  0  0  0
  125.1965  134.2138   62.2058 H   0  0  0  0  0  0  0  0  0  0  0  0
  123.7223  133.1874   62.2058 H   0  0  0  0  0  0  0  0  0  0  0  0
  123.6520  131.1128   63.6310 H   0  0  0  0  0  0  0  0  0  0  0  0
  124.9975  129.2016   64.4649 H   0  0  0  0  0  0  0  0  0  0  0  0
  127.4694  129.5307   66.9077 H   0  0  0  0  0  0  0  0  0  0  0  0
  130.8653  128.0120   68.0974 H   0  0  0  0  0  0  0  0  0  0  0  0
  131.1139  127.6990   70.5489 H   0  0  0  0  0  0  0  0  0  0  0  0
  130.5110  127.3424   73.8342 H   0  0  0  0  0  0  0  0  0  0  0  0
  131.2926  126.6171   72.3886 H   0  0  0  0  0  0  0  0  0  0  0  0
  130.8419  128.3560   72.3886 H   0  0  0  0  0  0  0  0  0  0  0  0
  126.9264  126.6719   70.8421 H   0  0  0  0  0  0  0  0  0  0  0  0
  126.6805  126.9867   68.3889 H   0  0  0  0  0  0  0  0  0  0  0  0
  129.0398  122.0611   62.1268 H   0  0  0  0  0  0  0  0  0  0  0  0
  129.0319  119.6523   61.5195 H   0  0  0  0  0  0  0  0  0  0  0  0
  1  2  1  0
  2  3  1  0
  3  4  2  0
  3  5  1  0
  5  6  2  0
  6  7  1  0
  7  8  2  0
  8  9  1  0
  9 10  1  0
 10 11  2  0
 10 12  1  0
 12 13  1  0
 13 14  1  0
 14 15  2  0
 15 16  1  0
 16 17  1  0
 17 18  2  0
 18 19  1  0
 19 20  2  0
 20 21  1  0
 20 22  1  0
 22 23  2  0
 16 24  2  0
 24 25  1  0
 25 26  1  0
 26 27  2  0
 27 28  1  0
 28 29  2  0
 29 30  1  0
 30 31  1  0
 29 32  1  0
 32 33  2  0
 25 34  2  0
 34 35  1  0
 35 36  3  0
  8 37  1  0
 37 38  2  0
 38  5  1  0
 34 14  1  0
 23 17  1  0
 33 26  1  0
  1 39  1  0
  1 40  1  0
  1 41  1  0
  6 42  1  0
  7 43  1  0
  9 44  1  0
 12 45  1  0
 12 46  1  0
 18 47  1  0
 19 48  1  0
 21 49  1  0
 21 50  1  0
 21 51  1  0
 22 52  1  0
 23 53  1  0
 24 54  1  0
 27 55  1  0
 28 56  1  0
 31 57  1  0
 31 58  1  0
 31 59  1  0
 32 60  1  0
 33 61  1  0
 37 62  1  0
 38 63  1  0
M  END
>  <Binding energies>  (1) 
[-8.58]

>  <Ligand effiencies>  (1) 
[-0.22]

>  <Interactions>  (1) 
["V-B:TYR:539:CD2:9846, V-A:GLU:543:CD:4908, H-A:TYR:484:OH:4348, V-B:TYR:539:CE2:9848, V-A:LEU:475:CD2:4259, V-B:GLY:454:CA:9020, V-B:LEU:475:CD2:9230, V-B:GLU:543:CB:9878, V-B:GLU:543:CG:9879, V-B:GLU:543:CD:9880, V-B:ALA:541:CB:9864, V-A:HIS:456:CD2:4068, V-A:HIS:456:CE1:4070, V-B:HIS:456:CE1:9041, V-B:GLU:543:C:9874, V-A:GLU:543:CB:4906, V-A:GLU:543:CG:4907, V-B:TYR:539:CG:9844, H-A:HIS:383:HE2:3395, V-A:HIS:383:CE1:3393, H-A:SER:385:OG:3410, V-B:TYR:539:CB:9843, V-A:HIS:383:NE2:3394, V-A:HIS:383:CD2:3392, V-A:SER:385:CB:3409, V-A:HIS:383:CG:3390"]

$$$$
RR7_Rahimova_2017
     RDKit          3D

 80 86  0  0  0  0  0  0  0  0999 V2000
  132.4670  131.0880   62.1210 C   0  0  0  0  0  0  0  0  0  0  0  0
  131.7690  132.2740   61.7560 O   0  0  0  0  0  0  0  0  0  0  0  0
  130.3890  132.2490   61.6890 C   0  0  0  0  0  0  0  0  0  0  0  0
  129.8270  132.2520   60.4140 C   0  0  0  0  0  0  0  0  0  0  0  0
  128.4460  132.2220   60.2470 C   0  0  0  0  0  0  0  0  0  0  0  0
  127.5900  132.2010   61.3580 C   0  0  0  0  0  0  0  0  0  0  0  0
  126.0390  132.1340   61.2010 C   0  0  0  0  0  0  0  0  0  0  0  0
  125.5520  131.3330   62.3010 O   0  0  0  0  0  0  0  0  0  0  0  0
  125.5970  129.9050   62.2230 C   0  0  0  0  0  0  0  0  0  0  0  0
  127.0150  129.4690   61.8190 C   0  0  1  0  0  0  0  0  0  0  0  0
  127.8010  129.4710   63.0070 O   0  0  0  0  0  0  0  0  0  0  0  0
  128.3520  128.2130   63.2730 C   0  0  1  0  0  0  0  0  0  0  0  0
  128.4460  128.0010   64.7040 N   0  0  0  0  0  0  0  0  0  0  0  0
  128.1090  128.8780   65.7200 C   0  0  0  0  0  0  0  0  0  0  0  0
  128.3400  128.4450   66.9350 N   0  0  0  0  0  0  0  0  0  0  0  0
  128.9110  127.2170   66.7410 C   0  0  0  0  0  0  0  0  0  0  0  0
  129.4000  126.2510   67.6420 C   0  0  0  0  0  0  0  0  0  0  0  0
  129.3120  126.5110   69.0230 N   0  0  0  0  0  0  0  0  0  0  0  0
  129.9950  127.4150   69.7650 C   0  0  0  0  0  0  0  0  0  0  0  0
  130.8560  128.1740   69.3160 O   0  0  0  0  0  0  0  0  0  0  0  0
  129.6640  127.4330   71.2430 C   0  0  0  0  0  0  0  0  0  0  0  0
  128.3250  127.5240   71.6530 C   0  0  0  0  0  0  0  0  0  0  0  0
  127.9980  127.5370   73.0060 C   0  0  0  0  0  0  0  0  0  0  0  0
  129.0060  127.4530   73.9600 C   0  0  0  0  0  0  0  0  0  0  0  0
  130.3410  127.3570   73.5740 C   0  0  0  0  0  0  0  0  0  0  0  0
  130.6690  127.3460   72.2210 C   0  0  0  0  0  0  0  0  0  0  0  0
  129.9460  125.0970   67.1530 N   0  0  0  0  0  0  0  0  0  0  0  0
  129.9910  124.9390   65.8050 C   0  0  0  0  0  0  0  0  0  0  0  0
  129.5480  125.8000   64.8500 N   0  0  0  0  0  0  0  0  0  0  0  0
  129.0130  126.9170   65.3580 C   0  0  0  0  0  0  0  0  0  0  0  0
  127.4610  127.2210   62.5330 C   0  0  0  0  0  0  0  0  0  0  0  0
  127.1270  128.0310   61.2920 C   0  0  2  0  0  0  0  0  0  0  0  0
  128.1200  127.8990   60.2880 O   0  0  0  0  0  0  0  0  0  0  0  0
  125.3720  133.5300   61.3280 C   0  0  0  0  0  0  0  0  0  0  0  0
  124.0340  133.6410   61.7390 C   0  0  0  0  0  0  0  0  0  0  0  0
  123.4220  134.8850   61.8430 C   0  0  0  0  0  0  0  0  0  0  0  0
  124.1420  136.0350   61.5350 C   0  0  0  0  0  0  0  0  0  0  0  0
  125.4690  135.9490   61.1250 C   0  0  0  0  0  0  0  0  0  0  0  0
  126.0810  134.7030   61.0210 C   0  0  0  0  0  0  0  0  0  0  0  0
  125.5190  131.5440   59.8600 C   0  0  0  0  0  0  0  0  0  0  0  0
  126.3800  130.8170   59.0220 C   0  0  0  0  0  0  0  0  0  0  0  0
  125.9280  130.2930   57.8160 C   0  0  0  0  0  0  0  0  0  0  0  0
  124.6060  130.4980   57.4280 C   0  0  0  0  0  0  0  0  0  0  0  0
  123.7380  131.2260   58.2360 C   0  0  0  0  0  0  0  0  0  0  0  0
  124.1940  131.7490   59.4430 C   0  0  0  0  0  0  0  0  0  0  0  0
  128.1610  132.1840   62.6390 C   0  0  0  0  0  0  0  0  0  0  0  0
  129.5430  132.2130   62.8060 C   0  0  0  0  0  0  0  0  0  0  0  0
  132.5119  131.0117   63.2174 H   0  0  0  0  0  0  0  0  0  0  0  0
  131.9401  130.2124   61.7138 H   0  0  0  0  0  0  0  0  0  0  0  0
  133.4882  131.1235   61.7138 H   0  0  0  0  0  0  0  0  0  0  0  0
  130.4818  132.2784   59.5305 H   0  0  0  0  0  0  0  0  0  0  0  0
  128.0208  132.2147   59.2325 H   0  0  0  0  0  0  0  0  0  0  0  0
  125.3441  129.4742   63.2030 H   0  0  0  0  0  0  0  0  0  0  0  0
  124.8726  129.5512   61.4747 H   0  0  0  0  0  0  0  0  0  0  0  0
  127.3298  130.1583   61.0217 H   0  0  0  0  0  0  0  0  0  0  0  0
  129.3872  128.0968   62.9197 H   0  0  0  0  0  0  0  0  0  0  0  0
  127.6771  129.8700   65.5214 H   0  0  0  0  0  0  0  0  0  0  0  0
  128.6460  125.9340   69.5160 H   0  0  0  0  0  0  0  0  0  0  0  0
  127.5268  127.5856   70.8986 H   0  0  0  0  0  0  0  0  0  0  0  0
  126.9463  127.6134   73.3192 H   0  0  0  0  0  0  0  0  0  0  0  0
  128.7470  127.4624   75.0290 H   0  0  0  0  0  0  0  0  0  0  0  0
  131.1326  127.2902   74.3349 H   0  0  0  0  0  0  0  0  0  0  0  0
  131.7229  127.2686   71.9154 H   0  0  0  0  0  0  0  0  0  0  0  0
  130.4395  124.0024   65.4420 H   0  0  0  0  0  0  0  0  0  0  0  0
  128.0017  126.2964   62.2824 H   0  0  0  0  0  0  0  0  0  0  0  0
  126.5881  126.8710   63.1036 H   0  0  0  0  0  0  0  0  0  0  0  0
  126.2036  127.6929   60.7991 H   0  0  0  0  0  0  0  0  0  0  0  0
  128.8880  128.4140   60.5480 H   0  0  0  0  0  0  0  0  0  0  0  0
  123.4630  132.7326   61.9817 H   0  0  0  0  0  0  0  0  0  0  0  0
  122.3735  134.9597   62.1673 H   0  0  0  0  0  0  0  0  0  0  0  0
  123.6586  137.0197   61.6162 H   0  0  0  0  0  0  0  0  0  0  0  0
  126.0324  136.8625   60.8839 H   0  0  0  0  0  0  0  0  0  0  0  0
  127.1296  134.6364   60.6954 H   0  0  0  0  0  0  0  0  0  0  0  0
  127.4261  130.6600   59.3237 H   0  0  0  0  0  0  0  0  0  0  0  0
  126.6108  129.7196   57.1717 H   0  0  0  0  0  0  0  0  0  0  0  0
  124.2455  130.0814   56.4759 H   0  0  0  0  0  0  0  0  0  0  0  0
  122.6961  131.3876   57.9225 H   0  0  0  0  0  0  0  0  0  0  0  0
  123.5082  132.3297   60.0774 H   0  0  0  0  0  0  0  0  0  0  0  0
  127.5082  132.1473   63.5236 H   0  0  0  0  0  0  0  0  0  0  0  0
  129.9726  132.2076   63.8186 H   0  0  0  0  0  0  0  0  0  0  0  0
  1  2  1  0
  2  3  1  0
  3  4  2  0
  4  5  1  0
  5  6  2  0
  6  7  1  0
  7  8  1  0
  8  9  1  0
  9 10  1  0
 10 11  1  0
 11 12  1  0
 12 13  1  0
 13 14  1  0
 14 15  2  0
 15 16  1  0
 16 17  2  0
 17 18  1  0
 18 19  1  0
 19 20  2  0
 19 21  1  0
 21 22  2  0
 22 23  1  0
 23 24  2  0
 24 25  1  0
 25 26  2  0
 17 27  1  0
 27 28  2  0
 28 29  1  0
 29 30  2  0
 12 31  1  0
 31 32  1  0
 32 33  1  0
  7 34  1  0
 34 35  2  0
 35 36  1  0
 36 37  2  0
 37 38  1  0
 38 39  2  0
  7 40  1  0
 40 41  2  0
 41 42  1  0
 42 43  2  0
 43 44  1  0
 44 45  2  0
  6 46  1  0
 46 47  2  0
 47  3  1  0
 32 10  1  0
 39 34  1  0
 45 40  1  0
 30 13  1  0
 30 16  1  0
 26 21  1  0
  1 48  1  0
  1 49  1  0
  1 50  1  0
  4 51  1  0
  5 52  1  0
  9 53  1  0
  9 54  1  0
 10 55  1  6
 12 56  1  6
 14 57  1  0
 18 58  1  0
 22 59  1  0
 23 60  1  0
 24 61  1  0
 25 62  1  0
 26 63  1  0
 28 64  1  0
 31 65  1  0
 31 66  1  0
 32 67  1  6
 33 68  1  0
 35 69  1  0
 36 70  1  0
 37 71  1  0
 38 72  1  0
 39 73  1  0
 41 74  1  0
 42 75  1  0
 43 76  1  0
 44 77  1  0
 45 78  1  0
 46 79  1  0
 47 80  1  0
M  END
>  <Binding energies>  (1) 
[-10.04]

>  <Ligand effiencies>  (1) 
[-0.20489795918367346]

>  <Interactions>  (1) 
["V-B:ASP:366:CB:8183, V-B:TYR:531:CZ:9766, V-A:GLU:543:CD:4908, H-A:TYR:484:OH:4348, V-A:PRO:540:C:4881, V-B:ILE:369:CB:8207, V-A:TYR:539:CD1:4873, V-A:PRO:540:CA:4883, V-B:ILE:369:CG2:8208, V-B:LEU:475:CD2:9230, V-A:TYR:539:CE1:4875, V-B:ASP:366:CA:8181, H-A:ALA:541:N:4891, V-B:GLU:543:CB:9878, V-B:GLU:543:CG:9879, V-B:GLU:543:CD:9880, V-B:HIS:456:CD2:9039, V-A:GLY:544:C:4912, V-A:HIS:456:CD2:4068, V-A:HIS:456:CE1:4070, V-B:HIS:456:CE1:9041, H-B:GLU:543:O:9875, V-A:ALA:541:CB:4892, V-A:GLU:543:CG:4907, H-A:HIS:456:NE2:4071, V-B:SER:385:CB:8380, V-B:SER:385:CA:8378, V-B:SER:385:C:8376, V-B:ASP:366:C:8179"]

$$$$
RR8_A_Rahimova_2017
     RDKit          3D

 73 77  0  0  0  0  0  0  0  0999 V2000
  128.9840  126.2700   66.2790 O   0  0  0  0  0  0  0  0  0  0  0  0
  128.9490  127.3200   66.9300 C   0  0  0  0  0  0  0  0  0  0  0  0
  128.7180  128.5570   66.3900 O   0  0  0  0  0  0  0  0  0  0  0  0
  127.8280  128.6370   65.3110 C   0  0  1  0  0  0  0  0  0  0  0  0
  127.2160  129.8930   65.2400 O   0  0  0  0  0  0  0  0  0  0  0  0
  127.0590  130.3300   63.8930 C   0  0  2  0  0  0  0  0  0  0  0  0
  125.5730  130.6450   63.6500 C   0  0  0  0  0  0  0  0  0  0  0  0
  125.4090  132.0540   63.5790 O   0  0  0  0  0  0  0  0  0  0  0  0
  124.4260  132.4760   62.6420 C   0  0  0  0  0  0  0  0  0  0  0  0
  124.7970  133.8430   62.0860 C   0  0  0  0  0  0  0  0  0  0  0  0
  126.1310  134.1400   61.7980 C   0  0  0  0  0  0  0  0  0  0  0  0
  126.4720  135.3890   61.2840 C   0  0  0  0  0  0  0  0  0  0  0  0
  125.4760  136.3360   61.0550 C   0  0  0  0  0  0  0  0  0  0  0  0
  124.1430  136.0470   61.3340 C   0  0  0  0  0  0  0  0  0  0  0  0
  123.8020  134.7980   61.8480 C   0  0  0  0  0  0  0  0  0  0  0  0
  127.6320  129.1720   63.0640 C   0  0  1  0  0  0  0  0  0  0  0  0
  128.3700  129.6100   61.9250 O   0  0  0  0  0  0  0  0  0  0  0  0
  128.6650  131.0010   61.8780 C   0  0  0  0  0  0  0  0  0  0  0  0
  130.1400  131.2090   61.5640 C   0  0  0  0  0  0  0  0  0  0  0  0
  130.6250  130.9120   60.2870 C   0  0  0  0  0  0  0  0  0  0  0  0
  131.9740  131.0910   59.9950 C   0  0  0  0  0  0  0  0  0  0  0  0
  132.8370  131.5640   60.9820 C   0  0  0  0  0  0  0  0  0  0  0  0
  132.3640  131.8550   62.2590 C   0  0  0  0  0  0  0  0  0  0  0  0
  131.0150  131.6740   62.5520 C   0  0  0  0  0  0  0  0  0  0  0  0
  128.6170  128.5160   64.0150 C   0  0  2  0  0  0  0  0  0  0  0  0
  128.8710  127.1690   63.6230 O   0  0  0  0  0  0  0  0  0  0  0  0
  129.7920  127.0030   62.5510 C   0  0  0  0  0  0  0  0  0  0  0  0
  130.9860  126.1820   63.0160 C   0  0  0  0  0  0  0  0  0  0  0  0
  131.9890  125.8220   62.1090 C   0  0  0  0  0  0  0  0  0  0  0  0
  133.0840  125.0800   62.5410 C   0  0  0  0  0  0  0  0  0  0  0  0
  133.1770  124.7010   63.8790 C   0  0  0  0  0  0  0  0  0  0  0  0
  132.1860  125.0600   64.7890 C   0  0  0  0  0  0  0  0  0  0  0  0
  131.0890  125.8040   64.3580 C   0  0  0  0  0  0  0  0  0  0  0  0
  129.1460  127.3650   68.4180 C   0  0  0  0  0  0  0  0  0  0  0  0
  130.3680  127.7470   68.9920 C   0  0  0  0  0  0  0  0  0  0  0  0
  130.5210  127.7780   70.3760 C   0  0  0  0  0  0  0  0  0  0  0  0
  129.4580  127.4270   71.2190 C   0  0  0  0  0  0  0  0  0  0  0  0
  129.6210  127.4620   72.6930 N   0  0  0  0  0  0  0  0  0  0  0  0
  129.2830  126.4800   73.3460 O   0  0  0  0  0  0  0  0  0  0  0  0
  130.0900  128.4730   73.2090 O   0  0  0  0  0  0  0  0  0  0  0  0
  128.2400  127.0440   70.6450 C   0  0  0  0  0  0  0  0  0  0  0  0
  128.0860  127.0120   69.2620 C   0  0  0  0  0  0  0  0  0  0  0  0
  127.0802  127.8422   65.4489 H   0  0  0  0  0  0  0  0  0  0  0  0
  127.5827  131.2593   63.6245 H   0  0  0  0  0  0  0  0  0  0  0  0
  125.2479  130.1869   62.7042 H   0  0  0  0  0  0  0  0  0  0  0  0
  124.9658  130.2392   64.4726 H   0  0  0  0  0  0  0  0  0  0  0  0
  124.3711  131.7493   61.8181 H   0  0  0  0  0  0  0  0  0  0  0  0
  123.4496  132.5411   63.1445 H   0  0  0  0  0  0  0  0  0  0  0  0
  126.9128  133.3872   61.9772 H   0  0  0  0  0  0  0  0  0  0  0  0
  127.5224  135.6265   61.0600 H   0  0  0  0  0  0  0  0  0  0  0  0
  125.7457  137.3223   60.6495 H   0  0  0  0  0  0  0  0  0  0  0  0
  123.3634  136.8008   61.1496 H   0  0  0  0  0  0  0  0  0  0  0  0
  122.7501  134.5622   62.0669 H   0  0  0  0  0  0  0  0  0  0  0  0
  126.8222  128.5293   62.6884 H   0  0  0  0  0  0  0  0  0  0  0  0
  128.0552  131.4767   61.0957 H   0  0  0  0  0  0  0  0  0  0  0  0
  128.4361  131.4523   62.8547 H   0  0  0  0  0  0  0  0  0  0  0  0
  129.9401  130.5366   59.5125 H   0  0  0  0  0  0  0  0  0  0  0  0
  132.3573  130.8603   58.9901 H   0  0  0  0  0  0  0  0  0  0  0  0
  133.9024  131.7089   60.7499 H   0  0  0  0  0  0  0  0  0  0  0  0
  133.0527  132.2260   63.0323 H   0  0  0  0  0  0  0  0  0  0  0  0
  130.6368  131.8967   63.5607 H   0  0  0  0  0  0  0  0  0  0  0  0
  129.6235  128.9569   64.0658 H   0  0  0  0  0  0  0  0  0  0  0  0
  129.2938  126.4833   61.7193 H   0  0  0  0  0  0  0  0  0  0  0  0
  130.1404  127.9914   62.2167 H   0  0  0  0  0  0  0  0  0  0  0  0
  131.9118  126.1256   61.0545 H   0  0  0  0  0  0  0  0  0  0  0  0
  133.8727  124.7938   61.8297 H   0  0  0  0  0  0  0  0  0  0  0  0
  134.0417  124.1125   64.2195 H   0  0  0  0  0  0  0  0  0  0  0  0
  132.2686  124.7577   65.8434 H   0  0  0  0  0  0  0  0  0  0  0  0
  130.3050  126.0935   65.0732 H   0  0  0  0  0  0  0  0  0  0  0  0
  131.2122  128.0243   68.3436 H   0  0  0  0  0  0  0  0  0  0  0  0
  131.4848  128.0807   70.8112 H   0  0  0  0  0  0  0  0  0  0  0  0
  127.3962  126.7655   71.2934 H   0  0  0  0  0  0  0  0  0  0  0  0
  127.1225  126.7065   68.8280 H   0  0  0  0  0  0  0  0  0  0  0  0
  1  2  2  0
  2  3  1  0
  3  4  1  0
  4  5  1  0
  5  6  1  0
  6  7  1  0
  7  8  1  0
  8  9  1  0
  9 10  1  0
 10 11  2  0
 11 12  1  0
 12 13  2  0
 13 14  1  0
 14 15  2  0
  6 16  1  0
 16 17  1  0
 17 18  1  0
 18 19  1  0
 19 20  2  0
 20 21  1  0
 21 22  2  0
 22 23  1  0
 23 24  2  0
 16 25  1  0
 25 26  1  0
 26 27  1  0
 27 28  1  0
 28 29  2  0
 29 30  1  0
 30 31  2  0
 31 32  1  0
 32 33  2  0
  2 34  1  0
 34 35  2  0
 35 36  1  0
 36 37  2  0
 37 38  1  0
 38 39  2  0
 38 40  1  0
 37 41  1  0
 41 42  2  0
 25  4  1  0
 33 28  1  0
 42 34  1  0
 15 10  1  0
 24 19  1  0
  4 43  1  1
  6 44  1  1
  7 45  1  0
  7 46  1  0
  9 47  1  0
  9 48  1  0
 11 49  1  0
 12 50  1  0
 13 51  1  0
 14 52  1  0
 15 53  1  0
 16 54  1  6
 18 55  1  0
 18 56  1  0
 20 57  1  0
 21 58  1  0
 22 59  1  0
 23 60  1  0
 24 61  1  0
 25 62  1  1
 27 63  1  0
 27 64  1  0
 29 65  1  0
 30 66  1  0
 31 67  1  0
 32 68  1  0
 33 69  1  0
 35 70  1  0
 36 71  1  0
 41 72  1  0
 42 73  1  0
M  CHG  2  38   1  40  -1
M  END
>  <Binding energies>  (1) 
[-9.22]

>  <Ligand effiencies>  (1) 
[-0.21952380952380954]

>  <Interactions>  (1) 
["V-A:GLU:543:CD:4908, V-A:ARG:545:CZ:4926, V-A:PRO:540:CB:4885, V-A:TYR:539:CD1:4873, V-B:GLY:454:CA:9020, V-A:PRO:540:CA:4883, V-B:ILE:369:CG2:8208, V-B:LEU:475:CD2:9230, V-A:TYR:539:CE1:4875, V-A:ASP:366:CG:3213, V-B:GLU:543:CB:9878, V-B:GLU:543:CG:9879, V-B:GLU:543:CD:9880, V-A:GLY:544:C:4912, V-A:HIS:456:CE1:4070, H-B:LYS:547:NZ:9923, V-B:HIS:456:CE1:9041, V-B:GLU:543:C:9874, H-A:LYS:547:NZ:4951, V-A:GLU:543:CB:4906, V-A:GLU:543:C:4902, H-B:TYR:484:OH:9319, V-A:GLU:543:CG:4907, V-B:SER:385:CB:8380, V-B:SER:385:CA:8378"]

$$$$
RR8_B_Rahimova_2017
     RDKit          3D

 73 77  0  0  0  0  0  0  0  0999 V2000
  129.3610  125.8430   66.6190 O   0  0  0  0  0  0  0  0  0  0  0  0
  128.8440  126.8140   67.1810 C   0  0  0  0  0  0  0  0  0  0  0  0
  127.8760  127.6030   66.6240 O   0  0  0  0  0  0  0  0  0  0  0  0
  128.2770  128.7770   65.9610 C   0  0  2  0  0  0  0  0  0  0  0  0
  127.2690  129.7480   65.9640 O   0  0  0  0  0  0  0  0  0  0  0  0
  126.4440  129.6470   64.8030 C   0  0  2  0  0  0  0  0  0  0  0  0
  124.9820  129.4260   65.2300 C   0  0  0  0  0  0  0  0  0  0  0  0
  124.1370  130.2680   64.4570 O   0  0  0  0  0  0  0  0  0  0  0  0
  124.1840  130.0400   63.0560 C   0  0  0  0  0  0  0  0  0  0  0  0
  124.2760  131.3760   62.3330 C   0  0  0  0  0  0  0  0  0  0  0  0
  124.3740  131.4050   60.9390 C   0  0  0  0  0  0  0  0  0  0  0  0
  124.4840  132.6230   60.2730 C   0  0  0  0  0  0  0  0  0  0  0  0
  124.4920  133.8090   61.0050 C   0  0  0  0  0  0  0  0  0  0  0  0
  124.3880  133.7880   62.3930 C   0  0  0  0  0  0  0  0  0  0  0  0
  124.2820  132.5700   63.0600 C   0  0  0  0  0  0  0  0  0  0  0  0
  127.0730  128.5110   63.9890 C   0  0  1  0  0  0  0  0  0  0  0  0
  126.9600  128.7940   62.5910 O   0  0  0  0  0  0  0  0  0  0  0  0
  128.1070  129.3530   61.9460 C   0  0  0  0  0  0  0  0  0  0  0  0
  128.0970  130.8780   61.9680 C   0  0  0  0  0  0  0  0  0  0  0  0
  127.9140  131.5950   60.7830 C   0  0  0  0  0  0  0  0  0  0  0  0
  127.8740  132.9870   60.8110 C   0  0  0  0  0  0  0  0  0  0  0  0
  128.0200  133.6560   62.0240 C   0  0  0  0  0  0  0  0  0  0  0  0
  128.2070  132.9480   63.2090 C   0  0  0  0  0  0  0  0  0  0  0  0
  128.2440  131.5560   63.1820 C   0  0  0  0  0  0  0  0  0  0  0  0
  128.5150  128.4720   64.4830 C   0  0  2  0  0  0  0  0  0  0  0  0
  129.0870  127.1880   64.2460 O   0  0  0  0  0  0  0  0  0  0  0  0
  129.6990  127.0140   62.9770 C   0  0  0  0  0  0  0  0  0  0  0  0
  130.9340  126.1480   63.1600 C   0  0  0  0  0  0  0  0  0  0  0  0
  131.7600  125.8580   62.0700 C   0  0  0  0  0  0  0  0  0  0  0  0
  132.8780  125.0470   62.2460 C   0  0  0  0  0  0  0  0  0  0  0  0
  133.1670  124.5310   63.5070 C   0  0  0  0  0  0  0  0  0  0  0  0
  132.3480  124.8180   64.5980 C   0  0  0  0  0  0  0  0  0  0  0  0
  131.2300  125.6280   64.4230 C   0  0  0  0  0  0  0  0  0  0  0  0
  129.2450  127.2780   68.5510 C   0  0  0  0  0  0  0  0  0  0  0  0
  130.5540  127.6920   68.8380 C   0  0  0  0  0  0  0  0  0  0  0  0
  130.8990  128.1100   70.1190 C   0  0  0  0  0  0  0  0  0  0  0  0
  129.9490  128.1140   71.1480 C   0  0  0  0  0  0  0  0  0  0  0  0
  130.3260  128.5340   72.5200 N   0  0  0  0  0  0  0  0  0  0  0  0
  130.0830  129.6860   72.8700 O   0  0  0  0  0  0  0  0  0  0  0  0
  130.8640  127.7140   73.2600 O   0  0  0  0  0  0  0  0  0  0  0  0
  128.6400  127.7060   70.8590 C   0  0  0  0  0  0  0  0  0  0  0  0
  128.2920  127.2950   69.5770 C   0  0  0  0  0  0  0  0  0  0  0  0
  129.1755  129.1371   66.4834 H   0  0  0  0  0  0  0  0  0  0  0  0
  126.4014  130.5529   64.1805 H   0  0  0  0  0  0  0  0  0  0  0  0
  124.7051  128.3745   65.0638 H   0  0  0  0  0  0  0  0  0  0  0  0
  124.8681  129.6674   66.2971 H   0  0  0  0  0  0  0  0  0  0  0  0
  125.0654  129.4286   62.8124 H   0  0  0  0  0  0  0  0  0  0  0  0
  123.2741  129.5101   62.7377 H   0  0  0  0  0  0  0  0  0  0  0  0
  124.3642  130.4651   60.3677 H   0  0  0  0  0  0  0  0  0  0  0  0
  124.5641  132.6489   59.1762 H   0  0  0  0  0  0  0  0  0  0  0  0
  124.5814  134.7717   60.4804 H   0  0  0  0  0  0  0  0  0  0  0  0
  124.3895  134.7300   62.9610 H   0  0  0  0  0  0  0  0  0  0  0  0
  124.2031  132.5476   64.1569 H   0  0  0  0  0  0  0  0  0  0  0  0
  126.5849  127.5339   64.1194 H   0  0  0  0  0  0  0  0  0  0  0  0
  129.0113  128.9976   62.4617 H   0  0  0  0  0  0  0  0  0  0  0  0
  128.0921  129.0313   60.8942 H   0  0  0  0  0  0  0  0  0  0  0  0
  127.8015  131.0604   59.8282 H   0  0  0  0  0  0  0  0  0  0  0  0
  127.7279  133.5549   59.8803 H   0  0  0  0  0  0  0  0  0  0  0  0
  127.9873  134.7553   62.0464 H   0  0  0  0  0  0  0  0  0  0  0  0
  128.3249  133.4857   64.1614 H   0  0  0  0  0  0  0  0  0  0  0  0
  128.3887  130.9907   64.1145 H   0  0  0  0  0  0  0  0  0  0  0  0
  129.2258  129.1577   63.9986 H   0  0  0  0  0  0  0  0  0  0  0  0
  128.9966  126.5202   62.2894 H   0  0  0  0  0  0  0  0  0  0  0  0
  129.9787  127.9898   62.5532 H   0  0  0  0  0  0  0  0  0  0  0  0
  131.5274  126.2692   61.0766 H   0  0  0  0  0  0  0  0  0  0  0  0
  133.5310  124.8145   61.3918 H   0  0  0  0  0  0  0  0  0  0  0  0
  134.0507  123.8903   63.6435 H   0  0  0  0  0  0  0  0  0  0  0  0
  132.5839  124.4069   65.5907 H   0  0  0  0  0  0  0  0  0  0  0  0
  130.5790  125.8591   65.2791 H   0  0  0  0  0  0  0  0  0  0  0  0
  131.3144  127.6861   68.0431 H   0  0  0  0  0  0  0  0  0  0  0  0
  131.9276  128.4405   70.3258 H   0  0  0  0  0  0  0  0  0  0  0  0
  127.8801  127.7109   71.6543 H   0  0  0  0  0  0  0  0  0  0  0  0
  127.2591  126.9805   69.3669 H   0  0  0  0  0  0  0  0  0  0  0  0
  1  2  2  0
  2  3  1  0
  3  4  1  0
  4  5  1  0
  5  6  1  0
  6  7  1  0
  7  8  1  0
  8  9  1  0
  9 10  1  0
 10 11  2  0
 11 12  1  0
 12 13  2  0
 13 14  1  0
 14 15  2  0
  6 16  1  0
 16 17  1  0
 17 18  1  0
 18 19  1  0
 19 20  2  0
 20 21  1  0
 21 22  2  0
 22 23  1  0
 23 24  2  0
 16 25  1  0
 25 26  1  0
 26 27  1  0
 27 28  1  0
 28 29  2  0
 29 30  1  0
 30 31  2  0
 31 32  1  0
 32 33  2  0
  2 34  1  0
 34 35  2  0
 35 36  1  0
 36 37  2  0
 37 38  1  0
 38 39  2  0
 38 40  1  0
 37 41  1  0
 41 42  2  0
 25  4  1  0
 33 28  1  0
 42 34  1  0
 15 10  1  0
 24 19  1  0
  4 43  1  1
  6 44  1  6
  7 45  1  0
  7 46  1  0
  9 47  1  0
  9 48  1  0
 11 49  1  0
 12 50  1  0
 13 51  1  0
 14 52  1  0
 15 53  1  0
 16 54  1  6
 18 55  1  0
 18 56  1  0
 20 57  1  0
 21 58  1  0
 22 59  1  0
 23 60  1  0
 24 61  1  0
 25 62  1  6
 27 63  1  0
 27 64  1  0
 29 65  1  0
 30 66  1  0
 31 67  1  0
 32 68  1  0
 33 69  1  0
 35 70  1  0
 36 71  1  0
 41 72  1  0
 42 73  1  0
M  CHG  2  38   1  40  -1
M  END
>  <Binding energies>  (1) 
[-8.92]

>  <Ligand effiencies>  (1) 
[-0.2123809523809524]

>  <Interactions>  (1) 
["V-A:GLU:543:CD:4908, V-A:ARG:545:CZ:4926, V-A:TYR:539:CD1:4873, V-B:GLY:454:CA:9020, V-B:ILE:369:CG2:8208, V-B:LEU:475:CD2:9230, V-A:TYR:539:CE1:4875, H-B:GLY:454:N:9021, H-B:ARG:545:NH2:9900, V-A:ASP:366:CG:3213, V-B:GLU:543:CB:9878, V-B:GLU:543:CG:9879, V-B:GLU:543:CD:9880, V-B:HIS:456:CD2:9039, V-A:GLY:544:C:4912, V-A:HIS:456:CE1:4070, V-B:HIS:456:CE1:9041, H-A:LYS:547:NZ:4951, V-A:GLU:543:CB:4906, V-A:GLU:543:C:4902, V-B:ARG:545:CZ:9898, H-B:TYR:484:OH:9319, V-A:ALA:541:CB:4892, V-A:GLU:543:CG:4907, V-B:ARG:545:CD:9895"]

$$$$
RR9_Rahimova_2017
     RDKit          3D

 64 68  0  0  0  0  0  0  0  0999 V2000
  127.1540  127.3490   72.5000 C   0  0  0  0  0  0  0  0  0  0  0  0
  128.6440  127.7010   72.4430 C   0  0  0  0  0  0  0  0  0  0  0  0
  128.8970  128.4300   71.2460 O   0  0  0  0  0  0  0  0  0  0  0  0
  129.4420  127.7780   70.1560 C   0  0  0  0  0  0  0  0  0  0  0  0
  128.6770  126.7580   69.5940 C   0  0  0  0  0  0  0  0  0  0  0  0
  129.1460  126.0440   68.4960 C   0  0  0  0  0  0  0  0  0  0  0  0
  130.3960  126.3310   67.9270 C   0  0  0  0  0  0  0  0  0  0  0  0
  130.9080  125.5620   66.7460 C   0  0  0  0  0  0  0  0  0  0  0  0
  130.0990  124.6430   66.0590 C   0  0  0  0  0  0  0  0  0  0  0  0
  130.5800  123.9340   64.9440 C   0  0  0  0  0  0  0  0  0  0  0  0
  129.6330  123.0400   64.1890 C   0  0  0  0  0  0  0  0  0  0  0  0
  129.6560  121.8210   64.3620 O   0  0  0  0  0  0  0  0  0  0  0  0
  128.8070  123.6600   63.3240 N   0  0  0  0  0  0  0  0  0  0  0  0
  127.8930  123.0000   62.3850 C   0  0  0  0  0  0  0  0  0  0  0  0
  128.4530  122.9240   60.9460 C   0  0  0  0  0  0  0  0  0  0  0  0
  127.4280  123.1870   59.8490 C   0  0  0  0  0  0  0  0  0  0  0  0
  127.6950  122.8000   58.5320 C   0  0  0  0  0  0  0  0  0  0  0  0
  126.7420  123.0110   57.5390 C   0  0  0  0  0  0  0  0  0  0  0  0
  125.5280  123.6110   57.8640 C   0  0  0  0  0  0  0  0  0  0  0  0
  125.2570  124.0040   59.1730 C   0  0  0  0  0  0  0  0  0  0  0  0
  126.2090  123.7930   60.1670 C   0  0  0  0  0  0  0  0  0  0  0  0
  131.9280  124.1750   64.5810 C   0  0  0  0  0  0  0  0  0  0  0  0
  132.8880  123.7200   63.6030 C   0  0  0  0  0  0  0  0  0  0  0  0
  132.7550  122.6500   62.5700 C   0  0  0  0  0  0  0  0  0  0  0  0
  131.5270  122.4300   61.9380 C   0  0  0  0  0  0  0  0  0  0  0  0
  131.4020  121.4210   60.9860 C   0  0  0  0  0  0  0  0  0  0  0  0
  132.5050  120.6310   60.6600 C   0  0  0  0  0  0  0  0  0  0  0  0
  132.3640  119.5190   59.6350 C   0  0  0  0  0  0  0  0  0  0  0  0
  133.7320  120.8470   61.2890 C   0  0  0  0  0  0  0  0  0  0  0  0
  133.8560  121.8570   62.2380 C   0  0  0  0  0  0  0  0  0  0  0  0
  134.0180  124.3790   63.7250 N   0  0  0  0  0  0  0  0  0  0  0  0
  133.8980  125.2150   64.7690 N   0  0  0  0  0  0  0  0  0  0  0  0
  132.6500  125.1270   65.3390 C   0  0  0  0  0  0  0  0  0  0  0  0
  132.1990  125.8110   66.3890 N   0  0  0  0  0  0  0  0  0  0  0  0
  131.1600  127.3580   68.4990 C   0  0  0  0  0  0  0  0  0  0  0  0
  130.6930  128.0750   69.5980 C   0  0  0  0  0  0  0  0  0  0  0  0
  126.8350  127.2736   73.5500 H   0  0  0  0  0  0  0  0  0  0  0  0
  126.5721  128.1344   71.9955 H   0  0  0  0  0  0  0  0  0  0  0  0
  126.9851  126.3862   71.9955 H   0  0  0  0  0  0  0  0  0  0  0  0
  128.9123  128.3163   73.3145 H   0  0  0  0  0  0  0  0  0  0  0  0
  129.2466  126.7808   72.4551 H   0  0  0  0  0  0  0  0  0  0  0  0
  127.6934  126.5151   70.0224 H   0  0  0  0  0  0  0  0  0  0  0  0
  128.5272  125.2420   68.0672 H   0  0  0  0  0  0  0  0  0  0  0  0
  129.0670  124.4740   66.4002 H   0  0  0  0  0  0  0  0  0  0  0  0
  128.7990  124.6700   63.3130 H   0  0  0  0  0  0  0  0  0  0  0  0
  127.7036  121.9767   62.7415 H   0  0  0  0  0  0  0  0  0  0  0  0
  126.9718  123.6000   62.3473 H   0  0  0  0  0  0  0  0  0  0  0  0
  129.2557  123.6700   60.8509 H   0  0  0  0  0  0  0  0  0  0  0  0
  128.8030  121.8910   60.8030 H   0  0  0  0  0  0  0  0  0  0  0  0
  128.6570  122.3294   58.2808 H   0  0  0  0  0  0  0  0  0  0  0  0
  126.9471  122.7051   56.5025 H   0  0  0  0  0  0  0  0  0  0  0  0
  124.7752  123.7764   57.0791 H   0  0  0  0  0  0  0  0  0  0  0  0
  124.2958  124.4786   59.4199 H   0  0  0  0  0  0  0  0  0  0  0  0
  126.0020  124.1030   61.2019 H   0  0  0  0  0  0  0  0  0  0  0  0
  130.6584  123.0548   62.1932 H   0  0  0  0  0  0  0  0  0  0  0  0
  130.4348  121.2471   60.4917 H   0  0  0  0  0  0  0  0  0  0  0  0
  132.2419  118.5563   60.1529 H   0  0  0  0  0  0  0  0  0  0  0  0
  131.4830  119.7107   59.0049 H   0  0  0  0  0  0  0  0  0  0  0  0
  133.2650  119.4847   59.0049 H   0  0  0  0  0  0  0  0  0  0  0  0
  134.5994  120.2200   61.0350 H   0  0  0  0  0  0  0  0  0  0  0  0
  134.8248  122.0317   62.7287 H   0  0  0  0  0  0  0  0  0  0  0  0
  134.6680  125.8080   65.0430 H   0  0  0  0  0  0  0  0  0  0  0  0
  132.1444  127.6015   68.0728 H   0  0  0  0  0  0  0  0  0  0  0  0
  131.3086  128.8778   70.0299 H   0  0  0  0  0  0  0  0  0  0  0  0
  1  2  1  0
  2  3  1  0
  3  4  1  0
  4  5  2  0
  5  6  1  0
  6  7  2  0
  7  8  1  0
  8  9  2  0
  9 10  1  0
 10 11  1  0
 11 12  2  0
 11 13  1  0
 13 14  1  0
 14 15  1  0
 15 16  1  0
 16 17  2  0
 17 18  1  0
 18 19  2  0
 19 20  1  0
 20 21  2  0
 10 22  2  0
 22 23  1  0
 23 24  1  0
 24 25  2  0
 25 26  1  0
 26 27  2  0
 27 28  1  0
 27 29  1  0
 29 30  2  0
 23 31  2  0
 31 32  1  0
 32 33  1  0
 33 34  2  0
  7 35  1  0
 35 36  2  0
 36  4  1  0
 34  8  1  0
 21 16  1  0
 33 22  1  0
 30 24  1  0
  1 37  1  0
  1 38  1  0
  1 39  1  0
  2 40  1  0
  2 41  1  0
  5 42  1  0
  6 43  1  0
  9 44  1  0
 13 45  1  0
 14 46  1  0
 14 47  1  0
 15 48  1  0
 15 49  1  0
 17 50  1  0
 18 51  1  0
 19 52  1  0
 20 53  1  0
 21 54  1  0
 25 55  1  0
 26 56  1  0
 28 57  1  0
 28 58  1  0
 28 59  1  0
 29 60  1  0
 30 61  1  0
 32 62  1  0
 35 63  1  0
 36 64  1  0
M  END
>  <Binding energies>  (1) 
[-9.06]

>  <Ligand effiencies>  (1) 
[-0.23842105263157895]

>  <Interactions>  (1) 
["V-B:PRO:540:N:9856, V-A:ARG:545:CD:4923, V-B:TYR:539:CD2:9846, V-A:GLU:543:CD:4908, H-A:GLY:454:N:4050, V-B:PRO:540:CB:9857, H-A:TYR:484:OH:4348, V-B:TYR:539:CE2:9848, H-A:ARG:545:NE:4924, V-A:ARG:545:CZ:4926, V-A:LEU:475:CD2:4259, V-B:PRO:540:CA:9855, V-A:ILE:369:CD1:3239, V-A:GLY:453:C:4042, V-A:GLY:454:CA:4049, V-A:ILE:369:CG2:3237, V-A:TYR:484:CZ:4347, V-B:GLU:543:CB:9878, V-B:GLU:543:CG:9879, V-A:SER:385:C:3405, V-A:TYR:484:CE2:4346, V-B:GLU:543:CD:9880, H-B:GLU:543:OE1:9881, V-B:ALA:541:CB:9864, V-B:HIS:456:CD2:9039, V-B:GLY:544:C:9884, V-B:HIS:456:CG:9037, V-A:HIS:456:CE1:4070, V-B:LYS:547:CE:9922, V-B:HIS:456:CE1:9041, V-B:GLU:543:C:9874, H-A:ARG:545:NH2:4928, V-A:GLU:543:CB:4906, V-A:GLU:543:C:4902, V-A:GLY:453:CA:4044, V-B:TYR:539:CG:9844, V-B:TYR:539:C:9839, V-B:GLU:543:CA:9876, V-A:SER:385:CA:3407, V-A:SER:385:CB:3409, V-A:ARG:545:CG:4922, V-A:GLU:543:CA:4904"]

$$$$
