1a_Grossjean_2025
     RDKit          3D

 26 27  0  0  0  0  0  0  0  0999 V2000
  124.2000  124.2590   59.1420 C   0  0  0  0  0  0  0  0  0  0  0  0
  124.4880  124.2060   57.6390 C   0  0  0  0  0  0  0  0  0  0  0  0
  124.7030  122.8560   57.2450 O   0  0  0  0  0  0  0  0  0  0  0  0
  125.8340  122.4900   56.5880 C   0  0  0  0  0  0  0  0  0  0  0  0
  125.8370  121.7500   55.6000 O   0  0  0  0  0  0  0  0  0  0  0  0
  127.0840  123.0610   57.1940 C   0  0  0  0  0  0  0  0  0  0  0  0
  127.5240  122.5810   58.4340 C   0  0  0  0  0  0  0  0  0  0  0  0
  128.6760  123.0940   59.0230 C   0  0  0  0  0  0  0  0  0  0  0  0
  129.4100  124.0960   58.3890 C   0  0  0  0  0  0  0  0  0  0  0  0
  130.5550  124.5430   59.0770 N   0  0  0  0  0  0  0  0  0  0  0  0
  131.6200  125.2410   58.6280 C   0  0  0  0  0  0  0  0  0  0  0  0
  131.7820  125.6340   57.4730 O   0  0  0  0  0  0  0  0  0  0  0  0
  132.6900  125.5490   59.6770 C   0  0  0  0  0  0  0  0  0  0  0  0
  133.4990  124.0420   60.2940 S   0  0  0  0  0  0  0  0  0  0  0  0
  132.3420  123.2160   61.3640 C   0  0  0  0  0  0  0  0  0  0  0  0
  131.5410  122.3290   60.7230 N   0  0  0  0  0  0  0  0  0  0  0  0
  130.6190  121.6470   61.4430 C   0  0  0  0  0  0  0  0  0  0  0  0
  129.7490  120.6830   60.6570 C   0  0  0  0  0  0  0  0  0  0  0  0
  130.4660  121.8110   62.8180 C   0  0  0  0  0  0  0  0  0  0  0  0
  131.3020  122.7080   63.4920 C   0  0  0  0  0  0  0  0  0  0  0  0
  131.1270  122.8600   65.0020 C   0  0  0  0  0  0  0  0  0  0  0  0
  132.2750  123.4290   62.7620 C   0  0  0  0  0  0  0  0  0  0  0  0
  133.1940  124.3370   63.4540 C   0  0  0  0  0  0  0  0  0  0  0  0
  133.9180  125.0530   64.0030 N   0  0  0  0  0  0  0  0  0  0  0  0
  128.9810  124.5780   57.1430 C   0  0  0  0  0  0  0  0  0  0  0  0
  127.8280  124.0650   56.5550 C   0  0  0  0  0  0  0  0  0  0  0  0
  1  2  1  0
  2  3  1  0
  3  4  1  0
  4  5  2  0
  4  6  1  0
  6  7  2  0
  7  8  1  0
  8  9  2  0
  9 10  1  0
 10 11  1  0
 11 12  2  0
 11 13  1  0
 13 14  1  0
 14 15  1  0
 15 16  2  0
 16 17  1  0
 17 18  1  0
 17 19  2  0
 19 20  1  0
 20 21  1  0
 20 22  2  0
 22 23  1  0
 23 24  3  0
  9 25  1  0
 25 26  2  0
 26  6  1  0
 22 15  1  0
M  END
>  <Binding energies>  (1) 
[-7.79]

>  <Ligand effiencies>  (1) 
[-0.2885185185185185]

>  <Interactions>  (1) 
["V-B:TYR:539:CD2:9845, V-B:TYR:539:CE2:9847, V-B:TYR:539:C:9838, V-B:PRO:540:CD:9858, V-A:ASP:366:CG:3212, V-B:PRO:540:N:9855, V-A:ILE:369:CG2:3236, V-B:LEU:363:CA:8156, V-B:PRO:540:CB:9856, V-A:ASP:366:CB:3211, V-B:PRO:540:CA:9854, V-B:LEU:363:CD1:8160, V-B:TYR:539:CZ:9848, V-B:TYR:531:CE2:9764, V-A:ASP:366:CA:3209, V-A:LEU:475:CD2:4258, H-B:TYR:539:OH:9849, V-A:TYR:484:CE1:4344, H-A:ARG:545:NH2:4928, V-B:TYR:539:CE1:9846, V-B:ALA:541:CB:9863, H-B:TYR:539:N:9841, H-A:TYR:531:OH:4795, V-A:TYR:484:CZ:4346, H-A:ARG:545:NH1:4927, H-A:GLY:454:N:4049"]

$$$$
1aa_Ghoteimi_2023
     RDKit          3D

 40 43  0  0  0  0  0  0  0  0999 V2000
  125.9360  130.7100   55.2820 C   0  0  0  0  0  0  0  0  0  0  0  0
  126.0670  130.7250   56.8070 C   0  0  0  0  0  0  0  0  0  0  0  0
  124.7950  130.4760   57.3940 O   0  0  0  0  0  0  0  0  0  0  0  0
  124.3040  131.2800   58.3710 C   0  0  0  0  0  0  0  0  0  0  0  0
  123.5790  132.2550   58.1490 O   0  0  0  0  0  0  0  0  0  0  0  0
  124.7300  130.8670   59.7500 C   0  0  0  0  0  0  0  0  0  0  0  0
  125.7720  129.9520   59.9630 C   0  0  0  0  0  0  0  0  0  0  0  0
  126.1460  129.5880   61.2540 C   0  0  0  0  0  0  0  0  0  0  0  0
  125.4830  130.1380   62.3600 C   0  0  0  0  0  0  0  0  0  0  0  0
  125.7720  129.8450   63.7060 N   0  0  0  0  0  0  0  0  0  0  0  0
  124.9590  129.7900   64.7860 C   0  0  0  0  0  0  0  0  0  0  0  0
  123.7450  129.9970   64.7640 O   0  0  0  0  0  0  0  0  0  0  0  0
  125.6040  129.4410   66.1370 C   0  0  0  0  0  0  0  0  0  0  0  0
  127.0260  129.6130   66.0720 O   0  0  0  0  0  0  0  0  0  0  0  0
  127.8750  128.5800   66.4450 C   0  0  0  0  0  0  0  0  0  0  0  0
  127.9020  128.2140   67.7560 N   0  0  0  0  0  0  0  0  0  0  0  0
  128.7310  127.2170   68.1620 C   0  0  0  0  0  0  0  0  0  0  0  0
  128.7010  126.8720   69.6240 C   0  0  0  0  0  0  0  0  0  0  0  0
  129.4690  127.5930   70.5510 C   0  0  0  0  0  0  0  0  0  0  0  0
  129.4440  127.2740   71.9060 C   0  0  0  0  0  0  0  0  0  0  0  0
  128.6520  126.2290   72.3760 C   0  0  0  0  0  0  0  0  0  0  0  0
  128.6910  125.9850   73.7350 O   0  0  0  0  0  0  0  0  0  0  0  0
  129.8450  125.3680   74.2970 C   0  0  0  0  0  0  0  0  0  0  0  0
  127.8750  125.5040   71.4620 C   0  0  0  0  0  0  0  0  0  0  0  0
  127.9010  125.8250   70.1090 C   0  0  0  0  0  0  0  0  0  0  0  0
  129.5440  126.5450   67.2410 C   0  0  0  0  0  0  0  0  0  0  0  0
  129.5260  126.8940   65.8840 C   0  0  0  0  0  0  0  0  0  0  0  0
  130.4090  126.1330   64.9500 C   0  0  0  0  0  0  0  0  0  0  0  0
  131.8000  126.2310   65.0610 C   0  0  0  0  0  0  0  0  0  0  0  0
  132.6290  125.5170   64.2000 C   0  0  0  0  0  0  0  0  0  0  0  0
  132.0890  124.6880   63.2180 C   0  0  0  0  0  0  0  0  0  0  0  0
  132.9880  124.0190   62.4110 O   0  0  0  0  0  0  0  0  0  0  0  0
  133.5870  124.7080   61.3190 C   0  0  0  0  0  0  0  0  0  0  0  0
  130.6940  124.5800   63.1100 C   0  0  0  0  0  0  0  0  0  0  0  0
  129.8660  125.2960   63.9700 C   0  0  0  0  0  0  0  0  0  0  0  0
  128.6740  127.9470   65.4770 C   0  0  0  0  0  0  0  0  0  0  0  0
  128.6200  128.4100   64.0900 C   0  0  0  0  0  0  0  0  0  0  0  0
  128.5760  128.7780   62.9930 N   0  0  0  0  0  0  0  0  0  0  0  0
  124.4450  131.0480   62.1520 C   0  0  0  0  0  0  0  0  0  0  0  0
  124.0720  131.4100   60.8620 C   0  0  0  0  0  0  0  0  0  0  0  0
  1  2  1  0
  2  3  1  0
  3  4  1  0
  4  5  2  0
  4  6  1  0
  6  7  2  0
  7  8  1  0
  8  9  2  0
  9 10  1  0
 10 11  1  0
 11 12  2  0
 11 13  1  0
 13 14  1  0
 14 15  1  0
 15 16  2  0
 16 17  1  0
 17 18  1  0
 18 19  2  0
 19 20  1  0
 20 21  2  0
 21 22  1  0
 22 23  1  0
 21 24  1  0
 24 25  2  0
 17 26  2  0
 26 27  1  0
 27 28  1  0
 28 29  2  0
 29 30  1  0
 30 31  2  0
 31 32  1  0
 32 33  1  0
 31 34  1  0
 34 35  2  0
 27 36  2  0
 36 37  1  0
 37 38  3  0
  9 39  1  0
 39 40  2  0
 40  6  1  0
 36 15  1  0
 25 18  1  0
 35 28  1  0
M  END
>  <Binding energies>  (2) 
[-9.59]

>  <Ligand effiencies>  (2) 
[-0.23390243902439023]

>  <Interactions>  (2) 
["V-B:ASP:366:CG:8184, V-A:ASP:366:CG:3212, H-B:TYR:531:OH:9766, V-B:ASP:366:CB:8183, V-A:GLU:543:CD:4908, V-A:GLU:543:CG:4907, V-B:ILE:369:CD1:8210, V-A:HIS:456:CD2:4067, V-B:GLU:543:C:9873, H-B:GLY:454:N:9021, V-B:GLU:543:CD:9879, V-B:HIS:456:CE1:9041, H-B:ARG:545:NH1:9898, H-B:ARG:545:NH2:9899, H-B:ARG:545:NE:9895, V-A:HIS:456:CE1:4069, H-B:LYS:547:NZ:9922, V-B:HIS:456:CD2:9039, V-B:GLU:543:CB:9877, V-A:TYR:539:CE2:4876, V-A:TYR:539:CZ:4877, V-B:ASP:366:CA:8181, V-A:ILE:369:CD1:3238, V-A:ARG:545:CZ:4926, V-B:ARG:545:CZ:9897, V-A:MET:535:CE:4835, H-A:TYR:539:OH:4878, H-B:TYR:484:OH:9319, V-B:TYR:531:CE1:9763, H-B:ASN:370:N:8215, V-B:GLY:544:C:9883"]

$$$$
1b_Grossjean_2025
     RDKit          3D

 25 26  0  0  0  0  0  0  0  0999 V2000
  132.0900  132.4280   57.1910 C   0  0  0  0  0  0  0  0  0  0  0  0
  131.2400  133.3830   56.5710 O   0  0  0  0  0  0  0  0  0  0  0  0
  130.1260  132.9950   55.8990 C   0  0  0  0  0  0  0  0  0  0  0  0
  130.0480  132.9700   54.6670 O   0  0  0  0  0  0  0  0  0  0  0  0
  128.9980  132.5900   56.8050 C   0  0  0  0  0  0  0  0  0  0  0  0
  128.9660  132.9550   58.1600 C   0  0  0  0  0  0  0  0  0  0  0  0
  127.9070  132.5630   58.9720 C   0  0  0  0  0  0  0  0  0  0  0  0
  126.8600  131.8010   58.4530 C   0  0  0  0  0  0  0  0  0  0  0  0
  125.8440  131.4610   59.3660 N   0  0  0  0  0  0  0  0  0  0  0  0
  124.5080  131.6520   59.2930 C   0  0  0  0  0  0  0  0  0  0  0  0
  123.9120  132.1830   58.3570 O   0  0  0  0  0  0  0  0  0  0  0  0
  123.7070  131.1390   60.4900 C   0  0  0  0  0  0  0  0  0  0  0  0
  123.7600  132.2920   61.8950 S   0  0  0  0  0  0  0  0  0  0  0  0
  125.3220  133.1430   61.8240 C   0  0  0  0  0  0  0  0  0  0  0  0
  126.3950  132.3300   61.9930 N   0  0  0  0  0  0  0  0  0  0  0  0
  127.6340  132.8730   61.9560 C   0  0  0  0  0  0  0  0  0  0  0  0
  128.7860  131.9020   62.1370 C   0  0  0  0  0  0  0  0  0  0  0  0
  127.8530  134.2360   61.7620 C   0  0  0  0  0  0  0  0  0  0  0  0
  126.7520  135.0850   61.6100 C   0  0  0  0  0  0  0  0  0  0  0  0
  127.0160  136.5770   61.4150 C   0  0  0  0  0  0  0  0  0  0  0  0
  125.4480  134.5400   61.6450 C   0  0  0  0  0  0  0  0  0  0  0  0
  124.2800  135.4160   61.5310 C   0  0  0  0  0  0  0  0  0  0  0  0
  123.3590  136.1110   61.4410 N   0  0  0  0  0  0  0  0  0  0  0  0
  126.8840  131.4330   57.1000 C   0  0  0  0  0  0  0  0  0  0  0  0
  127.9440  131.8260   56.2880 C   0  0  0  0  0  0  0  0  0  0  0  0
  1  2  1  0
  2  3  1  0
  3  4  2  0
  3  5  1  0
  5  6  2  0
  6  7  1  0
  7  8  2  0
  8  9  1  0
  9 10  1  0
 10 11  2  0
 10 12  1  0
 12 13  1  0
 13 14  1  0
 14 15  2  0
 15 16  1  0
 16 17  1  0
 16 18  2  0
 18 19  1  0
 19 20  1  0
 19 21  2  0
 21 22  1  0
 22 23  3  0
  8 24  1  0
 24 25  2  0
 25  5  1  0
 21 14  1  0
M  END
>  <Binding energies>  (3) 
[-7.69]

>  <Ligand effiencies>  (3) 
[-0.2957692307692308]

>  <Interactions>  (3) 
["V-B:ASP:366:CG:8184, V-B:ASP:366:CB:8183, V-A:PRO:540:N:4884, V-B:PRO:482:CB:9297, V-B:TRP:381:CH2:8343, V-A:PRO:540:CB:4885, V-A:TYR:539:CD2:4874, V-A:ALA:541:CB:4892, V-B:PRO:482:CG:9298, V-B:TRP:381:CZ2:8341, V-A:PRO:540:CA:4883, V-A:TYR:539:C:4867, V-B:ILE:369:CD1:8210, V-B:ILE:369:CG2:8208, V-A:TYR:539:CE2:4876, V-A:TYR:539:CZ:4877, V-B:ASP:366:CA:8181, V-A:LEU:363:CD1:3188, V-A:MET:535:CE:4835, H-A:TYR:539:OH:4878, H-A:TYR:539:N:4870, V-A:TYR:539:CG:4872, V-A:ILE:538:CA:4860, V-A:ILE:538:CB:4862, V-A:TYR:539:CE1:4875, V-A:ILE:538:C:4858, V-B:TRP:381:CZ3:8342"]

$$$$
1c_Grossjean_2025
     RDKit          3D

 23 24  0  0  0  0  0  0  0  0999 V2000
  131.5810  132.8670   56.4600 C   0  0  0  0  0  0  0  0  0  0  0  0
  130.2230  133.1150   56.1130 O   0  0  0  0  0  0  0  0  0  0  0  0
  129.2240  132.7370   56.9900 C   0  0  0  0  0  0  0  0  0  0  0  0
  128.1620  132.0130   56.4490 C   0  0  0  0  0  0  0  0  0  0  0  0
  127.1090  131.5860   57.2520 C   0  0  0  0  0  0  0  0  0  0  0  0
  127.1100  131.8790   58.6240 C   0  0  0  0  0  0  0  0  0  0  0  0
  126.0930  131.5060   59.5240 N   0  0  0  0  0  0  0  0  0  0  0  0
  124.7530  131.5650   59.3740 C   0  0  0  0  0  0  0  0  0  0  0  0
  124.1630  131.9590   58.3680 O   0  0  0  0  0  0  0  0  0  0  0  0
  123.9370  131.0870   60.5770 C   0  0  0  0  0  0  0  0  0  0  0  0
  123.7570  132.3870   61.8340 S   0  0  0  0  0  0  0  0  0  0  0  0
  125.2760  133.3160   61.9030 C   0  0  0  0  0  0  0  0  0  0  0  0
  126.3760  132.5390   62.0720 N   0  0  0  0  0  0  0  0  0  0  0  0
  127.5900  133.1350   62.1390 C   0  0  0  0  0  0  0  0  0  0  0  0
  128.7730  132.2010   62.3180 C   0  0  0  0  0  0  0  0  0  0  0  0
  127.7550  134.5150   62.0540 C   0  0  0  0  0  0  0  0  0  0  0  0
  126.6270  135.3270   61.9050 C   0  0  0  0  0  0  0  0  0  0  0  0
  126.8320  136.8390   61.8310 C   0  0  0  0  0  0  0  0  0  0  0  0
  125.3480  134.7270   61.8340 C   0  0  0  0  0  0  0  0  0  0  0  0
  124.1500  135.5640   61.7330 C   0  0  0  0  0  0  0  0  0  0  0  0
  123.2040  136.2260   61.6530 N   0  0  0  0  0  0  0  0  0  0  0  0
  128.1660  132.6130   59.1670 C   0  0  0  0  0  0  0  0  0  0  0  0
  129.2170  133.0380   58.3610 C   0  0  0  0  0  0  0  0  0  0  0  0
  1  2  1  0
  2  3  1  0
  3  4  2  0
  4  5  1  0
  5  6  2  0
  6  7  1  0
  7  8  1  0
  8  9  2  0
  8 10  1  0
 10 11  1  0
 11 12  1  0
 12 13  2  0
 13 14  1  0
 14 15  1  0
 14 16  2  0
 16 17  1  0
 17 18  1  0
 17 19  2  0
 19 20  1  0
 20 21  3  0
  6 22  1  0
 22 23  2  0
 23  3  1  0
 19 12  1  0
M  END
>  <Binding energies>  (4) 
[-7.05]

>  <Ligand effiencies>  (4) 
[-0.29375]

>  <Interactions>  (4) 
["V-B:ASP:366:CG:8184, V-B:ASP:366:CB:8183, V-A:PRO:540:N:4884, V-B:PRO:482:CB:9297, V-B:LEU:475:CD1:9229, V-B:TRP:381:CH2:8343, V-A:TYR:539:CD2:4874, V-A:ALA:541:CB:4892, V-B:PRO:482:CG:9298, V-B:TRP:381:CZ2:8341, V-A:TYR:539:C:4867, V-B:ILE:369:CD1:8210, V-B:ILE:369:CG2:8208, V-A:TYR:539:CE2:4876, V-A:TYR:539:CZ:4877, V-B:ASP:366:CA:8181, V-A:LEU:363:CD1:3188, V-A:MET:535:CE:4835, H-A:TYR:539:OH:4878, H-A:TYR:539:N:4870, V-B:TRP:381:CE2:8338, V-A:TYR:539:CG:4872, V-A:ILE:538:CB:4862, V-A:PRO:540:CD:4887, V-A:TYR:539:CE1:4875, V-B:TRP:381:CZ3:8342"]

$$$$
1d_Grossjean_2025
     RDKit          3D

 21 22  0  0  0  0  0  0  0  0999 V2000
  127.4130  127.7610   58.4840 C   0  0  0  0  0  0  0  0  0  0  0  0
  127.0310  126.4480   57.8300 C   0  0  0  0  0  0  0  0  0  0  0  0
  127.7880  125.9000   56.7960 C   0  0  0  0  0  0  0  0  0  0  0  0
  127.3940  124.6800   56.2370 C   0  0  0  0  0  0  0  0  0  0  0  0
  128.2480  124.0920   55.1160 C   0  0  0  0  0  0  0  0  0  0  0  0
  126.2340  124.0370   56.7280 C   0  0  0  0  0  0  0  0  0  0  0  0
  125.8290  122.7360   56.1910 C   0  0  0  0  0  0  0  0  0  0  0  0
  125.5120  121.7080   55.7640 N   0  0  0  0  0  0  0  0  0  0  0  0
  125.5130  124.6780   57.7630 C   0  0  0  0  0  0  0  0  0  0  0  0
  124.0340  124.0140   58.4960 S   0  0  0  0  0  0  0  0  0  0  0  0
  124.0990  124.3810   60.2760 C   0  0  0  0  0  0  0  0  0  0  0  0
  125.1970  123.5890   60.9880 C   0  0  0  0  0  0  0  0  0  0  0  0
  124.8980  122.8760   61.9470 O   0  0  0  0  0  0  0  0  0  0  0  0
  126.4370  123.7250   60.4710 N   0  0  0  0  0  0  0  0  0  0  0  0
  127.6560  123.1590   60.8880 C   0  0  0  0  0  0  0  0  0  0  0  0
  128.2330  122.2450   60.0040 C   0  0  0  0  0  0  0  0  0  0  0  0
  129.4420  121.6310   60.3170 C   0  0  0  0  0  0  0  0  0  0  0  0
  130.0810  121.9370   61.5160 C   0  0  0  0  0  0  0  0  0  0  0  0
  129.5210  122.8530   62.4030 C   0  0  0  0  0  0  0  0  0  0  0  0
  128.3110  123.4680   62.0930 C   0  0  0  0  0  0  0  0  0  0  0  0
  125.9160  125.8510   58.3130 N   0  0  0  0  0  0  0  0  0  0  0  0
  1  2  1  0
  2  3  2  0
  3  4  1  0
  4  5  1  0
  4  6  2  0
  6  7  1  0
  7  8  3  0
  6  9  1  0
  9 10  1  0
 10 11  1  0
 11 12  1  0
 12 13  2  0
 12 14  1  0
 14 15  1  0
 15 16  2  0
 16 17  1  0
 17 18  2  0
 18 19  1  0
 19 20  2  0
  9 21  2  0
 21  2  1  0
 20 15  1  0
M  END
>  <Binding energies>  (5) 
[-6.92]

>  <Ligand effiencies>  (5) 
[-0.3145454545454545]

>  <Interactions>  (5) 
["V-B:TYR:539:CD2:9845, V-B:MET:535:CE:9806, V-B:ASP:366:CG:8184, V-B:TYR:539:CE2:9847, V-B:TYR:539:C:9838, V-B:PRO:540:CD:9858, V-B:PRO:540:N:9855, V-B:LEU:363:CA:8156, V-B:PRO:540:CB:9856, H-B:TYR:531:OH:9766, V-B:PRO:540:CA:9854, V-B:LEU:363:CD1:8160, V-B:TYR:539:CZ:9848, H-B:ALA:541:N:9862, V-B:TYR:539:CD1:9844, V-B:TYR:539:CE1:9846, V-B:ALA:541:CB:9863, H-B:TYR:539:N:9841, V-B:PRO:540:C:9852, V-B:ASN:362:CB:8147, V-B:ASN:362:C:8143"]

$$$$
1e_Grossjean_2025
     RDKit          3D

 22 23  0  0  0  0  0  0  0  0999 V2000
  123.7350  129.6670   67.5240 C   0  0  0  0  0  0  0  0  0  0  0  0
  124.6620  129.7500   66.3250 C   0  0  0  0  0  0  0  0  0  0  0  0
  126.0440  129.5900   66.4570 C   0  0  0  0  0  0  0  0  0  0  0  0
  126.8340  129.6820   65.3110 C   0  0  0  0  0  0  0  0  0  0  0  0
  126.2330  129.9310   64.0750 C   0  0  0  0  0  0  0  0  0  0  0  0
  124.8410  130.0760   64.0130 C   0  0  0  0  0  0  0  0  0  0  0  0
  124.2950  130.3360   62.7440 N   0  0  0  0  0  0  0  0  0  0  0  0
  123.9010  131.5190   62.2240 C   0  0  0  0  0  0  0  0  0  0  0  0
  123.9530  132.6010   62.8120 O   0  0  0  0  0  0  0  0  0  0  0  0
  123.3270  131.4660   60.8070 C   0  0  0  0  0  0  0  0  0  0  0  0
  124.1600  132.6350   59.6910 S   0  0  0  0  0  0  0  0  0  0  0  0
  125.5460  133.3540   60.5500 C   0  0  0  0  0  0  0  0  0  0  0  0
  126.6680  132.5910   60.4980 N   0  0  0  0  0  0  0  0  0  0  0  0
  127.7870  133.0330   61.1180 C   0  0  0  0  0  0  0  0  0  0  0  0
  129.0010  132.1320   61.0110 C   0  0  0  0  0  0  0  0  0  0  0  0
  127.8320  134.2370   61.8180 C   0  0  0  0  0  0  0  0  0  0  0  0
  126.6760  135.0190   61.8990 C   0  0  0  0  0  0  0  0  0  0  0  0
  126.7470  136.3260   62.6890 C   0  0  0  0  0  0  0  0  0  0  0  0
  125.4940  134.5760   61.2630 C   0  0  0  0  0  0  0  0  0  0  0  0
  124.2600  135.3550   61.3870 C   0  0  0  0  0  0  0  0  0  0  0  0
  123.2860  135.9720   61.4860 N   0  0  0  0  0  0  0  0  0  0  0  0
  124.0630  129.9910   65.1320 N   0  0  0  0  0  0  0  0  0  0  0  0
  1  2  1  0
  2  3  2  0
  3  4  1  0
  4  5  2  0
  5  6  1  0
  6  7  1  0
  7  8  1  0
  8  9  2  0
  8 10  1  0
 10 11  1  0
 11 12  1  0
 12 13  2  0
 13 14  1  0
 14 15  1  0
 14 16  2  0
 16 17  1  0
 17 18  1  0
 17 19  2  0
 19 20  1  0
 20 21  3  0
  6 22  2  0
 22  2  1  0
 19 12  1  0
M  END
>  <Binding energies>  (6) 
[-7.36]

>  <Ligand effiencies>  (6) 
[-0.32]

>  <Interactions>  (6) 
["V-B:ASP:366:CG:8184, H-B:ASP:366:OD2:8186, V-B:ASP:366:CB:8183, V-B:PRO:482:CB:9297, V-B:LEU:475:CD1:9229, V-B:TRP:381:CH2:8343, V-A:TYR:539:CD2:4874, V-A:ALA:541:CB:4892, V-B:PRO:482:CG:9298, V-B:TRP:381:CZ2:8341, V-B:ILE:369:CD1:8210, H-B:GLY:454:N:9021, V-B:HIS:456:CE1:9041, H-B:ARG:545:NH2:9899, H-B:ARG:545:NE:9895, V-B:ILE:369:CG2:8208, V-A:TYR:539:CE2:4876, V-B:ASP:366:CA:8181, V-B:ARG:545:CZ:9897, V-B:ARG:545:CG:9893, V-B:ILE:369:CB:8207, V-B:ARG:545:CD:9894, H-B:ASP:366:OD1:8185, V-B:ILE:455:C:9023, V-B:ARG:545:CB:9892"]

$$$$
1f_Grossjean_2025
     RDKit          3D

 21 22  0  0  0  0  0  0  0  0999 V2000
  123.3640  135.5680   61.7690 C   0  0  0  0  0  0  0  0  0  0  0  0
  124.7920  135.0700   61.6430 C   0  0  0  0  0  0  0  0  0  0  0  0
  125.8780  135.9290   61.7870 C   0  0  0  0  0  0  0  0  0  0  0  0
  127.1720  135.4160   61.6480 C   0  0  0  0  0  0  0  0  0  0  0  0
  128.3480  136.3810   61.7910 C   0  0  0  0  0  0  0  0  0  0  0  0
  127.3450  134.0400   61.3740 C   0  0  0  0  0  0  0  0  0  0  0  0
  128.6900  133.4950   61.1690 C   0  0  0  0  0  0  0  0  0  0  0  0
  129.7520  133.0660   61.0080 N   0  0  0  0  0  0  0  0  0  0  0  0
  126.1850  133.2360   61.2720 C   0  0  0  0  0  0  0  0  0  0  0  0
  126.2050  131.4870   60.9320 S   0  0  0  0  0  0  0  0  0  0  0  0
  125.6840  131.2300   59.2020 C   0  0  0  0  0  0  0  0  0  0  0  0
  126.7790  131.4760   58.1530 C   0  0  0  0  0  0  0  0  0  0  0  0
  126.5500  131.2940   56.9570 O   0  0  0  0  0  0  0  0  0  0  0  0
  127.9670  131.8660   58.6630 N   0  0  0  0  0  0  0  0  0  0  0  0
  129.1690  132.1800   58.0020 C   0  0  0  0  0  0  0  0  0  0  0  0
  130.4530  131.7510   58.3880 C   0  0  0  0  0  0  0  0  0  0  0  0
  131.5650  132.1360   57.6340 C   0  0  0  0  0  0  0  0  0  0  0  0
  131.3660  132.9380   56.5100 C   0  0  0  0  0  0  0  0  0  0  0  0
  130.1400  133.3600   56.1140 N   0  0  0  0  0  0  0  0  0  0  0  0
  129.0680  132.9780   56.8570 C   0  0  0  0  0  0  0  0  0  0  0  0
  124.9340  133.7490   61.3850 N   0  0  0  0  0  0  0  0  0  0  0  0
  1  2  1  0
  2  3  2  0
  3  4  1  0
  4  5  1  0
  4  6  2  0
  6  7  1  0
  7  8  3  0
  6  9  1  0
  9 10  1  0
 10 11  1  0
 11 12  1  0
 12 13  2  0
 12 14  1  0
 14 15  1  0
 15 16  2  0
 16 17  1  0
 17 18  2  0
 18 19  1  0
 19 20  2  0
  9 21  2  0
 21  2  1  0
 20 15  1  0
M  END
>  <Binding energies>  (7) 
[-6.8]

>  <Ligand effiencies>  (7) 
[-0.3090909090909091]

>  <Interactions>  (7) 
["V-A:PRO:540:N:4884, V-B:PRO:482:CB:9297, V-B:LEU:475:CD1:9229, V-B:TRP:381:CH2:8343, V-A:PRO:540:CB:4885, V-A:TYR:539:CD2:4874, V-A:ALA:541:CB:4892, V-B:PRO:482:CG:9298, V-B:TRP:381:CZ2:8341, H-A:ALA:541:N:4891, V-A:ALA:541:CA:4890, V-A:PRO:540:CA:4883, V-A:TYR:539:C:4867, V-B:ILE:369:CG2:8208, V-A:TYR:539:CE2:4876, V-A:TYR:539:CZ:4877, V-A:LEU:363:CD1:3188, H-A:TYR:539:OH:4878, H-A:TYR:539:N:4870, V-B:SER:385:CA:8378, V-A:TYR:539:CG:4872, V-B:SER:385:C:8376, V-A:TYR:539:CD1:4873, V-A:ILE:538:CB:4862, V-A:PRO:540:CD:4887, V-A:TYR:539:CE1:4875, V-A:PRO:540:C:4881"]

$$$$
1g_Grossjean_2025
     RDKit          3D

 22 23  0  0  0  0  0  0  0  0999 V2000
  126.9640  127.8800   58.6030 C   0  0  0  0  0  0  0  0  0  0  0  0
  126.7130  126.5220   57.9740 C   0  0  0  0  0  0  0  0  0  0  0  0
  127.5960  125.9730   57.0460 C   0  0  0  0  0  0  0  0  0  0  0  0
  127.3040  124.7240   56.4880 C   0  0  0  0  0  0  0  0  0  0  0  0
  128.2790  124.1490   55.4600 C   0  0  0  0  0  0  0  0  0  0  0  0
  126.1300  124.0460   56.8840 C   0  0  0  0  0  0  0  0  0  0  0  0
  125.7770  122.7610   56.2750 C   0  0  0  0  0  0  0  0  0  0  0  0
  125.5010  121.7470   55.7900 N   0  0  0  0  0  0  0  0  0  0  0  0
  125.3040  124.6670   57.8520 C   0  0  0  0  0  0  0  0  0  0  0  0
  123.7970  123.9520   58.4700 S   0  0  0  0  0  0  0  0  0  0  0  0
  123.7470  124.2620   60.2600 C   0  0  0  0  0  0  0  0  0  0  0  0
  125.1050  124.0200   60.9220 C   0  0  0  0  0  0  0  0  0  0  0  0
  125.3730  122.9120   61.3910 O   0  0  0  0  0  0  0  0  0  0  0  0
  125.9460  125.0670   60.9560 N   0  0  0  0  0  0  0  0  0  0  0  0
  127.3090  125.0440   61.4860 C   0  0  0  0  0  0  0  0  0  0  0  0
  128.1040  123.7940   61.1190 C   0  0  0  0  0  0  0  0  0  0  0  0
  128.9490  123.2020   62.0630 C   0  0  0  0  0  0  0  0  0  0  0  0
  129.6740  122.0610   61.7280 C   0  0  0  0  0  0  0  0  0  0  0  0
  129.5480  121.5130   60.4530 C   0  0  0  0  0  0  0  0  0  0  0  0
  128.7040  122.0950   59.5100 C   0  0  0  0  0  0  0  0  0  0  0  0
  127.9800  123.2370   59.8430 C   0  0  0  0  0  0  0  0  0  0  0  0
  125.5830  125.8890   58.3710 N   0  0  0  0  0  0  0  0  0  0  0  0
  1  2  1  0
  2  3  2  0
  3  4  1  0
  4  5  1  0
  4  6  2  0
  6  7  1  0
  7  8  3  0
  6  9  1  0
  9 10  1  0
 10 11  1  0
 11 12  1  0
 12 13  2  0
 12 14  1  0
 14 15  1  0
 15 16  1  0
 16 17  2  0
 17 18  1  0
 18 19  2  0
 19 20  1  0
 20 21  2  0
  9 22  2  0
 22  2  1  0
 21 16  1  0
M  END
>  <Binding energies>  (8) 
[-7.38]

>  <Ligand effiencies>  (8) 
[-0.3208695652173913]

>  <Interactions>  (8) 
["V-B:TYR:539:CD2:9845, V-B:MET:535:CE:9806, V-B:ASP:366:CG:8184, V-B:TYR:539:CE2:9847, V-B:TYR:539:C:9838, V-B:PRO:540:CD:9858, H-B:ASP:366:OD2:8186, V-B:PRO:540:N:9855, V-B:LEU:363:CA:8156, V-B:PRO:540:CB:9856, H-B:TYR:531:OH:9766, V-B:PRO:540:CA:9854, V-B:LEU:363:CD1:8160, V-B:TYR:539:CZ:9848, H-B:ALA:541:N:9862, V-B:TYR:539:CE1:9846, V-B:ALA:541:CB:9863, H-B:TYR:539:N:9841, V-B:ASN:362:CB:8147, V-B:ASN:362:C:8143, H-B:LEU:363:N:8157"]

$$$$
1h_Grossjean_2025
     RDKit          3D

 28 29  0  0  0  0  0  0  0  0999 V2000
  131.8710  133.0200   55.9670 C   0  0  0  0  0  0  0  0  0  0  0  0
  130.8750  133.4360   56.8940 O   0  0  0  0  0  0  0  0  0  0  0  0
  130.0310  132.4930   57.4520 C   0  0  0  0  0  0  0  0  0  0  0  0
  128.6470  132.4450   57.2200 C   0  0  0  0  0  0  0  0  0  0  0  0
  127.8540  131.4720   57.8280 C   0  0  0  0  0  0  0  0  0  0  0  0
  126.3540  131.4170   57.5500 C   0  0  0  0  0  0  0  0  0  0  0  0
  125.5230  131.5330   58.7470 N   0  0  0  0  0  0  0  0  0  0  0  0
  124.1950  131.7530   58.7530 C   0  0  0  0  0  0  0  0  0  0  0  0
  123.5160  131.8580   57.7330 O   0  0  0  0  0  0  0  0  0  0  0  0
  123.5320  131.8810   60.1250 C   0  0  0  0  0  0  0  0  0  0  0  0
  124.7010  131.5530   61.4790 S   0  0  0  0  0  0  0  0  0  0  0  0
  125.9010  132.8740   61.5070 C   0  0  0  0  0  0  0  0  0  0  0  0
  127.1820  132.5130   61.2300 N   0  0  0  0  0  0  0  0  0  0  0  0
  128.1420  133.4670   61.2300 C   0  0  0  0  0  0  0  0  0  0  0  0
  129.5450  132.9880   60.9080 C   0  0  0  0  0  0  0  0  0  0  0  0
  127.8730  134.8060   61.5050 C   0  0  0  0  0  0  0  0  0  0  0  0
  126.5590  135.1890   61.7940 C   0  0  0  0  0  0  0  0  0  0  0  0
  126.2850  136.6620   62.0910 C   0  0  0  0  0  0  0  0  0  0  0  0
  125.5400  134.2100   61.7990 C   0  0  0  0  0  0  0  0  0  0  0  0
  124.1550  134.5820   62.1010 C   0  0  0  0  0  0  0  0  0  0  0  0
  123.0610  134.8760   62.3400 N   0  0  0  0  0  0  0  0  0  0  0  0
  128.4480  130.5110   58.6480 C   0  0  0  0  0  0  0  0  0  0  0  0
  129.8310  130.5320   58.8920 C   0  0  0  0  0  0  0  0  0  0  0  0
  130.4860  129.6150   59.6940 O   0  0  0  0  0  0  0  0  0  0  0  0
  130.8420  129.9770   61.0240 C   0  0  0  0  0  0  0  0  0  0  0  0
  130.6090  131.5340   58.2970 C   0  0  0  0  0  0  0  0  0  0  0  0
  131.9640  131.5630   58.5230 O   0  0  0  0  0  0  0  0  0  0  0  0
  132.6700  130.4730   57.9450 C   0  0  0  0  0  0  0  0  0  0  0  0
  1  2  1  0
  2  3  1  0
  3  4  2  0
  4  5  1  0
  5  6  1  0
  6  7  1  0
  7  8  1  0
  8  9  2  0
  8 10  1  0
 10 11  1  0
 11 12  1  0
 12 13  2  0
 13 14  1  0
 14 15  1  0
 14 16  2  0
 16 17  1  0
 17 18  1  0
 17 19  2  0
 19 20  1  0
 20 21  3  0
  5 22  2  0
 22 23  1  0
 23 24  1  0
 24 25  1  0
 23 26  2  0
 26 27  1  0
 27 28  1  0
 26  3  1  0
 19 12  1  0
M  END
>  <Binding energies>  (9) 
[-6.65]

>  <Ligand effiencies>  (9) 
[-0.22931034482758622]

>  <Interactions>  (9) 
["V-A:ASP:366:CG:3212, V-A:ASP:366:CB:3211, V-B:PRO:482:CB:9297, V-B:LEU:475:CD1:9229, V-B:TRP:381:CH2:8343, V-A:TYR:539:CD2:4874, V-A:ALA:541:CB:4892, V-B:TRP:381:CZ2:8341, V-A:PRO:540:CA:4883, V-A:TYR:539:C:4867, V-B:ILE:369:CD1:8210, V-B:ILE:369:CG2:8208, V-A:TYR:539:CE2:4876, V-A:TYR:539:CZ:4877, V-B:ASP:366:CA:8181, V-A:TYR:531:CE2:4793, V-A:LEU:363:CD1:3188, H-A:TYR:539:OH:4878, V-B:ILE:369:CB:8207, H-A:TYR:539:N:4870, V-B:TRP:381:CE2:8338, V-A:ILE:538:CA:4860, V-A:ILE:538:CB:4862, V-A:PRO:540:CD:4887, V-A:ILE:538:CG2:4863, V-A:PRO:540:C:4881, H-B:ASN:370:N:8215"]

$$$$
1i_Grossjean_2025
     RDKit          3D

 20 21  0  0  0  0  0  0  0  0999 V2000
  123.3530  135.5220   61.7350 C   0  0  0  0  0  0  0  0  0  0  0  0
  124.7820  135.0440   61.5530 C   0  0  0  0  0  0  0  0  0  0  0  0
  125.8660  135.9000   61.7310 C   0  0  0  0  0  0  0  0  0  0  0  0
  127.1620  135.4010   61.5590 C   0  0  0  0  0  0  0  0  0  0  0  0
  128.3350  136.3540   61.7760 C   0  0  0  0  0  0  0  0  0  0  0  0
  127.3380  134.0430   61.2020 C   0  0  0  0  0  0  0  0  0  0  0  0
  128.6870  133.4880   61.0660 C   0  0  0  0  0  0  0  0  0  0  0  0
  129.7540  133.0510   60.9610 N   0  0  0  0  0  0  0  0  0  0  0  0
  126.1790  133.2540   61.0180 C   0  0  0  0  0  0  0  0  0  0  0  0
  126.2150  131.5330   60.5690 S   0  0  0  0  0  0  0  0  0  0  0  0
  125.8730  131.4220   58.7870 C   0  0  0  0  0  0  0  0  0  0  0  0
  127.1570  131.4130   57.9540 C   0  0  0  0  0  0  0  0  0  0  0  0
  127.3200  130.5340   57.1060 O   0  0  0  0  0  0  0  0  0  0  0  0
  128.0330  132.4050   58.2240 N   0  0  0  0  0  0  0  0  0  0  0  0
  129.2650  132.6250   57.6240 C   0  0  0  0  0  0  0  0  0  0  0  0
  130.4370  131.9940   58.0380 C   0  0  0  0  0  0  0  0  0  0  0  0
  131.4170  132.4760   57.2020 C   0  0  0  0  0  0  0  0  0  0  0  0
  130.8650  133.3530   56.3300 O   0  0  0  0  0  0  0  0  0  0  0  0
  129.5000  133.4400   56.6090 N   0  0  0  0  0  0  0  0  0  0  0  0
  124.9270  133.7420   61.2070 N   0  0  0  0  0  0  0  0  0  0  0  0
  1  2  1  0
  2  3  2  0
  3  4  1  0
  4  5  1  0
  4  6  2  0
  6  7  1  0
  7  8  3  0
  6  9  1  0
  9 10  1  0
 10 11  1  0
 11 12  1  0
 12 13  2  0
 12 14  1  0
 14 15  1  0
 15 16  1  0
 16 17  2  0
 17 18  1  0
 18 19  1  0
  9 20  2  0
 20  2  1  0
 19 15  2  0
M  END
>  <Binding energies>  (10) 
[-6.83]

>  <Ligand effiencies>  (10) 
[-0.3252380952380952]

>  <Interactions>  (10) 
["V-A:PRO:540:N:4884, V-B:PRO:482:CB:9297, V-B:LEU:475:CD1:9229, V-B:TRP:381:CH2:8343, V-A:TYR:539:CD2:4874, V-A:ALA:541:CB:4892, V-B:PRO:482:CG:9298, V-B:TRP:381:CZ2:8341, H-A:ALA:541:N:4891, V-A:ALA:541:CA:4890, V-A:PRO:540:CA:4883, V-A:TYR:539:C:4867, V-B:ILE:369:CG2:8208, V-A:TYR:539:CE2:4876, V-A:TYR:539:CZ:4877, H-A:TYR:539:O:4868, H-A:TYR:539:N:4870, V-B:SER:385:CA:8378, V-B:SER:385:C:8376, V-A:PRO:540:C:4881"]

$$$$
1k_Grossjean_2025
     RDKit          3D

 25 25  0  0  0  0  0  0  0  0999 V2000
  132.0200  132.6520   57.1290 C   0  0  0  0  0  0  0  0  0  0  0  0
  131.1320  133.5310   56.4590 O   0  0  0  0  0  0  0  0  0  0  0  0
  129.8190  133.0060   56.3120 C   0  0  0  0  0  0  0  0  0  0  0  0
  129.0680  133.1220   57.6450 C   0  0  0  0  0  0  0  0  0  0  0  0
  128.3560  131.9160   57.8930 O   0  0  0  0  0  0  0  0  0  0  0  0
  127.7120  131.3870   56.7420 C   0  0  0  0  0  0  0  0  0  0  0  0
  127.6850  129.8560   56.8320 C   0  0  0  0  0  0  0  0  0  0  0  0
  126.5150  129.3630   56.1920 O   0  0  0  0  0  0  0  0  0  0  0  0
  125.7930  130.3580   55.4780 C   0  0  0  0  0  0  0  0  0  0  0  0
  124.5350  130.7530   56.2740 C   0  0  0  0  0  0  0  0  0  0  0  0
  124.6760  130.6050   57.7230 N   0  0  0  0  0  0  0  0  0  0  0  0
  124.1880  131.4570   58.6410 C   0  0  0  0  0  0  0  0  0  0  0  0
  123.5520  132.4710   58.3460 O   0  0  0  0  0  0  0  0  0  0  0  0
  124.4770  131.0920   60.1050 C   0  0  0  0  0  0  0  0  0  0  0  0
  126.1180  131.5920   60.7350 S   0  0  0  0  0  0  0  0  0  0  0  0
  126.0830  133.3300   61.1500 C   0  0  0  0  0  0  0  0  0  0  0  0
  124.8500  133.8740   61.3200 N   0  0  0  0  0  0  0  0  0  0  0  0
  124.7510  135.1880   61.6260 C   0  0  0  0  0  0  0  0  0  0  0  0
  123.3420  135.7230   61.7910 C   0  0  0  0  0  0  0  0  0  0  0  0
  125.8660  136.0080   61.7830 C   0  0  0  0  0  0  0  0  0  0  0  0
  127.1420  135.4590   61.6180 C   0  0  0  0  0  0  0  0  0  0  0  0
  128.3510  136.3750   61.7940 C   0  0  0  0  0  0  0  0  0  0  0  0
  127.2660  134.0890   61.2940 C   0  0  0  0  0  0  0  0  0  0  0  0
  128.5900  133.4870   61.1110 C   0  0  0  0  0  0  0  0  0  0  0  0
  129.6360  133.0130   60.9670 N   0  0  0  0  0  0  0  0  0  0  0  0
  1  2  1  0
  2  3  1  0
  3  4  1  0
  4  5  1  0
  5  6  1  0
  6  7  1  0
  7  8  1  0
  8  9  1  0
  9 10  1  0
 10 11  1  0
 11 12  1  0
 12 13  2  0
 12 14  1  0
 14 15  1  0
 15 16  1  0
 16 17  2  0
 17 18  1  0
 18 19  1  0
 18 20  2  0
 20 21  1  0
 21 22  1  0
 21 23  2  0
 23 24  1  0
 24 25  3  0
 23 16  1  0
M  END
>  <Binding energies>  (11) 
[-6.73]

>  <Ligand effiencies>  (11) 
[-0.25884615384615384]

>  <Interactions>  (11) 
["V-B:ASP:366:CG:8184, H-B:TYR:531:OH:9766, V-B:TYR:531:CZ:9765, V-B:ASP:366:CB:8183, V-A:PRO:540:N:4884, V-B:PRO:482:CB:9297, V-B:LEU:475:CD1:9229, V-B:TRP:381:CH2:8343, V-A:PRO:540:CB:4885, V-A:TYR:539:CD2:4874, V-A:ALA:541:CB:4892, V-B:PRO:482:CG:9298, V-B:TRP:381:CZ2:8341, H-A:ALA:541:N:4891, V-A:ALA:541:CA:4890, V-A:PRO:540:CA:4883, V-A:TYR:539:C:4867, V-B:ILE:369:CG2:8208, V-A:TYR:539:CE2:4876, V-A:TYR:539:CZ:4877, V-B:ASP:366:CA:8181, V-A:LEU:363:CD1:3188, V-A:MET:535:CE:4835, H-A:TYR:539:OH:4878, V-B:ASN:370:CB:8216, V-B:TYR:531:CE1:9763, V-B:ASN:370:CG:8217, H-A:TYR:539:N:4870, V-A:TYR:539:CA:4869, V-B:SER:385:CA:8378, V-A:TYR:539:CG:4872, V-B:SER:385:C:8376, V-A:ILE:538:CA:4860, V-A:PRO:540:CD:4887, V-A:PRO:540:C:4881, H-B:ASN:370:N:8215"]

$$$$
1l_Grossjean_2025
     RDKit          3D

 17 17  0  0  0  0  0  0  0  0999 V2000
  124.8990  129.6270   65.4170 C   0  0  0  0  0  0  0  0  0  0  0  0
  123.7270  129.9960   64.7050 O   0  0  0  0  0  0  0  0  0  0  0  0
  123.9840  129.9970   63.3350 N   0  0  0  0  0  0  0  0  0  0  0  0
  124.1340  131.1750   62.6990 C   0  0  0  0  0  0  0  0  0  0  0  0
  124.2850  132.2520   63.2820 O   0  0  0  0  0  0  0  0  0  0  0  0
  124.1210  131.0950   61.1660 C   0  0  0  0  0  0  0  0  0  0  0  0
  124.1240  132.7070   60.3090 S   0  0  0  0  0  0  0  0  0  0  0  0
  125.5200  133.6480   60.9000 C   0  0  0  0  0  0  0  0  0  0  0  0
  126.7350  133.0600   60.7460 N   0  0  0  0  0  0  0  0  0  0  0  0
  127.8380  133.7190   61.1740 C   0  0  0  0  0  0  0  0  0  0  0  0
  129.1570  132.9990   60.9680 C   0  0  0  0  0  0  0  0  0  0  0  0
  127.7790  134.9790   61.7650 C   0  0  0  0  0  0  0  0  0  0  0  0
  126.5340  135.5950   61.9270 C   0  0  0  0  0  0  0  0  0  0  0  0
  126.4930  136.9770   62.5770 C   0  0  0  0  0  0  0  0  0  0  0  0
  125.3700  134.9250   61.4890 C   0  0  0  0  0  0  0  0  0  0  0  0
  124.0520  135.5470   61.6460 C   0  0  0  0  0  0  0  0  0  0  0  0
  123.0120  136.0390   61.7710 N   0  0  0  0  0  0  0  0  0  0  0  0
  1  2  1  0
  2  3  1  0
  3  4  1  0
  4  5  2  0
  4  6  1  0
  6  7  1  0
  7  8  1  0
  8  9  2  0
  9 10  1  0
 10 11  1  0
 10 12  2  0
 12 13  1  0
 13 14  1  0
 13 15  2  0
 15 16  1  0
 16 17  3  0
 15  8  1  0
M  END
>  <Binding energies>  (12) 
[-6.06]

>  <Ligand effiencies>  (12) 
[-0.33666666666666667]

>  <Interactions>  (12) 
["V-B:ASP:366:CG:8184, H-B:ASP:366:OD2:8186, V-B:PRO:482:CB:9297, V-B:LEU:475:CD1:9229, V-B:TRP:381:CH2:8343, V-A:TYR:539:CD2:4874, V-A:ALA:541:CB:4892, V-B:PRO:482:CG:9298, V-B:TRP:381:CZ2:8341, V-A:PRO:540:CA:4883, H-B:GLY:454:N:9021, H-B:ARG:545:NH1:9898, H-B:ARG:545:NH2:9899, H-B:ARG:545:NE:9895, V-B:ILE:369:CG2:8208, V-A:TYR:539:CE2:4876, V-B:ARG:545:CZ:9897, V-B:TRP:381:CE2:8338, H-B:ASP:366:OD1:8185"]

$$$$
1m_Grossjean_2025
     RDKit          3D

 20 20  0  0  0  0  0  0  0  0999 V2000
  132.7810  125.6670   66.2580 C   0  0  0  0  0  0  0  0  0  0  0  0
  133.5050  124.7270   65.4760 O   0  0  0  0  0  0  0  0  0  0  0  0
  133.1920  124.5280   64.1800 C   0  0  0  0  0  0  0  0  0  0  0  0
  133.9610  124.6750   63.2250 O   0  0  0  0  0  0  0  0  0  0  0  0
  131.7270  124.0720   64.0150 C   0  0  0  0  0  0  0  0  0  0  0  0
  131.3390  123.8980   62.6070 N   0  0  0  0  0  0  0  0  0  0  0  0
  130.1570  123.4240   62.1700 C   0  0  0  0  0  0  0  0  0  0  0  0
  129.2570  123.0610   62.9310 O   0  0  0  0  0  0  0  0  0  0  0  0
  129.9950  123.3520   60.6460 C   0  0  0  0  0  0  0  0  0  0  0  0
  128.7850  122.1150   60.0660 S   0  0  0  0  0  0  0  0  0  0  0  0
  127.1750  122.8750   60.0700 C   0  0  0  0  0  0  0  0  0  0  0  0
  126.6370  122.9980   61.3100 N   0  0  0  0  0  0  0  0  0  0  0  0
  125.4160  123.5690   61.4360 C   0  0  0  0  0  0  0  0  0  0  0  0
  124.8890  123.6900   62.8530 C   0  0  0  0  0  0  0  0  0  0  0  0
  124.6820  124.0250   60.3430 C   0  0  0  0  0  0  0  0  0  0  0  0
  125.2160  123.8780   59.0580 C   0  0  0  0  0  0  0  0  0  0  0  0
  124.3870  124.3710   57.8740 C   0  0  0  0  0  0  0  0  0  0  0  0
  126.4890  123.2850   58.9010 C   0  0  0  0  0  0  0  0  0  0  0  0
  127.0440  123.0770   57.5620 C   0  0  0  0  0  0  0  0  0  0  0  0
  127.4830  122.9130   56.5040 N   0  0  0  0  0  0  0  0  0  0  0  0
  1  2  1  0
  2  3  1  0
  3  4  2  0
  3  5  1  0
  5  6  1  0
  6  7  1  0
  7  8  2  0
  7  9  1  0
  9 10  1  0
 10 11  1  0
 11 12  2  0
 12 13  1  0
 13 14  1  0
 13 15  2  0
 15 16  1  0
 16 17  1  0
 16 18  2  0
 18 19  1  0
 19 20  3  0
 18 11  1  0
M  END
>  <Binding energies>  (13) 
[-6.08]

>  <Ligand effiencies>  (13) 
[-0.2895238095238095]

>  <Interactions>  (13) 
["V-B:TYR:539:CE2:9847, V-B:PRO:540:N:9855, V-B:LEU:363:CA:8156, V-B:PRO:540:CB:9856, V-B:PRO:540:CA:9854, V-B:LEU:363:CD1:8160, V-B:TYR:531:CE2:9764, H-B:ALA:541:N:9862, V-B:GLU:543:CD:9879, V-A:HIS:456:CE1:4069, V-B:GLU:543:CG:9878, H-A:TYR:484:OH:4347, V-A:GLY:454:CA:4048, V-A:ARG:545:CZ:4926, V-B:PRO:540:C:9852, V-B:ALA:541:C:9859, V-B:ASN:362:CB:8147, H-A:GLY:454:N:4049, V-A:ARG:545:CD:4923, V-B:ASN:362:CG:8148"]

$$$$
1n_Grossjean_2025
     RDKit          3D

 27 28  0  0  0  0  0  0  0  0999 V2000
  133.5150  130.7440   58.0760 C   0  0  0  0  0  0  0  0  0  0  0  0
  132.3730  131.7660   58.0770 C   0  0  0  0  0  0  0  0  0  0  0  0
  131.5700  131.5770   56.9180 O   0  0  0  0  0  0  0  0  0  0  0  0
  130.6170  132.4800   56.5710 C   0  0  0  0  0  0  0  0  0  0  0  0
  130.7930  133.3660   55.7290 O   0  0  0  0  0  0  0  0  0  0  0  0
  129.3200  132.2840   57.3040 C   0  0  0  0  0  0  0  0  0  0  0  0
  129.0940  132.8390   58.5730 C   0  0  0  0  0  0  0  0  0  0  0  0
  127.8820  132.6360   59.2260 C   0  0  0  0  0  0  0  0  0  0  0  0
  126.8770  131.8710   58.6320 C   0  0  0  0  0  0  0  0  0  0  0  0
  125.6940  131.7260   59.3830 N   0  0  0  0  0  0  0  0  0  0  0  0
  124.4100  131.6620   58.9690 C   0  0  0  0  0  0  0  0  0  0  0  0
  124.0350  131.7140   57.7970 O   0  0  0  0  0  0  0  0  0  0  0  0
  123.3620  131.5060   60.0790 C   0  0  0  0  0  0  0  0  0  0  0  0
  123.9780  131.1340   61.4450 C   0  0  0  0  0  0  0  0  0  0  0  0
  124.0590  132.5060   62.6340 S   0  0  0  0  0  0  0  0  0  0  0  0
  125.5510  133.4190   62.3040 C   0  0  0  0  0  0  0  0  0  0  0  0
  126.6770  132.6690   62.3940 N   0  0  0  0  0  0  0  0  0  0  0  0
  127.8720  133.2560   62.1470 C   0  0  0  0  0  0  0  0  0  0  0  0
  129.0860  132.3530   62.2560 C   0  0  0  0  0  0  0  0  0  0  0  0
  127.9920  134.6020   61.8080 C   0  0  0  0  0  0  0  0  0  0  0  0
  126.8380  135.3890   61.7320 C   0  0  0  0  0  0  0  0  0  0  0  0
  126.9950  136.8650   61.3730 C   0  0  0  0  0  0  0  0  0  0  0  0
  125.5800  134.7990   61.9920 C   0  0  0  0  0  0  0  0  0  0  0  0
  124.3650  135.6150   61.9690 C   0  0  0  0  0  0  0  0  0  0  0  0
  123.4060  136.2620   61.9510 N   0  0  0  0  0  0  0  0  0  0  0  0
  127.0920  131.3220   57.3600 C   0  0  0  0  0  0  0  0  0  0  0  0
  128.3040  131.5290   56.7060 C   0  0  0  0  0  0  0  0  0  0  0  0
  1  2  1  0
  2  3  1  0
  3  4  1  0
  4  5  2  0
  4  6  1  0
  6  7  2  0
  7  8  1  0
  8  9  2  0
  9 10  1  0
 10 11  1  0
 11 12  2  0
 11 13  1  0
 13 14  1  0
 14 15  1  0
 15 16  1  0
 16 17  2  0
 17 18  1  0
 18 19  1  0
 18 20  2  0
 20 21  1  0
 21 22  1  0
 21 23  2  0
 23 24  1  0
 24 25  3  0
  9 26  1  0
 26 27  2  0
 27  6  1  0
 23 16  1  0
M  END
>  <Binding energies>  (14) 
[-8.03]

>  <Ligand effiencies>  (14) 
[-0.28678571428571425]

>  <Interactions>  (14) 
["V-B:ASP:366:CG:8184, V-A:ASP:366:CG:3212, V-A:ASP:366:CB:3211, V-B:ASP:366:CB:8183, V-B:PRO:482:CB:9297, V-B:LEU:475:CD1:9229, V-B:TRP:381:CH2:8343, V-A:PRO:540:CB:4885, V-A:TYR:539:CD2:4874, V-A:ALA:541:CB:4892, V-B:PRO:482:CG:9298, V-B:TRP:381:CZ2:8341, V-A:PRO:540:CA:4883, V-A:TYR:539:C:4867, V-B:ILE:369:CD1:8210, V-B:ILE:369:CG2:8208, V-A:TYR:539:CE2:4876, V-A:TYR:539:CZ:4877, V-B:ASP:366:CA:8181, V-A:TYR:531:CE2:4793, V-A:LEU:363:CD1:3188, V-A:LEU:363:CA:3184, V-A:MET:535:CE:4835, H-A:TYR:539:OH:4878, V-B:ILE:369:CB:8207, H-A:TYR:539:N:4870, V-B:TRP:381:CE2:8338, V-B:TRP:381:CZ3:8342"]

$$$$
1q_Grossjean_2025
     RDKit          3D

 21 21  0  0  0  0  0  0  0  0999 V2000
  127.2920  122.9000   54.6670 C   0  0  0  0  0  0  0  0  0  0  0  0
  127.0970  122.0940   55.8200 O   0  0  0  0  0  0  0  0  0  0  0  0
  125.9480  122.1820   56.5350 C   0  0  0  0  0  0  0  0  0  0  0  0
  124.8400  121.7950   56.1600 O   0  0  0  0  0  0  0  0  0  0  0  0
  126.1140  122.8630   57.9100 C   0  0  0  0  0  0  0  0  0  0  0  0
  127.4570  122.6810   58.4830 N   0  0  0  0  0  0  0  0  0  0  0  0
  127.7650  122.7000   59.7940 C   0  0  0  0  0  0  0  0  0  0  0  0
  126.9270  122.8750   60.6800 O   0  0  0  0  0  0  0  0  0  0  0  0
  129.2440  122.4720   60.1400 C   0  0  0  0  0  0  0  0  0  0  0  0
  129.5680  121.0430   60.6200 C   0  0  0  0  0  0  0  0  0  0  0  0
  131.2990  120.8230   61.1320 S   0  0  0  0  0  0  0  0  0  0  0  0
  132.1030  122.4130   61.1110 C   0  0  0  0  0  0  0  0  0  0  0  0
  132.1480  122.9780   59.8780 N   0  0  0  0  0  0  0  0  0  0  0  0
  132.7380  124.1870   59.7350 C   0  0  0  0  0  0  0  0  0  0  0  0
  132.7640  124.7460   58.3250 C   0  0  0  0  0  0  0  0  0  0  0  0
  133.2920  124.8840   60.8070 C   0  0  0  0  0  0  0  0  0  0  0  0
  133.2290  124.3240   62.0860 C   0  0  0  0  0  0  0  0  0  0  0  0
  133.8280  125.1160   63.2480 C   0  0  0  0  0  0  0  0  0  0  0  0
  132.6160  123.0630   62.2610 C   0  0  0  0  0  0  0  0  0  0  0  0
  132.4900  122.4870   63.6010 C   0  0  0  0  0  0  0  0  0  0  0  0
  132.3920  122.0360   64.6620 N   0  0  0  0  0  0  0  0  0  0  0  0
  1  2  1  0
  2  3  1  0
  3  4  2  0
  3  5  1  0
  5  6  1  0
  6  7  1  0
  7  8  2  0
  7  9  1  0
  9 10  1  0
 10 11  1  0
 11 12  1  0
 12 13  2  0
 13 14  1  0
 14 15  1  0
 14 16  2  0
 16 17  1  0
 17 18  1  0
 17 19  2  0
 19 20  1  0
 20 21  3  0
 19 12  1  0
M  END
>  <Binding energies>  (15) 
[-6.4]

>  <Ligand effiencies>  (15) 
[-0.29090909090909095]

>  <Interactions>  (15) 
["V-B:TYR:539:CD2:9845, V-B:MET:535:CE:9806, V-B:TYR:539:CE2:9847, V-B:TYR:539:C:9838, V-B:PRO:540:CD:9858, V-A:ASP:366:CG:3212, V-B:PRO:540:N:9855, V-A:ILE:369:CG2:3236, V-B:PRO:540:CB:9856, V-A:ASP:366:CB:3211, V-B:PRO:540:CA:9854, V-B:TYR:539:CZ:9848, H-B:ALA:541:N:9862, V-A:ASP:366:CA:3209, V-A:LEU:475:CD2:4258, H-A:TYR:484:OH:4347, V-A:ILE:369:CD1:3238, V-A:GLY:454:CA:4048, V-A:ARG:545:CZ:4926, V-B:TYR:539:CD1:9844, V-B:TYR:539:CE1:9846, V-B:ALA:541:CB:9863, H-B:TYR:539:N:9841, V-A:ASP:366:C:3207"]

$$$$
2a_Grossjean_2025
     RDKit          3D

 29 30  0  0  0  0  0  0  0  0999 V2000
  132.3850  131.2610   56.6580 C   0  0  0  0  0  0  0  0  0  0  0  0
  132.0530  132.4660   57.5440 C   0  0  0  0  0  0  0  0  0  0  0  0
  131.2750  133.3960   56.8000 O   0  0  0  0  0  0  0  0  0  0  0  0
  130.1860  132.9940   56.0960 C   0  0  0  0  0  0  0  0  0  0  0  0
  130.1580  132.9270   54.8630 O   0  0  0  0  0  0  0  0  0  0  0  0
  129.0240  132.6150   56.9690 C   0  0  0  0  0  0  0  0  0  0  0  0
  128.9520  133.0000   58.3160 C   0  0  0  0  0  0  0  0  0  0  0  0
  127.8620  132.6310   59.0990 C   0  0  0  0  0  0  0  0  0  0  0  0
  126.8270  131.8680   58.5570 C   0  0  0  0  0  0  0  0  0  0  0  0
  125.7840  131.5420   59.4430 N   0  0  0  0  0  0  0  0  0  0  0  0
  124.4480  131.6800   59.2990 C   0  0  0  0  0  0  0  0  0  0  0  0
  123.8810  132.1680   58.3210 O   0  0  0  0  0  0  0  0  0  0  0  0
  123.6020  131.1800   60.4750 C   0  0  0  0  0  0  0  0  0  0  0  0
  123.7840  132.1970   61.9790 S   0  0  0  0  0  0  0  0  0  0  0  0
  125.4170  132.9280   62.0190 C   0  0  0  0  0  0  0  0  0  0  0  0
  126.4460  132.0600   62.1900 N   0  0  0  0  0  0  0  0  0  0  0  0
  127.7070  132.5440   62.2430 C   0  0  0  0  0  0  0  0  0  0  0  0
  128.8020  131.5160   62.4620 C   0  0  0  0  0  0  0  0  0  0  0  0
  127.9970  133.9000   62.1210 C   0  0  0  0  0  0  0  0  0  0  0  0
  126.9490  134.8150   61.9350 C   0  0  0  0  0  0  0  0  0  0  0  0
  127.2860  136.3120   61.8010 C   0  0  0  0  0  0  0  0  0  0  0  0
  126.7680  136.9910   62.8240 F   0  0  0  0  0  0  0  0  0  0  0  0
  128.6090  136.4820   61.7920 F   0  0  0  0  0  0  0  0  0  0  0  0
  126.8050  136.8490   60.6760 F   0  0  0  0  0  0  0  0  0  0  0  0
  125.6210  134.3200   61.8810 C   0  0  0  0  0  0  0  0  0  0  0  0
  124.4880  135.2320   61.6920 C   0  0  0  0  0  0  0  0  0  0  0  0
  123.5930  135.9520   61.5430 N   0  0  0  0  0  0  0  0  0  0  0  0
  126.8870  131.4870   57.2090 C   0  0  0  0  0  0  0  0  0  0  0  0
  127.9770  131.8600   56.4260 C   0  0  0  0  0  0  0  0  0  0  0  0
  1  2  1  0
  2  3  1  0
  3  4  1  0
  4  5  2  0
  4  6  1  0
  6  7  2  0
  7  8  1  0
  8  9  2  0
  9 10  1  0
 10 11  1  0
 11 12  2  0
 11 13  1  0
 13 14  1  0
 14 15  1  0
 15 16  2  0
 16 17  1  0
 17 18  1  0
 17 19  2  0
 19 20  1  0
 20 21  1  0
 21 22  1  0
 21 23  1  0
 21 24  1  0
 20 25  2  0
 25 26  1  0
 26 27  3  0
  9 28  1  0
 28 29  2  0
 29  6  1  0
 25 15  1  0
M  END
>  <Binding energies>  (16) 
[-7.73]

>  <Ligand effiencies>  (16) 
[-0.25766666666666665]

>  <Interactions>  (16) 
["V-B:ASP:366:CG:8184, V-B:ASP:366:CB:8183, V-A:PRO:540:N:4884, V-B:PRO:482:CB:9297, V-B:LEU:475:CD1:9229, V-B:TRP:381:CH2:8343, V-A:PRO:540:CB:4885, V-A:TYR:539:CD2:4874, V-A:ALA:541:CB:4892, V-B:PRO:482:CG:9298, V-B:TRP:381:CZ2:8341, V-A:ALA:541:CA:4890, V-A:PRO:540:CA:4883, V-A:TYR:539:C:4867, V-B:ILE:369:CD1:8210, V-B:ILE:369:CG2:8208, V-A:TYR:539:CE2:4876, V-A:TYR:539:CZ:4877, V-B:ASP:366:CA:8181, V-A:TYR:531:CE2:4793, V-A:LEU:363:CD1:3188, V-A:TYR:531:CZ:4794, V-A:MET:535:CE:4835, H-A:TYR:539:OH:4878, H-A:TYR:539:N:4870, V-B:TRP:381:CE2:8338, V-A:TYR:539:CG:4872, V-A:ILE:538:CA:4860, V-A:ILE:538:CB:4862, V-A:PRO:540:CD:4887, V-A:TYR:539:CE1:4875, V-A:ILE:538:C:4858, V-B:TRP:381:CZ3:8342, V-A:PRO:540:C:4881, V-B:TRP:381:CE3:8339, V-A:TYR:539:CB:4871"]

$$$$
2b_Grossjean_2025
     RDKit          3D

 28 29  0  0  0  0  0  0  0  0999 V2000
  132.1330  132.4220   57.3730 C   0  0  0  0  0  0  0  0  0  0  0  0
  131.2490  133.3840   56.8150 O   0  0  0  0  0  0  0  0  0  0  0  0
  130.1550  133.0020   56.1080 C   0  0  0  0  0  0  0  0  0  0  0  0
  130.1160  132.9810   54.8730 O   0  0  0  0  0  0  0  0  0  0  0  0
  128.9950  132.6090   56.9760 C   0  0  0  0  0  0  0  0  0  0  0  0
  128.9220  132.9760   58.3280 C   0  0  0  0  0  0  0  0  0  0  0  0
  127.8330  132.5940   59.1060 C   0  0  0  0  0  0  0  0  0  0  0  0
  126.7950  131.8460   58.5520 C   0  0  0  0  0  0  0  0  0  0  0  0
  125.7460  131.5090   59.4290 N   0  0  0  0  0  0  0  0  0  0  0  0
  124.4170  131.7050   59.2980 C   0  0  0  0  0  0  0  0  0  0  0  0
  123.8690  132.2660   58.3480 O   0  0  0  0  0  0  0  0  0  0  0  0
  123.5630  131.1860   60.4600 C   0  0  0  0  0  0  0  0  0  0  0  0
  123.7530  132.1690   61.9830 S   0  0  0  0  0  0  0  0  0  0  0  0
  125.3730  132.9230   62.0260 C   0  0  0  0  0  0  0  0  0  0  0  0
  126.4140  132.0710   62.2070 N   0  0  0  0  0  0  0  0  0  0  0  0
  127.6690  132.5730   62.2550 C   0  0  0  0  0  0  0  0  0  0  0  0
  128.7740  131.5580   62.4730 C   0  0  0  0  0  0  0  0  0  0  0  0
  127.9400  133.9310   62.1170 C   0  0  0  0  0  0  0  0  0  0  0  0
  126.8800  134.8290   61.9220 C   0  0  0  0  0  0  0  0  0  0  0  0
  127.1970  136.3280   61.7660 C   0  0  0  0  0  0  0  0  0  0  0  0
  128.5180  136.5160   61.7570 F   0  0  0  0  0  0  0  0  0  0  0  0
  126.6880  136.7890   60.6220 F   0  0  0  0  0  0  0  0  0  0  0  0
  126.6930  137.0690   62.7550 F   0  0  0  0  0  0  0  0  0  0  0  0
  125.5580  134.3170   61.8760 C   0  0  0  0  0  0  0  0  0  0  0  0
  124.4120  135.2110   61.6800 C   0  0  0  0  0  0  0  0  0  0  0  0
  123.5070  135.9160   61.5250 N   0  0  0  0  0  0  0  0  0  0  0  0
  126.8630  131.4680   57.2030 C   0  0  0  0  0  0  0  0  0  0  0  0
  127.9530  131.8490   56.4260 C   0  0  0  0  0  0  0  0  0  0  0  0
  1  2  1  0
  2  3  1  0
  3  4  2  0
  3  5  1  0
  5  6  2  0
  6  7  1  0
  7  8  2  0
  8  9  1  0
  9 10  1  0
 10 11  2  0
 10 12  1  0
 12 13  1  0
 13 14  1  0
 14 15  2  0
 15 16  1  0
 16 17  1  0
 16 18  2  0
 18 19  1  0
 19 20  1  0
 20 21  1  0
 20 22  1  0
 20 23  1  0
 19 24  2  0
 24 25  1  0
 25 26  3  0
  8 27  1  0
 27 28  2  0
 28  5  1  0
 24 14  1  0
M  END
>  <Binding energies>  (17) 
[-7.56]

>  <Ligand effiencies>  (17) 
[-0.26068965517241377]

>  <Interactions>  (17) 
["V-B:ASP:366:CG:8184, V-B:ASP:366:CB:8183, V-A:PRO:540:N:4884, V-B:PRO:482:CB:9297, V-B:LEU:475:CD1:9229, V-B:TRP:381:CH2:8343, V-A:PRO:540:CB:4885, V-A:TYR:539:CD2:4874, V-A:ALA:541:CB:4892, V-B:PRO:482:CG:9298, V-B:TRP:381:CZ2:8341, V-A:ALA:541:CA:4890, V-A:PRO:540:CA:4883, V-A:TYR:539:C:4867, V-B:ILE:369:CD1:8210, V-B:ILE:369:CG2:8208, V-A:TYR:539:CE2:4876, V-A:TYR:539:CZ:4877, V-B:ASP:366:CA:8181, V-A:LEU:363:CD1:3188, V-A:MET:535:CE:4835, H-A:TYR:539:OH:4878, V-B:ILE:369:CB:8207, H-A:TYR:539:N:4870, V-B:TRP:381:CE2:8338, V-A:TYR:539:CG:4872, V-A:ILE:538:CA:4860, V-A:ILE:538:CB:4862, V-A:PRO:540:CD:4887, V-A:TYR:539:CE1:4875, V-A:ILE:538:C:4858, V-B:TRP:381:CZ3:8342, V-A:PRO:540:C:4881, V-B:TRP:381:CE3:8339, V-A:TYR:539:CB:4871"]

$$$$
2c_Grossjean_2025
     RDKit          3D

 26 27  0  0  0  0  0  0  0  0999 V2000
  131.6290  132.9690   56.6160 C   0  0  0  0  0  0  0  0  0  0  0  0
  130.3010  133.0170   56.1050 O   0  0  0  0  0  0  0  0  0  0  0  0
  129.2480  132.6800   56.9340 C   0  0  0  0  0  0  0  0  0  0  0  0
  128.2070  131.9560   56.3540 C   0  0  0  0  0  0  0  0  0  0  0  0
  127.1010  131.5710   57.1080 C   0  0  0  0  0  0  0  0  0  0  0  0
  127.0240  131.9210   58.4640 C   0  0  0  0  0  0  0  0  0  0  0  0
  125.9580  131.5630   59.3100 N   0  0  0  0  0  0  0  0  0  0  0  0
  124.6310  131.6940   59.0950 C   0  0  0  0  0  0  0  0  0  0  0  0
  124.1310  132.2220   58.1000 O   0  0  0  0  0  0  0  0  0  0  0  0
  123.7370  131.1620   60.2260 C   0  0  0  0  0  0  0  0  0  0  0  0
  123.8450  132.0720   61.8060 S   0  0  0  0  0  0  0  0  0  0  0  0
  125.4370  132.8770   61.9220 C   0  0  0  0  0  0  0  0  0  0  0  0
  126.4980  132.0550   62.1310 N   0  0  0  0  0  0  0  0  0  0  0  0
  127.7310  132.5950   62.2380 C   0  0  0  0  0  0  0  0  0  0  0  0
  128.8600  131.6140   62.4880 C   0  0  0  0  0  0  0  0  0  0  0  0
  127.9640  133.9650   62.1330 C   0  0  0  0  0  0  0  0  0  0  0  0
  126.8850  134.8320   61.9090 C   0  0  0  0  0  0  0  0  0  0  0  0
  127.1580  136.3440   61.7930 C   0  0  0  0  0  0  0  0  0  0  0  0
  126.6030  136.9880   62.8210 F   0  0  0  0  0  0  0  0  0  0  0  0
  128.4720  136.5740   61.7960 F   0  0  0  0  0  0  0  0  0  0  0  0
  126.6610  136.8730   60.6730 F   0  0  0  0  0  0  0  0  0  0  0  0
  125.5840  134.2790   61.8000 C   0  0  0  0  0  0  0  0  0  0  0  0
  124.4180  135.1390   61.5680 C   0  0  0  0  0  0  0  0  0  0  0  0
  123.4990  135.8180   61.3850 N   0  0  0  0  0  0  0  0  0  0  0  0
  128.0710  132.6320   59.0540 C   0  0  0  0  0  0  0  0  0  0  0  0
  129.1740  133.0140   58.2960 C   0  0  0  0  0  0  0  0  0  0  0  0
  1  2  1  0
  2  3  1  0
  3  4  2  0
  4  5  1  0
  5  6  2  0
  6  7  1  0
  7  8  1  0
  8  9  2  0
  8 10  1  0
 10 11  1  0
 11 12  1  0
 12 13  2  0
 13 14  1  0
 14 15  1  0
 14 16  2  0
 16 17  1  0
 17 18  1  0
 18 19  1  0
 18 20  1  0
 18 21  1  0
 17 22  2  0
 22 23  1  0
 23 24  3  0
  6 25  1  0
 25 26  2  0
 26  3  1  0
 22 12  1  0
M  END
>  <Binding energies>  (18) 
[-6.74]

>  <Ligand effiencies>  (18) 
[-0.24962962962962965]

>  <Interactions>  (18) 
["V-B:ASP:366:CG:8184, V-B:ASP:366:CB:8183, V-A:PRO:540:N:4884, V-B:PRO:482:CB:9297, V-B:LEU:475:CD1:9229, V-B:TRP:381:CH2:8343, V-A:TYR:539:CD2:4874, V-A:ALA:541:CB:4892, V-B:PRO:482:CG:9298, V-B:TRP:381:CZ2:8341, V-A:ALA:541:CA:4890, V-A:TYR:539:C:4867, V-B:ILE:369:CD1:8210, V-B:ILE:369:CG2:8208, V-A:TYR:539:CE2:4876, V-A:TYR:539:CZ:4877, V-B:ASP:366:CA:8181, V-A:LEU:363:CD1:3188, V-A:MET:535:CE:4835, H-A:TYR:539:OH:4878, H-A:TYR:539:N:4870, V-B:TRP:381:CE2:8338, V-A:TYR:539:CG:4872, V-A:ILE:538:CB:4862, V-A:PRO:540:CD:4887, V-A:TYR:539:CE1:4875, V-B:TRP:381:CD2:8336, V-B:TRP:381:CZ3:8342, V-A:PRO:540:C:4881, V-B:TRP:381:CE3:8339, V-A:TYR:539:CB:4871"]

$$$$
2d_Ghoteimi_2023
     RDKit          3D

 38 42  0  0  0  0  0  0  0  0999 V2000
  124.5340  131.8360   59.8550 C   0  0  0  0  0  0  0  0  0  0  0  0
  124.2360  132.8550   60.7980 O   0  0  0  0  0  0  0  0  0  0  0  0
  123.7540  132.5400   62.0180 C   0  0  0  0  0  0  0  0  0  0  0  0
  123.8070  133.2630   63.0170 O   0  0  0  0  0  0  0  0  0  0  0  0
  123.1070  131.1470   62.0200 C   0  0  0  0  0  0  0  0  0  0  0  0
  123.3570  130.3040   63.6200 S   0  0  0  0  0  0  0  0  0  0  0  0
  125.1080  130.1950   63.9270 C   0  0  0  0  0  0  0  0  0  0  0  0
  125.8620  130.5690   62.8650 N   0  0  0  0  0  0  0  0  0  0  0  0
  127.2150  130.5290   62.9550 C   0  0  0  0  0  0  0  0  0  0  0  0
  127.9800  130.9390   61.7380 C   0  0  0  0  0  0  0  0  0  0  0  0
  128.6970  132.1400   61.7180 C   0  0  0  0  0  0  0  0  0  0  0  0
  129.4110  132.5280   60.5870 C   0  0  0  0  0  0  0  0  0  0  0  0
  129.4430  131.7220   59.4390 C   0  0  0  0  0  0  0  0  0  0  0  0
  130.1410  132.1050   58.2880 N   0  0  0  0  0  0  0  0  0  0  0  0
  129.5110  132.9360   57.2440 C   0  0  0  0  0  0  0  0  0  0  0  0
  130.2840  132.9420   55.9080 C   0  0  0  0  0  0  0  0  0  0  0  0
  131.6270  133.3420   56.1290 O   0  0  0  0  0  0  0  0  0  0  0  0
  132.2960  132.4580   57.0130 C   0  0  0  0  0  0  0  0  0  0  0  0
  131.5790  132.4320   58.3800 C   0  0  0  0  0  0  0  0  0  0  0  0
  128.7130  130.5250   59.4590 C   0  0  0  0  0  0  0  0  0  0  0  0
  127.9970  130.1390   60.5890 C   0  0  0  0  0  0  0  0  0  0  0  0
  127.8470  130.1120   64.1300 C   0  0  0  0  0  0  0  0  0  0  0  0
  127.0920  129.7530   65.2530 C   0  0  0  0  0  0  0  0  0  0  0  0
  127.8350  129.3450   66.4830 C   0  0  0  0  0  0  0  0  0  0  0  0
  127.8320  130.1680   67.6110 C   0  0  0  0  0  0  0  0  0  0  0  0
  128.5110  129.7910   68.7660 C   0  0  0  0  0  0  0  0  0  0  0  0
  129.2170  128.5780   68.8240 C   0  0  0  0  0  0  0  0  0  0  0  0
  129.8950  128.1740   69.9780 N   0  0  0  0  0  0  0  0  0  0  0  0
  129.1670  127.7340   71.1840 C   0  0  0  0  0  0  0  0  0  0  0  0
  130.0580  126.9970   72.2060 C   0  0  0  0  0  0  0  0  0  0  0  0
  131.1720  127.8050   72.5520 O   0  0  0  0  0  0  0  0  0  0  0  0
  131.9660  128.1170   71.4180 C   0  0  0  0  0  0  0  0  0  0  0  0
  131.1240  128.8870   70.3780 C   0  0  0  0  0  0  0  0  0  0  0  0
  129.2000  127.7500   67.6940 C   0  0  0  0  0  0  0  0  0  0  0  0
  128.5190  128.1270   66.5390 C   0  0  0  0  0  0  0  0  0  0  0  0
  125.6780  129.7990   65.1590 C   0  0  0  0  0  0  0  0  0  0  0  0
  124.8450  129.4500   66.3130 C   0  0  0  0  0  0  0  0  0  0  0  0
  124.1900  129.1750   67.2280 N   0  0  0  0  0  0  0  0  0  0  0  0
  1  2  1  0
  2  3  1  0
  3  4  2  0
  3  5  1  0
  5  6  1  0
  6  7  1  0
  7  8  2  0
  8  9  1  0
  9 10  1  0
 10 11  2  0
 11 12  1  0
 12 13  2  0
 13 14  1  0
 14 15  1  0
 15 16  1  0
 16 17  1  0
 17 18  1  0
 18 19  1  0
 13 20  1  0
 20 21  2  0
  9 22  2  0
 22 23  1  0
 23 24  1  0
 24 25  2  0
 25 26  1  0
 26 27  2  0
 27 28  1  0
 28 29  1  0
 29 30  1  0
 30 31  1  0
 31 32  1  0
 32 33  1  0
 27 34  1  0
 34 35  2  0
 23 36  2  0
 36 37  1  0
 37 38  3  0
 36  7  1  0
 21 10  1  0
 35 24  1  0
 19 14  1  0
 33 28  1  0
M  END
>  <Binding energies>  (19) 
[-8.93]

>  <Ligand effiencies>  (19) 
[-0.235]

>  <Interactions>  (19) 
["V-B:ASP:366:CG:8184, V-A:PRO:540:N:4884, V-A:GLU:543:CD:4908, V-A:GLU:543:CG:4907, V-A:PRO:540:CB:4885, V-A:TYR:539:CD2:4874, V-A:PRO:540:CA:4883, V-A:TYR:539:C:4867, V-B:ILE:369:CD1:8210, V-A:HIS:456:CD2:4067, H-A:LYS:547:NZ:4951, H-B:GLY:454:N:9021, V-A:HIS:456:CG:4065, V-B:GLU:543:CD:9879, V-B:HIS:456:CE1:9041, H-B:ARG:545:NH1:9898, H-B:ARG:545:NH2:9899, H-B:ARG:545:NE:9895, V-A:GLU:543:CB:4906, V-A:HIS:456:CE1:4069, V-A:GLU:543:C:4902, V-B:TYR:484:CE1:9316, V-B:ILE:369:CG2:8208, V-A:TYR:539:CE2:4876, V-B:ARG:545:CZ:9897, V-B:TYR:484:CZ:9318, V-A:LEU:363:CD1:3188, V-A:MET:535:CE:4835, H-B:TYR:484:OH:9319, V-B:ARG:545:CG:9893, H-A:TYR:539:N:4870, V-A:TYR:539:CG:4872, V-A:ILE:538:CA:4860, V-A:ARG:545:CA:4919, V-A:GLY:544:C:4912, V-A:ILE:538:CB:4862, V-A:PRO:540:CD:4887, V-A:ILE:538:C:4858, V-B:ARG:545:CD:9894, V-A:GLU:543:CA:4904"]

$$$$
2d_Grossjean_2025
     RDKit          3D

 24 25  0  0  0  0  0  0  0  0999 V2000
  132.7280  131.1560   56.1430 C   0  0  0  0  0  0  0  0  0  0  0  0
  132.0620  131.5320   57.4530 C   0  0  0  0  0  0  0  0  0  0  0  0
  132.7570  131.5010   58.6600 C   0  0  0  0  0  0  0  0  0  0  0  0
  132.0970  131.8620   59.8440 C   0  0  0  0  0  0  0  0  0  0  0  0
  132.8850  131.8320   61.1680 C   0  0  0  0  0  0  0  0  0  0  0  0
  132.4030  130.8770   61.9640 F   0  0  0  0  0  0  0  0  0  0  0  0
  134.1740  131.5830   60.9280 F   0  0  0  0  0  0  0  0  0  0  0  0
  132.8170  132.9840   61.8370 F   0  0  0  0  0  0  0  0  0  0  0  0
  130.7330  132.2420   59.7720 C   0  0  0  0  0  0  0  0  0  0  0  0
  130.0130  132.6730   60.9730 C   0  0  0  0  0  0  0  0  0  0  0  0
  129.4450  133.0140   61.9220 N   0  0  0  0  0  0  0  0  0  0  0  0
  130.1020  132.2200   58.5060 C   0  0  0  0  0  0  0  0  0  0  0  0
  128.3890  132.6360   58.2390 S   0  0  0  0  0  0  0  0  0  0  0  0
  127.3820  131.8240   59.5240 C   0  0  0  0  0  0  0  0  0  0  0  0
  126.4360  132.7900   60.2430 C   0  0  0  0  0  0  0  0  0  0  0  0
  125.2300  132.5410   60.2660 O   0  0  0  0  0  0  0  0  0  0  0  0
  127.0160  133.8830   60.7820 N   0  0  0  0  0  0  0  0  0  0  0  0
  126.4260  134.9390   61.5010 C   0  0  0  0  0  0  0  0  0  0  0  0
  127.2560  136.0250   61.7860 C   0  0  0  0  0  0  0  0  0  0  0  0
  126.7650  137.1170   62.4980 C   0  0  0  0  0  0  0  0  0  0  0  0
  125.4420  137.1170   62.9330 C   0  0  0  0  0  0  0  0  0  0  0  0
  124.6080  136.0350   62.6660 C   0  0  0  0  0  0  0  0  0  0  0  0
  125.0960  134.9430   61.9540 C   0  0  0  0  0  0  0  0  0  0  0  0
  130.7600  131.8880   57.3680 N   0  0  0  0  0  0  0  0  0  0  0  0
  1  2  1  0
  2  3  2  0
  3  4  1  0
  4  5  1  0
  5  6  1  0
  5  7  1  0
  5  8  1  0
  4  9  2  0
  9 10  1  0
 10 11  3  0
  9 12  1  0
 12 13  1  0
 13 14  1  0
 14 15  1  0
 15 16  2  0
 15 17  1  0
 17 18  1  0
 18 19  2  0
 19 20  1  0
 20 21  2  0
 21 22  1  0
 22 23  2  0
 12 24  2  0
 24  2  1  0
 23 18  1  0
M  END
>  <Binding energies>  (20) 
[-6.45]

>  <Ligand effiencies>  (20) 
[-0.258]

>  <Interactions>  (20) 
["V-A:ASP:366:CG:3212, V-A:PRO:540:N:4884, V-B:PRO:482:CB:9297, V-B:LEU:475:CD1:9229, V-B:TRP:381:CH2:8343, V-A:PRO:540:CB:4885, V-A:TYR:539:CD2:4874, V-A:ALA:541:CB:4892, V-B:PRO:482:CG:9298, V-B:TRP:381:CZ2:8341, H-A:ALA:541:N:4891, V-A:ALA:541:CA:4890, V-A:PRO:540:CA:4883, V-A:TYR:539:C:4867, V-A:TYR:539:CE2:4876, V-A:TYR:531:CE2:4793, V-A:LEU:363:CD1:3188, V-A:TYR:531:CZ:4794, V-A:LEU:363:CA:3184, H-A:TYR:539:O:4868, V-B:LEU:475:CB:9227, V-B:TRP:381:CE2:8338, V-A:PRO:540:C:4881, V-A:ALA:541:C:4888, V-A:TYR:531:CD2:4791, V-A:ASN:362:CA:3173, V-A:ASN:362:C:3171, V-A:ASN:362:CB:3175"]

$$$$
2e_Grossjean_2025
     RDKit          3D

 25 26  0  0  0  0  0  0  0  0999 V2000
  132.8090  132.0360   62.3680 C   0  0  0  0  0  0  0  0  0  0  0  0
  132.7460  131.8800   60.8610 C   0  0  0  0  0  0  0  0  0  0  0  0
  133.8940  131.6450   60.1000 C   0  0  0  0  0  0  0  0  0  0  0  0
  133.7570  131.4990   58.7190 C   0  0  0  0  0  0  0  0  0  0  0  0
  132.4910  131.5920   58.1370 C   0  0  0  0  0  0  0  0  0  0  0  0
  131.3830  131.8390   58.9570 C   0  0  0  0  0  0  0  0  0  0  0  0
  130.1280  131.8800   58.3250 N   0  0  0  0  0  0  0  0  0  0  0  0
  129.7520  132.6320   57.2670 C   0  0  0  0  0  0  0  0  0  0  0  0
  130.4980  133.3720   56.6250 O   0  0  0  0  0  0  0  0  0  0  0  0
  128.2670  132.5650   56.8970 C   0  0  0  0  0  0  0  0  0  0  0  0
  127.3860  131.2740   57.8330 S   0  0  0  0  0  0  0  0  0  0  0  0
  127.0830  131.9740   59.4400 C   0  0  0  0  0  0  0  0  0  0  0  0
  128.1760  132.0510   60.2380 N   0  0  0  0  0  0  0  0  0  0  0  0
  128.0260  132.5300   61.4940 C   0  0  0  0  0  0  0  0  0  0  0  0
  129.2880  132.5880   62.3330 C   0  0  0  0  0  0  0  0  0  0  0  0
  126.7940  132.9410   62.0000 C   0  0  0  0  0  0  0  0  0  0  0  0
  125.6520  132.8600   61.1900 C   0  0  0  0  0  0  0  0  0  0  0  0
  124.2940  133.2980   61.7700 C   0  0  0  0  0  0  0  0  0  0  0  0
  123.8910  134.4280   61.1880 F   0  0  0  0  0  0  0  0  0  0  0  0
  123.3810  132.3510   61.5570 F   0  0  0  0  0  0  0  0  0  0  0  0
  124.3450  133.5200   63.0860 F   0  0  0  0  0  0  0  0  0  0  0  0
  125.7940  132.3650   59.8690 C   0  0  0  0  0  0  0  0  0  0  0  0
  124.6340  132.2280   58.9830 C   0  0  0  0  0  0  0  0  0  0  0  0
  123.7180  132.1180   58.2830 N   0  0  0  0  0  0  0  0  0  0  0  0
  131.5080  131.9740   60.3090 N   0  0  0  0  0  0  0  0  0  0  0  0
  1  2  1  0
  2  3  2  0
  3  4  1  0
  4  5  2  0
  5  6  1  0
  6  7  1  0
  7  8  1  0
  8  9  2  0
  8 10  1  0
 10 11  1  0
 11 12  1  0
 12 13  2  0
 13 14  1  0
 14 15  1  0
 14 16  2  0
 16 17  1  0
 17 18  1  0
 18 19  1  0
 18 20  1  0
 18 21  1  0
 17 22  2  0
 22 23  1  0
 23 24  3  0
  6 25  2  0
 25  2  1  0
 22 12  1  0
M  END
>  <Binding energies>  (21) 
[-6.7]

>  <Ligand effiencies>  (21) 
[-0.2576923076923077]

>  <Interactions>  (21) 
["V-A:ASP:366:CG:3212, V-A:ASP:366:CB:3211, V-B:LEU:475:CD1:9229, V-A:PRO:540:CB:4885, V-A:TYR:539:CD2:4874, V-A:ALA:541:CB:4892, V-A:ALA:541:CA:4890, V-A:PRO:540:CA:4883, V-A:TYR:539:C:4867, V-B:ILE:369:CD1:8210, V-B:GLY:454:CA:9020, V-B:ILE:369:CG2:8208, V-A:TYR:539:CE2:4876, V-A:TYR:539:CZ:4877, V-A:LEU:363:CD1:3188, V-A:LEU:363:CA:3184, V-A:MET:535:CE:4835, H-A:TYR:539:OH:4878, V-B:ILE:369:CB:8207, H-A:TYR:539:N:4870, V-A:TYR:539:CG:4872, V-A:TYR:539:CD1:4873, V-A:TYR:539:CE1:4875, V-A:ALA:541:C:4888, V-B:ILE:369:CG1:8209, V-A:LEU:363:CB:3186, V-A:ASN:362:C:3171, V-A:ASN:362:CB:3175"]

$$$$
2f_Grossjean_2025
     RDKit          3D

 24 25  0  0  0  0  0  0  0  0999 V2000
  129.0100  121.0360   60.7980 C   0  0  0  0  0  0  0  0  0  0  0  0
  128.5970  122.4520   60.4450 C   0  0  0  0  0  0  0  0  0  0  0  0
  129.3630  123.2460   59.5950 C   0  0  0  0  0  0  0  0  0  0  0  0
  128.9420  124.5530   59.3050 C   0  0  0  0  0  0  0  0  0  0  0  0
  129.8090  125.4190   58.3730 C   0  0  0  0  0  0  0  0  0  0  0  0
  130.1810  126.5380   58.9990 F   0  0  0  0  0  0  0  0  0  0  0  0
  130.9010  124.7450   58.0100 F   0  0  0  0  0  0  0  0  0  0  0  0
  129.1700  125.7800   57.2580 F   0  0  0  0  0  0  0  0  0  0  0  0
  127.7360  125.0220   59.8880 C   0  0  0  0  0  0  0  0  0  0  0  0
  127.2850  126.3970   59.6620 C   0  0  0  0  0  0  0  0  0  0  0  0
  126.9280  127.4840   59.4830 N   0  0  0  0  0  0  0  0  0  0  0  0
  127.0100  124.1360   60.7190 C   0  0  0  0  0  0  0  0  0  0  0  0
  125.4750  124.5510   61.5220 S   0  0  0  0  0  0  0  0  0  0  0  0
  124.1070  123.9720   60.4610 C   0  0  0  0  0  0  0  0  0  0  0  0
  124.3940  124.0020   58.9530 C   0  0  0  0  0  0  0  0  0  0  0  0
  123.6750  124.6460   58.1890 O   0  0  0  0  0  0  0  0  0  0  0  0
  125.4590  123.2640   58.5720 N   0  0  0  0  0  0  0  0  0  0  0  0
  126.0040  123.0770   57.2880 C   0  0  0  0  0  0  0  0  0  0  0  0
  127.0770  123.8060   56.7420 C   0  0  0  0  0  0  0  0  0  0  0  0
  127.5260  123.5140   55.4520 C   0  0  0  0  0  0  0  0  0  0  0  0
  126.8920  122.4960   54.7390 C   0  0  0  0  0  0  0  0  0  0  0  0
  125.8610  121.7730   55.2450 N   0  0  0  0  0  0  0  0  0  0  0  0
  125.4370  122.0680   56.5010 C   0  0  0  0  0  0  0  0  0  0  0  0
  127.4440  122.8840   61.0050 N   0  0  0  0  0  0  0  0  0  0  0  0
  1  2  1  0
  2  3  2  0
  3  4  1  0
  4  5  1  0
  5  6  1  0
  5  7  1  0
  5  8  1  0
  4  9  2  0
  9 10  1  0
 10 11  3  0
  9 12  1  0
 12 13  1  0
 13 14  1  0
 14 15  1  0
 15 16  2  0
 15 17  1  0
 17 18  1  0
 18 19  2  0
 19 20  1  0
 20 21  2  0
 21 22  1  0
 22 23  2  0
 12 24  2  0
 24  2  1  0
 23 18  1  0
M  END
>  <Binding energies>  (22) 
[-6.29]

>  <Ligand effiencies>  (22) 
[-0.2516]

>  <Interactions>  (22) 
["V-B:TYR:539:CD2:9845, V-B:MET:535:CE:9806, V-B:TYR:539:CE2:9847, V-B:TYR:539:C:9838, V-B:PRO:540:CD:9858, V-B:PRO:540:N:9855, V-B:LEU:363:CA:8156, V-B:PRO:540:CB:9856, H-B:TYR:531:OH:9766, V-B:PRO:540:CA:9854, V-B:LEU:363:CD1:8160, V-B:TYR:539:CZ:9848, H-B:ALA:541:N:9862, H-B:ARG:545:NH2:9899, V-B:TYR:539:CD1:9844, V-B:TYR:539:CE1:9846, V-B:ALA:541:CB:9863, H-B:TYR:539:N:9841, V-B:PRO:540:C:9852, V-B:ALA:541:CA:9861, V-B:ASN:362:CB:8147, V-B:ASN:362:C:8143, V-B:PRO:540:CG:9857, V-B:ILE:538:CA:9831, V-B:ILE:538:CD1:9836"]

$$$$
2g_Grossjean_2025
     RDKit          3D

 25 26  0  0  0  0  0  0  0  0999 V2000
  132.8070  125.1070   58.3700 C   0  0  0  0  0  0  0  0  0  0  0  0
  132.6740  124.4390   59.7260 C   0  0  0  0  0  0  0  0  0  0  0  0
  133.1230  125.0580   60.8900 C   0  0  0  0  0  0  0  0  0  0  0  0
  132.9840  124.3960   62.1200 C   0  0  0  0  0  0  0  0  0  0  0  0
  133.4950  125.0920   63.3970 C   0  0  0  0  0  0  0  0  0  0  0  0
  134.7540  125.4990   63.2290 F   0  0  0  0  0  0  0  0  0  0  0  0
  132.7310  126.1500   63.6710 F   0  0  0  0  0  0  0  0  0  0  0  0
  133.4740  124.2910   64.4650 F   0  0  0  0  0  0  0  0  0  0  0  0
  132.3790  123.1130   62.1360 C   0  0  0  0  0  0  0  0  0  0  0  0
  132.2620  122.3550   63.3840 C   0  0  0  0  0  0  0  0  0  0  0  0
  132.1690  121.7570   64.3710 N   0  0  0  0  0  0  0  0  0  0  0  0
  131.9260  122.5760   60.9060 C   0  0  0  0  0  0  0  0  0  0  0  0
  131.1240  120.9950   60.7490 S   0  0  0  0  0  0  0  0  0  0  0  0
  129.4170  121.1820   61.3670 C   0  0  0  0  0  0  0  0  0  0  0  0
  128.5760  122.2290   60.6230 C   0  0  0  0  0  0  0  0  0  0  0  0
  127.4410  122.5280   61.0000 O   0  0  0  0  0  0  0  0  0  0  0  0
  129.1610  122.7790   59.5430 N   0  0  0  0  0  0  0  0  0  0  0  0
  128.5640  123.8010   58.6820 C   0  0  0  0  0  0  0  0  0  0  0  0
  127.3340  123.3330   57.9110 C   0  0  0  0  0  0  0  0  0  0  0  0
  126.0620  123.7580   58.3080 C   0  0  0  0  0  0  0  0  0  0  0  0
  124.9400  123.3630   57.5830 C   0  0  0  0  0  0  0  0  0  0  0  0
  125.0940  122.5540   56.4600 C   0  0  0  0  0  0  0  0  0  0  0  0
  126.3600  122.1380   56.0520 C   0  0  0  0  0  0  0  0  0  0  0  0
  127.4820  122.5330   56.7760 C   0  0  0  0  0  0  0  0  0  0  0  0
  132.0890  123.2200   59.7240 N   0  0  0  0  0  0  0  0  0  0  0  0
  1  2  1  0
  2  3  2  0
  3  4  1  0
  4  5  1  0
  5  6  1  0
  5  7  1  0
  5  8  1  0
  4  9  2  0
  9 10  1  0
 10 11  3  0
  9 12  1  0
 12 13  1  0
 13 14  1  0
 14 15  1  0
 15 16  2  0
 15 17  1  0
 17 18  1  0
 18 19  1  0
 19 20  2  0
 20 21  1  0
 21 22  2  0
 22 23  1  0
 23 24  2  0
 12 25  2  0
 25  2  1  0
 24 19  1  0
M  END
>  <Binding energies>  (23) 
[-6.8]

>  <Ligand effiencies>  (23) 
[-0.26153846153846155]

>  <Interactions>  (23) 
["V-B:TYR:539:CD2:9845, V-B:MET:535:CE:9806, V-B:TYR:539:CE2:9847, V-B:TYR:539:C:9838, V-B:PRO:540:CD:9858, V-A:ASP:366:CG:3212, V-B:PRO:540:N:9855, V-A:ILE:369:CG2:3236, V-B:PRO:540:CB:9856, V-A:ASP:366:CB:3211, V-B:PRO:540:CA:9854, V-B:LEU:363:CD1:8160, V-B:TYR:539:CZ:9848, H-B:ALA:541:N:9862, V-A:ASP:366:CA:3209, V-A:LEU:475:CD2:4258, H-A:TYR:484:OH:4347, V-A:ILE:369:CD1:3238, V-A:GLY:454:CA:4048, V-A:ARG:545:CZ:4926, V-B:TYR:539:CA:9840, V-B:TYR:539:CD1:9844, V-B:TYR:539:CG:9843, V-B:TYR:539:CE1:9846, V-B:ALA:541:CB:9863, V-B:PRO:540:C:9852, V-B:ALA:541:CA:9861, V-A:ASP:366:C:3207, V-B:ILE:538:CA:9831, V-A:GLY:453:CA:4043, V-A:GLY:453:C:4041"]

$$$$
2h_Grossjean_2025
     RDKit          3D

 31 32  0  0  0  0  0  0  0  0999 V2000
  130.1730  119.2920   61.0170 C   0  0  0  0  0  0  0  0  0  0  0  0
  130.6310  120.5850   60.6390 O   0  0  0  0  0  0  0  0  0  0  0  0
  129.8040  121.6790   60.8230 C   0  0  0  0  0  0  0  0  0  0  0  0
  128.9940  122.2260   59.8150 C   0  0  0  0  0  0  0  0  0  0  0  0
  128.1790  123.3250   60.0780 C   0  0  0  0  0  0  0  0  0  0  0  0
  128.1540  123.9010   61.3490 C   0  0  0  0  0  0  0  0  0  0  0  0
  127.2370  125.0920   61.6180 C   0  0  0  0  0  0  0  0  0  0  0  0
  125.9480  125.0080   60.9310 N   0  0  0  0  0  0  0  0  0  0  0  0
  125.1320  123.9400   60.9520 C   0  0  0  0  0  0  0  0  0  0  0  0
  125.4280  122.8740   61.4960 O   0  0  0  0  0  0  0  0  0  0  0  0
  123.7770  124.1270   60.2550 C   0  0  0  0  0  0  0  0  0  0  0  0
  123.8250  124.0150   58.4350 S   0  0  0  0  0  0  0  0  0  0  0  0
  125.2580  124.9260   57.9010 C   0  0  0  0  0  0  0  0  0  0  0  0
  125.3480  126.1660   58.4410 N   0  0  0  0  0  0  0  0  0  0  0  0
  126.3890  126.9520   58.0880 C   0  0  0  0  0  0  0  0  0  0  0  0
  126.4210  128.3290   58.7250 C   0  0  0  0  0  0  0  0  0  0  0  0
  127.3770  126.5370   57.1970 C   0  0  0  0  0  0  0  0  0  0  0  0
  127.3120  125.2490   56.6440 C   0  0  0  0  0  0  0  0  0  0  0  0
  128.4180  124.8050   55.6680 C   0  0  0  0  0  0  0  0  0  0  0  0
  127.9730  123.8120   54.8980 F   0  0  0  0  0  0  0  0  0  0  0  0
  128.8190  125.7890   54.8600 F   0  0  0  0  0  0  0  0  0  0  0  0
  129.4850  124.3820   56.3460 F   0  0  0  0  0  0  0  0  0  0  0  0
  126.2290  124.4090   57.0100 C   0  0  0  0  0  0  0  0  0  0  0  0
  126.1460  123.0360   56.5070 C   0  0  0  0  0  0  0  0  0  0  0  0
  126.0850  121.9500   56.1110 N   0  0  0  0  0  0  0  0  0  0  0  0
  128.9760  123.3790   62.3590 C   0  0  0  0  0  0  0  0  0  0  0  0
  128.9590  123.9420   63.6130 O   0  0  0  0  0  0  0  0  0  0  0  0
  130.0670  124.7900   63.8900 C   0  0  0  0  0  0  0  0  0  0  0  0
  129.7830  122.2580   62.0980 C   0  0  0  0  0  0  0  0  0  0  0  0
  130.5750  121.7330   63.0910 O   0  0  0  0  0  0  0  0  0  0  0  0
  131.9400  122.1180   63.0090 C   0  0  0  0  0  0  0  0  0  0  0  0
  1  2  1  0
  2  3  1  0
  3  4  2  0
  4  5  1  0
  5  6  2  0
  6  7  1  0
  7  8  1  0
  8  9  1  0
  9 10  2  0
  9 11  1  0
 11 12  1  0
 12 13  1  0
 13 14  2  0
 14 15  1  0
 15 16  1  0
 15 17  2  0
 17 18  1  0
 18 19  1  0
 19 20  1  0
 19 21  1  0
 19 22  1  0
 18 23  2  0
 23 24  1  0
 24 25  3  0
  6 26  1  0
 26 27  1  0
 27 28  1  0
 26 29  2  0
 29 30  1  0
 30 31  1  0
 29  3  1  0
 23 13  1  0
M  END
>  <Binding energies>  (24) 
[-6.35]

>  <Ligand effiencies>  (24) 
[-0.1984375]

>  <Interactions>  (24) 
["V-B:TYR:539:CD2:9845, V-B:MET:535:CE:9806, V-B:ASP:366:CG:8184, V-B:TYR:539:CE2:9847, H-B:ASP:366:OD2:8186, V-B:LEU:363:CA:8156, V-B:PRO:540:CB:9856, H-B:TYR:531:OH:9766, V-B:PRO:540:CA:9854, V-B:TYR:539:CZ:9848, H-B:ALA:541:N:9862, V-A:LEU:475:CD2:4258, V-B:TYR:539:CD1:9844, V-B:TYR:539:CE1:9846, V-B:ALA:541:CB:9863, V-A:TRP:381:CH2:3371, H-B:TYR:539:N:9841, V-A:PRO:482:CG:4326, V-A:TRP:381:CZ2:3369, V-A:PRO:482:CB:4325, V-B:ASN:362:CB:8147, V-B:ASN:362:C:8143, H-B:LEU:363:N:8157"]

$$$$
2i_Grossjean_2025
     RDKit          3D

 23 24  0  0  0  0  0  0  0  0999 V2000
  127.6940  137.4220   60.7380 C   0  0  0  0  0  0  0  0  0  0  0  0
  127.0660  136.1950   61.3740 C   0  0  0  0  0  0  0  0  0  0  0  0
  125.7000  136.1250   61.6310 C   0  0  0  0  0  0  0  0  0  0  0  0
  125.1670  134.9670   62.2180 C   0  0  0  0  0  0  0  0  0  0  0  0
  123.6530  134.9060   62.4970 C   0  0  0  0  0  0  0  0  0  0  0  0
  123.1140  133.8640   61.8630 F   0  0  0  0  0  0  0  0  0  0  0  0
  123.4340  134.7780   63.8060 F   0  0  0  0  0  0  0  0  0  0  0  0
  123.0090  136.0020   62.0890 F   0  0  0  0  0  0  0  0  0  0  0  0
  126.0480  133.9000   62.5310 C   0  0  0  0  0  0  0  0  0  0  0  0
  125.5450  132.6670   63.1440 C   0  0  0  0  0  0  0  0  0  0  0  0
  125.1480  131.6930   63.6280 N   0  0  0  0  0  0  0  0  0  0  0  0
  127.4220  134.0570   62.2370 C   0  0  0  0  0  0  0  0  0  0  0  0
  128.6240  132.7850   62.5930 S   0  0  0  0  0  0  0  0  0  0  0  0
  128.7770  131.7250   61.1240 C   0  0  0  0  0  0  0  0  0  0  0  0
  129.8690  132.2120   60.1690 C   0  0  0  0  0  0  0  0  0  0  0  0
  130.9300  132.6310   60.6360 O   0  0  0  0  0  0  0  0  0  0  0  0
  129.5640  132.1670   58.8550 N   0  0  0  0  0  0  0  0  0  0  0  0
  130.3730  132.5650   57.8030 C   0  0  0  0  0  0  0  0  0  0  0  0
  131.7040  132.2350   57.5130 C   0  0  0  0  0  0  0  0  0  0  0  0
  131.9870  132.9140   56.3500 C   0  0  0  0  0  0  0  0  0  0  0  0
  130.8890  133.6050   55.9620 O   0  0  0  0  0  0  0  0  0  0  0  0
  129.8730  133.3690   56.8900 N   0  0  0  0  0  0  0  0  0  0  0  0
  127.9170  135.1860   61.6670 N   0  0  0  0  0  0  0  0  0  0  0  0
  1  2  1  0
  2  3  2  0
  3  4  1  0
  4  5  1  0
  5  6  1  0
  5  7  1  0
  5  8  1  0
  4  9  2  0
  9 10  1  0
 10 11  3  0
  9 12  1  0
 12 13  1  0
 13 14  1  0
 14 15  1  0
 15 16  2  0
 15 17  1  0
 17 18  1  0
 18 19  1  0
 19 20  2  0
 20 21  1  0
 21 22  1  0
 12 23  2  0
 23  2  1  0
 22 18  2  0
M  END
>  <Binding energies>  (25) 
[-6.82]

>  <Ligand effiencies>  (25) 
[-0.2841666666666667]

>  <Interactions>  (25) 
["V-A:PRO:540:N:4884, V-B:PRO:482:CB:9297, V-B:LEU:475:CD1:9229, V-B:TRP:381:CH2:8343, V-A:PRO:540:CB:4885, V-A:TYR:539:CD2:4874, V-A:ALA:541:CB:4892, V-B:PRO:482:CG:9298, V-B:TRP:381:CZ2:8341, H-A:ALA:541:N:4891, V-A:PRO:540:CA:4883, V-A:TYR:539:C:4867, V-B:ILE:369:CD1:8210, V-B:GLY:454:CA:9020, V-B:ILE:369:CG2:8208, V-A:LEU:363:CD1:3188, V-B:ILE:369:CB:8207, H-A:TYR:539:N:4870, V-B:LEU:475:CG:9228, V-B:SER:385:CB:8380, V-B:SER:385:CA:8378, V-B:TRP:381:CE2:8338, V-A:TYR:539:CG:4872, V-B:SER:385:C:8376, V-A:ILE:538:CB:4862, V-A:PRO:540:CD:4887, V-B:TRP:381:CD2:8336, V-B:TRP:381:CZ3:8342, V-B:TRP:381:CE3:8339, V-A:TYR:539:CB:4871, V-B:ILE:369:CG1:8209"]

$$$$
2k_Grossjean_2025
     RDKit          3D

 28 28  0  0  0  0  0  0  0  0999 V2000
  126.6590  122.3140   54.6680 C   0  0  0  0  0  0  0  0  0  0  0  0
  125.9260  121.7970   55.7680 O   0  0  0  0  0  0  0  0  0  0  0  0
  126.1440  122.5080   56.9790 C   0  0  0  0  0  0  0  0  0  0  0  0
  127.6470  122.7430   57.1790 C   0  0  0  0  0  0  0  0  0  0  0  0
  127.8580  124.0970   57.5510 O   0  0  0  0  0  0  0  0  0  0  0  0
  126.6810  124.7810   57.9620 C   0  0  0  0  0  0  0  0  0  0  0  0
  126.7830  126.2420   57.5050 C   0  0  0  0  0  0  0  0  0  0  0  0
  127.3970  126.2550   56.2250 O   0  0  0  0  0  0  0  0  0  0  0  0
  127.9450  127.5030   55.8310 C   0  0  0  0  0  0  0  0  0  0  0  0
  128.7570  128.0860   57.0030 C   0  0  0  0  0  0  0  0  0  0  0  0
  128.6040  129.5370   57.1390 N   0  0  0  0  0  0  0  0  0  0  0  0
  127.4570  130.2230   56.9730 C   0  0  0  0  0  0  0  0  0  0  0  0
  126.3790  129.6870   56.7090 O   0  0  0  0  0  0  0  0  0  0  0  0
  127.5680  131.7480   57.1100 C   0  0  0  0  0  0  0  0  0  0  0  0
  128.2730  132.3430   58.6860 S   0  0  0  0  0  0  0  0  0  0  0  0
  130.0340  132.0370   58.7030 C   0  0  0  0  0  0  0  0  0  0  0  0
  130.5980  131.7780   57.4950 N   0  0  0  0  0  0  0  0  0  0  0  0
  131.9250  131.5320   57.4330 C   0  0  0  0  0  0  0  0  0  0  0  0
  132.4760  131.2400   56.0510 C   0  0  0  0  0  0  0  0  0  0  0  0
  132.7450  131.5460   58.5580 C   0  0  0  0  0  0  0  0  0  0  0  0
  132.1850  131.8200   59.8160 C   0  0  0  0  0  0  0  0  0  0  0  0
  133.1080  131.8370   61.0500 C   0  0  0  0  0  0  0  0  0  0  0  0
  133.0620  132.9930   61.7140 F   0  0  0  0  0  0  0  0  0  0  0  0
  132.7510  130.8720   61.9000 F   0  0  0  0  0  0  0  0  0  0  0  0
  134.3730  131.6380   60.6770 F   0  0  0  0  0  0  0  0  0  0  0  0
  130.7920  132.0720   59.8970 C   0  0  0  0  0  0  0  0  0  0  0  0
  130.1540  132.3600   61.1850 C   0  0  0  0  0  0  0  0  0  0  0  0
  129.6510  132.5880   62.2030 N   0  0  0  0  0  0  0  0  0  0  0  0
  1  2  1  0
  2  3  1  0
  3  4  1  0
  4  5  1  0
  5  6  1  0
  6  7  1  0
  7  8  1  0
  8  9  1  0
  9 10  1  0
 10 11  1  0
 11 12  1  0
 12 13  2  0
 12 14  1  0
 14 15  1  0
 15 16  1  0
 16 17  2  0
 17 18  1  0
 18 19  1  0
 18 20  2  0
 20 21  1  0
 21 22  1  0
 22 23  1  0
 22 24  1  0
 22 25  1  0
 21 26  2  0
 26 27  1  0
 27 28  3  0
 26 16  1  0
M  END
>  <Binding energies>  (26) 
[-5.24]

>  <Ligand effiencies>  (26) 
[-0.1806896551724138]

>  <Interactions>  (26) 
["V-B:TYR:539:CD2:9845, V-B:MET:535:CE:9806, V-B:TYR:539:CE2:9847, V-B:TYR:539:C:9838, V-B:PRO:540:CD:9858, V-A:ASP:366:CG:3212, V-B:PRO:540:N:9855, V-B:PRO:540:CB:9856, H-B:TYR:531:OH:9766, V-B:PRO:540:CA:9854, V-B:TYR:539:CZ:9848, V-A:PRO:540:CB:4885, H-A:ALA:541:N:4891, V-A:ALA:541:CA:4890, V-A:PRO:540:CA:4883, V-A:TYR:539:CE2:4876, V-A:TYR:539:CZ:4877, V-A:ARG:545:CZ:4926, V-B:TYR:539:CD1:9844, V-B:TYR:539:CG:9843, V-B:TYR:539:CE1:9846, H-B:TYR:539:N:9841, V-A:TYR:531:CE2:4793, V-A:LEU:363:CD1:3188, V-A:TYR:531:CZ:4794, V-A:LEU:363:CA:3184, V-A:MET:535:CE:4835, V-B:ILE:538:CA:9831, V-B:ILE:538:CD1:9836, V-A:PRO:540:C:4881, V-A:ALA:541:C:4888, V-A:ASN:362:CA:3173, V-A:ASN:362:C:3171, V-A:ASN:362:CB:3175"]

$$$$
3aa_Grossjean_2025
     RDKit          3D

 34 36  0  0  0  0  0  0  0  0999 V2000
  131.9970  125.5120   65.7470 C   0  0  0  0  0  0  0  0  0  0  0  0
  133.4590  125.2960   65.3450 C   0  0  0  0  0  0  0  0  0  0  0  0
  133.5190  124.4240   64.2220 O   0  0  0  0  0  0  0  0  0  0  0  0
  134.0230  124.8470   63.0350 C   0  0  0  0  0  0  0  0  0  0  0  0
  135.2160  125.1160   62.8600 O   0  0  0  0  0  0  0  0  0  0  0  0
  132.9840  124.9710   61.9580 C   0  0  0  0  0  0  0  0  0  0  0  0
  131.7780  125.6590   62.1650 C   0  0  0  0  0  0  0  0  0  0  0  0
  130.8380  125.7590   61.1430 C   0  0  0  0  0  0  0  0  0  0  0  0
  131.0840  125.1830   59.8960 C   0  0  0  0  0  0  0  0  0  0  0  0
  130.0690  125.3470   58.9310 N   0  0  0  0  0  0  0  0  0  0  0  0
  130.1700  125.4830   57.5910 C   0  0  0  0  0  0  0  0  0  0  0  0
  131.2230  125.5110   56.9530 O   0  0  0  0  0  0  0  0  0  0  0  0
  128.8450  125.6220   56.8410 C   0  0  0  0  0  0  0  0  0  0  0  0
  127.8910  124.0740   56.8610 S   0  0  0  0  0  0  0  0  0  0  0  0
  127.4150  123.7770   58.5500 C   0  0  0  0  0  0  0  0  0  0  0  0
  128.4330  123.3510   59.3340 N   0  0  0  0  0  0  0  0  0  0  0  0
  128.2060  123.0850   60.6470 C   0  0  0  0  0  0  0  0  0  0  0  0
  129.3860  122.6320   61.4520 C   0  0  0  0  0  0  0  0  0  0  0  0
  130.3590  121.7920   60.8850 C   0  0  0  0  0  0  0  0  0  0  0  0
  131.4590  121.3680   61.6260 C   0  0  0  0  0  0  0  0  0  0  0  0
  131.6010  121.7780   62.9470 C   0  0  0  0  0  0  0  0  0  0  0  0
  130.6520  122.6120   63.5310 C   0  0  0  0  0  0  0  0  0  0  0  0
  129.5550  123.0370   62.7870 C   0  0  0  0  0  0  0  0  0  0  0  0
  126.9350  123.2520   61.2040 C   0  0  0  0  0  0  0  0  0  0  0  0
  125.8600  123.6760   60.4070 C   0  0  0  0  0  0  0  0  0  0  0  0
  124.4720  123.8370   61.0550 C   0  0  0  0  0  0  0  0  0  0  0  0
  123.4720  123.6700   60.1870 F   0  0  0  0  0  0  0  0  0  0  0  0
  124.3100  122.9380   62.0260 F   0  0  0  0  0  0  0  0  0  0  0  0
  124.3530  125.0600   61.5750 F   0  0  0  0  0  0  0  0  0  0  0  0
  126.0980  123.9360   59.0350 C   0  0  0  0  0  0  0  0  0  0  0  0
  125.0020  124.3250   58.1430 C   0  0  0  0  0  0  0  0  0  0  0  0
  124.1370  124.6320   57.4380 N   0  0  0  0  0  0  0  0  0  0  0  0
  132.2810  124.4830   59.6860 C   0  0  0  0  0  0  0  0  0  0  0  0
  133.2190  124.3820   60.7090 C   0  0  0  0  0  0  0  0  0  0  0  0
  1  2  1  0
  2  3  1  0
  3  4  1  0
  4  5  2  0
  4  6  1  0
  6  7  2  0
  7  8  1  0
  8  9  2  0
  9 10  1  0
 10 11  1  0
 11 12  2  0
 11 13  1  0
 13 14  1  0
 14 15  1  0
 15 16  2  0
 16 17  1  0
 17 18  1  0
 18 19  2  0
 19 20  1  0
 20 21  2  0
 21 22  1  0
 22 23  2  0
 17 24  2  0
 24 25  1  0
 25 26  1  0
 26 27  1  0
 26 28  1  0
 26 29  1  0
 25 30  2  0
 30 31  1  0
 31 32  3  0
  9 33  1  0
 33 34  2  0
 34  6  1  0
 30 15  1  0
 23 18  1  0
M  END
>  <Binding energies>  (27) 
[-7.69]

>  <Ligand effiencies>  (27) 
[-0.21971428571428572]

>  <Interactions>  (27) 
["V-B:TYR:539:CD2:9845, V-B:ASP:366:CG:8184, V-B:TYR:539:CE2:9847, V-A:ASP:366:CG:3212, V-A:ILE:369:CG2:3236, V-B:LEU:363:CA:8156, V-B:PRO:540:CB:9856, H-B:TYR:531:OH:9766, V-B:PRO:540:CA:9854, V-B:TYR:539:CZ:9848, V-A:LEU:475:CD2:4258, H-B:TYR:539:OH:9849, H-A:TYR:484:OH:4347, V-A:ILE:369:CD1:3238, V-A:ARG:545:CZ:4926, V-B:ALA:541:CB:9863, V-B:PRO:540:C:9852, V-B:ALA:541:C:9859, V-B:ASN:362:CB:8147, H-A:TYR:531:OH:4795, V-B:ARG:545:CZ:9897, V-B:ASN:362:C:8143, V-B:LEU:363:CB:8158, H-A:ARG:545:NH1:4927, H-A:GLY:454:N:4049, V-B:ASN:362:CA:8145, V-A:ARG:545:CD:4923, V-A:GLY:453:CA:4043, V-B:ASN:362:CG:8148"]

$$$$
3ad_Grossjean_2025
     RDKit          3D

 29 31  0  0  0  0  0  0  0  0999 V2000
  132.1070  130.4780   58.2090 N   0  0  0  0  0  0  0  0  0  0  0  0
  131.3050  131.1420   58.7140 C   0  0  0  0  0  0  0  0  0  0  0  0
  130.2910  131.9830   59.3580 C   0  0  0  0  0  0  0  0  0  0  0  0
  130.3520  132.2550   60.7460 C   0  0  0  0  0  0  0  0  0  0  0  0
  131.4870  131.7340   61.6480 C   0  0  0  0  0  0  0  0  0  0  0  0
  131.5120  130.4030   61.7350 F   0  0  0  0  0  0  0  0  0  0  0  0
  132.6670  132.1280   61.1650 F   0  0  0  0  0  0  0  0  0  0  0  0
  131.3450  132.2120   62.8860 F   0  0  0  0  0  0  0  0  0  0  0  0
  129.3310  133.0260   61.3220 C   0  0  0  0  0  0  0  0  0  0  0  0
  128.2790  133.5090   60.5360 C   0  0  0  0  0  0  0  0  0  0  0  0
  127.1560  134.3250   61.1030 C   0  0  0  0  0  0  0  0  0  0  0  0
  127.4100  135.5470   61.7460 C   0  0  0  0  0  0  0  0  0  0  0  0
  126.3720  136.3100   62.2730 C   0  0  0  0  0  0  0  0  0  0  0  0
  125.0590  135.8590   62.1640 C   0  0  0  0  0  0  0  0  0  0  0  0
  124.7810  134.6530   61.5290 C   0  0  0  0  0  0  0  0  0  0  0  0
  125.8230  133.8940   61.0030 C   0  0  0  0  0  0  0  0  0  0  0  0
  128.2230  133.2400   59.2070 N   0  0  0  0  0  0  0  0  0  0  0  0
  129.2070  132.5160   58.6250 C   0  0  0  0  0  0  0  0  0  0  0  0
  128.9770  132.2730   56.8780 S   0  0  0  0  0  0  0  0  0  0  0  0
  128.2850  130.6070   56.6510 C   0  0  0  0  0  0  0  0  0  0  0  0
  126.8330  130.5140   57.1250 C   0  0  0  0  0  0  0  0  0  0  0  0
  125.9970  129.9860   56.3920 O   0  0  0  0  0  0  0  0  0  0  0  0
  126.5870  131.0380   58.3450 N   0  0  0  0  0  0  0  0  0  0  0  0
  125.3840  131.1040   59.0710 C   0  0  0  0  0  0  0  0  0  0  0  0
  125.4700  130.7430   60.4190 C   0  0  0  0  0  0  0  0  0  0  0  0
  124.3360  130.7690   61.2280 C   0  0  0  0  0  0  0  0  0  0  0  0
  123.1120  131.1520   60.6870 C   0  0  0  0  0  0  0  0  0  0  0  0
  123.0110  131.5070   59.3450 C   0  0  0  0  0  0  0  0  0  0  0  0
  124.1420  131.4820   58.5320 C   0  0  0  0  0  0  0  0  0  0  0  0
  1  2  3  0
  2  3  1  0
  3  4  2  0
  4  5  1  0
  5  6  1  0
  5  7  1  0
  5  8  1  0
  4  9  1  0
  9 10  2  0
 10 11  1  0
 11 12  2  0
 12 13  1  0
 13 14  2  0
 14 15  1  0
 15 16  2  0
 10 17  1  0
 17 18  2  0
 18 19  1  0
 19 20  1  0
 20 21  1  0
 21 22  2  0
 21 23  1  0
 23 24  1  0
 24 25  2  0
 25 26  1  0
 26 27  2  0
 27 28  1  0
 28 29  2  0
 18  3  1  0
 29 24  1  0
 16 11  1  0
M  END
>  <Binding energies>  (28) 
[-7.42]

>  <Ligand effiencies>  (28) 
[-0.24733333333333332]

>  <Interactions>  (28) 
["V-B:ASP:366:CG:8184, H-B:TYR:531:OH:9766, V-B:ASP:366:CB:8183, V-A:GLU:543:CD:4908, V-B:PRO:482:CB:9297, V-B:LEU:475:CD1:9229, V-B:TRP:381:CH2:8343, V-A:GLU:543:CG:4907, V-A:PRO:540:CB:4885, V-A:TYR:539:CD2:4874, V-A:ALA:541:CB:4892, V-B:TRP:381:CZ2:8341, V-A:ALA:541:CA:4890, V-A:PRO:540:CA:4883, V-A:TYR:539:C:4867, V-B:ILE:369:CD1:8210, V-B:ILE:369:CG2:8208, V-A:TYR:539:CE2:4876, V-B:ASP:366:CA:8181, V-B:ASP:366:C:8179, V-A:MET:535:CE:4835, H-A:TYR:539:OH:4878, V-B:ILE:369:CB:8207, V-A:PRO:540:C:4881, V-A:ALA:541:C:4888"]

$$$$
3ai_Grossjean_2025
     RDKit          3D

 28 30  0  0  0  0  0  0  0  0999 V2000
  133.3550  122.6910   61.6130 N   0  0  0  0  0  0  0  0  0  0  0  0
  132.3230  122.7200   61.0900 C   0  0  0  0  0  0  0  0  0  0  0  0
  131.0150  122.7560   60.4290 C   0  0  0  0  0  0  0  0  0  0  0  0
  130.0750  121.7150   60.6260 C   0  0  0  0  0  0  0  0  0  0  0  0
  130.3400  120.5220   61.5640 C   0  0  0  0  0  0  0  0  0  0  0  0
  130.5080  120.8910   62.8360 F   0  0  0  0  0  0  0  0  0  0  0  0
  129.3120  119.6740   61.5240 F   0  0  0  0  0  0  0  0  0  0  0  0
  131.4460  119.8790   61.1880 F   0  0  0  0  0  0  0  0  0  0  0  0
  128.8570  121.7720   59.9330 C   0  0  0  0  0  0  0  0  0  0  0  0
  128.5840  122.8350   59.0660 C   0  0  0  0  0  0  0  0  0  0  0  0
  127.3050  122.9410   58.2930 C   0  0  0  0  0  0  0  0  0  0  0  0
  126.2000  123.6240   58.8260 C   0  0  0  0  0  0  0  0  0  0  0  0
  125.0100  123.7300   58.1120 C   0  0  0  0  0  0  0  0  0  0  0  0
  124.9090  123.1550   56.8490 C   0  0  0  0  0  0  0  0  0  0  0  0
  125.9900  122.4760   56.2970 C   0  0  0  0  0  0  0  0  0  0  0  0
  127.1780  122.3720   57.0140 C   0  0  0  0  0  0  0  0  0  0  0  0
  129.4920  123.8270   58.8740 N   0  0  0  0  0  0  0  0  0  0  0  0
  130.6660  123.8070   59.5500 C   0  0  0  0  0  0  0  0  0  0  0  0
  131.7160  125.1980   59.1880 S   0  0  0  0  0  0  0  0  0  0  0  0
  131.4500  126.4530   60.4860 C   0  0  0  0  0  0  0  0  0  0  0  0
  131.5330  125.9260   61.9260 C   0  0  0  0  0  0  0  0  0  0  0  0
  130.5530  125.4060   62.4640 O   0  0  0  0  0  0  0  0  0  0  0  0
  132.7390  126.0870   62.5160 N   0  0  0  0  0  0  0  0  0  0  0  0
  133.1040  125.7030   63.8000 C   0  0  0  0  0  0  0  0  0  0  0  0
  132.2890  125.8970   64.9140 C   0  0  0  0  0  0  0  0  0  0  0  0
  133.0050  125.3910   65.9750 C   0  0  0  0  0  0  0  0  0  0  0  0
  134.1900  124.9170   65.5230 O   0  0  0  0  0  0  0  0  0  0  0  0
  134.2410  125.1200   64.1430 N   0  0  0  0  0  0  0  0  0  0  0  0
  1  2  3  0
  2  3  1  0
  3  4  2  0
  4  5  1  0
  5  6  1  0
  5  7  1  0
  5  8  1  0
  4  9  1  0
  9 10  2  0
 10 11  1  0
 11 12  2  0
 12 13  1  0
 13 14  2  0
 14 15  1  0
 15 16  2  0
 10 17  1  0
 17 18  2  0
 18 19  1  0
 19 20  1  0
 20 21  1  0
 21 22  2  0
 21 23  1  0
 23 24  1  0
 24 25  1  0
 25 26  2  0
 26 27  1  0
 27 28  1  0
 18  3  1  0
 28 24  2  0
 16 11  1  0
M  END
>  <Binding energies>  (29) 
[-7.98]

>  <Ligand effiencies>  (29) 
[-0.2751724137931035]

>  <Interactions>  (29) 
["V-B:TYR:539:CD2:9845, V-B:MET:535:CE:9806, V-B:TYR:539:CE2:9847, V-B:TYR:539:C:9838, V-B:PRO:540:CD:9858, V-A:ASP:366:CG:3212, V-B:PRO:540:N:9855, V-A:ILE:369:CG2:3236, V-B:PRO:540:CB:9856, V-B:PRO:540:CA:9854, V-B:LEU:363:CD1:8160, V-B:TYR:539:CZ:9848, V-A:HIS:456:CE1:4069, V-A:LEU:475:CD2:4258, H-B:TYR:539:OH:9849, H-A:TYR:484:OH:4347, H-A:ARG:545:NH2:4928, H-A:ARG:545:NE:4924, V-A:ARG:545:CZ:4926, V-B:TYR:539:CD1:9844, V-B:TYR:539:CG:9843, V-B:TYR:539:CE1:9846, V-B:ALA:541:CB:9863, V-A:TRP:381:CH2:3371, V-B:PRO:540:C:9852, V-A:PRO:482:CG:4326, V-A:TRP:381:CZ2:3369, V-B:ALA:541:CA:9861, V-A:PRO:482:CB:4325, V-A:LEU:475:CD1:4257, H-A:ARG:545:NH1:4927, H-A:GLY:454:N:4049, H-A:ASP:366:OD2:3214, H-A:ASP:366:OD1:3213, V-A:ARG:545:CD:4923"]

$$$$
3aj_Grossjean_2025
     RDKit          3D

 28 30  0  0  0  0  0  0  0  0999 V2000
  132.1510  130.5780   58.1870 N   0  0  0  0  0  0  0  0  0  0  0  0
  131.3430  131.2300   58.6970 C   0  0  0  0  0  0  0  0  0  0  0  0
  130.3200  132.0560   59.3460 C   0  0  0  0  0  0  0  0  0  0  0  0
  130.3560  132.2880   60.7420 C   0  0  0  0  0  0  0  0  0  0  0  0
  131.4730  131.7360   61.6490 C   0  0  0  0  0  0  0  0  0  0  0  0
  132.6960  132.0210   61.1950 F   0  0  0  0  0  0  0  0  0  0  0  0
  131.3660  132.2550   62.8720 F   0  0  0  0  0  0  0  0  0  0  0  0
  131.3790  130.4080   61.7330 F   0  0  0  0  0  0  0  0  0  0  0  0
  129.3270  133.0460   61.3220 C   0  0  0  0  0  0  0  0  0  0  0  0
  128.2910  133.5550   60.5320 C   0  0  0  0  0  0  0  0  0  0  0  0
  127.1640  134.3620   61.1000 C   0  0  0  0  0  0  0  0  0  0  0  0
  127.4100  135.5920   61.7280 C   0  0  0  0  0  0  0  0  0  0  0  0
  126.3670  136.3490   62.2560 C   0  0  0  0  0  0  0  0  0  0  0  0
  125.0590  135.8820   62.1620 C   0  0  0  0  0  0  0  0  0  0  0  0
  124.7890  134.6660   61.5430 C   0  0  0  0  0  0  0  0  0  0  0  0
  125.8350  133.9140   61.0160 C   0  0  0  0  0  0  0  0  0  0  0  0
  128.2580  133.3230   59.1940 N   0  0  0  0  0  0  0  0  0  0  0  0
  129.2520  132.6150   58.6080 C   0  0  0  0  0  0  0  0  0  0  0  0
  129.0510  132.4330   56.8490 S   0  0  0  0  0  0  0  0  0  0  0  0
  128.2900  130.8030   56.5380 C   0  0  0  0  0  0  0  0  0  0  0  0
  126.8040  130.6980   56.9120 C   0  0  0  0  0  0  0  0  0  0  0  0
  126.0320  130.0090   56.2420 O   0  0  0  0  0  0  0  0  0  0  0  0
  126.4470  131.4080   58.0060 N   0  0  0  0  0  0  0  0  0  0  0  0
  125.1780  131.4850   58.5660 C   0  0  0  0  0  0  0  0  0  0  0  0
  124.0810  131.9580   58.0170 N   0  0  0  0  0  0  0  0  0  0  0  0
  123.0510  131.8720   58.8360 C   0  0  0  0  0  0  0  0  0  0  0  0
  123.3060  131.3170   60.0880 C   0  0  0  0  0  0  0  0  0  0  0  0
  124.9880  130.8900   60.1840 S   0  0  0  0  0  0  0  0  0  0  0  0
  1  2  3  0
  2  3  1  0
  3  4  2  0
  4  5  1  0
  5  6  1  0
  5  7  1  0
  5  8  1  0
  4  9  1  0
  9 10  2  0
 10 11  1  0
 11 12  2  0
 12 13  1  0
 13 14  2  0
 14 15  1  0
 15 16  2  0
 10 17  1  0
 17 18  2  0
 18 19  1  0
 19 20  1  0
 20 21  1  0
 21 22  2  0
 21 23  1  0
 23 24  1  0
 24 25  2  0
 25 26  1  0
 26 27  2  0
 27 28  1  0
 18  3  1  0
 28 24  1  0
 16 11  1  0
M  END
>  <Binding energies>  (30) 
[-7.58]

>  <Ligand effiencies>  (30) 
[-0.2613793103448276]

>  <Interactions>  (30) 
["V-B:ASP:366:CG:8184, H-B:TYR:531:OH:9766, V-B:ASP:366:CB:8183, V-A:GLU:543:CD:4908, V-B:PRO:482:CB:9297, V-B:LEU:475:CD1:9229, V-B:TRP:381:CH2:8343, V-A:PRO:540:CB:4885, V-A:TYR:539:CD2:4874, V-A:ALA:541:CB:4892, V-B:TRP:381:CZ2:8341, V-A:ALA:541:CA:4890, V-A:PRO:540:CA:4883, V-A:TYR:539:C:4867, V-B:ILE:369:CD1:8210, V-B:ILE:369:CG2:8208, V-A:TYR:539:CE2:4876, V-A:TYR:539:CZ:4877, V-B:ASP:366:CA:8181, V-B:ASP:366:C:8179, V-A:MET:535:CE:4835, H-A:TYR:539:OH:4878, V-B:ILE:369:CB:8207, V-A:PRO:540:C:4881, V-A:ALA:541:C:4888"]

$$$$
3ak_Grossjean_2025
     RDKit          3D

 33 34  0  0  0  0  0  0  0  0999 V2000
  131.8490  133.0120   56.5960 C   0  0  0  0  0  0  0  0  0  0  0  0
  130.5040  133.3720   56.3240 O   0  0  0  0  0  0  0  0  0  0  0  0
  129.5540  132.5440   56.9780 C   0  0  0  0  0  0  0  0  0  0  0  0
  130.1720  131.9980   58.2710 C   0  0  0  0  0  0  0  0  0  0  0  0
  130.1180  133.0100   59.2720 O   0  0  0  0  0  0  0  0  0  0  0  0
  129.0010  132.9420   60.1550 C   0  0  0  0  0  0  0  0  0  0  0  0
  129.3420  132.3670   61.5420 C   0  0  0  0  0  0  0  0  0  0  0  0
  130.7320  132.5330   61.7880 O   0  0  0  0  0  0  0  0  0  0  0  0
  131.4760  131.3230   61.7280 C   0  0  0  0  0  0  0  0  0  0  0  0
  130.5720  130.1660   61.2670 C   0  0  0  0  0  0  0  0  0  0  0  0
  131.2220  128.8550   61.3260 N   0  0  0  0  0  0  0  0  0  0  0  0
  130.8270  127.7470   60.6700 C   0  0  0  0  0  0  0  0  0  0  0  0
  129.8550  127.7300   59.9140 O   0  0  0  0  0  0  0  0  0  0  0  0
  131.6210  126.4450   60.8700 C   0  0  0  0  0  0  0  0  0  0  0  0
  131.7390  125.3280   59.4240 S   0  0  0  0  0  0  0  0  0  0  0  0
  130.6600  123.9300   59.6910 C   0  0  0  0  0  0  0  0  0  0  0  0
  129.4700  123.9750   59.0430 N   0  0  0  0  0  0  0  0  0  0  0  0
  128.5800  122.9610   59.1890 C   0  0  0  0  0  0  0  0  0  0  0  0
  127.2890  123.0930   58.4360 C   0  0  0  0  0  0  0  0  0  0  0  0
  127.1320  122.5010   57.1730 C   0  0  0  0  0  0  0  0  0  0  0  0
  125.9350  122.6170   56.4710 C   0  0  0  0  0  0  0  0  0  0  0  0
  124.8750  123.3270   57.0250 C   0  0  0  0  0  0  0  0  0  0  0  0
  125.0040  123.9200   58.2760 C   0  0  0  0  0  0  0  0  0  0  0  0
  126.2020  123.8020   58.9760 C   0  0  0  0  0  0  0  0  0  0  0  0
  128.8790  121.8530   59.9890 C   0  0  0  0  0  0  0  0  0  0  0  0
  130.1040  121.7800   60.6690 C   0  0  0  0  0  0  0  0  0  0  0  0
  130.3960  120.5450   61.5430 C   0  0  0  0  0  0  0  0  0  0  0  0
  129.3830  119.6820   61.4680 F   0  0  0  0  0  0  0  0  0  0  0  0
  131.5100  119.9420   61.1230 F   0  0  0  0  0  0  0  0  0  0  0  0
  130.5690  120.8510   62.8310 F   0  0  0  0  0  0  0  0  0  0  0  0
  131.0230  122.8460   60.5200 C   0  0  0  0  0  0  0  0  0  0  0  0
  132.3190  122.8250   61.2070 C   0  0  0  0  0  0  0  0  0  0  0  0
  133.3420  122.8080   61.7510 N   0  0  0  0  0  0  0  0  0  0  0  0
  1  2  1  0
  2  3  1  0
  3  4  1  0
  4  5  1  0
  5  6  1  0
  6  7  1  0
  7  8  1  0
  8  9  1  0
  9 10  1  0
 10 11  1  0
 11 12  1  0
 12 13  2  0
 12 14  1  0
 14 15  1  0
 15 16  1  0
 16 17  2  0
 17 18  1  0
 18 19  1  0
 19 20  2  0
 20 21  1  0
 21 22  2  0
 22 23  1  0
 23 24  2  0
 18 25  2  0
 25 26  1  0
 26 27  1  0
 27 28  1  0
 27 29  1  0
 27 30  1  0
 26 31  2  0
 31 32  1  0
 32 33  3  0
 31 16  1  0
 24 19  1  0
M  END
>  <Binding energies>  (31) 
[-7.29]

>  <Ligand effiencies>  (31) 
[-0.21441176470588236]

>  <Interactions>  (31) 
["V-B:TYR:539:CD2:9845, V-B:TYR:539:CE2:9847, V-B:TYR:539:C:9838, V-B:PRO:540:CD:9858, V-A:ASP:366:CG:3212, V-B:PRO:540:N:9855, V-A:ILE:369:CG2:3236, V-B:PRO:540:CB:9856, V-B:PRO:540:CA:9854, V-B:LEU:363:CD1:8160, V-B:TYR:539:CZ:9848, V-A:PRO:540:N:4884, H-A:GLU:543:OE1:4909, V-A:ALA:541:CB:4892, H-A:ALA:541:N:4891, V-A:PRO:540:CA:4883, V-A:TYR:539:C:4867, V-A:LEU:475:CD2:4258, V-B:TYR:539:CD1:9844, V-B:TYR:539:CG:9843, V-B:TYR:539:CE1:9846, V-B:ALA:541:CB:9863, V-A:TRP:381:CH2:3371, V-B:PRO:540:C:9852, V-A:PRO:482:CG:4326, V-A:TRP:381:CZ2:3369, V-B:ALA:541:CA:9861, V-A:PRO:482:CB:4325, V-A:LEU:363:CD1:3188, V-A:LEU:475:CD1:4257, V-A:LEU:475:CG:4256, H-A:TYR:539:N:4870, V-A:ILE:538:CB:4862, V-A:PRO:540:CD:4887, H-A:ASP:366:OD2:3214, H-A:ASP:366:OD1:3213"]

$$$$
3bk_Grossjean_2025
     RDKit          3D

 30 31  0  0  0  0  0  0  0  0999 V2000
  133.4960  125.3240   65.4950 C   0  0  0  0  0  0  0  0  0  0  0  0
  133.7680  124.6280   64.2880 O   0  0  0  0  0  0  0  0  0  0  0  0
  133.6700  125.4450   63.1300 C   0  0  0  0  0  0  0  0  0  0  0  0
  133.8250  124.5780   61.8730 C   0  0  0  0  0  0  0  0  0  0  0  0
  132.7220  124.8030   61.0060 O   0  0  0  0  0  0  0  0  0  0  0  0
  133.0860  125.3340   59.7390 C   0  0  0  0  0  0  0  0  0  0  0  0
  132.6430  124.3630   58.6370 C   0  0  0  0  0  0  0  0  0  0  0  0
  131.4510  124.8470   58.0330 O   0  0  0  0  0  0  0  0  0  0  0  0
  130.8550  125.9360   58.7270 C   0  0  0  0  0  0  0  0  0  0  0  0
  129.3470  125.9610   58.4390 C   0  0  0  0  0  0  0  0  0  0  0  0
  128.9540  124.9680   57.4380 N   0  0  0  0  0  0  0  0  0  0  0  0
  128.2520  125.2220   56.3200 C   0  0  0  0  0  0  0  0  0  0  0  0
  127.8660  126.3460   55.9960 O   0  0  0  0  0  0  0  0  0  0  0  0
  127.9580  124.0250   55.4130 C   0  0  0  0  0  0  0  0  0  0  0  0
  126.7650  122.8750   56.1680 S   0  0  0  0  0  0  0  0  0  0  0  0
  126.8850  122.9960   57.9440 C   0  0  0  0  0  0  0  0  0  0  0  0
  127.9910  122.4440   58.5040 N   0  0  0  0  0  0  0  0  0  0  0  0
  128.1660  122.4860   59.8510 C   0  0  0  0  0  0  0  0  0  0  0  0
  129.4250  121.8720   60.3830 C   0  0  0  0  0  0  0  0  0  0  0  0
  130.6450  122.5650   60.3200 C   0  0  0  0  0  0  0  0  0  0  0  0
  131.8190  121.9970   60.8080 C   0  0  0  0  0  0  0  0  0  0  0  0
  131.7890  120.7250   61.3690 C   0  0  0  0  0  0  0  0  0  0  0  0
  130.5930  120.0180   61.4480 C   0  0  0  0  0  0  0  0  0  0  0  0
  129.4220  120.5900   60.9600 C   0  0  0  0  0  0  0  0  0  0  0  0
  127.2180  123.1000   60.6780 C   0  0  0  0  0  0  0  0  0  0  0  0
  126.0710  123.6730   60.1190 C   0  0  0  0  0  0  0  0  0  0  0  0
  125.0620  124.3320   61.0580 C   0  0  0  0  0  0  0  0  0  0  0  0
  125.8880  123.6260   58.7210 C   0  0  0  0  0  0  0  0  0  0  0  0
  124.6970  124.2200   58.1070 C   0  0  0  0  0  0  0  0  0  0  0  0
  123.7560  124.6890   57.6220 N   0  0  0  0  0  0  0  0  0  0  0  0
  1  2  1  0
  2  3  1  0
  3  4  1  0
  4  5  1  0
  5  6  1  0
  6  7  1  0
  7  8  1  0
  8  9  1  0
  9 10  1  0
 10 11  1  0
 11 12  1  0
 12 13  2  0
 12 14  1  0
 14 15  1  0
 15 16  1  0
 16 17  2  0
 17 18  1  0
 18 19  1  0
 19 20  2  0
 20 21  1  0
 21 22  2  0
 22 23  1  0
 23 24  2  0
 18 25  2  0
 25 26  1  0
 26 27  1  0
 26 28  2  0
 28 29  1  0
 29 30  3  0
 28 16  1  0
 24 19  1  0
M  END
>  <Binding energies>  (32) 
[-6.82]

>  <Ligand effiencies>  (32) 
[-0.22]

>  <Interactions>  (32) 
["V-B:TYR:539:CD2:9845, V-B:TYR:539:CE2:9847, V-B:TYR:539:C:9838, V-A:ASP:366:CG:3212, V-B:PRO:540:N:9855, V-A:ILE:369:CG2:3236, V-B:PRO:540:CB:9856, H-B:TYR:531:OH:9766, V-A:ASP:366:CB:3211, V-B:PRO:540:CA:9854, V-B:LEU:363:CD1:8160, V-B:TYR:539:CZ:9848, V-A:ASP:366:CA:3209, V-A:LEU:475:CD2:4258, H-B:TYR:539:OH:9849, V-A:ILE:369:CD1:3238, V-A:ARG:545:CZ:4926, V-B:TYR:539:CE1:9846, V-B:ALA:541:CB:9863, V-B:PRO:540:C:9852, V-B:ALA:541:CA:9861, H-A:GLY:454:N:4049, V-A:ARG:545:CD:4923"]

$$$$
3cb_Grossjean_2025
     RDKit          3D

 30 32  0  0  0  0  0  0  0  0999 V2000
  124.1500  129.6240   66.3700 C   0  0  0  0  0  0  0  0  0  0  0  0
  123.8920  129.9510   65.0130 O   0  0  0  0  0  0  0  0  0  0  0  0
  124.5320  130.9840   64.4080 C   0  0  0  0  0  0  0  0  0  0  0  0
  124.9730  131.9620   65.0180 O   0  0  0  0  0  0  0  0  0  0  0  0
  124.6480  130.8210   62.9190 C   0  0  0  0  0  0  0  0  0  0  0  0
  123.6630  131.2950   62.0400 C   0  0  0  0  0  0  0  0  0  0  0  0
  123.8030  131.1300   60.6650 C   0  0  0  0  0  0  0  0  0  0  0  0
  124.9230  130.4850   60.1390 C   0  0  0  0  0  0  0  0  0  0  0  0
  124.9630  130.3760   58.7340 N   0  0  0  0  0  0  0  0  0  0  0  0
  124.4010  131.1560   57.7870 C   0  0  0  0  0  0  0  0  0  0  0  0
  123.7320  132.1670   58.0100 O   0  0  0  0  0  0  0  0  0  0  0  0
  124.6700  130.7010   56.3440 C   0  0  0  0  0  0  0  0  0  0  0  0
  126.3360  131.0960   55.7110 S   0  0  0  0  0  0  0  0  0  0  0  0
  127.5250  130.3230   56.7870 C   0  0  0  0  0  0  0  0  0  0  0  0
  127.1110  129.1310   57.2820 N   0  0  0  0  0  0  0  0  0  0  0  0
  127.9340  128.4520   58.1120 C   0  0  0  0  0  0  0  0  0  0  0  0
  127.4110  127.1210   58.6160 C   0  0  0  0  0  0  0  0  0  0  0  0
  129.1870  128.9320   58.4830 C   0  0  0  0  0  0  0  0  0  0  0  0
  129.6290  130.1690   57.9970 C   0  0  0  0  0  0  0  0  0  0  0  0
  130.9800  130.6430   58.4290 C   0  0  0  0  0  0  0  0  0  0  0  0
  132.0990  130.4130   57.6200 C   0  0  0  0  0  0  0  0  0  0  0  0
  133.3600  130.8600   58.0090 C   0  0  0  0  0  0  0  0  0  0  0  0
  133.5050  131.5460   59.2120 C   0  0  0  0  0  0  0  0  0  0  0  0
  132.4020  131.7910   60.0250 C   0  0  0  0  0  0  0  0  0  0  0  0
  131.1430  131.3440   59.6320 C   0  0  0  0  0  0  0  0  0  0  0  0
  128.7720  130.9010   57.1350 C   0  0  0  0  0  0  0  0  0  0  0  0
  129.1430  132.2410   56.6720 C   0  0  0  0  0  0  0  0  0  0  0  0
  129.4360  133.2990   56.3060 N   0  0  0  0  0  0  0  0  0  0  0  0
  125.9150  130.0120   61.0110 C   0  0  0  0  0  0  0  0  0  0  0  0
  125.7740  130.1780   62.3870 C   0  0  0  0  0  0  0  0  0  0  0  0
  1  2  1  0
  2  3  1  0
  3  4  2  0
  3  5  1  0
  5  6  2  0
  6  7  1  0
  7  8  2  0
  8  9  1  0
  9 10  1  0
 10 11  2  0
 10 12  1  0
 12 13  1  0
 13 14  1  0
 14 15  2  0
 15 16  1  0
 16 17  1  0
 16 18  2  0
 18 19  1  0
 19 20  1  0
 20 21  2  0
 21 22  1  0
 22 23  2  0
 23 24  1  0
 24 25  2  0
 19 26  2  0
 26 27  1  0
 27 28  3  0
  8 29  1  0
 29 30  2  0
 30  5  1  0
 26 14  1  0
 25 20  1  0
M  END
>  <Binding energies>  (33) 
[-8.37]

>  <Ligand effiencies>  (33) 
[-0.26999999999999996]

>  <Interactions>  (33) 
["V-B:ASP:366:CG:8184, H-B:ASP:366:OD2:8186, V-A:ASP:366:CG:3212, H-B:TYR:531:OH:9766, V-A:ASP:366:CB:3211, V-B:TYR:531:CZ:9765, V-B:ASP:366:CB:8183, V-A:PRO:540:CB:4885, V-A:PRO:540:CA:4883, V-B:ILE:369:CD1:8210, H-B:GLY:454:N:9021, V-B:GLY:454:CA:9020, H-B:ARG:545:NH1:9898, H-B:ARG:545:NH2:9899, H-B:ARG:545:NE:9895, V-A:TYR:539:CE2:4876, V-A:TYR:539:CZ:4877, V-B:ASP:366:CA:8181, V-B:ASP:366:C:8179, V-B:ARG:545:CZ:9897, V-A:TYR:531:CE2:4793, V-A:LEU:363:CD1:3188, V-A:TYR:531:CZ:4794, V-A:LEU:363:CA:3184, V-A:MET:535:CE:4835, H-A:TYR:539:OH:4878, H-B:TYR:484:OH:9319, V-B:ASN:370:CB:8216, V-B:TYR:531:CE1:9763, V-B:ARG:545:CG:9893, H-A:TYR:539:N:4870, V-B:ARG:545:CD:9894, H-B:ASN:370:N:8215"]

$$$$
3ch_Grossjean_2025
     RDKit          3D

 32 34  0  0  0  0  0  0  0  0999 V2000
  127.5580  132.6600   59.6860 C   0  0  0  0  0  0  0  0  0  0  0  0
  128.0870  132.6110   58.3650 O   0  0  0  0  0  0  0  0  0  0  0  0
  129.2870  131.9630   58.1340 C   0  0  0  0  0  0  0  0  0  0  0  0
  129.6990  130.8070   58.8160 C   0  0  0  0  0  0  0  0  0  0  0  0
  130.9270  130.1970   58.5220 C   0  0  0  0  0  0  0  0  0  0  0  0
  131.4220  129.0360   59.1460 N   0  0  0  0  0  0  0  0  0  0  0  0
  130.7870  127.8830   59.4490 C   0  0  0  0  0  0  0  0  0  0  0  0
  129.6070  127.6320   59.2070 O   0  0  0  0  0  0  0  0  0  0  0  0
  131.6510  126.8100   60.1110 C   0  0  0  0  0  0  0  0  0  0  0  0
  131.9860  125.4140   58.9970 S   0  0  0  0  0  0  0  0  0  0  0  0
  130.6050  124.3040   59.1670 C   0  0  0  0  0  0  0  0  0  0  0  0
  130.7140  123.4470   60.2120 N   0  0  0  0  0  0  0  0  0  0  0  0
  129.7190  122.5560   60.4240 C   0  0  0  0  0  0  0  0  0  0  0  0
  129.9080  121.6240   61.6060 C   0  0  0  0  0  0  0  0  0  0  0  0
  128.5900  122.4840   59.6110 C   0  0  0  0  0  0  0  0  0  0  0  0
  128.4550  123.3670   58.5300 C   0  0  0  0  0  0  0  0  0  0  0  0
  127.2320  123.2460   57.6800 C   0  0  0  0  0  0  0  0  0  0  0  0
  127.3040  122.6210   56.4290 C   0  0  0  0  0  0  0  0  0  0  0  0
  126.1700  122.5130   55.6280 C   0  0  0  0  0  0  0  0  0  0  0  0
  124.9580  123.0330   56.0740 C   0  0  0  0  0  0  0  0  0  0  0  0
  124.8720  123.6640   57.3120 C   0  0  0  0  0  0  0  0  0  0  0  0
  126.0080  123.7710   58.1110 C   0  0  0  0  0  0  0  0  0  0  0  0
  129.4820  124.3200   58.3070 C   0  0  0  0  0  0  0  0  0  0  0  0
  129.3490  125.3280   57.2510 C   0  0  0  0  0  0  0  0  0  0  0  0
  129.2460  126.1230   56.4160 N   0  0  0  0  0  0  0  0  0  0  0  0
  131.7530  130.7670   57.5500 C   0  0  0  0  0  0  0  0  0  0  0  0
  131.3640  131.9230   56.8570 C   0  0  0  0  0  0  0  0  0  0  0  0
  132.1320  132.5320   55.8790 O   0  0  0  0  0  0  0  0  0  0  0  0
  132.3740  131.8500   54.6530 C   0  0  0  0  0  0  0  0  0  0  0  0
  130.1300  132.5130   57.1600 C   0  0  0  0  0  0  0  0  0  0  0  0
  129.7300  133.6360   56.4750 O   0  0  0  0  0  0  0  0  0  0  0  0
  129.2210  133.3710   55.1750 C   0  0  0  0  0  0  0  0  0  0  0  0
  1  2  1  0
  2  3  1  0
  3  4  2  0
  4  5  1  0
  5  6  1  0
  6  7  1  0
  7  8  2  0
  7  9  1  0
  9 10  1  0
 10 11  1  0
 11 12  2  0
 12 13  1  0
 13 14  1  0
 13 15  2  0
 15 16  1  0
 16 17  1  0
 17 18  2  0
 18 19  1  0
 19 20  2  0
 20 21  1  0
 21 22  2  0
 16 23  2  0
 23 24  1  0
 24 25  3  0
  5 26  2  0
 26 27  1  0
 27 28  1  0
 28 29  1  0
 27 30  2  0
 30 31  1  0
 31 32  1  0
 30  3  1  0
 23 11  1  0
 22 17  1  0
M  END
>  <Binding energies>  (34) 
[-8.14]

>  <Ligand effiencies>  (34) 
[-0.24666666666666667]

>  <Interactions>  (34) 
["V-B:TYR:539:CD2:9845, V-B:MET:535:CE:9806, V-B:TYR:539:CE2:9847, V-A:ASP:366:CG:3212, V-B:PRO:540:CB:9856, V-A:ASP:366:CB:3211, V-B:PRO:540:CA:9854, V-B:LEU:363:CD1:8160, V-B:TYR:539:CZ:9848, V-A:TYR:539:CD2:4874, V-A:TYR:539:C:4867, H-B:TYR:539:OH:9849, V-A:TYR:539:CE2:4876, V-A:TYR:539:CZ:4877, V-B:TYR:539:CD1:9844, V-B:TYR:539:CG:9843, V-B:TYR:539:CE1:9846, V-B:ALA:541:CB:9863, H-A:TYR:531:OH:4795, V-A:TYR:531:CE2:4793, V-A:LEU:363:CD1:3188, V-A:TYR:531:CZ:4794, V-A:MET:535:CE:4835, H-A:TYR:539:N:4870, V-A:TYR:539:CG:4872, V-A:ILE:538:CA:4860, V-A:TYR:539:CD1:4873, V-A:ILE:538:CB:4862, V-A:TYR:539:CE1:4875, V-A:ILE:538:C:4858, V-A:ILE:538:CG2:4863, H-A:ASP:366:OD2:3214, V-A:MET:535:CG:4833, V-A:TYR:531:CD2:4791"]

$$$$
3ci_Grossjean_2025
     RDKit          3D

 25 27  0  0  0  0  0  0  0  0999 V2000
  129.7130  121.4800   61.4990 C   0  0  0  0  0  0  0  0  0  0  0  0
  129.5280  122.4250   60.3260 C   0  0  0  0  0  0  0  0  0  0  0  0
  128.4380  122.3190   59.4670 C   0  0  0  0  0  0  0  0  0  0  0  0
  128.3020  123.2260   58.4070 C   0  0  0  0  0  0  0  0  0  0  0  0
  127.1090  123.0830   57.5190 C   0  0  0  0  0  0  0  0  0  0  0  0
  127.1570  122.2700   56.3790 C   0  0  0  0  0  0  0  0  0  0  0  0
  126.0440  122.1470   55.5510 C   0  0  0  0  0  0  0  0  0  0  0  0
  124.8790  122.8440   55.8550 C   0  0  0  0  0  0  0  0  0  0  0  0
  124.8170  123.6630   56.9790 C   0  0  0  0  0  0  0  0  0  0  0  0
  125.9310  123.7830   57.8060 C   0  0  0  0  0  0  0  0  0  0  0  0
  129.2960  124.2230   58.2400 C   0  0  0  0  0  0  0  0  0  0  0  0
  129.2290  125.1730   57.1240 C   0  0  0  0  0  0  0  0  0  0  0  0
  129.1740  125.9220   56.2430 N   0  0  0  0  0  0  0  0  0  0  0  0
  130.3690  124.2630   59.1640 C   0  0  0  0  0  0  0  0  0  0  0  0
  131.6660  125.4910   59.0620 S   0  0  0  0  0  0  0  0  0  0  0  0
  133.2560  124.7370   59.5370 C   0  0  0  0  0  0  0  0  0  0  0  0
  133.3340  124.3680   61.0220 C   0  0  0  0  0  0  0  0  0  0  0  0
  133.5320  123.1940   61.3420 O   0  0  0  0  0  0  0  0  0  0  0  0
  133.1590  125.3890   61.8910 N   0  0  0  0  0  0  0  0  0  0  0  0
  133.2090  125.3320   63.2770 C   0  0  0  0  0  0  0  0  0  0  0  0
  132.0870  125.5040   64.0860 C   0  0  0  0  0  0  0  0  0  0  0  0
  132.5530  125.3800   65.3750 C   0  0  0  0  0  0  0  0  0  0  0  0
  133.8860  125.1440   65.3420 O   0  0  0  0  0  0  0  0  0  0  0  0
  134.2910  125.1180   64.0070 N   0  0  0  0  0  0  0  0  0  0  0  0
  130.4800  123.3730   60.1820 N   0  0  0  0  0  0  0  0  0  0  0  0
  1  2  1  0
  2  3  2  0
  3  4  1  0
  4  5  1  0
  5  6  2  0
  6  7  1  0
  7  8  2  0
  8  9  1  0
  9 10  2  0
  4 11  2  0
 11 12  1  0
 12 13  3  0
 11 14  1  0
 14 15  1  0
 15 16  1  0
 16 17  1  0
 17 18  2  0
 17 19  1  0
 19 20  1  0
 20 21  1  0
 21 22  2  0
 22 23  1  0
 23 24  1  0
 14 25  2  0
 25  2  1  0
 10  5  1  0
 24 20  2  0
M  END
>  <Binding energies>  (35) 
[-8.31]

>  <Ligand effiencies>  (35) 
[-0.31961538461538463]

>  <Interactions>  (35) 
["V-B:TYR:539:CD2:9845, V-B:MET:535:CE:9806, V-B:TYR:539:CE2:9847, V-B:TYR:539:C:9838, V-B:PRO:540:CD:9858, V-A:ASP:366:CG:3212, V-B:PRO:540:N:9855, V-A:ILE:369:CG2:3236, V-B:PRO:540:CB:9856, V-A:ASP:366:CB:3211, V-B:PRO:540:CA:9854, V-B:LEU:363:CD1:8160, V-B:TYR:539:CZ:9848, V-A:ASP:366:CA:3209, H-B:TYR:539:OH:9849, H-A:TYR:484:OH:4347, H-A:ARG:545:NH2:4928, V-A:ILE:369:CD1:3238, H-A:ARG:545:NE:4924, V-A:ARG:545:CZ:4926, V-B:TYR:539:CA:9840, V-B:TYR:539:CD1:9844, V-B:TYR:539:CG:9843, V-B:TYR:539:CE1:9846, V-B:ALA:541:CB:9863, H-A:TYR:531:OH:4795, V-A:ILE:369:CB:3235, H-A:ARG:545:NH1:4927, H-A:GLY:454:N:4049, H-A:ASP:366:OD2:3214, H-A:ASP:366:OD1:3213, V-B:ILE:538:CA:9831, V-B:ILE:538:C:9829, V-B:ILE:538:CD1:9836"]

$$$$
3ck_Grossjean_2025
     RDKit          3D

 30 31  0  0  0  0  0  0  0  0999 V2000
  129.7190  132.6120   56.1460 C   0  0  0  0  0  0  0  0  0  0  0  0
  130.6850  133.3930   56.8310 O   0  0  0  0  0  0  0  0  0  0  0  0
  131.9890  132.8280   56.8090 C   0  0  0  0  0  0  0  0  0  0  0  0
  131.8860  131.2980   56.8390 C   0  0  0  0  0  0  0  0  0  0  0  0
  131.7870  130.8590   58.1880 O   0  0  0  0  0  0  0  0  0  0  0  0
  132.0200  131.8840   59.1460 C   0  0  0  0  0  0  0  0  0  0  0  0
  130.7090  132.1910   59.8790 C   0  0  0  0  0  0  0  0  0  0  0  0
  130.9730  132.2210   61.2740 O   0  0  0  0  0  0  0  0  0  0  0  0
  131.5700  131.0420   61.7930 C   0  0  0  0  0  0  0  0  0  0  0  0
  130.7050  129.8220   61.4240 C   0  0  0  0  0  0  0  0  0  0  0  0
  131.2340  129.0420   60.3010 N   0  0  0  0  0  0  0  0  0  0  0  0
  130.7770  127.8440   59.8930 C   0  0  0  0  0  0  0  0  0  0  0  0
  129.8210  127.2710   60.4200 O   0  0  0  0  0  0  0  0  0  0  0  0
  131.5250  127.2190   58.7050 C   0  0  0  0  0  0  0  0  0  0  0  0
  132.1380  125.5200   58.9710 S   0  0  0  0  0  0  0  0  0  0  0  0
  130.7480  124.4360   59.2650 C   0  0  0  0  0  0  0  0  0  0  0  0
  130.8160  123.6900   60.3960 N   0  0  0  0  0  0  0  0  0  0  0  0
  129.8010  122.8440   60.6790 C   0  0  0  0  0  0  0  0  0  0  0  0
  129.9490  122.0410   61.9570 C   0  0  0  0  0  0  0  0  0  0  0  0
  128.6860  122.7070   59.8550 C   0  0  0  0  0  0  0  0  0  0  0  0
  128.5970  123.4630   58.6790 C   0  0  0  0  0  0  0  0  0  0  0  0
  127.3950  123.2660   57.8150 C   0  0  0  0  0  0  0  0  0  0  0  0
  127.5010  122.5520   56.6150 C   0  0  0  0  0  0  0  0  0  0  0  0
  126.3860  122.3740   55.7990 C   0  0  0  0  0  0  0  0  0  0  0  0
  125.1610  122.9140   56.1790 C   0  0  0  0  0  0  0  0  0  0  0  0
  125.0410  123.6350   57.3650 C   0  0  0  0  0  0  0  0  0  0  0  0
  126.1570  123.8110   58.1780 C   0  0  0  0  0  0  0  0  0  0  0  0
  129.6500  124.3640   58.3760 C   0  0  0  0  0  0  0  0  0  0  0  0
  129.5910  125.2120   57.1800 C   0  0  0  0  0  0  0  0  0  0  0  0
  129.5440  125.8800   56.2360 N   0  0  0  0  0  0  0  0  0  0  0  0
  1  2  1  0
  2  3  1  0
  3  4  1  0
  4  5  1  0
  5  6  1  0
  6  7  1  0
  7  8  1  0
  8  9  1  0
  9 10  1  0
 10 11  1  0
 11 12  1  0
 12 13  2  0
 12 14  1  0
 14 15  1  0
 15 16  1  0
 16 17  2  0
 17 18  1  0
 18 19  1  0
 18 20  2  0
 20 21  1  0
 21 22  1  0
 22 23  2  0
 23 24  1  0
 24 25  2  0
 25 26  1  0
 26 27  2  0
 21 28  2  0
 28 29  1  0
 29 30  3  0
 28 16  1  0
 27 22  1  0
M  END
>  <Binding energies>  (36) 
[-6.94]

>  <Ligand effiencies>  (36) 
[-0.2238709677419355]

>  <Interactions>  (36) 
["V-B:TYR:539:CD2:9845, V-B:MET:535:CE:9806, V-B:TYR:539:CE2:9847, V-B:TYR:539:C:9838, V-B:PRO:540:CD:9858, V-A:ASP:366:CG:3212, V-B:PRO:540:N:9855, V-B:PRO:540:CB:9856, V-A:ASP:366:CB:3211, V-B:PRO:540:CA:9854, V-B:LEU:363:CD1:8160, V-B:TYR:539:CZ:9848, V-A:PRO:540:N:4884, V-A:PRO:540:CB:4885, H-A:ALA:541:N:4891, V-A:PRO:540:CA:4883, H-B:TYR:539:OH:9849, V-B:TYR:539:CD1:9844, V-B:TYR:539:CG:9843, V-B:TYR:539:CE1:9846, V-B:ALA:541:CB:9863, H-A:TYR:531:OH:4795, V-A:TYR:531:CE2:4793, V-A:LEU:363:CD1:3188, V-A:MET:535:CE:4835, H-A:TYR:539:N:4870, V-A:ILE:538:CB:4862, V-A:PRO:540:CD:4887, H-A:ASP:366:OD2:3214"]

$$$$
4aa_Grossjean_2025
     RDKit          3D

 26 28  0  0  0  0  0  0  0  0999 V2000
  124.1780  123.9450   57.8510 C   0  0  0  0  0  0  0  0  0  0  0  0
  124.8120  124.3060   56.5040 C   0  0  0  0  0  0  0  0  0  0  0  0
  125.0930  123.1160   55.7800 O   0  0  0  0  0  0  0  0  0  0  0  0
  126.3450  122.5890   55.7550 C   0  0  0  0  0  0  0  0  0  0  0  0
  126.7620  121.8690   54.8410 O   0  0  0  0  0  0  0  0  0  0  0  0
  127.1700  122.9640   56.9510 C   0  0  0  0  0  0  0  0  0  0  0  0
  127.1260  122.1550   58.0940 C   0  0  0  0  0  0  0  0  0  0  0  0
  127.8760  122.4800   59.2210 C   0  0  0  0  0  0  0  0  0  0  0  0
  128.6920  123.6120   59.2260 C   0  0  0  0  0  0  0  0  0  0  0  0
  129.4000  123.8500   60.4200 N   0  0  0  0  0  0  0  0  0  0  0  0
  129.8340  122.9830   61.3660 C   0  0  0  0  0  0  0  0  0  0  0  0
  129.6220  121.7700   61.3430 O   0  0  0  0  0  0  0  0  0  0  0  0
  130.5760  123.5870   62.4740 C   0  0  0  0  0  0  0  0  0  0  0  0
  132.3020  123.2670   62.6690 S   0  0  0  0  0  0  0  0  0  0  0  0
  132.3660  124.2420   64.1200 C   0  0  0  0  0  0  0  0  0  0  0  0
  133.4970  124.4150   64.8040 N   0  0  0  0  0  0  0  0  0  0  0  0
  133.4090  125.1910   65.9120 C   0  0  0  0  0  0  0  0  0  0  0  0
  134.7070  125.3700   66.6800 C   0  0  0  0  0  0  0  0  0  0  0  0
  132.2300  125.7940   66.3450 C   0  0  0  0  0  0  0  0  0  0  0  0
  131.0460  125.6120   65.6230 C   0  0  0  0  0  0  0  0  0  0  0  0
  129.7840  126.2920   66.1340 C   0  0  0  0  0  0  0  0  0  0  0  0
  131.0970  124.8020   64.4570 C   0  0  0  0  0  0  0  0  0  0  0  0
  130.0930  124.4080   63.5050 C   0  0  0  0  0  0  0  0  0  0  0  0
  128.7860  124.8130   63.6100 N   0  0  0  0  0  0  0  0  0  0  0  0
  128.7390  124.4310   58.0890 C   0  0  0  0  0  0  0  0  0  0  0  0
  127.9850  124.1070   56.9630 C   0  0  0  0  0  0  0  0  0  0  0  0
  1  2  1  0
  2  3  1  0
  3  4  1  0
  4  5  2  0
  4  6  1  0
  6  7  2  0
  7  8  1  0
  8  9  2  0
  9 10  1  0
 10 11  1  0
 11 12  2  0
 11 13  1  0
 13 14  1  0
 14 15  1  0
 15 16  2  0
 16 17  1  0
 17 18  1  0
 17 19  2  0
 19 20  1  0
 20 21  1  0
 20 22  2  0
 22 23  1  0
 23 24  1  0
  9 25  1  0
 25 26  2  0
 26  6  1  0
 23 13  2  0
 22 15  1  0
M  END
>  <Binding energies>  (37) 
[-7.69]

>  <Ligand effiencies>  (37) 
[-0.26517241379310347]

>  <Interactions>  (37) 
["V-B:TYR:539:CD2:9845, V-B:MET:535:CE:9806, V-B:TYR:539:CE2:9847, V-B:TYR:539:C:9838, V-B:PRO:540:CD:9858, V-B:PRO:540:N:9855, V-B:LEU:363:CA:8156, V-B:PRO:540:CB:9856, V-B:PRO:540:CA:9854, V-B:LEU:363:CD1:8160, V-B:TYR:539:CZ:9848, V-B:TYR:531:CZ:9765, V-B:TYR:531:CE2:9764, H-B:GLU:543:OE2:9881, V-A:GLU:543:CD:4908, V-B:GLU:543:CD:9879, V-A:HIS:456:CE1:4069, V-B:GLU:543:CG:9878, H-A:TYR:484:OH:4347, V-A:GLY:454:CA:4048, V-A:ARG:545:CZ:4926, V-B:TYR:539:CA:9840, V-B:TYR:539:CD1:9844, V-B:TYR:539:CG:9843, V-B:TYR:539:CE1:9846, H-B:TYR:539:N:9841, V-B:LEU:363:CB:8158, H-A:GLY:454:N:4049, V-A:ARG:545:CG:4922, V-A:ARG:545:CD:4923, V-A:GLY:453:CA:4043, V-A:GLY:453:C:4041, V-A:ILE:455:C:4051"]

$$$$
4ab_Grossjean_2025
     RDKit          3D

 25 27  0  0  0  0  0  0  0  0999 V2000
  135.3720  125.4880   66.6260 C   0  0  0  0  0  0  0  0  0  0  0  0
  134.2000  125.0160   65.9760 O   0  0  0  0  0  0  0  0  0  0  0  0
  132.9920  125.5880   66.2140 C   0  0  0  0  0  0  0  0  0  0  0  0
  132.7490  126.2780   67.2090 O   0  0  0  0  0  0  0  0  0  0  0  0
  131.9760  125.2910   65.1490 C   0  0  0  0  0  0  0  0  0  0  0  0
  132.3530  124.5200   64.0410 C   0  0  0  0  0  0  0  0  0  0  0  0
  131.4350  124.2290   63.0360 C   0  0  0  0  0  0  0  0  0  0  0  0
  130.1220  124.6930   63.1200 C   0  0  0  0  0  0  0  0  0  0  0  0
  129.2820  124.3460   62.0460 N   0  0  0  0  0  0  0  0  0  0  0  0
  128.0990  123.6850   62.0400 C   0  0  0  0  0  0  0  0  0  0  0  0
  127.5600  123.2200   63.0450 O   0  0  0  0  0  0  0  0  0  0  0  0
  127.4790  123.5250   60.7230 C   0  0  0  0  0  0  0  0  0  0  0  0
  128.2190  122.4740   59.5130 S   0  0  0  0  0  0  0  0  0  0  0  0
  126.9790  122.8660   58.3450 C   0  0  0  0  0  0  0  0  0  0  0  0
  126.9740  122.3450   57.1170 N   0  0  0  0  0  0  0  0  0  0  0  0
  125.9580  122.7330   56.3090 C   0  0  0  0  0  0  0  0  0  0  0  0
  125.9750  122.1320   54.9150 C   0  0  0  0  0  0  0  0  0  0  0  0
  124.9550  123.6180   56.6960 C   0  0  0  0  0  0  0  0  0  0  0  0
  124.9620  124.1640   57.9850 C   0  0  0  0  0  0  0  0  0  0  0  0
  123.8460  125.1270   58.3590 C   0  0  0  0  0  0  0  0  0  0  0  0
  126.0150  123.7840   58.8610 C   0  0  0  0  0  0  0  0  0  0  0  0
  126.3280  124.1470   60.2160 C   0  0  0  0  0  0  0  0  0  0  0  0
  125.5550  125.0240   60.9350 N   0  0  0  0  0  0  0  0  0  0  0  0
  129.7370  125.4710   64.2230 C   0  0  0  0  0  0  0  0  0  0  0  0
  130.6570  125.7630   65.2260 C   0  0  0  0  0  0  0  0  0  0  0  0
  1  2  1  0
  2  3  1  0
  3  4  2  0
  3  5  1  0
  5  6  2  0
  6  7  1  0
  7  8  2  0
  8  9  1  0
  9 10  1  0
 10 11  2  0
 10 12  1  0
 12 13  1  0
 13 14  1  0
 14 15  2  0
 15 16  1  0
 16 17  1  0
 16 18  2  0
 18 19  1  0
 19 20  1  0
 19 21  2  0
 21 22  1  0
 22 23  1  0
  8 24  1  0
 24 25  2  0
 25  5  1  0
 22 12  2  0
 21 14  1  0
M  END
>  <Binding energies>  (38) 
[-7.7]

>  <Ligand effiencies>  (38) 
[-0.275]

>  <Interactions>  (38) 
["V-B:TYR:539:CD2:9845, V-B:MET:535:CE:9806, V-B:ASP:366:CG:8184, V-B:TYR:539:CE2:9847, V-B:TYR:539:C:9838, V-B:PRO:540:CD:9858, H-B:ASP:366:OD2:8186, V-B:PRO:540:N:9855, V-B:LEU:363:CA:8156, V-B:PRO:540:CB:9856, V-B:PRO:540:CA:9854, V-B:LEU:363:CD1:8160, V-B:TYR:531:CZ:9765, V-B:ASP:366:CB:8183, V-B:TYR:531:CE2:9764, H-B:GLU:543:OE2:9881, H-B:ALA:541:N:9862, V-B:GLU:543:CD:9879, V-A:HIS:456:CE1:4069, V-B:GLU:543:CG:9878, H-A:TYR:484:OH:4347, V-A:GLY:454:CA:4048, H-A:ARG:545:NE:4924, V-A:ARG:545:CZ:4926, V-B:TYR:539:CD1:9844, V-B:ALA:541:CB:9863, H-B:TYR:539:N:9841, H-A:GLY:454:N:4049, V-B:ILE:538:CA:9831, V-B:ILE:538:C:9829, V-B:ILE:538:CD1:9836, V-B:ILE:538:CG2:9834, V-B:ILE:538:CB:9833, V-A:ARG:545:CG:4922, V-A:ARG:545:CD:4923, V-A:GLY:453:CA:4043, V-A:GLY:453:C:4041, H-A:HIS:456:ND1:4066, V-A:VAL:452:C:4033, V-A:ILE:455:C:4051"]

$$$$
4ac_Grossjean_2025
     RDKit          3D

 23 25  0  0  0  0  0  0  0  0999 V2000
  133.8000  125.4950   66.7020 C   0  0  0  0  0  0  0  0  0  0  0  0
  134.0210  124.9360   65.4110 O   0  0  0  0  0  0  0  0  0  0  0  0
  132.9410  124.7030   64.5830 C   0  0  0  0  0  0  0  0  0  0  0  0
  133.2250  124.4920   63.2340 C   0  0  0  0  0  0  0  0  0  0  0  0
  132.2000  124.2480   62.3240 C   0  0  0  0  0  0  0  0  0  0  0  0
  130.8740  124.2040   62.7550 C   0  0  0  0  0  0  0  0  0  0  0  0
  129.9050  123.9650   61.7620 N   0  0  0  0  0  0  0  0  0  0  0  0
  128.6060  123.6070   61.9010 C   0  0  0  0  0  0  0  0  0  0  0  0
  128.0620  123.3940   62.9860 O   0  0  0  0  0  0  0  0  0  0  0  0
  127.8540  123.4730   60.6500 C   0  0  0  0  0  0  0  0  0  0  0  0
  128.4580  122.4410   59.3530 S   0  0  0  0  0  0  0  0  0  0  0  0
  127.0870  122.8310   58.3390 C   0  0  0  0  0  0  0  0  0  0  0  0
  126.9450  122.3190   57.1160 N   0  0  0  0  0  0  0  0  0  0  0  0
  125.8380  122.7030   56.4360 C   0  0  0  0  0  0  0  0  0  0  0  0
  125.6940  122.1090   55.0470 C   0  0  0  0  0  0  0  0  0  0  0  0
  124.8810  123.5800   56.9440 C   0  0  0  0  0  0  0  0  0  0  0  0
  125.0330  124.1150   58.2270 C   0  0  0  0  0  0  0  0  0  0  0  0
  123.9620  125.0670   58.7370 C   0  0  0  0  0  0  0  0  0  0  0  0
  126.1810  123.7340   58.9720 C   0  0  0  0  0  0  0  0  0  0  0  0
  126.6420  124.0820   60.2900 C   0  0  0  0  0  0  0  0  0  0  0  0
  125.9450  124.9370   61.1060 N   0  0  0  0  0  0  0  0  0  0  0  0
  130.5780  124.4280   64.1070 C   0  0  0  0  0  0  0  0  0  0  0  0
  131.6060  124.6720   65.0150 C   0  0  0  0  0  0  0  0  0  0  0  0
  1  2  1  0
  2  3  1  0
  3  4  2  0
  4  5  1  0
  5  6  2  0
  6  7  1  0
  7  8  1  0
  8  9  2  0
  8 10  1  0
 10 11  1  0
 11 12  1  0
 12 13  2  0
 13 14  1  0
 14 15  1  0
 14 16  2  0
 16 17  1  0
 17 18  1  0
 17 19  2  0
 19 20  1  0
 20 21  1  0
  6 22  1  0
 22 23  2  0
 23  3  1  0
 20 10  2  0
 19 12  1  0
M  END
>  <Binding energies>  (39) 
[-7.8]

>  <Ligand effiencies>  (39) 
[-0.3]

>  <Interactions>  (39) 
["V-B:TYR:539:CD2:9845, V-B:MET:535:CE:9806, V-B:ASP:366:CG:8184, V-B:TYR:539:CE2:9847, V-B:TYR:539:C:9838, V-B:PRO:540:CD:9858, H-B:ASP:366:OD2:8186, V-B:PRO:540:N:9855, V-B:LEU:363:CA:8156, V-B:PRO:540:CB:9856, V-B:PRO:540:CA:9854, V-B:LEU:363:CD1:8160, V-B:ASP:366:CB:8183, H-B:GLU:543:OE2:9881, V-A:HIS:456:CE1:4069, H-A:TYR:484:OH:4347, H-A:ARG:545:NE:4924, V-A:ARG:545:CZ:4926, V-B:ALA:541:CB:9863, H-B:TYR:539:N:9841, H-A:GLY:454:N:4049, V-B:ILE:538:CA:9831, V-B:ILE:538:C:9829, V-B:ILE:538:CD1:9836, V-B:ILE:538:CG2:9834, V-B:ILE:538:CB:9833, V-A:ARG:545:CG:4922, V-A:ARG:545:CD:4923"]

$$$$
4ad_Grossjean_2025
     RDKit          3D

 21 23  0  0  0  0  0  0  0  0999 V2000
  132.3750  131.6070   54.8340 C   0  0  0  0  0  0  0  0  0  0  0  0
  131.8820  131.8240   56.2520 C   0  0  0  0  0  0  0  0  0  0  0  0
  132.7120  131.5840   57.3450 C   0  0  0  0  0  0  0  0  0  0  0  0
  132.2350  131.7900   58.6460 C   0  0  0  0  0  0  0  0  0  0  0  0
  133.1770  131.5110   59.8070 C   0  0  0  0  0  0  0  0  0  0  0  0
  130.8970  132.2440   58.7970 C   0  0  0  0  0  0  0  0  0  0  0  0
  130.1020  132.5520   59.9550 C   0  0  0  0  0  0  0  0  0  0  0  0
  130.5950  132.4380   61.2310 N   0  0  0  0  0  0  0  0  0  0  0  0
  128.7970  132.9740   59.6560 C   0  0  0  0  0  0  0  0  0  0  0  0
  127.7250  133.3480   60.5820 C   0  0  0  0  0  0  0  0  0  0  0  0
  127.0830  132.4830   61.1810 O   0  0  0  0  0  0  0  0  0  0  0  0
  127.5190  134.6800   60.7240 N   0  0  0  0  0  0  0  0  0  0  0  0
  126.5540  135.3600   61.4920 C   0  0  0  0  0  0  0  0  0  0  0  0
  125.2650  134.8190   61.4710 C   0  0  0  0  0  0  0  0  0  0  0  0
  124.2430  135.4130   62.2060 C   0  0  0  0  0  0  0  0  0  0  0  0
  124.5110  136.5450   62.9710 C   0  0  0  0  0  0  0  0  0  0  0  0
  125.7940  137.0860   63.0110 C   0  0  0  0  0  0  0  0  0  0  0  0
  126.8180  136.4940   62.2760 C   0  0  0  0  0  0  0  0  0  0  0  0
  128.5210  133.0040   57.9140 S   0  0  0  0  0  0  0  0  0  0  0  0
  130.1500  132.4520   57.5980 C   0  0  0  0  0  0  0  0  0  0  0  0
  130.6020  132.2570   56.3580 N   0  0  0  0  0  0  0  0  0  0  0  0
  1  2  1  0
  2  3  2  0
  3  4  1  0
  4  5  1  0
  4  6  2  0
  6  7  1  0
  7  8  1  0
  7  9  2  0
  9 10  1  0
 10 11  2  0
 10 12  1  0
 12 13  1  0
 13 14  2  0
 14 15  1  0
 15 16  2  0
 16 17  1  0
 17 18  2  0
  9 19  1  0
 19 20  1  0
 20 21  2  0
 21  2  1  0
 20  6  1  0
 18 13  1  0
M  END
>  <Binding energies>  (40) 
[-7.22]

>  <Ligand effiencies>  (40) 
[-0.30083333333333334]

>  <Interactions>  (40) 
["V-A:ASP:366:CG:3212, V-A:PRO:540:N:4884, H-A:GLU:543:OE1:4909, V-B:PRO:482:CB:9297, V-B:LEU:475:CD1:9229, V-B:TRP:381:CH2:8343, V-A:PRO:540:CB:4885, V-A:TYR:539:CD2:4874, V-B:PRO:482:CG:9298, V-B:TRP:381:CZ2:8341, V-A:PRO:540:CA:4883, V-A:TYR:539:C:4867, V-B:ILE:369:CG2:8208, V-A:TYR:539:CE2:4876, V-A:TYR:539:CZ:4877, V-A:TYR:531:CE2:4793, V-A:LEU:363:CD1:3188, V-A:TYR:531:CZ:4794, V-A:LEU:363:CA:3184, H-A:TYR:539:O:4868, V-B:SER:385:CB:8380, V-B:LEU:475:CB:9227, V-B:SER:385:CA:8378, V-B:TRP:381:CE2:8338, V-A:TYR:539:CG:4872, V-A:ILE:538:CB:4862, V-A:ILE:538:CG2:4863, V-A:PRO:540:C:4881, V-A:MET:535:CG:4833, V-A:TYR:531:CD2:4791"]

$$$$
4ae_Grossjean_2025
     RDKit          3D

 22 24  0  0  0  0  0  0  0  0999 V2000
  130.1430  125.1140   66.9130 C   0  0  0  0  0  0  0  0  0  0  0  0
  130.7440  124.9590   65.5290 C   0  0  0  0  0  0  0  0  0  0  0  0
  132.1130  125.1230   65.3040 C   0  0  0  0  0  0  0  0  0  0  0  0
  132.5940  124.9730   64.0030 C   0  0  0  0  0  0  0  0  0  0  0  0
  131.7060  124.6670   62.9700 C   0  0  0  0  0  0  0  0  0  0  0  0
  130.3480  124.5080   63.2660 C   0  0  0  0  0  0  0  0  0  0  0  0
  129.5000  124.2220   62.1820 N   0  0  0  0  0  0  0  0  0  0  0  0
  128.2770  123.6350   62.1940 C   0  0  0  0  0  0  0  0  0  0  0  0
  127.7130  123.2450   63.2170 O   0  0  0  0  0  0  0  0  0  0  0  0
  127.6430  123.4810   60.8820 C   0  0  0  0  0  0  0  0  0  0  0  0
  128.3780  122.4500   59.6530 S   0  0  0  0  0  0  0  0  0  0  0  0
  127.1180  122.8380   58.5060 C   0  0  0  0  0  0  0  0  0  0  0  0
  127.1050  122.3300   57.2730 N   0  0  0  0  0  0  0  0  0  0  0  0
  126.0760  122.7140   56.4810 C   0  0  0  0  0  0  0  0  0  0  0  0
  126.0850  122.1300   55.0800 C   0  0  0  0  0  0  0  0  0  0  0  0
  125.0670  123.5850   56.8890 C   0  0  0  0  0  0  0  0  0  0  0  0
  125.0820  124.1160   58.1840 C   0  0  0  0  0  0  0  0  0  0  0  0
  123.9610  125.0640   58.5820 C   0  0  0  0  0  0  0  0  0  0  0  0
  126.1480  123.7360   59.0440 C   0  0  0  0  0  0  0  0  0  0  0  0
  126.4700  124.0860   60.4020 C   0  0  0  0  0  0  0  0  0  0  0  0
  125.6910  124.9370   61.1440 N   0  0  0  0  0  0  0  0  0  0  0  0
  129.8690  124.6600   64.5360 N   0  0  0  0  0  0  0  0  0  0  0  0
  1  2  1  0
  2  3  2  0
  3  4  1  0
  4  5  2  0
  5  6  1  0
  6  7  1  0
  7  8  1  0
  8  9  2  0
  8 10  1  0
 10 11  1  0
 11 12  1  0
 12 13  2  0
 13 14  1  0
 14 15  1  0
 14 16  2  0
 16 17  1  0
 17 18  1  0
 17 19  2  0
 19 20  1  0
 20 21  1  0
  6 22  2  0
 22  2  1  0
 20 10  2  0
 19 12  1  0
M  END
>  <Binding energies>  (41) 
[-7.35]

>  <Ligand effiencies>  (41) 
[-0.294]

>  <Interactions>  (41) 
["V-B:TYR:539:CD2:9845, V-B:MET:535:CE:9806, V-B:ASP:366:CG:8184, V-B:TYR:539:CE2:9847, V-B:TYR:539:C:9838, V-B:PRO:540:CD:9858, H-B:ASP:366:OD2:8186, V-B:PRO:540:N:9855, V-B:LEU:363:CA:8156, V-B:PRO:540:CB:9856, V-B:PRO:540:CA:9854, V-B:LEU:363:CD1:8160, V-B:ASP:366:CB:8183, H-B:GLU:543:OE2:9881, H-B:ALA:541:N:9862, V-A:HIS:456:CE1:4069, V-B:GLU:543:CG:9878, V-A:TYR:484:CE1:4344, V-B:GLU:543:CB:9877, V-B:TYR:539:CD1:9844, V-B:ALA:541:CB:9863, H-B:TYR:539:N:9841, V-B:ILE:538:CA:9831, V-B:ILE:538:C:9829, V-B:ILE:538:CD1:9836, V-B:ILE:538:CG2:9834"]

$$$$
4af_Grossjean_2025
     RDKit          3D

 21 23  0  0  0  0  0  0  0  0999 V2000
  126.2310  122.1310   55.3540 C   0  0  0  0  0  0  0  0  0  0  0  0
  126.2760  122.6920   56.7640 C   0  0  0  0  0  0  0  0  0  0  0  0
  125.2100  123.4290   57.2770 C   0  0  0  0  0  0  0  0  0  0  0  0
  125.2740  123.9390   58.5790 C   0  0  0  0  0  0  0  0  0  0  0  0
  124.0880  124.7390   59.0930 C   0  0  0  0  0  0  0  0  0  0  0  0
  126.4480  123.6790   59.3360 C   0  0  0  0  0  0  0  0  0  0  0  0
  126.8420  124.0430   60.6710 C   0  0  0  0  0  0  0  0  0  0  0  0
  126.0330  124.7840   61.4960 N   0  0  0  0  0  0  0  0  0  0  0  0
  128.1120  123.5740   61.0390 C   0  0  0  0  0  0  0  0  0  0  0  0
  128.8320  123.7830   62.2970 C   0  0  0  0  0  0  0  0  0  0  0  0
  128.2470  123.6880   63.3770 O   0  0  0  0  0  0  0  0  0  0  0  0
  130.1520  124.0640   62.1710 N   0  0  0  0  0  0  0  0  0  0  0  0
  131.1030  124.3610   63.1650 C   0  0  0  0  0  0  0  0  0  0  0  0
  130.8180  124.8940   64.4350 C   0  0  0  0  0  0  0  0  0  0  0  0
  131.8610  125.1590   65.3230 C   0  0  0  0  0  0  0  0  0  0  0  0
  133.1690  124.8890   64.9190 C   0  0  0  0  0  0  0  0  0  0  0  0
  133.4720  124.3820   63.6970 N   0  0  0  0  0  0  0  0  0  0  0  0
  132.4470  124.1300   62.8440 C   0  0  0  0  0  0  0  0  0  0  0  0
  128.8600  122.6620   59.7260 S   0  0  0  0  0  0  0  0  0  0  0  0
  127.4670  122.9110   58.6970 C   0  0  0  0  0  0  0  0  0  0  0  0
  127.4090  122.4230   57.4570 N   0  0  0  0  0  0  0  0  0  0  0  0
  1  2  1  0
  2  3  2  0
  3  4  1  0
  4  5  1  0
  4  6  2  0
  6  7  1  0
  7  8  1  0
  7  9  2  0
  9 10  1  0
 10 11  2  0
 10 12  1  0
 12 13  1  0
 13 14  2  0
 14 15  1  0
 15 16  2  0
 16 17  1  0
 17 18  2  0
  9 19  1  0
 19 20  1  0
 20 21  2  0
 21  2  1  0
 20  6  1  0
 18 13  1  0
M  END
>  <Binding energies>  (42) 
[-7.08]

>  <Ligand effiencies>  (42) 
[-0.295]

>  <Interactions>  (42) 
["V-B:TYR:539:CD2:9845, V-B:MET:535:CE:9806, V-B:ASP:366:CG:8184, V-B:TYR:539:CE2:9847, V-B:TYR:539:C:9838, V-B:PRO:540:CD:9858, H-B:ASP:366:OD2:8186, V-B:PRO:540:N:9855, V-B:LEU:363:CA:8156, V-B:PRO:540:CB:9856, V-B:PRO:540:CA:9854, V-B:LEU:363:CD1:8160, V-B:ASP:366:CB:8183, H-B:GLU:543:OE2:9881, V-A:ARG:545:CZ:4926, V-B:TYR:539:CD1:9844, V-B:TYR:539:CE1:9846, V-B:ALA:541:CB:9863, V-B:ASN:362:C:8143, H-A:GLY:454:N:4049, V-B:ILE:538:CA:9831, V-B:ILE:538:C:9829, V-B:ILE:538:CD1:9836"]

$$$$
4ag_Grossjean_2025
     RDKit          3D

 22 24  0  0  0  0  0  0  0  0999 V2000
  126.3640  122.1160   54.6450 C   0  0  0  0  0  0  0  0  0  0  0  0
  126.2070  122.6640   56.0520 C   0  0  0  0  0  0  0  0  0  0  0  0
  125.1140  123.4600   56.3930 C   0  0  0  0  0  0  0  0  0  0  0  0
  124.9890  123.9550   57.6960 C   0  0  0  0  0  0  0  0  0  0  0  0
  123.7790  124.8180   58.0200 C   0  0  0  0  0  0  0  0  0  0  0  0
  126.0010  123.6170   58.6340 C   0  0  0  0  0  0  0  0  0  0  0  0
  126.1840  123.9450   60.0220 C   0  0  0  0  0  0  0  0  0  0  0  0
  125.2930  124.7250   60.7160 N   0  0  0  0  0  0  0  0  0  0  0  0
  127.3460  123.4000   60.5860 C   0  0  0  0  0  0  0  0  0  0  0  0
  127.8320  123.5210   61.9610 C   0  0  0  0  0  0  0  0  0  0  0  0
  127.1290  123.1990   62.9210 O   0  0  0  0  0  0  0  0  0  0  0  0
  129.0780  124.0200   62.1090 N   0  0  0  0  0  0  0  0  0  0  0  0
  129.7710  124.2030   63.3830 C   0  0  0  0  0  0  0  0  0  0  0  0
  131.2510  124.5410   63.2400 C   0  0  0  0  0  0  0  0  0  0  0  0
  132.0130  124.8210   64.3770 C   0  0  0  0  0  0  0  0  0  0  0  0
  133.3710  125.1050   64.2520 C   0  0  0  0  0  0  0  0  0  0  0  0
  133.9630  125.0980   62.9900 C   0  0  0  0  0  0  0  0  0  0  0  0
  133.2130  124.8050   61.8550 C   0  0  0  0  0  0  0  0  0  0  0  0
  131.8560  124.5190   61.9800 C   0  0  0  0  0  0  0  0  0  0  0  0
  128.2470  122.4490   59.4050 S   0  0  0  0  0  0  0  0  0  0  0  0
  127.0670  122.7950   58.1600 C   0  0  0  0  0  0  0  0  0  0  0  0
  127.1890  122.3210   56.9190 N   0  0  0  0  0  0  0  0  0  0  0  0
  1  2  1  0
  2  3  2  0
  3  4  1  0
  4  5  1  0
  4  6  2  0
  6  7  1  0
  7  8  1  0
  7  9  2  0
  9 10  1  0
 10 11  2  0
 10 12  1  0
 12 13  1  0
 13 14  1  0
 14 15  2  0
 15 16  1  0
 16 17  2  0
 17 18  1  0
 18 19  2  0
  9 20  1  0
 20 21  1  0
 21 22  2  0
 22  2  1  0
 21  6  1  0
 19 14  1  0
M  END
>  <Binding energies>  (43) 
[-7.38]

>  <Ligand effiencies>  (43) 
[-0.2952]

>  <Interactions>  (43) 
["V-B:TYR:539:CD2:9845, V-B:MET:535:CE:9806, V-B:ASP:366:CG:8184, V-B:TYR:539:CE2:9847, V-B:TYR:539:C:9838, H-B:ASP:366:OD2:8186, V-A:ASP:366:CG:3212, V-B:PRO:540:N:9855, V-B:LEU:363:CA:8156, V-B:PRO:540:CB:9856, V-B:PRO:540:CA:9854, V-B:LEU:363:CD1:8160, V-B:TYR:531:CZ:9765, V-B:ASP:366:CB:8183, V-B:TYR:531:CE2:9764, H-B:GLU:543:OE2:9881, H-B:ALA:541:N:9862, V-A:ILE:369:CD1:3238, V-A:ARG:545:CZ:4926, V-B:TYR:539:CD1:9844, V-B:TYR:539:CE1:9846, V-B:ALA:541:CB:9863, H-B:TYR:539:N:9841, V-B:ILE:538:CA:9831, V-B:ILE:538:C:9829, V-B:ILE:538:CD1:9836, V-A:GLY:453:CA:4043"]

$$$$
4ah_Grossjean_2025
     RDKit          3D

 28 30  0  0  0  0  0  0  0  0999 V2000
  128.6140  123.8800   72.6500 C   0  0  0  0  0  0  0  0  0  0  0  0
  128.8270  125.2100   73.1080 O   0  0  0  0  0  0  0  0  0  0  0  0
  129.1630  126.1960   72.1970 C   0  0  0  0  0  0  0  0  0  0  0  0
  128.6620  126.2570   70.8870 C   0  0  0  0  0  0  0  0  0  0  0  0
  129.0460  127.2820   70.0220 C   0  0  0  0  0  0  0  0  0  0  0  0
  128.4550  127.3570   68.6180 C   0  0  0  0  0  0  0  0  0  0  0  0
  129.2060  126.5890   67.6250 N   0  0  0  0  0  0  0  0  0  0  0  0
  129.4140  125.2560   67.6620 C   0  0  0  0  0  0  0  0  0  0  0  0
  129.0100  124.5460   68.5850 O   0  0  0  0  0  0  0  0  0  0  0  0
  130.1910  124.6980   66.5570 C   0  0  0  0  0  0  0  0  0  0  0  0
  129.6320  123.2460   65.7250 S   0  0  0  0  0  0  0  0  0  0  0  0
  131.0380  123.2480   64.6830 C   0  0  0  0  0  0  0  0  0  0  0  0
  131.2210  122.3210   63.7420 N   0  0  0  0  0  0  0  0  0  0  0  0
  132.3500  122.4380   63.0020 C   0  0  0  0  0  0  0  0  0  0  0  0
  132.5400  121.3710   61.9400 C   0  0  0  0  0  0  0  0  0  0  0  0
  133.2900  123.4510   63.1780 C   0  0  0  0  0  0  0  0  0  0  0  0
  133.0970  124.4220   64.1670 C   0  0  0  0  0  0  0  0  0  0  0  0
  134.1510  125.5070   64.3220 C   0  0  0  0  0  0  0  0  0  0  0  0
  131.9240  124.3310   64.9660 C   0  0  0  0  0  0  0  0  0  0  0  0
  131.4230  125.1350   66.0480 C   0  0  0  0  0  0  0  0  0  0  0  0
  132.0960  126.2330   66.5200 N   0  0  0  0  0  0  0  0  0  0  0  0
  129.9170  128.2740   70.4740 C   0  0  0  0  0  0  0  0  0  0  0  0
  130.4380  128.2360   71.7770 C   0  0  0  0  0  0  0  0  0  0  0  0
  131.3160  129.1760   72.2840 O   0  0  0  0  0  0  0  0  0  0  0  0
  130.8040  130.2940   73.0020 C   0  0  0  0  0  0  0  0  0  0  0  0
  130.0570  127.1880   72.6260 C   0  0  0  0  0  0  0  0  0  0  0  0
  130.5450  127.1480   73.9110 O   0  0  0  0  0  0  0  0  0  0  0  0
  131.4960  126.1160   74.1370 C   0  0  0  0  0  0  0  0  0  0  0  0
  1  2  1  0
  2  3  1  0
  3  4  2  0
  4  5  1  0
  5  6  1  0
  6  7  1  0
  7  8  1  0
  8  9  2  0
  8 10  1  0
 10 11  1  0
 11 12  1  0
 12 13  2  0
 13 14  1  0
 14 15  1  0
 14 16  2  0
 16 17  1  0
 17 18  1  0
 17 19  2  0
 19 20  1  0
 20 21  1  0
  5 22  2  0
 22 23  1  0
 23 24  1  0
 24 25  1  0
 23 26  2  0
 26 27  1  0
 27 28  1  0
 26  3  1  0
 20 10  2  0
 19 12  1  0
M  END
>  <Binding energies>  (44) 
[-6.84]

>  <Ligand effiencies>  (44) 
[-0.22064516129032258]

>  <Interactions>  (44) 
["V-A:ILE:369:CG2:3236, V-A:GLU:543:CD:4908, H-A:GLU:543:OE1:4909, H-A:GLU:543:OE2:4910, V-A:HIS:456:CD2:4067, H-A:LYS:547:NZ:4951, V-A:HIS:456:CB:4064, V-A:HIS:456:CG:4065, V-B:GLU:543:CD:9879, V-B:HIS:456:CE1:9041, V-A:GLU:543:CB:4906, V-A:HIS:456:CE1:4069, H-B:LYS:547:NZ:9922, V-A:LEU:475:CD2:4258, V-B:GLU:543:CG:9878, V-A:TYR:484:CE1:4344, V-B:GLU:543:CB:9877, V-A:GLU:543:C:4902, V-B:GLU:543:CA:9875, H-A:TYR:484:OH:4347, V-A:GLY:454:CA:4048, V-A:ARG:545:CZ:4926, V-B:ALA:541:CB:9863, V-A:TYR:484:CZ:4346, V-A:LYS:547:CE:4950, V-A:GLY:544:C:4912, V-A:GLY:544:CA:4914, V-B:LYS:547:CE:9921, V-A:ARG:545:CG:4922, V-A:ARG:545:CD:4923, V-A:GLY:453:CA:4043, V-A:GLY:453:C:4041"]

$$$$
4ai_Grossjean_2025
     RDKit          3D

 20 22  0  0  0  0  0  0  0  0999 V2000
  126.7540  122.4370   56.3890 C   0  0  0  0  0  0  0  0  0  0  0  0
  127.0120  122.7680   57.8480 C   0  0  0  0  0  0  0  0  0  0  0  0
  125.9880  123.2400   58.6680 C   0  0  0  0  0  0  0  0  0  0  0  0
  126.2470  123.5340   60.0120 C   0  0  0  0  0  0  0  0  0  0  0  0
  125.0970  124.0440   60.8660 C   0  0  0  0  0  0  0  0  0  0  0  0
  127.5700  123.3330   60.4910 C   0  0  0  0  0  0  0  0  0  0  0  0
  128.1720  123.5270   61.7830 C   0  0  0  0  0  0  0  0  0  0  0  0
  127.4620  123.9970   62.8590 N   0  0  0  0  0  0  0  0  0  0  0  0
  129.5330  123.1890   61.8340 C   0  0  0  0  0  0  0  0  0  0  0  0
  130.4500  123.2710   62.9730 C   0  0  0  0  0  0  0  0  0  0  0  0
  130.4940  122.3690   63.8120 O   0  0  0  0  0  0  0  0  0  0  0  0
  131.2310  124.3800   63.0110 N   0  0  0  0  0  0  0  0  0  0  0  0
  132.1870  124.7070   63.9640 C   0  0  0  0  0  0  0  0  0  0  0  0
  131.8650  125.1300   65.2530 C   0  0  0  0  0  0  0  0  0  0  0  0
  133.0740  125.3530   65.8700 C   0  0  0  0  0  0  0  0  0  0  0  0
  134.0730  125.0770   64.9990 O   0  0  0  0  0  0  0  0  0  0  0  0
  133.4990  124.6670   63.7950 N   0  0  0  0  0  0  0  0  0  0  0  0
  130.1130  122.6390   60.2600 S   0  0  0  0  0  0  0  0  0  0  0  0
  128.5270  122.8460   59.5510 C   0  0  0  0  0  0  0  0  0  0  0  0
  128.2840  122.5670   58.2700 N   0  0  0  0  0  0  0  0  0  0  0  0
  1  2  1  0
  2  3  2  0
  3  4  1  0
  4  5  1  0
  4  6  2  0
  6  7  1  0
  7  8  1  0
  7  9  2  0
  9 10  1  0
 10 11  2  0
 10 12  1  0
 12 13  1  0
 13 14  1  0
 14 15  2  0
 15 16  1  0
 16 17  1  0
  9 18  1  0
 18 19  1  0
 19 20  2  0
 20  2  1  0
 19  6  1  0
 17 13  2  0
M  END
>  <Binding energies>  (45) 
[-6.8]

>  <Ligand effiencies>  (45) 
[-0.2956521739130435]

>  <Interactions>  (45) 
["V-B:TYR:539:CD2:9845, V-B:TYR:539:CE2:9847, V-B:TYR:539:C:9838, V-B:PRO:540:N:9855, V-B:PRO:540:CB:9856, V-B:PRO:540:CA:9854, H-B:GLU:543:OE2:9881, V-B:GLU:543:CD:9879, V-B:GLU:543:CG:9878, H-A:TYR:484:OH:4347, H-A:ARG:545:NE:4924, V-A:ARG:545:CZ:4926, V-B:TYR:539:CD1:9844, V-B:TYR:539:CE1:9846, V-B:ALA:541:CB:9863, H-A:ARG:545:NH1:4927, H-A:GLY:454:N:4049, V-A:ARG:545:CD:4923"]

$$$$
4aj_Grossjean_2025
     RDKit          3D

 20 22  0  0  0  0  0  0  0  0999 V2000
  126.3670  122.1420   54.6470 C   0  0  0  0  0  0  0  0  0  0  0  0
  126.2330  122.7270   56.0410 C   0  0  0  0  0  0  0  0  0  0  0  0
  125.1940  123.6010   56.3550 C   0  0  0  0  0  0  0  0  0  0  0  0
  125.0930  124.1330   57.6450 C   0  0  0  0  0  0  0  0  0  0  0  0
  123.9410  125.0820   57.9380 C   0  0  0  0  0  0  0  0  0  0  0  0
  126.0720  123.7490   58.6000 C   0  0  0  0  0  0  0  0  0  0  0  0
  126.2680  124.0970   59.9820 C   0  0  0  0  0  0  0  0  0  0  0  0
  125.4300  124.9560   60.6460 N   0  0  0  0  0  0  0  0  0  0  0  0
  127.3790  123.4770   60.5740 C   0  0  0  0  0  0  0  0  0  0  0  0
  127.8730  123.6100   61.9460 C   0  0  0  0  0  0  0  0  0  0  0  0
  127.4520  122.8750   62.8420 O   0  0  0  0  0  0  0  0  0  0  0  0
  128.8120  124.5700   62.1350 N   0  0  0  0  0  0  0  0  0  0  0  0
  129.4470  124.8920   63.3270 C   0  0  0  0  0  0  0  0  0  0  0  0
  129.7250  126.0890   63.7960 N   0  0  0  0  0  0  0  0  0  0  0  0
  130.3330  126.0230   64.9650 C   0  0  0  0  0  0  0  0  0  0  0  0
  130.5600  124.7450   65.4690 C   0  0  0  0  0  0  0  0  0  0  0  0
  129.9390  123.5750   64.3420 S   0  0  0  0  0  0  0  0  0  0  0  0
  128.2270  122.4490   59.4170 S   0  0  0  0  0  0  0  0  0  0  0  0
  127.0840  122.8460   58.1540 C   0  0  0  0  0  0  0  0  0  0  0  0
  127.1840  122.3380   56.9250 N   0  0  0  0  0  0  0  0  0  0  0  0
  1  2  1  0
  2  3  2  0
  3  4  1  0
  4  5  1  0
  4  6  2  0
  6  7  1  0
  7  8  1  0
  7  9  2  0
  9 10  1  0
 10 11  2  0
 10 12  1  0
 12 13  1  0
 13 14  2  0
 14 15  1  0
 15 16  2  0
 16 17  1  0
  9 18  1  0
 18 19  1  0
 19 20  2  0
 20  2  1  0
 19  6  1  0
 17 13  1  0
M  END
>  <Binding energies>  (46) 
[-6.76]

>  <Ligand effiencies>  (46) 
[-0.29391304347826086]

>  <Interactions>  (46) 
["V-B:TYR:539:CD2:9845, V-B:MET:535:CE:9806, V-B:ASP:366:CG:8184, V-B:TYR:539:CE2:9847, V-B:TYR:539:C:9838, H-B:ASP:366:OD2:8186, V-B:PRO:540:N:9855, V-B:LEU:363:CA:8156, V-B:PRO:540:CB:9856, V-B:PRO:540:CA:9854, V-B:LEU:363:CD1:8160, V-B:TYR:531:CZ:9765, V-B:ASP:366:CB:8183, V-B:TYR:531:CE2:9764, H-B:GLU:543:OE2:9881, H-B:ALA:541:N:9862, V-B:GLU:543:CD:9879, V-B:GLU:543:CG:9878, V-B:TYR:539:CD1:9844, V-B:TYR:539:CE1:9846, V-B:ALA:541:CB:9863, H-B:TYR:539:N:9841, V-B:ILE:538:CA:9831, V-B:ILE:538:C:9829, V-B:ILE:538:CD1:9836"]

$$$$
4ak_Grossjean_2025
     RDKit          3D

 25 26  0  0  0  0  0  0  0  0999 V2000
  132.7500  125.4600   57.6430 C   0  0  0  0  0  0  0  0  0  0  0  0
  133.1310  124.2420   58.2640 O   0  0  0  0  0  0  0  0  0  0  0  0
  133.1380  124.3080   59.6840 C   0  0  0  0  0  0  0  0  0  0  0  0
  131.6960  124.2580   60.2060 C   0  0  0  0  0  0  0  0  0  0  0  0
  131.1930  122.9350   60.0730 O   0  0  0  0  0  0  0  0  0  0  0  0
  132.1500  121.9250   60.3640 C   0  0  0  0  0  0  0  0  0  0  0  0
  131.8690  121.3470   61.7560 C   0  0  0  0  0  0  0  0  0  0  0  0
  132.5070  122.1540   62.7370 O   0  0  0  0  0  0  0  0  0  0  0  0
  131.6700  123.1670   63.2800 C   0  0  0  0  0  0  0  0  0  0  0  0
  130.2350  122.6250   63.4120 C   0  0  0  0  0  0  0  0  0  0  0  0
  129.4610  122.7090   62.1740 N   0  0  0  0  0  0  0  0  0  0  0  0
  128.2180  123.2210   62.0640 C   0  0  0  0  0  0  0  0  0  0  0  0
  127.6140  123.6990   63.0260 O   0  0  0  0  0  0  0  0  0  0  0  0
  127.6240  123.1870   60.7290 C   0  0  0  0  0  0  0  0  0  0  0  0
  128.3030  122.1440   59.4790 S   0  0  0  0  0  0  0  0  0  0  0  0
  127.0960  122.6640   58.3250 C   0  0  0  0  0  0  0  0  0  0  0  0
  127.0690  122.2000   57.0750 N   0  0  0  0  0  0  0  0  0  0  0  0
  126.0830  122.6860   56.2820 C   0  0  0  0  0  0  0  0  0  0  0  0
  126.0680  122.1450   54.8640 C   0  0  0  0  0  0  0  0  0  0  0  0
  125.1330  123.6140   56.7050 C   0  0  0  0  0  0  0  0  0  0  0  0
  125.1640  124.0990   58.0180 C   0  0  0  0  0  0  0  0  0  0  0  0
  124.1100  125.1130   58.4320 C   0  0  0  0  0  0  0  0  0  0  0  0
  126.1850  123.6130   58.8790 C   0  0  0  0  0  0  0  0  0  0  0  0
  126.5060  123.8890   60.2540 C   0  0  0  0  0  0  0  0  0  0  0  0
  125.7750  124.7650   61.0160 N   0  0  0  0  0  0  0  0  0  0  0  0
  1  2  1  0
  2  3  1  0
  3  4  1  0
  4  5  1  0
  5  6  1  0
  6  7  1  0
  7  8  1  0
  8  9  1  0
  9 10  1  0
 10 11  1  0
 11 12  1  0
 12 13  2  0
 12 14  1  0
 14 15  1  0
 15 16  1  0
 16 17  2  0
 17 18  1  0
 18 19  1  0
 18 20  2  0
 20 21  1  0
 21 22  1  0
 21 23  2  0
 23 24  1  0
 24 25  1  0
 24 14  2  0
 23 16  1  0
M  END
>  <Binding energies>  (47) 
[-5.56]

>  <Ligand effiencies>  (47) 
[-0.19857142857142857]

>  <Interactions>  (47) 
["V-B:TYR:539:CD2:9845, V-B:MET:535:CE:9806, V-B:ASP:366:CG:8184, V-B:TYR:539:CE2:9847, V-B:TYR:539:C:9838, V-B:PRO:540:CD:9858, H-B:ASP:366:OD2:8186, V-B:PRO:540:N:9855, V-A:ILE:369:CG2:3236, V-B:LEU:363:CA:8156, V-B:PRO:540:CB:9856, V-A:ASP:366:CB:3211, V-B:PRO:540:CA:9854, V-B:LEU:363:CD1:8160, V-B:ASP:366:CB:8183, V-B:TYR:531:CE2:9764, H-B:GLU:543:OE2:9881, V-A:ASP:366:CA:3209, V-A:LEU:475:CD2:4258, H-B:TYR:539:OH:9849, V-B:TYR:539:CD1:9844, V-B:ALA:541:CB:9863, H-B:TYR:539:N:9841, V-A:ILE:369:CB:3235, V-A:ASP:366:C:3207, V-A:TYR:531:CZ:4794, V-B:ILE:538:CA:9831, V-B:ILE:538:C:9829, V-B:ILE:538:CD1:9836, V-B:ILE:538:CG2:9834, V-B:ILE:538:CB:9833"]

$$$$
4al_Grossjean_2025
     RDKit          3D

 16 17  0  0  0  0  0  0  0  0999 V2000
  130.4290  122.6780   63.2560 C   0  0  0  0  0  0  0  0  0  0  0  0
  129.5590  122.5720   62.1400 O   0  0  0  0  0  0  0  0  0  0  0  0
  128.3830  123.2510   62.1060 C   0  0  0  0  0  0  0  0  0  0  0  0
  127.9010  123.8440   63.0730 O   0  0  0  0  0  0  0  0  0  0  0  0
  127.7310  123.2080   60.7790 C   0  0  0  0  0  0  0  0  0  0  0  0
  128.3720  122.1530   59.5160 S   0  0  0  0  0  0  0  0  0  0  0  0
  127.1320  122.6710   58.3970 C   0  0  0  0  0  0  0  0  0  0  0  0
  127.0620  122.1960   57.1530 N   0  0  0  0  0  0  0  0  0  0  0  0
  126.0530  122.6790   56.3870 C   0  0  0  0  0  0  0  0  0  0  0  0
  125.9910  122.1250   54.9750 C   0  0  0  0  0  0  0  0  0  0  0  0
  125.1230  123.6170   56.8310 C   0  0  0  0  0  0  0  0  0  0  0  0
  125.1990  124.1140   58.1370 C   0  0  0  0  0  0  0  0  0  0  0  0
  124.1630  125.1350   58.5760 C   0  0  0  0  0  0  0  0  0  0  0  0
  126.2440  123.6300   58.9700 C   0  0  0  0  0  0  0  0  0  0  0  0
  126.6110  123.9160   60.3290 C   0  0  0  0  0  0  0  0  0  0  0  0
  125.9180  124.8060   61.1090 N   0  0  0  0  0  0  0  0  0  0  0  0
  1  2  1  0
  2  3  1  0
  3  4  2  0
  3  5  1  0
  5  6  1  0
  6  7  1  0
  7  8  2  0
  8  9  1  0
  9 10  1  0
  9 11  2  0
 11 12  1  0
 12 13  1  0
 12 14  2  0
 14 15  1  0
 15 16  1  0
 15  5  2  0
 14  7  1  0
M  END
>  <Binding energies>  (48) 
[-5.59]

>  <Ligand effiencies>  (48) 
[-0.31055555555555553]

>  <Interactions>  (48) 
["V-B:TYR:539:CD2:9845, V-B:MET:535:CE:9806, V-B:ASP:366:CG:8184, V-B:TYR:539:CE2:9847, V-B:TYR:539:C:9838, V-B:PRO:540:CD:9858, H-B:ASP:366:OD2:8186, V-B:PRO:540:N:9855, V-B:LEU:363:CA:8156, V-B:PRO:540:CB:9856, V-B:PRO:540:CA:9854, V-B:LEU:363:CD1:8160, V-B:ASP:366:CB:8183, H-B:GLU:543:OE2:9881, V-B:TYR:539:CD1:9844, V-B:ALA:541:CB:9863, H-B:TYR:539:N:9841, V-B:ILE:538:CA:9831, V-B:ILE:538:C:9829, V-B:ILE:538:CD1:9836, V-B:ILE:538:CG2:9834, V-B:ILE:538:CB:9833"]

$$$$
4bc_Grossjean_2025
     RDKit          3D

 26 28  0  0  0  0  0  0  0  0999 V2000
  133.6230  125.5000   66.6170 C   0  0  0  0  0  0  0  0  0  0  0  0
  133.8920  125.0530   65.2920 O   0  0  0  0  0  0  0  0  0  0  0  0
  132.8350  124.7430   64.4590 C   0  0  0  0  0  0  0  0  0  0  0  0
  133.0780  124.8230   63.0880 C   0  0  0  0  0  0  0  0  0  0  0  0
  132.0730  124.5290   62.1700 C   0  0  0  0  0  0  0  0  0  0  0  0
  130.8080  124.1400   62.6150 C   0  0  0  0  0  0  0  0  0  0  0  0
  129.8520  123.8780   61.6160 N   0  0  0  0  0  0  0  0  0  0  0  0
  128.5540  123.5090   61.7470 C   0  0  0  0  0  0  0  0  0  0  0  0
  128.0040  123.3040   62.8300 O   0  0  0  0  0  0  0  0  0  0  0  0
  127.8150  123.3510   60.4910 C   0  0  0  0  0  0  0  0  0  0  0  0
  128.3900  122.2330   59.2570 S   0  0  0  0  0  0  0  0  0  0  0  0
  127.0540  122.6360   58.2040 C   0  0  0  0  0  0  0  0  0  0  0  0
  126.9150  122.0650   57.0080 N   0  0  0  0  0  0  0  0  0  0  0  0
  125.8430  122.4590   56.2830 C   0  0  0  0  0  0  0  0  0  0  0  0
  125.7010  121.7930   54.9260 C   0  0  0  0  0  0  0  0  0  0  0  0
  124.9150  123.4000   56.7210 C   0  0  0  0  0  0  0  0  0  0  0  0
  125.0560  124.0050   57.9800 C   0  0  0  0  0  0  0  0  0  0  0  0
  124.0110  125.0370   58.4170 C   0  0  0  0  0  0  0  0  0  0  0  0
  122.9320  125.0510   57.6320 F   0  0  0  0  0  0  0  0  0  0  0  0
  123.6010  124.7650   59.6550 F   0  0  0  0  0  0  0  0  0  0  0  0
  124.5430  126.2590   58.3870 F   0  0  0  0  0  0  0  0  0  0  0  0
  126.1760  123.6110   58.7710 C   0  0  0  0  0  0  0  0  0  0  0  0
  126.6380  123.9980   60.0820 C   0  0  0  0  0  0  0  0  0  0  0  0
  125.9780  124.9190   60.8560 N   0  0  0  0  0  0  0  0  0  0  0  0
  130.5510  124.0700   63.9920 C   0  0  0  0  0  0  0  0  0  0  0  0
  131.5580  124.3660   64.9060 C   0  0  0  0  0  0  0  0  0  0  0  0
  1  2  1  0
  2  3  1  0
  3  4  2  0
  4  5  1  0
  5  6  2  0
  6  7  1  0
  7  8  1  0
  8  9  2  0
  8 10  1  0
 10 11  1  0
 11 12  1  0
 12 13  2  0
 13 14  1  0
 14 15  1  0
 14 16  2  0
 16 17  1  0
 17 18  1  0
 18 19  1  0
 18 20  1  0
 18 21  1  0
 17 22  2  0
 22 23  1  0
 23 24  1  0
  6 25  1  0
 25 26  2  0
 26  3  1  0
 23 10  2  0
 22 12  1  0
M  END
>  <Binding energies>  (49) 
[-7.23]

>  <Ligand effiencies>  (49) 
[-0.2493103448275862]

>  <Interactions>  (49) 
["V-B:TYR:539:CD2:9845, V-B:MET:535:CE:9806, V-B:ASP:366:CG:8184, V-B:TYR:539:CE2:9847, V-B:TYR:539:C:9838, V-B:PRO:540:CD:9858, H-B:ASP:366:OD2:8186, V-B:PRO:540:N:9855, V-B:LEU:363:CA:8156, V-B:PRO:540:CB:9856, V-B:PRO:540:CA:9854, V-B:LEU:363:CD1:8160, V-B:TYR:531:CZ:9765, V-B:ASP:366:CB:8183, V-B:TYR:531:CE2:9764, H-B:GLU:543:OE2:9881, H-B:ALA:541:N:9862, V-A:HIS:456:CE1:4069, H-A:TYR:484:OH:4347, H-A:ARG:545:NE:4924, V-A:ARG:545:CZ:4926, V-B:ALA:541:CB:9863, H-B:TYR:539:N:9841, V-B:ASN:362:C:8143, V-B:LEU:363:CB:8158, V-B:LEU:363:CG:8159, V-B:LEU:363:C:8154, H-A:GLY:454:N:4049, V-B:ILE:538:CA:9831, V-B:ILE:538:C:9829, V-B:ILE:538:CD1:9836, V-B:ILE:538:CG2:9834, V-B:ILE:538:CB:9833, V-B:ILE:538:CG1:9835, V-A:ARG:545:CG:4922, V-A:ARG:545:CD:4923"]

$$$$
4bf_Grossjean_2025
     RDKit          3D

 24 26  0  0  0  0  0  0  0  0999 V2000
  126.3340  122.4830   56.0160 C   0  0  0  0  0  0  0  0  0  0  0  0
  126.5790  122.7910   57.4830 C   0  0  0  0  0  0  0  0  0  0  0  0
  125.5670  123.3110   58.2850 C   0  0  0  0  0  0  0  0  0  0  0  0
  125.8080  123.5950   59.6380 C   0  0  0  0  0  0  0  0  0  0  0  0
  124.6640  124.1690   60.4810 C   0  0  0  0  0  0  0  0  0  0  0  0
  124.0990  123.2620   61.2820 F   0  0  0  0  0  0  0  0  0  0  0  0
  125.1230  125.1540   61.2540 F   0  0  0  0  0  0  0  0  0  0  0  0
  123.7090  124.6450   59.6820 F   0  0  0  0  0  0  0  0  0  0  0  0
  127.1170  123.3280   60.1380 C   0  0  0  0  0  0  0  0  0  0  0  0
  127.7230  123.4870   61.4370 C   0  0  0  0  0  0  0  0  0  0  0  0
  127.0360  123.9790   62.5180 N   0  0  0  0  0  0  0  0  0  0  0  0
  129.0700  123.0930   61.4950 C   0  0  0  0  0  0  0  0  0  0  0  0
  129.9900  123.1490   62.6360 C   0  0  0  0  0  0  0  0  0  0  0  0
  130.1540  122.1650   63.3580 O   0  0  0  0  0  0  0  0  0  0  0  0
  130.6300  124.3310   62.8070 N   0  0  0  0  0  0  0  0  0  0  0  0
  131.5280  124.7260   63.8170 C   0  0  0  0  0  0  0  0  0  0  0  0
  131.1670  125.1460   65.1090 C   0  0  0  0  0  0  0  0  0  0  0  0
  132.1600  125.5280   66.0150 C   0  0  0  0  0  0  0  0  0  0  0  0
  133.4920  125.4840   65.6030 C   0  0  0  0  0  0  0  0  0  0  0  0
  133.8660  125.0890   64.3600 N   0  0  0  0  0  0  0  0  0  0  0  0
  132.8890  124.7220   63.4910 C   0  0  0  0  0  0  0  0  0  0  0  0
  129.6310  122.5120   59.9290 S   0  0  0  0  0  0  0  0  0  0  0  0
  128.0640  122.7940   59.2100 C   0  0  0  0  0  0  0  0  0  0  0  0
  127.8300  122.5250   57.9260 N   0  0  0  0  0  0  0  0  0  0  0  0
  1  2  1  0
  2  3  2  0
  3  4  1  0
  4  5  1  0
  5  6  1  0
  5  7  1  0
  5  8  1  0
  4  9  2  0
  9 10  1  0
 10 11  1  0
 10 12  2  0
 12 13  1  0
 13 14  2  0
 13 15  1  0
 15 16  1  0
 16 17  2  0
 17 18  1  0
 18 19  2  0
 19 20  1  0
 20 21  2  0
 12 22  1  0
 22 23  1  0
 23 24  2  0
 24  2  1  0
 23  9  1  0
 21 16  1  0
M  END
>  <Binding energies>  (50) 
[-6.82]

>  <Ligand effiencies>  (50) 
[-0.2525925925925926]

>  <Interactions>  (50) 
["V-B:TYR:539:CD2:9845, V-B:ASP:366:CG:8184, V-B:TYR:539:CE2:9847, V-B:TYR:539:C:9838, V-B:PRO:540:N:9855, V-B:LEU:363:CA:8156, V-B:PRO:540:CB:9856, V-B:PRO:540:CA:9854, V-B:ASP:366:CB:8183, H-B:GLU:543:OE2:9881, V-B:GLU:543:CD:9879, V-A:HIS:456:CE1:4069, V-B:GLU:543:CG:9878, H-A:ARG:545:NH2:4928, V-A:ARG:545:CZ:4926, V-B:TYR:539:CD1:9844, V-B:ALA:541:CB:9863, V-B:ASN:362:CB:8147, V-B:ASN:362:C:8143, H-A:ARG:545:NH1:4927, H-A:GLY:454:N:4049, V-B:ASN:362:CA:8145, H-B:ALA:541:O:9860, V-A:ARG:545:CD:4923"]

$$$$
4bh_Grossjean_2025
     RDKit          3D

 31 33  0  0  0  0  0  0  0  0999 V2000
  128.6270  124.4170   72.6380 C   0  0  0  0  0  0  0  0  0  0  0  0
  128.6700  125.6130   73.4080 O   0  0  0  0  0  0  0  0  0  0  0  0
  129.0750  126.7920   72.8100 C   0  0  0  0  0  0  0  0  0  0  0  0
  129.8870  126.8510   71.6660 C   0  0  0  0  0  0  0  0  0  0  0  0
  130.2600  128.0780   71.1160 C   0  0  0  0  0  0  0  0  0  0  0  0
  131.1040  128.1230   69.8480 C   0  0  0  0  0  0  0  0  0  0  0  0
  130.3150  128.2950   68.6270 N   0  0  0  0  0  0  0  0  0  0  0  0
  129.0120  127.9770   68.4870 C   0  0  0  0  0  0  0  0  0  0  0  0
  128.3550  127.4590   69.3930 O   0  0  0  0  0  0  0  0  0  0  0  0
  128.4230  128.2400   67.1740 C   0  0  0  0  0  0  0  0  0  0  0  0
  129.0000  127.3680   65.7580 S   0  0  0  0  0  0  0  0  0  0  0  0
  127.9030  128.2450   64.7170 C   0  0  0  0  0  0  0  0  0  0  0  0
  127.8540  128.0120   63.4060 N   0  0  0  0  0  0  0  0  0  0  0  0
  126.9630  128.7510   62.7050 C   0  0  0  0  0  0  0  0  0  0  0  0
  126.9250  128.4720   61.2130 C   0  0  0  0  0  0  0  0  0  0  0  0
  126.1270  129.7060   63.2780 C   0  0  0  0  0  0  0  0  0  0  0  0
  126.1760  129.9570   64.6580 C   0  0  0  0  0  0  0  0  0  0  0  0
  125.2350  131.0150   65.2440 C   0  0  0  0  0  0  0  0  0  0  0  0
  124.5130  130.5630   66.2720 F   0  0  0  0  0  0  0  0  0  0  0  0
  125.9440  132.0550   65.6830 F   0  0  0  0  0  0  0  0  0  0  0  0
  124.3820  131.4280   64.3070 F   0  0  0  0  0  0  0  0  0  0  0  0
  127.1070  129.1960   65.4270 C   0  0  0  0  0  0  0  0  0  0  0  0
  127.4380  129.1790   66.8300 C   0  0  0  0  0  0  0  0  0  0  0  0
  126.8350  130.0030   67.7460 N   0  0  0  0  0  0  0  0  0  0  0  0
  129.7960  129.2610   71.6950 C   0  0  0  0  0  0  0  0  0  0  0  0
  128.9900  129.2320   72.8430 C   0  0  0  0  0  0  0  0  0  0  0  0
  128.5070  130.3630   73.4770 O   0  0  0  0  0  0  0  0  0  0  0  0
  128.1730  131.5080   72.7000 C   0  0  0  0  0  0  0  0  0  0  0  0
  128.6410  127.9900   73.3940 C   0  0  0  0  0  0  0  0  0  0  0  0
  127.8370  127.9460   74.5090 O   0  0  0  0  0  0  0  0  0  0  0  0
  128.5020  128.2930   75.7150 C   0  0  0  0  0  0  0  0  0  0  0  0
  1  2  1  0
  2  3  1  0
  3  4  2  0
  4  5  1  0
  5  6  1  0
  6  7  1  0
  7  8  1  0
  8  9  2  0
  8 10  1  0
 10 11  1  0
 11 12  1  0
 12 13  2  0
 13 14  1  0
 14 15  1  0
 14 16  2  0
 16 17  1  0
 17 18  1  0
 18 19  1  0
 18 20  1  0
 18 21  1  0
 17 22  2  0
 22 23  1  0
 23 24  1  0
  5 25  2  0
 25 26  1  0
 26 27  1  0
 27 28  1  0
 26 29  2  0
 29 30  1  0
 30 31  1  0
 29  3  1  0
 23 10  2  0
 22 12  1  0
M  END
>  <Binding energies>  (51) 
[-6.16]

>  <Ligand effiencies>  (51) 
[-0.1811764705882353]

>  <Interactions>  (51) 
["V-A:GLU:543:CD:4908, H-A:GLU:543:OE1:4909, V-B:LEU:475:CD1:9229, V-A:GLU:543:CG:4907, H-A:GLU:543:OE2:4910, V-A:HIS:456:CD2:4067, V-B:GLU:543:CD:9879, V-B:HIS:456:CE1:9041, V-B:GLY:454:CA:9020, V-A:GLU:543:CB:4906, V-A:HIS:456:CE1:4069, H-B:LYS:547:NZ:9922, V-B:HIS:456:CD2:9039, V-B:HIS:456:CG:9037, V-B:TYR:484:CD1:9314, V-B:TYR:484:CE1:9316, V-B:TYR:484:CZ:9318, H-B:TYR:484:OH:9319, V-B:LYS:547:CE:9921, V-B:GLY:454:C:9018"]

$$$$
4bi_Grossjean_2025
     RDKit          3D

 23 25  0  0  0  0  0  0  0  0999 V2000
  126.8060  122.4770   56.3900 C   0  0  0  0  0  0  0  0  0  0  0  0
  127.0550  122.7990   57.8520 C   0  0  0  0  0  0  0  0  0  0  0  0
  126.0240  123.2490   58.6730 C   0  0  0  0  0  0  0  0  0  0  0  0
  126.2670  123.5390   60.0260 C   0  0  0  0  0  0  0  0  0  0  0  0
  125.0990  124.0230   60.8910 C   0  0  0  0  0  0  0  0  0  0  0  0
  125.3560  125.1730   61.5190 F   0  0  0  0  0  0  0  0  0  0  0  0
  124.0220  124.2160   60.1300 F   0  0  0  0  0  0  0  0  0  0  0  0
  124.8210  123.1130   61.8250 F   0  0  0  0  0  0  0  0  0  0  0  0
  127.5990  123.3560   60.5020 C   0  0  0  0  0  0  0  0  0  0  0  0
  128.2140  123.5500   61.7930 C   0  0  0  0  0  0  0  0  0  0  0  0
  127.5190  124.0010   62.8850 N   0  0  0  0  0  0  0  0  0  0  0  0
  129.5810  123.2280   61.8310 C   0  0  0  0  0  0  0  0  0  0  0  0
  130.5100  123.3180   62.9620 C   0  0  0  0  0  0  0  0  0  0  0  0
  130.6160  122.3880   63.7640 O   0  0  0  0  0  0  0  0  0  0  0  0
  131.2300  124.4650   63.0340 N   0  0  0  0  0  0  0  0  0  0  0  0
  132.1820  124.8060   63.9860 C   0  0  0  0  0  0  0  0  0  0  0  0
  131.8580  125.3670   65.2200 C   0  0  0  0  0  0  0  0  0  0  0  0
  133.0640  125.5540   65.8570 C   0  0  0  0  0  0  0  0  0  0  0  0
  134.0620  125.1260   65.0480 O   0  0  0  0  0  0  0  0  0  0  0  0
  133.4900  124.6550   63.8640 N   0  0  0  0  0  0  0  0  0  0  0  0
  130.1550  122.6970   60.2520 S   0  0  0  0  0  0  0  0  0  0  0  0
  128.5630  122.8900   59.5570 C   0  0  0  0  0  0  0  0  0  0  0  0
  128.3260  122.6140   58.2750 N   0  0  0  0  0  0  0  0  0  0  0  0
  1  2  1  0
  2  3  2  0
  3  4  1  0
  4  5  1  0
  5  6  1  0
  5  7  1  0
  5  8  1  0
  4  9  2  0
  9 10  1  0
 10 11  1  0
 10 12  2  0
 12 13  1  0
 13 14  2  0
 13 15  1  0
 15 16  1  0
 16 17  1  0
 17 18  2  0
 18 19  1  0
 19 20  1  0
 12 21  1  0
 21 22  1  0
 22 23  2  0
 23  2  1  0
 22  9  1  0
 20 16  2  0
M  END
>  <Binding energies>  (52) 
[-6.68]

>  <Ligand effiencies>  (52) 
[-0.2569230769230769]

>  <Interactions>  (52) 
["V-B:TYR:539:CD2:9845, V-B:ASP:366:CG:8184, V-B:TYR:539:CE2:9847, V-B:TYR:539:C:9838, V-B:PRO:540:N:9855, V-B:LEU:363:CA:8156, V-B:PRO:540:CB:9856, V-B:PRO:540:CA:9854, H-B:GLU:543:OE2:9881, V-B:GLU:543:CD:9879, V-B:GLU:543:CG:9878, H-A:TYR:484:OH:4347, H-A:ARG:545:NE:4924, V-A:ARG:545:CZ:4926, V-B:TYR:539:CD1:9844, V-B:TYR:539:CG:9843, V-B:TYR:539:CE1:9846, V-B:ALA:541:CB:9863, V-B:PRO:540:C:9852, V-B:ASN:362:CB:8147, V-B:ASN:362:C:8143, H-A:ARG:545:NH1:4927, H-A:GLY:454:N:4049, V-A:ARG:545:CD:4923"]

$$$$
4bj_Grossjean_2025
     RDKit          3D

 23 25  0  0  0  0  0  0  0  0999 V2000
  125.9480  122.1250   54.6680 C   0  0  0  0  0  0  0  0  0  0  0  0
  126.0090  122.6670   56.0840 C   0  0  0  0  0  0  0  0  0  0  0  0
  125.0570  123.5710   56.5480 C   0  0  0  0  0  0  0  0  0  0  0  0
  125.1290  124.0700   57.8580 C   0  0  0  0  0  0  0  0  0  0  0  0
  124.0600  125.0650   58.3230 C   0  0  0  0  0  0  0  0  0  0  0  0
  123.0080  125.1220   57.5030 F   0  0  0  0  0  0  0  0  0  0  0  0
  123.6100  124.7150   59.5280 F   0  0  0  0  0  0  0  0  0  0  0  0
  124.5830  126.2900   58.3870 F   0  0  0  0  0  0  0  0  0  0  0  0
  126.2050  123.6080   58.6740 C   0  0  0  0  0  0  0  0  0  0  0  0
  126.5990  123.8920   60.0320 C   0  0  0  0  0  0  0  0  0  0  0  0
  125.9080  124.7610   60.8380 N   0  0  0  0  0  0  0  0  0  0  0  0
  127.7430  123.1950   60.4550 C   0  0  0  0  0  0  0  0  0  0  0  0
  128.4170  123.2510   61.7540 C   0  0  0  0  0  0  0  0  0  0  0  0
  127.9050  123.8440   62.7060 O   0  0  0  0  0  0  0  0  0  0  0  0
  129.6060  122.6040   61.8210 N   0  0  0  0  0  0  0  0  0  0  0  0
  130.4350  122.4960   62.9290 C   0  0  0  0  0  0  0  0  0  0  0  0
  130.0930  122.2400   64.1740 N   0  0  0  0  0  0  0  0  0  0  0  0
  131.1430  122.2040   64.9690 C   0  0  0  0  0  0  0  0  0  0  0  0
  132.3770  122.4360   64.3690 C   0  0  0  0  0  0  0  0  0  0  0  0
  132.1360  122.7180   62.6700 S   0  0  0  0  0  0  0  0  0  0  0  0
  128.3830  122.1780   59.1670 S   0  0  0  0  0  0  0  0  0  0  0  0
  127.1100  122.6770   58.0780 C   0  0  0  0  0  0  0  0  0  0  0  0
  127.0390  122.2090   56.8320 N   0  0  0  0  0  0  0  0  0  0  0  0
  1  2  1  0
  2  3  2  0
  3  4  1  0
  4  5  1  0
  5  6  1  0
  5  7  1  0
  5  8  1  0
  4  9  2  0
  9 10  1  0
 10 11  1  0
 10 12  2  0
 12 13  1  0
 13 14  2  0
 13 15  1  0
 15 16  1  0
 16 17  2  0
 17 18  1  0
 18 19  2  0
 19 20  1  0
 12 21  1  0
 21 22  1  0
 22 23  2  0
 23  2  1  0
 22  9  1  0
 20 16  1  0
M  END
>  <Binding energies>  (53) 
[-6.13]

>  <Ligand effiencies>  (53) 
[-0.23576923076923076]

>  <Interactions>  (53) 
["V-B:TYR:539:CD2:9845, V-B:MET:535:CE:9806, V-B:ASP:366:CG:8184, V-B:TYR:539:CE2:9847, V-B:TYR:539:C:9838, H-B:ASP:366:OD2:8186, V-B:PRO:540:N:9855, V-B:LEU:363:CA:8156, V-B:PRO:540:CB:9856, V-B:PRO:540:CA:9854, V-B:LEU:363:CD1:8160, V-B:TYR:539:CZ:9848, V-B:TYR:531:CZ:9765, V-B:ASP:366:CB:8183, V-B:TYR:531:CE2:9764, H-B:GLU:543:OE2:9881, V-A:LEU:475:CD2:4258, V-A:TYR:484:CE1:4344, V-A:GLY:454:CA:4048, V-B:TYR:539:CG:9843, V-B:ALA:541:CB:9863, H-B:TYR:539:N:9841, V-B:ASN:362:C:8143, V-B:LEU:363:CB:8158, V-A:LEU:475:CD1:4257, V-B:LEU:363:CG:8159, V-B:LEU:363:C:8154, V-A:TYR:484:CZ:4346, V-B:ILE:538:CA:9831, V-B:ILE:538:C:9829, V-B:ILE:538:CD1:9836, V-B:ILE:538:CG2:9834, V-B:ILE:538:CB:9833, V-B:TYR:531:CD2:9762"]

$$$$
4bk_Grossjean_2025
     RDKit          3D

 28 29  0  0  0  0  0  0  0  0999 V2000
  127.3530  125.7900   56.8690 C   0  0  0  0  0  0  0  0  0  0  0  0
  127.6560  124.6770   57.6970 O   0  0  0  0  0  0  0  0  0  0  0  0
  128.2350  123.5880   56.9900 C   0  0  0  0  0  0  0  0  0  0  0  0
  127.5260  123.4180   55.6410 C   0  0  0  0  0  0  0  0  0  0  0  0
  126.9350  122.1270   55.5780 O   0  0  0  0  0  0  0  0  0  0  0  0
  125.5260  122.1480   55.3960 C   0  0  0  0  0  0  0  0  0  0  0  0
  124.8390  122.3400   56.7550 C   0  0  0  0  0  0  0  0  0  0  0  0
  125.2190  123.5950   57.3000 O   0  0  0  0  0  0  0  0  0  0  0  0
  124.1680  124.2670   57.9840 C   0  0  0  0  0  0  0  0  0  0  0  0
  124.5560  124.4510   59.4610 C   0  0  0  0  0  0  0  0  0  0  0  0
  125.8320  123.8290   59.8150 N   0  0  0  0  0  0  0  0  0  0  0  0
  126.2860  123.6420   61.0720 C   0  0  0  0  0  0  0  0  0  0  0  0
  125.6350  123.9720   62.0650 O   0  0  0  0  0  0  0  0  0  0  0  0
  127.6010  123.0110   61.1950 C   0  0  0  0  0  0  0  0  0  0  0  0
  128.2010  121.9610   59.9130 S   0  0  0  0  0  0  0  0  0  0  0  0
  129.6970  121.6920   60.7750 C   0  0  0  0  0  0  0  0  0  0  0  0
  130.6540  120.9100   60.2780 N   0  0  0  0  0  0  0  0  0  0  0  0
  131.7680  120.7790   61.0350 C   0  0  0  0  0  0  0  0  0  0  0  0
  132.8460  119.8860   60.4480 C   0  0  0  0  0  0  0  0  0  0  0  0
  131.9450  121.4050   62.2660 C   0  0  0  0  0  0  0  0  0  0  0  0
  130.9400  122.2290   62.7960 C   0  0  0  0  0  0  0  0  0  0  0  0
  131.1790  122.8940   64.1560 C   0  0  0  0  0  0  0  0  0  0  0  0
  132.3530  122.5650   64.6990 F   0  0  0  0  0  0  0  0  0  0  0  0
  131.1590  124.2190   64.0200 F   0  0  0  0  0  0  0  0  0  0  0  0
  130.2270  122.5250   65.0120 F   0  0  0  0  0  0  0  0  0  0  0  0
  129.7520  122.3900   62.0220 C   0  0  0  0  0  0  0  0  0  0  0  0
  128.5390  123.1390   62.2300 C   0  0  0  0  0  0  0  0  0  0  0  0
  128.3230  123.9060   63.3470 N   0  0  0  0  0  0  0  0  0  0  0  0
  1  2  1  0
  2  3  1  0
  3  4  1  0
  4  5  1  0
  5  6  1  0
  6  7  1  0
  7  8  1  0
  8  9  1  0
  9 10  1  0
 10 11  1  0
 11 12  1  0
 12 13  2  0
 12 14  1  0
 14 15  1  0
 15 16  1  0
 16 17  2  0
 17 18  1  0
 18 19  1  0
 18 20  2  0
 20 21  1  0
 21 22  1  0
 22 23  1  0
 22 24  1  0
 22 25  1  0
 21 26  2  0
 26 27  1  0
 27 28  1  0
 27 14  2  0
 26 16  1  0
M  END
>  <Binding energies>  (54) 
[-4.79]

>  <Ligand effiencies>  (54) 
[-0.15451612903225806]

>  <Interactions>  (54) 
["V-B:TYR:539:CD2:9845, V-B:MET:535:CE:9806, V-B:ASP:366:CG:8184, V-B:TYR:539:CE2:9847, V-B:TYR:539:C:9838, V-B:PRO:540:CD:9858, V-B:PRO:540:N:9855, V-A:ILE:369:CG2:3236, V-B:LEU:363:CA:8156, V-B:PRO:540:CB:9856, V-B:PRO:540:CA:9854, V-B:LEU:363:CD1:8160, V-B:TYR:539:CZ:9848, H-B:GLU:543:OE2:9881, V-B:GLU:543:CD:9879, H-B:ARG:545:NH2:9899, V-A:LEU:475:CD2:4258, V-B:GLU:543:CG:9878, V-A:TYR:484:CE1:4344, V-A:GLY:454:CA:4048, V-B:TYR:539:CD1:9844, V-B:TYR:539:CE1:9846, V-B:ALA:541:CB:9863, V-A:TRP:381:CH2:3371, H-B:TYR:539:N:9841, V-B:PRO:540:C:9852, V-A:TRP:381:CZ2:3369, V-A:TYR:484:CZ:4346, V-B:PRO:540:CG:9857, V-B:ILE:538:CA:9831, V-B:ILE:538:C:9829, V-B:ILE:538:CD1:9836, V-B:ILE:538:CG2:9834"]

$$$$
4cd_Grossjean_2025
     RDKit          3D

 29 32  0  0  0  0  0  0  0  0999 V2000
  130.0900  129.2150   56.1350 N   0  0  0  0  0  0  0  0  0  0  0  0
  128.9990  129.3340   56.9590 C   0  0  0  0  0  0  0  0  0  0  0  0
  128.0380  128.3210   57.1140 C   0  0  0  0  0  0  0  0  0  0  0  0
  127.9800  127.0100   56.4610 C   0  0  0  0  0  0  0  0  0  0  0  0
  128.7360  126.7380   55.5290 O   0  0  0  0  0  0  0  0  0  0  0  0
  127.0590  126.1520   56.9640 N   0  0  0  0  0  0  0  0  0  0  0  0
  126.7160  124.8540   56.5400 C   0  0  0  0  0  0  0  0  0  0  0  0
  125.4510  124.3990   56.9220 C   0  0  0  0  0  0  0  0  0  0  0  0
  125.0150  123.1340   56.5400 C   0  0  0  0  0  0  0  0  0  0  0  0
  125.8410  122.3240   55.7660 C   0  0  0  0  0  0  0  0  0  0  0  0
  127.0980  122.7700   55.3660 C   0  0  0  0  0  0  0  0  0  0  0  0
  127.5390  124.0350   55.7480 C   0  0  0  0  0  0  0  0  0  0  0  0
  126.7830  128.8050   58.2530 S   0  0  0  0  0  0  0  0  0  0  0  0
  127.5460  130.3570   58.5040 C   0  0  0  0  0  0  0  0  0  0  0  0
  127.0250  131.2610   59.3300 N   0  0  0  0  0  0  0  0  0  0  0  0
  127.6830  132.4440   59.4500 C   0  0  0  0  0  0  0  0  0  0  0  0
  127.0710  133.4450   60.3870 C   0  0  0  0  0  0  0  0  0  0  0  0
  125.6860  133.4570   60.6210 C   0  0  0  0  0  0  0  0  0  0  0  0
  125.1120  134.3810   61.4890 C   0  0  0  0  0  0  0  0  0  0  0  0
  125.9170  135.3100   62.1380 C   0  0  0  0  0  0  0  0  0  0  0  0
  127.2920  135.3190   61.9270 C   0  0  0  0  0  0  0  0  0  0  0  0
  127.8620  134.3910   61.0610 C   0  0  0  0  0  0  0  0  0  0  0  0
  128.8680  132.7050   58.7560 C   0  0  0  0  0  0  0  0  0  0  0  0
  129.4270  131.7560   57.8850 C   0  0  0  0  0  0  0  0  0  0  0  0
  130.7270  132.1090   57.1520 C   0  0  0  0  0  0  0  0  0  0  0  0
  131.7420  131.3010   57.4660 F   0  0  0  0  0  0  0  0  0  0  0  0
  130.5410  132.0230   55.8350 F   0  0  0  0  0  0  0  0  0  0  0  0
  131.0970  133.3520   57.4640 F   0  0  0  0  0  0  0  0  0  0  0  0
  128.7400  130.5170   57.7420 C   0  0  0  0  0  0  0  0  0  0  0  0
  1  2  1  0
  2  3  2  0
  3  4  1  0
  4  5  2  0
  4  6  1  0
  6  7  1  0
  7  8  2  0
  8  9  1  0
  9 10  2  0
 10 11  1  0
 11 12  2  0
  3 13  1  0
 13 14  1  0
 14 15  2  0
 15 16  1  0
 16 17  1  0
 17 18  2  0
 18 19  1  0
 19 20  2  0
 20 21  1  0
 21 22  2  0
 16 23  2  0
 23 24  1  0
 24 25  1  0
 25 26  1  0
 25 27  1  0
 25 28  1  0
 24 29  2  0
 29  2  1  0
 12  7  1  0
 29 14  1  0
 22 17  1  0
M  END
>  <Binding energies>  (55) 
[-7.17]

>  <Ligand effiencies>  (55) 
[-0.2240625]

>  <Interactions>  (55) 
["V-B:MET:535:CE:9806, V-B:PRO:540:CD:9858, V-B:PRO:540:N:9855, V-B:PRO:540:CB:9856, H-B:TYR:531:OH:9766, V-B:LEU:363:CD1:8160, V-B:TYR:539:CZ:9848, V-A:PRO:540:N:4884, V-B:LEU:475:CD1:9229, V-A:PRO:540:CB:4885, V-A:TYR:539:CD2:4874, V-A:ALA:541:CB:4892, V-A:PRO:540:CA:4883, V-A:TYR:539:C:4867, V-A:TYR:539:CE2:4876, V-B:TYR:539:CD1:9844, V-B:TYR:539:CE1:9846, H-A:TYR:531:OH:4795, V-A:TYR:531:CZ:4794, V-A:MET:535:CE:4835, V-A:TYR:539:CA:4869, V-A:PRO:540:CD:4887, V-B:ILE:538:CA:9831, V-B:ILE:538:CD1:9836, H-A:MET:535:SD:4834"]

$$$$
4cg_Grossjean_2025
     RDKit          3D

 30 33  0  0  0  0  0  0  0  0999 V2000
  127.2670  128.1680   63.2880 N   0  0  0  0  0  0  0  0  0  0  0  0
  127.0410  128.6080   64.5670 C   0  0  0  0  0  0  0  0  0  0  0  0
  125.9810  129.4590   64.9100 C   0  0  0  0  0  0  0  0  0  0  0  0
  124.9240  129.9910   64.0510 C   0  0  0  0  0  0  0  0  0  0  0  0
  123.7560  130.0660   64.4410 O   0  0  0  0  0  0  0  0  0  0  0  0
  125.2980  130.3530   62.8060 N   0  0  0  0  0  0  0  0  0  0  0  0
  124.4190  130.9270   61.7900 C   0  0  0  0  0  0  0  0  0  0  0  0
  124.3790  132.4510   61.8130 C   0  0  0  0  0  0  0  0  0  0  0  0
  124.8980  133.1760   60.7370 C   0  0  0  0  0  0  0  0  0  0  0  0
  124.8350  134.5680   60.7400 C   0  0  0  0  0  0  0  0  0  0  0  0
  124.2450  135.2280   61.8150 C   0  0  0  0  0  0  0  0  0  0  0  0
  123.7120  134.5110   62.8840 C   0  0  0  0  0  0  0  0  0  0  0  0
  123.7720  133.1200   62.8800 C   0  0  0  0  0  0  0  0  0  0  0  0
  125.9710  129.8100   66.6360 S   0  0  0  0  0  0  0  0  0  0  0  0
  127.4000  128.8330   66.8840 C   0  0  0  0  0  0  0  0  0  0  0  0
  127.9400  128.6870   68.0900 N   0  0  0  0  0  0  0  0  0  0  0  0
  129.0470  127.9050   68.1870 C   0  0  0  0  0  0  0  0  0  0  0  0
  129.6340  127.7630   69.5620 C   0  0  0  0  0  0  0  0  0  0  0  0
  130.8070  128.4490   69.9200 C   0  0  0  0  0  0  0  0  0  0  0  0
  131.3560  128.3190   71.1930 C   0  0  0  0  0  0  0  0  0  0  0  0
  130.7390  127.4960   72.1300 C   0  0  0  0  0  0  0  0  0  0  0  0
  129.5790  126.8030   71.8020 C   0  0  0  0  0  0  0  0  0  0  0  0
  129.0340  126.9350   70.5280 C   0  0  0  0  0  0  0  0  0  0  0  0
  129.6150  127.2880   67.0670 C   0  0  0  0  0  0  0  0  0  0  0  0
  129.0530  127.4350   65.7890 C   0  0  0  0  0  0  0  0  0  0  0  0
  129.7270  126.7320   64.6040 C   0  0  0  0  0  0  0  0  0  0  0  0
  129.8620  127.5200   63.5360 F   0  0  0  0  0  0  0  0  0  0  0  0
  130.9460  126.3240   64.9570 F   0  0  0  0  0  0  0  0  0  0  0  0
  129.0010  125.6790   64.2340 F   0  0  0  0  0  0  0  0  0  0  0  0
  127.8830  128.2420   65.6790 C   0  0  0  0  0  0  0  0  0  0  0  0
  1  2  1  0
  2  3  2  0
  3  4  1  0
  4  5  2  0
  4  6  1  0
  6  7  1  0
  7  8  1  0
  8  9  2  0
  9 10  1  0
 10 11  2  0
 11 12  1  0
 12 13  2  0
  3 14  1  0
 14 15  1  0
 15 16  2  0
 16 17  1  0
 17 18  1  0
 18 19  2  0
 19 20  1  0
 20 21  2  0
 21 22  1  0
 22 23  2  0
 17 24  2  0
 24 25  1  0
 25 26  1  0
 26 27  1  0
 26 28  1  0
 26 29  1  0
 25 30  2  0
 30  2  1  0
 13  8  1  0
 30 15  1  0
 23 18  1  0
M  END
>  <Binding energies>  (56) 
[-7.47]

>  <Ligand effiencies>  (56) 
[-0.22636363636363635]

>  <Interactions>  (56) 
["V-B:ASP:366:CG:8184, H-B:ASP:366:OD2:8186, H-B:GLU:543:OE2:9881, V-A:GLU:543:CD:4908, V-B:LEU:475:CD1:9229, V-B:TRP:381:CH2:8343, V-A:GLU:543:CG:4907, V-A:TYR:539:CD2:4874, V-B:TRP:381:CZ2:8341, V-B:ILE:369:CD1:8210, V-A:HIS:456:CD2:4067, H-B:GLY:454:N:9021, V-B:GLU:543:CD:9879, V-B:HIS:456:CE1:9041, V-B:GLY:454:CA:9020, H-B:ARG:545:NH1:9898, H-B:ARG:545:NH2:9899, H-B:ARG:545:NE:9895, V-A:GLU:543:CB:4906, V-A:HIS:456:CE1:4069, V-B:GLU:543:CG:9878, V-B:ILE:369:CG2:8208, V-A:TYR:539:CE2:4876, V-B:ARG:545:CZ:9897, V-A:ARG:545:CA:4919, V-A:GLY:544:C:4912, H-B:GLU:543:OE1:9880"]

$$$$
4ch_Grossjean_2025
     RDKit          3D

 36 39  0  0  0  0  0  0  0  0999 V2000
  126.7830  123.0500   55.4160 C   0  0  0  0  0  0  0  0  0  0  0  0
  126.7290  122.1210   56.4940 O   0  0  0  0  0  0  0  0  0  0  0  0
  126.8050  122.5870   57.7940 C   0  0  0  0  0  0  0  0  0  0  0  0
  127.9340  122.4380   58.6160 C   0  0  0  0  0  0  0  0  0  0  0  0
  127.9410  122.9350   59.9200 C   0  0  0  0  0  0  0  0  0  0  0  0
  129.1660  122.7390   60.8060 C   0  0  0  0  0  0  0  0  0  0  0  0
  129.1830  123.5840   62.0010 N   0  0  0  0  0  0  0  0  0  0  0  0
  130.2310  124.3200   62.4260 C   0  0  0  0  0  0  0  0  0  0  0  0
  131.2980  124.3720   61.8100 O   0  0  0  0  0  0  0  0  0  0  0  0
  130.0180  125.0910   63.6520 C   0  0  0  0  0  0  0  0  0  0  0  0
  130.8160  124.6110   65.1460 S   0  0  0  0  0  0  0  0  0  0  0  0
  130.1060  125.9550   66.0080 C   0  0  0  0  0  0  0  0  0  0  0  0
  130.3440  126.1540   67.3010 N   0  0  0  0  0  0  0  0  0  0  0  0
  129.7530  127.2290   67.8850 C   0  0  0  0  0  0  0  0  0  0  0  0
  130.0360  127.4220   69.3470 C   0  0  0  0  0  0  0  0  0  0  0  0
  129.1680  126.9030   70.3220 C   0  0  0  0  0  0  0  0  0  0  0  0
  129.4250  127.0790   71.6800 C   0  0  0  0  0  0  0  0  0  0  0  0
  130.5560  127.7790   72.0830 C   0  0  0  0  0  0  0  0  0  0  0  0
  131.4310  128.3070   71.1390 C   0  0  0  0  0  0  0  0  0  0  0  0
  131.1690  128.1300   69.7820 C   0  0  0  0  0  0  0  0  0  0  0  0
  128.9130  128.0880   67.1700 C   0  0  0  0  0  0  0  0  0  0  0  0
  128.6530  127.8870   65.8040 C   0  0  0  0  0  0  0  0  0  0  0  0
  127.7230  128.8670   65.0810 C   0  0  0  0  0  0  0  0  0  0  0  0
  126.7670  128.2580   64.3750 F   0  0  0  0  0  0  0  0  0  0  0  0
  127.1210  129.6570   65.9690 F   0  0  0  0  0  0  0  0  0  0  0  0
  128.4270  129.6160   64.2340 F   0  0  0  0  0  0  0  0  0  0  0  0
  129.2790  126.7700   65.1800 C   0  0  0  0  0  0  0  0  0  0  0  0
  129.2570  126.2570   63.8320 C   0  0  0  0  0  0  0  0  0  0  0  0
  128.5460  126.8520   62.8210 N   0  0  0  0  0  0  0  0  0  0  0  0
  126.8050  123.5730   60.4190 C   0  0  0  0  0  0  0  0  0  0  0  0
  125.6610  123.7340   59.6210 C   0  0  0  0  0  0  0  0  0  0  0  0
  124.5030  124.3560   60.0490 O   0  0  0  0  0  0  0  0  0  0  0  0
  124.2220  124.4270   61.4430 C   0  0  0  0  0  0  0  0  0  0  0  0
  125.6770  123.2420   58.3080 C   0  0  0  0  0  0  0  0  0  0  0  0
  124.5590  123.3800   57.5210 O   0  0  0  0  0  0  0  0  0  0  0  0
  124.1910  124.7290   57.2680 C   0  0  0  0  0  0  0  0  0  0  0  0
  1  2  1  0
  2  3  1  0
  3  4  2  0
  4  5  1  0
  5  6  1  0
  6  7  1  0
  7  8  1  0
  8  9  2  0
  8 10  1  0
 10 11  1  0
 11 12  1  0
 12 13  2  0
 13 14  1  0
 14 15  1  0
 15 16  2  0
 16 17  1  0
 17 18  2  0
 18 19  1  0
 19 20  2  0
 14 21  2  0
 21 22  1  0
 22 23  1  0
 23 24  1  0
 23 25  1  0
 23 26  1  0
 22 27  2  0
 27 28  1  0
 28 29  1  0
  5 30  2  0
 30 31  1  0
 31 32  1  0
 32 33  1  0
 31 34  2  0
 34 35  1  0
 35 36  1  0
 34  3  1  0
 28 10  2  0
 27 12  1  0
 20 15  1  0
M  END
>  <Binding energies>  (57) 
[-7.09]

>  <Ligand effiencies>  (57) 
[-0.1817948717948718]

>  <Interactions>  (57) 
["V-B:TYR:539:CD2:9845, V-B:MET:535:CE:9806, V-B:ASP:366:CG:8184, V-B:TYR:539:CE2:9847, V-B:TYR:539:C:9838, V-B:PRO:540:CD:9858, V-B:PRO:540:N:9855, V-B:LEU:363:CA:8156, V-B:PRO:540:CB:9856, V-B:PRO:540:CA:9854, V-B:LEU:363:CD1:8160, V-B:TYR:539:CZ:9848, V-B:TYR:531:CZ:9765, V-B:TYR:531:CE2:9764, H-B:GLU:543:OE2:9881, V-A:GLU:543:CD:4908, V-A:GLU:543:CG:4907, V-B:GLU:543:CD:9879, V-B:HIS:456:CE1:9041, V-A:GLU:543:CB:4906, V-A:HIS:456:CE1:4069, V-B:GLU:543:CG:9878, V-B:TYR:539:CD1:9844, V-B:TYR:539:CG:9843, V-B:TYR:539:CE1:9846, V-B:ALA:541:CB:9863, H-B:TYR:539:N:9841, V-B:ASN:362:CB:8147, V-B:ARG:545:CZ:9897, V-B:ASN:362:C:8143, V-A:ARG:545:CA:4919, V-A:GLY:544:C:4912, V-B:ASN:362:CA:8145, V-A:ARG:545:CG:4922"]

$$$$
4cj_Grossjean_2025
     RDKit          3D

 28 31  0  0  0  0  0  0  0  0999 V2000
  123.6950  130.7340   60.3120 N   0  0  0  0  0  0  0  0  0  0  0  0
  124.9810  131.1140   60.6010 C   0  0  0  0  0  0  0  0  0  0  0  0
  125.4610  131.2710   61.9110 C   0  0  0  0  0  0  0  0  0  0  0  0
  124.7480  131.0700   63.1750 C   0  0  0  0  0  0  0  0  0  0  0  0
  123.6260  131.5520   63.3500 O   0  0  0  0  0  0  0  0  0  0  0  0
  125.4110  130.3430   64.1080 N   0  0  0  0  0  0  0  0  0  0  0  0
  124.9620  130.0100   65.3790 C   0  0  0  0  0  0  0  0  0  0  0  0
  123.7220  129.9990   65.8200 N   0  0  0  0  0  0  0  0  0  0  0  0
  123.6600  129.6280   67.0830 C   0  0  0  0  0  0  0  0  0  0  0  0
  124.8730  129.3260   67.6960 C   0  0  0  0  0  0  0  0  0  0  0  0
  126.1580  129.5430   66.5460 S   0  0  0  0  0  0  0  0  0  0  0  0
  127.1560  131.7540   61.9150 S   0  0  0  0  0  0  0  0  0  0  0  0
  127.2080  131.7440   60.1680 C   0  0  0  0  0  0  0  0  0  0  0  0
  128.3220  132.0460   59.5060 N   0  0  0  0  0  0  0  0  0  0  0  0
  128.2700  132.0040   58.1500 C   0  0  0  0  0  0  0  0  0  0  0  0
  129.5470  132.3370   57.4340 C   0  0  0  0  0  0  0  0  0  0  0  0
  130.7750  132.3340   58.1150 C   0  0  0  0  0  0  0  0  0  0  0  0
  131.9620  132.6480   57.4580 C   0  0  0  0  0  0  0  0  0  0  0  0
  131.9370  132.9740   56.1050 C   0  0  0  0  0  0  0  0  0  0  0  0
  130.7350  132.9870   55.4080 C   0  0  0  0  0  0  0  0  0  0  0  0
  129.5510  132.6710   56.0680 C   0  0  0  0  0  0  0  0  0  0  0  0
  127.0930  131.6830   57.4660 C   0  0  0  0  0  0  0  0  0  0  0  0
  125.9120  131.3640   58.1540 C   0  0  0  0  0  0  0  0  0  0  0  0
  124.6580  131.0180   57.3420 C   0  0  0  0  0  0  0  0  0  0  0  0
  124.2030  129.7870   57.5800 F   0  0  0  0  0  0  0  0  0  0  0  0
  123.6790  131.8720   57.6400 F   0  0  0  0  0  0  0  0  0  0  0  0
  124.9290  131.0990   56.0390 F   0  0  0  0  0  0  0  0  0  0  0  0
  125.9610  131.3870   59.5780 C   0  0  0  0  0  0  0  0  0  0  0  0
  1  2  1  0
  2  3  2  0
  3  4  1  0
  4  5  2  0
  4  6  1  0
  6  7  1  0
  7  8  2  0
  8  9  1  0
  9 10  2  0
 10 11  1  0
  3 12  1  0
 12 13  1  0
 13 14  2  0
 14 15  1  0
 15 16  1  0
 16 17  2  0
 17 18  1  0
 18 19  2  0
 19 20  1  0
 20 21  2  0
 15 22  2  0
 22 23  1  0
 23 24  1  0
 24 25  1  0
 24 26  1  0
 24 27  1  0
 23 28  2  0
 28  2  1  0
 11  7  1  0
 28 13  1  0
 21 16  1  0
M  END
>  <Binding energies>  (58) 
[-6.94]

>  <Ligand effiencies>  (58) 
[-0.2238709677419355]

>  <Interactions>  (58) 
["V-B:ASP:366:CG:8184, H-B:ASP:366:OD2:8186, V-B:TYR:531:CZ:9765, V-B:ASP:366:CB:8183, V-A:PRO:540:N:4884, V-A:PRO:540:CB:4885, V-A:TYR:539:CD2:4874, V-A:PRO:540:CA:4883, V-A:TYR:539:C:4867, H-B:GLY:454:N:9021, V-B:HIS:456:CE1:9041, V-B:GLY:454:CA:9020, H-B:ARG:545:NE:9895, V-B:ILE:369:CG2:8208, V-A:TYR:539:CE2:4876, V-A:TYR:539:CZ:4877, V-B:ASP:366:CA:8181, V-B:ASP:366:C:8179, V-B:ARG:545:CZ:9897, V-A:LEU:363:CD1:3188, V-A:MET:535:CE:4835, H-B:TYR:484:OH:9319, V-B:ASN:370:CB:8216, V-B:TYR:531:CE1:9763, V-B:ASN:370:CG:8217, V-B:ARG:545:CG:9893, V-B:ILE:369:CB:8207, V-A:ILE:538:CA:4860, V-A:ILE:538:CB:4862, V-A:PRO:540:CD:4887, V-A:ILE:538:C:4858, V-A:ILE:538:CG2:4863, V-B:ARG:545:CD:9894, H-B:ASP:366:O:8180, H-B:ASP:366:OD1:8185, V-B:ASN:370:CA:8214"]

$$$$
4ck_Grossjean_2025
     RDKit          3D

 33 35  0  0  0  0  0  0  0  0999 V2000
  124.9160  124.0070   61.8960 C   0  0  0  0  0  0  0  0  0  0  0  0
  125.9930  123.1020   61.7100 O   0  0  0  0  0  0  0  0  0  0  0  0
  127.2520  123.6350   62.0960 C   0  0  0  0  0  0  0  0  0  0  0  0
  128.3540  122.9780   61.2540 C   0  0  0  0  0  0  0  0  0  0  0  0
  127.7600  122.3280   60.1390 O   0  0  0  0  0  0  0  0  0  0  0  0
  127.6150  123.1710   59.0030 C   0  0  0  0  0  0  0  0  0  0  0  0
  127.4990  122.3020   57.7440 C   0  0  0  0  0  0  0  0  0  0  0  0
  126.2210  122.5110   57.1600 O   0  0  0  0  0  0  0  0  0  0  0  0
  125.7850  123.8640   57.2020 C   0  0  0  0  0  0  0  0  0  0  0  0
  126.6070  124.7010   56.2100 C   0  0  0  0  0  0  0  0  0  0  0  0
  126.8080  126.0720   56.6820 N   0  0  0  0  0  0  0  0  0  0  0  0
  127.9240  126.8110   56.5110 C   0  0  0  0  0  0  0  0  0  0  0  0
  128.9080  126.3970   55.8950 O   0  0  0  0  0  0  0  0  0  0  0  0
  127.8980  128.1520   57.0950 C   0  0  0  0  0  0  0  0  0  0  0  0
  126.6200  128.6020   58.2210 S   0  0  0  0  0  0  0  0  0  0  0  0
  127.3210  130.1860   58.4520 C   0  0  0  0  0  0  0  0  0  0  0  0
  126.7660  131.0800   59.2660 N   0  0  0  0  0  0  0  0  0  0  0  0
  127.3820  132.2850   59.3800 C   0  0  0  0  0  0  0  0  0  0  0  0
  126.7410  133.2650   60.3200 C   0  0  0  0  0  0  0  0  0  0  0  0
  125.3550  133.2420   60.5470 C   0  0  0  0  0  0  0  0  0  0  0  0
  124.7540  134.1500   61.4160 C   0  0  0  0  0  0  0  0  0  0  0  0
  125.5330  135.0950   62.0730 C   0  0  0  0  0  0  0  0  0  0  0  0
  126.9080  135.1370   61.8710 C   0  0  0  0  0  0  0  0  0  0  0  0
  127.5060  134.2270   61.0020 C   0  0  0  0  0  0  0  0  0  0  0  0
  128.5580  132.5830   58.6840 C   0  0  0  0  0  0  0  0  0  0  0  0
  129.1520  131.6480   57.8220 C   0  0  0  0  0  0  0  0  0  0  0  0
  130.4390  132.0420   57.0860 C   0  0  0  0  0  0  0  0  0  0  0  0
  131.4710  131.2490   57.3760 F   0  0  0  0  0  0  0  0  0  0  0  0
  130.2420  131.9770   55.7690 F   0  0  0  0  0  0  0  0  0  0  0  0
  130.7840  133.2860   57.4190 F   0  0  0  0  0  0  0  0  0  0  0  0
  128.5120  130.3820   57.6920 C   0  0  0  0  0  0  0  0  0  0  0  0
  128.8220  129.1960   56.9300 C   0  0  0  0  0  0  0  0  0  0  0  0
  129.9210  129.1020   56.1150 N   0  0  0  0  0  0  0  0  0  0  0  0
  1  2  1  0
  2  3  1  0
  3  4  1  0
  4  5  1  0
  5  6  1  0
  6  7  1  0
  7  8  1  0
  8  9  1  0
  9 10  1  0
 10 11  1  0
 11 12  1  0
 12 13  2  0
 12 14  1  0
 14 15  1  0
 15 16  1  0
 16 17  2  0
 17 18  1  0
 18 19  1  0
 19 20  2  0
 20 21  1  0
 21 22  2  0
 22 23  1  0
 23 24  2  0
 18 25  2  0
 25 26  1  0
 26 27  1  0
 27 28  1  0
 27 29  1  0
 27 30  1  0
 26 31  2  0
 31 32  1  0
 32 33  1  0
 32 14  2  0
 31 16  1  0
 24 19  1  0
M  END
>  <Binding energies>  (59) 
[-6.15]

>  <Ligand effiencies>  (59) 
[-0.17083333333333334]

>  <Interactions>  (59) 
["V-B:TYR:539:CD2:9845, V-B:MET:535:CE:9806, V-B:TYR:539:CE2:9847, V-B:TYR:539:C:9838, V-B:PRO:540:N:9855, H-B:TYR:531:OH:9766, V-B:PRO:540:CA:9854, V-B:TYR:539:CZ:9848, V-B:TYR:531:CZ:9765, H-B:ALA:541:N:9862, V-A:PRO:540:N:4884, V-B:LEU:475:CD1:9229, V-A:TYR:539:CD2:4874, V-A:ALA:541:CB:4892, V-A:PRO:540:CA:4883, V-A:TYR:539:C:4867, V-B:GLU:543:CD:9879, V-B:GLU:543:CG:9878, V-B:ILE:369:CG2:8208, V-A:TYR:539:CE2:4876, V-B:TYR:539:CD1:9844, V-B:TYR:539:CG:9843, V-B:TYR:539:CE1:9846, V-B:ALA:541:CB:9863, V-B:ASN:362:CB:8147, H-A:TYR:531:OH:4795, V-A:TYR:531:CZ:4794, V-A:MET:535:CE:4835, V-A:TYR:539:CA:4869, V-A:PRO:540:CD:4887, H-A:MET:535:SD:4834"]

$$$$
4dd_Grossjean_2025
     RDKit          3D

 26 29  0  0  0  0  0  0  0  0999 V2000
  125.6990  129.6830   64.1160 C   0  0  0  0  0  0  0  0  0  0  0  0
  126.0820  130.5020   62.8920 C   0  0  0  0  0  0  0  0  0  0  0  0
  126.0750  131.8970   63.0030 C   0  0  0  0  0  0  0  0  0  0  0  0
  126.4180  132.7070   61.9140 C   0  0  0  0  0  0  0  0  0  0  0  0
  126.4130  134.2050   62.0020 C   0  0  0  0  0  0  0  0  0  0  0  0
  125.2610  134.8980   62.4070 C   0  0  0  0  0  0  0  0  0  0  0  0
  125.2500  136.2880   62.4940 C   0  0  0  0  0  0  0  0  0  0  0  0
  126.3960  137.0070   62.1740 C   0  0  0  0  0  0  0  0  0  0  0  0
  127.5520  136.3470   61.7700 C   0  0  0  0  0  0  0  0  0  0  0  0
  127.5590  134.9570   61.6870 C   0  0  0  0  0  0  0  0  0  0  0  0
  126.7590  132.1810   60.7060 N   0  0  0  0  0  0  0  0  0  0  0  0
  126.7730  130.8530   60.6010 C   0  0  0  0  0  0  0  0  0  0  0  0
  127.2100  130.0440   59.1130 S   0  0  0  0  0  0  0  0  0  0  0  0
  126.9730  128.4580   59.8500 C   0  0  0  0  0  0  0  0  0  0  0  0
  127.2090  127.2380   59.0760 C   0  0  0  0  0  0  0  0  0  0  0  0
  128.3100  127.0200   58.5680 O   0  0  0  0  0  0  0  0  0  0  0  0
  126.1500  126.3970   58.9800 N   0  0  0  0  0  0  0  0  0  0  0  0
  126.0290  125.1850   58.2750 C   0  0  0  0  0  0  0  0  0  0  0  0
  124.7410  124.6470   58.2030 C   0  0  0  0  0  0  0  0  0  0  0  0
  124.5140  123.4580   57.5150 C   0  0  0  0  0  0  0  0  0  0  0  0
  125.5760  122.8090   56.8910 C   0  0  0  0  0  0  0  0  0  0  0  0
  126.8610  123.3410   56.9440 C   0  0  0  0  0  0  0  0  0  0  0  0
  127.0910  124.5290   57.6320 C   0  0  0  0  0  0  0  0  0  0  0  0
  126.5670  128.5780   61.1890 C   0  0  0  0  0  0  0  0  0  0  0  0
  126.3050  127.5080   62.0070 N   0  0  0  0  0  0  0  0  0  0  0  0
  126.4480  129.9390   61.6430 C   0  0  0  0  0  0  0  0  0  0  0  0
  1  2  1  0
  2  3  2  0
  3  4  1  0
  4  5  1  0
  5  6  2  0
  6  7  1  0
  7  8  2  0
  8  9  1  0
  9 10  2  0
  4 11  2  0
 11 12  1  0
 12 13  1  0
 13 14  1  0
 14 15  1  0
 15 16  2  0
 15 17  1  0
 17 18  1  0
 18 19  2  0
 19 20  1  0
 20 21  2  0
 21 22  1  0
 22 23  2  0
 14 24  2  0
 24 25  1  0
 24 26  1  0
 26  2  1  0
 10  5  1  0
 26 12  2  0
 23 18  1  0
M  END
>  <Binding energies>  (60) 
[-7.75]

>  <Ligand effiencies>  (60) 
[-0.2672413793103448]

>  <Interactions>  (60) 
["V-B:ASP:366:CG:8184, V-B:PRO:540:CD:9858, H-B:ASP:366:OD2:8186, V-B:PRO:540:N:9855, V-B:PRO:540:CB:9856, H-B:TYR:531:OH:9766, V-B:PRO:540:CA:9854, V-B:LEU:363:CD1:8160, H-B:GLU:543:OE2:9881, V-B:PRO:482:CB:9297, V-B:LEU:475:CD1:9229, V-B:TRP:381:CH2:8343, V-A:TYR:539:CD2:4874, V-A:ALA:541:CB:4892, V-B:PRO:482:CG:9298, V-B:TRP:381:CZ2:8341, V-B:ARG:545:CZ:9897, V-B:TRP:381:CE2:8338, H-B:ASP:366:OD1:8185, H-B:GLU:543:OE1:9880"]

$$$$
4dg_Grossjean_2025
     RDKit          3D

 27 30  0  0  0  0  0  0  0  0999 V2000
  131.7910  126.2540   63.9310 C   0  0  0  0  0  0  0  0  0  0  0  0
  131.4630  125.6450   62.5760 C   0  0  0  0  0  0  0  0  0  0  0  0
  131.3990  124.2500   62.4770 C   0  0  0  0  0  0  0  0  0  0  0  0
  131.1010  123.6280   61.2580 C   0  0  0  0  0  0  0  0  0  0  0  0
  131.0250  122.1340   61.1210 C   0  0  0  0  0  0  0  0  0  0  0  0
  132.1430  121.3890   60.7110 C   0  0  0  0  0  0  0  0  0  0  0  0
  132.0760  120.0040   60.5780 C   0  0  0  0  0  0  0  0  0  0  0  0
  130.8860  119.3410   60.8560 C   0  0  0  0  0  0  0  0  0  0  0  0
  129.7620  120.0530   61.2600 C   0  0  0  0  0  0  0  0  0  0  0  0
  129.8330  121.4370   61.3900 C   0  0  0  0  0  0  0  0  0  0  0  0
  130.8440  124.3450   60.1310 N   0  0  0  0  0  0  0  0  0  0  0  0
  130.9040  125.6730   60.2230 C   0  0  0  0  0  0  0  0  0  0  0  0
  130.6020  126.7120   58.8500 S   0  0  0  0  0  0  0  0  0  0  0  0
  130.8740  128.1540   59.8260 C   0  0  0  0  0  0  0  0  0  0  0  0
  130.8070  129.4800   59.2130 C   0  0  0  0  0  0  0  0  0  0  0  0
  129.9530  129.7540   58.3680 O   0  0  0  0  0  0  0  0  0  0  0  0
  131.7560  130.3570   59.6010 N   0  0  0  0  0  0  0  0  0  0  0  0
  131.8700  131.7400   59.1390 C   0  0  0  0  0  0  0  0  0  0  0  0
  131.5220  131.9170   57.6650 C   0  0  0  0  0  0  0  0  0  0  0  0
  130.4370  132.7200   57.3000 C   0  0  0  0  0  0  0  0  0  0  0  0
  130.1350  132.9090   55.9550 C   0  0  0  0  0  0  0  0  0  0  0  0
  130.9240  132.3050   54.9790 C   0  0  0  0  0  0  0  0  0  0  0  0
  132.0170  131.5170   55.3350 C   0  0  0  0  0  0  0  0  0  0  0  0
  132.3200  131.3290   56.6810 C   0  0  0  0  0  0  0  0  0  0  0  0
  131.1990  127.8210   61.1500 C   0  0  0  0  0  0  0  0  0  0  0  0
  131.4740  128.7460   62.1250 N   0  0  0  0  0  0  0  0  0  0  0  0
  131.2110  126.4050   61.4050 C   0  0  0  0  0  0  0  0  0  0  0  0
  1  2  1  0
  2  3  2  0
  3  4  1  0
  4  5  1  0
  5  6  2  0
  6  7  1  0
  7  8  2  0
  8  9  1  0
  9 10  2  0
  4 11  2  0
 11 12  1  0
 12 13  1  0
 13 14  1  0
 14 15  1  0
 15 16  2  0
 15 17  1  0
 17 18  1  0
 18 19  1  0
 19 20  2  0
 20 21  1  0
 21 22  2  0
 22 23  1  0
 23 24  2  0
 14 25  2  0
 25 26  1  0
 25 27  1  0
 27  2  1  0
 10  5  1  0
 27 12  2  0
 24 19  1  0
M  END
>  <Binding energies>  (61) 
[-7.74]

>  <Ligand effiencies>  (61) 
[-0.258]

>  <Interactions>  (61) 
["V-B:TYR:539:CD2:9845, V-B:TYR:539:CE2:9847, V-A:ASP:366:CG:3212, V-A:ILE:369:CG2:3236, V-A:PRO:540:N:4884, V-A:GLU:543:CD:4908, H-A:GLU:543:OE1:4909, V-A:PRO:540:CB:4885, H-A:GLU:543:OE2:4910, V-A:PRO:540:CA:4883, V-A:TYR:539:C:4867, V-A:LEU:475:CD2:4258, V-A:ARG:545:CZ:4926, V-B:ALA:541:CB:9863, V-A:TRP:381:CH2:3371, V-A:TRP:381:CZ2:3369, V-B:ALA:541:CA:9861, V-A:TRP:381:CZ3:3370, V-A:PRO:482:CB:4325, V-A:TYR:531:CE2:4793, V-A:LEU:363:CD1:3188, V-A:TYR:531:CZ:4794, V-A:MET:535:CE:4835, V-A:ILE:538:CA:4860, V-A:ILE:538:CB:4862, V-A:ILE:538:CG2:4863, H-A:ASP:366:OD2:3214, H-A:ASP:366:OD1:3213, V-A:MET:535:CG:4833"]

$$$$
4dj_Grossjean_2025
     RDKit          3D

 25 28  0  0  0  0  0  0  0  0999 V2000
  124.6130  131.1220   57.3260 C   0  0  0  0  0  0  0  0  0  0  0  0
  125.8670  131.3820   58.1470 C   0  0  0  0  0  0  0  0  0  0  0  0
  127.0460  131.7040   57.4650 C   0  0  0  0  0  0  0  0  0  0  0  0
  128.2350  131.9540   58.1610 C   0  0  0  0  0  0  0  0  0  0  0  0
  129.5140  132.3070   57.4570 C   0  0  0  0  0  0  0  0  0  0  0  0
  130.7390  132.3060   58.1440 C   0  0  0  0  0  0  0  0  0  0  0  0
  131.9290  132.6330   57.4980 C   0  0  0  0  0  0  0  0  0  0  0  0
  131.9090  132.9700   56.1480 C   0  0  0  0  0  0  0  0  0  0  0  0
  130.7100  132.9830   55.4440 C   0  0  0  0  0  0  0  0  0  0  0  0
  129.5240  132.6550   56.0940 C   0  0  0  0  0  0  0  0  0  0  0  0
  128.2940  131.9120   59.5200 N   0  0  0  0  0  0  0  0  0  0  0  0
  127.1730  131.6040   60.1710 C   0  0  0  0  0  0  0  0  0  0  0  0
  127.1090  131.5080   61.9160 S   0  0  0  0  0  0  0  0  0  0  0  0
  125.3940  131.0890   61.8770 C   0  0  0  0  0  0  0  0  0  0  0  0
  124.6650  130.8420   63.1210 C   0  0  0  0  0  0  0  0  0  0  0  0
  123.4680  131.1280   63.2180 O   0  0  0  0  0  0  0  0  0  0  0  0
  125.3930  130.3000   64.1270 N   0  0  0  0  0  0  0  0  0  0  0  0
  124.9460  129.9720   65.4000 C   0  0  0  0  0  0  0  0  0  0  0  0
  123.7110  130.0000   65.8540 N   0  0  0  0  0  0  0  0  0  0  0  0
  123.6500  129.6230   67.1160 C   0  0  0  0  0  0  0  0  0  0  0  0
  124.8580  129.2750   67.7140 C   0  0  0  0  0  0  0  0  0  0  0  0
  126.1370  129.4570   66.5500 S   0  0  0  0  0  0  0  0  0  0  0  0
  124.9190  131.0300   60.5580 C   0  0  0  0  0  0  0  0  0  0  0  0
  123.6220  130.7240   60.2270 N   0  0  0  0  0  0  0  0  0  0  0  0
  125.9150  131.3230   59.5640 C   0  0  0  0  0  0  0  0  0  0  0  0
  1  2  1  0
  2  3  2  0
  3  4  1  0
  4  5  1  0
  5  6  2  0
  6  7  1  0
  7  8  2  0
  8  9  1  0
  9 10  2  0
  4 11  2  0
 11 12  1  0
 12 13  1  0
 13 14  1  0
 14 15  1  0
 15 16  2  0
 15 17  1  0
 17 18  1  0
 18 19  2  0
 19 20  1  0
 20 21  2  0
 21 22  1  0
 14 23  2  0
 23 24  1  0
 23 25  1  0
 25  2  1  0
 10  5  1  0
 25 12  2  0
 22 18  1  0
M  END
>  <Binding energies>  (62) 
[-7.1]

>  <Ligand effiencies>  (62) 
[-0.25357142857142856]

>  <Interactions>  (62) 
["V-B:ASP:366:CG:8184, H-B:ASP:366:OD2:8186, V-B:ASP:366:CB:8183, V-A:PRO:540:N:4884, V-A:PRO:540:CB:4885, V-A:TYR:539:CD2:4874, V-A:PRO:540:CA:4883, V-A:TYR:539:C:4867, V-B:ILE:369:CD1:8210, H-B:GLY:454:N:9021, V-B:HIS:456:CE1:9041, V-B:GLY:454:CA:9020, H-B:ARG:545:NE:9895, V-A:TYR:539:CE2:4876, V-A:TYR:539:CZ:4877, V-B:ASP:366:CA:8181, V-B:ARG:545:CZ:9897, V-A:LEU:363:CD1:3188, V-A:MET:535:CE:4835, H-B:TYR:484:OH:9319, V-B:ARG:545:CG:9893, V-A:ILE:538:CA:4860, V-A:ILE:538:CB:4862, V-A:PRO:540:CD:4887, V-A:ILE:538:C:4858, V-A:ILE:538:CG2:4863, V-B:ARG:545:CD:9894, H-B:ASP:366:O:8180, H-B:ASP:366:OD1:8185"]

$$$$
4ea_Grossjean_2025
     RDKit          3D

 31 34  0  0  0  0  0  0  0  0999 V2000
  129.0190  123.1430   59.0650 C   0  0  0  0  0  0  0  0  0  0  0  0
  127.9040  122.1110   58.8720 C   0  0  0  0  0  0  0  0  0  0  0  0
  127.7080  121.8820   57.4830 O   0  0  0  0  0  0  0  0  0  0  0  0
  126.7860  122.5880   56.7780 C   0  0  0  0  0  0  0  0  0  0  0  0
  126.1580  122.1210   55.8230 O   0  0  0  0  0  0  0  0  0  0  0  0
  126.6070  123.9930   57.2770 C   0  0  0  0  0  0  0  0  0  0  0  0
  125.5980  124.2630   58.2100 C   0  0  0  0  0  0  0  0  0  0  0  0
  125.4060  125.5550   58.6910 C   0  0  0  0  0  0  0  0  0  0  0  0
  126.2160  126.6020   58.2520 C   0  0  0  0  0  0  0  0  0  0  0  0
  125.9310  127.8640   58.8060 N   0  0  0  0  0  0  0  0  0  0  0  0
  125.9740  129.0990   58.2480 C   0  0  0  0  0  0  0  0  0  0  0  0
  126.2940  129.3220   57.0800 O   0  0  0  0  0  0  0  0  0  0  0  0
  125.6040  130.2010   59.1410 C   0  0  0  0  0  0  0  0  0  0  0  0
  125.0040  131.7240   58.4800 S   0  0  0  0  0  0  0  0  0  0  0  0
  124.8260  132.4050   60.0810 C   0  0  0  0  0  0  0  0  0  0  0  0
  124.3720  133.6440   60.2740 N   0  0  0  0  0  0  0  0  0  0  0  0
  124.2810  134.0520   61.5630 C   0  0  0  0  0  0  0  0  0  0  0  0
  123.7630  135.4650   61.7600 C   0  0  0  0  0  0  0  0  0  0  0  0
  124.6290  133.2570   62.6540 C   0  0  0  0  0  0  0  0  0  0  0  0
  125.1050  131.9580   62.4470 C   0  0  0  0  0  0  0  0  0  0  0  0
  125.4700  131.1260   63.6160 C   0  0  0  0  0  0  0  0  0  0  0  0
  126.8030  131.0470   64.0330 C   0  0  0  0  0  0  0  0  0  0  0  0
  127.1480  130.2660   65.1330 C   0  0  0  0  0  0  0  0  0  0  0  0
  126.1590  129.5620   65.8150 C   0  0  0  0  0  0  0  0  0  0  0  0
  124.8290  129.6300   65.4060 C   0  0  0  0  0  0  0  0  0  0  0  0
  124.4860  130.4110   64.3050 C   0  0  0  0  0  0  0  0  0  0  0  0
  125.2150  131.4920   61.1080 C   0  0  0  0  0  0  0  0  0  0  0  0
  125.6550  130.2420   60.5440 C   0  0  0  0  0  0  0  0  0  0  0  0
  126.0820  129.1980   61.3230 N   0  0  0  0  0  0  0  0  0  0  0  0
  127.2300  126.3400   57.3170 C   0  0  0  0  0  0  0  0  0  0  0  0
  127.4200  125.0480   56.8360 C   0  0  0  0  0  0  0  0  0  0  0  0
  1  2  1  0
  2  3  1  0
  3  4  1  0
  4  5  2  0
  4  6  1  0
  6  7  2  0
  7  8  1  0
  8  9  2  0
  9 10  1  0
 10 11  1  0
 11 12  2  0
 11 13  1  0
 13 14  1  0
 14 15  1  0
 15 16  2  0
 16 17  1  0
 17 18  1  0
 17 19  2  0
 19 20  1  0
 20 21  1  0
 21 22  2  0
 22 23  1  0
 23 24  2  0
 24 25  1  0
 25 26  2  0
 20 27  2  0
 27 28  1  0
 28 29  1  0
  9 30  1  0
 30 31  2  0
 31  6  1  0
 28 13  2  0
 27 15  1  0
 26 21  1  0
M  END
>  <Binding energies>  (63) 
[-8.46]

>  <Ligand effiencies>  (63) 
[-0.24882352941176472]

>  <Interactions>  (63) 
["V-B:TYR:539:CD2:9845, V-B:ASP:366:CG:8184, V-B:TYR:539:CE2:9847, V-B:TYR:539:C:9838, H-B:ASP:366:OD2:8186, V-B:PRO:540:N:9855, H-B:TYR:531:OH:9766, V-B:PRO:540:CA:9854, V-B:TYR:539:CZ:9848, V-B:ASP:366:CB:8183, V-B:LEU:475:CD1:9229, V-B:TRP:381:CH2:8343, V-A:GLU:543:CG:4907, V-B:TRP:381:CZ2:8341, V-B:GLY:454:CA:9020, V-B:ILE:369:CG2:8208, V-A:TYR:539:CE2:4876, V-A:TYR:539:CZ:4877, V-B:TYR:539:CD1:9844, V-B:TYR:539:CG:9843, V-B:TYR:539:CE1:9846, H-B:TYR:539:N:9841, V-B:ARG:545:CZ:9897, H-B:ASP:366:OD1:8185"]

$$$$
4eb_Grossjean_2025
     RDKit          3D

 30 33  0  0  0  0  0  0  0  0999 V2000
  128.0130  122.1550   58.5180 C   0  0  0  0  0  0  0  0  0  0  0  0
  127.5240  121.7460   57.2490 O   0  0  0  0  0  0  0  0  0  0  0  0
  126.6260  122.5050   56.5680 C   0  0  0  0  0  0  0  0  0  0  0  0
  125.9870  122.0940   55.5960 O   0  0  0  0  0  0  0  0  0  0  0  0
  126.4900  123.8970   57.1160 C   0  0  0  0  0  0  0  0  0  0  0  0
  125.4210  124.1910   57.9740 C   0  0  0  0  0  0  0  0  0  0  0  0
  125.2670  125.4710   58.4980 C   0  0  0  0  0  0  0  0  0  0  0  0
  126.1750  126.4820   58.1780 C   0  0  0  0  0  0  0  0  0  0  0  0
  125.9200  127.7360   58.7670 N   0  0  0  0  0  0  0  0  0  0  0  0
  125.9940  128.9830   58.2420 C   0  0  0  0  0  0  0  0  0  0  0  0
  126.3210  129.2290   57.0800 O   0  0  0  0  0  0  0  0  0  0  0  0
  125.6510  130.0700   59.1620 C   0  0  0  0  0  0  0  0  0  0  0  0
  125.0870  131.6230   58.5400 S   0  0  0  0  0  0  0  0  0  0  0  0
  124.9260  132.2670   60.1570 C   0  0  0  0  0  0  0  0  0  0  0  0
  124.5010  133.5120   60.3810 N   0  0  0  0  0  0  0  0  0  0  0  0
  124.4200  133.8900   61.6790 C   0  0  0  0  0  0  0  0  0  0  0  0
  123.9350  135.3100   61.9100 C   0  0  0  0  0  0  0  0  0  0  0  0
  124.7500  133.0620   62.7500 C   0  0  0  0  0  0  0  0  0  0  0  0
  125.1940  131.7560   62.5110 C   0  0  0  0  0  0  0  0  0  0  0  0
  125.5410  130.8870   63.6590 C   0  0  0  0  0  0  0  0  0  0  0  0
  126.8730  130.5340   63.8950 C   0  0  0  0  0  0  0  0  0  0  0  0
  127.2000  129.7180   64.9760 C   0  0  0  0  0  0  0  0  0  0  0  0
  126.1920  129.2530   65.8180 C   0  0  0  0  0  0  0  0  0  0  0  0
  124.8620  129.5980   65.5890 C   0  0  0  0  0  0  0  0  0  0  0  0
  124.5370  130.4130   64.5090 C   0  0  0  0  0  0  0  0  0  0  0  0
  125.2930  131.3210   61.1610 C   0  0  0  0  0  0  0  0  0  0  0  0
  125.7030  130.0770   60.5650 C   0  0  0  0  0  0  0  0  0  0  0  0
  126.1060  129.0020   61.3180 N   0  0  0  0  0  0  0  0  0  0  0  0
  127.2480  126.1960   57.3200 C   0  0  0  0  0  0  0  0  0  0  0  0
  127.4010  124.9150   56.7960 C   0  0  0  0  0  0  0  0  0  0  0  0
  1  2  1  0
  2  3  1  0
  3  4  2  0
  3  5  1  0
  5  6  2  0
  6  7  1  0
  7  8  2  0
  8  9  1  0
  9 10  1  0
 10 11  2  0
 10 12  1  0
 12 13  1  0
 13 14  1  0
 14 15  2  0
 15 16  1  0
 16 17  1  0
 16 18  2  0
 18 19  1  0
 19 20  1  0
 20 21  2  0
 21 22  1  0
 22 23  2  0
 23 24  1  0
 24 25  2  0
 19 26  2  0
 26 27  1  0
 27 28  1  0
  8 29  1  0
 29 30  2  0
 30  5  1  0
 27 12  2  0
 26 14  1  0
 25 20  1  0
M  END
>  <Binding energies>  (64) 
[-8.65]

>  <Ligand effiencies>  (64) 
[-0.26212121212121214]

>  <Interactions>  (64) 
["V-B:TYR:539:CD2:9845, V-B:ASP:366:CG:8184, V-B:TYR:539:CE2:9847, V-B:TYR:539:C:9838, V-B:PRO:540:CD:9858, H-B:ASP:366:OD2:8186, V-B:PRO:540:N:9855, H-B:TYR:531:OH:9766, V-B:PRO:540:CA:9854, V-B:TYR:539:CZ:9848, V-B:ASP:366:CB:8183, V-B:LEU:475:CD1:9229, V-B:TRP:381:CH2:8343, V-B:TRP:381:CZ2:8341, V-B:GLU:543:CD:9879, V-B:GLY:454:CA:9020, V-B:ILE:369:CG2:8208, V-A:TYR:539:CE2:4876, V-A:TYR:539:CZ:4877, V-B:TYR:539:CD1:9844, V-B:TYR:539:CG:9843, V-B:TYR:539:CE1:9846, H-B:TYR:539:N:9841, V-B:ARG:545:CZ:9897, H-B:ASP:366:OD1:8185"]

$$$$
8b_Ghoteimi_2023
     RDKit          3D

 34 38  0  0  0  0  0  0  0  0999 V2000
  129.1200  129.3990   75.3700 C   0  0  0  0  0  0  0  0  0  0  0  0
  130.1210  128.8740   74.5040 O   0  0  0  0  0  0  0  0  0  0  0  0
  129.8610  128.7850   73.1490 C   0  0  0  0  0  0  0  0  0  0  0  0
  129.8450  127.5050   72.6010 C   0  0  0  0  0  0  0  0  0  0  0  0
  129.5920  127.3190   71.2450 C   0  0  0  0  0  0  0  0  0  0  0  0
  129.3490  128.4120   70.4010 C   0  0  0  0  0  0  0  0  0  0  0  0
  129.0790  128.2180   68.9430 C   0  0  0  0  0  0  0  0  0  0  0  0
  128.2710  129.1010   68.2190 C   0  0  0  0  0  0  0  0  0  0  0  0
  128.0350  128.8980   66.8560 C   0  0  0  0  0  0  0  0  0  0  0  0
  127.1670  129.8470   66.1210 C   0  0  0  0  0  0  0  0  0  0  0  0
  125.7870  129.6450   66.0740 C   0  0  0  0  0  0  0  0  0  0  0  0
  124.9720  130.5440   65.3900 C   0  0  0  0  0  0  0  0  0  0  0  0
  125.5220  131.6520   64.7440 C   0  0  0  0  0  0  0  0  0  0  0  0
  124.6370  132.4900   64.0930 O   0  0  0  0  0  0  0  0  0  0  0  0
  123.9920  132.0340   62.9090 C   0  0  0  0  0  0  0  0  0  0  0  0
  126.9110  131.8500   64.7900 C   0  0  0  0  0  0  0  0  0  0  0  0
  127.7250  130.9510   65.4750 C   0  0  0  0  0  0  0  0  0  0  0  0
  128.6440  127.7760   66.2320 C   0  0  0  0  0  0  0  0  0  0  0  0
  128.6220  127.2790   64.8810 C   0  0  0  0  0  0  0  0  0  0  0  0
  127.9200  127.9030   63.8810 N   0  0  0  0  0  0  0  0  0  0  0  0
  129.3810  126.1140   64.6920 C   0  0  0  0  0  0  0  0  0  0  0  0
  129.5840  125.3490   63.4590 C   0  0  0  0  0  0  0  0  0  0  0  0
  130.5880  125.5280   62.7650 O   0  0  0  0  0  0  0  0  0  0  0  0
  128.6040  124.4590   63.1590 N   0  0  0  0  0  0  0  0  0  0  0  0
  128.5420  123.6080   62.0640 C   0  0  0  0  0  0  0  0  0  0  0  0
  129.6130  123.4070   61.1940 C   0  0  0  0  0  0  0  0  0  0  0  0
  129.1500  122.5110   60.2580 C   0  0  0  0  0  0  0  0  0  0  0  0
  127.8690  122.1870   60.5490 O   0  0  0  0  0  0  0  0  0  0  0  0
  127.4940  122.8870   61.6980 N   0  0  0  0  0  0  0  0  0  0  0  0
  130.1480  125.6020   66.1960 S   0  0  0  0  0  0  0  0  0  0  0  0
  129.4490  126.9480   67.0650 C   0  0  0  0  0  0  0  0  0  0  0  0
  129.6730  127.1390   68.3650 N   0  0  0  0  0  0  0  0  0  0  0  0
  129.3640  129.6970   70.9590 C   0  0  0  0  0  0  0  0  0  0  0  0
  129.6170  129.8860   72.3160 C   0  0  0  0  0  0  0  0  0  0  0  0
  1  2  1  0
  2  3  1  0
  3  4  2  0
  4  5  1  0
  5  6  2  0
  6  7  1  0
  7  8  2  0
  8  9  1  0
  9 10  1  0
 10 11  2  0
 11 12  1  0
 12 13  2  0
 13 14  1  0
 14 15  1  0
 13 16  1  0
 16 17  2  0
  9 18  2  0
 18 19  1  0
 19 20  1  0
 19 21  2  0
 21 22  1  0
 22 23  2  0
 22 24  1  0
 24 25  1  0
 25 26  1  0
 26 27  2  0
 27 28  1  0
 28 29  1  0
 21 30  1  0
 30 31  1  0
 31 32  2  0
  6 33  1  0
 33 34  2  0
 34  3  1  0
 32  7  1  0
 17 10  1  0
 31 18  1  0
 29 25  2  0
M  END
>  <Binding energies>  (65) 
[-8.53]

>  <Ligand effiencies>  (65) 
[-0.23054054054054052]

>  <Interactions>  (65) 
["V-B:TYR:539:CD2:9845, V-B:TYR:539:CE2:9847, H-B:GLU:543:OE2:9881, H-B:ALA:541:N:9862, V-A:GLU:543:CD:4908, H-A:GLU:543:OE1:4909, V-B:LEU:475:CD1:9229, V-A:GLU:543:CG:4907, V-B:ILE:369:CD1:8210, H-A:LYS:547:NZ:4951, H-B:GLY:454:N:9021, V-B:GLU:543:CD:9879, V-B:HIS:456:CE1:9041, V-B:GLY:454:CA:9020, V-A:GLU:543:CB:4906, V-A:HIS:456:CE1:4069, V-B:GLU:543:CG:9878, V-A:GLU:543:C:4902, V-B:ALA:541:CB:9863, V-A:LYS:547:CE:4950, H-B:GLU:543:OE1:9880"]

$$$$
9d_Ghoteimi_2023
     RDKit          3D

 38 43  0  0  0  0  0  0  0  0999 V2000
  133.5350  125.1180   65.2680 C   0  0  0  0  0  0  0  0  0  0  0  0
  133.0620  123.9650   64.5860 O   0  0  0  0  0  0  0  0  0  0  0  0
  131.7310  123.7560   64.4130 C   0  0  0  0  0  0  0  0  0  0  0  0
  131.2430  122.6830   64.0470 O   0  0  0  0  0  0  0  0  0  0  0  0
  130.9160  124.9550   64.7060 C   0  0  0  0  0  0  0  0  0  0  0  0
  130.4090  126.0160   63.3920 S   0  0  0  0  0  0  0  0  0  0  0  0
  129.5510  127.0530   64.5060 C   0  0  0  0  0  0  0  0  0  0  0  0
  128.8670  128.1150   64.0840 N   0  0  0  0  0  0  0  0  0  0  0  0
  128.2190  128.8470   65.0280 C   0  0  0  0  0  0  0  0  0  0  0  0
  127.4370  130.0200   64.5290 C   0  0  0  0  0  0  0  0  0  0  0  0
  126.0690  129.9010   64.2660 C   0  0  0  0  0  0  0  0  0  0  0  0
  125.3320  130.9860   63.7990 C   0  0  0  0  0  0  0  0  0  0  0  0
  125.9360  132.2360   63.5890 C   0  0  0  0  0  0  0  0  0  0  0  0
  125.2130  133.3300   63.1030 N   0  0  0  0  0  0  0  0  0  0  0  0
  125.8640  134.3860   62.3010 C   0  0  0  0  0  0  0  0  0  0  0  0
  125.0160  135.6670   62.1500 C   0  0  0  0  0  0  0  0  0  0  0  0
  123.7390  135.3450   61.6260 O   0  0  0  0  0  0  0  0  0  0  0  0
  123.0350  134.4600   62.4820 C   0  0  0  0  0  0  0  0  0  0  0  0
  123.8200  133.1410   62.6460 C   0  0  0  0  0  0  0  0  0  0  0  0
  127.3120  132.3450   63.8390 C   0  0  0  0  0  0  0  0  0  0  0  0
  128.0480  131.2590   64.3040 C   0  0  0  0  0  0  0  0  0  0  0  0
  128.2850  128.5350   66.3890 C   0  0  0  0  0  0  0  0  0  0  0  0
  129.0180  127.4310   66.8390 C   0  0  0  0  0  0  0  0  0  0  0  0
  129.0770  127.1600   68.2990 C   0  0  0  0  0  0  0  0  0  0  0  0
  128.2740  126.1730   68.8750 C   0  0  0  0  0  0  0  0  0  0  0  0
  128.3470  125.9100   70.2400 C   0  0  0  0  0  0  0  0  0  0  0  0
  129.2380  126.6180   71.0640 C   0  0  0  0  0  0  0  0  0  0  0  0
  129.3230  126.3790   72.4370 N   0  0  0  0  0  0  0  0  0  0  0  0
  129.0720  125.0170   72.9460 C   0  0  0  0  0  0  0  0  0  0  0  0
  129.5720  124.8050   74.3910 C   0  0  0  0  0  0  0  0  0  0  0  0
  129.0020  125.7800   75.2510 O   0  0  0  0  0  0  0  0  0  0  0  0
  129.3500  127.0980   74.8530 C   0  0  0  0  0  0  0  0  0  0  0  0
  128.8400  127.3670   73.4220 C   0  0  0  0  0  0  0  0  0  0  0  0
  130.0380  127.6080   70.4750 C   0  0  0  0  0  0  0  0  0  0  0  0
  129.9630  127.8710   69.1100 C   0  0  0  0  0  0  0  0  0  0  0  0
  129.6690  126.6270   65.8620 C   0  0  0  0  0  0  0  0  0  0  0  0
  130.4400  125.4130   65.9410 C   0  0  0  0  0  0  0  0  0  0  0  0
  130.6690  124.7520   67.1200 N   0  0  0  0  0  0  0  0  0  0  0  0
  1  2  1  0
  2  3  1  0
  3  4  2  0
  3  5  1  0
  5  6  1  0
  6  7  1  0
  7  8  2  0
  8  9  1  0
  9 10  1  0
 10 11  2  0
 11 12  1  0
 12 13  2  0
 13 14  1  0
 14 15  1  0
 15 16  1  0
 16 17  1  0
 17 18  1  0
 18 19  1  0
 13 20  1  0
 20 21  2  0
  9 22  2  0
 22 23  1  0
 23 24  1  0
 24 25  2  0
 25 26  1  0
 26 27  2  0
 27 28  1  0
 28 29  1  0
 29 30  1  0
 30 31  1  0
 31 32  1  0
 32 33  1  0
 27 34  1  0
 34 35  2  0
 23 36  2  0
 36 37  1  0
 37 38  1  0
 37  5  2  0
 36  7  1  0
 21 10  1  0
 35 24  1  0
 19 14  1  0
 33 28  1  0
M  END
>  <Binding energies>  (66) 
[-8.52]

>  <Ligand effiencies>  (66) 
[-0.213]

>  <Interactions>  (66) 
["V-A:GLU:543:CD:4908, V-B:LEU:475:CD1:9229, V-B:TRP:381:CH2:8343, V-A:GLU:543:CG:4907, V-A:ALA:541:CB:4892, V-B:TRP:381:CZ2:8341, V-B:ILE:369:CD1:8210, V-A:HIS:456:CD2:4067, V-B:GLU:543:C:9873, V-B:GLU:543:CD:9879, V-B:HIS:456:CE1:9041, V-B:GLY:454:CA:9020, V-A:GLU:543:CB:4906, V-A:HIS:456:CE1:4069, H-B:LYS:547:NZ:9922, V-B:HIS:456:CD2:9039, V-B:GLU:543:CG:9878, V-A:TYR:484:CE1:4344, V-B:GLU:543:CB:9877, H-A:HIS:456:NE2:4070, H-A:TYR:484:OH:4347, V-B:ILE:369:CG2:8208, V-A:GLY:454:CA:4048, V-A:ARG:545:CZ:4926, V-A:TYR:484:CZ:4346, H-A:GLY:454:N:4049, V-B:SER:385:C:8376, V-B:LYS:547:CE:9921, V-B:ILE:369:CG1:8209"]

$$$$
RR10_Rahimova_2017
     RDKit          3D

 34 38  0  0  0  0  0  0  0  0999 V2000
  131.7410  120.2850   60.6220 C   0  0  0  0  0  0  0  0  0  0  0  0
  131.3930  121.6160   61.3100 C   0  0  1  0  0  0  0  0  0  0  0  0
  131.1650  122.7530   60.2870 C   0  0  0  0  0  0  0  0  0  0  0  0
  130.8510  124.0870   61.0010 C   0  0  0  0  0  0  0  0  0  0  0  0
  129.6110  123.9780   61.9250 C   0  0  1  0  0  0  0  0  0  0  0  0
  128.3870  123.7930   61.1330 N   0  0  0  0  0  0  0  0  0  0  0  0
  127.1920  123.4140   61.6210 C   0  0  0  0  0  0  0  0  0  0  0  0
  126.9940  123.1970   62.8190 O   0  0  0  0  0  0  0  0  0  0  0  0
  126.0490  123.2390   60.6000 C   0  0  1  0  0  0  0  0  0  0  0  0
  124.9380  124.2830   60.8880 C   0  0  0  0  0  0  0  0  0  0  0  0
  123.8330  124.1720   59.8100 C   0  0  0  0  0  0  0  0  0  0  0  0
  124.3990  124.2360   58.3720 C   0  0  0  0  0  0  0  0  0  0  0  0
  125.5000  123.2510   58.1970 N   0  0  0  0  0  0  0  0  0  0  0  0
  126.0220  123.0250   56.5190 S   0  0  0  0  0  0  0  0  0  0  0  0
  124.8500  123.1940   55.6510 O   0  0  0  0  0  0  0  0  0  0  0  0
  126.8160  121.7920   56.4560 O   0  0  0  0  0  0  0  0  0  0  0  0
  127.1170  124.4040   56.1820 C   0  0  0  0  0  0  0  0  0  0  0  0
  128.2250  124.2110   55.3500 C   0  0  0  0  0  0  0  0  0  0  0  0
  129.1180  125.2430   55.0500 C   0  0  0  0  0  0  0  0  0  0  0  0
  128.8470  126.4880   55.6220 C   0  0  0  0  0  0  0  0  0  0  0  0
  129.4700  127.7130   55.5760 N   0  0  0  0  0  0  0  0  0  0  0  0
  128.7400  128.5900   56.3520 C   0  0  0  0  0  0  0  0  0  0  0  0
  129.1150  130.0300   56.5550 C   0  0  0  0  0  0  0  0  0  0  0  0
  130.4450  130.4460   56.4010 C   0  0  0  0  0  0  0  0  0  0  0  0
  130.7930  131.7810   56.5850 C   0  0  0  0  0  0  0  0  0  0  0  0
  129.8130  132.7090   56.9260 C   0  0  0  0  0  0  0  0  0  0  0  0
  128.4880  132.3130   57.0830 C   0  0  0  0  0  0  0  0  0  0  0  0
  128.1410  130.9770   56.8980 C   0  0  0  0  0  0  0  0  0  0  0  0
  127.6880  128.0130   56.8900 N   0  0  0  0  0  0  0  0  0  0  0  0
  127.7280  126.7130   56.4590 C   0  0  0  0  0  0  0  0  0  0  0  0
  126.8480  125.6590   56.7410 C   0  0  0  0  0  0  0  0  0  0  0  0
  126.6100  123.4250   59.1690 C   0  0  0  0  0  0  0  0  0  0  0  0
  129.8470  122.8230   62.9350 C   0  0  0  0  0  0  0  0  0  0  0  0
  130.1530  121.4850   62.2240 C   0  0  0  0  0  0  0  0  0  0  0  0
  2  1  1  6
  2  3  1  0
  3  4  1  0
  4  5  1  0
  5  6  1  6
  6  7  1  0
  7  8  2  0
  9  7  1  1
  9 10  1  0
 10 11  1  0
 11 12  1  0
 12 13  1  0
 13 14  1  0
 14 15  2  0
 14 16  2  0
 14 17  1  0
 17 18  2  0
 18 19  1  0
 19 20  2  0
 20 21  1  0
 21 22  1  0
 22 23  1  0
 23 24  2  0
 24 25  1  0
 25 26  2  0
 26 27  1  0
 27 28  2  0
 22 29  2  0
 29 30  1  0
 30 31  2  0
 13 32  1  0
  5 33  1  0
 33 34  1  0
 34  2  1  0
 32  9  1  0
 31 17  1  0
 30 20  1  0
 28 23  1  0
M  END
>  <Binding energies>  (67) 
[-11.11]

>  <Ligand effiencies>  (67) 
[-0.3086111111111111]

>  <Interactions>  (67) 
["V-B:TYR:539:CD2:9845, V-B:MET:535:CE:9806, V-B:ASP:366:CG:8184, V-B:TYR:539:CE2:9847, V-A:ILE:369:CG2:3236, V-B:LEU:363:CA:8156, V-B:PRO:540:CB:9856, H-B:TYR:531:OH:9766, V-B:PRO:540:CA:9854, V-B:LEU:363:CD1:8160, V-B:TYR:539:CZ:9848, H-B:ALA:541:N:9862, V-A:TYR:539:CD2:4874, V-A:TYR:539:C:4867, V-A:LEU:475:CD2:4258, V-A:TYR:539:CE2:4876, V-A:TYR:539:CZ:4877, V-B:TYR:539:CE1:9846, V-B:ALA:541:CB:9863, V-A:TRP:381:CH2:3371, H-B:TYR:539:N:9841, V-B:PRO:540:C:9852, H-A:TYR:531:OH:4795, V-A:TYR:531:CZ:4794, V-B:ASN:362:C:8143, V-A:MET:535:CE:4835, V-A:TYR:539:CE1:4875, H-A:MET:535:SD:4834"]

$$$$
RR12_Rahimova_2017
     RDKit          3D

 26 28  0  0  0  0  0  0  0  0999 V2000
  126.3150  122.8660   55.7850 C   0  0  0  0  0  0  0  0  0  0  0  0
  127.1000  122.1260   56.8760 C   0  0  0  0  0  0  0  0  0  0  0  0
  127.9550  123.0750   57.7370 C   0  0  0  0  0  0  0  0  0  0  0  0
  127.4860  123.0820   59.1210 N   0  0  0  0  0  0  0  0  0  0  0  0
  128.2010  122.7300   60.2550 C   0  0  0  0  0  0  0  0  0  0  0  0
  129.6300  122.2170   60.2310 C   0  0  0  0  0  0  0  0  0  0  0  0
  129.7380  120.7570   60.7100 C   0  0  0  0  0  0  0  0  0  0  0  0
  131.1080  120.4360   61.3370 C   0  0  0  0  0  0  0  0  0  0  0  0
  131.9890  121.5970   61.4580 N   0  0  0  0  0  0  0  0  0  0  0  0
  132.1670  122.3170   62.5800 C   0  0  0  0  0  0  0  0  0  0  0  0
  131.5900  122.0690   63.6410 O   0  0  0  0  0  0  0  0  0  0  0  0
  133.1510  123.4880   62.4680 C   0  0  0  0  0  0  0  0  0  0  0  0
  133.6150  123.5940   61.1210 O   0  0  0  0  0  0  0  0  0  0  0  0
  132.9110  124.3740   60.2220 C   0  0  0  0  0  0  0  0  0  0  0  0
  131.8580  125.1280   60.7470 C   0  0  0  0  0  0  0  0  0  0  0  0
  131.0940  125.9460   59.9190 C   0  0  0  0  0  0  0  0  0  0  0  0
  131.3820  126.0130   58.5590 C   0  0  0  0  0  0  0  0  0  0  0  0
  132.4260  125.2660   58.0190 C   0  0  0  0  0  0  0  0  0  0  0  0
  133.1900  124.4470   58.8470 C   0  0  0  0  0  0  0  0  0  0  0  0
  127.5160  122.8660   61.3640 N   0  0  0  0  0  0  0  0  0  0  0  0
  126.3010  123.3520   60.9680 C   0  0  0  0  0  0  0  0  0  0  0  0
  125.1890  123.6920   61.7530 C   0  0  0  0  0  0  0  0  0  0  0  0
  124.0530  124.1800   61.1060 C   0  0  0  0  0  0  0  0  0  0  0  0
  124.0170  124.3290   59.7190 C   0  0  0  0  0  0  0  0  0  0  0  0
  125.1070  123.9990   58.9110 C   0  0  0  0  0  0  0  0  0  0  0  0
  126.2460  123.5080   59.5610 C   0  0  0  0  0  0  0  0  0  0  0  0
  1  2  1  0
  2  3  1  0
  3  4  1  0
  4  5  1  0
  5  6  1  0
  6  7  1  0
  7  8  1  0
  8  9  1  0
  9 10  1  0
 10 11  2  0
 10 12  1  0
 12 13  1  0
 13 14  1  0
 14 15  2  0
 15 16  1  0
 16 17  2  0
 17 18  1  0
 18 19  2  0
  5 20  2  0
 20 21  1  0
 21 22  2  0
 22 23  1  0
 23 24  2  0
 24 25  1  0
 25 26  2  0
 26  4  1  0
 19 14  1  0
 26 21  1  0
M  END
>  <Binding energies>  (68) 
[-6.81]

>  <Ligand effiencies>  (68) 
[-0.2522222222222222]

>  <Interactions>  (68) 
["V-B:TYR:539:CD2:9845, V-B:MET:535:CE:9806, V-B:ASP:366:CG:8184, V-B:TYR:539:CE2:9847, V-B:TYR:539:C:9838, V-B:PRO:540:CD:9858, V-B:PRO:540:N:9855, V-A:ILE:369:CG2:3236, V-B:LEU:363:CA:8156, V-B:PRO:540:CB:9856, V-A:ASP:366:CB:3211, V-B:PRO:540:CA:9854, V-B:TYR:539:CZ:9848, H-B:ALA:541:N:9862, V-A:ASP:366:CA:3209, V-A:LEU:475:CD2:4258, V-A:ILE:369:CD1:3238, V-B:TYR:539:CA:9840, V-B:TYR:539:CD1:9844, V-B:TYR:539:CG:9843, V-B:TYR:539:CE1:9846, V-B:ALA:541:CB:9863, V-B:PRO:540:C:9852, V-B:ASN:362:CB:8147, V-A:ILE:369:CB:3235, V-A:ASP:366:C:3207, V-B:ASN:362:C:8143, V-B:ASN:362:CA:8145"]

$$$$
RR13_Rahimova_2017
     RDKit          3D

 48 54  0  0  0  0  0  0  0  0999 V2000
  130.9390  125.1600   58.1980 Cl  0  0  0  0  0  0  0  0  0  0  0  0
  130.0040  123.9570   59.0200 C   0  0  0  0  0  0  0  0  0  0  0  0
  130.5530  123.3770   60.1660 C   0  0  0  0  0  0  0  0  0  0  0  0
  129.8600  122.3890   60.8600 C   0  0  0  0  0  0  0  0  0  0  0  0
  128.6110  121.9710   60.4090 C   0  0  0  0  0  0  0  0  0  0  0  0
  128.0560  122.5450   59.2670 C   0  0  0  0  0  0  0  0  0  0  0  0
  128.7350  123.5510   58.5600 C   0  0  0  0  0  0  0  0  0  0  0  0
  128.1090  124.1540   57.2830 C   0  0  1  0  0  0  0  0  0  0  0  0
  126.9510  123.2830   56.7720 C   0  0  0  0  0  0  0  0  0  0  0  0
  127.0520  122.1420   56.1270 N   0  0  0  0  0  0  0  0  0  0  0  0
  125.7470  121.7450   55.8500 N   0  0  0  0  0  0  0  0  0  0  0  0
  124.8540  122.6830   56.3280 N   0  0  0  0  0  0  0  0  0  0  0  0
  125.6220  123.6350   56.8700 N   0  0  0  0  0  0  0  0  0  0  0  0
  125.0150  124.7910   57.5200 C   0  0  0  0  0  0  0  0  0  0  0  0
  123.9780  124.3330   58.5630 C   0  0  0  0  0  0  0  0  0  0  0  0
  124.6060  124.0840   59.9260 C   0  0  0  0  0  0  0  0  0  0  0  0
  125.8630  124.6170   60.2230 C   0  0  0  0  0  0  0  0  0  0  0  0
  126.4400  124.3820   61.4690 C   0  0  0  0  0  0  0  0  0  0  0  0
  125.7580  123.6150   62.4120 C   0  0  0  0  0  0  0  0  0  0  0  0
  124.5050  123.0810   62.1210 C   0  0  0  0  0  0  0  0  0  0  0  0
  123.9270  123.3150   60.8750 C   0  0  0  0  0  0  0  0  0  0  0  0
  127.7240  125.5780   57.4290 N   0  0  0  0  0  0  0  0  0  0  0  0
  128.4400  126.4110   56.4460 C   0  0  0  0  0  0  0  0  0  0  0  0
  127.9450  127.8750   56.5030 C   0  0  0  0  0  0  0  0  0  0  0  0
  128.1940  128.4560   57.8330 N   0  0  0  0  0  0  0  0  0  0  0  0
  127.8100  129.8850   57.9080 C   0  0  1  0  0  0  0  0  0  0  0  0
  128.8090  130.8770   57.2750 C   0  0  0  0  0  0  0  0  0  0  0  0
  128.2740  131.9310   56.5220 C   0  0  0  0  0  0  0  0  0  0  0  0
  129.1000  132.8840   55.9280 C   0  0  0  0  0  0  0  0  0  0  0  0
  130.4820  132.7930   56.0730 C   0  0  0  0  0  0  0  0  0  0  0  0
  131.0340  131.7440   56.8030 C   0  0  0  0  0  0  0  0  0  0  0  0
  130.2150  130.7820   57.3990 C   0  0  0  0  0  0  0  0  0  0  0  0
  131.0010  129.4800   58.2270 Cl  0  0  0  0  0  0  0  0  0  0  0  0
  126.3970  130.1560   57.3870 C   0  0  0  0  0  0  0  0  0  0  0  0
  126.0070  130.0230   56.1400 N   0  0  0  0  0  0  0  0  0  0  0  0
  124.6560  130.3550   56.1250 N   0  0  0  0  0  0  0  0  0  0  0  0
  124.2340  130.6780   57.3980 N   0  0  0  0  0  0  0  0  0  0  0  0
  125.3210  130.5270   58.1640 N   0  0  0  0  0  0  0  0  0  0  0  0
  125.2510  130.8090   59.5940 C   0  0  0  0  0  0  0  0  0  0  0  0
  125.8990  132.1710   59.9050 C   0  0  0  0  0  0  0  0  0  0  0  0
  127.3540  132.0310   60.3250 C   0  0  0  0  0  0  0  0  0  0  0  0
  127.7510  130.9530   61.1200 C   0  0  0  0  0  0  0  0  0  0  0  0
  129.0850  130.8210   61.4980 C   0  0  0  0  0  0  0  0  0  0  0  0
  130.0170  131.7700   61.0800 C   0  0  0  0  0  0  0  0  0  0  0  0
  129.6270  132.8470   60.2860 C   0  0  0  0  0  0  0  0  0  0  0  0
  128.2940  132.9790   59.9070 C   0  0  0  0  0  0  0  0  0  0  0  0
  127.4720  127.6230   58.8120 C   0  0  0  0  0  0  0  0  0  0  0  0
  127.9780  126.1630   58.7570 C   0  0  0  0  0  0  0  0  0  0  0  0
  1  2  1  0
  2  3  2  0
  3  4  1  0
  4  5  2  0
  5  6  1  0
  6  7  2  0
  7  8  1  0
  8  9  1  0
  9 10  2  0
 10 11  1  0
 11 12  2  0
 12 13  1  0
 13 14  1  0
 14 15  1  0
 15 16  1  0
 16 17  2  0
 17 18  1  0
 18 19  2  0
 19 20  1  0
 20 21  2  0
  8 22  1  1
 22 23  1  0
 23 24  1  0
 24 25  1  0
 26 25  1  6
 26 27  1  0
 27 28  2  0
 28 29  1  0
 29 30  2  0
 30 31  1  0
 31 32  2  0
 32 33  1  0
 26 34  1  0
 34 35  2  0
 35 36  1  0
 36 37  2  0
 37 38  1  0
 38 39  1  0
 39 40  1  0
 40 41  1  0
 41 42  2  0
 42 43  1  0
 43 44  2  0
 44 45  1  0
 45 46  2  0
 25 47  1  0
 47 48  1  0
  7  2  1  0
 13  9  1  0
 21 16  1  0
 48 22  1  0
 32 27  1  0
 38 34  1  0
 46 41  1  0
M  END
>  <Binding energies>  (69) 
[-14.06]

>  <Ligand effiencies>  (69) 
[-0.29291666666666666]

>  <Interactions>  (69) 
["V-B:TYR:539:CD2:9845, V-B:MET:535:CE:9806, V-B:ASP:366:CG:8184, V-B:TYR:539:CE2:9847, V-B:TYR:539:C:9838, V-B:PRO:540:N:9855, V-B:LEU:363:CA:8156, V-B:PRO:540:CB:9856, H-B:TYR:531:OH:9766, V-B:PRO:540:CA:9854, V-B:LEU:363:CD1:8160, V-B:TYR:539:CZ:9848, V-B:TYR:531:CZ:9765, V-B:ASP:366:CB:8183, V-B:TYR:531:CE2:9764, V-A:TYR:539:CD2:4874, V-A:PRO:540:CA:4883, V-A:TYR:539:C:4867, V-B:GLU:543:CD:9879, V-B:GLU:543:CG:9878, V-A:TYR:539:CE2:4876, V-A:TYR:539:CZ:4877, V-B:TYR:539:CE1:9846, V-B:ALA:541:CB:9863, H-B:TYR:539:N:9841, V-B:PRO:540:C:9852, V-B:ALA:541:C:9859, V-B:ASN:362:CB:8147, V-B:ASN:362:C:8143, V-B:LEU:363:CB:8158, V-A:MET:535:CE:4835, H-A:TYR:539:OH:4878, V-A:TYR:539:CG:4872, V-A:ILE:538:CA:4860, V-A:TYR:539:CD1:4873, V-A:ILE:538:CB:4862, V-A:TYR:539:CE1:4875, V-B:ASN:362:CA:8145, V-B:ASN:362:CG:8148"]

$$$$
RR14_Rahimova_2017
     RDKit          3D

 39 43  0  0  0  0  0  0  0  0999 V2000
  127.1760  129.2740   56.2040 C   0  0  0  0  0  0  0  0  0  0  0  0
  125.9160  129.9360   56.1810 O   0  0  0  0  0  0  0  0  0  0  0  0
  125.4830  130.5960   57.3150 C   0  0  0  0  0  0  0  0  0  0  0  0
  126.4730  131.0510   58.1870 C   0  0  0  0  0  0  0  0  0  0  0  0
  126.1310  131.7050   59.3660 C   0  0  0  0  0  0  0  0  0  0  0  0
  124.7870  131.9070   59.6890 C   0  0  0  0  0  0  0  0  0  0  0  0
  124.4080  132.5650   61.0100 C   0  0  0  0  0  0  0  0  0  0  0  0
  125.1120  133.8240   61.2530 N   0  0  0  0  0  0  0  0  0  0  0  0
  124.7180  134.9480   60.6440 N   0  0  0  0  0  0  0  0  0  0  0  0
  125.6090  135.9110   61.0740 N   0  0  0  0  0  0  0  0  0  0  0  0
  126.5410  135.3480   61.9390 N   0  0  0  0  0  0  0  0  0  0  0  0
  126.2240  134.0780   62.0280 C   0  0  0  0  0  0  0  0  0  0  0  0
  126.9770  133.0410   62.8480 C   0  0  0  0  0  0  0  0  0  0  0  0
  128.2130  132.5900   62.1870 N   0  0  0  0  0  0  0  0  0  0  0  0
  128.1380  131.1780   61.7870 C   0  0  0  0  0  0  0  0  0  0  0  0
  128.6930  130.2090   62.8540 C   0  0  0  0  0  0  0  0  0  0  0  0
  127.6280  129.2620   63.4440 C   0  0  0  0  0  0  0  0  0  0  0  0
  126.4280  129.9600   63.9160 N   0  0  0  0  0  0  0  0  0  0  0  0
  126.1260  129.5760   65.3010 C   0  0  0  0  0  0  0  0  0  0  0  0
  124.8370  130.2550   65.8120 C   0  0  0  0  0  0  0  0  0  0  0  0
  123.7550  129.9790   64.9270 O   0  0  0  0  0  0  0  0  0  0  0  0
  124.0030  130.4540   63.6090 C   0  0  0  0  0  0  0  0  0  0  0  0
  125.2670  129.7800   63.0310 C   0  0  0  0  0  0  0  0  0  0  0  0
  128.5030  133.4400   61.0230 C   0  0  0  0  0  0  0  0  0  0  0  0
  129.5720  132.9220   60.0640 C   0  0  0  0  0  0  0  0  0  0  0  0
  129.3730  132.9290   58.7230 C   0  0  0  0  0  0  0  0  0  0  0  0
  130.3740  132.3980   57.7760 C   0  0  0  0  0  0  0  0  0  0  0  0
  130.2080  132.4080   56.3810 C   0  0  0  0  0  0  0  0  0  0  0  0
  128.9570  132.9820   55.7300 C   0  0  0  0  0  0  0  0  0  0  0  0
  131.2190  131.8810   55.5730 C   0  0  0  0  0  0  0  0  0  0  0  0
  132.3790  131.3520   56.1370 C   0  0  0  0  0  0  0  0  0  0  0  0
  132.5540  131.3390   57.5240 C   0  0  0  0  0  0  0  0  0  0  0  0
  133.8330  130.7560   58.1100 C   0  0  0  0  0  0  0  0  0  0  0  0
  131.5450  131.8650   58.3450 C   0  0  0  0  0  0  0  0  0  0  0  0
  131.6760  131.8710   59.7500 N   0  0  0  0  0  0  0  0  0  0  0  0
  130.7850  132.3470   60.6550 C   0  0  0  0  0  0  0  0  0  0  0  0
  131.0220  132.2750   61.8610 O   0  0  0  0  0  0  0  0  0  0  0  0
  123.7900  131.4820   58.8090 C   0  0  0  0  0  0  0  0  0  0  0  0
  124.1330  130.8270   57.6300 C   0  0  0  0  0  0  0  0  0  0  0  0
  1  2  1  0
  2  3  1  0
  3  4  2  0
  4  5  1  0
  5  6  2  0
  6  7  1  0
  7  8  1  0
  8  9  1  0
  9 10  2  0
 10 11  1  0
 11 12  2  0
 12 13  1  0
 13 14  1  0
 14 15  1  0
 15 16  1  0
 16 17  1  0
 17 18  1  0
 18 19  1  0
 19 20  1  0
 20 21  1  0
 21 22  1  0
 22 23  1  0
 14 24  1  0
 24 25  1  0
 25 26  2  0
 26 27  1  0
 27 28  2  0
 28 29  1  0
 28 30  1  0
 30 31  2  0
 31 32  1  0
 32 33  1  0
 32 34  2  0
 34 35  1  0
 35 36  1  0
 36 37  2  0
  6 38  1  0
 38 39  2  0
 39  3  1  0
 12  8  1  0
 23 18  1  0
 36 25  1  0
 34 27  1  0
M  END
>  <Binding energies>  (70) 
[-10.83]

>  <Ligand effiencies>  (70) 
[-0.27075]

>  <Interactions>  (70) 
["V-B:ASP:366:CG:8184, V-A:ASP:366:CG:3212, H-B:TYR:531:OH:9766, V-A:ASP:366:CB:3211, V-B:ASP:366:CB:8183, V-A:PRO:540:N:4884, V-A:GLU:543:CD:4908, V-B:LEU:475:CD1:9229, V-A:PRO:540:CB:4885, V-A:TYR:539:CD2:4874, V-A:ALA:541:CB:4892, H-A:ALA:541:N:4891, V-A:PRO:540:CA:4883, V-A:TYR:539:C:4867, H-B:GLY:454:N:9021, V-B:GLY:454:CA:9020, H-B:ARG:545:NH1:9898, H-B:ARG:545:NH2:9899, H-B:ARG:545:NE:9895, V-B:ILE:369:CG2:8208, V-A:TYR:539:CE2:4876, V-A:TYR:539:CZ:4877, V-B:ASP:366:CA:8181, V-B:ASP:366:C:8179, V-B:ARG:545:CZ:9897, V-A:TYR:531:CE2:4793, V-A:LEU:363:CD1:3188, V-A:TYR:531:CZ:4794, V-A:LEU:363:CA:3184, V-A:MET:535:CE:4835, H-A:TYR:539:OH:4878, V-B:ILE:369:CB:8207, V-A:TYR:539:CG:4872, V-A:ILE:538:CA:4860, V-A:TYR:539:CD1:4873, V-A:TYR:539:CE1:4875, V-A:ILE:538:CG2:4863, H-A:ASP:366:OD2:3214, V-A:PRO:540:C:4881, V-A:LEU:363:CB:3186"]

$$$$
RR15_Rahimova_2017
     RDKit          3D

 45 49  0  0  0  0  0  0  0  0999 V2000
  123.7320  129.6720   67.7200 C   0  0  0  0  0  0  0  0  0  0  0  0
  124.0890  130.4540   66.5850 O   0  0  0  0  0  0  0  0  0  0  0  0
  125.1040  130.0180   65.7500 C   0  0  0  0  0  0  0  0  0  0  0  0
  126.3740  129.6330   66.2060 C   0  0  0  0  0  0  0  0  0  0  0  0
  127.3520  129.2050   65.3110 C   0  0  0  0  0  0  0  0  0  0  0  0
  127.0920  129.1540   63.9380 C   0  0  0  0  0  0  0  0  0  0  0  0
  128.1500  128.6990   62.9700 C   0  0  0  0  0  0  0  0  0  0  0  0
  129.3330  128.2440   63.3580 N   0  0  0  0  0  0  0  0  0  0  0  0
  130.0220  127.9380   62.2030 N   0  0  0  0  0  0  0  0  0  0  0  0
  129.1470  128.2110   61.2340 N   0  0  0  0  0  0  0  0  0  0  0  0
  129.5230  128.1820   59.8210 C   0  0  0  0  0  0  0  0  0  0  0  0
  128.9520  129.3480   58.9750 C   0  0  0  0  0  0  0  0  0  0  0  0
  129.7380  130.1990   58.5520 O   0  0  0  0  0  0  0  0  0  0  0  0
  127.6140  129.3880   58.6930 N   0  0  0  0  0  0  0  0  0  0  0  0
  126.7600  128.1940   58.8490 C   0  0  0  0  0  0  0  0  0  0  0  0
  127.1450  127.0320   57.9090 C   0  0  0  0  0  0  0  0  0  0  0  0
  126.9420  125.6190   58.5060 C   0  0  0  0  0  0  0  0  0  0  0  0
  126.8790  124.5560   57.4980 N   0  0  0  0  0  0  0  0  0  0  0  0
  127.5520  123.3150   57.9110 C   0  0  0  0  0  0  0  0  0  0  0  0
  127.3830  122.2020   56.8540 C   0  0  0  0  0  0  0  0  0  0  0  0
  126.0020  121.9990   56.5710 O   0  0  0  0  0  0  0  0  0  0  0  0
  125.3720  123.1740   56.0720 C   0  0  0  0  0  0  0  0  0  0  0  0
  125.4830  124.3120   57.1100 C   0  0  0  0  0  0  0  0  0  0  0  0
  126.8740  130.6540   58.3990 C   0  0  2  0  0  0  0  0  0  0  0  0
  127.1710  131.2530   56.9890 C   0  0  0  0  0  0  0  0  0  0  0  0
  126.3680  131.1280   56.0640 O   0  0  0  0  0  0  0  0  0  0  0  0
  128.3240  131.9350   56.8780 N   0  0  0  0  0  0  0  0  0  0  0  0
  128.7620  132.6640   55.6930 C   0  0  0  0  0  0  0  0  0  0  0  0
  130.2570  133.0220   55.7810 C   0  0  2  0  0  0  0  0  0  0  0  0
  131.2310  131.8680   55.4840 C   0  0  0  0  0  0  0  0  0  0  0  0
  131.6970  131.4070   56.8440 C   0  0  0  0  0  0  0  0  0  0  0  0
  131.6980  132.7130   57.6190 C   0  0  0  0  0  0  0  0  0  0  0  0
  130.5100  133.3460   57.1550 O   0  0  0  0  0  0  0  0  0  0  0  0
  126.9350  131.6020   59.5910 C   0  0  0  0  0  0  0  0  0  0  0  0
  128.1100  132.3360   59.7900 C   0  0  0  0  0  0  0  0  0  0  0  0
  128.2240  133.2170   60.8620 C   0  0  0  0  0  0  0  0  0  0  0  0
  127.1580  133.3710   61.7450 C   0  0  0  0  0  0  0  0  0  0  0  0
  127.2680  134.2260   62.7860 F   0  0  0  0  0  0  0  0  0  0  0  0
  125.9810  132.6500   61.5620 C   0  0  0  0  0  0  0  0  0  0  0  0
  125.8700  131.7690   60.4900 C   0  0  0  0  0  0  0  0  0  0  0  0
  127.9870  128.7230   61.6610 N   0  0  0  0  0  0  0  0  0  0  0  0
  125.8220  129.5370   63.4860 C   0  0  0  0  0  0  0  0  0  0  0  0
  124.8240  129.9670   64.3770 C   0  0  0  0  0  0  0  0  0  0  0  0
  123.5550  130.3520   63.9800 O   0  0  0  0  0  0  0  0  0  0  0  0
  123.3520  130.8520   62.6630 C   0  0  0  0  0  0  0  0  0  0  0  0
  1  2  1  0
  2  3  1  0
  3  4  2  0
  4  5  1  0
  5  6  2  0
  6  7  1  0
  7  8  1  0
  8  9  2  0
  9 10  1  0
 10 11  1  0
 11 12  1  0
 12 13  2  0
 12 14  1  0
 14 15  1  0
 15 16  1  0
 16 17  1  0
 17 18  1  0
 18 19  1  0
 19 20  1  0
 20 21  1  0
 21 22  1  0
 22 23  1  0
 24 14  1  1
 24 25  1  0
 25 26  2  0
 25 27  1  0
 27 28  1  0
 29 28  1  1
 29 30  1  0
 30 31  1  0
 31 32  1  0
 32 33  1  0
 24 34  1  0
 34 35  2  0
 35 36  1  0
 36 37  2  0
 37 38  1  0
 37 39  1  0
 39 40  2  0
 10 41  1  0
  6 42  1  0
 42 43  2  0
 43 44  1  0
 44 45  1  0
 43  3  1  0
 41  7  2  0
 23 18  1  0
 33 29  1  0
 40 34  1  0
M  END
>  <Binding energies>  (71) 
[-8.79]

>  <Ligand effiencies>  (71) 
[-0.1910869565217391]

>  <Interactions>  (71) 
["V-B:TYR:539:CD2:9845, V-B:MET:535:CE:9806, V-B:ASP:366:CG:8184, V-B:TYR:539:CE2:9847, V-B:TYR:539:C:9838, V-B:PRO:540:N:9855, V-B:PRO:540:CA:9854, V-B:LEU:363:CD1:8160, V-B:TYR:539:CZ:9848, V-A:PRO:540:N:4884, V-B:LEU:475:CD1:9229, V-A:PRO:540:CB:4885, V-A:ALA:541:CB:4892, V-A:PRO:540:CA:4883, V-A:TYR:539:C:4867, V-B:ILE:369:CD1:8210, H-B:GLY:454:N:9021, V-B:GLU:543:CD:9879, V-B:HIS:456:CE1:9041, H-B:ARG:545:NH1:9898, H-B:ARG:545:NH2:9899, V-A:TYR:539:CE2:4876, V-A:TYR:539:CZ:4877, V-B:TYR:539:CA:9840, V-B:TYR:539:CD1:9844, V-B:TYR:539:CG:9843, V-B:TYR:539:CE1:9846, H-B:TYR:539:N:9841, V-B:ARG:545:CZ:9897, V-A:TYR:531:CE2:4793, V-A:LEU:363:CD1:3188, V-A:MET:535:CE:4835, H-A:TYR:539:OH:4878, H-B:TYR:484:OH:9319, H-B:ILE:455:N:9026, V-B:ARG:545:CG:9893, H-A:TYR:539:N:4870, V-A:ILE:538:CA:4860, V-A:TYR:539:CD1:4873, V-A:ILE:538:CB:4862, V-A:PRO:540:CD:4887, V-A:TYR:539:CE1:4875, V-A:ILE:538:C:4858, V-A:ILE:538:CG2:4863, V-B:ARG:545:CD:9894, V-B:GLY:453:CA:9015, V-B:ILE:455:C:9023, V-B:ARG:545:CB:9892"]

$$$$
RR17_Rahimova_2017
     RDKit          3D

 38 41  0  0  0  0  0  0  0  0999 V2000
  128.5840  129.9130   74.1310 C   0  0  0  0  0  0  0  0  0  0  0  0
  129.3880  128.6870   74.5750 C   0  0  0  0  0  0  0  0  0  0  0  0
  130.3710  128.4010   73.5840 O   0  0  0  0  0  0  0  0  0  0  0  0
  129.9680  128.1130   72.2940 C   0  0  0  0  0  0  0  0  0  0  0  0
  130.1550  129.1160   71.3440 C   0  0  0  0  0  0  0  0  0  0  0  0
  129.7790  128.9180   70.0200 C   0  0  0  0  0  0  0  0  0  0  0  0
  129.2030  127.7060   69.6150 C   0  0  0  0  0  0  0  0  0  0  0  0
  128.8080  127.5210   68.1790 C   0  0  0  0  0  0  0  0  0  0  0  0
  129.5230  126.9240   67.3680 O   0  0  0  0  0  0  0  0  0  0  0  0
  127.4580  128.1290   67.7380 C   0  0  0  0  0  0  0  0  0  0  0  0
  127.6390  129.8470   67.1400 S   0  0  0  0  0  0  0  0  0  0  0  0
  126.1870  129.9740   66.1340 C   0  0  0  0  0  0  0  0  0  0  0  0
  124.9710  129.6570   66.5120 N   0  0  0  0  0  0  0  0  0  0  0  0
  124.1150  129.9050   65.4450 N   0  0  0  0  0  0  0  0  0  0  0  0
  124.8470  130.3670   64.4630 C   0  0  0  0  0  0  0  0  0  0  0  0
  124.3060  130.7800   63.1030 C   0  0  0  0  0  0  0  0  0  0  0  0
  123.7540  132.1320   63.0730 N   0  0  0  0  0  0  0  0  0  0  0  0
  124.5050  133.2750   62.7450 C   0  0  0  0  0  0  0  0  0  0  0  0
  125.8040  133.0780   62.2780 C   0  0  0  0  0  0  0  0  0  0  0  0
  126.6040  134.1660   61.9400 C   0  0  0  0  0  0  0  0  0  0  0  0
  126.1100  135.4680   62.0610 C   0  0  0  0  0  0  0  0  0  0  0  0
  127.0030  136.6520   61.6920 C   0  0  0  0  0  0  0  0  0  0  0  0
  126.8590  137.0140   60.4150 F   0  0  0  0  0  0  0  0  0  0  0  0
  126.7150  137.7080   62.4540 F   0  0  0  0  0  0  0  0  0  0  0  0
  128.2780  136.3160   61.8900 F   0  0  0  0  0  0  0  0  0  0  0  0
  124.8040  135.6680   62.5220 C   0  0  0  0  0  0  0  0  0  0  0  0
  124.0050  134.5790   62.8590 C   0  0  0  0  0  0  0  0  0  0  0  0
  126.1760  130.4250   64.8300 N   0  0  0  0  0  0  0  0  0  0  0  0
  127.2620  130.8720   64.0610 C   0  0  0  0  0  0  0  0  0  0  0  0
  127.5560  130.2390   62.8540 C   0  0  0  0  0  0  0  0  0  0  0  0
  128.6350  130.6800   62.0930 C   0  0  0  0  0  0  0  0  0  0  0  0
  129.4220  131.7550   62.5380 C   0  0  0  0  0  0  0  0  0  0  0  0
  130.5090  132.2600   61.8510 O   0  0  0  0  0  0  0  0  0  0  0  0
  131.8030  131.7240   62.1070 C   0  0  0  0  0  0  0  0  0  0  0  0
  129.1140  132.3750   63.7500 C   0  0  0  0  0  0  0  0  0  0  0  0
  128.0350  131.9390   64.5160 C   0  0  0  0  0  0  0  0  0  0  0  0
  129.0160  126.6960   70.5710 C   0  0  0  0  0  0  0  0  0  0  0  0
  129.3940  126.8960   71.8960 C   0  0  0  0  0  0  0  0  0  0  0  0
  1  2  1  0
  2  3  1  0
  3  4  1  0
  4  5  2  0
  5  6  1  0
  6  7  2  0
  7  8  1  0
  8  9  2  0
  8 10  1  0
 10 11  1  0
 11 12  1  0
 12 13  2  0
 13 14  1  0
 14 15  2  0
 15 16  1  0
 16 17  1  0
 17 18  1  0
 18 19  2  0
 19 20  1  0
 20 21  2  0
 21 22  1  0
 22 23  1  0
 22 24  1  0
 22 25  1  0
 21 26  1  0
 26 27  2  0
 15 28  1  0
 28 29  1  0
 29 30  2  0
 30 31  1  0
 31 32  2  0
 32 33  1  0
 33 34  1  0
 32 35  1  0
 35 36  2  0
  7 37  1  0
 37 38  2  0
 38  4  1  0
 28 12  1  0
 36 29  1  0
 27 18  1  0
M  END
>  <Binding energies>  (72) 
[-8.54]

>  <Ligand effiencies>  (72) 
[-0.21897435897435896]

>  <Interactions>  (72) 
["V-A:GLU:543:CD:4908, V-B:PRO:482:CB:9297, V-B:LEU:475:CD1:9229, V-B:TRP:381:CH2:8343, V-A:GLU:543:CG:4907, V-A:TYR:539:CD2:4874, V-A:ALA:541:CB:4892, V-B:PRO:482:CG:9298, V-B:TRP:381:CZ2:8341, H-A:ALA:541:N:4891, V-A:ALA:541:CA:4890, V-A:TYR:539:C:4867, V-B:ILE:369:CD1:8210, H-A:LYS:547:NZ:4951, H-B:GLY:454:N:9021, V-B:GLU:543:CD:9879, V-B:HIS:456:CE1:9041, V-B:GLY:454:CA:9020, H-B:ARG:545:NH2:9899, H-B:ARG:545:NE:9895, V-A:GLU:543:CB:4906, V-A:HIS:456:CE1:4069, V-B:HIS:456:CD2:9039, V-A:GLU:543:C:4902, V-A:TYR:539:CE2:4876, V-B:ARG:545:CZ:9897, H-B:TYR:484:OH:9319, V-A:LYS:547:CE:4950, V-B:TRP:381:CE2:8338, V-A:TYR:539:CG:4872, V-B:TRP:381:CD2:8336, V-B:TRP:381:CZ3:8342, V-A:PRO:540:C:4881, V-B:TRP:381:CE3:8339, V-A:TYR:539:CB:4871"]

$$$$
RR19_Rahimova_2017
     RDKit          3D

 46 51  0  0  0  0  0  0  0  0999 V2000
  126.8130  129.2760   55.7540 O   0  0  0  0  0  0  0  0  0  0  0  0
  127.0210  129.2090   56.9680 C   0  0  0  0  0  0  0  0  0  0  0  0
  126.3680  129.9110   57.9300 N   0  0  0  0  0  0  0  0  0  0  0  0
  125.2260  130.6730   57.9180 C   0  0  0  0  0  0  0  0  0  0  0  0
  124.1130  130.7620   56.6460 S   0  0  0  0  0  0  0  0  0  0  0  0
  125.1390  131.3510   59.1090 N   0  0  0  0  0  0  0  0  0  0  0  0
  124.1660  132.1140   59.6690 C   0  0  0  0  0  0  0  0  0  0  0  0
  123.0040  132.2260   59.2710 O   0  0  0  0  0  0  0  0  0  0  0  0
  124.6320  132.9120   60.9130 C   0  0  2  0  0  0  0  0  0  0  0  0
  125.7280  133.9800   60.6300 C   0  0  0  0  0  0  0  0  0  0  0  0
  125.6520  135.2300   61.4920 C   0  0  0  0  0  0  0  0  0  0  0  0
  124.4770  135.5450   62.2090 C   0  0  0  0  0  0  0  0  0  0  0  0
  124.4530  136.6460   63.0540 C   0  0  0  0  0  0  0  0  0  0  0  0
  125.5880  137.4330   63.2120 C   0  0  0  0  0  0  0  0  0  0  0  0
  126.7600  137.1180   62.5360 C   0  0  0  0  0  0  0  0  0  0  0  0
  126.8050  136.0190   61.6890 C   0  0  0  0  0  0  0  0  0  0  0  0
  125.0290  132.0020   62.0220 N   0  0  0  0  0  0  0  0  0  0  0  0
  124.3900  132.0310   63.2260 C   0  0  0  0  0  0  0  0  0  0  0  0
  123.4720  132.7800   63.5660 O   0  0  0  0  0  0  0  0  0  0  0  0
  125.0280  130.9670   64.0390 C   0  0  0  0  0  0  0  0  0  0  0  0
  124.7870  130.5470   65.3480 C   0  0  0  0  0  0  0  0  0  0  0  0
  125.5500  129.4940   65.8650 C   0  0  0  0  0  0  0  0  0  0  0  0
  126.5320  128.8800   65.0760 C   0  0  0  0  0  0  0  0  0  0  0  0
  126.7580  129.3150   63.7660 C   0  0  0  0  0  0  0  0  0  0  0  0
  125.9880  130.3680   63.2690 C   0  0  0  0  0  0  0  0  0  0  0  0
  125.9880  131.0320   61.9420 C   0  0  0  0  0  0  0  0  0  0  0  0
  126.6980  130.7560   60.9740 O   0  0  0  0  0  0  0  0  0  0  0  0
  128.1300  128.2630   57.5040 C   0  0  2  0  0  0  0  0  0  0  0  0
  129.5640  128.6480   57.0400 C   0  0  0  0  0  0  0  0  0  0  0  0
  129.8390  130.1410   57.0590 C   0  0  0  0  0  0  0  0  0  0  0  0
  129.3930  130.9290   58.1420 C   0  0  0  0  0  0  0  0  0  0  0  0
  129.7330  132.2750   58.2070 C   0  0  0  0  0  0  0  0  0  0  0  0
  130.5330  132.8430   57.2250 C   0  0  0  0  0  0  0  0  0  0  0  0
  131.0120  132.0700   56.1740 C   0  0  0  0  0  0  0  0  0  0  0  0
  130.6830  130.7230   56.0900 C   0  0  0  0  0  0  0  0  0  0  0  0
  127.8450  126.8210   57.2590 N   0  0  0  0  0  0  0  0  0  0  0  0
  127.2970  126.0250   58.2190 C   0  0  0  0  0  0  0  0  0  0  0  0
  126.9890  126.3460   59.3680 O   0  0  0  0  0  0  0  0  0  0  0  0
  127.1490  124.6900   57.5870 C   0  0  0  0  0  0  0  0  0  0  0  0
  126.6530  123.4880   58.0950 C   0  0  0  0  0  0  0  0  0  0  0  0
  126.6290  122.3670   57.2580 C   0  0  0  0  0  0  0  0  0  0  0  0
  127.0930  122.4600   55.9390 C   0  0  0  0  0  0  0  0  0  0  0  0
  127.5850  123.6750   55.4480 C   0  0  0  0  0  0  0  0  0  0  0  0
  127.6020  124.7810   56.3000 C   0  0  0  0  0  0  0  0  0  0  0  0
  128.0520  126.1760   56.0720 C   0  0  0  0  0  0  0  0  0  0  0  0
  128.5140  126.6510   55.0340 O   0  0  0  0  0  0  0  0  0  0  0  0
  1  2  2  0
  2  3  1  0
  3  4  1  0
  4  5  2  0
  4  6  1  0
  6  7  1  0
  7  8  2  0
  7  9  1  0
  9 10  1  6
 10 11  1  0
 11 12  2  0
 12 13  1  0
 13 14  2  0
 14 15  1  0
 15 16  2  0
  9 17  1  0
 17 18  1  0
 18 19  2  0
 18 20  1  0
 20 21  2  0
 21 22  1  0
 22 23  2  0
 23 24  1  0
 24 25  2  0
 25 26  1  0
 26 27  2  0
  2 28  1  0
 28 29  1  6
 29 30  1  0
 30 31  2  0
 31 32  1  0
 32 33  2  0
 33 34  1  0
 34 35  2  0
 28 36  1  0
 36 37  1  0
 37 38  2  0
 37 39  1  0
 39 40  2  0
 40 41  1  0
 41 42  2  0
 42 43  1  0
 43 44  2  0
 44 45  1  0
 45 46  2  0
 16 11  1  0
 26 17  1  0
 35 30  1  0
 45 36  1  0
 25 20  1  0
 44 39  1  0
M  END
>  <Binding energies>  (73) 
[-11.59]

>  <Ligand effiencies>  (73) 
[-0.24145833333333333]

>  <Interactions>  (73) 
["V-B:MET:535:CE:9806, V-B:TYR:539:C:9838, V-B:PRO:540:CD:9858, V-B:PRO:540:N:9855, V-B:PRO:540:CB:9856, H-B:TYR:531:OH:9766, V-B:PRO:540:CA:9854, V-B:TYR:539:CZ:9848, V-B:TYR:531:CZ:9765, V-B:ASP:366:CB:8183, V-A:PRO:540:N:4884, V-B:PRO:482:CB:9297, V-B:LEU:475:CD1:9229, V-B:TRP:381:CH2:8343, V-A:TYR:539:CD2:4874, V-B:PRO:482:CG:9298, V-B:TRP:381:CZ2:8341, V-A:PRO:540:CA:4883, V-A:TYR:539:C:4867, H-B:GLY:454:N:9021, V-B:GLU:543:CD:9879, V-B:GLY:454:CA:9020, V-B:ILE:369:CG2:8208, V-A:TYR:539:CE2:4876, V-B:ASP:366:C:8179, V-B:TYR:539:CD1:9844, V-B:TYR:539:CG:9843, V-B:TYR:539:CE1:9846, V-B:ARG:545:CZ:9897, V-A:TYR:531:CZ:4794, V-A:MET:535:CE:4835, V-B:ASN:370:CB:8216, V-B:TYR:531:CE1:9763, V-B:ILE:369:CB:8207, V-B:SER:385:CB:8380, V-B:LEU:475:CB:9227, V-B:SER:385:CA:8378, V-B:TRP:381:CE2:8338"]

$$$$
RR1_Rahimova_2017
     RDKit          3D

 41 44  0  0  0  0  0  0  0  0999 V2000
  126.6120  122.4700   54.9010 C   0  0  0  0  0  0  0  0  0  0  0  0
  126.0510  121.9940   56.1200 O   0  0  0  0  0  0  0  0  0  0  0  0
  126.4820  122.5330   57.3160 C   0  0  0  0  0  0  0  0  0  0  0  0
  127.7510  122.3090   57.8740 C   0  0  0  0  0  0  0  0  0  0  0  0
  128.0950  122.8900   59.0910 C   0  0  0  0  0  0  0  0  0  0  0  0
  127.1850  123.7060   59.7670 C   0  0  0  0  0  0  0  0  0  0  0  0
  127.6100  124.2090   61.0110 N   0  0  0  0  0  0  0  0  0  0  0  0
  128.5410  125.1480   61.2810 C   0  0  0  0  0  0  0  0  0  0  0  0
  129.2520  125.6940   60.4380 O   0  0  0  0  0  0  0  0  0  0  0  0
  128.6720  125.5100   62.7700 C   0  0  0  0  0  0  0  0  0  0  0  0
  129.9520  126.7520   63.1650 S   0  0  0  0  0  0  0  0  0  0  0  0
  129.3210  127.2580   64.7300 C   0  0  0  0  0  0  0  0  0  0  0  0
  129.7380  126.7880   65.8780 N   0  0  0  0  0  0  0  0  0  0  0  0
  129.0100  127.4460   66.7740 C   0  0  0  0  0  0  0  0  0  0  0  0
  129.1670  127.2300   68.2530 C   0  0  0  0  0  0  0  0  0  0  0  0
  130.0630  127.9950   69.0160 C   0  0  0  0  0  0  0  0  0  0  0  0
  130.1900  127.7700   70.3880 C   0  0  0  0  0  0  0  0  0  0  0  0
  129.4090  126.7740   70.9720 C   0  0  0  0  0  0  0  0  0  0  0  0
  128.5340  126.0150   70.2650 N   0  0  0  0  0  0  0  0  0  0  0  0
  128.4250  126.2510   68.9330 C   0  0  0  0  0  0  0  0  0  0  0  0
  128.1420  128.3070   66.2760 N   0  0  0  0  0  0  0  0  0  0  0  0
  128.3400  128.1870   64.9600 N   0  0  0  0  0  0  0  0  0  0  0  0
  127.5770  129.0040   64.0160 C   0  0  0  0  0  0  0  0  0  0  0  0
  128.2350  129.1900   62.6380 C   0  0  0  0  0  0  0  0  0  0  0  0
  127.7360  128.6860   61.6260 O   0  0  0  0  0  0  0  0  0  0  0  0
  129.3650  129.9230   62.6420 N   0  0  0  0  0  0  0  0  0  0  0  0
  129.9320  130.2560   61.4200 N   0  0  0  0  0  0  0  0  0  0  0  0
  130.4250  131.5050   61.2730 C   0  0  0  0  0  0  0  0  0  0  0  0
  130.4950  132.3340   62.1870 O   0  0  0  0  0  0  0  0  0  0  0  0
  130.9330  131.8510   59.8880 C   0  0  0  0  0  0  0  0  0  0  0  0
  132.2240  131.4710   59.5030 C   0  0  0  0  0  0  0  0  0  0  0  0
  132.7150  131.7890   58.2410 C   0  0  0  0  0  0  0  0  0  0  0  0
  131.9300  132.5060   57.3240 C   0  0  0  0  0  0  0  0  0  0  0  0
  132.3630  132.8650   56.0600 O   0  0  0  0  0  0  0  0  0  0  0  0
  132.3260  131.9080   55.0080 C   0  0  0  0  0  0  0  0  0  0  0  0
  130.6370  132.9020   57.6930 C   0  0  0  0  0  0  0  0  0  0  0  0
  129.9120  133.6240   56.7600 O   0  0  0  0  0  0  0  0  0  0  0  0
  129.0690  132.9390   55.8410 C   0  0  0  0  0  0  0  0  0  0  0  0
  130.1500  132.5680   58.9700 C   0  0  0  0  0  0  0  0  0  0  0  0
  125.9160  123.9320   59.2120 C   0  0  0  0  0  0  0  0  0  0  0  0
  125.5770  123.3500   57.9940 C   0  0  0  0  0  0  0  0  0  0  0  0
  1  2  1  0
  2  3  1  0
  3  4  2  0
  4  5  1  0
  5  6  2  0
  6  7  1  0
  7  8  1  0
  8  9  2  0
  8 10  1  0
 10 11  1  0
 11 12  1  0
 12 13  2  0
 13 14  1  0
 14 15  1  0
 15 16  2  0
 16 17  1  0
 17 18  2  0
 18 19  1  0
 19 20  2  0
 14 21  2  0
 21 22  1  0
 22 23  1  0
 23 24  1  0
 24 25  2  0
 24 26  1  0
 26 27  1  0
 27 28  1  0
 28 29  2  0
 28 30  1  0
 30 31  2  0
 31 32  1  0
 32 33  2  0
 33 34  1  0
 34 35  1  0
 33 36  1  0
 36 37  1  0
 37 38  1  0
 36 39  2  0
  6 40  1  0
 40 41  2  0
 41  3  1  0
 22 12  1  0
 39 30  1  0
 20 15  1  0
M  END
>  <Binding energies>  (74) 
[-9.52]

>  <Ligand effiencies>  (74) 
[-0.21636363636363634]

>  <Interactions>  (74) 
["V-B:TYR:539:CD2:9845, V-B:MET:535:CE:9806, V-B:TYR:539:CE2:9847, V-B:TYR:539:C:9838, V-B:PRO:540:CD:9858, V-B:PRO:540:N:9855, V-B:PRO:540:CB:9856, V-B:PRO:540:CA:9854, V-B:TYR:539:CZ:9848, H-B:GLU:543:OE2:9881, V-A:PRO:540:N:4884, V-A:GLU:543:CD:4908, H-A:GLU:543:OE1:4909, V-A:GLU:543:CG:4907, V-A:PRO:540:CB:4885, H-A:ALA:541:N:4891, V-A:PRO:540:CA:4883, V-A:TYR:539:C:4867, V-B:GLU:543:CD:9879, V-B:HIS:456:CE1:9041, V-A:GLU:543:CB:4906, V-A:HIS:456:CE1:4069, V-B:GLU:543:CB:9877, V-A:TYR:539:CZ:4877, V-B:TYR:539:CD1:9844, V-B:TYR:539:CG:9843, V-B:TYR:539:CE1:9846, H-B:TYR:539:N:9841, V-A:TYR:531:CE2:4793, V-A:LEU:363:CD1:3188, V-A:MET:535:CE:4835, H-A:TYR:539:N:4870, V-A:TYR:539:CG:4872, V-A:ILE:538:CA:4860, V-A:TYR:539:CD1:4873, V-A:ILE:538:CB:4862, V-A:PRO:540:CD:4887, V-A:TYR:539:CE1:4875, V-A:ILE:538:CG2:4863, V-B:ILE:538:CA:9831, V-B:ILE:538:CD1:9836, V-A:MET:535:CG:4833"]

$$$$
RR22_Rahimova_2017
     RDKit          3D

 31 36  0  0  0  0  0  0  0  0999 V2000
  129.2710  133.7520   55.3570 O   0  0  0  0  0  0  0  0  0  0  0  0
  129.2980  133.0000   56.3280 C   0  0  0  0  0  0  0  0  0  0  0  0
  130.0700  133.1250   57.4700 N   0  0  0  0  0  0  0  0  0  0  0  0
  129.9370  132.1880   58.5450 C   0  0  1  0  0  0  0  0  0  0  0  0
  131.2550  131.6720   58.7570 O   0  0  0  0  0  0  0  0  0  0  0  0
  131.8410  131.8480   60.0110 C   0  0  0  0  0  0  0  0  0  0  0  0
  133.2240  131.6760   60.0800 C   0  0  0  0  0  0  0  0  0  0  0  0
  133.8760  131.7950   61.3070 C   0  0  0  0  0  0  0  0  0  0  0  0
  133.1460  132.0770   62.4620 C   0  0  0  0  0  0  0  0  0  0  0  0
  131.7620  132.2480   62.3930 C   0  0  0  0  0  0  0  0  0  0  0  0
  131.0980  132.1560   61.1660 C   0  0  0  0  0  0  0  0  0  0  0  0
  129.6010  132.2820   60.9910 C   0  0  1  0  0  0  0  0  0  0  0  0
  128.7510  133.1750   61.8710 C   0  0  0  0  0  0  0  0  0  0  0  0
  127.6410  133.5400   60.8800 C   0  0  0  0  0  0  0  0  0  0  0  0
  126.3360  134.0810   61.3070 C   0  0  0  0  0  0  0  0  0  0  0  0
  125.2050  133.2540   61.3640 C   0  0  0  0  0  0  0  0  0  0  0  0
  123.9760  133.7690   61.7690 C   0  0  0  0  0  0  0  0  0  0  0  0
  123.8710  135.1120   62.1180 C   0  0  0  0  0  0  0  0  0  0  0  0
  124.9840  135.9470   62.0670 C   0  0  0  0  0  0  0  0  0  0  0  0
  126.2140  135.4330   61.6640 C   0  0  0  0  0  0  0  0  0  0  0  0
  128.0150  133.3350   59.6730 N   0  0  0  0  0  0  0  0  0  0  0  0
  129.3360  132.8580   59.7080 N   0  0  0  0  0  0  0  0  0  0  0  0
  129.0880  131.0410   58.0190 C   0  0  0  0  0  0  0  0  0  0  0  0
  129.0320  129.8290   58.6200 C   0  0  0  0  0  0  0  0  0  0  0  0
  128.2410  128.6450   58.2320 C   0  0  0  0  0  0  0  0  0  0  0  0
  127.1410  128.1830   58.9680 C   0  0  0  0  0  0  0  0  0  0  0  0
  126.4400  127.0540   58.5390 C   0  0  0  0  0  0  0  0  0  0  0  0
  126.8660  126.4080   57.3790 C   0  0  0  0  0  0  0  0  0  0  0  0
  127.9310  126.8280   56.6520 N   0  0  0  0  0  0  0  0  0  0  0  0
  128.5990  127.9280   57.0840 C   0  0  0  0  0  0  0  0  0  0  0  0
  128.2980  131.4920   56.5010 S   0  0  0  0  0  0  0  0  0  0  0  0
  1  2  2  0
  2  3  1  0
  4  3  1  6
  4  5  1  0
  5  6  1  0
  6  7  2  0
  7  8  1  0
  8  9  2  0
  9 10  1  0
 10 11  2  0
 11 12  1  0
 12 13  1  1
 13 14  1  0
 14 15  1  0
 15 16  2  0
 16 17  1  0
 17 18  2  0
 18 19  1  0
 19 20  2  0
 14 21  2  0
 21 22  1  0
  4 23  1  0
 23 24  2  0
 24 25  1  0
 25 26  2  0
 26 27  1  0
 27 28  2  0
 28 29  1  0
 29 30  2  0
 23 31  1  0
 31  2  1  0
 22  4  1  0
 30 25  1  0
 11  6  1  0
 22 12  1  0
 20 15  1  0
M  END
>  <Binding energies>  (75) 
[-8.98]

>  <Ligand effiencies>  (75) 
[-0.280625]

>  <Interactions>  (75) 
["V-A:ASP:366:CG:3212, H-B:TYR:531:OH:9766, V-A:PRO:540:N:4884, V-B:LEU:475:CD1:9229, V-B:TRP:381:CH2:8343, V-A:PRO:540:CB:4885, V-A:TYR:539:CD2:4874, V-A:ALA:541:CB:4892, V-B:TRP:381:CZ2:8341, V-A:ALA:541:CA:4890, V-A:PRO:540:CA:4883, V-A:TYR:539:C:4867, V-B:ILE:369:CD1:8210, V-B:ILE:369:CG2:8208, V-A:TYR:539:CE2:4876, V-A:TYR:539:CZ:4877, V-A:MET:535:CE:4835, H-A:TYR:539:O:4868, H-A:TYR:539:N:4870, V-A:TYR:539:CA:4869, V-A:TYR:539:CG:4872, V-A:TYR:539:CD1:4873, V-A:TYR:539:CE1:4875, V-A:PRO:540:C:4881, V-A:ALA:541:C:4888, V-A:ASN:362:CA:3173, V-A:ASN:362:C:3171, V-A:ASN:362:CB:3175"]

$$$$
RR24_Rahimova_2017
     RDKit          3D

 43 49  0  0  0  0  0  0  0  0999 V2000
  133.6250  122.4840   62.8800 C   0  0  0  0  0  0  0  0  0  0  0  0
  133.1860  123.7590   62.1470 C   0  0  2  0  0  0  0  0  0  0  0  0
  133.2640  125.0360   63.0340 C   0  0  0  0  0  0  0  0  0  0  0  0
  134.0060  125.1060   64.0190 O   0  0  0  0  0  0  0  0  0  0  0  0
  132.4150  126.0190   62.6120 O   0  0  0  0  0  0  0  0  0  0  0  0
  131.3930  126.4350   63.4360 C   0  0  0  0  0  0  0  0  0  0  0  0
  130.6500  127.5650   63.0870 C   0  0  0  0  0  0  0  0  0  0  0  0
  129.6080  127.9890   63.9070 C   0  0  0  0  0  0  0  0  0  0  0  0
  129.2990  127.2820   65.0730 C   0  0  0  0  0  0  0  0  0  0  0  0
  128.1630  127.7650   65.9820 C   0  0  1  0  0  0  0  0  0  0  0  0
  128.6440  127.9980   67.4330 C   0  0  0  0  0  0  0  0  0  0  0  0
  128.4080  129.1410   68.1040 C   0  0  0  0  0  0  0  0  0  0  0  0
  127.7210  130.1900   67.5440 N   0  0  0  0  0  0  0  0  0  0  0  0
  127.2380  130.1230   66.2590 C   0  0  0  0  0  0  0  0  0  0  0  0
  126.5750  131.2380   65.8590 N   0  0  0  0  0  0  0  0  0  0  0  0
  126.0950  131.3860   64.5940 C   0  0  0  0  0  0  0  0  0  0  0  0
  125.7940  132.5110   64.1920 O   0  0  0  0  0  0  0  0  0  0  0  0
  126.1570  130.2330   63.8280 N   0  0  0  0  0  0  0  0  0  0  0  0
  125.5660  130.3130   62.4760 C   0  0  0  0  0  0  0  0  0  0  0  0
  126.8060  129.0490   64.1340 C   0  0  0  0  0  0  0  0  0  0  0  0
  126.8650  128.0750   63.3770 O   0  0  0  0  0  0  0  0  0  0  0  0
  127.4120  129.0300   65.4700 C   0  0  0  0  0  0  0  0  0  0  0  0
  128.9730  129.0810   69.4420 C   0  0  0  0  0  0  0  0  0  0  0  0
  129.0040  129.9880   70.5020 C   0  0  0  0  0  0  0  0  0  0  0  0
  129.6430  129.6250   71.6910 C   0  0  0  0  0  0  0  0  0  0  0  0
  130.2400  128.3660   71.8130 C   0  0  0  0  0  0  0  0  0  0  0  0
  130.2050  127.4630   70.7470 C   0  0  0  0  0  0  0  0  0  0  0  0
  129.5680  127.8320   69.5620 C   0  0  0  0  0  0  0  0  0  0  0  0
  129.3820  127.0850   68.3000 C   0  0  0  0  0  0  0  0  0  0  0  0
  129.7470  125.9510   67.9960 O   0  0  0  0  0  0  0  0  0  0  0  0
  130.0340  126.1390   65.4090 C   0  0  0  0  0  0  0  0  0  0  0  0
  131.0750  125.7140   64.5890 C   0  0  0  0  0  0  0  0  0  0  0  0
  131.8510  123.6010   61.4960 N   0  0  0  0  0  0  0  0  0  0  0  0
  130.7630  123.1710   62.1950 C   0  0  0  0  0  0  0  0  0  0  0  0
  130.7150  122.8610   63.3870 O   0  0  0  0  0  0  0  0  0  0  0  0
  129.6470  123.1560   61.2180 C   0  0  0  0  0  0  0  0  0  0  0  0
  128.3050  122.8030   61.3700 C   0  0  0  0  0  0  0  0  0  0  0  0
  127.4610  122.8900   60.2570 C   0  0  0  0  0  0  0  0  0  0  0  0
  127.9610  123.3240   59.0230 C   0  0  0  0  0  0  0  0  0  0  0  0
  129.3090  123.6740   58.8910 C   0  0  0  0  0  0  0  0  0  0  0  0
  130.1350  123.5800   60.0120 C   0  0  0  0  0  0  0  0  0  0  0  0
  131.5790  123.8780   60.1840 C   0  0  0  0  0  0  0  0  0  0  0  0
  132.3620  124.2910   59.3280 O   0  0  0  0  0  0  0  0  0  0  0  0
  2  1  1  1
  2  3  1  0
  3  4  2  0
  3  5  1  0
  5  6  1  0
  6  7  2  0
  7  8  1  0
  8  9  2  0
 10  9  1  6
 10 11  1  0
 11 12  2  0
 12 13  1  0
 13 14  1  0
 14 15  1  0
 15 16  1  0
 16 17  2  0
 16 18  1  0
 18 19  1  0
 18 20  1  0
 20 21  2  0
 20 22  1  0
 12 23  1  0
 23 24  2  0
 24 25  1  0
 25 26  2  0
 26 27  1  0
 27 28  2  0
 28 29  1  0
 29 30  2  0
  9 31  1  0
 31 32  2  0
  2 33  1  0
 33 34  1  0
 34 35  2  0
 34 36  1  0
 36 37  2  0
 37 38  1  0
 38 39  2  0
 39 40  1  0
 40 41  2  0
 41 42  1  0
 42 43  2  0
 32  6  1  0
 42 33  1  0
 22 10  1  0
 28 23  1  0
 41 36  1  0
 29 11  1  0
 22 14  2  0
M  END
>  <Binding energies>  (76) 
[-10.1]

>  <Ligand effiencies>  (76) 
[-0.22444444444444445]

>  <Interactions>  (76) 
["V-B:TYR:539:CD2:9845, V-B:TYR:539:CE2:9847, V-B:PRO:540:CA:9854, V-B:TYR:539:CZ:9848, V-A:GLU:543:CD:4908, V-B:LEU:475:CD1:9229, V-A:GLU:543:CG:4907, V-B:GLU:543:CD:9879, V-B:HIS:456:CE1:9041, H-B:ARG:545:NH2:9899, V-A:GLU:543:CB:4906, V-A:HIS:456:CE1:4069, V-A:LEU:475:CD2:4258, H-B:TYR:539:OH:9849, V-A:GLU:543:C:4902, V-B:TYR:484:CE1:9316, H-A:ARG:545:NH2:4928, V-A:ILE:369:CD1:3238, V-A:GLY:454:CA:4048, V-A:ARG:545:CZ:4926, V-B:ALA:541:CB:9863, V-B:PRO:540:C:9852, V-B:TYR:484:CZ:9318, H-A:ARG:545:NH1:4927, H-A:GLY:454:N:4049, H-B:TYR:484:OH:9319, V-A:GLU:543:CA:4904"]

$$$$
RR25_Rahimova_2017
     RDKit          3D

 39 44  0  0  0  0  0  0  0  0999 V2000
  124.8510  129.6120   67.6850 O   0  0  0  0  0  0  0  0  0  0  0  0
  125.8090  129.2020   67.0280 C   0  0  0  0  0  0  0  0  0  0  0  0
  126.9090  128.8000   67.7450 O   0  0  0  0  0  0  0  0  0  0  0  0
  127.9400  128.0950   67.1510 C   0  0  0  0  0  0  0  0  0  0  0  0
  128.6990  127.2730   67.9830 C   0  0  0  0  0  0  0  0  0  0  0  0
  129.7580  126.5410   67.4520 C   0  0  0  0  0  0  0  0  0  0  0  0
  130.0770  126.6220   66.0890 C   0  0  0  0  0  0  0  0  0  0  0  0
  131.2010  125.8350   65.5250 N   0  0  0  0  0  0  0  0  0  0  0  0
  131.0310  125.2480   64.4590 O   0  0  0  0  0  0  0  0  0  0  0  0
  132.2610  125.7990   66.1430 O   0  0  0  0  0  0  0  0  0  0  0  0
  129.3080  127.4660   65.2710 C   0  0  0  0  0  0  0  0  0  0  0  0
  128.2470  128.2130   65.7880 C   0  0  0  0  0  0  0  0  0  0  0  0
  127.3810  129.1300   64.9440 C   0  0  0  0  0  0  0  0  0  0  0  0
  125.9200  129.1090   65.4780 C   0  0  2  0  0  0  0  0  0  0  0  0
  125.0230  130.1130   64.6980 C   0  0  0  0  0  0  0  0  0  0  0  0
  124.2370  130.7790   65.3780 O   0  0  0  0  0  0  0  0  0  0  0  0
  125.1810  130.3420   63.3600 N   0  0  0  0  0  0  0  0  0  0  0  0
  125.8600  129.3860   62.4590 C   0  0  0  0  0  0  0  0  0  0  0  0
  126.6620  130.1760   61.4030 C   0  0  0  0  0  0  0  0  0  0  0  0
  125.8080  131.1270   60.6840 N   0  0  0  0  0  0  0  0  0  0  0  0
  126.5370  131.7830   59.5900 C   0  0  0  0  0  0  0  0  0  0  0  0
  127.5450  132.8500   60.0930 C   0  0  0  0  0  0  0  0  0  0  0  0
  128.9890  132.5430   59.8750 N   0  0  0  0  0  0  0  0  0  0  0  0
  129.7810  132.6010   61.0020 C   0  0  0  0  0  0  0  0  0  0  0  0
  129.3490  132.9200   62.1160 O   0  0  0  0  0  0  0  0  0  0  0  0
  131.2320  132.2220   60.7750 C   0  0  0  0  0  0  0  0  0  0  0  0
  132.1200  132.2220   61.8590 C   0  0  0  0  0  0  0  0  0  0  0  0
  133.4580  131.8720   61.6880 C   0  0  0  0  0  0  0  0  0  0  0  0
  133.9490  131.5080   60.4350 C   0  0  0  0  0  0  0  0  0  0  0  0
  133.0890  131.4940   59.3110 C   0  0  0  0  0  0  0  0  0  0  0  0
  133.5200  131.1330   58.0130 C   0  0  0  0  0  0  0  0  0  0  0  0
  132.6190  131.1370   56.9490 C   0  0  0  0  0  0  0  0  0  0  0  0
  131.2860  131.4940   57.1420 C   0  0  0  0  0  0  0  0  0  0  0  0
  130.8140  131.8580   58.4100 C   0  0  0  0  0  0  0  0  0  0  0  0
  131.7250  131.8550   59.4970 C   0  0  0  0  0  0  0  0  0  0  0  0
  129.3540  132.2320   58.5810 C   0  0  0  0  0  0  0  0  0  0  0  0
  128.5630  132.2360   57.6320 O   0  0  0  0  0  0  0  0  0  0  0  0
  125.2500  132.1010   61.6230 C   0  0  0  0  0  0  0  0  0  0  0  0
  124.3930  131.4170   62.7150 C   0  0  0  0  0  0  0  0  0  0  0  0
  1  2  2  0
  2  3  1  0
  3  4  1  0
  4  5  2  0
  5  6  1  0
  6  7  2  0
  7  8  1  0
  8  9  2  0
  8 10  1  0
  7 11  1  0
 11 12  2  0
 12 13  1  0
 13 14  1  0
 14 15  1  6
 15 16  2  0
 15 17  1  0
 17 18  1  0
 18 19  1  0
 19 20  1  0
 20 21  1  0
 21 22  1  0
 22 23  1  0
 23 24  1  0
 24 25  2  0
 24 26  1  0
 26 27  2  0
 27 28  1  0
 28 29  2  0
 29 30  1  0
 30 31  2  0
 31 32  1  0
 32 33  2  0
 33 34  1  0
 34 35  2  0
 34 36  1  0
 36 37  2  0
 20 38  1  0
 38 39  1  0
 14  2  1  0
 39 17  1  0
 12  4  1  0
 36 23  1  0
 35 26  1  0
 35 30  1  0
M  CHG  2   8   1  10  -1
M  END
>  <Binding energies>  (77) 
[-10.67]

>  <Ligand effiencies>  (77) 
[-0.2735897435897436]

>  <Interactions>  (77) 
["V-B:ASP:366:CG:8184, V-A:ASP:366:CG:3212, V-A:ASP:366:CB:3211, V-A:GLU:543:CD:4908, V-A:GLU:543:CG:4907, V-A:PRO:540:CB:4885, V-A:TYR:539:CD2:4874, H-A:ALA:541:N:4891, V-A:ALA:541:CA:4890, V-A:PRO:540:CA:4883, H-B:GLY:454:N:9021, V-B:GLU:543:CD:9879, V-B:HIS:456:CE1:9041, V-A:HIS:456:CE1:4069, H-A:TYR:484:OH:4347, V-A:TYR:539:CE2:4876, H-A:ARG:545:NE:4924, V-B:ARG:545:CZ:9897, V-A:TYR:531:CE2:4793, V-A:LEU:363:CD1:3188, V-A:TYR:531:CZ:4794, V-A:LEU:363:CA:3184, H-B:TYR:484:OH:9319, H-B:HIS:456:ND1:9038, V-A:PRO:540:C:4881, V-A:ASN:362:C:3171, V-A:ASN:362:CB:3175"]

$$$$
RR27_Rahimova_2017
     RDKit          3D

 39 44  0  0  0  0  0  0  0  0999 V2000
  129.5770  124.9760   57.4350 O   0  0  0  0  0  0  0  0  0  0  0  0
  129.1420  125.1610   58.5760 C   0  0  0  0  0  0  0  0  0  0  0  0
  128.3090  124.0260   59.2410 C   0  0  0  0  0  0  0  0  0  0  0  0
  129.1810  122.9520   59.9170 C   0  0  0  0  0  0  0  0  0  0  0  0
  128.6370  121.7510   60.3990 C   0  0  0  0  0  0  0  0  0  0  0  0
  129.4550  120.8010   61.0020 C   0  0  0  0  0  0  0  0  0  0  0  0
  130.8190  121.0450   61.1270 C   0  0  0  0  0  0  0  0  0  0  0  0
  131.3730  122.2320   60.6570 C   0  0  0  0  0  0  0  0  0  0  0  0
  130.5550  123.1830   60.0530 C   0  0  0  0  0  0  0  0  0  0  0  0
  127.2260  123.4800   58.2920 C   0  0  0  0  0  0  0  0  0  0  0  0
  127.5430  122.6330   57.2220 C   0  0  0  0  0  0  0  0  0  0  0  0
  126.5400  122.1660   56.3750 C   0  0  0  0  0  0  0  0  0  0  0  0
  125.2200  122.5490   56.5910 C   0  0  0  0  0  0  0  0  0  0  0  0
  124.8920  123.4000   57.6440 C   0  0  0  0  0  0  0  0  0  0  0  0
  125.8940  123.8660   58.4880 C   0  0  0  0  0  0  0  0  0  0  0  0
  129.4980  126.2540   59.3080 N   0  0  0  0  0  0  0  0  0  0  0  0
  128.8230  126.6520   60.5530 C   0  0  0  0  0  0  0  0  0  0  0  0
  127.6300  127.5460   60.1490 C   0  0  0  0  0  0  0  0  0  0  0  0
  128.0580  128.7610   59.2660 C   0  0  0  0  0  0  0  0  0  0  0  0
  126.8930  129.6210   58.7430 C   0  0  0  0  0  0  0  0  0  0  0  0
  126.7310  129.6650   57.3880 N   0  0  0  0  0  0  0  0  0  0  0  0
  125.6990  130.3900   56.8740 C   0  0  0  0  0  0  0  0  0  0  0  0
  125.4330  130.5070   55.5350 O   0  0  0  0  0  0  0  0  0  0  0  0
  124.8410  131.0670   57.7620 C   0  0  0  0  0  0  0  0  0  0  0  0
  123.7400  131.8540   57.5910 N   0  0  0  0  0  0  0  0  0  0  0  0
  123.3170  132.2470   58.8460 N   0  0  0  0  0  0  0  0  0  0  0  0
  124.1360  131.7050   59.7720 N   0  0  0  0  0  0  0  0  0  0  0  0
  123.9330  131.9770   61.1930 C   0  0  0  0  0  0  0  0  0  0  0  0
  125.0650  132.7710   61.8320 C   0  0  0  0  0  0  0  0  0  0  0  0
  125.8290  132.2050   62.8570 C   0  0  0  0  0  0  0  0  0  0  0  0
  126.8740  132.9280   63.4350 C   0  0  0  0  0  0  0  0  0  0  0  0
  127.1620  134.2170   62.9880 C   0  0  0  0  0  0  0  0  0  0  0  0
  126.4090  134.7840   61.9590 C   0  0  0  0  0  0  0  0  0  0  0  0
  126.7810  136.3700   61.3860 Cl  0  0  0  0  0  0  0  0  0  0  0  0
  125.3600  134.0640   61.3860 C   0  0  0  0  0  0  0  0  0  0  0  0
  125.1160  130.9560   59.1420 C   0  0  0  0  0  0  0  0  0  0  0  0
  126.1250  130.2590   59.6720 N   0  0  0  0  0  0  0  0  0  0  0  0
  129.0670  128.3440   58.1520 C   0  0  0  0  0  0  0  0  0  0  0  0
  130.1760  127.3880   58.6610 C   0  0  0  0  0  0  0  0  0  0  0  0
  1  2  2  0
  2  3  1  0
  3  4  1  0
  4  5  2  0
  5  6  1  0
  6  7  2  0
  7  8  1  0
  8  9  2  0
  3 10  1  0
 10 11  2  0
 11 12  1  0
 12 13  2  0
 13 14  1  0
 14 15  2  0
  2 16  1  0
 16 17  1  0
 17 18  1  0
 18 19  1  0
 19 20  1  0
 20 21  2  0
 21 22  1  0
 22 23  1  0
 22 24  2  0
 24 25  1  0
 25 26  2  0
 26 27  1  0
 27 28  1  0
 28 29  1  0
 29 30  2  0
 30 31  1  0
 31 32  2  0
 32 33  1  0
 33 34  1  0
 33 35  2  0
 27 36  1  0
 36 37  2  0
 19 38  1  0
 38 39  1  0
  9  4  1  0
 15 10  1  0
 39 16  1  0
 37 20  1  0
 36 24  1  0
 35 29  1  0
M  END
>  <Binding energies>  (78) 
[-10.78]

>  <Ligand effiencies>  (78) 
[-0.26949999999999996]

>  <Interactions>  (78) 
["V-B:TYR:539:CD2:9845, V-B:ASP:366:CG:8184, V-B:TYR:539:CE2:9847, V-B:TYR:539:C:9838, V-B:PRO:540:CD:9858, V-B:PRO:540:N:9855, V-A:ILE:369:CG2:3236, V-B:PRO:540:CB:9856, H-B:TYR:531:OH:9766, V-B:PRO:540:CA:9854, V-B:LEU:363:CD1:8160, V-B:TYR:539:CZ:9848, V-B:ASP:366:CB:8183, V-B:LEU:475:CD1:9229, V-B:TRP:381:CH2:8343, V-A:TYR:539:CD2:4874, V-A:ALA:541:CB:4892, V-B:TRP:381:CZ2:8341, V-B:ILE:369:CD1:8210, V-A:LEU:475:CD2:4258, H-B:TYR:539:OH:9849, V-B:ILE:369:CG2:8208, V-A:TYR:539:CE2:4876, V-A:TYR:539:CZ:4877, V-B:TYR:539:CA:9840, V-B:TYR:539:CD1:9844, V-B:TYR:539:CG:9843, V-B:TYR:539:CE1:9846, V-B:ALA:541:CB:9863, V-B:PRO:540:C:9852, V-B:ALA:541:CA:9861, H-A:TYR:539:OH:4878, V-B:TYR:531:CE1:9763, V-B:TRP:381:CZ3:8342, H-B:ASN:370:N:8215, H-B:ASN:370:ND2:8219"]

$$$$
RR28_Rahimova_2017
     RDKit          3D

 46 49  0  0  0  0  0  0  0  0999 V2000
  133.2570  132.3680   61.7780 C   0  0  0  0  0  0  0  0  0  0  0  0
  131.8470  131.7940   61.6980 C   0  0  0  0  0  0  0  0  0  0  0  0
  130.9430  132.3110   62.3510 O   0  0  0  0  0  0  0  0  0  0  0  0
  131.6820  130.7250   60.8930 N   0  0  0  0  0  0  0  0  0  0  0  0
  130.4420  129.9610   60.6280 C   0  0  0  0  0  0  0  0  0  0  0  0
  130.1670  129.0390   61.8510 C   0  0  0  0  0  0  0  0  0  0  0  0
  131.0240  127.9570   62.1030 C   0  0  0  0  0  0  0  0  0  0  0  0
  130.8070  127.1090   63.1850 C   0  0  0  0  0  0  0  0  0  0  0  0
  129.7250  127.3240   64.0410 C   0  0  0  0  0  0  0  0  0  0  0  0
  129.5000  126.3800   65.2210 C   0  0  0  0  0  0  0  0  0  0  0  0
  129.0040  125.2010   64.8390 F   0  0  0  0  0  0  0  0  0  0  0  0
  130.6480  126.1560   65.8610 F   0  0  0  0  0  0  0  0  0  0  0  0
  128.6370  126.9390   66.0700 F   0  0  0  0  0  0  0  0  0  0  0  0
  128.8640  128.3970   63.8000 C   0  0  0  0  0  0  0  0  0  0  0  0
  129.0820  129.2450   62.7170 C   0  0  0  0  0  0  0  0  0  0  0  0
  130.5530  129.1870   59.2660 C   0  0  0  0  0  0  0  0  0  0  0  0
  130.6370  130.1230   58.0340 C   0  0  0  0  0  0  0  0  0  0  0  0
  129.4190  130.9490   58.0540 N   0  0  0  0  0  0  0  0  0  0  0  0
  128.3160  130.5650   57.3530 C   0  0  0  0  0  0  0  0  0  0  0  0
  128.3430  129.6260   56.5550 O   0  0  0  0  0  0  0  0  0  0  0  0
  127.0380  131.4330   57.4370 C   0  0  0  0  0  0  0  0  0  0  0  0
  125.6910  130.6770   57.2680 C   0  0  0  0  0  0  0  0  0  0  0  0
  124.5380  131.1820   58.1670 C   0  0  0  0  0  0  0  0  0  0  0  0
  123.6620  131.8790   57.6470 O   0  0  0  0  0  0  0  0  0  0  0  0
  124.4410  130.7410   59.4530 N   0  0  0  0  0  0  0  0  0  0  0  0
  125.5750  130.1910   60.2060 C   0  0  0  0  0  0  0  0  0  0  0  0
  126.3200  131.3950   60.8240 C   0  0  0  0  0  0  0  0  0  0  0  0
  125.4340  132.3190   61.7310 C   0  0  0  0  0  0  0  0  0  0  0  0
  126.1240  133.6120   61.9250 N   0  0  0  0  0  0  0  0  0  0  0  0
  127.0180  134.2080   61.1100 C   0  0  0  0  0  0  0  0  0  0  0  0
  127.5800  135.5440   61.5860 C   0  0  0  0  0  0  0  0  0  0  0  0
  127.3910  133.7400   60.0350 O   0  0  0  0  0  0  0  0  0  0  0  0
  125.3200  131.6310   63.1300 C   0  0  0  0  0  0  0  0  0  0  0  0
  126.1700  131.9440   64.2040 C   0  0  0  0  0  0  0  0  0  0  0  0
  126.0340  131.3080   65.4350 C   0  0  0  0  0  0  0  0  0  0  0  0
  125.0450  130.3400   65.6230 C   0  0  0  0  0  0  0  0  0  0  0  0
  124.8810  129.6360   66.9700 C   0  0  0  0  0  0  0  0  0  0  0  0
  123.9520  130.2460   67.7090 F   0  0  0  0  0  0  0  0  0  0  0  0
  124.4990  128.3770   66.7610 F   0  0  0  0  0  0  0  0  0  0  0  0
  126.0160  129.6190   67.6710 F   0  0  0  0  0  0  0  0  0  0  0  0
  124.1990  130.0120   64.5640 C   0  0  0  0  0  0  0  0  0  0  0  0
  124.3370  130.6490   63.3350 C   0  0  0  0  0  0  0  0  0  0  0  0
  124.0380  132.5390   61.0310 C   0  0  0  0  0  0  0  0  0  0  0  0
  123.4140  131.2930   60.3460 C   0  0  0  0  0  0  0  0  0  0  0  0
  129.3480  131.8540   59.2090 C   0  0  0  0  0  0  0  0  0  0  0  0
  129.2540  130.9670   60.4780 C   0  0  0  0  0  0  0  0  0  0  0  0
  1  2  1  0
  2  3  2  0
  2  4  1  0
  4  5  1  0
  5  6  1  0
  6  7  2  0
  7  8  1  0
  8  9  2  0
  9 10  1  0
 10 11  1  0
 10 12  1  0
 10 13  1  0
  9 14  1  0
 14 15  2  0
  5 16  1  0
 16 17  1  0
 17 18  1  0
 18 19  1  0
 19 20  2  0
 19 21  1  0
 21 22  1  0
 22 23  1  0
 23 24  2  0
 23 25  1  0
 25 26  1  0
 26 27  1  0
 27 28  1  0
 28 29  1  0
 29 30  1  0
 30 31  1  0
 30 32  2  0
 28 33  1  0
 33 34  2  0
 34 35  1  0
 35 36  2  0
 36 37  1  0
 37 38  1  0
 37 39  1  0
 37 40  1  0
 36 41  1  0
 41 42  2  0
 28 43  1  0
 43 44  1  0
 18 45  1  0
 45 46  1  0
 46  5  1  0
 15  6  1  0
 44 25  1  0
 42 33  1  0
M  END
>  <Binding energies>  (79) 
[-9.12]

>  <Ligand effiencies>  (79) 
[-0.18999999999999997]

>  <Interactions>  (79) 
["V-B:ASP:366:CG:8184, V-A:ASP:366:CG:3212, V-B:ASP:366:CB:8183, V-A:GLU:543:CD:4908, V-B:LEU:475:CD1:9229, V-A:PRO:540:CB:4885, V-A:TYR:539:CD2:4874, V-A:ALA:541:CB:4892, H-A:ALA:541:N:4891, V-A:PRO:540:CA:4883, V-B:ILE:369:CD1:8210, V-B:GLU:543:CD:9879, V-B:HIS:456:CE1:9041, V-B:GLY:454:CA:9020, V-B:GLU:543:CG:9878, V-B:GLU:543:CB:9877, V-B:ILE:369:CG2:8208, V-A:TYR:539:CE2:4876, V-A:TYR:539:CZ:4877, V-B:ASP:366:CA:8181, V-B:ARG:545:CZ:9897, V-B:TYR:484:CZ:9318, V-A:MET:535:CE:4835, H-A:TYR:539:OH:4878, V-B:ARG:545:CG:9893, V-B:ILE:369:CB:8207, V-B:ARG:545:CD:9894, H-A:ASP:366:OD2:3214, V-A:PRO:540:C:4881, H-B:ASN:370:N:8215, V-A:ASN:362:CB:3175, V-B:ILE:455:C:9023, V-B:ARG:545:CB:9892, V-B:GLY:454:C:9018, V-B:ILE:455:CA:9025"]

$$$$
RR29_Rahimova_2017
     RDKit          3D

 18 19  0  0  0  0  0  0  0  0999 V2000
  128.5630  121.4560   60.6310 C   0  0  0  0  0  0  0  0  0  0  0  0
  128.2960  122.9090   60.9940 C   0  0  0  0  0  0  0  0  0  0  0  0
  129.4410  123.8560   60.5720 C   0  0  0  0  0  0  0  0  0  0  0  0
  129.7880  123.7020   59.0770 C   0  0  0  0  0  0  0  0  0  0  0  0
  128.5550  123.7730   58.1880 C   0  0  0  0  0  0  0  0  0  0  0  0
  128.0640  125.0250   57.7660 C   0  0  0  0  0  0  0  0  0  0  0  0
  126.9300  125.1130   56.9460 C   0  0  0  0  0  0  0  0  0  0  0  0
  126.3080  123.9260   56.5790 C   0  0  0  0  0  0  0  0  0  0  0  0
  126.7780  122.7100   56.9880 C   0  0  0  0  0  0  0  0  0  0  0  0
  127.9060  122.5910   57.7920 C   0  0  0  0  0  0  0  0  0  0  0  0
  126.0030  121.7270   56.4580 O   0  0  0  0  0  0  0  0  0  0  0  0
  124.9050  122.3810   55.8790 C   0  0  0  0  0  0  0  0  0  0  0  0
  125.2240  123.7430   55.7800 O   0  0  0  0  0  0  0  0  0  0  0  0
  127.2030  123.2000   61.5970 N   0  0  0  0  0  0  0  0  0  0  0  0
  126.9970  124.5000   62.0030 N   0  0  0  0  0  0  0  0  0  0  0  0
  126.4260  125.4450   61.2390 C   0  0  0  0  0  0  0  0  0  0  0  0
  125.9680  125.2500   60.0010 N   0  0  0  0  0  0  0  0  0  0  0  0
  126.3070  126.6620   61.7490 N   0  0  0  0  0  0  0  0  0  0  0  0
  1  2  1  0
  2  3  1  0
  3  4  1  0
  4  5  1  0
  5  6  2  0
  6  7  1  0
  7  8  2  0
  8  9  1  0
  9 10  2  0
  9 11  1  0
 11 12  1  0
 12 13  1  0
  2 14  2  0
 14 15  1  0
 15 16  1  0
 16 17  1  0
 16 18  2  0
 10  5  1  0
 13  8  1  0
M  CHG  1  18   1
M  END
>  <Binding energies>  (80) 
[-7.65]

>  <Ligand effiencies>  (80) 
[-0.33260869565217394]

>  <Interactions>  (80) 
["V-B:TYR:539:CD2:9845, V-B:MET:535:CE:9806, V-B:ASP:366:CG:8184, V-B:TYR:539:CE2:9847, V-B:TYR:539:C:9838, V-B:PRO:540:CD:9858, H-B:ASP:366:OD2:8186, V-B:PRO:540:N:9855, V-B:PRO:540:CA:9854, V-B:LEU:363:CD1:8160, V-B:TYR:539:CZ:9848, H-B:GLU:543:OE2:9881, H-B:ALA:541:N:9862, V-B:GLU:543:CD:9879, V-B:TYR:539:CD1:9844, V-B:TYR:539:CG:9843, V-B:TYR:539:CE1:9846, V-B:ALA:541:CB:9863, H-B:TYR:539:N:9841, V-B:PRO:540:C:9852, V-B:ALA:541:CA:9861, V-B:ILE:538:CD1:9836, V-B:ILE:538:CG2:9834, H-B:ASP:366:OD1:8185"]

$$$$
RR30_Rahimova_2017
     RDKit          3D

 18 19  0  0  0  0  0  0  0  0999 V2000
  133.8020  131.9620   61.3590 C   0  0  0  0  0  0  0  0  0  0  0  0
  132.5290  131.8340   60.5090 C   0  0  0  0  0  0  0  0  0  0  0  0
  131.2880  132.2420   61.2720 C   0  0  0  0  0  0  0  0  0  0  0  0
  131.0390  132.0980   62.5500 N   0  0  0  0  0  0  0  0  0  0  0  0
  129.7650  132.6220   62.7520 N   0  0  0  0  0  0  0  0  0  0  0  0
  129.3510  133.0290   61.5790 C   0  0  0  0  0  0  0  0  0  0  0  0
  127.8130  133.7990   61.1890 S   0  0  0  0  0  0  0  0  0  0  0  0
  127.0200  132.4560   60.2490 C   0  0  0  0  0  0  0  0  0  0  0  0
  127.7370  132.1750   58.9250 C   0  0  0  0  0  0  0  0  0  0  0  0
  127.4140  131.1870   58.2630 O   0  0  0  0  0  0  0  0  0  0  0  0
  128.7210  133.0400   58.5920 N   0  0  0  0  0  0  0  0  0  0  0  0
  129.5090  132.9920   57.4510 C   0  0  0  0  0  0  0  0  0  0  0  0
  129.3690  133.6730   56.3360 N   0  0  0  0  0  0  0  0  0  0  0  0
  130.3500  133.3630   55.4020 N   0  0  0  0  0  0  0  0  0  0  0  0
  131.2050  132.4610   55.8240 C   0  0  0  0  0  0  0  0  0  0  0  0
  132.3590  131.9570   54.9870 C   0  0  0  0  0  0  0  0  0  0  0  0
  130.8670  131.9100   57.4430 S   0  0  0  0  0  0  0  0  0  0  0  0
  130.2650  132.8240   60.5970 O   0  0  0  0  0  0  0  0  0  0  0  0
  1  2  1  0
  2  3  1  0
  3  4  2  0
  4  5  1  0
  5  6  2  0
  6  7  1  0
  7  8  1  0
  8  9  1  0
  9 10  2  0
  9 11  1  0
 11 12  1  0
 12 13  2  0
 13 14  1  0
 14 15  2  0
 15 16  1  0
 15 17  1  0
  6 18  1  0
 18  3  1  0
 17 12  1  0
M  END
>  <Binding energies>  (81) 
[-6.94]

>  <Ligand effiencies>  (81) 
[-0.36526315789473685]

>  <Interactions>  (81) 
["V-A:PRO:540:N:4884, V-A:PRO:540:CB:4885, V-A:TYR:539:CD2:4874, V-A:ALA:541:CB:4892, H-A:ALA:541:N:4891, V-A:ALA:541:CA:4890, V-A:PRO:540:CA:4883, V-A:TYR:539:C:4867, V-A:TYR:539:CE2:4876, V-A:TYR:531:CE2:4793, V-A:LEU:363:CD1:3188, V-A:MET:535:CE:4835, H-A:TYR:539:O:4868, H-A:TYR:539:N:4870, V-A:TYR:539:CG:4872, V-A:ILE:538:CA:4860, V-A:ILE:538:CB:4862, V-A:ILE:538:CG2:4863, V-A:PRO:540:C:4881, V-A:ASN:362:CA:3173, V-A:ASN:362:C:3171, V-A:ASN:362:CB:3175"]

$$$$
RR31_Rahimova_2017
     RDKit          3D

 18 19  0  0  0  0  0  0  0  0999 V2000
  132.2610  132.2520   55.2340 C   0  0  0  0  0  0  0  0  0  0  0  0
  131.5950  132.2310   56.6030 C   0  0  0  0  0  0  0  0  0  0  0  0
  132.3390  131.8360   57.7160 C   0  0  0  0  0  0  0  0  0  0  0  0
  131.7590  131.8090   58.9830 C   0  0  0  0  0  0  0  0  0  0  0  0
  130.4200  132.1850   59.1770 C   0  0  0  0  0  0  0  0  0  0  0  0
  129.8220  132.1540   60.4390 N   0  0  0  0  0  0  0  0  0  0  0  0
  130.6010  131.9040   61.6670 C   0  0  0  0  0  0  0  0  0  0  0  0
  129.7410  131.5000   62.8880 C   0  0  0  0  0  0  0  0  0  0  0  0
  128.7100  132.5060   63.1570 N   0  0  0  0  0  0  0  0  0  0  0  0
  127.9000  132.1690   64.3320 C   0  0  0  0  0  0  0  0  0  0  0  0
  127.0090  130.9300   64.1140 C   0  0  0  0  0  0  0  0  0  0  0  0
  127.5930  129.6680   64.7700 C   0  0  0  0  0  0  0  0  0  0  0  0
  126.6200  128.4950   64.6090 N   0  0  0  0  0  0  0  0  0  0  0  0
  127.8540  132.5830   61.9740 C   0  0  0  0  0  0  0  0  0  0  0  0
  128.6670  133.0240   60.7360 C   0  0  0  0  0  0  0  0  0  0  0  0
  129.6820  132.5710   58.0480 C   0  0  0  0  0  0  0  0  0  0  0  0
  130.2520  132.6010   56.7700 C   0  0  0  0  0  0  0  0  0  0  0  0
  129.3950  133.0280   55.5850 C   0  0  0  0  0  0  0  0  0  0  0  0
  1  2  1  0
  2  3  2  0
  3  4  1  0
  4  5  2  0
  5  6  1  0
  6  7  1  0
  7  8  1  0
  8  9  1  0
  9 10  1  0
 10 11  1  0
 11 12  1  0
 12 13  1  0
  9 14  1  0
 14 15  1  0
  5 16  1  0
 16 17  2  0
 17 18  1  0
 17  2  1  0
 15  6  1  0
M  CHG  1  13   1
M  END
>  <Binding energies>  (82) 
[-6.56]

>  <Ligand effiencies>  (82) 
[-0.31238095238095237]

>  <Interactions>  (82) 
["H-B:GLU:543:OE2:9881, V-A:PRO:540:N:4884, V-A:GLU:543:CD:4908, V-B:LEU:475:CD1:9229, V-A:GLU:543:CG:4907, V-A:PRO:540:CB:4885, V-A:ALA:541:CB:4892, V-A:PRO:540:CA:4883, V-A:TYR:539:C:4867, V-B:GLU:543:CD:9879, V-A:TYR:539:CZ:4877, V-B:ARG:545:CZ:9897, V-A:TYR:531:CE2:4793, V-A:LEU:363:CD1:3188, V-A:MET:535:CE:4835, V-A:ILE:538:CA:4860, V-A:TYR:539:CD1:4873, V-A:ILE:538:CB:4862, V-A:TYR:539:CE1:4875, V-A:ILE:538:CG2:4863, H-B:GLU:543:OE1:9880"]

$$$$
RR32_Rahimova_2017
     RDKit          3D

 18 20  0  0  0  0  0  0  0  0999 V2000
  126.7180  123.0220   56.8860 C   0  0  0  0  0  0  0  0  0  0  0  0
  126.9420  122.9860   58.3940 C   0  0  0  0  0  0  0  0  0  0  0  0
  128.1580  122.4910   58.8690 C   0  0  0  0  0  0  0  0  0  0  0  0
  128.3990  122.4460   60.2390 C   0  0  0  0  0  0  0  0  0  0  0  0
  129.6050  121.9560   60.7060 N   0  0  0  0  0  0  0  0  0  0  0  0
  129.8210  120.5000   60.6220 C   0  0  0  0  0  0  0  0  0  0  0  0
  131.1140  120.0320   61.3310 C   0  0  0  0  0  0  0  0  0  0  0  0
  132.2770  120.7090   60.7590 N   0  0  0  0  0  0  0  0  0  0  0  0
  133.4990  120.2440   61.4050 C   0  0  0  0  0  0  0  0  0  0  0  0
  132.1090  122.1460   60.9660 C   0  0  0  0  0  0  0  0  0  0  0  0
  130.8300  122.6450   60.2550 C   0  0  0  0  0  0  0  0  0  0  0  0
  127.4890  122.8660   61.1560 N   0  0  0  0  0  0  0  0  0  0  0  0
  126.2930  123.3500   60.7240 C   0  0  0  0  0  0  0  0  0  0  0  0
  125.3630  123.7780   61.7030 C   0  0  0  0  0  0  0  0  0  0  0  0
  124.1250  124.2820   61.3200 C   0  0  0  0  0  0  0  0  0  0  0  0
  123.7870  124.3720   59.9750 C   0  0  0  0  0  0  0  0  0  0  0  0
  124.6770  123.9600   58.9880 C   0  0  0  0  0  0  0  0  0  0  0  0
  125.9570  123.4360   59.3340 C   0  0  0  0  0  0  0  0  0  0  0  0
  1  2  1  0
  2  3  2  0
  3  4  1  0
  4  5  1  0
  5  6  1  0
  6  7  1  0
  7  8  1  0
  8  9  1  0
  8 10  1  0
 10 11  1  0
  4 12  2  0
 12 13  1  0
 13 14  2  0
 14 15  1  0
 15 16  2  0
 16 17  1  0
 17 18  2  0
 18  2  1  0
 11  5  1  0
 18 13  1  0
M  END
>  <Binding energies>  (83) 
[-6.86]

>  <Ligand effiencies>  (83) 
[-0.3811111111111111]

>  <Interactions>  (83) 
["V-B:TYR:539:CD2:9845, V-B:ASP:366:CG:8184, V-B:TYR:539:CE2:9847, V-B:TYR:539:C:9838, V-B:PRO:540:N:9855, V-A:ILE:369:CG2:3236, V-B:LEU:363:CA:8156, V-B:PRO:540:CB:9856, V-B:PRO:540:CA:9854, V-B:TYR:539:CZ:9848, H-B:ALA:541:N:9862, V-A:LEU:475:CD2:4258, V-B:ALA:541:CB:9863, V-A:TRP:381:CH2:3371, V-B:PRO:540:C:9852, V-B:ASN:362:CB:8147, V-B:ASN:362:C:8143, V-B:ASN:362:CA:8145"]

$$$$
RR5_Rahimova_2017
     RDKit          3D

 45 50  0  0  0  0  0  0  0  0999 V2000
  128.4160  126.1370   61.1040 O   0  0  0  0  0  0  0  0  0  0  0  0
  128.4270  126.2750   59.8810 C   0  0  0  0  0  0  0  0  0  0  0  0
  128.8290  127.6300   59.2690 C   0  0  0  0  0  0  0  0  0  0  0  0
  129.2100  127.5550   57.7470 C   0  0  2  0  0  0  0  0  0  0  0  0
  130.3440  128.4120   57.3460 N   0  0  0  0  0  0  0  0  0  0  0  0
  131.3250  128.7920   58.2520 C   0  0  0  0  0  0  0  0  0  0  0  0
  131.4080  128.4500   59.4340 O   0  0  0  0  0  0  0  0  0  0  0  0
  132.1790  129.6220   57.6280 O   0  0  0  0  0  0  0  0  0  0  0  0
  133.0610  130.4680   58.3590 C   0  0  0  0  0  0  0  0  0  0  0  0
  132.4260  131.8570   58.5870 C   0  0  0  0  0  0  0  0  0  0  0  0
  131.4380  132.2600   57.5060 C   0  0  0  0  0  0  0  0  0  0  0  0
  131.6310  132.3890   56.1280 C   0  0  0  0  0  0  0  0  0  0  0  0
  130.5630  132.7540   55.3070 C   0  0  0  0  0  0  0  0  0  0  0  0
  129.3030  132.9910   55.8600 C   0  0  0  0  0  0  0  0  0  0  0  0
  129.1080  132.8660   57.2370 C   0  0  0  0  0  0  0  0  0  0  0  0
  130.1780  132.5010   58.0560 C   0  0  0  0  0  0  0  0  0  0  0  0
  130.2600  132.3060   59.5120 C   0  0  0  0  0  0  0  0  0  0  0  0
  129.2940  132.4360   60.5130 C   0  0  0  0  0  0  0  0  0  0  0  0
  129.6460  132.2110   61.8440 C   0  0  0  0  0  0  0  0  0  0  0  0
  130.9560  131.8560   62.1730 C   0  0  0  0  0  0  0  0  0  0  0  0
  131.9170  131.7240   61.1700 C   0  0  0  0  0  0  0  0  0  0  0  0
  131.5690  131.9450   59.8350 C   0  0  0  0  0  0  0  0  0  0  0  0
  127.9810  127.8670   56.8570 C   0  0  0  0  0  0  0  0  0  0  0  0
  127.9630  128.6920   55.9670 O   0  0  0  0  0  0  0  0  0  0  0  0
  126.9390  127.0600   57.2160 O   0  0  0  0  0  0  0  0  0  0  0  0
  128.1350  125.2990   58.9930 N   0  0  0  0  0  0  0  0  0  0  0  0
  127.7120  123.8730   59.1350 C   0  0  0  0  0  0  0  0  0  0  0  0
  127.4050  123.4740   57.6520 C   0  0  0  0  0  0  0  0  0  0  0  0
  126.4250  122.5170   57.3390 C   0  0  0  0  0  0  0  0  0  0  0  0
  126.1590  122.1710   56.0170 C   0  0  0  0  0  0  0  0  0  0  0  0
  126.8760  122.7690   54.9860 C   0  0  0  0  0  0  0  0  0  0  0  0
  127.8500  123.7200   55.2670 C   0  0  0  0  0  0  0  0  0  0  0  0
  128.1080  124.0730   56.5880 C   0  0  0  0  0  0  0  0  0  0  0  0
  128.9250  123.0830   59.7310 C   0  0  0  0  0  0  0  0  0  0  0  0
  130.2110  123.6430   59.7940 C   0  0  0  0  0  0  0  0  0  0  0  0
  131.2800  122.9150   60.3110 C   0  0  0  0  0  0  0  0  0  0  0  0
  131.0770  121.6170   60.7690 C   0  0  0  0  0  0  0  0  0  0  0  0
  129.8120  121.0420   60.7210 C   0  0  0  0  0  0  0  0  0  0  0  0
  128.7440  121.7740   60.2120 C   0  0  0  0  0  0  0  0  0  0  0  0
  126.4340  123.8860   60.0390 C   0  0  0  0  0  0  0  0  0  0  0  0
  126.5170  123.6060   61.4150 C   0  0  0  0  0  0  0  0  0  0  0  0
  125.3830  123.6080   62.2220 C   0  0  0  0  0  0  0  0  0  0  0  0
  124.1420  123.8990   61.6680 C   0  0  0  0  0  0  0  0  0  0  0  0
  124.0300  124.1940   60.3150 C   0  0  0  0  0  0  0  0  0  0  0  0
  125.1660  124.1910   59.5110 C   0  0  0  0  0  0  0  0  0  0  0  0
  1  2  2  0
  2  3  1  0
  4  3  1  1
  4  5  1  0
  5  6  1  0
  6  7  2  0
  6  8  1  0
  8  9  1  0
  9 10  1  0
 10 11  1  0
 11 12  2  0
 12 13  1  0
 13 14  2  0
 14 15  1  0
 15 16  2  0
 16 17  1  0
 17 18  2  0
 18 19  1  0
 19 20  2  0
 20 21  1  0
 21 22  2  0
  4 23  1  0
 23 24  2  0
 23 25  1  0
  2 26  1  0
 26 27  1  0
 27 28  1  0
 28 29  2  0
 29 30  1  0
 30 31  2  0
 31 32  1  0
 32 33  2  0
 27 34  1  0
 34 35  2  0
 35 36  1  0
 36 37  2  0
 37 38  1  0
 38 39  2  0
 27 40  1  0
 40 41  2  0
 41 42  1  0
 42 43  2  0
 43 44  1  0
 44 45  2  0
 22 10  1  0
 33 28  1  0
 39 34  1  0
 45 40  1  0
 16 11  1  0
 22 17  1  0
M  END
>  <Binding energies>  (84) 
[-11.43]

>  <Ligand effiencies>  (84) 
[-0.238125]

>  <Interactions>  (84) 
["V-B:TYR:539:CD2:9845, V-B:MET:535:CE:9806, V-B:ASP:366:CG:8184, V-B:TYR:539:CE2:9847, V-B:TYR:539:C:9838, V-B:PRO:540:CD:9858, V-A:ASP:366:CG:3212, V-B:PRO:540:N:9855, V-B:LEU:363:CA:8156, V-B:PRO:540:CB:9856, H-B:TYR:531:OH:9766, V-A:ASP:366:CB:3211, V-B:PRO:540:CA:9854, V-B:TYR:539:CZ:9848, V-A:PRO:540:N:4884, V-A:PRO:540:CB:4885, V-A:TYR:539:CD2:4874, V-A:ALA:541:CB:4892, V-A:PRO:540:CA:4883, V-A:TYR:539:C:4867, V-B:GLU:543:CD:9879, V-B:GLU:543:CG:9878, V-A:TYR:539:CE2:4876, V-A:TYR:539:CZ:4877, V-B:TYR:539:CD1:9844, V-B:TYR:539:CE1:9846, V-B:ALA:541:CB:9863, V-B:PRO:540:C:9852, V-B:ASN:362:CB:8147, H-A:TYR:531:OH:4795, V-A:LEU:363:CD1:3188, V-A:TYR:531:CZ:4794, V-B:ASN:362:C:8143, V-A:MET:535:CE:4835, V-A:TYR:539:CG:4872, V-A:ILE:538:CA:4860, V-A:TYR:539:CD1:4873, V-A:ILE:538:CB:4862, V-A:TYR:539:CE1:4875, V-A:ILE:538:CG2:4863, V-B:ILE:538:CA:9831, V-B:ASN:362:CA:8145, H-B:MET:535:SD:9805"]

$$$$
