1a_Ghoteimi_2023
     RDKit          3D

 40 43  0  0  0  0  0  0  0  0999 V2000
  124.0070  124.6600   57.9990 C   0  0  0  0  0  0  0  0  0  0  0  0
  124.7400  123.7440   57.0140 C   0  0  0  0  0  0  0  0  0  0  0  0
  126.1420  123.8420   57.2340 O   0  0  0  0  0  0  0  0  0  0  0  0
  126.8280  122.8420   57.8450 C   0  0  0  0  0  0  0  0  0  0  0  0
  127.0930  121.7660   57.3000 O   0  0  0  0  0  0  0  0  0  0  0  0
  127.2370  123.1770   59.2510 C   0  0  0  0  0  0  0  0  0  0  0  0
  126.5180  124.0920   60.0350 C   0  0  0  0  0  0  0  0  0  0  0  0
  126.9240  124.3850   61.3340 C   0  0  0  0  0  0  0  0  0  0  0  0
  128.0590  123.7630   61.8760 C   0  0  0  0  0  0  0  0  0  0  0  0
  128.5600  123.9880   63.1720 N   0  0  0  0  0  0  0  0  0  0  0  0
  129.4670  123.2830   63.8840 C   0  0  0  0  0  0  0  0  0  0  0  0
  130.0560  122.2750   63.4950 O   0  0  0  0  0  0  0  0  0  0  0  0
  129.7640  123.8200   65.2840 C   0  0  0  0  0  0  0  0  0  0  0  0
  130.5790  125.4430   65.2230 S   0  0  0  0  0  0  0  0  0  0  0  0
  129.5330  126.5570   66.1320 C   0  0  0  0  0  0  0  0  0  0  0  0
  129.5320  126.3420   67.4690 N   0  0  0  0  0  0  0  0  0  0  0  0
  128.7770  127.1290   68.2790 C   0  0  0  0  0  0  0  0  0  0  0  0
  128.8460  126.8410   69.7510 C   0  0  0  0  0  0  0  0  0  0  0  0
  128.1760  125.7410   70.3120 C   0  0  0  0  0  0  0  0  0  0  0  0
  128.2430  125.4770   71.6770 C   0  0  0  0  0  0  0  0  0  0  0  0
  128.9780  126.3020   72.5240 C   0  0  0  0  0  0  0  0  0  0  0  0
  128.9900  125.9620   73.8640 O   0  0  0  0  0  0  0  0  0  0  0  0
  129.8070  124.8800   74.2970 C   0  0  0  0  0  0  0  0  0  0  0  0
  129.6480  127.4060   71.9810 C   0  0  0  0  0  0  0  0  0  0  0  0
  129.5800  127.6680   70.6160 C   0  0  0  0  0  0  0  0  0  0  0  0
  127.9970  128.1610   67.7440 C   0  0  0  0  0  0  0  0  0  0  0  0
  127.9620  128.3870   66.3610 C   0  0  0  0  0  0  0  0  0  0  0  0
  127.0820  129.4850   65.8580 C   0  0  0  0  0  0  0  0  0  0  0  0
  125.6940  129.3250   65.8060 C   0  0  0  0  0  0  0  0  0  0  0  0
  124.8800  130.3590   65.3500 C   0  0  0  0  0  0  0  0  0  0  0  0
  125.4350  131.5720   64.9450 C   0  0  0  0  0  0  0  0  0  0  0  0
  124.5510  132.5390   64.5090 O   0  0  0  0  0  0  0  0  0  0  0  0
  124.1460  132.5450   63.1440 C   0  0  0  0  0  0  0  0  0  0  0  0
  126.8270  131.7390   65.0040 C   0  0  0  0  0  0  0  0  0  0  0  0
  127.6390  130.7040   65.4590 C   0  0  0  0  0  0  0  0  0  0  0  0
  128.7550  127.5660   65.5240 C   0  0  0  0  0  0  0  0  0  0  0  0
  128.7720  127.7640   64.0710 C   0  0  0  0  0  0  0  0  0  0  0  0
  128.7850  127.9210   62.9250 N   0  0  0  0  0  0  0  0  0  0  0  0
  128.7780  122.8560   61.0970 C   0  0  0  0  0  0  0  0  0  0  0  0
  128.3710  122.5630   59.7980 C   0  0  0  0  0  0  0  0  0  0  0  0
  1  2  1  0
  2  3  1  0
  3  4  1  0
  4  5  2  0
  4  6  1  0
  6  7  2  0
  7  8  1  0
  8  9  2  0
  9 10  1  0
 10 11  1  0
 11 12  2  0
 11 13  1  0
 13 14  1  0
 14 15  1  0
 15 16  2  0
 16 17  1  0
 17 18  1  0
 18 19  2  0
 19 20  1  0
 20 21  2  0
 21 22  1  0
 22 23  1  0
 21 24  1  0
 24 25  2  0
 17 26  2  0
 26 27  1  0
 27 28  1  0
 28 29  2  0
 29 30  1  0
 30 31  2  0
 31 32  1  0
 32 33  1  0
 31 34  1  0
 34 35  2  0
 27 36  2  0
 36 37  1  0
 37 38  3  0
  9 39  1  0
 39 40  2  0
 40  6  1  0
 36 15  1  0
 25 18  1  0
 35 28  1  0
M  END
>  <Binding energies>  (1) 
[-9.92]

>  <Ligand effiencies>  (1) 
[-0.24195121951219511]

>  <Interactions>  (1) 
["V-B:TYR:539:CD2:9845, V-B:MET:535:CE:9806, V-B:TYR:539:CE2:9847, V-B:TYR:539:C:9838, V-B:PRO:540:N:9855, V-B:LEU:363:CA:8156, V-B:PRO:540:CB:9856, V-B:PRO:540:CA:9854, V-B:LEU:363:CD1:8160, V-B:TYR:531:CZ:9765, V-B:ASP:366:CB:8183, V-B:TYR:531:CE2:9764, H-B:GLU:543:OE2:9881, V-A:GLU:543:CD:4908, V-B:LEU:475:CD1:9229, V-A:GLU:543:CG:4907, V-B:ILE:369:CD1:8210, V-A:HIS:456:CD2:4067, V-B:GLU:543:C:9873, H-B:GLY:454:N:9021, V-B:GLU:543:CD:9879, V-B:HIS:456:CE1:9041, V-B:GLY:454:CA:9020, V-A:HIS:456:CE1:4069, H-B:LYS:547:NZ:9922, V-B:GLU:543:CG:9878, V-B:GLU:543:CB:9877, V-B:ALA:541:CB:9863, H-B:TYR:539:N:9841, V-B:ARG:545:CZ:9897, V-B:LYS:547:CE:9921"]

$$$$
1b_Ghoteimi_2023
     RDKit          3D

 34 37  0  0  0  0  0  0  0  0999 V2000
  131.6170  132.4270   55.7630 C   0  0  0  0  0  0  0  0  0  0  0  0
  130.8450  133.3720   56.4950 O   0  0  0  0  0  0  0  0  0  0  0  0
  130.1070  132.9410   57.5810 C   0  0  0  0  0  0  0  0  0  0  0  0
  128.7310  132.8170   57.3920 C   0  0  0  0  0  0  0  0  0  0  0  0
  127.9080  132.3910   58.4300 C   0  0  0  0  0  0  0  0  0  0  0  0
  128.4360  132.0720   59.6900 C   0  0  0  0  0  0  0  0  0  0  0  0
  127.5430  131.6140   60.8090 C   0  0  0  0  0  0  0  0  0  0  0  0
  127.9820  130.7780   61.8400 C   0  0  0  0  0  0  0  0  0  0  0  0
  127.1100  130.3830   62.8630 C   0  0  0  0  0  0  0  0  0  0  0  0
  127.6470  129.4840   63.9280 C   0  0  0  0  0  0  0  0  0  0  0  0
  128.3820  128.3460   63.5860 C   0  0  0  0  0  0  0  0  0  0  0  0
  128.8780  127.5010   64.5750 C   0  0  0  0  0  0  0  0  0  0  0  0
  128.6440  127.7740   65.9230 C   0  0  0  0  0  0  0  0  0  0  0  0
  129.1740  126.8800   66.8350 O   0  0  0  0  0  0  0  0  0  0  0  0
  128.5670  126.7540   68.1160 C   0  0  0  0  0  0  0  0  0  0  0  0
  127.9000  128.9110   66.2710 C   0  0  0  0  0  0  0  0  0  0  0  0
  127.4060  129.7530   65.2790 C   0  0  0  0  0  0  0  0  0  0  0  0
  125.7770  130.8610   62.8340 C   0  0  0  0  0  0  0  0  0  0  0  0
  124.8530  130.5560   63.9300 C   0  0  0  0  0  0  0  0  0  0  0  0
  124.1240  130.3140   64.7960 N   0  0  0  0  0  0  0  0  0  0  0  0
  125.3920  131.6860   61.7530 C   0  0  0  0  0  0  0  0  0  0  0  0
  123.7610  132.3700   61.5490 S   0  0  0  0  0  0  0  0  0  0  0  0
  122.9580  131.5030   60.1580 C   0  0  0  0  0  0  0  0  0  0  0  0
  123.8030  131.4060   58.8800 C   0  0  0  0  0  0  0  0  0  0  0  0
  123.7000  132.2540   57.9910 O   0  0  0  0  0  0  0  0  0  0  0  0
  124.6300  130.3380   58.8310 N   0  0  0  0  0  0  0  0  0  0  0  0
  125.5050  129.9970   57.8060 C   0  0  0  0  0  0  0  0  0  0  0  0
  126.7230  129.3560   58.0270 C   0  0  0  0  0  0  0  0  0  0  0  0
  127.2770  129.2010   56.7760 C   0  0  0  0  0  0  0  0  0  0  0  0
  126.4350  129.7210   55.8510 O   0  0  0  0  0  0  0  0  0  0  0  0
  125.3160  130.2220   56.5160 N   0  0  0  0  0  0  0  0  0  0  0  0
  126.2610  132.0640   60.7850 N   0  0  0  0  0  0  0  0  0  0  0  0
  129.8220  132.2030   59.8700 C   0  0  0  0  0  0  0  0  0  0  0  0
  130.6490  132.6300   58.8350 C   0  0  0  0  0  0  0  0  0  0  0  0
  1  2  1  0
  2  3  1  0
  3  4  2  0
  4  5  1  0
  5  6  2  0
  6  7  1  0
  7  8  2  0
  8  9  1  0
  9 10  1  0
 10 11  2  0
 11 12  1  0
 12 13  2  0
 13 14  1  0
 14 15  1  0
 13 16  1  0
 16 17  2  0
  9 18  2  0
 18 19  1  0
 19 20  3  0
 18 21  1  0
 21 22  1  0
 22 23  1  0
 23 24  1  0
 24 25  2  0
 24 26  1  0
 26 27  1  0
 27 28  1  0
 28 29  2  0
 29 30  1  0
 30 31  1  0
 21 32  2  0
  6 33  1  0
 33 34  2  0
 34  3  1  0
 32  7  1  0
 17 10  1  0
 31 27  2  0
M  END
>  <Binding energies>  (2) 
[-9.24]

>  <Ligand effiencies>  (2) 
[-0.264]

>  <Interactions>  (2) 
["V-B:ASP:366:CG:8184, H-B:ASP:366:OD2:8186, H-B:TYR:531:OH:9766, V-B:ASP:366:CB:8183, V-A:PRO:540:N:4884, V-A:GLU:543:CD:4908, V-A:GLU:543:CG:4907, V-A:PRO:540:CB:4885, V-A:TYR:539:CD2:4874, V-A:PRO:540:CA:4883, V-A:TYR:539:C:4867, V-B:ILE:369:CD1:8210, H-B:GLY:454:N:9021, V-B:GLU:543:CD:9879, H-B:ARG:545:NH2:9899, V-B:GLU:543:CG:9878, V-B:GLU:543:CB:9877, V-B:ILE:369:CG2:8208, V-A:TYR:539:CE2:4876, V-A:TYR:539:CZ:4877, V-B:ASP:366:CA:8181, V-B:ASP:366:C:8179, V-A:LEU:363:CD1:3188, V-A:MET:535:CE:4835, H-A:TYR:539:OH:4878, V-B:ILE:369:CB:8207, H-A:TYR:539:N:4870, V-A:TYR:539:CG:4872, V-A:ILE:538:CB:4862, V-A:TYR:539:CE1:4875, V-A:ILE:538:CG2:4863, H-B:ASN:370:N:8215, H-B:ASP:366:OD1:8185, V-B:ILE:369:CG1:8209"]

$$$$
1c_Ghoteimi_2023
     RDKit          3D

 34 37  0  0  0  0  0  0  0  0999 V2000
  129.9500  125.0150   75.0290 C   0  0  0  0  0  0  0  0  0  0  0  0
  129.0030  125.9090   74.4540 O   0  0  0  0  0  0  0  0  0  0  0  0
  129.0740  126.1920   73.1030 C   0  0  0  0  0  0  0  0  0  0  0  0
  128.3810  125.3390   72.2490 C   0  0  0  0  0  0  0  0  0  0  0  0
  128.4000  125.5470   70.8720 C   0  0  0  0  0  0  0  0  0  0  0  0
  129.1140  126.6150   70.3090 C   0  0  0  0  0  0  0  0  0  0  0  0
  129.1410  126.8400   68.8250 C   0  0  0  0  0  0  0  0  0  0  0  0
  129.7520  125.9500   67.9360 C   0  0  0  0  0  0  0  0  0  0  0  0
  129.7280  126.1880   66.5560 C   0  0  0  0  0  0  0  0  0  0  0  0
  130.3410  125.1620   65.6620 C   0  0  0  0  0  0  0  0  0  0  0  0
  129.7500  123.9040   65.5120 C   0  0  0  0  0  0  0  0  0  0  0  0
  130.3340  122.9420   64.6950 C   0  0  0  0  0  0  0  0  0  0  0  0
  131.5210  123.2150   64.0170 C   0  0  0  0  0  0  0  0  0  0  0  0
  132.0290  122.2000   63.2280 O   0  0  0  0  0  0  0  0  0  0  0  0
  133.2770  122.3910   62.5690 C   0  0  0  0  0  0  0  0  0  0  0  0
  132.1220  124.4740   64.1700 C   0  0  0  0  0  0  0  0  0  0  0  0
  131.5350  125.4360   64.9880 C   0  0  0  0  0  0  0  0  0  0  0  0
  129.0980  127.3650   66.0880 C   0  0  0  0  0  0  0  0  0  0  0  0
  129.0690  127.6900   64.6570 C   0  0  0  0  0  0  0  0  0  0  0  0
  129.0450  127.9440   63.5280 N   0  0  0  0  0  0  0  0  0  0  0  0
  128.4870  128.2110   67.0370 C   0  0  0  0  0  0  0  0  0  0  0  0
  127.5170  129.6300   66.5770 S   0  0  0  0  0  0  0  0  0  0  0  0
  125.8120  129.2050   67.0600 C   0  0  0  0  0  0  0  0  0  0  0  0
  124.7930  129.5850   65.9800 C   0  0  0  0  0  0  0  0  0  0  0  0
  123.6050  129.7110   66.2810 O   0  0  0  0  0  0  0  0  0  0  0  0
  125.3110  129.8000   64.7500 N   0  0  0  0  0  0  0  0  0  0  0  0
  124.6410  130.2980   63.6440 C   0  0  0  0  0  0  0  0  0  0  0  0
  123.3800  130.6670   63.5630 N   0  0  0  0  0  0  0  0  0  0  0  0
  123.0900  131.1320   62.3630 C   0  0  0  0  0  0  0  0  0  0  0  0
  124.1320  131.1490   61.4410 C   0  0  0  0  0  0  0  0  0  0  0  0
  125.5650  130.5160   62.1940 S   0  0  0  0  0  0  0  0  0  0  0  0
  128.5020  127.9480   68.3660 N   0  0  0  0  0  0  0  0  0  0  0  0
  129.8030  127.4720   71.1800 C   0  0  0  0  0  0  0  0  0  0  0  0
  129.7880  127.2670   72.5560 C   0  0  0  0  0  0  0  0  0  0  0  0
  1  2  1  0
  2  3  1  0
  3  4  2  0
  4  5  1  0
  5  6  2  0
  6  7  1  0
  7  8  2  0
  8  9  1  0
  9 10  1  0
 10 11  2  0
 11 12  1  0
 12 13  2  0
 13 14  1  0
 14 15  1  0
 13 16  1  0
 16 17  2  0
  9 18  2  0
 18 19  1  0
 19 20  3  0
 18 21  1  0
 21 22  1  0
 22 23  1  0
 23 24  1  0
 24 25  2  0
 24 26  1  0
 26 27  1  0
 27 28  2  0
 28 29  1  0
 29 30  2  0
 30 31  1  0
 21 32  2  0
  6 33  1  0
 33 34  2  0
 34  3  1  0
 32  7  1  0
 17 10  1  0
 31 27  1  0
M  END
>  <Binding energies>  (3) 
[-8.83]

>  <Ligand effiencies>  (3) 
[-0.2522857142857143]

>  <Interactions>  (3) 
["V-B:ASP:366:CG:8184, V-A:ILE:369:CG2:3236, V-A:GLU:543:CD:4908, V-A:GLU:543:CG:4907, V-B:ILE:369:CD1:8210, V-B:GLU:543:C:9873, V-B:GLY:453:C:9013, H-B:GLY:454:N:9021, V-B:GLU:543:CD:9879, V-B:HIS:456:CE1:9041, H-B:ARG:545:NE:9895, V-A:HIS:456:CE1:4069, H-B:LYS:547:NZ:9922, V-A:LEU:475:CD2:4258, V-B:GLU:543:CG:9878, V-A:TYR:484:CE1:4344, V-B:GLU:543:CB:9877, V-A:ILE:369:CD1:3238, V-A:GLY:454:CA:4048, V-B:ALA:541:CB:9863, V-B:ARG:545:CZ:9897, H-B:TYR:484:OH:9319, V-B:ARG:545:CD:9894, V-B:LYS:547:CE:9921"]

$$$$
1d_Ghoteimi_2023
     RDKit          3D

 30 32  0  0  0  0  0  0  0  0999 V2000
  133.8400  125.4760   63.7650 C   0  0  0  0  0  0  0  0  0  0  0  0
  133.6240  124.7350   64.9560 O   0  0  0  0  0  0  0  0  0  0  0  0
  134.0180  125.2250   66.1490 C   0  0  0  0  0  0  0  0  0  0  0  0
  135.1380  125.1110   66.6500 O   0  0  0  0  0  0  0  0  0  0  0  0
  132.8980  125.9710   66.8690 C   0  0  0  0  0  0  0  0  0  0  0  0
  131.3530  125.6360   65.9720 S   0  0  0  0  0  0  0  0  0  0  0  0
  130.0690  126.5650   66.7800 C   0  0  0  0  0  0  0  0  0  0  0  0
  130.0060  126.3590   68.1180 N   0  0  0  0  0  0  0  0  0  0  0  0
  129.0680  127.0030   68.8590 C   0  0  0  0  0  0  0  0  0  0  0  0
  129.0700  126.7240   70.3340 C   0  0  0  0  0  0  0  0  0  0  0  0
  128.4850  125.5590   70.8550 C   0  0  0  0  0  0  0  0  0  0  0  0
  128.4820  125.3050   72.2240 C   0  0  0  0  0  0  0  0  0  0  0  0
  129.0600  126.2070   73.1140 C   0  0  0  0  0  0  0  0  0  0  0  0
  129.0070  125.8750   74.4540 O   0  0  0  0  0  0  0  0  0  0  0  0
  129.9440  124.9380   74.9740 C   0  0  0  0  0  0  0  0  0  0  0  0
  129.6470  127.3750   72.6090 C   0  0  0  0  0  0  0  0  0  0  0  0
  129.6500  127.6250   71.2390 C   0  0  0  0  0  0  0  0  0  0  0  0
  128.1690  127.8900   68.2560 C   0  0  0  0  0  0  0  0  0  0  0  0
  128.2010  128.1100   66.8730 C   0  0  0  0  0  0  0  0  0  0  0  0
  127.2070  129.0640   66.2940 C   0  0  0  0  0  0  0  0  0  0  0  0
  127.5860  129.9440   65.2750 C   0  0  0  0  0  0  0  0  0  0  0  0
  126.6650  130.8350   64.7310 C   0  0  0  0  0  0  0  0  0  0  0  0
  125.3480  130.8610   65.1880 C   0  0  0  0  0  0  0  0  0  0  0  0
  124.5060  131.7820   64.5960 O   0  0  0  0  0  0  0  0  0  0  0  0
  124.1430  131.6140   63.2300 C   0  0  0  0  0  0  0  0  0  0  0  0
  124.9600  129.9710   66.2010 C   0  0  0  0  0  0  0  0  0  0  0  0
  125.8820  129.0810   66.7430 C   0  0  0  0  0  0  0  0  0  0  0  0
  129.1650  127.4140   66.1020 C   0  0  0  0  0  0  0  0  0  0  0  0
  129.1780  127.5270   64.6400 C   0  0  0  0  0  0  0  0  0  0  0  0
  129.1860  127.6160   63.4870 N   0  0  0  0  0  0  0  0  0  0  0  0
  1  2  1  0
  2  3  1  0
  3  4  2  0
  3  5  1  0
  5  6  1  0
  6  7  1  0
  7  8  2  0
  8  9  1  0
  9 10  1  0
 10 11  2  0
 11 12  1  0
 12 13  2  0
 13 14  1  0
 14 15  1  0
 13 16  1  0
 16 17  2  0
  9 18  2  0
 18 19  1  0
 19 20  1  0
 20 21  2  0
 21 22  1  0
 22 23  2  0
 23 24  1  0
 24 25  1  0
 23 26  1  0
 26 27  2  0
 19 28  2  0
 28 29  1  0
 29 30  3  0
 28  7  1  0
 17 10  1  0
 27 20  1  0
M  END
>  <Binding energies>  (4) 
[-8.42]

>  <Ligand effiencies>  (4) 
[-0.2806666666666667]

>  <Interactions>  (4) 
["V-A:GLU:543:CD:4908, V-A:GLU:543:CG:4907, V-A:HIS:456:CD2:4067, V-B:GLU:543:C:9873, H-B:GLY:454:N:9021, V-B:GLU:543:CD:9879, V-B:HIS:456:CE1:9041, V-B:GLY:454:CA:9020, V-A:HIS:456:CE1:4069, H-B:LYS:547:NZ:9922, H-A:TYR:484:OH:4347, V-A:GLY:454:CA:4048, H-A:ARG:545:NE:4924, V-A:ARG:545:CZ:4926, H-A:GLY:454:N:4049, V-B:LYS:547:CE:9921, V-A:ARG:545:CG:4922, V-A:ARG:545:CD:4923, V-A:GLY:453:CA:4043, H-A:ILE:455:N:4054"]

$$$$
1j_Grossjean_2025
     RDKit          3D

 20 21  0  0  0  0  0  0  0  0999 V2000
  127.3640  127.7690   58.2930 C   0  0  0  0  0  0  0  0  0  0  0  0
  126.9770  126.4410   57.6690 C   0  0  0  0  0  0  0  0  0  0  0  0
  127.7350  125.8650   56.6520 C   0  0  0  0  0  0  0  0  0  0  0  0
  127.3370  124.6330   56.1240 C   0  0  0  0  0  0  0  0  0  0  0  0
  128.1940  124.0120   55.0220 C   0  0  0  0  0  0  0  0  0  0  0  0
  126.1740  124.0080   56.6270 C   0  0  0  0  0  0  0  0  0  0  0  0
  125.7680  122.6920   56.1250 C   0  0  0  0  0  0  0  0  0  0  0  0
  125.4510  121.6530   55.7280 N   0  0  0  0  0  0  0  0  0  0  0  0
  125.4510  124.6780   57.6420 C   0  0  0  0  0  0  0  0  0  0  0  0
  123.9660  124.0400   58.3880 S   0  0  0  0  0  0  0  0  0  0  0  0
  124.0700  124.3480   60.1760 C   0  0  0  0  0  0  0  0  0  0  0  0
  125.1860  123.5350   60.8340 C   0  0  0  0  0  0  0  0  0  0  0  0
  124.9350  122.8630   61.8350 O   0  0  0  0  0  0  0  0  0  0  0  0
  126.3970  123.6230   60.2420 N   0  0  0  0  0  0  0  0  0  0  0  0
  127.5650  122.9920   60.6470 C   0  0  0  0  0  0  0  0  0  0  0  0
  128.0460  122.8910   61.8680 N   0  0  0  0  0  0  0  0  0  0  0  0
  129.1810  122.2200   61.8870 C   0  0  0  0  0  0  0  0  0  0  0  0
  129.6440  121.7580   60.6580 C   0  0  0  0  0  0  0  0  0  0  0  0
  128.5230  122.2330   59.4170 S   0  0  0  0  0  0  0  0  0  0  0  0
  125.8570  125.8630   58.1640 N   0  0  0  0  0  0  0  0  0  0  0  0
  1  2  1  0
  2  3  2  0
  3  4  1  0
  4  5  1  0
  4  6  2  0
  6  7  1  0
  7  8  3  0
  6  9  1  0
  9 10  1  0
 10 11  1  0
 11 12  1  0
 12 13  2  0
 12 14  1  0
 14 15  1  0
 15 16  2  0
 16 17  1  0
 17 18  2  0
 18 19  1  0
  9 20  2  0
 20  2  1  0
 19 15  1  0
M  END
>  <Binding energies>  (5) 
[-6.59]

>  <Ligand effiencies>  (5) 
[-0.3138095238095238]

>  <Interactions>  (5) 
["V-B:TYR:539:CD2:9845, V-B:MET:535:CE:9806, V-B:ASP:366:CG:8184, V-B:TYR:539:CE2:9847, V-B:TYR:539:C:9838, V-B:PRO:540:CD:9858, V-B:PRO:540:N:9855, V-B:LEU:363:CA:8156, V-B:PRO:540:CB:9856, H-B:TYR:531:OH:9766, V-B:PRO:540:CA:9854, V-B:LEU:363:CD1:8160, V-B:TYR:539:CZ:9848, H-B:ALA:541:N:9862, V-B:TYR:539:CD1:9844, V-B:TYR:539:CE1:9846, V-B:ALA:541:CB:9863, H-B:TYR:539:N:9841, V-B:PRO:540:C:9852, V-B:ALA:541:CA:9861, V-B:ASN:362:CB:8147, V-B:ASN:362:C:8143"]

$$$$
1o_Grossjean_2025
     RDKit          3D

 26 27  0  0  0  0  0  0  0  0999 V2000
  127.8880  122.3330   58.3730 C   0  0  0  0  0  0  0  0  0  0  0  0
  127.3490  121.7700   57.1850 O   0  0  0  0  0  0  0  0  0  0  0  0
  126.7720  122.5550   56.2390 C   0  0  0  0  0  0  0  0  0  0  0  0
  126.0020  122.1230   55.3740 O   0  0  0  0  0  0  0  0  0  0  0  0
  127.1580  124.0010   56.3500 C   0  0  0  0  0  0  0  0  0  0  0  0
  126.4280  124.9070   57.1330 C   0  0  0  0  0  0  0  0  0  0  0  0
  126.8160  126.2420   57.2170 C   0  0  0  0  0  0  0  0  0  0  0  0
  127.9330  126.7000   56.5180 C   0  0  0  0  0  0  0  0  0  0  0  0
  128.2390  128.0650   56.6800 N   0  0  0  0  0  0  0  0  0  0  0  0
  127.5140  129.1600   56.3610 C   0  0  0  0  0  0  0  0  0  0  0  0
  126.3780  129.1440   55.8860 O   0  0  0  0  0  0  0  0  0  0  0  0
  128.1860  130.5080   56.6580 C   0  0  0  0  0  0  0  0  0  0  0  0
  127.4220  131.3560   57.6950 C   0  0  0  0  0  0  0  0  0  0  0  0
  128.4140  132.6860   58.4350 S   0  0  0  0  0  0  0  0  0  0  0  0
  130.1360  132.3370   58.1400 C   0  0  0  0  0  0  0  0  0  0  0  0
  130.4450  132.2170   56.8240 N   0  0  0  0  0  0  0  0  0  0  0  0
  131.7280  131.9600   56.4760 C   0  0  0  0  0  0  0  0  0  0  0  0
  131.9990  131.8530   54.9870 C   0  0  0  0  0  0  0  0  0  0  0  0
  132.7430  131.8010   57.4160 C   0  0  0  0  0  0  0  0  0  0  0  0
  132.4320  131.8980   58.7770 C   0  0  0  0  0  0  0  0  0  0  0  0
  133.5600  131.7050   59.7880 C   0  0  0  0  0  0  0  0  0  0  0  0
  131.0980  132.1610   59.1640 C   0  0  0  0  0  0  0  0  0  0  0  0
  130.7420  132.2070   60.5840 C   0  0  0  0  0  0  0  0  0  0  0  0
  130.4630  132.2440   61.7060 N   0  0  0  0  0  0  0  0  0  0  0  0
  128.6710  125.7990   55.7360 C   0  0  0  0  0  0  0  0  0  0  0  0
  128.2830  124.4640   55.6540 C   0  0  0  0  0  0  0  0  0  0  0  0
  1  2  1  0
  2  3  1  0
  3  4  2  0
  3  5  1  0
  5  6  2  0
  6  7  1  0
  7  8  2  0
  8  9  1  0
  9 10  1  0
 10 11  2  0
 10 12  1  0
 12 13  1  0
 13 14  1  0
 14 15  1  0
 15 16  2  0
 16 17  1  0
 17 18  1  0
 17 19  2  0
 19 20  1  0
 20 21  1  0
 20 22  2  0
 22 23  1  0
 23 24  3  0
  8 25  1  0
 25 26  2  0
 26  5  1  0
 22 15  1  0
M  END
>  <Binding energies>  (6) 
[-8.35]

>  <Ligand effiencies>  (6) 
[-0.30925925925925923]

>  <Interactions>  (6) 
["V-B:TYR:539:CD2:9845, V-B:TYR:539:CE2:9847, V-B:TYR:539:C:9838, V-A:ASP:366:CG:3212, V-B:PRO:540:N:9855, H-B:TYR:531:OH:9766, V-B:PRO:540:CA:9854, V-B:TYR:539:CZ:9848, V-A:PRO:540:N:4884, V-A:PRO:540:CB:4885, H-A:ALA:541:N:4891, V-A:PRO:540:CA:4883, V-A:TYR:539:C:4867, V-A:TYR:539:CE2:4876, V-A:TYR:539:CZ:4877, V-B:TYR:539:CD1:9844, V-B:TYR:539:CG:9843, V-B:TYR:539:CE1:9846, H-B:TYR:539:N:9841, H-A:TYR:531:OH:4795, V-A:TYR:531:CE2:4793, V-A:LEU:363:CD1:3188, V-A:LEU:363:CA:3184, V-A:MET:535:CE:4835, V-A:ILE:538:CB:4862, V-A:ILE:538:CG2:4863, V-A:PRO:540:C:4881, V-A:MET:535:CG:4833, V-A:ASN:362:C:3171"]

$$$$
1p_Grossjean_2025
     RDKit          3D

 21 22  0  0  0  0  0  0  0  0999 V2000
  130.3720  123.2130   65.1840 C   0  0  0  0  0  0  0  0  0  0  0  0
  129.9340  122.8690   63.7730 C   0  0  0  0  0  0  0  0  0  0  0  0
  130.4980  121.8010   63.0760 C   0  0  0  0  0  0  0  0  0  0  0  0
  130.0640  121.5370   61.7720 C   0  0  0  0  0  0  0  0  0  0  0  0
  130.7060  120.3720   61.0210 C   0  0  0  0  0  0  0  0  0  0  0  0
  129.0620  122.3520   61.1980 C   0  0  0  0  0  0  0  0  0  0  0  0
  128.6260  122.1260   59.8190 C   0  0  0  0  0  0  0  0  0  0  0  0
  128.2820  121.9460   58.7280 N   0  0  0  0  0  0  0  0  0  0  0  0
  128.5300  123.3990   61.9880 C   0  0  0  0  0  0  0  0  0  0  0  0
  127.2600  124.5090   61.4250 S   0  0  0  0  0  0  0  0  0  0  0  0
  125.7830  123.4990   61.1060 C   0  0  0  0  0  0  0  0  0  0  0  0
  124.6880  124.2350   60.3120 C   0  0  0  0  0  0  0  0  0  0  0  0
  124.7090  123.9280   58.8070 C   0  0  0  0  0  0  0  0  0  0  0  0
  123.7780  124.3100   58.0950 O   0  0  0  0  0  0  0  0  0  0  0  0
  125.7930  123.2510   58.3640 N   0  0  0  0  0  0  0  0  0  0  0  0
  126.0590  122.8510   57.0610 C   0  0  0  0  0  0  0  0  0  0  0  0
  126.8570  123.5880   56.1860 C   0  0  0  0  0  0  0  0  0  0  0  0
  126.8710  122.8620   55.0170 C   0  0  0  0  0  0  0  0  0  0  0  0
  126.1200  121.7480   55.1780 O   0  0  0  0  0  0  0  0  0  0  0  0
  125.6090  121.7530   56.4780 N   0  0  0  0  0  0  0  0  0  0  0  0
  128.9720  123.6600   63.2440 N   0  0  0  0  0  0  0  0  0  0  0  0
  1  2  1  0
  2  3  2  0
  3  4  1  0
  4  5  1  0
  4  6  2  0
  6  7  1  0
  7  8  3  0
  6  9  1  0
  9 10  1  0
 10 11  1  0
 11 12  1  0
 12 13  1  0
 13 14  2  0
 13 15  1  0
 15 16  1  0
 16 17  1  0
 17 18  2  0
 18 19  1  0
 19 20  1  0
  9 21  2  0
 21  2  1  0
 20 16  2  0
M  END
>  <Binding energies>  (7) 
[-7.38]

>  <Ligand effiencies>  (7) 
[-0.33545454545454545]

>  <Interactions>  (7) 
["V-B:TYR:539:CD2:9845, V-B:MET:535:CE:9806, V-B:TYR:539:CE2:9847, V-B:TYR:539:C:9838, V-B:PRO:540:CD:9858, V-B:PRO:540:N:9855, V-B:PRO:540:CB:9856, H-B:TYR:531:OH:9766, V-B:PRO:540:CA:9854, V-A:LEU:475:CD2:4258, V-B:GLU:543:CG:9878, V-A:TYR:484:CE1:4344, V-B:TYR:539:CD1:9844, V-B:TYR:539:CE1:9846, V-B:ALA:541:CB:9863, H-B:TYR:539:N:9841, V-B:PRO:540:C:9852, V-A:TYR:484:CZ:4346"]

$$$$
2a_Ghoteimi_2023
     RDKit          3D

 48 53  0  0  0  0  0  0  0  0999 V2000
  127.5030  123.1910   54.8860 C   0  0  0  0  0  0  0  0  0  0  0  0
  126.4460  122.0830   54.9150 C   0  0  0  0  0  0  0  0  0  0  0  0
  125.9120  121.9750   56.2280 O   0  0  0  0  0  0  0  0  0  0  0  0
  125.3840  123.0540   56.8620 C   0  0  0  0  0  0  0  0  0  0  0  0
  124.4900  123.7560   56.3790 O   0  0  0  0  0  0  0  0  0  0  0  0
  125.9910  123.3040   58.2130 C   0  0  0  0  0  0  0  0  0  0  0  0
  127.3140  122.9460   58.5100 C   0  0  0  0  0  0  0  0  0  0  0  0
  127.8460  123.1930   59.7720 C   0  0  0  0  0  0  0  0  0  0  0  0
  127.0730  123.8050   60.7600 C   0  0  0  0  0  0  0  0  0  0  0  0
  127.7100  124.0030   62.0000 N   0  0  0  0  0  0  0  0  0  0  0  0
  128.6980  123.2930   62.5880 C   0  0  0  0  0  0  0  0  0  0  0  0
  129.2010  122.2660   62.1310 O   0  0  0  0  0  0  0  0  0  0  0  0
  129.1630  123.8270   63.9490 C   0  0  0  0  0  0  0  0  0  0  0  0
  130.2850  125.2590   63.8530 S   0  0  0  0  0  0  0  0  0  0  0  0
  129.4850  126.5580   64.7660 C   0  0  0  0  0  0  0  0  0  0  0  0
  129.5550  126.4060   66.1090 N   0  0  0  0  0  0  0  0  0  0  0  0
  128.9730  127.3290   66.9160 C   0  0  0  0  0  0  0  0  0  0  0  0
  129.0810  127.0910   68.3870 C   0  0  0  0  0  0  0  0  0  0  0  0
  128.3270  126.0930   69.0180 C   0  0  0  0  0  0  0  0  0  0  0  0
  128.4230  125.8840   70.3910 C   0  0  0  0  0  0  0  0  0  0  0  0
  129.2820  126.6580   71.1840 C   0  0  0  0  0  0  0  0  0  0  0  0
  129.3450  126.4560   72.5670 N   0  0  0  0  0  0  0  0  0  0  0  0
  129.3030  125.1000   73.1500 C   0  0  0  0  0  0  0  0  0  0  0  0
  129.7440  125.0430   74.6280 C   0  0  0  0  0  0  0  0  0  0  0  0
  128.9750  125.9520   75.4000 O   0  0  0  0  0  0  0  0  0  0  0  0
  129.1440  127.2860   74.9490 C   0  0  0  0  0  0  0  0  0  0  0  0
  128.6860  127.4130   73.4810 C   0  0  0  0  0  0  0  0  0  0  0  0
  130.0260  127.6650   70.5490 C   0  0  0  0  0  0  0  0  0  0  0  0
  129.9320  127.8720   69.1760 C   0  0  0  0  0  0  0  0  0  0  0  0
  128.3150  128.4410   66.3840 C   0  0  0  0  0  0  0  0  0  0  0  0
  128.2300  128.6190   64.9960 C   0  0  0  0  0  0  0  0  0  0  0  0
  127.5070  129.8270   64.4950 C   0  0  0  0  0  0  0  0  0  0  0  0
  126.1470  129.7530   64.1830 C   0  0  0  0  0  0  0  0  0  0  0  0
  125.4690  130.8670   63.6970 C   0  0  0  0  0  0  0  0  0  0  0  0
  126.1300  132.0910   63.5120 C   0  0  0  0  0  0  0  0  0  0  0  0
  125.4720  133.2160   63.0080 N   0  0  0  0  0  0  0  0  0  0  0  0
  124.0620  133.1000   62.5830 C   0  0  0  0  0  0  0  0  0  0  0  0
  123.3590  134.4650   62.4260 C   0  0  0  0  0  0  0  0  0  0  0  0
  124.0890  135.2880   61.5300 O   0  0  0  0  0  0  0  0  0  0  0  0
  125.4090  135.5270   61.9930 C   0  0  0  0  0  0  0  0  0  0  0  0
  126.1660  134.1910   62.1430 C   0  0  0  0  0  0  0  0  0  0  0  0
  127.4980  132.1540   63.8160 C   0  0  0  0  0  0  0  0  0  0  0  0
  128.1760  131.0390   64.3010 C   0  0  0  0  0  0  0  0  0  0  0  0
  128.8370  127.6550   64.1560 C   0  0  0  0  0  0  0  0  0  0  0  0
  128.8310  127.8160   62.6980 C   0  0  0  0  0  0  0  0  0  0  0  0
  128.8230  127.9450   61.5480 N   0  0  0  0  0  0  0  0  0  0  0  0
  125.7460  124.1590   60.4730 C   0  0  0  0  0  0  0  0  0  0  0  0
  125.2150  123.9120   59.2090 C   0  0  0  0  0  0  0  0  0  0  0  0
  1  2  1  0
  2  3  1  0
  3  4  1  0
  4  5  2  0
  4  6  1  0
  6  7  2  0
  7  8  1  0
  8  9  2  0
  9 10  1  0
 10 11  1  0
 11 12  2  0
 11 13  1  0
 13 14  1  0
 14 15  1  0
 15 16  2  0
 16 17  1  0
 17 18  1  0
 18 19  2  0
 19 20  1  0
 20 21  2  0
 21 22  1  0
 22 23  1  0
 23 24  1  0
 24 25  1  0
 25 26  1  0
 26 27  1  0
 21 28  1  0
 28 29  2  0
 17 30  2  0
 30 31  1  0
 31 32  1  0
 32 33  2  0
 33 34  1  0
 34 35  2  0
 35 36  1  0
 36 37  1  0
 37 38  1  0
 38 39  1  0
 39 40  1  0
 40 41  1  0
 35 42  1  0
 42 43  2  0
 31 44  2  0
 44 45  1  0
 45 46  3  0
  9 47  1  0
 47 48  2  0
 48  6  1  0
 44 15  1  0
 29 18  1  0
 43 32  1  0
 27 22  1  0
 41 36  1  0
M  END
>  <Binding energies>  (8) 
[-11.45]

>  <Ligand effiencies>  (8) 
[-0.2336734693877551]

>  <Interactions>  (8) 
["V-B:MET:535:CE:9806, V-B:TYR:539:C:9838, V-B:PRO:540:CD:9858, V-B:PRO:540:N:9855, V-B:PRO:540:CB:9856, H-B:TYR:531:OH:9766, V-B:PRO:540:CA:9854, V-B:LEU:363:CD1:8160, V-B:TYR:539:CZ:9848, H-B:GLU:543:OE2:9881, H-B:ALA:541:N:9862, V-A:GLU:543:CD:4908, V-B:LEU:475:CD1:9229, V-B:TRP:381:CH2:8343, V-A:GLU:543:CG:4907, V-A:ALA:541:CB:4892, V-B:TRP:381:CZ2:8341, V-B:ILE:369:CD1:8210, V-A:HIS:456:CD2:4067, V-B:GLU:543:CD:9879, V-B:HIS:456:CE1:9041, V-B:GLY:454:CA:9020, V-A:GLU:543:CB:4906, V-A:HIS:456:CE1:4069, H-B:LYS:547:NZ:9922, V-B:HIS:456:CD2:9039, V-B:GLU:543:CG:9878, V-B:GLU:543:CB:9877, V-B:ILE:369:CG2:8208, V-B:TYR:539:CD1:9844, V-B:TYR:539:CE1:9846, V-B:ALA:541:CB:9863, H-B:TYR:539:N:9841, V-B:SER:385:C:8376, V-B:ILE:538:CA:9831, V-B:ILE:538:C:9829, V-B:ILE:538:CD1:9836, V-B:LYS:547:CE:9921"]

$$$$
2aa_Ghoteimi_2023
     RDKit          3D

 48 53  0  0  0  0  0  0  0  0999 V2000
  132.4120  131.7870   54.8410 C   0  0  0  0  0  0  0  0  0  0  0  0
  131.0640  132.4940   55.0170 C   0  0  0  0  0  0  0  0  0  0  0  0
  131.0620  133.2040   56.2490 O   0  0  0  0  0  0  0  0  0  0  0  0
  130.0570  133.0460   57.1490 C   0  0  0  0  0  0  0  0  0  0  0  0
  129.0420  133.7510   57.1660 O   0  0  0  0  0  0  0  0  0  0  0  0
  130.2940  131.9180   58.1110 C   0  0  0  0  0  0  0  0  0  0  0  0
  131.4880  131.1810   58.1080 C   0  0  0  0  0  0  0  0  0  0  0  0
  131.6800  130.1430   59.0160 C   0  0  0  0  0  0  0  0  0  0  0  0
  130.6830  129.8160   59.9370 C   0  0  0  0  0  0  0  0  0  0  0  0
  130.9840  128.7520   60.8100 N   0  0  0  0  0  0  0  0  0  0  0  0
  130.1670  127.8290   61.3630 C   0  0  0  0  0  0  0  0  0  0  0  0
  128.9540  127.7450   61.1600 O   0  0  0  0  0  0  0  0  0  0  0  0
  130.8700  126.8260   62.2860 C   0  0  0  0  0  0  0  0  0  0  0  0
  129.9250  126.2780   63.2110 O   0  0  0  0  0  0  0  0  0  0  0  0
  129.3820  127.0780   64.2080 C   0  0  0  0  0  0  0  0  0  0  0  0
  128.7200  128.2080   63.8320 N   0  0  0  0  0  0  0  0  0  0  0  0
  128.1740  129.0100   64.7810 C   0  0  0  0  0  0  0  0  0  0  0  0
  127.4670  130.2350   64.2950 C   0  0  0  0  0  0  0  0  0  0  0  0
  128.0140  131.5060   64.5030 C   0  0  0  0  0  0  0  0  0  0  0  0
  127.3630  132.6500   64.0470 C   0  0  0  0  0  0  0  0  0  0  0  0
  126.1470  132.5640   63.3520 C   0  0  0  0  0  0  0  0  0  0  0  0
  125.4730  133.7040   62.8980 N   0  0  0  0  0  0  0  0  0  0  0  0
  126.1850  134.7870   62.1890 C   0  0  0  0  0  0  0  0  0  0  0  0
  125.3770  136.0970   62.0830 C   0  0  0  0  0  0  0  0  0  0  0  0
  124.1170  135.8430   61.4850 O   0  0  0  0  0  0  0  0  0  0  0  0
  123.3540  134.9240   62.2520 C   0  0  0  0  0  0  0  0  0  0  0  0
  124.1020  133.5790   62.3630 C   0  0  0  0  0  0  0  0  0  0  0  0
  125.5920  131.2900   63.1640 C   0  0  0  0  0  0  0  0  0  0  0  0
  126.2420  130.1470   63.6230 C   0  0  0  0  0  0  0  0  0  0  0  0
  128.2920  128.7050   66.1400 C   0  0  0  0  0  0  0  0  0  0  0  0
  128.9770  127.5550   66.5530 C   0  0  0  0  0  0  0  0  0  0  0  0
  129.0930  127.2960   68.0210 C   0  0  0  0  0  0  0  0  0  0  0  0
  128.3290  126.2930   68.6220 C   0  0  0  0  0  0  0  0  0  0  0  0
  128.4170  126.0600   69.9920 C   0  0  0  0  0  0  0  0  0  0  0  0
  129.2620  126.8330   70.8030 C   0  0  0  0  0  0  0  0  0  0  0  0
  129.3690  126.6140   72.1790 N   0  0  0  0  0  0  0  0  0  0  0  0
  129.1940  125.2690   72.7590 C   0  0  0  0  0  0  0  0  0  0  0  0
  129.6920  125.1590   74.2160 C   0  0  0  0  0  0  0  0  0  0  0  0
  129.0600  126.1430   75.0200 O   0  0  0  0  0  0  0  0  0  0  0  0
  129.3420  127.4550   74.5580 C   0  0  0  0  0  0  0  0  0  0  0  0
  128.8340  127.6270   73.1120 C   0  0  0  0  0  0  0  0  0  0  0  0
  130.0300  127.8320   70.1890 C   0  0  0  0  0  0  0  0  0  0  0  0
  129.9420  128.0660   68.8200 C   0  0  0  0  0  0  0  0  0  0  0  0
  129.5240  126.7120   65.5580 C   0  0  0  0  0  0  0  0  0  0  0  0
  130.2130  125.4640   65.8950 C   0  0  0  0  0  0  0  0  0  0  0  0
  130.7560  124.4780   66.1620 N   0  0  0  0  0  0  0  0  0  0  0  0
  129.4900  130.5520   59.9510 C   0  0  0  0  0  0  0  0  0  0  0  0
  129.3020  131.5920   59.0440 C   0  0  0  0  0  0  0  0  0  0  0  0
  1  2  1  0
  2  3  1  0
  3  4  1  0
  4  5  2  0
  4  6  1  0
  6  7  2  0
  7  8  1  0
  8  9  2  0
  9 10  1  0
 10 11  1  0
 11 12  2  0
 11 13  1  0
 13 14  1  0
 14 15  1  0
 15 16  2  0
 16 17  1  0
 17 18  1  0
 18 19  2  0
 19 20  1  0
 20 21  2  0
 21 22  1  0
 22 23  1  0
 23 24  1  0
 24 25  1  0
 25 26  1  0
 26 27  1  0
 21 28  1  0
 28 29  2  0
 17 30  2  0
 30 31  1  0
 31 32  1  0
 32 33  2  0
 33 34  1  0
 34 35  2  0
 35 36  1  0
 36 37  1  0
 37 38  1  0
 38 39  1  0
 39 40  1  0
 40 41  1  0
 35 42  1  0
 42 43  2  0
 31 44  2  0
 44 45  1  0
 45 46  3  0
  9 47  1  0
 47 48  2  0
 48  6  1  0
 44 15  1  0
 29 18  1  0
 43 32  1  0
 27 22  1  0
 41 36  1  0
M  END
>  <Binding energies>  (9) 
[-10.25]

>  <Ligand effiencies>  (9) 
[-0.20918367346938777]

>  <Interactions>  (9) 
["V-A:ASP:366:CG:3212, V-A:PRO:540:N:4884, V-A:GLU:543:CD:4908, V-B:LEU:475:CD1:9229, V-B:TRP:381:CH2:8343, V-A:GLU:543:CG:4907, V-A:ALA:541:CB:4892, V-B:TRP:381:CZ2:8341, V-A:TYR:539:C:4867, V-B:ILE:369:CD1:8210, V-A:HIS:456:CD2:4067, V-B:GLU:543:CD:9879, V-B:HIS:456:CE1:9041, V-A:GLU:543:CB:4906, V-A:HIS:456:CE1:4069, H-B:LYS:547:NZ:9922, V-B:HIS:456:CD2:9039, V-B:GLU:543:CG:9878, V-B:GLU:543:CB:9877, H-A:TYR:484:OH:4347, V-B:ILE:369:CG2:8208, V-A:TYR:531:CE2:4793, V-A:LEU:363:CD1:3188, V-A:TYR:531:CZ:4794, V-A:MET:535:CE:4835, H-A:TYR:539:N:4870, V-A:TYR:539:CA:4869, V-B:SER:385:C:8376, V-A:ILE:538:CA:4860, V-A:ILE:538:CB:4862, V-A:ILE:538:CG2:4863, H-A:ASP:366:OD2:3214, H-A:ASP:366:OD1:3213, V-A:MET:535:CG:4833, V-A:TYR:531:CD2:4791, V-B:LYS:547:CE:9921"]

$$$$
2b_Ghoteimi_2023
     RDKit          3D

 42 47  0  0  0  0  0  0  0  0999 V2000
  127.7690  132.2140   64.9470 N   0  0  0  0  0  0  0  0  0  0  0  0
  127.6530  131.3390   64.1980 C   0  0  0  0  0  0  0  0  0  0  0  0
  127.5080  130.2280   63.2530 C   0  0  0  0  0  0  0  0  0  0  0  0
  127.6600  128.8880   63.6890 C   0  0  0  0  0  0  0  0  0  0  0  0
  127.9700  128.5030   65.0980 C   0  0  0  0  0  0  0  0  0  0  0  0
  128.9760  127.5740   65.3690 C   0  0  0  0  0  0  0  0  0  0  0  0
  129.2680  127.2110   66.6810 C   0  0  0  0  0  0  0  0  0  0  0  0
  128.5490  127.7550   67.7570 C   0  0  0  0  0  0  0  0  0  0  0  0
  128.8320  127.4160   69.0810 N   0  0  0  0  0  0  0  0  0  0  0  0
  128.6050  126.0290   69.5330 C   0  0  0  0  0  0  0  0  0  0  0  0
  128.5900  125.8810   71.0690 C   0  0  0  0  0  0  0  0  0  0  0  0
  129.7850  126.4100   71.6230 O   0  0  0  0  0  0  0  0  0  0  0  0
  129.9410  127.7860   71.3160 C   0  0  0  0  0  0  0  0  0  0  0  0
  130.0000  127.9800   69.7870 C   0  0  0  0  0  0  0  0  0  0  0  0
  127.5380  128.6840   67.4740 C   0  0  0  0  0  0  0  0  0  0  0  0
  127.2490  129.0500   66.1630 C   0  0  0  0  0  0  0  0  0  0  0  0
  127.5070  127.8600   62.7510 C   0  0  0  0  0  0  0  0  0  0  0  0
  127.1790  128.1550   61.4240 C   0  0  0  0  0  0  0  0  0  0  0  0
  126.9750  127.0930   60.3910 C   0  0  0  0  0  0  0  0  0  0  0  0
  126.7400  125.7660   60.7680 C   0  0  0  0  0  0  0  0  0  0  0  0
  126.5330  124.7760   59.8120 C   0  0  0  0  0  0  0  0  0  0  0  0
  126.5660  125.0730   58.4400 C   0  0  0  0  0  0  0  0  0  0  0  0
  126.3300  124.0940   57.4680 N   0  0  0  0  0  0  0  0  0  0  0  0
  127.4680  123.4440   56.7860 C   0  0  0  0  0  0  0  0  0  0  0  0
  127.0690  122.6950   55.4960 C   0  0  0  0  0  0  0  0  0  0  0  0
  126.0410  121.7570   55.7770 O   0  0  0  0  0  0  0  0  0  0  0  0
  124.8800  122.3960   56.2810 C   0  0  0  0  0  0  0  0  0  0  0  0
  125.2110  123.1390   57.5920 C   0  0  0  0  0  0  0  0  0  0  0  0
  126.7950  126.4050   58.0670 C   0  0  0  0  0  0  0  0  0  0  0  0
  126.9990  127.3950   59.0240 C   0  0  0  0  0  0  0  0  0  0  0  0
  127.0320  129.4390   61.0090 N   0  0  0  0  0  0  0  0  0  0  0  0
  127.2080  130.4520   61.8900 C   0  0  0  0  0  0  0  0  0  0  0  0
  126.9830  132.0660   61.1750 S   0  0  0  0  0  0  0  0  0  0  0  0
  128.4510  133.0580   61.5840 C   0  0  0  0  0  0  0  0  0  0  0  0
  129.5730  132.8720   60.5620 C   0  0  0  0  0  0  0  0  0  0  0  0
  130.7160  132.6340   60.9570 O   0  0  0  0  0  0  0  0  0  0  0  0
  129.2070  132.9940   59.2680 N   0  0  0  0  0  0  0  0  0  0  0  0
  130.0170  132.8630   58.1480 C   0  0  0  0  0  0  0  0  0  0  0  0
  131.2000  132.1260   58.1470 C   0  0  0  0  0  0  0  0  0  0  0  0
  131.6940  132.2450   56.8690 C   0  0  0  0  0  0  0  0  0  0  0  0
  130.8520  133.0130   56.1380 O   0  0  0  0  0  0  0  0  0  0  0  0
  129.7900  133.3980   56.9600 N   0  0  0  0  0  0  0  0  0  0  0  0
  1  2  3  0
  2  3  1  0
  3  4  2  0
  4  5  1  0
  5  6  2  0
  6  7  1  0
  7  8  2  0
  8  9  1  0
  9 10  1  0
 10 11  1  0
 11 12  1  0
 12 13  1  0
 13 14  1  0
  8 15  1  0
 15 16  2  0
  4 17  1  0
 17 18  2  0
 18 19  1  0
 19 20  2  0
 20 21  1  0
 21 22  2  0
 22 23  1  0
 23 24  1  0
 24 25  1  0
 25 26  1  0
 26 27  1  0
 27 28  1  0
 22 29  1  0
 29 30  2  0
 18 31  1  0
 31 32  2  0
 32 33  1  0
 33 34  1  0
 34 35  1  0
 35 36  2  0
 35 37  1  0
 37 38  1  0
 38 39  1  0
 39 40  2  0
 40 41  1  0
 41 42  1  0
 32  3  1  0
 42 38  2  0
 16  5  1  0
 30 19  1  0
 14  9  1  0
 28 23  1  0
M  END
>  <Binding energies>  (10) 
[-11.21]

>  <Ligand effiencies>  (10) 
[-0.2606976744186047]

>  <Interactions>  (10) 
["V-B:MET:535:CE:9806, V-B:PRO:540:CD:9858, V-B:PRO:540:N:9855, V-B:PRO:540:CB:9856, V-B:PRO:540:CA:9854, V-B:LEU:363:CD1:8160, V-B:TYR:539:CZ:9848, V-A:PRO:540:N:4884, V-A:GLU:543:CD:4908, V-A:GLU:543:CG:4907, V-A:PRO:540:CB:4885, V-A:TYR:539:CD2:4874, V-A:ALA:541:CB:4892, H-A:ALA:541:N:4891, V-A:PRO:540:CA:4883, V-A:TYR:539:C:4867, V-B:GLU:543:CD:9879, V-B:HIS:456:CE1:9041, V-A:GLU:543:CB:4906, V-A:HIS:456:CE1:4069, V-B:GLU:543:CB:9877, V-B:TYR:539:CD1:9844, V-B:TYR:539:CE1:9846, H-B:TYR:539:N:9841, V-A:LEU:363:CD1:3188, H-A:TYR:539:O:4868, H-A:TYR:539:N:4870, V-B:ILE:538:CG2:9834"]

$$$$
2c_Ghoteimi_2023
     RDKit          3D

 42 47  0  0  0  0  0  0  0  0999 V2000
  127.8020  132.4230   64.8080 N   0  0  0  0  0  0  0  0  0  0  0  0
  127.6670  131.5440   64.0690 C   0  0  0  0  0  0  0  0  0  0  0  0
  127.4940  130.4250   63.1370 C   0  0  0  0  0  0  0  0  0  0  0  0
  127.6050  129.0870   63.5880 C   0  0  0  0  0  0  0  0  0  0  0  0
  127.9010  128.7070   65.0020 C   0  0  0  0  0  0  0  0  0  0  0  0
  128.8740  127.7460   65.2830 C   0  0  0  0  0  0  0  0  0  0  0  0
  129.1580  127.3900   66.5990 C   0  0  0  0  0  0  0  0  0  0  0  0
  128.4670  127.9760   67.6710 C   0  0  0  0  0  0  0  0  0  0  0  0
  128.7500  127.6480   68.9990 N   0  0  0  0  0  0  0  0  0  0  0  0
  128.6900  126.2360   69.4230 C   0  0  0  0  0  0  0  0  0  0  0  0
  128.6390  126.0620   70.9560 C   0  0  0  0  0  0  0  0  0  0  0  0
  129.7400  126.7250   71.5590 O   0  0  0  0  0  0  0  0  0  0  0  0
  129.7320  128.1160   71.2760 C   0  0  0  0  0  0  0  0  0  0  0  0
  129.8110  128.3440   69.7520 C   0  0  0  0  0  0  0  0  0  0  0  0
  127.4890  128.9370   67.3780 C   0  0  0  0  0  0  0  0  0  0  0  0
  127.2070  129.2940   66.0630 C   0  0  0  0  0  0  0  0  0  0  0  0
  127.4290  128.0530   62.6590 C   0  0  0  0  0  0  0  0  0  0  0  0
  127.1240  128.3440   61.3260 C   0  0  0  0  0  0  0  0  0  0  0  0
  126.9090  127.2770   60.3000 C   0  0  0  0  0  0  0  0  0  0  0  0
  126.8950  127.5900   58.9370 C   0  0  0  0  0  0  0  0  0  0  0  0
  126.7010  126.6000   57.9770 C   0  0  0  0  0  0  0  0  0  0  0  0
  126.5020  125.2600   58.3460 C   0  0  0  0  0  0  0  0  0  0  0  0
  126.3310  124.2500   57.3930 N   0  0  0  0  0  0  0  0  0  0  0  0
  127.5100  123.6590   56.7280 C   0  0  0  0  0  0  0  0  0  0  0  0
  127.1660  122.8580   55.4540 C   0  0  0  0  0  0  0  0  0  0  0  0
  126.2040  121.8610   55.7540 O   0  0  0  0  0  0  0  0  0  0  0  0
  125.0000  122.4300   56.2440 C   0  0  0  0  0  0  0  0  0  0  0  0
  125.2780  123.2230   57.5380 C   0  0  0  0  0  0  0  0  0  0  0  0
  126.5300  124.9500   59.7130 C   0  0  0  0  0  0  0  0  0  0  0  0
  126.7250  125.9400   60.6720 C   0  0  0  0  0  0  0  0  0  0  0  0
  127.0160  129.6270   60.8970 N   0  0  0  0  0  0  0  0  0  0  0  0
  127.2130  130.6440   61.7690 C   0  0  0  0  0  0  0  0  0  0  0  0
  127.0440  132.2550   61.0350 S   0  0  0  0  0  0  0  0  0  0  0  0
  128.5300  133.2100   61.4660 C   0  0  0  0  0  0  0  0  0  0  0  0
  129.7000  132.9040   60.5300 C   0  0  0  0  0  0  0  0  0  0  0  0
  130.8000  132.6230   61.0090 O   0  0  0  0  0  0  0  0  0  0  0  0
  129.4240  132.9740   59.2100 N   0  0  0  0  0  0  0  0  0  0  0  0
  130.3010  132.7270   58.1640 C   0  0  0  0  0  0  0  0  0  0  0  0
  130.4080  133.3800   57.0280 N   0  0  0  0  0  0  0  0  0  0  0  0
  131.3570  132.8740   56.2650 C   0  0  0  0  0  0  0  0  0  0  0  0
  132.0460  131.7820   56.7830 C   0  0  0  0  0  0  0  0  0  0  0  0
  131.4080  131.4060   58.3560 S   0  0  0  0  0  0  0  0  0  0  0  0
  1  2  3  0
  2  3  1  0
  3  4  2  0
  4  5  1  0
  5  6  2  0
  6  7  1  0
  7  8  2  0
  8  9  1  0
  9 10  1  0
 10 11  1  0
 11 12  1  0
 12 13  1  0
 13 14  1  0
  8 15  1  0
 15 16  2  0
  4 17  1  0
 17 18  2  0
 18 19  1  0
 19 20  2  0
 20 21  1  0
 21 22  2  0
 22 23  1  0
 23 24  1  0
 24 25  1  0
 25 26  1  0
 26 27  1  0
 27 28  1  0
 22 29  1  0
 29 30  2  0
 18 31  1  0
 31 32  2  0
 32 33  1  0
 33 34  1  0
 34 35  1  0
 35 36  2  0
 35 37  1  0
 37 38  1  0
 38 39  2  0
 39 40  1  0
 40 41  2  0
 41 42  1  0
 32  3  1  0
 42 38  1  0
 16  5  1  0
 30 19  1  0
 14  9  1  0
 28 23  1  0
M  END
>  <Binding energies>  (11) 
[-10.85]

>  <Ligand effiencies>  (11) 
[-0.25232558139534883]

>  <Interactions>  (11) 
["V-B:MET:535:CE:9806, V-B:PRO:540:CD:9858, V-B:PRO:540:N:9855, V-B:PRO:540:CB:9856, V-B:PRO:540:CA:9854, V-B:LEU:363:CD1:8160, V-B:TYR:539:CZ:9848, V-A:PRO:540:N:4884, V-A:GLU:543:CD:4908, V-A:GLU:543:CG:4907, V-A:TYR:539:CD2:4874, V-A:ALA:541:CB:4892, H-A:ALA:541:N:4891, V-A:PRO:540:CA:4883, V-A:TYR:539:C:4867, V-B:GLU:543:CD:9879, V-B:HIS:456:CE1:9041, V-A:GLU:543:CB:4906, V-A:HIS:456:CE1:4069, V-B:GLU:543:CB:9877, V-B:TYR:539:CD1:9844, V-B:TYR:539:CE1:9846, H-B:TYR:539:N:9841, V-A:LEU:363:CD1:3188, H-A:TYR:539:O:4868, H-A:TYR:539:N:4870, V-A:ILE:538:CA:4860, V-A:ILE:538:CB:4862, V-B:ILE:538:CG2:9834, V-A:PRO:540:C:4881"]

$$$$
2j_Grossjean_2025
     RDKit          3D

 23 24  0  0  0  0  0  0  0  0999 V2000
  127.3340  133.5970   61.5990 C   0  0  0  0  0  0  0  0  0  0  0  0
  128.5160  133.0680   60.8080 C   0  0  0  0  0  0  0  0  0  0  0  0
  129.6880  132.6560   61.4370 C   0  0  0  0  0  0  0  0  0  0  0  0
  130.7530  132.1710   60.6620 C   0  0  0  0  0  0  0  0  0  0  0  0
  132.0420  131.7180   61.3740 C   0  0  0  0  0  0  0  0  0  0  0  0
  132.1890  132.3850   62.5200 F   0  0  0  0  0  0  0  0  0  0  0  0
  131.9830  130.4120   61.6380 F   0  0  0  0  0  0  0  0  0  0  0  0
  133.1380  131.9310   60.6420 F   0  0  0  0  0  0  0  0  0  0  0  0
  130.5970  132.1200   59.2540 C   0  0  0  0  0  0  0  0  0  0  0  0
  131.6770  131.6230   58.3960 C   0  0  0  0  0  0  0  0  0  0  0  0
  132.5300  131.2300   57.7190 N   0  0  0  0  0  0  0  0  0  0  0  0
  129.3720  132.5600   58.7000 C   0  0  0  0  0  0  0  0  0  0  0  0
  129.0640  132.5390   56.9400 S   0  0  0  0  0  0  0  0  0  0  0  0
  128.3210  130.9290   56.5050 C   0  0  0  0  0  0  0  0  0  0  0  0
  126.8530  130.7620   56.9240 C   0  0  0  0  0  0  0  0  0  0  0  0
  126.1050  130.0000   56.3070 O   0  0  0  0  0  0  0  0  0  0  0  0
  126.4780  131.5110   57.9840 N   0  0  0  0  0  0  0  0  0  0  0  0
  125.2180  131.5510   58.5680 C   0  0  0  0  0  0  0  0  0  0  0  0
  124.0800  131.8990   58.0070 N   0  0  0  0  0  0  0  0  0  0  0  0
  123.0750  131.8180   58.8570 C   0  0  0  0  0  0  0  0  0  0  0  0
  123.3910  131.3960   60.1450 C   0  0  0  0  0  0  0  0  0  0  0  0
  125.1000  131.0910   60.2360 S   0  0  0  0  0  0  0  0  0  0  0  0
  128.3520  133.0240   59.4670 N   0  0  0  0  0  0  0  0  0  0  0  0
  1  2  1  0
  2  3  2  0
  3  4  1  0
  4  5  1  0
  5  6  1  0
  5  7  1  0
  5  8  1  0
  4  9  2  0
  9 10  1  0
 10 11  3  0
  9 12  1  0
 12 13  1  0
 13 14  1  0
 14 15  1  0
 15 16  2  0
 15 17  1  0
 17 18  1  0
 18 19  2  0
 19 20  1  0
 20 21  2  0
 21 22  1  0
 12 23  2  0
 23  2  1  0
 22 18  1  0
M  END
>  <Binding energies>  (12) 
[-5.88]

>  <Ligand effiencies>  (12) 
[-0.245]

>  <Interactions>  (12) 
["V-B:ASP:366:CG:8184, V-A:ASP:366:CG:3212, H-B:TYR:531:OH:9766, V-B:ASP:366:CB:8183, V-A:PRO:540:N:4884, V-A:PRO:540:CB:4885, V-A:ALA:541:CB:4892, V-A:ALA:541:CA:4890, V-A:PRO:540:CA:4883, V-A:TYR:539:C:4867, V-B:ILE:369:CD1:8210, V-B:ILE:369:CG2:8208, V-A:TYR:539:CE2:4876, V-A:TYR:539:CZ:4877, V-B:ASP:366:CA:8181, V-B:ASP:366:C:8179, V-A:MET:535:CE:4835, H-A:TYR:539:OH:4878, V-B:ILE:369:CB:8207, V-A:PRO:540:C:4881, V-A:ALA:541:C:4888"]

$$$$
3ab_Grossjean_2025
     RDKit          3D

 33 35  0  0  0  0  0  0  0  0999 V2000
  133.6010  125.5380   66.6200 C   0  0  0  0  0  0  0  0  0  0  0  0
  133.8360  124.6490   65.5370 O   0  0  0  0  0  0  0  0  0  0  0  0
  133.6940  125.0600   64.2510 C   0  0  0  0  0  0  0  0  0  0  0  0
  134.6460  125.2910   63.5010 O   0  0  0  0  0  0  0  0  0  0  0  0
  132.2600  125.2040   63.8300 C   0  0  0  0  0  0  0  0  0  0  0  0
  131.2150  124.5650   64.5160 C   0  0  0  0  0  0  0  0  0  0  0  0
  129.8950  124.7180   64.1040 C   0  0  0  0  0  0  0  0  0  0  0  0
  129.5940  125.5170   62.9890 C   0  0  0  0  0  0  0  0  0  0  0  0
  128.2980  125.7460   62.4890 N   0  0  0  0  0  0  0  0  0  0  0  0
  127.8700  126.6330   61.5650 C   0  0  0  0  0  0  0  0  0  0  0  0
  128.5780  127.4510   60.9770 O   0  0  0  0  0  0  0  0  0  0  0  0
  126.3720  126.5850   61.2550 C   0  0  0  0  0  0  0  0  0  0  0  0
  125.6940  124.9060   61.4090 S   0  0  0  0  0  0  0  0  0  0  0  0
  126.4890  123.8940   60.1780 C   0  0  0  0  0  0  0  0  0  0  0  0
  127.6690  123.3710   60.5870 N   0  0  0  0  0  0  0  0  0  0  0  0
  128.3810  122.5730   59.7500 C   0  0  0  0  0  0  0  0  0  0  0  0
  129.6760  122.0310   60.2800 C   0  0  0  0  0  0  0  0  0  0  0  0
  129.7760  120.6960   60.7030 C   0  0  0  0  0  0  0  0  0  0  0  0
  130.9750  120.1880   61.1950 C   0  0  0  0  0  0  0  0  0  0  0  0
  132.0940  121.0110   61.2720 C   0  0  0  0  0  0  0  0  0  0  0  0
  132.0210  122.3380   60.8630 C   0  0  0  0  0  0  0  0  0  0  0  0
  130.8200  122.8420   60.3720 C   0  0  0  0  0  0  0  0  0  0  0  0
  127.9220  122.3010   58.4560 C   0  0  0  0  0  0  0  0  0  0  0  0
  126.7120  122.8470   58.0030 C   0  0  0  0  0  0  0  0  0  0  0  0
  126.2440  122.5270   56.5700 C   0  0  0  0  0  0  0  0  0  0  0  0
  127.1140  121.7680   55.8990 F   0  0  0  0  0  0  0  0  0  0  0  0
  125.0830  121.8710   56.6010 F   0  0  0  0  0  0  0  0  0  0  0  0
  126.0830  123.6580   55.8810 F   0  0  0  0  0  0  0  0  0  0  0  0
  125.9720  123.6760   58.8810 C   0  0  0  0  0  0  0  0  0  0  0  0
  124.7310  124.3180   58.4380 C   0  0  0  0  0  0  0  0  0  0  0  0
  123.7510  124.8230   58.0860 N   0  0  0  0  0  0  0  0  0  0  0  0
  130.6290  126.1580   62.3080 C   0  0  0  0  0  0  0  0  0  0  0  0
  131.9490  126.0030   62.7220 C   0  0  0  0  0  0  0  0  0  0  0  0
  1  2  1  0
  2  3  1  0
  3  4  2  0
  3  5  1  0
  5  6  2  0
  6  7  1  0
  7  8  2  0
  8  9  1  0
  9 10  1  0
 10 11  2  0
 10 12  1  0
 12 13  1  0
 13 14  1  0
 14 15  2  0
 15 16  1  0
 16 17  1  0
 17 18  2  0
 18 19  1  0
 19 20  2  0
 20 21  1  0
 21 22  2  0
 16 23  2  0
 23 24  1  0
 24 25  1  0
 25 26  1  0
 25 27  1  0
 25 28  1  0
 24 29  2  0
 29 30  1  0
 30 31  3  0
  8 32  1  0
 32 33  2  0
 33  5  1  0
 29 14  1  0
 22 17  1  0
M  END
>  <Binding energies>  (13) 
[-8.2]

>  <Ligand effiencies>  (13) 
[-0.24117647058823527]

>  <Interactions>  (13) 
["V-B:TYR:539:CD2:9845, V-B:MET:535:CE:9806, V-B:ASP:366:CG:8184, V-B:TYR:539:CE2:9847, V-B:TYR:539:C:9838, V-B:PRO:540:CD:9858, V-B:PRO:540:N:9855, V-A:ILE:369:CG2:3236, V-B:PRO:540:CB:9856, H-B:TYR:531:OH:9766, V-B:PRO:540:CA:9854, V-B:LEU:363:CD1:8160, V-B:TYR:539:CZ:9848, H-B:GLU:543:OE2:9881, V-B:GLU:543:CD:9879, H-B:ARG:545:NH2:9899, V-A:HIS:456:CE1:4069, V-A:LEU:475:CD2:4258, V-B:GLU:543:CG:9878, H-A:TYR:484:OH:4347, H-A:ARG:545:NH2:4928, V-A:ARG:545:CZ:4926, V-B:TYR:539:CA:9840, V-B:TYR:539:CD1:9844, V-B:TYR:539:CG:9843, V-B:TYR:539:CE1:9846, V-B:ALA:541:CB:9863, H-A:ARG:545:NH1:4927, H-A:GLY:454:N:4049, V-B:PRO:540:CG:9857, V-B:TYR:539:CB:9842, V-B:ILE:538:CA:9831, V-B:ILE:538:C:9829, V-B:ILE:538:CG2:9834, V-A:ARG:545:CG:4922, V-A:ARG:545:CD:4923, V-A:GLY:453:CA:4043"]

$$$$
3ac_Grossjean_2025
     RDKit          3D

 31 33  0  0  0  0  0  0  0  0999 V2000
  133.7870  125.1580   65.7860 C   0  0  0  0  0  0  0  0  0  0  0  0
  133.5540  124.7280   64.4490 O   0  0  0  0  0  0  0  0  0  0  0  0
  132.3150  124.9440   63.8770 C   0  0  0  0  0  0  0  0  0  0  0  0
  131.2190  124.9210   64.7390 C   0  0  0  0  0  0  0  0  0  0  0  0
  129.9320  125.1320   64.2550 C   0  0  0  0  0  0  0  0  0  0  0  0
  129.7200  125.3610   62.8940 C   0  0  0  0  0  0  0  0  0  0  0  0
  128.3870  125.5840   62.5020 N   0  0  0  0  0  0  0  0  0  0  0  0
  127.9070  126.4110   61.5480 C   0  0  0  0  0  0  0  0  0  0  0  0
  128.5930  127.1080   60.8000 O   0  0  0  0  0  0  0  0  0  0  0  0
  126.3840  126.4530   61.4180 C   0  0  0  0  0  0  0  0  0  0  0  0
  125.6480  124.7890   61.4190 S   0  0  0  0  0  0  0  0  0  0  0  0
  126.4440  123.8100   60.1600 C   0  0  0  0  0  0  0  0  0  0  0  0
  127.6110  123.2600   60.5720 N   0  0  0  0  0  0  0  0  0  0  0  0
  128.3290  122.4810   59.7220 C   0  0  0  0  0  0  0  0  0  0  0  0
  129.6130  121.9150   60.2530 C   0  0  0  0  0  0  0  0  0  0  0  0
  130.7950  122.6750   60.2340 C   0  0  0  0  0  0  0  0  0  0  0  0
  131.9870  122.1580   60.7310 C   0  0  0  0  0  0  0  0  0  0  0  0
  132.0160  120.8690   61.2540 C   0  0  0  0  0  0  0  0  0  0  0  0
  130.8620  120.0940   61.2800 C   0  0  0  0  0  0  0  0  0  0  0  0
  129.6710  120.6150   60.7820 C   0  0  0  0  0  0  0  0  0  0  0  0
  127.8890  122.2520   58.4150 C   0  0  0  0  0  0  0  0  0  0  0  0
  126.6950  122.8290   57.9560 C   0  0  0  0  0  0  0  0  0  0  0  0
  126.2500  122.5550   56.5060 C   0  0  0  0  0  0  0  0  0  0  0  0
  127.1040  121.7760   55.8400 F   0  0  0  0  0  0  0  0  0  0  0  0
  125.0640  121.9440   56.4950 F   0  0  0  0  0  0  0  0  0  0  0  0
  126.1490  123.7050   55.8390 F   0  0  0  0  0  0  0  0  0  0  0  0
  125.9520  123.6460   58.8450 C   0  0  0  0  0  0  0  0  0  0  0  0
  124.7410  124.3310   58.3880 C   0  0  0  0  0  0  0  0  0  0  0  0
  123.7850  124.8730   58.0260 N   0  0  0  0  0  0  0  0  0  0  0  0
  130.8180  125.3930   62.0210 C   0  0  0  0  0  0  0  0  0  0  0  0
  132.1050  125.1820   62.5090 C   0  0  0  0  0  0  0  0  0  0  0  0
  1  2  1  0
  2  3  1  0
  3  4  2  0
  4  5  1  0
  5  6  2  0
  6  7  1  0
  7  8  1  0
  8  9  2  0
  8 10  1  0
 10 11  1  0
 11 12  1  0
 12 13  2  0
 13 14  1  0
 14 15  1  0
 15 16  2  0
 16 17  1  0
 17 18  2  0
 18 19  1  0
 19 20  2  0
 14 21  2  0
 21 22  1  0
 22 23  1  0
 23 24  1  0
 23 25  1  0
 23 26  1  0
 22 27  2  0
 27 28  1  0
 28 29  3  0
  6 30  1  0
 30 31  2  0
 31  3  1  0
 27 12  1  0
 20 15  1  0
M  END
>  <Binding energies>  (14) 
[-7.7]

>  <Ligand effiencies>  (14) 
[-0.240625]

>  <Interactions>  (14) 
["V-B:TYR:539:CD2:9845, V-B:MET:535:CE:9806, V-B:ASP:366:CG:8184, V-B:TYR:539:CE2:9847, V-B:TYR:539:C:9838, V-B:PRO:540:CD:9858, V-B:PRO:540:N:9855, V-A:ILE:369:CG2:3236, V-B:PRO:540:CB:9856, H-B:TYR:531:OH:9766, V-B:PRO:540:CA:9854, V-B:LEU:363:CD1:8160, V-B:TYR:539:CZ:9848, H-B:GLU:543:OE2:9881, H-B:ALA:541:N:9862, V-B:GLU:543:CD:9879, H-B:ARG:545:NH2:9899, V-A:LEU:475:CD2:4258, V-B:GLU:543:CG:9878, H-A:TYR:484:OH:4347, V-A:GLY:454:CA:4048, V-A:ARG:545:CZ:4926, V-B:TYR:539:CA:9840, V-B:TYR:539:CD1:9844, V-B:TYR:539:CG:9843, V-B:TYR:539:CE1:9846, V-B:ALA:541:CB:9863, H-A:GLY:454:N:4049, V-B:PRO:540:CG:9857, V-B:TYR:539:CB:9842, V-B:ILE:538:CA:9831, V-B:ILE:538:C:9829, V-B:ILE:538:CG2:9834, V-A:ARG:545:CD:4923"]

$$$$
3af_Grossjean_2025
     RDKit          3D

 29 31  0  0  0  0  0  0  0  0999 V2000
  123.7290  133.7390   61.3200 N   0  0  0  0  0  0  0  0  0  0  0  0
  124.8610  133.5040   61.2510 C   0  0  0  0  0  0  0  0  0  0  0  0
  126.2930  133.2080   61.1630 C   0  0  0  0  0  0  0  0  0  0  0  0
  127.2550  134.1820   61.5270 C   0  0  0  0  0  0  0  0  0  0  0  0
  126.8690  135.5700   62.0740 C   0  0  0  0  0  0  0  0  0  0  0  0
  125.7990  135.5330   62.8720 F   0  0  0  0  0  0  0  0  0  0  0  0
  127.8790  136.0770   62.7810 F   0  0  0  0  0  0  0  0  0  0  0  0
  126.5860  136.3970   61.0670 F   0  0  0  0  0  0  0  0  0  0  0  0
  128.6150  133.8710   61.3740 C   0  0  0  0  0  0  0  0  0  0  0  0
  129.0030  132.6250   60.8710 C   0  0  0  0  0  0  0  0  0  0  0  0
  130.4400  132.2480   60.6700 C   0  0  0  0  0  0  0  0  0  0  0  0
  130.9920  132.1850   59.3800 C   0  0  0  0  0  0  0  0  0  0  0  0
  132.3270  131.8380   59.1870 C   0  0  0  0  0  0  0  0  0  0  0  0
  133.1290  131.5490   60.2850 C   0  0  0  0  0  0  0  0  0  0  0  0
  132.6090  131.6060   61.5730 C   0  0  0  0  0  0  0  0  0  0  0  0
  131.2740  131.9550   61.7620 C   0  0  0  0  0  0  0  0  0  0  0  0
  128.0780  131.6960   60.5200 N   0  0  0  0  0  0  0  0  0  0  0  0
  126.7590  131.9640   60.6800 C   0  0  0  0  0  0  0  0  0  0  0  0
  125.7000  130.6210   60.1810 S   0  0  0  0  0  0  0  0  0  0  0  0
  125.2050  130.9080   58.4550 C   0  0  0  0  0  0  0  0  0  0  0  0
  126.3910  130.7970   57.4970 C   0  0  0  0  0  0  0  0  0  0  0  0
  126.3340  129.9960   56.5640 O   0  0  0  0  0  0  0  0  0  0  0  0
  127.4340  131.6100   57.7720 N   0  0  0  0  0  0  0  0  0  0  0  0
  128.6650  131.7490   57.1020 C   0  0  0  0  0  0  0  0  0  0  0  0
  129.5420  130.7000   56.7690 C   0  0  0  0  0  0  0  0  0  0  0  0
  130.7360  130.9820   56.1030 C   0  0  0  0  0  0  0  0  0  0  0  0
  131.0270  132.3100   55.7860 C   0  0  0  0  0  0  0  0  0  0  0  0
  130.1990  133.3380   56.0950 N   0  0  0  0  0  0  0  0  0  0  0  0
  129.0420  133.0470   56.7420 C   0  0  0  0  0  0  0  0  0  0  0  0
  1  2  3  0
  2  3  1  0
  3  4  2  0
  4  5  1  0
  5  6  1  0
  5  7  1  0
  5  8  1  0
  4  9  1  0
  9 10  2  0
 10 11  1  0
 11 12  2  0
 12 13  1  0
 13 14  2  0
 14 15  1  0
 15 16  2  0
 10 17  1  0
 17 18  2  0
 18 19  1  0
 19 20  1  0
 20 21  1  0
 21 22  2  0
 21 23  1  0
 23 24  1  0
 24 25  2  0
 25 26  1  0
 26 27  2  0
 27 28  1  0
 28 29  2  0
 18  3  1  0
 29 24  1  0
 16 11  1  0
M  END
>  <Binding energies>  (15) 
[-7.5]

>  <Ligand effiencies>  (15) 
[-0.25]

>  <Interactions>  (15) 
["V-A:ASP:366:CG:3212, H-B:TYR:531:OH:9766, V-B:ASP:366:CB:8183, V-A:PRO:540:N:4884, V-B:PRO:482:CB:9297, V-B:LEU:475:CD1:9229, V-B:TRP:381:CH2:8343, V-A:PRO:540:CB:4885, V-A:TYR:539:CD2:4874, V-A:ALA:541:CB:4892, V-B:PRO:482:CG:9298, V-B:TRP:381:CZ2:8341, V-A:ALA:541:CA:4890, V-A:PRO:540:CA:4883, V-A:TYR:539:C:4867, V-B:ILE:369:CG2:8208, V-A:TYR:539:CE2:4876, V-A:TYR:539:CZ:4877, V-A:MET:535:CE:4835, H-A:TYR:539:N:4870, V-A:TYR:539:CG:4872, V-A:TYR:539:CD1:4873, V-A:ILE:538:CB:4862, V-A:TYR:539:CE1:4875, V-A:ILE:538:CG2:4863, V-B:TRP:381:CZ3:8342"]

$$$$
3ag_Grossjean_2025
     RDKit          3D

 30 32  0  0  0  0  0  0  0  0999 V2000
  123.7780  124.6630   57.9280 N   0  0  0  0  0  0  0  0  0  0  0  0
  124.7280  124.1690   58.3690 C   0  0  0  0  0  0  0  0  0  0  0  0
  125.9290  123.5450   58.9310 C   0  0  0  0  0  0  0  0  0  0  0  0
  126.2050  123.6240   60.3180 C   0  0  0  0  0  0  0  0  0  0  0  0
  125.2500  124.3050   61.3180 C   0  0  0  0  0  0  0  0  0  0  0  0
  123.9860  124.3280   60.8940 F   0  0  0  0  0  0  0  0  0  0  0  0
  125.2720  123.6530   62.4810 F   0  0  0  0  0  0  0  0  0  0  0  0
  125.6250  125.5680   61.5230 F   0  0  0  0  0  0  0  0  0  0  0  0
  127.3950  123.0570   60.7990 C   0  0  0  0  0  0  0  0  0  0  0  0
  128.2900  122.4400   59.9190 C   0  0  0  0  0  0  0  0  0  0  0  0
  129.5760  121.8210   60.3770 C   0  0  0  0  0  0  0  0  0  0  0  0
  129.5940  120.5270   60.9210 C   0  0  0  0  0  0  0  0  0  0  0  0
  130.7850  119.9460   61.3490 C   0  0  0  0  0  0  0  0  0  0  0  0
  131.9770  120.6540   61.2380 C   0  0  0  0  0  0  0  0  0  0  0  0
  131.9860  121.9390   60.7050 C   0  0  0  0  0  0  0  0  0  0  0  0
  130.7940  122.5170   60.2800 C   0  0  0  0  0  0  0  0  0  0  0  0
  128.0170  122.3550   58.5910 N   0  0  0  0  0  0  0  0  0  0  0  0
  126.8640  122.8780   58.1080 C   0  0  0  0  0  0  0  0  0  0  0  0
  126.6720  122.6730   56.3510 S   0  0  0  0  0  0  0  0  0  0  0  0
  127.8160  123.8310   55.5420 C   0  0  0  0  0  0  0  0  0  0  0  0
  128.1570  125.0250   56.4350 C   0  0  0  0  0  0  0  0  0  0  0  0
  127.2740  125.8210   56.7600 O   0  0  0  0  0  0  0  0  0  0  0  0
  129.4390  125.1320   56.8270 N   0  0  0  0  0  0  0  0  0  0  0  0
  129.9740  126.1700   57.7070 C   0  0  0  0  0  0  0  0  0  0  0  0
  131.1210  125.7020   58.5950 C   0  0  0  0  0  0  0  0  0  0  0  0
  132.2540  125.1210   58.0180 C   0  0  0  0  0  0  0  0  0  0  0  0
  133.3160  124.7200   58.8230 C   0  0  0  0  0  0  0  0  0  0  0  0
  133.2470  124.9090   60.2020 C   0  0  0  0  0  0  0  0  0  0  0  0
  132.1280  125.5010   60.7820 C   0  0  0  0  0  0  0  0  0  0  0  0
  131.0650  125.9030   59.9780 C   0  0  0  0  0  0  0  0  0  0  0  0
  1  2  3  0
  2  3  1  0
  3  4  2  0
  4  5  1  0
  5  6  1  0
  5  7  1  0
  5  8  1  0
  4  9  1  0
  9 10  2  0
 10 11  1  0
 11 12  2  0
 12 13  1  0
 13 14  2  0
 14 15  1  0
 15 16  2  0
 10 17  1  0
 17 18  2  0
 18 19  1  0
 19 20  1  0
 20 21  1  0
 21 22  2  0
 21 23  1  0
 23 24  1  0
 24 25  1  0
 25 26  2  0
 26 27  1  0
 27 28  2  0
 28 29  1  0
 29 30  2  0
 18  3  1  0
 30 25  1  0
 16 11  1  0
M  END
>  <Binding energies>  (16) 
[-8.2]

>  <Ligand effiencies>  (16) 
[-0.264516129032258]

>  <Interactions>  (16) 
["V-B:TYR:539:CD2:9845, V-B:ASP:366:CG:8184, V-B:TYR:539:CE2:9847, V-B:TYR:539:C:9838, V-A:ASP:366:CG:3212, V-B:PRO:540:N:9855, V-A:ILE:369:CG2:3236, V-B:LEU:363:CA:8156, V-B:PRO:540:CB:9856, H-B:TYR:531:OH:9766, V-A:ASP:366:CB:3211, V-B:PRO:540:CA:9854, V-B:LEU:363:CD1:8160, V-B:TYR:539:CZ:9848, V-A:ASP:366:CA:3209, V-B:GLU:543:CD:9879, V-A:LEU:475:CD2:4258, H-B:TYR:539:OH:9849, V-B:GLU:543:CG:9878, V-B:TYR:539:CD1:9844, V-B:TYR:539:CE1:9846, V-B:ALA:541:CB:9863, V-A:TRP:381:CH2:3371, V-B:PRO:540:C:9852, V-B:ASN:362:CB:8147, V-A:ILE:369:CB:3235, V-A:ASP:366:C:3207, V-B:ASN:362:C:8143, V-B:ASN:362:CA:8145"]

$$$$
3bc_Grossjean_2025
     RDKit          3D

 28 30  0  0  0  0  0  0  0  0999 V2000
  124.6650  130.0160   65.7890 C   0  0  0  0  0  0  0  0  0  0  0  0
  123.7530  130.3570   64.7510 O   0  0  0  0  0  0  0  0  0  0  0  0
  124.2240  130.4970   63.4590 C   0  0  0  0  0  0  0  0  0  0  0  0
  125.4900  129.9700   63.1990 C   0  0  0  0  0  0  0  0  0  0  0  0
  126.0490  130.0640   61.9280 C   0  0  0  0  0  0  0  0  0  0  0  0
  125.3500  130.6950   60.8970 C   0  0  0  0  0  0  0  0  0  0  0  0
  125.9900  130.7300   59.6440 N   0  0  0  0  0  0  0  0  0  0  0  0
  125.5690  131.2860   58.4880 C   0  0  0  0  0  0  0  0  0  0  0  0
  124.5180  131.9160   58.3530 O   0  0  0  0  0  0  0  0  0  0  0  0
  126.5350  131.1170   57.3060 C   0  0  0  0  0  0  0  0  0  0  0  0
  128.0070  132.1940   57.3470 S   0  0  0  0  0  0  0  0  0  0  0  0
  128.3780  132.5430   59.0510 C   0  0  0  0  0  0  0  0  0  0  0  0
  127.4780  133.3630   59.6490 N   0  0  0  0  0  0  0  0  0  0  0  0
  127.6400  133.7090   60.9520 C   0  0  0  0  0  0  0  0  0  0  0  0
  126.6130  134.6360   61.5320 C   0  0  0  0  0  0  0  0  0  0  0  0
  126.9780  135.9040   62.0080 C   0  0  0  0  0  0  0  0  0  0  0  0
  126.0300  136.7700   62.5470 C   0  0  0  0  0  0  0  0  0  0  0  0
  124.6990  136.3750   62.6190 C   0  0  0  0  0  0  0  0  0  0  0  0
  124.3090  135.1220   62.1580 C   0  0  0  0  0  0  0  0  0  0  0  0
  125.2620  134.2590   61.6200 C   0  0  0  0  0  0  0  0  0  0  0  0
  128.7260  133.2330   61.6930 C   0  0  0  0  0  0  0  0  0  0  0  0
  129.6520  132.3680   61.0980 C   0  0  0  0  0  0  0  0  0  0  0  0
  130.8130  131.8590   61.9500 C   0  0  0  0  0  0  0  0  0  0  0  0
  129.4810  131.9970   59.7470 C   0  0  0  0  0  0  0  0  0  0  0  0
  130.4080  131.0550   59.1180 C   0  0  0  0  0  0  0  0  0  0  0  0
  131.1440  130.3110   58.6230 N   0  0  0  0  0  0  0  0  0  0  0  0
  124.0720  131.2160   61.1470 C   0  0  0  0  0  0  0  0  0  0  0  0
  123.5160  131.1200   62.4200 C   0  0  0  0  0  0  0  0  0  0  0  0
  1  2  1  0
  2  3  1  0
  3  4  2  0
  4  5  1  0
  5  6  2  0
  6  7  1  0
  7  8  1  0
  8  9  2  0
  8 10  1  0
 10 11  1  0
 11 12  1  0
 12 13  2  0
 13 14  1  0
 14 15  1  0
 15 16  2  0
 16 17  1  0
 17 18  2  0
 18 19  1  0
 19 20  2  0
 14 21  2  0
 21 22  1  0
 22 23  1  0
 22 24  2  0
 24 25  1  0
 25 26  3  0
  6 27  1  0
 27 28  2  0
 28  3  1  0
 24 12  1  0
 20 15  1  0
M  END
>  <Binding energies>  (17) 
[-7.84]

>  <Ligand effiencies>  (17) 
[-0.27034482758620687]

>  <Interactions>  (17) 
["V-B:ASP:366:CG:8184, V-B:PRO:482:CB:9297, V-B:LEU:475:CD1:9229, V-B:TRP:381:CH2:8343, V-A:TYR:539:CD2:4874, V-A:ALA:541:CB:4892, V-B:TRP:381:CZ2:8341, V-A:PRO:540:CA:4883, V-B:ILE:369:CD1:8210, H-B:GLY:454:N:9021, V-B:GLY:454:CA:9020, H-B:ARG:545:NH2:9899, V-B:ILE:369:CG2:8208, V-A:TYR:539:CE2:4876, V-A:TYR:539:CZ:4877, V-B:ARG:545:CZ:9897, H-A:TYR:539:OH:4878, V-B:SER:385:CB:8380, V-B:TRP:381:CE2:8338"]

$$$$
3bd_Grossjean_2025
     RDKit          3D

 26 28  0  0  0  0  0  0  0  0999 V2000
  131.4480  131.7410   61.7140 C   0  0  0  0  0  0  0  0  0  0  0  0
  130.3350  132.2540   60.8020 C   0  0  0  0  0  0  0  0  0  0  0  0
  129.3220  133.0350   61.3700 C   0  0  0  0  0  0  0  0  0  0  0  0
  128.2820  133.5200   60.5680 C   0  0  0  0  0  0  0  0  0  0  0  0
  127.1680  134.3660   61.1110 C   0  0  0  0  0  0  0  0  0  0  0  0
  127.4390  135.5900   61.7430 C   0  0  0  0  0  0  0  0  0  0  0  0
  126.4100  136.3790   62.2500 C   0  0  0  0  0  0  0  0  0  0  0  0
  125.0910  135.9530   62.1320 C   0  0  0  0  0  0  0  0  0  0  0  0
  124.7960  134.7430   61.5130 C   0  0  0  0  0  0  0  0  0  0  0  0
  125.8270  133.9570   61.0080 C   0  0  0  0  0  0  0  0  0  0  0  0
  128.2480  133.2540   59.2360 N   0  0  0  0  0  0  0  0  0  0  0  0
  129.2220  132.4980   58.6700 C   0  0  0  0  0  0  0  0  0  0  0  0
  129.0570  132.2110   56.9150 S   0  0  0  0  0  0  0  0  0  0  0  0
  128.3280  130.5620   56.6800 C   0  0  0  0  0  0  0  0  0  0  0  0
  126.8730  130.5070   57.1490 C   0  0  0  0  0  0  0  0  0  0  0  0
  126.0250  130.0050   56.4090 O   0  0  0  0  0  0  0  0  0  0  0  0
  126.6290  131.0400   58.3650 N   0  0  0  0  0  0  0  0  0  0  0  0
  125.4140  131.1140   59.0720 C   0  0  0  0  0  0  0  0  0  0  0  0
  125.4670  130.7610   60.4240 C   0  0  0  0  0  0  0  0  0  0  0  0
  124.3130  130.7950   61.2020 C   0  0  0  0  0  0  0  0  0  0  0  0
  123.1030  131.1720   60.6270 C   0  0  0  0  0  0  0  0  0  0  0  0
  123.0350  131.5120   59.2780 C   0  0  0  0  0  0  0  0  0  0  0  0
  124.1870  131.4810   58.4970 C   0  0  0  0  0  0  0  0  0  0  0  0
  130.2940  131.9700   59.4210 C   0  0  0  0  0  0  0  0  0  0  0  0
  131.3410  131.1550   58.7960 C   0  0  0  0  0  0  0  0  0  0  0  0
  132.1690  130.5130   58.3040 N   0  0  0  0  0  0  0  0  0  0  0  0
  1  2  1  0
  2  3  2  0
  3  4  1  0
  4  5  1  0
  5  6  2  0
  6  7  1  0
  7  8  2  0
  8  9  1  0
  9 10  2  0
  4 11  2  0
 11 12  1  0
 12 13  1  0
 13 14  1  0
 14 15  1  0
 15 16  2  0
 15 17  1  0
 17 18  1  0
 18 19  2  0
 19 20  1  0
 20 21  2  0
 21 22  1  0
 22 23  2  0
 12 24  2  0
 24 25  1  0
 25 26  3  0
 24  2  1  0
 10  5  1  0
 23 18  1  0
M  END
>  <Binding energies>  (18) 
[-7.7]

>  <Ligand effiencies>  (18) 
[-0.2851851851851852]

>  <Interactions>  (18) 
["V-B:ASP:366:CG:8184, H-B:TYR:531:OH:9766, V-B:ASP:366:CB:8183, V-B:PRO:482:CB:9297, V-B:LEU:475:CD1:9229, V-B:TRP:381:CH2:8343, V-A:TYR:539:CD2:4874, V-A:ALA:541:CB:4892, V-B:TRP:381:CZ2:8341, V-A:PRO:540:CA:4883, V-A:TYR:539:C:4867, V-B:ILE:369:CD1:8210, V-B:ILE:369:CG2:8208, V-A:TYR:539:CE2:4876, V-B:ASP:366:CA:8181, V-B:ASP:366:C:8179, V-A:MET:535:CE:4835, H-A:TYR:539:OH:4878, V-B:ILE:369:CB:8207, V-A:PRO:540:C:4881"]

$$$$
3be_Grossjean_2025
     RDKit          3D

 27 29  0  0  0  0  0  0  0  0999 V2000
  123.7950  129.6420   67.4470 C   0  0  0  0  0  0  0  0  0  0  0  0
  124.6560  129.7900   66.2080 C   0  0  0  0  0  0  0  0  0  0  0  0
  126.0510  129.7930   66.2830 C   0  0  0  0  0  0  0  0  0  0  0  0
  126.7790  129.9360   65.1020 C   0  0  0  0  0  0  0  0  0  0  0  0
  126.1030  130.0700   63.8860 C   0  0  0  0  0  0  0  0  0  0  0  0
  124.7030  130.0550   63.8820 C   0  0  0  0  0  0  0  0  0  0  0  0
  124.0820  130.2060   62.6280 N   0  0  0  0  0  0  0  0  0  0  0  0
  123.6380  131.3350   62.0340 C   0  0  0  0  0  0  0  0  0  0  0  0
  123.7100  132.4610   62.5300 O   0  0  0  0  0  0  0  0  0  0  0  0
  123.0140  131.1280   60.6450 C   0  0  0  0  0  0  0  0  0  0  0  0
  124.0870  131.5730   59.2380 S   0  0  0  0  0  0  0  0  0  0  0  0
  125.5190  132.4130   59.8790 C   0  0  0  0  0  0  0  0  0  0  0  0
  125.2180  133.4790   60.6610 N   0  0  0  0  0  0  0  0  0  0  0  0
  126.2170  134.2120   61.2210 C   0  0  0  0  0  0  0  0  0  0  0  0
  125.8000  135.3830   62.0600 C   0  0  0  0  0  0  0  0  0  0  0  0
  124.4720  135.5180   62.4950 C   0  0  0  0  0  0  0  0  0  0  0  0
  124.0780  136.6030   63.2720 C   0  0  0  0  0  0  0  0  0  0  0  0
  125.0100  137.5720   63.6270 C   0  0  0  0  0  0  0  0  0  0  0  0
  126.3310  137.4650   63.2080 C   0  0  0  0  0  0  0  0  0  0  0  0
  126.7210  136.3780   62.4300 C   0  0  0  0  0  0  0  0  0  0  0  0
  127.5590  133.8840   60.9980 C   0  0  0  0  0  0  0  0  0  0  0  0
  127.8860  132.7730   60.2140 C   0  0  0  0  0  0  0  0  0  0  0  0
  129.3640  132.4420   60.0130 C   0  0  0  0  0  0  0  0  0  0  0  0
  126.8500  132.0020   59.6420 C   0  0  0  0  0  0  0  0  0  0  0  0
  127.1690  130.8030   58.8630 C   0  0  0  0  0  0  0  0  0  0  0  0
  127.4230  129.8570   58.2480 N   0  0  0  0  0  0  0  0  0  0  0  0
  123.9850  129.9190   65.0350 N   0  0  0  0  0  0  0  0  0  0  0  0
  1  2  1  0
  2  3  2  0
  3  4  1  0
  4  5  2  0
  5  6  1  0
  6  7  1  0
  7  8  1  0
  8  9  2  0
  8 10  1  0
 10 11  1  0
 11 12  1  0
 12 13  2  0
 13 14  1  0
 14 15  1  0
 15 16  2  0
 16 17  1  0
 17 18  2  0
 18 19  1  0
 19 20  2  0
 14 21  2  0
 21 22  1  0
 22 23  1  0
 22 24  2  0
 24 25  1  0
 25 26  3  0
  6 27  2  0
 27  2  1  0
 24 12  1  0
 20 15  1  0
M  END
>  <Binding energies>  (19) 
[-8.73]

>  <Ligand effiencies>  (19) 
[-0.3117857142857143]

>  <Interactions>  (19) 
["V-B:ASP:366:CG:8184, H-B:ASP:366:OD2:8186, V-B:ASP:366:CB:8183, V-B:PRO:482:CB:9297, V-B:LEU:475:CD1:9229, V-B:TRP:381:CH2:8343, V-A:TYR:539:CD2:4874, V-A:ALA:541:CB:4892, V-B:PRO:482:CG:9298, V-B:TRP:381:CZ2:8341, V-A:PRO:540:CA:4883, V-B:ILE:369:CD1:8210, H-B:GLY:454:N:9021, V-B:HIS:456:CE1:9041, H-B:ARG:545:NH1:9898, H-B:ARG:545:NH2:9899, H-B:ARG:545:NE:9895, V-B:ILE:369:CG2:8208, V-A:TYR:539:CE2:4876, V-B:ASP:366:CA:8181, V-B:ARG:545:CZ:9897, V-B:ARG:545:CG:9893, V-B:ILE:369:CB:8207, V-B:LEU:475:CG:9228, V-B:SER:385:CB:8380, V-B:LEU:475:CB:9227, V-B:SER:385:CA:8378, V-B:TRP:381:CE2:8338, V-B:SER:385:C:8376, V-B:ARG:545:CD:9894, H-B:ASP:366:OD1:8185, V-B:ILE:369:CG1:8209, V-B:ILE:455:C:9023"]

$$$$
3bf_Grossjean_2025
     RDKit          3D

 26 28  0  0  0  0  0  0  0  0999 V2000
  127.9810  128.9340   60.8730 C   0  0  0  0  0  0  0  0  0  0  0  0
  128.6480  130.2700   61.1950 C   0  0  0  0  0  0  0  0  0  0  0  0
  127.8660  131.4280   61.1330 C   0  0  0  0  0  0  0  0  0  0  0  0
  128.4330  132.6720   61.4340 C   0  0  0  0  0  0  0  0  0  0  0  0
  127.6450  133.9470   61.4070 C   0  0  0  0  0  0  0  0  0  0  0  0
  128.2480  135.1690   61.7450 C   0  0  0  0  0  0  0  0  0  0  0  0
  127.5220  136.3570   61.7230 C   0  0  0  0  0  0  0  0  0  0  0  0
  126.1790  136.3380   61.3620 C   0  0  0  0  0  0  0  0  0  0  0  0
  125.5580  135.1400   61.0240 C   0  0  0  0  0  0  0  0  0  0  0  0
  126.2870  133.9540   61.0490 C   0  0  0  0  0  0  0  0  0  0  0  0
  129.7420  132.7740   61.7900 N   0  0  0  0  0  0  0  0  0  0  0  0
  130.5180  131.6630   61.8310 C   0  0  0  0  0  0  0  0  0  0  0  0
  132.2020  131.9880   62.3090 S   0  0  0  0  0  0  0  0  0  0  0  0
  133.2840  131.5410   60.9090 C   0  0  0  0  0  0  0  0  0  0  0  0
  132.5920  131.4970   59.5380 C   0  0  0  0  0  0  0  0  0  0  0  0
  132.9600  130.7000   58.6740 O   0  0  0  0  0  0  0  0  0  0  0  0
  131.5660  132.3650   59.3970 N   0  0  0  0  0  0  0  0  0  0  0  0
  130.7420  132.5830   58.2780 C   0  0  0  0  0  0  0  0  0  0  0  0
  129.3840  132.2770   58.4160 C   0  0  0  0  0  0  0  0  0  0  0  0
  128.5110  132.4850   57.3450 C   0  0  0  0  0  0  0  0  0  0  0  0
  129.0270  133.0020   56.1570 C   0  0  0  0  0  0  0  0  0  0  0  0
  130.3370  133.3170   55.9980 N   0  0  0  0  0  0  0  0  0  0  0  0
  131.1730  133.1100   57.0480 C   0  0  0  0  0  0  0  0  0  0  0  0
  130.0080  130.3750   61.5580 C   0  0  0  0  0  0  0  0  0  0  0  0
  130.8320  129.1680   61.6780 C   0  0  0  0  0  0  0  0  0  0  0  0
  131.4820  128.2150   61.7710 N   0  0  0  0  0  0  0  0  0  0  0  0
  1  2  1  0
  2  3  2  0
  3  4  1  0
  4  5  1  0
  5  6  2  0
  6  7  1  0
  7  8  2  0
  8  9  1  0
  9 10  2  0
  4 11  2  0
 11 12  1  0
 12 13  1  0
 13 14  1  0
 14 15  1  0
 15 16  2  0
 15 17  1  0
 17 18  1  0
 18 19  2  0
 19 20  1  0
 20 21  2  0
 21 22  1  0
 22 23  2  0
 12 24  2  0
 24 25  1  0
 25 26  3  0
 24  2  1  0
 10  5  1  0
 23 18  1  0
M  END
>  <Binding energies>  (20) 
[-7.6]

>  <Ligand effiencies>  (20) 
[-0.28148148148148144]

>  <Interactions>  (20) 
["V-A:ASP:366:CG:3212, V-A:PRO:540:N:4884, V-B:PRO:482:CB:9297, V-B:TRP:381:CH2:8343, V-A:PRO:540:CB:4885, V-A:TYR:539:CD2:4874, V-A:ALA:541:CB:4892, V-B:PRO:482:CG:9298, V-B:TRP:381:CZ2:8341, H-A:ALA:541:N:4891, V-A:ALA:541:CA:4890, V-A:PRO:540:CA:4883, V-A:TYR:539:C:4867, V-A:TYR:539:CE2:4876, V-A:TYR:539:CZ:4877, H-A:ARG:545:NH2:4928, V-A:MET:535:CE:4835, H-A:TYR:539:O:4868, H-A:TYR:539:N:4870, V-A:TYR:539:CG:4872, V-A:TYR:539:CD1:4873, V-A:PRO:540:CD:4887, V-A:TYR:539:CE1:4875, V-B:TRP:381:CZ3:8342, V-A:PRO:540:C:4881, V-A:ASN:362:CB:3175"]

$$$$
3bg_Grossjean_2025
     RDKit          3D

 27 29  0  0  0  0  0  0  0  0999 V2000
  125.0430  124.3610   61.3490 C   0  0  0  0  0  0  0  0  0  0  0  0
  126.0040  123.7250   60.3470 C   0  0  0  0  0  0  0  0  0  0  0  0
  127.1900  123.1670   60.8320 C   0  0  0  0  0  0  0  0  0  0  0  0
  128.0970  122.5660   59.9480 C   0  0  0  0  0  0  0  0  0  0  0  0
  129.3840  121.9370   60.4050 C   0  0  0  0  0  0  0  0  0  0  0  0
  130.6090  122.6110   60.2660 C   0  0  0  0  0  0  0  0  0  0  0  0
  131.8000  122.0390   60.7040 C   0  0  0  0  0  0  0  0  0  0  0  0
  131.7870  120.7780   61.2890 C   0  0  0  0  0  0  0  0  0  0  0  0
  130.5920  120.0830   61.4290 C   0  0  0  0  0  0  0  0  0  0  0  0
  129.4030  120.6570   60.9870 C   0  0  0  0  0  0  0  0  0  0  0  0
  127.8260  122.5050   58.6170 N   0  0  0  0  0  0  0  0  0  0  0  0
  126.6770  123.0400   58.1300 C   0  0  0  0  0  0  0  0  0  0  0  0
  126.4260  122.8630   56.3700 S   0  0  0  0  0  0  0  0  0  0  0  0
  127.8330  123.6410   55.5110 C   0  0  0  0  0  0  0  0  0  0  0  0
  128.2550  124.9520   56.1810 C   0  0  0  0  0  0  0  0  0  0  0  0
  127.5240  125.9400   56.1120 O   0  0  0  0  0  0  0  0  0  0  0  0
  129.4470  124.9490   56.8030 N   0  0  0  0  0  0  0  0  0  0  0  0
  130.1250  126.1260   57.3470 C   0  0  0  0  0  0  0  0  0  0  0  0
  131.1680  125.7470   58.3910 C   0  0  0  0  0  0  0  0  0  0  0  0
  132.3560  125.1220   57.9990 C   0  0  0  0  0  0  0  0  0  0  0  0
  133.3040  124.7670   58.9540 C   0  0  0  0  0  0  0  0  0  0  0  0
  133.0680  125.0490   60.2990 C   0  0  0  0  0  0  0  0  0  0  0  0
  131.8960  125.6890   60.6950 C   0  0  0  0  0  0  0  0  0  0  0  0
  130.9470  126.0440   59.7390 C   0  0  0  0  0  0  0  0  0  0  0  0
  125.7320  123.6730   58.9630 C   0  0  0  0  0  0  0  0  0  0  0  0
  124.4940  124.2430   58.4260 C   0  0  0  0  0  0  0  0  0  0  0  0
  123.5160  124.6940   58.0030 N   0  0  0  0  0  0  0  0  0  0  0  0
  1  2  1  0
  2  3  2  0
  3  4  1  0
  4  5  1  0
  5  6  2  0
  6  7  1  0
  7  8  2  0
  8  9  1  0
  9 10  2  0
  4 11  2  0
 11 12  1  0
 12 13  1  0
 13 14  1  0
 14 15  1  0
 15 16  2  0
 15 17  1  0
 17 18  1  0
 18 19  1  0
 19 20  2  0
 20 21  1  0
 21 22  2  0
 22 23  1  0
 23 24  2  0
 12 25  2  0
 25 26  1  0
 26 27  3  0
 25  2  1  0
 10  5  1  0
 24 19  1  0
M  END
>  <Binding energies>  (21) 
[-8.41]

>  <Ligand effiencies>  (21) 
[-0.3003571428571429]

>  <Interactions>  (21) 
["V-B:TYR:539:CD2:9845, V-B:TYR:539:CE2:9847, V-B:TYR:539:C:9838, V-A:ASP:366:CG:3212, V-B:PRO:540:N:9855, V-A:ILE:369:CG2:3236, V-B:LEU:363:CA:8156, V-B:PRO:540:CB:9856, H-B:TYR:531:OH:9766, V-A:ASP:366:CB:3211, V-B:PRO:540:CA:9854, V-B:LEU:363:CD1:8160, V-B:TYR:539:CZ:9848, V-A:ASP:366:CA:3209, V-A:LEU:475:CD2:4258, H-B:TYR:539:OH:9849, V-B:TYR:539:CD1:9844, V-B:TYR:539:CE1:9846, V-B:ALA:541:CB:9863, V-B:PRO:540:C:9852, V-B:ALA:541:CA:9861, V-B:ASN:362:CB:8147, V-A:ILE:369:CB:3235, V-A:ASP:366:C:3207"]

$$$$
3ca_Grossjean_2025
     RDKit          3D

 31 33  0  0  0  0  0  0  0  0999 V2000
  132.1410  131.8760   58.3730 C   0  0  0  0  0  0  0  0  0  0  0  0
  132.2710  132.4720   56.9680 C   0  0  0  0  0  0  0  0  0  0  0  0
  131.1890  133.3630   56.7290 O   0  0  0  0  0  0  0  0  0  0  0  0
  130.0990  132.9690   56.0230 C   0  0  0  0  0  0  0  0  0  0  0  0
  130.0660  132.9260   54.7890 O   0  0  0  0  0  0  0  0  0  0  0  0
  128.9350  132.5840   56.8920 C   0  0  0  0  0  0  0  0  0  0  0  0
  128.9220  132.9830   58.2340 C   0  0  0  0  0  0  0  0  0  0  0  0
  127.8590  132.6410   59.0650 C   0  0  0  0  0  0  0  0  0  0  0  0
  126.7910  131.8880   58.5730 C   0  0  0  0  0  0  0  0  0  0  0  0
  125.7680  131.6000   59.4960 N   0  0  0  0  0  0  0  0  0  0  0  0
  124.4280  131.5980   59.3250 C   0  0  0  0  0  0  0  0  0  0  0  0
  123.8440  131.8430   58.2700 O   0  0  0  0  0  0  0  0  0  0  0  0
  123.6100  131.2330   60.5690 C   0  0  0  0  0  0  0  0  0  0  0  0
  123.9230  132.3400   61.9840 S   0  0  0  0  0  0  0  0  0  0  0  0
  125.5590  132.0380   62.6400 C   0  0  0  0  0  0  0  0  0  0  0  0
  126.5700  132.7070   62.0300 N   0  0  0  0  0  0  0  0  0  0  0  0
  127.8300  132.5440   62.4860 C   0  0  0  0  0  0  0  0  0  0  0  0
  128.9000  133.3380   61.7650 C   0  0  0  0  0  0  0  0  0  0  0  0
  128.1380  131.7010   63.5520 C   0  0  0  0  0  0  0  0  0  0  0  0
  127.1150  130.9850   64.1860 C   0  0  0  0  0  0  0  0  0  0  0  0
  127.4940  130.0820   65.3150 C   0  0  0  0  0  0  0  0  0  0  0  0
  127.2120  130.4530   66.6360 C   0  0  0  0  0  0  0  0  0  0  0  0
  127.5700  129.6230   67.6950 C   0  0  0  0  0  0  0  0  0  0  0  0
  128.2170  128.4170   67.4370 C   0  0  0  0  0  0  0  0  0  0  0  0
  128.5100  128.0360   66.1300 C   0  0  0  0  0  0  0  0  0  0  0  0
  128.1520  128.8700   65.0730 C   0  0  0  0  0  0  0  0  0  0  0  0
  125.7840  131.1610   63.7280 C   0  0  0  0  0  0  0  0  0  0  0  0
  124.6660  130.4780   64.3860 C   0  0  0  0  0  0  0  0  0  0  0  0
  123.7840  129.9380   64.9060 N   0  0  0  0  0  0  0  0  0  0  0  0
  126.7920  131.4910   57.2270 C   0  0  0  0  0  0  0  0  0  0  0  0
  127.8560  131.8360   56.3980 C   0  0  0  0  0  0  0  0  0  0  0  0
  1  2  1  0
  2  3  1  0
  3  4  1  0
  4  5  2  0
  4  6  1  0
  6  7  2  0
  7  8  1  0
  8  9  2  0
  9 10  1  0
 10 11  1  0
 11 12  2  0
 11 13  1  0
 13 14  1  0
 14 15  1  0
 15 16  2  0
 16 17  1  0
 17 18  1  0
 17 19  2  0
 19 20  1  0
 20 21  1  0
 21 22  2  0
 22 23  1  0
 23 24  2  0
 24 25  1  0
 25 26  2  0
 20 27  2  0
 27 28  1  0
 28 29  3  0
  9 30  1  0
 30 31  2  0
 31  6  1  0
 27 15  1  0
 26 21  1  0
M  END
>  <Binding energies>  (22) 
[-8.74]

>  <Ligand effiencies>  (22) 
[-0.273125]

>  <Interactions>  (22) 
["V-B:ASP:366:CG:8184, V-B:ASP:366:CB:8183, V-A:PRO:540:N:4884, V-A:GLU:543:CD:4908, V-A:GLU:543:CG:4907, V-A:PRO:540:CB:4885, V-A:TYR:539:CD2:4874, V-A:ALA:541:CB:4892, V-A:ALA:541:CA:4890, V-A:PRO:540:CA:4883, V-A:TYR:539:C:4867, V-B:ILE:369:CD1:8210, H-B:GLY:454:N:9021, V-B:GLU:543:CD:9879, V-B:HIS:456:CE1:9041, V-B:GLY:454:CA:9020, H-B:ARG:545:NH1:9898, H-B:ARG:545:NH2:9899, H-B:ARG:545:NE:9895, V-A:GLU:543:CB:4906, V-B:TYR:484:CE1:9316, V-A:TYR:539:CE2:4876, V-A:TYR:539:CZ:4877, V-B:ASP:366:CA:8181, V-B:ARG:545:CZ:9897, V-B:TYR:484:CZ:9318, V-A:LEU:363:CD1:3188, V-A:MET:535:CE:4835, H-A:TYR:539:OH:4878, H-A:TYR:539:N:4870, V-A:TYR:539:CG:4872, V-A:ILE:538:CA:4860, V-A:ILE:538:CB:4862, V-A:PRO:540:CD:4887, V-A:TYR:539:CE1:4875"]

$$$$
3ce_Grossjean_2025
     RDKit          3D

 27 29  0  0  0  0  0  0  0  0999 V2000
  123.5340  129.5990   67.3370 C   0  0  0  0  0  0  0  0  0  0  0  0
  124.4630  129.6700   66.1400 C   0  0  0  0  0  0  0  0  0  0  0  0
  125.8300  129.4040   66.2570 C   0  0  0  0  0  0  0  0  0  0  0  0
  126.6210  129.4790   65.1120 C   0  0  0  0  0  0  0  0  0  0  0  0
  126.0360  129.8160   63.8890 C   0  0  0  0  0  0  0  0  0  0  0  0
  124.6620  130.0810   63.8430 C   0  0  0  0  0  0  0  0  0  0  0  0
  124.1250  130.3950   62.5830 N   0  0  0  0  0  0  0  0  0  0  0  0
  123.9790  131.6140   62.0180 C   0  0  0  0  0  0  0  0  0  0  0  0
  124.3130  132.6790   62.5380 O   0  0  0  0  0  0  0  0  0  0  0  0
  123.3550  131.6260   60.6230 C   0  0  0  0  0  0  0  0  0  0  0  0
  124.3780  130.7360   59.4130 S   0  0  0  0  0  0  0  0  0  0  0  0
  125.9330  131.5960   59.3690 C   0  0  0  0  0  0  0  0  0  0  0  0
  126.1540  132.3900   60.4450 N   0  0  0  0  0  0  0  0  0  0  0  0
  127.3180  133.0760   60.5140 C   0  0  0  0  0  0  0  0  0  0  0  0
  127.5070  133.9330   61.7510 C   0  0  0  0  0  0  0  0  0  0  0  0
  128.2890  133.0080   59.5180 C   0  0  0  0  0  0  0  0  0  0  0  0
  128.0670  132.2140   58.3850 C   0  0  0  0  0  0  0  0  0  0  0  0
  129.1260  132.1940   57.3320 C   0  0  0  0  0  0  0  0  0  0  0  0
  130.2530  131.3770   57.4840 C   0  0  0  0  0  0  0  0  0  0  0  0
  131.2470  131.3570   56.5090 C   0  0  0  0  0  0  0  0  0  0  0  0
  131.1220  132.1610   55.3800 C   0  0  0  0  0  0  0  0  0  0  0  0
  130.0120  132.9870   55.2190 C   0  0  0  0  0  0  0  0  0  0  0  0
  129.0190  133.0040   56.1940 C   0  0  0  0  0  0  0  0  0  0  0  0
  126.8570  131.4800   58.3030 C   0  0  0  0  0  0  0  0  0  0  0  0
  126.5760  130.6200   57.1490 C   0  0  0  0  0  0  0  0  0  0  0  0
  126.3550  129.9420   56.2380 N   0  0  0  0  0  0  0  0  0  0  0  0
  123.8800  130.0010   64.9590 N   0  0  0  0  0  0  0  0  0  0  0  0
  1  2  1  0
  2  3  2  0
  3  4  1  0
  4  5  2  0
  5  6  1  0
  6  7  1  0
  7  8  1  0
  8  9  2  0
  8 10  1  0
 10 11  1  0
 11 12  1  0
 12 13  2  0
 13 14  1  0
 14 15  1  0
 14 16  2  0
 16 17  1  0
 17 18  1  0
 18 19  2  0
 19 20  1  0
 20 21  2  0
 21 22  1  0
 22 23  2  0
 17 24  2  0
 24 25  1  0
 25 26  3  0
  6 27  2  0
 27  2  1  0
 24 12  1  0
 23 18  1  0
M  END
>  <Binding energies>  (23) 
[-9.15]

>  <Ligand effiencies>  (23) 
[-0.3267857142857143]

>  <Interactions>  (23) 
["V-B:ASP:366:CG:8184, H-B:ASP:366:OD2:8186, H-B:TYR:531:OH:9766, V-B:ASP:366:CB:8183, V-A:TYR:539:CD2:4874, V-A:ALA:541:CB:4892, V-A:TYR:539:C:4867, V-B:ILE:369:CD1:8210, H-B:GLY:454:N:9021, H-B:ARG:545:NH1:9898, H-B:ARG:545:NH2:9899, H-B:ARG:545:NE:9895, V-B:ILE:369:CG2:8208, V-A:TYR:539:CE2:4876, V-A:TYR:539:CZ:4877, V-B:ASP:366:CA:8181, V-B:ARG:545:CZ:9897, V-A:MET:535:CE:4835, V-B:ARG:545:CG:9893, V-B:ILE:369:CB:8207, V-A:TYR:539:CG:4872, V-A:ILE:538:CA:4860, V-A:TYR:539:CD1:4873, V-A:ILE:538:CB:4862, V-A:TYR:539:CE1:4875, V-A:ILE:538:C:4858, V-A:ILE:538:CG2:4863, V-B:ARG:545:CD:9894, H-B:ASP:366:OD1:8185, V-B:ILE:455:C:9023, V-B:ARG:545:CB:9892"]

$$$$
3cj_Grossjean_2025
     RDKit          3D

 25 27  0  0  0  0  0  0  0  0999 V2000
  127.6480  133.9150   61.6940 C   0  0  0  0  0  0  0  0  0  0  0  0
  127.4310  133.0750   60.4510 C   0  0  0  0  0  0  0  0  0  0  0  0
  128.3930  132.9980   59.4460 C   0  0  0  0  0  0  0  0  0  0  0  0
  128.1600  132.1910   58.3240 C   0  0  0  0  0  0  0  0  0  0  0  0
  129.2440  132.0890   57.3040 C   0  0  0  0  0  0  0  0  0  0  0  0
  130.1720  131.0420   57.3560 C   0  0  0  0  0  0  0  0  0  0  0  0
  131.1920  130.9550   56.4110 C   0  0  0  0  0  0  0  0  0  0  0  0
  131.2900  131.9200   55.4130 C   0  0  0  0  0  0  0  0  0  0  0  0
  130.3800  132.9720   55.3540 C   0  0  0  0  0  0  0  0  0  0  0  0
  129.3610  133.0570   56.2990 C   0  0  0  0  0  0  0  0  0  0  0  0
  126.9260  131.5000   58.2350 C   0  0  0  0  0  0  0  0  0  0  0  0
  126.6110  130.6630   57.0730 C   0  0  0  0  0  0  0  0  0  0  0  0
  126.3640  130.0010   56.1560 N   0  0  0  0  0  0  0  0  0  0  0  0
  126.0100  131.6320   59.3030 C   0  0  0  0  0  0  0  0  0  0  0  0
  124.4860  130.7150   59.3820 S   0  0  0  0  0  0  0  0  0  0  0  0
  123.4210  131.6740   60.5050 C   0  0  0  0  0  0  0  0  0  0  0  0
  123.9510  131.6630   61.9420 C   0  0  0  0  0  0  0  0  0  0  0  0
  124.0760  132.7270   62.5520 O   0  0  0  0  0  0  0  0  0  0  0  0
  124.2120  130.4400   62.4530 N   0  0  0  0  0  0  0  0  0  0  0  0
  124.5680  130.1480   63.7590 C   0  0  0  0  0  0  0  0  0  0  0  0
  123.7760  129.9970   64.7980 N   0  0  0  0  0  0  0  0  0  0  0  0
  124.4580  129.6920   65.8850 C   0  0  0  0  0  0  0  0  0  0  0  0
  125.8380  129.5910   65.7390 C   0  0  0  0  0  0  0  0  0  0  0  0
  126.2570  129.9160   64.0830 S   0  0  0  0  0  0  0  0  0  0  0  0
  126.2630  132.3970   60.3950 N   0  0  0  0  0  0  0  0  0  0  0  0
  1  2  1  0
  2  3  2  0
  3  4  1  0
  4  5  1  0
  5  6  2  0
  6  7  1  0
  7  8  2  0
  8  9  1  0
  9 10  2  0
  4 11  2  0
 11 12  1  0
 12 13  3  0
 11 14  1  0
 14 15  1  0
 15 16  1  0
 16 17  1  0
 17 18  2  0
 17 19  1  0
 19 20  1  0
 20 21  2  0
 21 22  1  0
 22 23  2  0
 23 24  1  0
 14 25  2  0
 25  2  1  0
 10  5  1  0
 24 20  1  0
M  END
>  <Binding energies>  (24) 
[-8.05]

>  <Ligand effiencies>  (24) 
[-0.3096153846153846]

>  <Interactions>  (24) 
["V-B:ASP:366:CG:8184, H-B:ASP:366:OD2:8186, H-B:TYR:531:OH:9766, V-B:ASP:366:CB:8183, V-A:TYR:539:CD2:4874, V-A:ALA:541:CB:4892, V-A:TYR:539:C:4867, V-B:ILE:369:CD1:8210, H-B:GLY:454:N:9021, H-B:ARG:545:NH1:9898, H-B:ARG:545:NH2:9899, H-B:ARG:545:NE:9895, V-B:ILE:369:CG2:8208, V-A:TYR:539:CE2:4876, V-A:TYR:539:CZ:4877, V-B:ASP:366:CA:8181, V-B:ARG:545:CZ:9897, V-A:TYR:531:CE2:4793, V-A:TYR:531:CZ:4794, V-A:MET:535:CE:4835, V-B:ILE:369:CB:8207, V-A:TYR:539:CG:4872, V-A:ILE:538:CA:4860, V-A:TYR:539:CD1:4873, V-A:ILE:538:CB:4862, V-A:TYR:539:CE1:4875, V-A:ILE:538:C:4858, V-A:ILE:538:CG2:4863, V-B:ARG:545:CD:9894, H-B:ASP:366:OD1:8185"]

$$$$
4ba_Grossjean_2025
     RDKit          3D

 28 30  0  0  0  0  0  0  0  0999 V2000
  124.6170  124.0110   57.3170 C   0  0  0  0  0  0  0  0  0  0  0  0
  125.0020  123.1780   56.0800 C   0  0  0  0  0  0  0  0  0  0  0  0
  126.4220  122.5770   56.1120 C   0  0  0  0  0  0  0  0  0  0  0  0
  126.7530  121.7560   55.2530 O   0  0  0  0  0  0  0  0  0  0  0  0
  127.3480  123.0310   57.2020 C   0  0  0  0  0  0  0  0  0  0  0  0
  127.4320  122.2890   58.3870 C   0  0  0  0  0  0  0  0  0  0  0  0
  128.2810  122.6890   59.4140 C   0  0  0  0  0  0  0  0  0  0  0  0
  129.0660  123.8350   59.2790 C   0  0  0  0  0  0  0  0  0  0  0  0
  129.8820  124.1520   60.3820 N   0  0  0  0  0  0  0  0  0  0  0  0
  131.1580  124.6070   60.4200 C   0  0  0  0  0  0  0  0  0  0  0  0
  131.8600  124.7850   59.4230 O   0  0  0  0  0  0  0  0  0  0  0  0
  131.6910  124.8630   61.7600 C   0  0  0  0  0  0  0  0  0  0  0  0
  133.4160  124.6980   62.0750 S   0  0  0  0  0  0  0  0  0  0  0  0
  133.1940  125.0910   63.7630 C   0  0  0  0  0  0  0  0  0  0  0  0
  134.2230  125.1320   64.6080 N   0  0  0  0  0  0  0  0  0  0  0  0
  133.9270  125.4470   65.8900 C   0  0  0  0  0  0  0  0  0  0  0  0
  135.1130  125.4780   66.8380 C   0  0  0  0  0  0  0  0  0  0  0  0
  132.6400  125.7260   66.3410 C   0  0  0  0  0  0  0  0  0  0  0  0
  131.5510  125.6860   65.4550 C   0  0  0  0  0  0  0  0  0  0  0  0
  130.1530  126.0020   65.9980 C   0  0  0  0  0  0  0  0  0  0  0  0
  129.5190  126.9390   65.2910 F   0  0  0  0  0  0  0  0  0  0  0  0
  129.3980  124.9030   65.9720 F   0  0  0  0  0  0  0  0  0  0  0  0
  130.2460  126.4430   67.2530 F   0  0  0  0  0  0  0  0  0  0  0  0
  131.8290  125.3500   64.0960 C   0  0  0  0  0  0  0  0  0  0  0  0
  130.9910  125.2020   62.9310 C   0  0  0  0  0  0  0  0  0  0  0  0
  129.6320  125.3800   62.9690 N   0  0  0  0  0  0  0  0  0  0  0  0
  128.9830  124.5880   58.0980 C   0  0  0  0  0  0  0  0  0  0  0  0
  128.1320  124.1870   57.0710 C   0  0  0  0  0  0  0  0  0  0  0  0
  1  2  1  0
  2  3  1  0
  3  4  2  0
  3  5  1  0
  5  6  2  0
  6  7  1  0
  7  8  2  0
  8  9  1  0
  9 10  1  0
 10 11  2  0
 10 12  1  0
 12 13  1  0
 13 14  1  0
 14 15  2  0
 15 16  1  0
 16 17  1  0
 16 18  2  0
 18 19  1  0
 19 20  1  0
 20 21  1  0
 20 22  1  0
 20 23  1  0
 19 24  2  0
 24 25  1  0
 25 26  1  0
  8 27  1  0
 27 28  2  0
 28  5  1  0
 25 12  2  0
 24 14  1  0
M  END
>  <Binding energies>  (25) 
[-7.41]

>  <Ligand effiencies>  (25) 
[-0.23903225806451614]

>  <Interactions>  (25) 
["V-B:TYR:539:CD2:9845, V-B:MET:535:CE:9806, V-B:TYR:539:CE2:9847, V-B:TYR:539:C:9838, V-A:ASP:366:CG:3212, V-B:PRO:540:N:9855, V-B:PRO:540:CB:9856, V-B:PRO:540:CA:9854, V-B:LEU:363:CD1:8160, V-B:TYR:539:CZ:9848, V-B:TYR:531:CE2:9764, H-B:GLU:543:OE2:9881, V-A:GLU:543:CD:4908, V-B:GLU:543:CD:9879, V-A:HIS:456:CE1:4069, V-B:GLU:543:CG:9878, V-B:GLU:543:CB:9877, V-A:ILE:369:CD1:3238, H-A:ARG:545:NE:4924, V-A:ARG:545:CZ:4926, V-B:TYR:539:CD1:9844, V-B:TYR:539:CG:9843, V-B:TYR:539:CE1:9846, H-B:TYR:539:N:9841, H-A:ARG:545:NH1:4927, H-A:GLY:454:N:4049, V-A:ARG:545:CB:4921, V-A:ARG:545:CG:4922, V-A:ARG:545:CD:4923, V-A:GLY:453:CA:4043, V-A:GLY:453:C:4041, V-A:ILE:455:C:4051"]

$$$$
4bb_Grossjean_2025
     RDKit          3D

 27 29  0  0  0  0  0  0  0  0999 V2000
  132.9510  126.1730   67.0410 C   0  0  0  0  0  0  0  0  0  0  0  0
  133.3830  125.4260   65.7770 C   0  0  0  0  0  0  0  0  0  0  0  0
  134.5720  125.1240   65.6590 O   0  0  0  0  0  0  0  0  0  0  0  0
  132.3400  125.1110   64.7470 C   0  0  0  0  0  0  0  0  0  0  0  0
  132.7380  124.6730   63.4780 C   0  0  0  0  0  0  0  0  0  0  0  0
  131.7900  124.3750   62.5030 C   0  0  0  0  0  0  0  0  0  0  0  0
  130.4270  124.5000   62.7810 C   0  0  0  0  0  0  0  0  0  0  0  0
  129.5550  124.1750   61.7230 N   0  0  0  0  0  0  0  0  0  0  0  0
  128.4140  123.4440   61.7280 C   0  0  0  0  0  0  0  0  0  0  0  0
  127.9490  122.8930   62.7260 O   0  0  0  0  0  0  0  0  0  0  0  0
  127.7500  123.3140   60.4270 C   0  0  0  0  0  0  0  0  0  0  0  0
  128.4550  122.2990   59.1700 S   0  0  0  0  0  0  0  0  0  0  0  0
  127.1740  122.7120   58.0540 C   0  0  0  0  0  0  0  0  0  0  0  0
  127.1380  122.2110   56.8200 N   0  0  0  0  0  0  0  0  0  0  0  0
  126.0980  122.6050   56.0490 C   0  0  0  0  0  0  0  0  0  0  0  0
  126.0760  122.0210   54.6480 C   0  0  0  0  0  0  0  0  0  0  0  0
  125.1040  123.4790   56.4780 C   0  0  0  0  0  0  0  0  0  0  0  0
  125.1350  124.0090   57.7770 C   0  0  0  0  0  0  0  0  0  0  0  0
  124.0180  124.9680   58.2030 C   0  0  0  0  0  0  0  0  0  0  0  0
  123.4480  124.6220   59.3600 F   0  0  0  0  0  0  0  0  0  0  0  0
  124.5120  126.1970   58.3520 F   0  0  0  0  0  0  0  0  0  0  0  0
  123.0610  124.9870   57.2770 F   0  0  0  0  0  0  0  0  0  0  0  0
  126.2200  123.6150   58.6170 C   0  0  0  0  0  0  0  0  0  0  0  0
  126.5800  123.9440   59.9740 C   0  0  0  0  0  0  0  0  0  0  0  0
  125.8360  124.7940   60.7520 N   0  0  0  0  0  0  0  0  0  0  0  0
  130.0210  124.9440   64.0480 C   0  0  0  0  0  0  0  0  0  0  0  0
  130.9710  125.2440   65.0210 C   0  0  0  0  0  0  0  0  0  0  0  0
  1  2  1  0
  2  3  2  0
  2  4  1  0
  4  5  2  0
  5  6  1  0
  6  7  2  0
  7  8  1  0
  8  9  1  0
  9 10  2  0
  9 11  1  0
 11 12  1  0
 12 13  1  0
 13 14  2  0
 14 15  1  0
 15 16  1  0
 15 17  2  0
 17 18  1  0
 18 19  1  0
 19 20  1  0
 19 21  1  0
 19 22  1  0
 18 23  2  0
 23 24  1  0
 24 25  1  0
  7 26  1  0
 26 27  2  0
 27  4  1  0
 24 11  2  0
 23 13  1  0
M  END
>  <Binding energies>  (26) 
[-7.79]

>  <Ligand effiencies>  (26) 
[-0.25966666666666666]

>  <Interactions>  (26) 
["V-B:TYR:539:CD2:9845, V-B:MET:535:CE:9806, V-B:ASP:366:CG:8184, V-B:TYR:539:CE2:9847, V-B:TYR:539:C:9838, H-B:ASP:366:OD2:8186, V-B:PRO:540:N:9855, V-B:LEU:363:CA:8156, V-B:PRO:540:CB:9856, V-B:PRO:540:CA:9854, V-B:LEU:363:CD1:8160, V-B:TYR:539:CZ:9848, V-B:TYR:531:CZ:9765, V-B:ASP:366:CB:8183, V-B:TYR:531:CE2:9764, H-B:GLU:543:OE2:9881, H-B:ALA:541:N:9862, V-A:HIS:456:CE1:4069, H-A:TYR:484:OH:4347, H-A:ARG:545:NE:4924, V-A:ARG:545:CZ:4926, V-B:TYR:539:CD1:9844, V-B:TYR:539:CG:9843, V-B:ALA:541:CB:9863, H-B:TYR:539:N:9841, V-B:ASN:362:C:8143, V-B:LEU:363:CB:8158, V-B:LEU:363:CG:8159, V-B:LEU:363:C:8154, H-A:ARG:545:NH1:4927, H-A:GLY:454:N:4049, V-B:ILE:538:CA:9831, V-B:ILE:538:C:9829, V-B:ILE:538:CD1:9836, V-B:ILE:538:CG2:9834, V-B:ILE:538:CB:9833, V-A:ARG:545:CG:4922, V-A:ARG:545:CD:4923, V-B:TYR:531:CD2:9762"]

$$$$
4bd_Grossjean_2025
     RDKit          3D

 24 26  0  0  0  0  0  0  0  0999 V2000
  126.4230  122.0860   54.9260 C   0  0  0  0  0  0  0  0  0  0  0  0
  126.3670  122.6720   56.3250 C   0  0  0  0  0  0  0  0  0  0  0  0
  125.3300  123.5180   56.7090 C   0  0  0  0  0  0  0  0  0  0  0  0
  125.2920  124.0540   58.0050 C   0  0  0  0  0  0  0  0  0  0  0  0
  124.1330  124.9840   58.3800 C   0  0  0  0  0  0  0  0  0  0  0  0
  123.6350  124.7330   59.5930 F   0  0  0  0  0  0  0  0  0  0  0  0
  124.5490  126.2500   58.3740 F   0  0  0  0  0  0  0  0  0  0  0  0
  123.1390  124.8410   57.5040 F   0  0  0  0  0  0  0  0  0  0  0  0
  126.3500  123.6930   58.8920 C   0  0  0  0  0  0  0  0  0  0  0  0
  126.6420  124.0360   60.2630 C   0  0  0  0  0  0  0  0  0  0  0  0
  125.8380  124.8600   61.0060 N   0  0  0  0  0  0  0  0  0  0  0  0
  127.8190  123.4520   60.7620 C   0  0  0  0  0  0  0  0  0  0  0  0
  128.4170  123.5980   62.0930 C   0  0  0  0  0  0  0  0  0  0  0  0
  127.8070  123.2350   63.0990 O   0  0  0  0  0  0  0  0  0  0  0  0
  129.6610  124.1370   62.1150 N   0  0  0  0  0  0  0  0  0  0  0  0
  130.4830  124.4460   63.2140 C   0  0  0  0  0  0  0  0  0  0  0  0
  129.8890  125.2000   64.2300 C   0  0  0  0  0  0  0  0  0  0  0  0
  130.6170  125.5470   65.3650 C   0  0  0  0  0  0  0  0  0  0  0  0
  131.9410  125.1330   65.4890 C   0  0  0  0  0  0  0  0  0  0  0  0
  132.5400  124.3700   64.4900 C   0  0  0  0  0  0  0  0  0  0  0  0
  131.8150  124.0210   63.3540 C   0  0  0  0  0  0  0  0  0  0  0  0
  128.6000  122.4490   59.5430 S   0  0  0  0  0  0  0  0  0  0  0  0
  127.3530  122.8180   58.3740 C   0  0  0  0  0  0  0  0  0  0  0  0
  127.3830  122.3110   57.1430 N   0  0  0  0  0  0  0  0  0  0  0  0
  1  2  1  0
  2  3  2  0
  3  4  1  0
  4  5  1  0
  5  6  1  0
  5  7  1  0
  5  8  1  0
  4  9  2  0
  9 10  1  0
 10 11  1  0
 10 12  2  0
 12 13  1  0
 13 14  2  0
 13 15  1  0
 15 16  1  0
 16 17  2  0
 17 18  1  0
 18 19  2  0
 19 20  1  0
 20 21  2  0
 12 22  1  0
 22 23  1  0
 23 24  2  0
 24  2  1  0
 23  9  1  0
 21 16  1  0
M  END
>  <Binding energies>  (27) 
[-6.65]

>  <Ligand effiencies>  (27) 
[-0.24629629629629632]

>  <Interactions>  (27) 
["V-B:TYR:539:CD2:9845, V-B:MET:535:CE:9806, V-B:ASP:366:CG:8184, V-B:TYR:539:CE2:9847, V-B:TYR:539:C:9838, H-B:ASP:366:OD2:8186, V-B:PRO:540:N:9855, V-B:LEU:363:CA:8156, V-B:PRO:540:CB:9856, V-B:PRO:540:CA:9854, V-B:LEU:363:CD1:8160, V-B:TYR:531:CZ:9765, V-B:ASP:366:CB:8183, V-B:TYR:531:CE2:9764, H-B:GLU:543:OE2:9881, H-B:ALA:541:N:9862, V-B:GLU:543:CD:9879, V-B:GLU:543:CG:9878, V-B:TYR:539:CD1:9844, V-B:TYR:539:CE1:9846, V-B:ALA:541:CB:9863, H-B:TYR:539:N:9841, V-B:ASN:362:C:8143, V-B:LEU:363:CB:8158, V-B:LEU:363:CG:8159, V-B:LEU:363:C:8154, V-B:ILE:538:CA:9831, V-B:ILE:538:C:9829, V-B:ILE:538:CD1:9836"]

$$$$
4be_Grossjean_2025
     RDKit          3D

 25 27  0  0  0  0  0  0  0  0999 V2000
  133.6090  131.5070   58.7820 C   0  0  0  0  0  0  0  0  0  0  0  0
  132.3940  131.5170   57.8750 C   0  0  0  0  0  0  0  0  0  0  0  0
  132.0200  132.6620   57.1670 C   0  0  0  0  0  0  0  0  0  0  0  0
  130.8890  132.5990   56.3520 C   0  0  0  0  0  0  0  0  0  0  0  0
  130.1660  131.4070   56.2660 C   0  0  0  0  0  0  0  0  0  0  0  0
  130.5990  130.2950   56.9980 C   0  0  0  0  0  0  0  0  0  0  0  0
  129.8240  129.1280   56.8730 N   0  0  0  0  0  0  0  0  0  0  0  0
  128.7690  128.7220   57.6230 C   0  0  0  0  0  0  0  0  0  0  0  0
  128.3130  129.3640   58.5710 O   0  0  0  0  0  0  0  0  0  0  0  0
  128.1930  127.4270   57.2490 C   0  0  0  0  0  0  0  0  0  0  0  0
  128.9080  126.4850   55.9420 S   0  0  0  0  0  0  0  0  0  0  0  0
  127.7000  125.2340   56.1230 C   0  0  0  0  0  0  0  0  0  0  0  0
  127.7030  124.1490   55.3510 N   0  0  0  0  0  0  0  0  0  0  0  0
  126.7190  123.2490   55.5870 C   0  0  0  0  0  0  0  0  0  0  0  0
  126.7380  122.0210   54.6950 C   0  0  0  0  0  0  0  0  0  0  0  0
  125.7440  123.4090   56.5680 C   0  0  0  0  0  0  0  0  0  0  0  0
  125.7360  124.5500   57.3850 C   0  0  0  0  0  0  0  0  0  0  0  0
  124.6450  124.6790   58.4530 C   0  0  0  0  0  0  0  0  0  0  0  0
  123.8660  123.5970   58.5360 F   0  0  0  0  0  0  0  0  0  0  0  0
  125.2040  124.8580   59.6500 F   0  0  0  0  0  0  0  0  0  0  0  0
  123.8600  125.7180   58.1740 F   0  0  0  0  0  0  0  0  0  0  0  0
  126.7580  125.5200   57.1600 C   0  0  0  0  0  0  0  0  0  0  0  0
  127.0610  126.7870   57.7780 C   0  0  0  0  0  0  0  0  0  0  0  0
  126.3100  127.3130   58.7970 N   0  0  0  0  0  0  0  0  0  0  0  0
  131.7020  130.3510   57.8000 N   0  0  0  0  0  0  0  0  0  0  0  0
  1  2  1  0
  2  3  2  0
  3  4  1  0
  4  5  2  0
  5  6  1  0
  6  7  1  0
  7  8  1  0
  8  9  2  0
  8 10  1  0
 10 11  1  0
 11 12  1  0
 12 13  2  0
 13 14  1  0
 14 15  1  0
 14 16  2  0
 16 17  1  0
 17 18  1  0
 18 19  1  0
 18 20  1  0
 18 21  1  0
 17 22  2  0
 22 23  1  0
 23 24  1  0
  6 25  2  0
 25  2  1  0
 23 10  2  0
 22 12  1  0
M  END
>  <Binding energies>  (28) 
[-6.71]

>  <Ligand effiencies>  (28) 
[-0.23964285714285713]

>  <Interactions>  (28) 
["V-B:MET:535:CE:9806, V-B:ASP:366:CG:8184, H-B:ASP:366:OD2:8186, V-A:ASP:366:CG:3212, V-B:LEU:363:CA:8156, V-B:PRO:540:CB:9856, H-B:TYR:531:OH:9766, V-A:ASP:366:CB:3211, V-B:PRO:540:CA:9854, V-B:LEU:363:CD1:8160, V-B:TYR:531:CZ:9765, V-B:ASP:366:CB:8183, V-B:TYR:531:CE2:9764, V-A:PRO:540:N:4884, V-A:PRO:540:CB:4885, V-A:PRO:540:CA:4883, V-B:TYR:539:CD1:9844, V-B:TYR:539:CE1:9846, H-A:TYR:531:OH:4795, V-A:LEU:363:CD1:3188, V-A:LEU:363:CA:3184, V-B:LEU:363:CB:8158, V-A:MET:535:CE:4835, V-A:PRO:540:CD:4887, V-B:ILE:538:CA:9831, V-B:ILE:538:C:9829, V-B:ILE:538:CD1:9836, V-A:LEU:363:CB:3186"]

$$$$
4bg_Grossjean_2025
     RDKit          3D

 25 27  0  0  0  0  0  0  0  0999 V2000
  126.3350  122.1290   54.8040 C   0  0  0  0  0  0  0  0  0  0  0  0
  126.2260  122.6560   56.2230 C   0  0  0  0  0  0  0  0  0  0  0  0
  125.1960  123.5180   56.5910 C   0  0  0  0  0  0  0  0  0  0  0  0
  125.1110  124.0020   57.9070 C   0  0  0  0  0  0  0  0  0  0  0  0
  123.9600  124.9480   58.2650 C   0  0  0  0  0  0  0  0  0  0  0  0
  123.3760  124.6420   59.4260 F   0  0  0  0  0  0  0  0  0  0  0  0
  124.4170  126.1960   58.3660 F   0  0  0  0  0  0  0  0  0  0  0  0
  123.0220  124.8970   57.3200 F   0  0  0  0  0  0  0  0  0  0  0  0
  126.1140  123.5730   58.8260 C   0  0  0  0  0  0  0  0  0  0  0  0
  126.3540  123.8560   60.2200 C   0  0  0  0  0  0  0  0  0  0  0  0
  125.5560  124.6960   60.9550 N   0  0  0  0  0  0  0  0  0  0  0  0
  127.4670  123.1900   60.7550 C   0  0  0  0  0  0  0  0  0  0  0  0
  128.0120  123.2690   62.1100 C   0  0  0  0  0  0  0  0  0  0  0  0
  127.3510  122.9230   63.0910 O   0  0  0  0  0  0  0  0  0  0  0  0
  129.2860  123.7030   62.2100 N   0  0  0  0  0  0  0  0  0  0  0  0
  130.0280  123.8760   63.4580 C   0  0  0  0  0  0  0  0  0  0  0  0
  131.5120  124.1500   63.2520 C   0  0  0  0  0  0  0  0  0  0  0  0
  132.1280  123.8050   62.0460 C   0  0  0  0  0  0  0  0  0  0  0  0
  133.4760  124.0920   61.8460 C   0  0  0  0  0  0  0  0  0  0  0  0
  134.2010  124.7360   62.8470 C   0  0  0  0  0  0  0  0  0  0  0  0
  133.5890  125.0980   64.0450 C   0  0  0  0  0  0  0  0  0  0  0  0
  132.2410  124.8100   64.2460 C   0  0  0  0  0  0  0  0  0  0  0  0
  128.2810  122.2160   59.5340 S   0  0  0  0  0  0  0  0  0  0  0  0
  127.1110  122.6820   58.3220 C   0  0  0  0  0  0  0  0  0  0  0  0
  127.1890  122.2270   57.0710 N   0  0  0  0  0  0  0  0  0  0  0  0
  1  2  1  0
  2  3  2  0
  3  4  1  0
  4  5  1  0
  5  6  1  0
  5  7  1  0
  5  8  1  0
  4  9  2  0
  9 10  1  0
 10 11  1  0
 10 12  2  0
 12 13  1  0
 13 14  2  0
 13 15  1  0
 15 16  1  0
 16 17  1  0
 17 18  2  0
 18 19  1  0
 19 20  2  0
 20 21  1  0
 21 22  2  0
 12 23  1  0
 23 24  1  0
 24 25  2  0
 25  2  1  0
 24  9  1  0
 22 17  1  0
M  END
>  <Binding energies>  (29) 
[-6.93]

>  <Ligand effiencies>  (29) 
[-0.2475]

>  <Interactions>  (29) 
["V-B:TYR:539:CD2:9845, V-B:MET:535:CE:9806, V-B:ASP:366:CG:8184, V-B:TYR:539:CE2:9847, V-B:TYR:539:C:9838, H-B:ASP:366:OD2:8186, V-B:PRO:540:N:9855, V-A:ILE:369:CG2:3236, V-B:LEU:363:CA:8156, V-B:PRO:540:CB:9856, V-B:PRO:540:CA:9854, V-B:LEU:363:CD1:8160, V-B:TYR:531:CZ:9765, V-B:ASP:366:CB:8183, V-B:TYR:531:CE2:9764, H-B:GLU:543:OE2:9881, H-B:ALA:541:N:9862, V-A:ILE:369:CD1:3238, V-A:ARG:545:CZ:4926, V-B:TYR:539:CD1:9844, V-B:TYR:539:CE1:9846, V-B:ALA:541:CB:9863, H-B:TYR:539:N:9841, V-B:ASN:362:C:8143, V-B:LEU:363:CB:8158, V-B:LEU:363:CG:8159, V-B:LEU:363:C:8154, V-B:ILE:538:CA:9831, V-B:ILE:538:C:9829, V-B:ILE:538:CD1:9836, V-A:GLY:453:CA:4043, V-A:GLY:453:C:4041, V-B:TYR:531:CD2:9762"]

$$$$
4ca_Grossjean_2025
     RDKit          3D

 34 37  0  0  0  0  0  0  0  0999 V2000
  125.6720  130.6940   54.9410 C   0  0  0  0  0  0  0  0  0  0  0  0
  125.7510  130.7120   56.4700 C   0  0  0  0  0  0  0  0  0  0  0  0
  124.4440  130.5770   57.0130 O   0  0  0  0  0  0  0  0  0  0  0  0
  124.0240  131.3670   58.0350 C   0  0  0  0  0  0  0  0  0  0  0  0
  123.2480  132.3170   57.8850 O   0  0  0  0  0  0  0  0  0  0  0  0
  124.5930  130.9680   59.3650 C   0  0  0  0  0  0  0  0  0  0  0  0
  125.5560  129.9520   59.4200 C   0  0  0  0  0  0  0  0  0  0  0  0
  126.1060  129.5630   60.6390 C   0  0  0  0  0  0  0  0  0  0  0  0
  125.7010  130.1750   61.8250 C   0  0  0  0  0  0  0  0  0  0  0  0
  126.3290  129.7110   62.9980 N   0  0  0  0  0  0  0  0  0  0  0  0
  125.9390  129.8080   64.2930 C   0  0  0  0  0  0  0  0  0  0  0  0
  124.8780  130.3130   64.6600 O   0  0  0  0  0  0  0  0  0  0  0  0
  126.8720  129.2430   65.2700 C   0  0  0  0  0  0  0  0  0  0  0  0
  126.7800  129.7220   66.9630 S   0  0  0  0  0  0  0  0  0  0  0  0
  128.0880  128.6430   67.3860 C   0  0  0  0  0  0  0  0  0  0  0  0
  128.5230  128.5390   68.6400 N   0  0  0  0  0  0  0  0  0  0  0  0
  129.5350  127.6640   68.8760 C   0  0  0  0  0  0  0  0  0  0  0  0
  129.9970  127.5620   70.3010 C   0  0  0  0  0  0  0  0  0  0  0  0
  129.2230  126.8900   71.2610 C   0  0  0  0  0  0  0  0  0  0  0  0
  129.6440  126.7970   72.5850 C   0  0  0  0  0  0  0  0  0  0  0  0
  130.8480  127.3770   72.9700 C   0  0  0  0  0  0  0  0  0  0  0  0
  131.6320  128.0510   72.0400 C   0  0  0  0  0  0  0  0  0  0  0  0
  131.2090  128.1420   70.7170 C   0  0  0  0  0  0  0  0  0  0  0  0
  130.1200  126.9160   67.8480 C   0  0  0  0  0  0  0  0  0  0  0  0
  129.6710  127.0220   66.5230 C   0  0  0  0  0  0  0  0  0  0  0  0
  130.3550  126.1710   65.4470 C   0  0  0  0  0  0  0  0  0  0  0  0
  130.7980  126.8890   64.4130 F   0  0  0  0  0  0  0  0  0  0  0  0
  131.4040  125.5370   65.9710 F   0  0  0  0  0  0  0  0  0  0  0  0
  129.4930  125.2740   64.9670 F   0  0  0  0  0  0  0  0  0  0  0  0
  128.5990  127.9240   66.2670 C   0  0  0  0  0  0  0  0  0  0  0  0
  127.8820  128.2860   65.0690 C   0  0  0  0  0  0  0  0  0  0  0  0
  128.1660  127.7420   63.8420 N   0  0  0  0  0  0  0  0  0  0  0  0
  124.7420  131.1970   61.7800 C   0  0  0  0  0  0  0  0  0  0  0  0
  124.1940  131.5870   60.5600 C   0  0  0  0  0  0  0  0  0  0  0  0
  1  2  1  0
  2  3  1  0
  3  4  1  0
  4  5  2  0
  4  6  1  0
  6  7  2  0
  7  8  1  0
  8  9  2  0
  9 10  1  0
 10 11  1  0
 11 12  2  0
 11 13  1  0
 13 14  1  0
 14 15  1  0
 15 16  2  0
 16 17  1  0
 17 18  1  0
 18 19  2  0
 19 20  1  0
 20 21  2  0
 21 22  1  0
 22 23  2  0
 17 24  2  0
 24 25  1  0
 25 26  1  0
 26 27  1  0
 26 28  1  0
 26 29  1  0
 25 30  2  0
 30 31  1  0
 31 32  1  0
  9 33  1  0
 33 34  2  0
 34  6  1  0
 31 13  2  0
 30 15  1  0
 23 18  1  0
M  END
>  <Binding energies>  (30) 
[-7.82]

>  <Ligand effiencies>  (30) 
[-0.21135135135135136]

>  <Interactions>  (30) 
["V-B:ASP:366:CG:8184, H-B:TYR:531:OH:9766, V-B:TYR:531:CZ:9765, V-B:ASP:366:CB:8183, H-B:GLU:543:OE2:9881, V-A:GLU:543:CD:4908, H-A:GLU:543:OE1:4909, V-A:GLU:543:CG:4907, H-B:GLY:454:N:9021, V-B:GLU:543:CD:9879, V-B:HIS:456:CE1:9041, V-A:GLU:543:CB:4906, V-A:HIS:456:CE1:4069, V-B:GLU:543:CG:9878, V-A:TYR:539:CE2:4876, V-A:TYR:539:CZ:4877, V-B:ASP:366:CA:8181, V-B:ASP:366:C:8179, V-A:MET:535:CE:4835, H-A:TYR:539:OH:4878, V-B:ASN:370:CB:8216, V-B:TYR:531:CE1:9763, V-B:ASN:370:CG:8217, V-A:ARG:545:CA:4919, V-A:GLY:544:C:4912, H-B:ASN:370:N:8215, H-B:GLU:543:OE1:9880"]

$$$$
4cb_Grossjean_2025
     RDKit          3D

 33 36  0  0  0  0  0  0  0  0999 V2000
  124.8920  122.5630   55.6660 C   0  0  0  0  0  0  0  0  0  0  0  0
  125.4140  122.8530   56.9550 O   0  0  0  0  0  0  0  0  0  0  0  0
  126.6810  122.5000   57.2910 C   0  0  0  0  0  0  0  0  0  0  0  0
  127.3870  121.7560   56.6030 O   0  0  0  0  0  0  0  0  0  0  0  0
  127.1420  123.1070   58.5860 C   0  0  0  0  0  0  0  0  0  0  0  0
  126.4350  124.1910   59.1230 C   0  0  0  0  0  0  0  0  0  0  0  0
  126.8330  124.7700   60.3250 C   0  0  0  0  0  0  0  0  0  0  0  0
  127.9460  124.2840   61.0100 C   0  0  0  0  0  0  0  0  0  0  0  0
  128.2500  124.9340   62.2220 N   0  0  0  0  0  0  0  0  0  0  0  0
  129.4430  125.3410   62.7190 C   0  0  0  0  0  0  0  0  0  0  0  0
  130.5140  125.2360   62.1200 O   0  0  0  0  0  0  0  0  0  0  0  0
  129.3910  125.9540   64.0490 C   0  0  0  0  0  0  0  0  0  0  0  0
  130.3130  125.2610   65.3820 S   0  0  0  0  0  0  0  0  0  0  0  0
  129.7680  126.5140   66.4710 C   0  0  0  0  0  0  0  0  0  0  0  0
  130.1560  126.5470   67.7430 N   0  0  0  0  0  0  0  0  0  0  0  0
  129.6880  127.5660   68.5110 C   0  0  0  0  0  0  0  0  0  0  0  0
  130.1480  127.5790   69.9400 C   0  0  0  0  0  0  0  0  0  0  0  0
  129.3570  127.0170   70.9540 C   0  0  0  0  0  0  0  0  0  0  0  0
  129.7760  127.0290   72.2820 C   0  0  0  0  0  0  0  0  0  0  0  0
  130.9970  127.6050   72.6150 C   0  0  0  0  0  0  0  0  0  0  0  0
  131.8000  128.1720   71.6300 C   0  0  0  0  0  0  0  0  0  0  0  0
  131.3760  128.1590   70.3040 C   0  0  0  0  0  0  0  0  0  0  0  0
  128.8150  128.5330   68.0010 C   0  0  0  0  0  0  0  0  0  0  0  0
  128.3970  128.5060   66.6630 C   0  0  0  0  0  0  0  0  0  0  0  0
  127.4400  129.5990   66.1690 C   0  0  0  0  0  0  0  0  0  0  0  0
  126.2720  129.1170   65.7400 F   0  0  0  0  0  0  0  0  0  0  0  0
  127.1800  130.4510   67.1610 F   0  0  0  0  0  0  0  0  0  0  0  0
  127.9960  130.2610   65.1540 F   0  0  0  0  0  0  0  0  0  0  0  0
  128.8950  127.4510   65.8450 C   0  0  0  0  0  0  0  0  0  0  0  0
  128.7010  127.1080   64.4570 C   0  0  0  0  0  0  0  0  0  0  0  0
  127.9110  127.8470   63.6140 N   0  0  0  0  0  0  0  0  0  0  0  0
  128.6580  123.1970   60.4810 C   0  0  0  0  0  0  0  0  0  0  0  0
  128.2580  122.6180   59.2800 C   0  0  0  0  0  0  0  0  0  0  0  0
  1  2  1  0
  2  3  1  0
  3  4  2  0
  3  5  1  0
  5  6  2  0
  6  7  1  0
  7  8  2  0
  8  9  1  0
  9 10  1  0
 10 11  2  0
 10 12  1  0
 12 13  1  0
 13 14  1  0
 14 15  2  0
 15 16  1  0
 16 17  1  0
 17 18  2  0
 18 19  1  0
 19 20  2  0
 20 21  1  0
 21 22  2  0
 16 23  2  0
 23 24  1  0
 24 25  1  0
 25 26  1  0
 25 27  1  0
 25 28  1  0
 24 29  2  0
 29 30  1  0
 30 31  1  0
  8 32  1  0
 32 33  2  0
 33  5  1  0
 30 12  2  0
 29 14  1  0
 22 17  1  0
M  END
>  <Binding energies>  (31) 
[-7.52]

>  <Ligand effiencies>  (31) 
[-0.20888888888888887]

>  <Interactions>  (31) 
["V-B:TYR:539:CD2:9845, V-B:MET:535:CE:9806, V-B:TYR:539:CE2:9847, V-B:TYR:539:C:9838, V-B:PRO:540:CD:9858, V-B:PRO:540:N:9855, V-B:PRO:540:CB:9856, V-B:PRO:540:CA:9854, V-B:LEU:363:CD1:8160, H-B:GLU:543:OE2:9881, V-A:GLU:543:CD:4908, V-A:GLU:543:CG:4907, V-B:GLU:543:CD:9879, V-B:HIS:456:CE1:9041, V-A:GLU:543:CB:4906, V-A:HIS:456:CE1:4069, V-B:GLU:543:CG:9878, V-B:TYR:484:CE1:9316, H-B:TYR:539:N:9841, V-B:TYR:484:CZ:9318, V-A:ARG:545:CA:4919, V-A:GLY:544:C:4912, V-B:ILE:538:CD1:9836, V-B:ILE:538:CG2:9834, H-B:GLU:543:OE1:9880"]

$$$$
4cc_Grossjean_2025
     RDKit          3D

 31 34  0  0  0  0  0  0  0  0999 V2000
  126.5860  121.9120   54.6540 C   0  0  0  0  0  0  0  0  0  0  0  0
  126.2990  121.8710   56.0480 O   0  0  0  0  0  0  0  0  0  0  0  0
  126.1830  123.0570   56.7470 C   0  0  0  0  0  0  0  0  0  0  0  0
  127.3450  123.8150   56.8850 C   0  0  0  0  0  0  0  0  0  0  0  0
  127.3250  125.0250   57.5720 C   0  0  0  0  0  0  0  0  0  0  0  0
  126.1390  125.4900   58.1420 C   0  0  0  0  0  0  0  0  0  0  0  0
  126.2120  126.7310   58.8040 N   0  0  0  0  0  0  0  0  0  0  0  0
  127.2140  127.6420   58.8070 C   0  0  0  0  0  0  0  0  0  0  0  0
  128.2550  127.5230   58.1590 O   0  0  0  0  0  0  0  0  0  0  0  0
  126.9900  128.8210   59.6490 C   0  0  0  0  0  0  0  0  0  0  0  0
  127.2330  130.4390   58.9940 S   0  0  0  0  0  0  0  0  0  0  0  0
  126.7820  131.1710   60.5150 C   0  0  0  0  0  0  0  0  0  0  0  0
  126.7640  132.4930   60.6720 N   0  0  0  0  0  0  0  0  0  0  0  0
  126.3910  132.9700   61.8870 C   0  0  0  0  0  0  0  0  0  0  0  0
  126.3840  134.4630   62.0350 C   0  0  0  0  0  0  0  0  0  0  0  0
  127.5210  135.2220   61.7150 C   0  0  0  0  0  0  0  0  0  0  0  0
  127.5230  136.6080   61.8520 C   0  0  0  0  0  0  0  0  0  0  0  0
  126.3830  137.2570   62.3130 C   0  0  0  0  0  0  0  0  0  0  0  0
  125.2430  136.5300   62.6410 C   0  0  0  0  0  0  0  0  0  0  0  0
  125.2470  135.1440   62.5040 C   0  0  0  0  0  0  0  0  0  0  0  0
  126.0520  132.1180   62.9430 C   0  0  0  0  0  0  0  0  0  0  0  0
  126.0690  130.7220   62.7890 C   0  0  0  0  0  0  0  0  0  0  0  0
  125.6810  129.8480   63.9870 C   0  0  0  0  0  0  0  0  0  0  0  0
  126.4750  128.7850   64.1410 F   0  0  0  0  0  0  0  0  0  0  0  0
  125.7510  130.5630   65.1090 F   0  0  0  0  0  0  0  0  0  0  0  0
  124.4370  129.3960   63.8310 F   0  0  0  0  0  0  0  0  0  0  0  0
  126.4510  130.2110   61.5160 C   0  0  0  0  0  0  0  0  0  0  0  0
  126.5840  128.8740   60.9920 C   0  0  0  0  0  0  0  0  0  0  0  0
  126.3300  127.7550   61.7440 N   0  0  0  0  0  0  0  0  0  0  0  0
  124.9620  124.7390   57.9980 C   0  0  0  0  0  0  0  0  0  0  0  0
  124.9870  123.5300   57.3090 C   0  0  0  0  0  0  0  0  0  0  0  0
  1  2  1  0
  2  3  1  0
  3  4  2  0
  4  5  1  0
  5  6  2  0
  6  7  1  0
  7  8  1  0
  8  9  2  0
  8 10  1  0
 10 11  1  0
 11 12  1  0
 12 13  2  0
 13 14  1  0
 14 15  1  0
 15 16  2  0
 16 17  1  0
 17 18  2  0
 18 19  1  0
 19 20  2  0
 14 21  2  0
 21 22  1  0
 22 23  1  0
 23 24  1  0
 23 25  1  0
 23 26  1  0
 22 27  2  0
 27 28  1  0
 28 29  1  0
  6 30  1  0
 30 31  2  0
 31  3  1  0
 28 10  2  0
 27 12  1  0
 20 15  1  0
M  END
>  <Binding energies>  (32) 
[-7.85]

>  <Ligand effiencies>  (32) 
[-0.23088235294117646]

>  <Interactions>  (32) 
["V-B:MET:535:CE:9806, V-B:ASP:366:CG:8184, H-B:ASP:366:OD2:8186, V-B:PRO:540:N:9855, V-B:PRO:540:CB:9856, H-B:TYR:531:OH:9766, V-B:LEU:363:CD1:8160, H-B:GLU:543:OE2:9881, V-B:PRO:482:CB:9297, V-B:LEU:475:CD1:9229, V-B:TRP:381:CH2:8343, V-A:TYR:539:CD2:4874, V-A:ALA:541:CB:4892, V-B:PRO:482:CG:9298, V-B:TRP:381:CZ2:8341, V-B:GLU:543:CD:9879, V-B:TYR:539:CD1:9844, V-B:TYR:539:CE1:9846, H-B:TYR:539:N:9841, V-B:ARG:545:CZ:9897, V-B:TRP:381:CE2:8338, V-B:ILE:538:CA:9831, V-B:ILE:538:C:9829, V-B:ILE:538:CD1:9836, H-B:ASP:366:OD1:8185, V-B:ILE:538:CB:9833, V-B:VAL:537:C:9821"]

$$$$
4ce_Grossjean_2025
     RDKit          3D

 30 33  0  0  0  0  0  0  0  0999 V2000
  127.4880  123.3720   55.4340 C   0  0  0  0  0  0  0  0  0  0  0  0
  126.4700  123.7770   56.4830 C   0  0  0  0  0  0  0  0  0  0  0  0
  125.3710  122.9680   56.7850 C   0  0  0  0  0  0  0  0  0  0  0  0
  124.4790  123.4000   57.7680 C   0  0  0  0  0  0  0  0  0  0  0  0
  124.7050  124.6140   58.4190 C   0  0  0  0  0  0  0  0  0  0  0  0
  125.8230  125.3780   58.0640 C   0  0  0  0  0  0  0  0  0  0  0  0
  126.0100  126.5790   58.7720 N   0  0  0  0  0  0  0  0  0  0  0  0
  127.1670  127.2300   59.0490 C   0  0  0  0  0  0  0  0  0  0  0  0
  128.2760  126.8410   58.6800 O   0  0  0  0  0  0  0  0  0  0  0  0
  127.0260  128.4590   59.8320 C   0  0  0  0  0  0  0  0  0  0  0  0
  127.3170  130.0270   59.0810 S   0  0  0  0  0  0  0  0  0  0  0  0
  126.9200  130.8610   60.5640 C   0  0  0  0  0  0  0  0  0  0  0  0
  126.9510  132.1890   60.6440 N   0  0  0  0  0  0  0  0  0  0  0  0
  126.6110  132.7480   61.8350 C   0  0  0  0  0  0  0  0  0  0  0  0
  126.6510  134.2460   61.8890 C   0  0  0  0  0  0  0  0  0  0  0  0
  125.4830  134.9860   62.1370 C   0  0  0  0  0  0  0  0  0  0  0  0
  125.5120  136.3780   62.1820 C   0  0  0  0  0  0  0  0  0  0  0  0
  126.7120  137.0500   61.9810 C   0  0  0  0  0  0  0  0  0  0  0  0
  127.8830  136.3420   61.7330 C   0  0  0  0  0  0  0  0  0  0  0  0
  127.8500  134.9500   61.6860 C   0  0  0  0  0  0  0  0  0  0  0  0
  126.2620  131.9710   62.9440 C   0  0  0  0  0  0  0  0  0  0  0  0
  126.2310  130.5690   62.8730 C   0  0  0  0  0  0  0  0  0  0  0  0
  125.8380  129.7790   64.1250 C   0  0  0  0  0  0  0  0  0  0  0  0
  126.6410  128.7400   64.3630 F   0  0  0  0  0  0  0  0  0  0  0  0
  125.8880  130.5750   65.1950 F   0  0  0  0  0  0  0  0  0  0  0  0
  124.6000  129.3050   63.9890 F   0  0  0  0  0  0  0  0  0  0  0  0
  126.5710  129.9730   61.6240 C   0  0  0  0  0  0  0  0  0  0  0  0
  126.6420  128.6030   61.1760 C   0  0  0  0  0  0  0  0  0  0  0  0
  126.3580  127.5400   61.9930 N   0  0  0  0  0  0  0  0  0  0  0  0
  126.7020  124.9600   57.1070 N   0  0  0  0  0  0  0  0  0  0  0  0
  1  2  1  0
  2  3  2  0
  3  4  1  0
  4  5  2  0
  5  6  1  0
  6  7  1  0
  7  8  1  0
  8  9  2  0
  8 10  1  0
 10 11  1  0
 11 12  1  0
 12 13  2  0
 13 14  1  0
 14 15  1  0
 15 16  2  0
 16 17  1  0
 17 18  2  0
 18 19  1  0
 19 20  2  0
 14 21  2  0
 21 22  1  0
 22 23  1  0
 23 24  1  0
 23 25  1  0
 23 26  1  0
 22 27  2  0
 27 28  1  0
 28 29  1  0
  6 30  2  0
 30  2  1  0
 28 10  2  0
 27 12  1  0
 20 15  1  0
M  END
>  <Binding energies>  (33) 
[-7.52]

>  <Ligand effiencies>  (33) 
[-0.22787878787878788]

>  <Interactions>  (33) 
["V-B:MET:535:CE:9806, V-B:ASP:366:CG:8184, V-B:PRO:540:CD:9858, H-B:ASP:366:OD2:8186, V-B:PRO:540:N:9855, V-B:LEU:363:CA:8156, V-B:PRO:540:CB:9856, H-B:TYR:531:OH:9766, V-B:PRO:540:CA:9854, V-B:LEU:363:CD1:8160, V-B:TYR:539:CZ:9848, V-B:ASP:366:CB:8183, H-B:GLU:543:OE2:9881, V-B:PRO:482:CB:9297, V-B:LEU:475:CD1:9229, V-B:TRP:381:CH2:8343, V-A:TYR:539:CD2:4874, V-A:ALA:541:CB:4892, V-B:PRO:482:CG:9298, V-B:TRP:381:CZ2:8341, V-B:GLU:543:CD:9879, V-B:TYR:539:CD1:9844, V-B:TYR:539:CE1:9846, V-B:ARG:545:CZ:9897, V-B:TRP:381:CE2:8338, V-B:TRP:381:CZ3:8342, H-B:ASP:366:OD1:8185"]

$$$$
4cf_Grossjean_2025
     RDKit          3D

 29 32  0  0  0  0  0  0  0  0999 V2000
  126.3450  127.5070   62.0410 N   0  0  0  0  0  0  0  0  0  0  0  0
  126.5940  128.5660   61.2060 C   0  0  0  0  0  0  0  0  0  0  0  0
  126.9400  128.4160   59.8540 C   0  0  0  0  0  0  0  0  0  0  0  0
  127.1370  127.1780   59.0930 C   0  0  0  0  0  0  0  0  0  0  0  0
  128.2720  126.7970   58.8010 O   0  0  0  0  0  0  0  0  0  0  0  0
  126.0050  126.5120   58.7650 N   0  0  0  0  0  0  0  0  0  0  0  0
  125.8420  125.3360   58.0070 C   0  0  0  0  0  0  0  0  0  0  0  0
  126.6640  124.9330   56.9380 C   0  0  0  0  0  0  0  0  0  0  0  0
  126.3810  123.7460   56.2590 C   0  0  0  0  0  0  0  0  0  0  0  0
  125.2810  122.9900   56.6630 C   0  0  0  0  0  0  0  0  0  0  0  0
  124.4680  123.3600   57.6850 N   0  0  0  0  0  0  0  0  0  0  0  0
  124.7550  124.5170   58.3350 C   0  0  0  0  0  0  0  0  0  0  0  0
  127.1810  129.9810   59.0810 S   0  0  0  0  0  0  0  0  0  0  0  0
  126.8260  130.8220   60.5710 C   0  0  0  0  0  0  0  0  0  0  0  0
  126.8530  132.1510   60.6430 N   0  0  0  0  0  0  0  0  0  0  0  0
  126.5790  132.7140   61.8490 C   0  0  0  0  0  0  0  0  0  0  0  0
  126.6250  134.2130   61.9010 C   0  0  0  0  0  0  0  0  0  0  0  0
  125.4620  134.9590   62.1470 C   0  0  0  0  0  0  0  0  0  0  0  0
  125.4960  136.3500   62.1980 C   0  0  0  0  0  0  0  0  0  0  0  0
  126.7010  137.0170   62.0050 C   0  0  0  0  0  0  0  0  0  0  0  0
  127.8700  136.3030   61.7630 C   0  0  0  0  0  0  0  0  0  0  0  0
  127.8310  134.9130   61.7130 C   0  0  0  0  0  0  0  0  0  0  0  0
  126.2550  131.9420   62.9680 C   0  0  0  0  0  0  0  0  0  0  0  0
  126.2180  130.5400   62.9020 C   0  0  0  0  0  0  0  0  0  0  0  0
  125.8600  129.7550   64.1690 C   0  0  0  0  0  0  0  0  0  0  0  0
  126.6720  128.7190   64.3910 F   0  0  0  0  0  0  0  0  0  0  0  0
  125.9360  130.5550   65.2320 F   0  0  0  0  0  0  0  0  0  0  0  0
  124.6210  129.2740   64.0680 F   0  0  0  0  0  0  0  0  0  0  0  0
  126.5220  129.9380   61.6470 C   0  0  0  0  0  0  0  0  0  0  0  0
  1  2  1  0
  2  3  2  0
  3  4  1  0
  4  5  2  0
  4  6  1  0
  6  7  1  0
  7  8  2  0
  8  9  1  0
  9 10  2  0
 10 11  1  0
 11 12  2  0
  3 13  1  0
 13 14  1  0
 14 15  2  0
 15 16  1  0
 16 17  1  0
 17 18  2  0
 18 19  1  0
 19 20  2  0
 20 21  1  0
 21 22  2  0
 16 23  2  0
 23 24  1  0
 24 25  1  0
 25 26  1  0
 25 27  1  0
 25 28  1  0
 24 29  2  0
 29  2  1  0
 12  7  1  0
 29 14  1  0
 22 17  1  0
M  END
>  <Binding energies>  (34) 
[-6.99]

>  <Ligand effiencies>  (34) 
[-0.2184375]

>  <Interactions>  (34) 
["V-B:MET:535:CE:9806, V-B:ASP:366:CG:8184, V-B:PRO:540:CD:9858, H-B:ASP:366:OD2:8186, V-B:PRO:540:N:9855, V-B:PRO:540:CB:9856, H-B:TYR:531:OH:9766, V-B:LEU:363:CD1:8160, V-B:ASP:366:CB:8183, H-B:GLU:543:OE2:9881, V-B:PRO:482:CB:9297, V-B:LEU:475:CD1:9229, V-B:TRP:381:CH2:8343, V-A:TYR:539:CD2:4874, V-A:ALA:541:CB:4892, V-B:PRO:482:CG:9298, V-B:TRP:381:CZ2:8341, V-B:GLU:543:CD:9879, V-B:ARG:545:CZ:9897, V-B:TRP:381:CE2:8338, V-B:TRP:381:CZ3:8342, H-B:ASP:366:OD1:8185, H-B:GLU:543:OE1:9880"]

$$$$
4ci_Grossjean_2025
     RDKit          3D

 28 31  0  0  0  0  0  0  0  0999 V2000
  123.5020  130.7200   60.3330 N   0  0  0  0  0  0  0  0  0  0  0  0
  124.7950  131.0360   60.6620 C   0  0  0  0  0  0  0  0  0  0  0  0
  125.2460  131.1470   61.9870 C   0  0  0  0  0  0  0  0  0  0  0  0
  124.4920  130.9500   63.2280 C   0  0  0  0  0  0  0  0  0  0  0  0
  123.3330  131.3580   63.3310 O   0  0  0  0  0  0  0  0  0  0  0  0
  125.1610  130.3140   64.2220 N   0  0  0  0  0  0  0  0  0  0  0  0
  124.6920  130.0020   65.4920 C   0  0  0  0  0  0  0  0  0  0  0  0
  125.5290  129.6490   66.5490 C   0  0  0  0  0  0  0  0  0  0  0  0
  124.6880  129.4210   67.6130 C   0  0  0  0  0  0  0  0  0  0  0  0
  123.4080  129.6270   67.2170 O   0  0  0  0  0  0  0  0  0  0  0  0
  123.4240  129.9940   65.8710 N   0  0  0  0  0  0  0  0  0  0  0  0
  126.9590  131.5550   62.0440 S   0  0  0  0  0  0  0  0  0  0  0  0
  127.0570  131.5840   60.2980 C   0  0  0  0  0  0  0  0  0  0  0  0
  128.1970  131.8580   59.6700 N   0  0  0  0  0  0  0  0  0  0  0  0
  128.1770  131.8540   58.3120 C   0  0  0  0  0  0  0  0  0  0  0  0
  129.4780  132.1720   57.6320 C   0  0  0  0  0  0  0  0  0  0  0  0
  130.7030  131.9670   58.2880 C   0  0  0  0  0  0  0  0  0  0  0  0
  131.9120  132.2590   57.6620 C   0  0  0  0  0  0  0  0  0  0  0  0
  131.9130  132.7640   56.3660 C   0  0  0  0  0  0  0  0  0  0  0  0
  130.7160  132.9810   55.6950 C   0  0  0  0  0  0  0  0  0  0  0  0
  129.5090  132.6890   56.3240 C   0  0  0  0  0  0  0  0  0  0  0  0
  127.0060  131.5910   57.5930 C   0  0  0  0  0  0  0  0  0  0  0  0
  125.7970  131.3000   58.2460 C   0  0  0  0  0  0  0  0  0  0  0  0
  124.5530  131.0220   57.3950 C   0  0  0  0  0  0  0  0  0  0  0  0
  124.7830  131.1130   56.0840 F   0  0  0  0  0  0  0  0  0  0  0  0
  124.1110  129.7880   57.6360 F   0  0  0  0  0  0  0  0  0  0  0  0
  123.5950  131.8990   57.6950 F   0  0  0  0  0  0  0  0  0  0  0  0
  125.8120  131.2900   59.6700 C   0  0  0  0  0  0  0  0  0  0  0  0
  1  2  1  0
  2  3  2  0
  3  4  1  0
  4  5  2  0
  4  6  1  0
  6  7  1  0
  7  8  1  0
  8  9  2  0
  9 10  1  0
 10 11  1  0
  3 12  1  0
 12 13  1  0
 13 14  2  0
 14 15  1  0
 15 16  1  0
 16 17  2  0
 17 18  1  0
 18 19  2  0
 19 20  1  0
 20 21  2  0
 15 22  2  0
 22 23  1  0
 23 24  1  0
 24 25  1  0
 24 26  1  0
 24 27  1  0
 23 28  2  0
 28  2  1  0
 11  7  2  0
 28 13  1  0
 21 16  1  0
M  END
>  <Binding energies>  (35) 
[-7.0]

>  <Ligand effiencies>  (35) 
[-0.22580645161290322]

>  <Interactions>  (35) 
["V-B:ASP:366:CG:8184, H-B:ASP:366:OD2:8186, V-B:TYR:531:CZ:9765, V-B:ASP:366:CB:8183, V-A:PRO:540:N:4884, V-A:PRO:540:CB:4885, V-A:PRO:540:CA:4883, V-B:ILE:369:CD1:8210, H-B:GLY:454:N:9021, V-B:HIS:456:CE1:9041, H-B:ARG:545:NE:9895, V-B:ILE:369:CG2:8208, V-A:TYR:539:CE2:4876, V-A:TYR:539:CZ:4877, V-B:ASP:366:CA:8181, V-B:ASP:366:C:8179, V-B:ARG:545:CZ:9897, V-A:LEU:363:CD1:3188, V-A:MET:535:CE:4835, H-B:TYR:484:OH:9319, H-B:ILE:455:N:9026, V-B:ASN:370:CB:8216, V-B:TYR:531:CE1:9763, V-B:ASN:370:CG:8217, V-B:ARG:545:CG:9893, V-B:ILE:369:CB:8207, V-A:ILE:538:CA:4860, V-A:ILE:538:CB:4862, V-A:PRO:540:CD:4887, V-A:ILE:538:C:4858, V-A:ILE:538:CG2:4863, V-B:ARG:545:CD:9894, H-B:ASP:366:O:8180, H-B:ASP:366:OD1:8185, V-B:ASN:370:CA:8214"]

$$$$
8a_Ghoteimi_2023
     RDKit          3D

 40 44  0  0  0  0  0  0  0  0999 V2000
  127.1190  131.2490   56.4470 C   0  0  0  0  0  0  0  0  0  0  0  0
  125.8960  130.7370   55.6810 C   0  0  0  0  0  0  0  0  0  0  0  0
  124.9890  130.1280   56.5900 O   0  0  0  0  0  0  0  0  0  0  0  0
  124.5810  130.7750   57.7140 C   0  0  0  0  0  0  0  0  0  0  0  0
  123.7550  131.6930   57.7070 O   0  0  0  0  0  0  0  0  0  0  0  0
  125.2400  130.2680   58.9630 C   0  0  0  0  0  0  0  0  0  0  0  0
  124.8180  130.7570   60.2060 C   0  0  0  0  0  0  0  0  0  0  0  0
  125.4100  130.3070   61.3830 C   0  0  0  0  0  0  0  0  0  0  0  0
  126.4350  129.3610   61.3440 C   0  0  0  0  0  0  0  0  0  0  0  0
  126.9610  128.9840   62.5950 N   0  0  0  0  0  0  0  0  0  0  0  0
  127.3260  129.7430   63.6580 C   0  0  0  0  0  0  0  0  0  0  0  0
  127.2490  130.9710   63.6920 O   0  0  0  0  0  0  0  0  0  0  0  0
  127.8310  128.9970   64.8140 C   0  0  0  0  0  0  0  0  0  0  0  0
  127.0880  129.2000   66.4000 S   0  0  0  0  0  0  0  0  0  0  0  0
  128.2070  128.0680   67.1220 C   0  0  0  0  0  0  0  0  0  0  0  0
  128.1730  127.7830   68.4240 N   0  0  0  0  0  0  0  0  0  0  0  0
  129.0920  126.8930   68.8840 C   0  0  0  0  0  0  0  0  0  0  0  0
  129.0490  126.6040   70.3510 C   0  0  0  0  0  0  0  0  0  0  0  0
  129.7660  127.3900   71.2650 C   0  0  0  0  0  0  0  0  0  0  0  0
  129.7310  127.1080   72.6280 C   0  0  0  0  0  0  0  0  0  0  0  0
  128.9780  126.0390   73.1110 C   0  0  0  0  0  0  0  0  0  0  0  0
  129.0050  125.8340   74.4780 O   0  0  0  0  0  0  0  0  0  0  0  0
  130.1530  125.2320   75.0660 C   0  0  0  0  0  0  0  0  0  0  0  0
  128.2530  125.2520   72.2060 C   0  0  0  0  0  0  0  0  0  0  0  0
  128.2920  125.5340   70.8430 C   0  0  0  0  0  0  0  0  0  0  0  0
  130.0320  126.2900   68.0460 C   0  0  0  0  0  0  0  0  0  0  0  0
  130.0600  126.5730   66.6760 C   0  0  0  0  0  0  0  0  0  0  0  0
  131.0590  125.8790   65.8250 C   0  0  0  0  0  0  0  0  0  0  0  0
  130.6480  125.1740   64.6920 C   0  0  0  0  0  0  0  0  0  0  0  0
  131.5830  124.5390   63.8790 C   0  0  0  0  0  0  0  0  0  0  0  0
  132.9440  124.6010   64.1810 C   0  0  0  0  0  0  0  0  0  0  0  0
  133.7980  123.9420   63.3180 O   0  0  0  0  0  0  0  0  0  0  0  0
  133.8610  124.3490   61.9570 C   0  0  0  0  0  0  0  0  0  0  0  0
  133.3600  125.3160   65.3150 C   0  0  0  0  0  0  0  0  0  0  0  0
  132.4220  125.9520   66.1250 C   0  0  0  0  0  0  0  0  0  0  0  0
  129.1220  127.5190   66.1760 C   0  0  0  0  0  0  0  0  0  0  0  0
  128.8950  128.0820   64.8680 C   0  0  0  0  0  0  0  0  0  0  0  0
  129.6690  127.7580   63.7810 N   0  0  0  0  0  0  0  0  0  0  0  0
  126.8610  128.8620   60.1040 C   0  0  0  0  0  0  0  0  0  0  0  0
  126.2680  129.3130   58.9270 C   0  0  0  0  0  0  0  0  0  0  0  0
  1  2  1  0
  2  3  1  0
  3  4  1  0
  4  5  2  0
  4  6  1  0
  6  7  2  0
  7  8  1  0
  8  9  2  0
  9 10  1  0
 10 11  1  0
 11 12  2  0
 11 13  1  0
 13 14  1  0
 14 15  1  0
 15 16  2  0
 16 17  1  0
 17 18  1  0
 18 19  2  0
 19 20  1  0
 20 21  2  0
 21 22  1  0
 22 23  1  0
 21 24  1  0
 24 25  2  0
 17 26  2  0
 26 27  1  0
 27 28  1  0
 28 29  2  0
 29 30  1  0
 30 31  2  0
 31 32  1  0
 32 33  1  0
 31 34  1  0
 34 35  2  0
 27 36  2  0
 36 37  1  0
 37 38  1  0
  9 39  1  0
 39 40  2  0
 40  6  1  0
 37 13  2  0
 36 15  1  0
 25 18  1  0
 35 28  1  0
M  END
>  <Binding energies>  (36) 
[-9.66]

>  <Ligand effiencies>  (36) 
[-0.2246511627906977]

>  <Interactions>  (36) 
["V-B:ASP:366:CG:8184, H-B:TYR:531:OH:9766, V-B:ASP:366:CB:8183, H-B:GLU:543:OE2:9881, V-A:GLU:543:CD:4908, H-A:GLU:543:OE1:4909, V-A:GLU:543:CG:4907, H-A:GLU:543:OE2:4910, V-B:GLU:543:C:9873, V-B:GLU:543:CD:9879, V-B:HIS:456:CE1:9041, V-A:HIS:456:CE1:4069, H-B:LYS:547:NZ:9922, V-A:TYR:539:CE2:4876, V-A:TYR:539:CZ:4877, V-B:ASP:366:CA:8181, V-A:ILE:369:CD1:3238, V-B:ASP:366:C:8179, V-A:ARG:545:CZ:4926, V-A:MET:535:CE:4835, H-A:GLY:454:N:4049, H-A:TYR:539:OH:4878, V-B:TYR:531:CE1:9763, H-B:ASN:370:N:8215, V-A:ARG:545:CD:4923"]

$$$$
8c_Ghoteimi_2023
     RDKit          3D

 34 38  0  0  0  0  0  0  0  0999 V2000
  129.1950  129.6680   75.1290 C   0  0  0  0  0  0  0  0  0  0  0  0
  130.1170  128.8800   74.3850 O   0  0  0  0  0  0  0  0  0  0  0  0
  129.8750  128.6450   73.0450 C   0  0  0  0  0  0  0  0  0  0  0  0
  129.6480  129.7650   72.2470 C   0  0  0  0  0  0  0  0  0  0  0  0
  129.3940  129.6230   70.8870 C   0  0  0  0  0  0  0  0  0  0  0  0
  129.3600  128.3560   70.2870 C   0  0  0  0  0  0  0  0  0  0  0  0
  129.0830  128.1980   68.8250 C   0  0  0  0  0  0  0  0  0  0  0  0
  128.2430  129.0760   68.1340 C   0  0  0  0  0  0  0  0  0  0  0  0
  128.0030  128.9070   66.7670 C   0  0  0  0  0  0  0  0  0  0  0  0
  127.1010  129.8500   66.0660 C   0  0  0  0  0  0  0  0  0  0  0  0
  125.7310  129.5870   65.9890 C   0  0  0  0  0  0  0  0  0  0  0  0
  124.8840  130.4790   65.3390 C   0  0  0  0  0  0  0  0  0  0  0  0
  125.3900  131.6410   64.7550 C   0  0  0  0  0  0  0  0  0  0  0  0
  124.4750  132.4690   64.1340 O   0  0  0  0  0  0  0  0  0  0  0  0
  123.8600  132.0410   62.9240 C   0  0  0  0  0  0  0  0  0  0  0  0
  126.7670  131.9020   64.8310 C   0  0  0  0  0  0  0  0  0  0  0  0
  127.6140  131.0090   65.4820 C   0  0  0  0  0  0  0  0  0  0  0  0
  128.6410  127.8240   66.1060 C   0  0  0  0  0  0  0  0  0  0  0  0
  128.6220  127.3660   64.7410 C   0  0  0  0  0  0  0  0  0  0  0  0
  127.8920  127.9950   63.7650 N   0  0  0  0  0  0  0  0  0  0  0  0
  129.4140  126.2300   64.5110 C   0  0  0  0  0  0  0  0  0  0  0  0
  129.6290  125.5070   63.2560 C   0  0  0  0  0  0  0  0  0  0  0  0
  130.7050  125.5870   62.6590 O   0  0  0  0  0  0  0  0  0  0  0  0
  128.5770  124.7690   62.8220 N   0  0  0  0  0  0  0  0  0  0  0  0
  128.5190  123.9930   61.6730 C   0  0  0  0  0  0  0  0  0  0  0  0
  127.8480  122.8780   61.4840 N   0  0  0  0  0  0  0  0  0  0  0  0
  128.0200  122.4100   60.2650 C   0  0  0  0  0  0  0  0  0  0  0  0
  128.8510  123.1520   59.4310 C   0  0  0  0  0  0  0  0  0  0  0  0
  129.4340  124.5380   60.3040 S   0  0  0  0  0  0  0  0  0  0  0  0
  130.2110  125.6990   65.9930 S   0  0  0  0  0  0  0  0  0  0  0  0
  129.4790  126.9960   66.9080 C   0  0  0  0  0  0  0  0  0  0  0  0
  129.7070  127.1560   68.2110 N   0  0  0  0  0  0  0  0  0  0  0  0
  129.5920  127.2350   71.0950 C   0  0  0  0  0  0  0  0  0  0  0  0
  129.8460  127.3730   72.4570 C   0  0  0  0  0  0  0  0  0  0  0  0
  1  2  1  0
  2  3  1  0
  3  4  2  0
  4  5  1  0
  5  6  2  0
  6  7  1  0
  7  8  2  0
  8  9  1  0
  9 10  1  0
 10 11  2  0
 11 12  1  0
 12 13  2  0
 13 14  1  0
 14 15  1  0
 13 16  1  0
 16 17  2  0
  9 18  2  0
 18 19  1  0
 19 20  1  0
 19 21  2  0
 21 22  1  0
 22 23  2  0
 22 24  1  0
 24 25  1  0
 25 26  2  0
 26 27  1  0
 27 28  2  0
 28 29  1  0
 21 30  1  0
 30 31  1  0
 31 32  2  0
  6 33  1  0
 33 34  2  0
 34  3  1  0
 32  7  1  0
 17 10  1  0
 31 18  1  0
 29 25  1  0
M  END
>  <Binding energies>  (37) 
[-8.3]

>  <Ligand effiencies>  (37) 
[-0.22432432432432434]

>  <Interactions>  (37) 
["V-B:TYR:539:CD2:9845, V-B:TYR:539:CE2:9847, V-B:PRO:540:CA:9854, H-B:GLU:543:OE2:9881, H-B:ALA:541:N:9862, V-A:GLU:543:CD:4908, V-B:LEU:475:CD1:9229, V-A:GLU:543:CG:4907, V-B:ILE:369:CD1:8210, H-A:LYS:547:NZ:4951, H-B:GLY:454:N:9021, V-B:GLU:543:CD:9879, V-B:HIS:456:CE1:9041, V-B:GLY:454:CA:9020, V-A:GLU:543:CB:4906, V-A:HIS:456:CE1:4069, V-B:GLU:543:CG:9878, V-A:GLU:543:C:4902, V-B:PRO:540:C:9852, V-A:LYS:547:CE:4950, H-B:GLU:543:OE1:9880"]

$$$$
8d_Ghoteimi_2023
     RDKit          3D

 30 33  0  0  0  0  0  0  0  0999 V2000
  132.4200  132.2230   61.9270 C   0  0  0  0  0  0  0  0  0  0  0  0
  131.0250  132.0150   61.7540 O   0  0  0  0  0  0  0  0  0  0  0  0
  130.5000  131.8060   60.5190 C   0  0  0  0  0  0  0  0  0  0  0  0
  130.2540  132.7070   59.7120 O   0  0  0  0  0  0  0  0  0  0  0  0
  130.2500  130.3760   60.2340 C   0  0  0  0  0  0  0  0  0  0  0  0
  129.1920  129.9170   58.8980 S   0  0  0  0  0  0  0  0  0  0  0  0
  129.4300  128.2190   59.2430 C   0  0  0  0  0  0  0  0  0  0  0  0
  128.8420  127.2660   58.5200 N   0  0  0  0  0  0  0  0  0  0  0  0
  129.0960  125.9770   58.8720 C   0  0  0  0  0  0  0  0  0  0  0  0
  128.4210  124.9270   58.0470 C   0  0  0  0  0  0  0  0  0  0  0  0
  127.7560  123.8490   58.6490 C   0  0  0  0  0  0  0  0  0  0  0  0
  127.1300  122.8740   57.8770 C   0  0  0  0  0  0  0  0  0  0  0  0
  127.1520  122.9500   56.4850 C   0  0  0  0  0  0  0  0  0  0  0  0
  126.5050  121.9400   55.8010 O   0  0  0  0  0  0  0  0  0  0  0  0
  125.1360  122.1090   55.4450 C   0  0  0  0  0  0  0  0  0  0  0  0
  127.8120  124.0250   55.8730 C   0  0  0  0  0  0  0  0  0  0  0  0
  128.4370  124.9990   56.6490 C   0  0  0  0  0  0  0  0  0  0  0  0
  129.9260  125.6470   59.9470 C   0  0  0  0  0  0  0  0  0  0  0  0
  130.5450  126.6470   60.7030 C   0  0  0  0  0  0  0  0  0  0  0  0
  131.4270  126.2650   61.8310 C   0  0  0  0  0  0  0  0  0  0  0  0
  132.6160  125.5740   61.5890 C   0  0  0  0  0  0  0  0  0  0  0  0
  133.4400  125.2070   62.6490 C   0  0  0  0  0  0  0  0  0  0  0  0
  133.0930  125.5280   63.9620 C   0  0  0  0  0  0  0  0  0  0  0  0
  133.9700  125.1230   64.9490 O   0  0  0  0  0  0  0  0  0  0  0  0
  133.7150  125.4920   66.2990 C   0  0  0  0  0  0  0  0  0  0  0  0
  131.8980  126.2270   64.2020 C   0  0  0  0  0  0  0  0  0  0  0  0
  131.0740  126.5920   63.1400 C   0  0  0  0  0  0  0  0  0  0  0  0
  130.2960  128.0000   60.3510 C   0  0  0  0  0  0  0  0  0  0  0  0
  130.7500  129.2490   60.8970 C   0  0  0  0  0  0  0  0  0  0  0  0
  131.5930  129.3220   61.9770 N   0  0  0  0  0  0  0  0  0  0  0  0
  1  2  1  0
  2  3  1  0
  3  4  2  0
  3  5  1  0
  5  6  1  0
  6  7  1  0
  7  8  2  0
  8  9  1  0
  9 10  1  0
 10 11  2  0
 11 12  1  0
 12 13  2  0
 13 14  1  0
 14 15  1  0
 13 16  1  0
 16 17  2  0
  9 18  2  0
 18 19  1  0
 19 20  1  0
 20 21  2  0
 21 22  1  0
 22 23  2  0
 23 24  1  0
 24 25  1  0
 23 26  1  0
 26 27  2  0
 19 28  2  0
 28 29  1  0
 29 30  1  0
 29  5  2  0
 28  7  1  0
 17 10  1  0
 27 20  1  0
M  END
>  <Binding energies>  (38) 
[-7.29]

>  <Ligand effiencies>  (38) 
[-0.2278125]

>  <Interactions>  (38) 
["V-B:MET:535:CE:9806, V-B:TYR:539:C:9838, V-B:PRO:540:CD:9858, V-A:ASP:366:CG:3212, V-B:PRO:540:N:9855, V-B:PRO:540:CA:9854, V-B:LEU:363:CD1:8160, V-B:TYR:539:CZ:9848, V-A:GLU:543:CD:4908, H-A:GLU:543:OE1:4909, V-A:PRO:540:CB:4885, H-A:ALA:541:N:4891, V-A:PRO:540:CA:4883, V-A:HIS:456:CE1:4069, H-A:TYR:484:OH:4347, H-A:ARG:545:NE:4924, V-A:ARG:545:CZ:4926, V-B:TYR:539:CD1:9844, V-B:TYR:539:CE1:9846, H-B:TYR:539:N:9841, H-A:ARG:545:NH1:4927, H-A:GLY:454:N:4049, H-A:ASP:366:OD2:3214, H-A:ASP:366:OD1:3213, V-B:ILE:538:CA:9831, V-B:ILE:538:CD1:9836, V-B:ILE:538:CG2:9834, V-A:PRO:540:C:4881, V-B:ILE:538:CB:9833, V-A:ARG:545:CG:4922, V-A:ARG:545:CD:4923"]

$$$$
9a_Ghoteimi_2023
     RDKit          3D

 48 54  0  0  0  0  0  0  0  0999 V2000
  127.1820  131.1550   56.4980 C   0  0  0  0  0  0  0  0  0  0  0  0
  125.8750  130.6770   55.8580 C   0  0  0  0  0  0  0  0  0  0  0  0
  125.0190  130.1510   56.8660 O   0  0  0  0  0  0  0  0  0  0  0  0
  124.5160  130.9470   57.8440 C   0  0  0  0  0  0  0  0  0  0  0  0
  123.7140  131.8620   57.6310 O   0  0  0  0  0  0  0  0  0  0  0  0
  125.0370  130.6100   59.2110 C   0  0  0  0  0  0  0  0  0  0  0  0
  126.0310  129.6310   59.3430 C   0  0  0  0  0  0  0  0  0  0  0  0
  126.5320  129.2950   60.5970 C   0  0  0  0  0  0  0  0  0  0  0  0
  126.0540  129.9290   61.7440 C   0  0  0  0  0  0  0  0  0  0  0  0
  126.6340  129.5090   62.9570 N   0  0  0  0  0  0  0  0  0  0  0  0
  126.8520  130.1900   64.1090 C   0  0  0  0  0  0  0  0  0  0  0  0
  126.5520  131.3720   64.2820 O   0  0  0  0  0  0  0  0  0  0  0  0
  127.4830  129.4180   65.1830 C   0  0  0  0  0  0  0  0  0  0  0  0
  127.3400  129.9440   66.8610 S   0  0  0  0  0  0  0  0  0  0  0  0
  128.2780  128.5780   67.4170 C   0  0  0  0  0  0  0  0  0  0  0  0
  128.5260  128.3810   68.7110 N   0  0  0  0  0  0  0  0  0  0  0  0
  129.2550  127.2820   69.0400 C   0  0  0  0  0  0  0  0  0  0  0  0
  129.5130  127.0760   70.4970 C   0  0  0  0  0  0  0  0  0  0  0  0
  128.7680  126.1430   71.2260 C   0  0  0  0  0  0  0  0  0  0  0  0
  129.0020  125.9440   72.5840 C   0  0  0  0  0  0  0  0  0  0  0  0
  130.0000  126.6620   73.2610 C   0  0  0  0  0  0  0  0  0  0  0  0
  130.2340  126.4870   74.6290 N   0  0  0  0  0  0  0  0  0  0  0  0
  131.4810  125.8710   75.1270 C   0  0  0  0  0  0  0  0  0  0  0  0
  131.4120  125.4320   76.6040 C   0  0  0  0  0  0  0  0  0  0  0  0
  131.0240  126.5250   77.4200 O   0  0  0  0  0  0  0  0  0  0  0  0
  129.7460  127.0190   77.0520 C   0  0  0  0  0  0  0  0  0  0  0  0
  129.7710  127.5100   75.5900 C   0  0  0  0  0  0  0  0  0  0  0  0
  130.7340  127.6060   72.5290 C   0  0  0  0  0  0  0  0  0  0  0  0
  130.4970  127.8070   71.1730 C   0  0  0  0  0  0  0  0  0  0  0  0
  129.7540  126.4020   68.0760 C   0  0  0  0  0  0  0  0  0  0  0  0
  129.5110  126.6160   66.7140 C   0  0  0  0  0  0  0  0  0  0  0  0
  130.0950  125.6700   65.7290 C   0  0  0  0  0  0  0  0  0  0  0  0
  131.0160  126.1130   64.7760 C   0  0  0  0  0  0  0  0  0  0  0  0
  131.5720  125.2230   63.8630 C   0  0  0  0  0  0  0  0  0  0  0  0
  131.2360  123.8600   63.8890 C   0  0  0  0  0  0  0  0  0  0  0  0
  131.7730  122.9500   62.9750 N   0  0  0  0  0  0  0  0  0  0  0  0
  130.8600  122.1700   62.1160 C   0  0  0  0  0  0  0  0  0  0  0  0
  131.5690  121.5050   60.9170 C   0  0  0  0  0  0  0  0  0  0  0  0
  132.6460  120.7010   61.3730 O   0  0  0  0  0  0  0  0  0  0  0  0
  133.6090  121.4660   62.0810 C   0  0  0  0  0  0  0  0  0  0  0  0
  132.9540  122.1300   63.3110 C   0  0  0  0  0  0  0  0  0  0  0  0
  130.3130  123.4260   64.8510 C   0  0  0  0  0  0  0  0  0  0  0  0
  129.7530  124.3170   65.7610 C   0  0  0  0  0  0  0  0  0  0  0  0
  128.7190  127.7420   66.3500 C   0  0  0  0  0  0  0  0  0  0  0  0
  128.2300  128.2330   65.0850 C   0  0  0  0  0  0  0  0  0  0  0  0
  128.4660  127.5850   63.9000 N   0  0  0  0  0  0  0  0  0  0  0  0
  125.0610  130.9140   61.6210 C   0  0  0  0  0  0  0  0  0  0  0  0
  124.5590  131.2480   60.3660 C   0  0  0  0  0  0  0  0  0  0  0  0
  1  2  1  0
  2  3  1  0
  3  4  1  0
  4  5  2  0
  4  6  1  0
  6  7  2  0
  7  8  1  0
  8  9  2  0
  9 10  1  0
 10 11  1  0
 11 12  2  0
 11 13  1  0
 13 14  1  0
 14 15  1  0
 15 16  2  0
 16 17  1  0
 17 18  1  0
 18 19  2  0
 19 20  1  0
 20 21  2  0
 21 22  1  0
 22 23  1  0
 23 24  1  0
 24 25  1  0
 25 26  1  0
 26 27  1  0
 21 28  1  0
 28 29  2  0
 17 30  2  0
 30 31  1  0
 31 32  1  0
 32 33  2  0
 33 34  1  0
 34 35  2  0
 35 36  1  0
 36 37  1  0
 37 38  1  0
 38 39  1  0
 39 40  1  0
 40 41  1  0
 35 42  1  0
 42 43  2  0
 31 44  2  0
 44 45  1  0
 45 46  1  0
  9 47  1  0
 47 48  2  0
 48  6  1  0
 45 13  2  0
 44 15  1  0
 29 18  1  0
 43 32  1  0
 27 22  1  0
 41 36  1  0
M  END
>  <Binding energies>  (39) 
[-10.12]

>  <Ligand effiencies>  (39) 
[-0.1984313725490196]

>  <Interactions>  (39) 
["V-B:TYR:539:CD2:9845, V-B:ASP:366:CG:8184, V-B:TYR:539:CE2:9847, V-A:ILE:369:CG2:3236, H-B:TYR:531:OH:9766, V-B:ASP:366:CB:8183, H-B:GLU:543:OE2:9881, V-A:GLU:543:CD:4908, H-A:GLU:543:OE1:4909, V-A:GLU:543:CG:4907, V-A:HIS:456:CD2:4067, V-B:GLU:543:CD:9879, V-B:HIS:456:CE1:9041, V-A:GLU:543:CB:4906, V-A:HIS:456:CE1:4069, V-A:LEU:475:CD2:4258, V-B:GLU:543:CG:9878, V-A:TYR:484:CE1:4344, V-B:GLU:543:CB:9877, V-A:TYR:539:CE2:4876, V-A:TYR:539:CZ:4877, V-B:ASP:366:CA:8181, V-A:ILE:369:CD1:3238, V-A:GLY:454:CA:4048, V-B:ASP:366:C:8179, V-A:MET:535:CE:4835, H-A:TYR:539:OH:4878, V-B:TYR:531:CE1:9763, V-A:LYS:547:CE:4950, H-B:ASN:370:N:8215, H-B:GLU:543:OE1:9880"]

$$$$
9b_Ghoteimi_2023
     RDKit          3D

 42 48  0  0  0  0  0  0  0  0999 V2000
  128.7330  125.8350   58.6830 N   0  0  0  0  0  0  0  0  0  0  0  0
  128.6940  125.1490   59.8700 C   0  0  0  0  0  0  0  0  0  0  0  0
  128.3140  123.8010   59.9720 C   0  0  0  0  0  0  0  0  0  0  0  0
  127.9260  122.8780   58.9030 C   0  0  0  0  0  0  0  0  0  0  0  0
  128.2620  121.6920   58.9420 O   0  0  0  0  0  0  0  0  0  0  0  0
  127.1940  123.4240   57.8990 N   0  0  0  0  0  0  0  0  0  0  0  0
  126.7060  122.7880   56.7650 C   0  0  0  0  0  0  0  0  0  0  0  0
  127.1170  123.1150   55.4730 C   0  0  0  0  0  0  0  0  0  0  0  0
  126.4120  122.2680   54.6490 C   0  0  0  0  0  0  0  0  0  0  0  0
  125.6180  121.4730   55.4050 O   0  0  0  0  0  0  0  0  0  0  0  0
  125.8130  121.8120   56.7440 N   0  0  0  0  0  0  0  0  0  0  0  0
  128.3480  123.2540   61.6480 S   0  0  0  0  0  0  0  0  0  0  0  0
  128.8500  124.8340   62.2010 C   0  0  0  0  0  0  0  0  0  0  0  0
  129.0370  125.0940   63.4940 N   0  0  0  0  0  0  0  0  0  0  0  0
  129.4100  126.3590   63.8210 C   0  0  0  0  0  0  0  0  0  0  0  0
  129.5930  126.6300   65.2790 C   0  0  0  0  0  0  0  0  0  0  0  0
  128.8070  127.5800   65.9430 C   0  0  0  0  0  0  0  0  0  0  0  0
  128.9910  127.8380   67.2980 C   0  0  0  0  0  0  0  0  0  0  0  0
  129.9790  127.1670   68.0360 C   0  0  0  0  0  0  0  0  0  0  0  0
  130.1740  127.4140   69.3990 N   0  0  0  0  0  0  0  0  0  0  0  0
  129.0330  127.6290   70.3130 C   0  0  0  0  0  0  0  0  0  0  0  0
  129.4060  127.5400   71.8070 C   0  0  0  0  0  0  0  0  0  0  0  0
  130.4650  128.4370   72.0970 O   0  0  0  0  0  0  0  0  0  0  0  0
  131.6270  128.1310   71.3440 C   0  0  0  0  0  0  0  0  0  0  0  0
  131.3240  128.2340   69.8340 C   0  0  0  0  0  0  0  0  0  0  0  0
  130.7490  126.2030   67.3700 C   0  0  0  0  0  0  0  0  0  0  0  0
  130.5620  125.9410   66.0160 C   0  0  0  0  0  0  0  0  0  0  0  0
  129.6210  127.3480   62.8560 C   0  0  0  0  0  0  0  0  0  0  0  0
  129.4450  127.0730   61.4950 C   0  0  0  0  0  0  0  0  0  0  0  0
  129.7110  128.1500   60.5080 C   0  0  0  0  0  0  0  0  0  0  0  0
  128.9350  129.3100   60.5040 C   0  0  0  0  0  0  0  0  0  0  0  0
  129.1930  130.3290   59.5930 C   0  0  0  0  0  0  0  0  0  0  0  0
  130.2350  130.2160   58.6590 C   0  0  0  0  0  0  0  0  0  0  0  0
  130.5220  131.2340   57.7460 N   0  0  0  0  0  0  0  0  0  0  0  0
  129.4760  132.2200   57.4110 C   0  0  0  0  0  0  0  0  0  0  0  0
  129.7830  133.0190   56.1260 C   0  0  0  0  0  0  0  0  0  0  0  0
  131.0490  133.6490   56.2370 O   0  0  0  0  0  0  0  0  0  0  0  0
  132.0920  132.7050   56.4270 C   0  0  0  0  0  0  0  0  0  0  0  0
  131.8420  131.8940   57.7160 C   0  0  0  0  0  0  0  0  0  0  0  0
  131.0200  129.0540   58.6840 C   0  0  0  0  0  0  0  0  0  0  0  0
  130.7610  128.0340   59.5960 C   0  0  0  0  0  0  0  0  0  0  0  0
  129.0210  125.7640   61.1330 C   0  0  0  0  0  0  0  0  0  0  0  0
  1  2  1  0
  2  3  2  0
  3  4  1  0
  4  5  2  0
  4  6  1  0
  6  7  1  0
  7  8  1  0
  8  9  2  0
  9 10  1  0
 10 11  1  0
  3 12  1  0
 12 13  1  0
 13 14  2  0
 14 15  1  0
 15 16  1  0
 16 17  2  0
 17 18  1  0
 18 19  2  0
 19 20  1  0
 20 21  1  0
 21 22  1  0
 22 23  1  0
 23 24  1  0
 24 25  1  0
 19 26  1  0
 26 27  2  0
 15 28  2  0
 28 29  1  0
 29 30  1  0
 30 31  2  0
 31 32  1  0
 32 33  2  0
 33 34  1  0
 34 35  1  0
 35 36  1  0
 36 37  1  0
 37 38  1  0
 38 39  1  0
 33 40  1  0
 40 41  2  0
 29 42  2  0
 42  2  1  0
 11  7  2  0
 42 13  1  0
 27 16  1  0
 41 30  1  0
 25 20  1  0
 39 34  1  0
M  END
>  <Binding energies>  (40) 
[-10.1]

>  <Ligand effiencies>  (40) 
[-0.22444444444444445]

>  <Interactions>  (40) 
["V-B:TYR:539:CD2:9845, V-B:MET:535:CE:9806, V-B:TYR:539:CE2:9847, V-B:TYR:539:C:9838, V-A:ASP:366:CG:3212, V-B:PRO:540:N:9855, V-B:PRO:540:CA:9854, V-B:TYR:539:CZ:9848, V-A:GLU:543:CD:4908, V-A:GLU:543:CG:4907, V-A:PRO:540:CB:4885, V-A:PRO:540:CA:4883, V-B:GLU:543:CD:9879, V-B:HIS:456:CE1:9041, V-A:GLU:543:CB:4906, V-A:HIS:456:CE1:4069, V-B:TYR:539:CD1:9844, V-B:TYR:539:CE1:9846, V-B:ALA:541:CB:9863, H-B:TYR:539:N:9841, V-A:LEU:363:CD1:3188, V-A:MET:535:CE:4835, H-A:TYR:539:N:4870, V-A:ILE:538:CA:4860, V-A:ARG:545:CA:4919, V-A:GLY:544:C:4912, V-A:TYR:539:CD1:4873, V-A:ILE:538:CB:4862, V-A:PRO:540:CD:4887, V-B:ILE:538:CA:9831, V-B:ILE:538:C:9829, V-B:ILE:538:CD1:9836, V-A:ARG:545:CG:4922"]

$$$$
9c_Ghoteimi_2023
     RDKit          3D

 42 48  0  0  0  0  0  0  0  0999 V2000
  130.2350  124.4870   66.6080 N   0  0  0  0  0  0  0  0  0  0  0  0
  129.9120  125.1160   65.4320 C   0  0  0  0  0  0  0  0  0  0  0  0
  130.0940  124.5340   64.1680 C   0  0  0  0  0  0  0  0  0  0  0  0
  130.6150  123.2030   63.8420 C   0  0  0  0  0  0  0  0  0  0  0  0
  131.1550  122.5080   64.7050 O   0  0  0  0  0  0  0  0  0  0  0  0
  130.4620  122.8190   62.5510 N   0  0  0  0  0  0  0  0  0  0  0  0
  130.8760  121.6240   61.9810 C   0  0  0  0  0  0  0  0  0  0  0  0
  130.1500  120.5570   61.7220 N   0  0  0  0  0  0  0  0  0  0  0  0
  130.8760  119.5970   61.1810 C   0  0  0  0  0  0  0  0  0  0  0  0
  132.2260  119.8780   60.9920 C   0  0  0  0  0  0  0  0  0  0  0  0
  132.5530  121.4900   61.5560 S   0  0  0  0  0  0  0  0  0  0  0  0
  129.6010  125.6350   62.8820 S   0  0  0  0  0  0  0  0  0  0  0  0
  129.1740  126.8710   64.0410 C   0  0  0  0  0  0  0  0  0  0  0  0
  128.7180  128.0620   63.6560 N   0  0  0  0  0  0  0  0  0  0  0  0
  128.4310  128.9580   64.6360 C   0  0  0  0  0  0  0  0  0  0  0  0
  127.9420  130.2930   64.1750 C   0  0  0  0  0  0  0  0  0  0  0  0
  126.8280  130.9000   64.7660 C   0  0  0  0  0  0  0  0  0  0  0  0
  126.3710  132.1390   64.3270 C   0  0  0  0  0  0  0  0  0  0  0  0
  127.0060  132.8120   63.2700 C   0  0  0  0  0  0  0  0  0  0  0  0
  126.5630  134.0620   62.8220 N   0  0  0  0  0  0  0  0  0  0  0  0
  125.1860  134.2560   62.3240 C   0  0  0  0  0  0  0  0  0  0  0  0
  124.7680  135.7380   62.2080 C   0  0  0  0  0  0  0  0  0  0  0  0
  125.7020  136.4410   61.4040 O   0  0  0  0  0  0  0  0  0  0  0  0
  127.0030  136.4030   61.9670 C   0  0  0  0  0  0  0  0  0  0  0  0
  127.4900  134.9420   62.0820 C   0  0  0  0  0  0  0  0  0  0  0  0
  128.1330  132.2080   62.6950 C   0  0  0  0  0  0  0  0  0  0  0  0
  128.5910  130.9710   63.1380 C   0  0  0  0  0  0  0  0  0  0  0  0
  128.5730  128.6530   65.9920 C   0  0  0  0  0  0  0  0  0  0  0  0
  129.0300  127.3960   66.4010 C   0  0  0  0  0  0  0  0  0  0  0  0
  129.1330  127.1090   67.8540 C   0  0  0  0  0  0  0  0  0  0  0  0
  130.0890  127.7620   68.6340 C   0  0  0  0  0  0  0  0  0  0  0  0
  130.1780  127.5090   70.0000 C   0  0  0  0  0  0  0  0  0  0  0  0
  129.3140  126.5940   70.6220 C   0  0  0  0  0  0  0  0  0  0  0  0
  129.3780  126.3330   71.9940 N   0  0  0  0  0  0  0  0  0  0  0  0
  129.0000  127.3950   72.9480 C   0  0  0  0  0  0  0  0  0  0  0  0
  129.4820  127.1190   74.3880 C   0  0  0  0  0  0  0  0  0  0  0  0
  129.0020  125.8570   74.8270 O   0  0  0  0  0  0  0  0  0  0  0  0
  129.4670  124.8030   73.9990 C   0  0  0  0  0  0  0  0  0  0  0  0
  128.9910  125.0200   72.5460 C   0  0  0  0  0  0  0  0  0  0  0  0
  128.3440  125.9600   69.8320 C   0  0  0  0  0  0  0  0  0  0  0  0
  128.2550  126.2130   68.4660 C   0  0  0  0  0  0  0  0  0  0  0  0
  129.3710  126.4520   65.3910 C   0  0  0  0  0  0  0  0  0  0  0  0
  1  2  1  0
  2  3  2  0
  3  4  1  0
  4  5  2  0
  4  6  1  0
  6  7  1  0
  7  8  2  0
  8  9  1  0
  9 10  2  0
 10 11  1  0
  3 12  1  0
 12 13  1  0
 13 14  2  0
 14 15  1  0
 15 16  1  0
 16 17  2  0
 17 18  1  0
 18 19  2  0
 19 20  1  0
 20 21  1  0
 21 22  1  0
 22 23  1  0
 23 24  1  0
 24 25  1  0
 19 26  1  0
 26 27  2  0
 15 28  2  0
 28 29  1  0
 29 30  1  0
 30 31  2  0
 31 32  1  0
 32 33  2  0
 33 34  1  0
 34 35  1  0
 35 36  1  0
 36 37  1  0
 37 38  1  0
 38 39  1  0
 33 40  1  0
 40 41  2  0
 29 42  2  0
 42  2  1  0
 11  7  1  0
 42 13  1  0
 27 16  1  0
 41 30  1  0
 25 20  1  0
 39 34  1  0
M  END
>  <Binding energies>  (41) 
[-9.31]

>  <Ligand effiencies>  (41) 
[-0.2068888888888889]

>  <Interactions>  (41) 
["V-B:TYR:539:CD2:9845, V-A:ILE:369:CG2:3236, V-A:GLU:543:CD:4908, V-B:PRO:482:CB:9297, V-B:LEU:475:CD1:9229, V-B:TRP:381:CH2:8343, V-A:GLU:543:CG:4907, V-A:ALA:541:CB:4892, V-B:PRO:482:CG:9298, V-B:TRP:381:CZ2:8341, V-A:HIS:456:CD2:4067, V-B:GLU:543:C:9873, V-B:GLU:543:CD:9879, V-B:HIS:456:CE1:9041, V-A:GLU:543:CB:4906, V-A:HIS:456:CE1:4069, H-B:LYS:547:NZ:9922, V-A:LEU:475:CD2:4258, V-B:HIS:456:CD2:9039, V-B:GLU:543:CG:9878, V-A:TYR:484:CE1:4344, V-B:GLU:543:CB:9877, H-A:HIS:456:NE2:4070, H-A:TYR:484:OH:4347, V-B:ALA:541:CB:9863, V-A:TRP:381:CH2:3371, V-A:TRP:381:CZ2:3369, V-A:PRO:482:CB:4325, V-A:TYR:484:CZ:4346, V-B:LYS:547:CE:9921"]

$$$$
RR11_Rahimova_2017
     RDKit          3D

 33 38  0  0  0  0  0  0  0  0999 V2000
  133.9200  121.6050   62.3000 N   0  0  0  0  0  0  0  0  0  0  0  0
  133.1680  122.4670   63.0960 C   0  0  0  0  0  0  0  0  0  0  0  0
  132.0730  121.9770   63.8050 C   0  0  0  0  0  0  0  0  0  0  0  0
  131.3240  122.8380   64.6020 C   0  0  0  0  0  0  0  0  0  0  0  0
  131.6620  124.1950   64.6980 C   0  0  0  0  0  0  0  0  0  0  0  0
  130.8570  125.1200   65.5610 C   0  0  0  0  0  0  0  0  0  0  0  0
  130.2270  126.1880   65.1210 N   0  0  0  0  0  0  0  0  0  0  0  0
  129.6170  126.7280   66.2230 C   0  0  0  0  0  0  0  0  0  0  0  0
  128.8100  127.8690   66.3180 C   0  0  0  0  0  0  0  0  0  0  0  0
  128.2820  128.2090   67.5690 C   0  0  0  0  0  0  0  0  0  0  0  0
  127.4060  129.4480   67.7040 C   0  0  0  0  0  0  0  0  0  0  0  0
  126.4730  129.6470   66.5180 C   0  0  0  0  0  0  0  0  0  0  0  0
  125.0890  129.6540   66.7250 C   0  0  0  0  0  0  0  0  0  0  0  0
  124.1930  129.8430   65.6700 C   0  0  0  0  0  0  0  0  0  0  0  0
  124.7160  130.0330   64.3850 C   0  0  0  0  0  0  0  0  0  0  0  0
  124.0570  130.2280   63.1990 N   0  0  0  0  0  0  0  0  0  0  0  0
  125.0030  130.3460   62.2910 C   0  0  0  0  0  0  0  0  0  0  0  0
  124.7510  130.5600   60.8260 C   0  0  0  0  0  0  0  0  0  0  0  0
  123.6680  131.3370   60.3970 C   0  0  0  0  0  0  0  0  0  0  0  0
  123.4290  131.5270   59.0380 C   0  0  0  0  0  0  0  0  0  0  0  0
  124.2720  130.9390   58.0980 C   0  0  0  0  0  0  0  0  0  0  0  0
  124.0300  131.1240   56.7370 N   0  0  0  0  0  0  0  0  0  0  0  0
  125.3550  130.1670   58.5110 C   0  0  0  0  0  0  0  0  0  0  0  0
  125.5930  129.9780   59.8690 C   0  0  0  0  0  0  0  0  0  0  0  0
  126.2620  130.2420   62.8420 N   0  0  0  0  0  0  0  0  0  0  0  0
  126.1180  130.0350   64.1930 C   0  0  0  0  0  0  0  0  0  0  0  0
  127.0200  129.8530   65.2450 C   0  0  0  0  0  0  0  0  0  0  0  0
  128.5770  127.4400   68.7010 C   0  0  0  0  0  0  0  0  0  0  0  0
  129.3820  126.3000   68.6400 C   0  0  0  0  0  0  0  0  0  0  0  0
  129.8880  125.9630   67.3820 C   0  0  0  0  0  0  0  0  0  0  0  0
  130.6880  124.9440   66.9190 N   0  0  0  0  0  0  0  0  0  0  0  0
  132.7650  124.6740   63.9780 C   0  0  0  0  0  0  0  0  0  0  0  0
  133.5160  123.8140   63.1800 C   0  0  0  0  0  0  0  0  0  0  0  0
  1  2  1  0
  2  3  2  0
  3  4  1  0
  4  5  2  0
  5  6  1  0
  6  7  2  0
  7  8  1  0
  8  9  2  0
  9 10  1  0
 10 11  1  0
 11 12  1  0
 12 13  2  0
 13 14  1  0
 14 15  2  0
 15 16  1  0
 16 17  2  0
 17 18  1  0
 18 19  2  0
 19 20  1  0
 20 21  2  0
 21 22  1  0
 21 23  1  0
 23 24  2  0
 17 25  1  0
 25 26  1  0
 26 27  2  0
 10 28  2  0
 28 29  1  0
 29 30  2  0
 30 31  1  0
  5 32  1  0
 32 33  2  0
 33  2  1  0
 31  6  1  0
 30  8  1  0
 27 12  1  0
 26 15  1  0
 24 18  1  0
M  END
>  <Binding energies>  (42) 
[-8.82]

>  <Ligand effiencies>  (42) 
[-0.22615384615384615]

>  <Interactions>  (42) 
["V-B:ASP:366:CG:8184, V-A:ILE:369:CG2:3236, V-B:TYR:531:CZ:9765, V-B:ASP:366:CB:8183, V-A:GLU:543:CD:4908, V-A:GLU:543:CG:4907, V-B:ILE:369:CD1:8210, H-B:GLY:454:N:9021, V-B:GLU:543:CD:9879, V-B:HIS:456:CE1:9041, V-B:GLY:454:CA:9020, H-B:ARG:545:NH2:9899, V-A:HIS:456:CE1:4069, V-A:LEU:475:CD2:4258, V-A:TYR:484:CE1:4344, V-B:GLU:543:CB:9877, H-A:HIS:456:NE2:4070, H-A:TYR:484:OH:4347, V-B:ILE:369:CG2:8208, V-A:TYR:539:CZ:4877, V-B:ASP:366:CA:8181, V-A:ILE:369:CD1:3238, V-A:GLY:454:CA:4048, V-B:ASP:366:C:8179, V-B:ARG:545:CZ:9897, V-A:TYR:484:CZ:4346, H-A:TYR:539:OH:4878, V-B:ASN:370:CB:8216, V-B:TYR:531:CE1:9763, V-B:ILE:369:CB:8207, V-B:ARG:545:CD:9894, H-B:ASP:366:O:8180, V-B:ASN:370:CA:8214, H-A:SER:385:O:3405"]

$$$$
RR16_Rahimova_2017
     RDKit          3D

 44 49  0  0  0  0  0  0  0  0999 V2000
  123.4640  133.2080   62.3780 O   0  0  0  0  0  0  0  0  0  0  0  0
  123.7560  131.7780   62.2240 S   0  0  0  0  0  0  0  0  0  0  0  0
  122.6920  130.7750   62.3470 O   0  0  0  0  0  0  0  0  0  0  0  0
  125.0310  131.3690   63.3730 N   0  0  0  0  0  0  0  0  0  0  0  0
  124.9520  130.1350   64.1910 C   0  0  0  0  0  0  0  0  0  0  0  0
  126.2970  129.3700   64.0900 C   0  0  0  0  0  0  0  0  0  0  0  0
  127.5130  129.9800   64.8150 C   0  0  0  0  0  0  0  0  0  0  0  0
  127.3340  130.1050   66.3380 C   0  0  0  0  0  0  0  0  0  0  0  0
  126.2950  129.1590   66.9690 C   0  0  0  0  0  0  0  0  0  0  0  0
  124.8080  129.4650   66.7000 C   0  0  0  0  0  0  0  0  0  0  0  0
  124.5060  130.5230   65.6200 C   0  0  0  0  0  0  0  0  0  0  0  0
  124.5200  131.5750   60.6190 C   0  0  0  0  0  0  0  0  0  0  0  0
  123.7490  131.2170   59.5110 C   0  0  0  0  0  0  0  0  0  0  0  0
  124.3730  130.9430   58.2980 C   0  0  0  0  0  0  0  0  0  0  0  0
  125.7630  131.0290   58.1970 C   0  0  0  0  0  0  0  0  0  0  0  0
  126.5780  130.5410   56.6780 S   0  0  0  0  0  0  0  0  0  0  0  0
  127.4440  131.6540   56.2670 O   0  0  0  0  0  0  0  0  0  0  0  0
  125.5450  130.0310   55.7680 O   0  0  0  0  0  0  0  0  0  0  0  0
  127.6110  129.1800   57.1580 N   0  0  0  0  0  0  0  0  0  0  0  0
  127.6760  128.0760   56.1660 C   0  0  0  0  0  0  0  0  0  0  0  0
  128.3280  126.8260   56.7910 C   0  0  0  0  0  0  0  0  0  0  0  0
  129.7030  127.1510   57.4250 C   0  0  0  0  0  0  0  0  0  0  0  0
  130.3460  125.9320   58.0920 C   0  0  0  0  0  0  0  0  0  0  0  0
  131.7430  125.8170   58.1320 C   0  0  0  0  0  0  0  0  0  0  0  0
  132.3710  124.7270   58.7360 C   0  0  0  0  0  0  0  0  0  0  0  0
  133.7390  124.6330   58.7700 O   0  0  0  0  0  0  0  0  0  0  0  0
  131.5650  123.7340   59.3140 C   0  0  0  0  0  0  0  0  0  0  0  0
  131.8920  122.5870   59.9770 N   0  0  0  0  0  0  0  0  0  0  0  0
  130.7170  121.9840   60.3670 N   0  0  0  0  0  0  0  0  0  0  0  0
  129.6870  122.7250   59.9130 N   0  0  0  0  0  0  0  0  0  0  0  0
  128.3170  122.3640   60.2560 C   0  0  0  0  0  0  0  0  0  0  0  0
  127.3080  122.8420   59.2220 C   0  0  0  0  0  0  0  0  0  0  0  0
  126.2680  123.6980   59.5990 C   0  0  0  0  0  0  0  0  0  0  0  0
  125.3540  124.1560   58.6490 C   0  0  0  0  0  0  0  0  0  0  0  0
  125.4770  123.7610   57.3160 C   0  0  0  0  0  0  0  0  0  0  0  0
  126.5130  122.9100   56.9320 C   0  0  0  0  0  0  0  0  0  0  0  0
  126.6730  122.4290   55.2830 Cl  0  0  0  0  0  0  0  0  0  0  0  0
  127.4250  122.4480   57.8840 C   0  0  0  0  0  0  0  0  0  0  0  0
  130.1560  123.8540   59.2620 C   0  0  0  0  0  0  0  0  0  0  0  0
  129.5250  124.9430   58.6530 C   0  0  0  0  0  0  0  0  0  0  0  0
  129.6420  128.3860   58.3610 C   0  0  0  0  0  0  0  0  0  0  0  0
  128.9390  129.5830   57.6900 C   0  0  0  0  0  0  0  0  0  0  0  0
  126.5280  131.4280   59.2950 C   0  0  0  0  0  0  0  0  0  0  0  0
  125.9060  131.6980   60.5090 C   0  0  0  0  0  0  0  0  0  0  0  0
  1  2  2  0
  2  3  2  0
  2  4  1  0
  4  5  1  0
  5  6  1  0
  6  7  1  0
  7  8  1  0
  8  9  1  0
  9 10  1  0
 10 11  1  0
  2 12  1  0
 12 13  2  0
 13 14  1  0
 14 15  2  0
 15 16  1  0
 16 17  2  0
 16 18  2  0
 16 19  1  0
 19 20  1  0
 20 21  1  0
 21 22  1  0
 22 23  1  0
 23 24  2  0
 24 25  1  0
 25 26  1  0
 25 27  2  0
 27 28  1  0
 28 29  2  0
 29 30  1  0
 30 31  1  0
 31 32  1  0
 32 33  2  0
 33 34  1  0
 34 35  2  0
 35 36  1  0
 36 37  1  0
 36 38  2  0
 30 39  1  0
 39 40  2  0
 22 41  1  0
 41 42  1  0
 15 43  1  0
 43 44  2  0
 11  5  1  0
 44 12  1  0
 42 19  1  0
 40 23  1  0
 39 27  1  0
 38 32  1  0
M  END
>  <Binding energies>  (43) 
[-10.49]

>  <Ligand effiencies>  (43) 
[-0.21854166666666666]

>  <Interactions>  (43) 
["V-B:TYR:539:CD2:9845, V-B:MET:535:CE:9806, V-B:ASP:366:CG:8184, V-B:TYR:539:CE2:9847, V-B:TYR:539:C:9838, V-B:PRO:540:N:9855, V-A:ILE:369:CG2:3236, V-B:PRO:540:CB:9856, H-B:TYR:531:OH:9766, V-A:ASP:366:CB:3211, V-B:PRO:540:CA:9854, V-B:LEU:363:CD1:8160, V-B:TYR:539:CZ:9848, V-B:ASP:366:CB:8183, V-A:GLU:543:CD:4908, V-A:GLU:543:CG:4907, V-B:ILE:369:CD1:8210, H-B:GLY:454:N:9021, V-B:GLU:543:CD:9879, V-B:HIS:456:CE1:9041, V-B:GLY:454:CA:9020, H-B:TYR:539:OH:9849, V-B:ILE:369:CG2:8208, V-A:TYR:539:CE2:4876, V-A:TYR:539:CZ:4877, V-B:ASP:366:CA:8181, V-B:ASP:366:C:8179, V-B:TYR:539:CD1:9844, V-B:TYR:539:CG:9843, V-B:TYR:539:CE1:9846, V-B:PRO:540:C:9852, V-B:ARG:545:CZ:9897, V-A:MET:535:CE:4835, H-A:TYR:539:OH:4878, V-B:ARG:545:CG:9893, V-B:ILE:369:CB:8207, V-B:ARG:545:CD:9894, V-B:ILE:538:CA:9831, H-A:ASP:366:O:3208"]

$$$$
RR18_Rahimova_2017
     RDKit          3D

 36 41  0  0  0  0  0  0  0  0999 V2000
  129.4210  132.8440   60.7650 C   0  0  0  0  0  0  0  0  0  0  0  0
  128.5840  131.6030   60.9470 C   0  0  0  0  0  0  0  0  0  0  0  0
  128.4950  130.6340   61.9330 C   0  0  0  0  0  0  0  0  0  0  0  0
  127.5190  129.7280   61.5200 C   0  0  0  0  0  0  0  0  0  0  0  0
  127.0460  130.1760   60.2970 C   0  0  0  0  0  0  0  0  0  0  0  0
  125.9890  129.6670   59.3210 C   0  0  1  0  0  0  0  0  0  0  0  0
  125.4670  130.8080   58.3970 C   0  0  0  0  0  0  0  0  0  0  0  0
  124.7280  131.9340   58.9600 C   0  0  0  0  0  0  0  0  0  0  0  0
  123.7660  132.4360   58.3770 O   0  0  0  0  0  0  0  0  0  0  0  0
  125.1840  132.3500   60.1640 N   0  0  0  0  0  0  0  0  0  0  0  0
  124.7440  133.4060   60.9920 C   0  0  0  0  0  0  0  0  0  0  0  0
  125.1260  134.7470   60.8070 C   0  0  0  0  0  0  0  0  0  0  0  0
  124.6600  135.7420   61.6650 C   0  0  0  0  0  0  0  0  0  0  0  0
  123.8150  135.4140   62.7210 C   0  0  0  0  0  0  0  0  0  0  0  0
  123.4370  134.0890   62.9230 C   0  0  0  0  0  0  0  0  0  0  0  0
  123.8960  133.0800   62.0700 C   0  0  0  0  0  0  0  0  0  0  0  0
  123.4570  131.6430   62.3370 C   0  0  0  0  0  0  0  0  0  0  0  0
  125.8050  130.7810   57.0810 C   0  0  0  0  0  0  0  0  0  0  0  0
  126.4730  129.7630   56.4710 N   0  0  0  0  0  0  0  0  0  0  0  0
  126.7510  128.7030   57.1370 C   0  0  0  0  0  0  0  0  0  0  0  0
  127.4650  127.2610   56.4540 S   0  0  0  0  0  0  0  0  0  0  0  0
  127.4150  126.4230   58.0370 C   0  0  0  0  0  0  0  0  0  0  0  0
  127.8390  125.1420   58.3150 C   0  0  0  0  0  0  0  0  0  0  0  0
  128.3300  124.2720   57.2350 C   0  0  0  0  0  0  0  0  0  0  0  0
  128.4660  124.5020   56.0340 O   0  0  0  0  0  0  0  0  0  0  0  0
  128.6170  123.0850   57.7790 N   0  0  0  0  0  0  0  0  0  0  0  0
  128.4100  123.0530   59.1250 C   0  0  0  0  0  0  0  0  0  0  0  0
  128.6210  121.9860   59.9970 C   0  0  0  0  0  0  0  0  0  0  0  0
  128.3750  122.1680   61.3550 C   0  0  0  0  0  0  0  0  0  0  0  0
  127.9360  123.4080   61.8150 C   0  0  0  0  0  0  0  0  0  0  0  0
  127.7310  124.4620   60.9210 C   0  0  0  0  0  0  0  0  0  0  0  0
  127.9510  124.2910   59.5410 C   0  0  0  0  0  0  0  0  0  0  0  0
  126.8230  127.3380   59.0140 C   0  0  0  0  0  0  0  0  0  0  0  0
  126.5810  127.0910   60.1910 O   0  0  0  0  0  0  0  0  0  0  0  0
  126.5250  128.5480   58.4670 N   0  0  0  0  0  0  0  0  0  0  0  0
  127.7010  131.3180   59.9550 O   0  0  0  0  0  0  0  0  0  0  0  0
  1  2  1  0
  2  3  2  0
  3  4  1  0
  4  5  2  0
  6  5  1  1
  6  7  1  0
  7  8  1  0
  8  9  2  0
  8 10  1  0
 10 11  1  0
 11 12  2  0
 12 13  1  0
 13 14  2  0
 14 15  1  0
 15 16  2  0
 16 17  1  0
  7 18  2  0
 18 19  1  0
 19 20  2  0
 20 21  1  0
 21 22  1  0
 22 23  2  0
 23 24  1  0
 24 25  2  0
 24 26  1  0
 26 27  1  0
 27 28  2  0
 28 29  1  0
 29 30  2  0
 30 31  1  0
 31 32  2  0
 22 33  1  0
 33 34  2  0
 33 35  1  0
  5 36  1  0
 36  2  1  0
 35  6  1  0
 16 11  1  0
 35 20  1  0
 32 23  1  0
 32 27  1  0
M  END
>  <Binding energies>  (44) 
[-8.31]

>  <Ligand effiencies>  (44) 
[-0.21868421052631581]

>  <Interactions>  (44) 
["V-B:TYR:539:CD2:9845, V-B:ASP:366:CG:8184, V-B:TYR:539:CE2:9847, V-B:TYR:539:C:9838, V-B:PRO:540:N:9855, H-B:TYR:531:OH:9766, V-B:PRO:540:CA:9854, V-B:TYR:539:CZ:9848, V-B:TYR:531:CZ:9765, V-B:ASP:366:CB:8183, V-B:LEU:475:CD1:9229, V-B:TRP:381:CH2:8343, V-A:TYR:539:CD2:4874, V-B:TRP:381:CZ2:8341, V-A:PRO:540:CA:4883, V-B:ILE:369:CD1:8210, V-B:GLY:454:CA:9020, H-B:TYR:539:OH:9849, V-B:ILE:369:CG2:8208, V-A:TYR:539:CE2:4876, V-A:TYR:539:CZ:4877, V-B:TYR:539:CD1:9844, V-B:TYR:539:CG:9843, V-B:TYR:539:CE1:9846, V-B:ALA:541:CB:9863, V-B:PRO:540:C:9852, V-B:ALA:541:CA:9861, H-A:TYR:539:OH:4878, V-B:SER:385:CA:8378, V-B:SER:385:C:8376"]

$$$$
RR20_Rahimova_2017
     RDKit          3D

 38 43  0  0  0  0  0  0  0  0999 V2000
  135.3730  123.7240   76.9650 C   0  0  0  0  0  0  0  0  0  0  0  0
  134.2010  124.4440   76.3220 C   0  0  0  0  0  0  0  0  0  0  0  0
  132.9030  123.9770   76.5260 C   0  0  0  0  0  0  0  0  0  0  0  0
  131.8260  124.6400   75.9450 C   0  0  0  0  0  0  0  0  0  0  0  0
  132.0390  125.7690   75.1440 C   0  0  0  0  0  0  0  0  0  0  0  0
  130.8540  126.4880   74.5390 C   0  0  0  0  0  0  0  0  0  0  0  0
  130.5160  127.5600   75.0470 O   0  0  0  0  0  0  0  0  0  0  0  0
  130.2200  125.9420   73.4600 N   0  0  0  0  0  0  0  0  0  0  0  0
  129.3110  124.7930   73.6000 C   0  0  0  0  0  0  0  0  0  0  0  0
  128.6870  124.5710   72.2330 C   0  0  0  0  0  0  0  0  0  0  0  0
  129.0030  125.8460   71.5110 C   0  0  0  0  0  0  0  0  0  0  0  0
  128.6080  126.2560   70.2370 C   0  0  0  0  0  0  0  0  0  0  0  0
  129.1410  127.4180   69.6650 C   0  0  0  0  0  0  0  0  0  0  0  0
  128.7090  127.8660   68.2970 C   0  0  0  0  0  0  0  0  0  0  0  0
  127.8880  128.9000   68.2030 N   0  0  0  0  0  0  0  0  0  0  0  0
  127.5950  129.2140   66.9670 C   0  0  0  0  0  0  0  0  0  0  0  0
  126.7760  130.2380   66.5170 N   0  0  0  0  0  0  0  0  0  0  0  0
  125.8540  130.1670   65.5250 C   0  0  0  0  0  0  0  0  0  0  0  0
  125.6040  129.1420   64.8890 O   0  0  0  0  0  0  0  0  0  0  0  0
  125.0490  131.4450   65.1890 C   0  0  0  0  0  0  0  0  0  0  0  0
  125.1400  131.8260   63.7680 N   0  0  0  0  0  0  0  0  0  0  0  0
  126.4770  131.5810   63.2050 C   0  0  0  0  0  0  0  0  0  0  0  0
  126.5960  132.2370   61.8100 C   0  0  0  0  0  0  0  0  0  0  0  0
  125.3850  131.9650   60.9170 C   0  0  0  0  0  0  0  0  0  0  0  0
  125.4240  132.2430   59.5460 C   0  0  0  0  0  0  0  0  0  0  0  0
  124.3090  132.0320   58.7390 C   0  0  0  0  0  0  0  0  0  0  0  0
  123.1350  131.5350   59.2980 C   0  0  0  0  0  0  0  0  0  0  0  0
  123.0860  131.2460   60.6600 C   0  0  0  0  0  0  0  0  0  0  0  0
  124.1990  131.4550   61.4820 C   0  0  0  0  0  0  0  0  0  0  0  0
  124.1620  131.0830   62.9640 C   0  0  0  0  0  0  0  0  0  0  0  0
  128.3330  128.2070   65.7830 S   0  0  0  0  0  0  0  0  0  0  0  0
  129.0870  127.2890   67.0650 C   0  0  0  0  0  0  0  0  0  0  0  0
  129.9480  126.0870   66.7430 C   0  0  0  0  0  0  0  0  0  0  0  0
  130.1200  128.1270   70.3780 C   0  0  0  0  0  0  0  0  0  0  0  0
  130.5310  127.7080   71.6440 C   0  0  0  0  0  0  0  0  0  0  0  0
  129.9280  126.5930   72.2400 C   0  0  0  0  0  0  0  0  0  0  0  0
  133.3430  126.2490   74.9680 C   0  0  0  0  0  0  0  0  0  0  0  0
  134.4210  125.5860   75.5500 C   0  0  0  0  0  0  0  0  0  0  0  0
  1  2  1  0
  2  3  2  0
  3  4  1  0
  4  5  2  0
  5  6  1  0
  6  7  2  0
  6  8  1  0
  8  9  1  0
  9 10  1  0
 10 11  1  0
 11 12  2  0
 12 13  1  0
 13 14  1  0
 14 15  1  0
 15 16  2  0
 16 17  1  0
 17 18  1  0
 18 19  2  0
 18 20  1  0
 20 21  1  0
 21 22  1  0
 22 23  1  0
 23 24  1  0
 24 25  2  0
 25 26  1  0
 26 27  2  0
 27 28  1  0
 28 29  2  0
 29 30  1  0
 16 31  1  0
 31 32  1  0
 32 33  1  0
 13 34  2  0
 34 35  1  0
 35 36  2  0
  5 37  1  0
 37 38  2  0
 38  2  1  0
 36  8  1  0
 36 11  1  0
 32 14  2  0
 30 21  1  0
 29 24  1  0
M  END
>  <Binding energies>  (45) 
[-10.19]

>  <Ligand effiencies>  (45) 
[-0.2612820512820513]

>  <Interactions>  (45) 
["V-B:ASP:366:CG:8184, V-B:ASP:366:CB:8183, V-A:GLU:543:CD:4908, V-B:LEU:475:CD1:9229, V-A:GLU:543:CG:4907, V-A:LYS:471:CB:4216, V-A:HIS:456:C:4060, V-B:ILE:369:CD1:8210, V-A:HIS:456:CD2:4067, V-A:VAL:458:CG2:4086, H-A:LYS:547:NZ:4951, V-A:HIS:456:CB:4064, V-A:ASP:473:CG:4239, V-A:HIS:456:CG:4065, V-A:LYS:471:CD:4218, V-B:GLU:543:CD:9879, V-B:HIS:456:CE1:9041, V-B:GLY:454:CA:9020, H-B:ARG:545:NH2:9899, H-B:ARG:545:NE:9895, V-A:GLU:543:CB:4906, V-A:HIS:456:CE1:4069, V-B:ILE:369:CG2:8208, V-A:TYR:539:CE2:4876, V-A:TYR:539:CZ:4877, V-B:ASP:366:CA:8181, V-B:ASP:366:C:8179, V-B:TYR:484:CZ:9318, H-B:TYR:484:OH:9319, V-B:ILE:369:CB:8207, V-A:LYS:547:CE:4950, V-B:LYS:547:CE:9921, V-B:ILE:369:CG1:8209, V-A:HIS:456:CA:4062, V-A:LYS:471:C:4212, V-A:LYS:471:CG:4217"]

$$$$
RR21_Rahimova_2017
     RDKit          3D

 40 45  0  0  0  0  0  0  0  0999 V2000
  133.8770  124.1370   62.1920 C   0  0  0  0  0  0  0  0  0  0  0  0
  133.8370  123.9020   63.5970 O   0  0  0  0  0  0  0  0  0  0  0  0
  132.8900  124.5540   64.3640 C   0  0  0  0  0  0  0  0  0  0  0  0
  131.5200  124.6040   64.0540 C   0  0  0  0  0  0  0  0  0  0  0  0
  130.6280  125.2820   64.8840 C   0  0  0  0  0  0  0  0  0  0  0  0
  131.0790  125.9220   66.0440 C   0  0  0  0  0  0  0  0  0  0  0  0
  130.1180  126.6460   66.9380 C   0  0  0  0  0  0  0  0  0  0  0  0
  130.2820  126.6060   68.2460 N   0  0  0  0  0  0  0  0  0  0  0  0
  129.2890  127.3330   68.7800 N   0  0  0  0  0  0  0  0  0  0  0  0
  129.1770  127.5160   70.1830 C   0  0  0  0  0  0  0  0  0  0  0  0
  128.8080  126.4510   71.0190 C   0  0  0  0  0  0  0  0  0  0  0  0
  128.7070  126.6420   72.3940 C   0  0  0  0  0  0  0  0  0  0  0  0
  128.9730  127.8970   72.9390 C   0  0  0  0  0  0  0  0  0  0  0  0
  129.3370  128.9620   72.1200 C   0  0  0  0  0  0  0  0  0  0  0  0
  129.4390  128.7740   70.7440 C   0  0  0  0  0  0  0  0  0  0  0  0
  128.4960  127.8530   67.7890 C   0  0  0  0  0  0  0  0  0  0  0  0
  128.9930  127.4170   66.5690 C   0  0  0  0  0  0  0  0  0  0  0  0
  128.5140  127.7450   65.2350 C   0  0  0  0  0  0  0  0  0  0  0  0
  127.4640  128.5260   64.8900 C   0  0  0  0  0  0  0  0  0  0  0  0
  126.3410  129.3840   65.9680 S   0  0  0  0  0  0  0  0  0  0  0  0
  125.5050  130.0280   64.5630 C   0  0  0  0  0  0  0  0  0  0  0  0
  124.4870  130.8320   64.5410 N   0  0  0  0  0  0  0  0  0  0  0  0
  123.9090  131.2900   63.3250 C   0  0  0  0  0  0  0  0  0  0  0  0
  122.9600  132.0660   63.2200 O   0  0  0  0  0  0  0  0  0  0  0  0
  124.5740  130.7430   62.0920 C   0  0  0  0  0  0  0  0  0  0  0  0
  124.0230  131.1520   60.7200 C   0  0  0  0  0  0  0  0  0  0  0  0
  125.0820  131.2700   59.6260 C   0  0  0  0  0  0  0  0  0  0  0  0
  126.3180  131.8570   59.9090 C   0  0  0  0  0  0  0  0  0  0  0  0
  127.2900  131.9500   58.9160 C   0  0  0  0  0  0  0  0  0  0  0  0
  127.0300  131.4520   57.6380 C   0  0  0  0  0  0  0  0  0  0  0  0
  128.0970  131.5440   56.5620 C   0  0  0  0  0  0  0  0  0  0  0  0
  125.7990  130.8540   57.3550 C   0  0  0  0  0  0  0  0  0  0  0  0
  124.8280  130.7630   58.3480 C   0  0  0  0  0  0  0  0  0  0  0  0
  125.5850  129.9370   62.1290 N   0  0  0  0  0  0  0  0  0  0  0  0
  126.0620  129.5760   63.3950 N   0  0  0  0  0  0  0  0  0  0  0  0
  127.1310  128.7480   63.4900 C   0  0  0  0  0  0  0  0  0  0  0  0
  127.7340  128.2620   62.5260 O   0  0  0  0  0  0  0  0  0  0  0  0
  132.4430  125.8780   66.3500 C   0  0  0  0  0  0  0  0  0  0  0  0
  133.3370  125.2010   65.5210 C   0  0  0  0  0  0  0  0  0  0  0  0
  134.6510  125.1770   65.8450 F   0  0  0  0  0  0  0  0  0  0  0  0
  1  2  1  0
  2  3  1  0
  3  4  2  0
  4  5  1  0
  5  6  2  0
  6  7  1  0
  7  8  2  0
  8  9  1  0
  9 10  1  0
 10 11  2  0
 11 12  1  0
 12 13  2  0
 13 14  1  0
 14 15  2  0
  9 16  1  0
 16 17  2  0
 17 18  1  0
 18 19  2  0
 19 20  1  0
 20 21  1  0
 21 22  2  0
 22 23  1  0
 23 24  2  0
 23 25  1  0
 25 26  1  0
 26 27  1  0
 27 28  2  0
 28 29  1  0
 29 30  2  0
 30 31  1  0
 30 32  1  0
 32 33  2  0
 25 34  2  0
 34 35  1  0
 35 36  1  0
 36 37  2  0
  6 38  1  0
 38 39  2  0
 39 40  1  0
 39  3  1  0
 17  7  1  0
 36 19  1  0
 15 10  1  0
 35 21  1  0
 33 27  1  0
M  END
>  <Binding energies>  (46) 
[-9.8]

>  <Ligand effiencies>  (46) 
[-0.24500000000000002]

>  <Interactions>  (46) 
["V-B:ASP:366:CG:8184, V-B:ASP:366:CB:8183, V-A:GLU:543:CD:4908, V-A:GLU:543:CG:4907, V-A:TYR:539:CD2:4874, V-B:ILE:369:CD1:8210, H-B:GLY:454:N:9021, V-B:GLU:543:CD:9879, V-B:HIS:456:CE1:9041, V-B:GLY:454:CA:9020, H-B:ARG:545:NH2:9899, V-A:GLU:543:CB:4906, V-A:HIS:456:CE1:4069, V-B:HIS:456:CD2:9039, V-A:TYR:539:CE2:4876, V-A:TYR:539:CZ:4877, V-A:ILE:369:CD1:3238, V-A:GLY:454:CA:4048, V-A:ARG:545:CZ:4926, V-B:ARG:545:CZ:9897, V-A:MET:535:CE:4835, H-A:GLY:454:N:4049, V-A:ARG:545:CD:4923, V-A:GLY:453:CA:4043, V-A:GLY:453:C:4041"]

$$$$
RR23_Rahimova_2017
     RDKit          3D

 39 44  0  0  0  0  0  0  0  0999 V2000
  133.2860  131.5040   62.1690 C   0  0  0  0  0  0  0  0  0  0  0  0
  132.5440  131.7680   60.8710 C   0  0  0  0  0  0  0  0  0  0  0  0
  131.2040  132.1590   60.9000 C   0  0  0  0  0  0  0  0  0  0  0  0
  130.5270  132.4100   59.7090 C   0  0  0  0  0  0  0  0  0  0  0  0
  131.1800  132.2620   58.4810 C   0  0  0  0  0  0  0  0  0  0  0  0
  130.4330  132.5600   57.2000 C   0  0  0  0  0  0  0  0  0  0  0  0
  130.9500  133.3510   56.4080 O   0  0  0  0  0  0  0  0  0  0  0  0
  129.2380  131.9420   56.9620 N   0  0  0  0  0  0  0  0  0  0  0  0
  128.2440  132.5170   56.0420 C   0  0  0  0  0  0  0  0  0  0  0  0
  127.1290  131.4910   55.9210 C   0  0  0  0  0  0  0  0  0  0  0  0
  127.7540  130.2510   56.4870 C   0  0  0  0  0  0  0  0  0  0  0  0
  127.2340  128.9590   56.5580 C   0  0  0  0  0  0  0  0  0  0  0  0
  127.9110  127.9600   57.2730 C   0  0  0  0  0  0  0  0  0  0  0  0
  127.3740  126.5240   57.3770 C   0  0  2  0  0  0  0  0  0  0  0  0
  127.3510  126.0470   58.7430 N   0  0  0  0  0  0  0  0  0  0  0  0
  127.5530  124.7930   58.8110 C   0  0  0  0  0  0  0  0  0  0  0  0
  127.6260  124.0140   59.9230 N   0  0  0  0  0  0  0  0  0  0  0  0
  127.6400  124.4000   61.2220 C   0  0  0  0  0  0  0  0  0  0  0  0
  127.5460  125.5610   61.6250 O   0  0  0  0  0  0  0  0  0  0  0  0
  127.7930  123.2650   62.2480 C   0  0  0  0  0  0  0  0  0  0  0  0
  128.9470  122.4200   61.8690 N   0  0  0  0  0  0  0  0  0  0  0  0
  128.6690  121.3990   60.9690 N   0  0  0  0  0  0  0  0  0  0  0  0
  129.5920  120.5900   60.5580 N   0  0  0  0  0  0  0  0  0  0  0  0
  130.9010  120.7370   61.0220 C   0  0  0  0  0  0  0  0  0  0  0  0
  131.8730  119.8460   60.5600 C   0  0  0  0  0  0  0  0  0  0  0  0
  133.1900  119.9670   61.0060 C   0  0  0  0  0  0  0  0  0  0  0  0
  133.5370  120.9740   61.9090 C   0  0  0  0  0  0  0  0  0  0  0  0
  132.5670  121.8660   62.3720 C   0  0  0  0  0  0  0  0  0  0  0  0
  131.2460  121.7450   61.9240 C   0  0  0  0  0  0  0  0  0  0  0  0
  130.1810  122.6970   62.4150 C   0  0  0  0  0  0  0  0  0  0  0  0
  130.3930  123.6080   63.2220 O   0  0  0  0  0  0  0  0  0  0  0  0
  127.7900  123.9260   57.2650 S   0  0  0  0  0  0  0  0  0  0  0  0
  128.0910  125.5080   56.4580 C   0  0  2  0  0  0  0  0  0  0  0  0
  129.6110  125.6960   56.2700 C   0  0  0  0  0  0  0  0  0  0  0  0
  129.0890  128.2960   57.9520 C   0  0  0  0  0  0  0  0  0  0  0  0
  129.5980  129.5940   57.8980 C   0  0  0  0  0  0  0  0  0  0  0  0
  128.9600  130.5650   57.1160 C   0  0  0  0  0  0  0  0  0  0  0  0
  132.5330  131.8970   58.4610 C   0  0  0  0  0  0  0  0  0  0  0  0
  133.2100  131.6470   59.6510 C   0  0  0  0  0  0  0  0  0  0  0  0
  1  2  1  0
  2  3  2  0
  3  4  1  0
  4  5  2  0
  5  6  1  0
  6  7  2  0
  6  8  1  0
  8  9  1  0
  9 10  1  0
 10 11  1  0
 11 12  2  0
 12 13  1  0
 14 13  1  1
 14 15  1  0
 15 16  2  0
 16 17  1  0
 17 18  1  0
 18 19  2  0
 18 20  1  0
 20 21  1  0
 21 22  1  0
 22 23  2  0
 23 24  1  0
 24 25  2  0
 25 26  1  0
 26 27  2  0
 27 28  1  0
 28 29  2  0
 29 30  1  0
 30 31  2  0
 16 32  1  0
 32 33  1  0
 33 34  1  1
 13 35  2  0
 35 36  1  0
 36 37  2  0
  5 38  1  0
 38 39  2  0
 39  2  1  0
 37  8  1  0
 37 11  1  0
 33 14  1  0
 30 21  1  0
 29 24  1  0
M  END
>  <Binding energies>  (47) 
[-9.74]

>  <Ligand effiencies>  (47) 
[-0.2435]

>  <Interactions>  (47) 
["V-B:TYR:539:CD2:9845, V-B:TYR:539:CE2:9847, V-A:ASP:366:CG:3212, V-A:ILE:369:CG2:3236, V-B:TYR:539:CZ:9848, H-B:ALA:541:N:9862, V-A:PRO:540:N:4884, V-A:PRO:540:CB:4885, V-A:TYR:539:CD2:4874, V-A:PRO:540:CA:4883, V-A:TYR:539:C:4867, V-A:LEU:475:CD2:4258, V-A:TYR:539:CE2:4876, V-A:TYR:539:CZ:4877, V-A:ILE:369:CD1:3238, V-B:ALA:541:CB:9863, V-A:TRP:381:CH2:3371, V-A:TRP:381:CZ2:3369, V-B:ALA:541:CA:9861, V-A:LEU:363:CD1:3188, V-A:LEU:363:CA:3184, V-A:MET:535:CE:4835, H-A:TYR:539:N:4870, V-A:TYR:539:CD1:4873, V-A:TYR:539:CE1:4875, V-A:PRO:540:C:4881, V-A:ASN:362:CB:3175"]

$$$$
RR26_Rahimova_2017
     RDKit          3D

 38 44  0  0  0  0  0  0  0  0999 V2000
  123.8760  124.7770   58.2680 C   0  0  0  0  0  0  0  0  0  0  0  0
  125.1290  124.1350   57.6850 C   0  0  0  0  0  0  0  0  0  0  0  0
  124.9960  122.9180   57.0080 C   0  0  0  0  0  0  0  0  0  0  0  0
  126.1010  122.3060   56.4210 C   0  0  0  0  0  0  0  0  0  0  0  0
  127.3520  122.9110   56.5000 C   0  0  0  0  0  0  0  0  0  0  0  0
  127.4970  124.1240   57.1710 C   0  0  0  0  0  0  0  0  0  0  0  0
  126.3970  124.7500   57.7760 C   0  0  0  0  0  0  0  0  0  0  0  0
  126.6430  126.0470   58.4920 C   0  0  0  0  0  0  0  0  0  0  0  0
  126.2430  127.2170   58.0030 N   0  0  0  0  0  0  0  0  0  0  0  0
  126.6420  128.0480   58.9280 C   0  0  0  0  0  0  0  0  0  0  0  0
  126.5790  129.7550   59.1690 S   0  0  0  0  0  0  0  0  0  0  0  0
  127.4330  129.5410   60.7430 C   0  0  0  0  0  0  0  0  0  0  0  0
  127.7980  130.5000   61.6230 C   0  0  0  0  0  0  0  0  0  0  0  0
  127.5880  131.9350   61.5230 C   0  0  0  0  0  0  0  0  0  0  0  0
  126.7180  132.7270   62.2570 C   0  0  0  0  0  0  0  0  0  0  0  0
  126.8880  134.0270   61.8530 N   0  0  0  0  0  0  0  0  0  0  0  0
  126.2210  135.1870   62.3260 C   0  0  0  0  0  0  0  0  0  0  0  0
  126.9460  136.3190   62.7270 C   0  0  0  0  0  0  0  0  0  0  0  0
  126.2790  137.4490   63.1920 C   0  0  0  0  0  0  0  0  0  0  0  0
  124.8880  137.4540   63.2540 C   0  0  0  0  0  0  0  0  0  0  0  0
  124.1560  136.3370   62.8550 C   0  0  0  0  0  0  0  0  0  0  0  0
  124.8200  135.2040   62.3930 C   0  0  0  0  0  0  0  0  0  0  0  0
  127.8460  134.1020   60.9170 N   0  0  0  0  0  0  0  0  0  0  0  0
  128.2660  132.8700   60.7070 C   0  0  0  0  0  0  0  0  0  0  0  0
  129.3400  132.6100   59.6970 C   0  0  0  0  0  0  0  0  0  0  0  0
  130.5280  131.9650   60.0750 C   0  0  0  0  0  0  0  0  0  0  0  0
  131.5380  131.7210   59.1420 C   0  0  0  0  0  0  0  0  0  0  0  0
  131.3660  132.1240   57.8190 C   0  0  0  0  0  0  0  0  0  0  0  0
  130.1750  132.7530   57.4250 C   0  0  0  0  0  0  0  0  0  0  0  0
  129.1720  133.0000   58.3610 C   0  0  0  0  0  0  0  0  0  0  0  0
  129.9790  133.2080   56.1360 O   0  0  0  0  0  0  0  0  0  0  0  0
  130.8500  132.6150   55.1680 C   0  0  0  0  0  0  0  0  0  0  0  0
  132.3030  132.5680   55.7000 C   0  0  0  0  0  0  0  0  0  0  0  0
  132.3680  131.8200   56.9190 O   0  0  0  0  0  0  0  0  0  0  0  0
  127.7430  128.1420   61.0210 C   0  0  0  0  0  0  0  0  0  0  0  0
  128.3180  127.6510   61.9940 O   0  0  0  0  0  0  0  0  0  0  0  0
  127.2510  127.3990   59.9360 N   0  0  0  0  0  0  0  0  0  0  0  0
  127.2540  126.0900   59.6670 N   0  0  0  0  0  0  0  0  0  0  0  0
  1  2  1  0
  2  3  2  0
  3  4  1  0
  4  5  2  0
  5  6  1  0
  6  7  2  0
  7  8  1  0
  8  9  1  0
  9 10  2  0
 10 11  1  0
 11 12  1  0
 12 13  2  0
 13 14  1  0
 14 15  2  0
 15 16  1  0
 16 17  1  0
 17 18  2  0
 18 19  1  0
 19 20  2  0
 20 21  1  0
 21 22  2  0
 16 23  1  0
 23 24  2  0
 24 25  1  0
 25 26  2  0
 26 27  1  0
 27 28  2  0
 28 29  1  0
 29 30  2  0
 29 31  1  0
 31 32  1  0
 32 33  1  0
 33 34  1  0
 12 35  1  0
 35 36  2  0
 35 37  1  0
 37 38  1  0
  7  2  1  0
 38  8  2  0
 37 10  1  0
 24 14  1  0
 30 25  1  0
 22 17  1  0
 34 28  1  0
M  END
>  <Binding energies>  (48) 
[-10.57]

>  <Ligand effiencies>  (48) 
[-0.2781578947368421]

>  <Interactions>  (48) 
["V-B:ASP:366:CG:8184, V-B:TYR:539:C:9838, V-B:PRO:540:CD:9858, V-B:PRO:540:N:9855, V-B:LEU:363:CA:8156, V-B:PRO:540:CB:9856, H-B:TYR:531:OH:9766, V-B:PRO:540:CA:9854, V-B:LEU:363:CD1:8160, V-B:TYR:539:CZ:9848, V-B:ASP:366:CB:8183, V-B:TYR:531:CE2:9764, V-A:PRO:540:N:4884, V-B:PRO:482:CB:9297, V-B:LEU:475:CD1:9229, V-B:TRP:381:CH2:8343, V-A:PRO:540:CB:4885, V-A:TYR:539:CD2:4874, V-A:ALA:541:CB:4892, V-B:PRO:482:CG:9298, V-B:TRP:381:CZ2:8341, V-A:PRO:540:CA:4883, V-A:TYR:539:C:4867, V-A:TYR:539:CE2:4876, V-B:TYR:539:CD1:9844, V-B:TYR:539:CG:9843, V-B:TYR:539:CE1:9846, V-A:LEU:363:CD1:3188, V-A:MET:535:CE:4835, H-A:TYR:539:N:4870, V-B:SER:385:CB:8380, V-B:LEU:475:CB:9227, V-B:SER:385:CA:8378, V-B:TRP:381:CE2:8338, V-A:TYR:539:CG:4872, V-B:SER:385:C:8376, V-A:ILE:538:CA:4860, V-A:ILE:538:CB:4862, V-A:ILE:538:CG2:4863"]

$$$$
RR2_Rahimova_2017
     RDKit          3D

 46 50  0  0  0  0  0  0  0  0999 V2000
  123.6020  130.4590   63.2360 C   0  0  0  0  0  0  0  0  0  0  0  0
  123.0670  131.0520   62.0580 O   0  0  0  0  0  0  0  0  0  0  0  0
  123.8330  131.0740   60.9070 C   0  0  0  0  0  0  0  0  0  0  0  0
  123.3710  131.5120   59.6580 C   0  0  0  0  0  0  0  0  0  0  0  0
  124.2150  131.4950   58.5520 C   0  0  0  0  0  0  0  0  0  0  0  0
  125.5360  131.0390   58.6650 C   0  0  0  0  0  0  0  0  0  0  0  0
  126.4330  131.0240   57.4420 C   0  0  0  0  0  0  0  0  0  0  0  0
  126.3620  130.0960   56.6290 O   0  0  0  0  0  0  0  0  0  0  0  0
  127.2920  132.0640   57.3280 N   0  0  0  0  0  0  0  0  0  0  0  0
  128.2010  132.0520   56.2750 N   0  0  0  0  0  0  0  0  0  0  0  0
  129.2750  132.8630   56.3510 C   0  0  0  0  0  0  0  0  0  0  0  0
  129.4310  133.7490   57.1960 O   0  0  0  0  0  0  0  0  0  0  0  0
  130.3670  132.6130   55.3030 C   0  0  0  0  0  0  0  0  0  0  0  0
  131.6200  131.3630   55.7720 S   0  0  0  0  0  0  0  0  0  0  0  0
  130.5780  130.0060   56.2120 C   0  0  0  0  0  0  0  0  0  0  0  0
  130.1020  129.1590   55.3350 N   0  0  0  0  0  0  0  0  0  0  0  0
  129.2730  128.2770   56.0140 N   0  0  0  0  0  0  0  0  0  0  0  0
  129.3020  128.6070   57.2830 C   0  0  0  0  0  0  0  0  0  0  0  0
  128.5430  127.8720   58.3410 C   0  0  0  0  0  0  0  0  0  0  0  0
  127.1670  127.6760   58.1980 C   0  0  0  0  0  0  0  0  0  0  0  0
  126.4500  127.0000   59.1800 C   0  0  0  0  0  0  0  0  0  0  0  0
  127.1070  126.4990   60.3100 C   0  0  0  0  0  0  0  0  0  0  0  0
  126.4340  125.8200   61.3370 N   0  0  0  0  0  0  0  0  0  0  0  0
  125.6950  124.2110   61.1710 S   0  0  0  0  0  0  0  0  0  0  0  0
  124.2580  124.4020   61.4020 O   0  0  0  0  0  0  0  0  0  0  0  0
  126.4690  123.2680   61.9870 O   0  0  0  0  0  0  0  0  0  0  0  0
  125.8880  123.7820   59.4430 C   0  0  0  0  0  0  0  0  0  0  0  0
  124.8410  123.9790   58.5400 C   0  0  0  0  0  0  0  0  0  0  0  0
  125.0070  123.6240   57.2040 C   0  0  0  0  0  0  0  0  0  0  0  0
  126.2170  123.0790   56.7710 C   0  0  0  0  0  0  0  0  0  0  0  0
  126.3900  122.6790   55.3170 C   0  0  0  0  0  0  0  0  0  0  0  0
  127.2610  122.8790   57.6780 C   0  0  0  0  0  0  0  0  0  0  0  0
  127.0970  123.2320   59.0140 C   0  0  0  0  0  0  0  0  0  0  0  0
  128.4810  126.6930   60.4500 C   0  0  0  0  0  0  0  0  0  0  0  0
  129.1980  127.3740   59.4710 C   0  0  0  0  0  0  0  0  0  0  0  0
  130.1160  129.7100   57.4810 N   0  0  0  0  0  0  0  0  0  0  0  0
  130.3800  130.4000   58.6820 C   0  0  0  0  0  0  0  0  0  0  0  0
  129.3280  130.7580   59.5260 C   0  0  0  0  0  0  0  0  0  0  0  0
  129.5960  131.4350   60.7120 C   0  0  0  0  0  0  0  0  0  0  0  0
  130.9070  131.7610   61.0640 C   0  0  0  0  0  0  0  0  0  0  0  0
  131.0720  132.4350   62.2590 O   0  0  0  0  0  0  0  0  0  0  0  0
  132.2750  132.2500   63.0000 C   0  0  0  0  0  0  0  0  0  0  0  0
  131.9590  131.3980   60.2080 C   0  0  0  0  0  0  0  0  0  0  0  0
  131.6970  130.7190   59.0220 C   0  0  0  0  0  0  0  0  0  0  0  0
  125.9930  130.6080   59.9200 C   0  0  0  0  0  0  0  0  0  0  0  0
  125.1470  130.6270   61.0250 C   0  0  0  0  0  0  0  0  0  0  0  0
  1  2  1  0
  2  3  1  0
  3  4  2  0
  4  5  1  0
  5  6  2  0
  6  7  1  0
  7  8  2  0
  7  9  1  0
  9 10  1  0
 10 11  1  0
 11 12  2  0
 11 13  1  0
 13 14  1  0
 14 15  1  0
 15 16  2  0
 16 17  1  0
 17 18  2  0
 18 19  1  0
 19 20  2  0
 20 21  1  0
 21 22  2  0
 22 23  1  0
 23 24  1  0
 24 25  2  0
 24 26  2  0
 24 27  1  0
 27 28  2  0
 28 29  1  0
 29 30  2  0
 30 31  1  0
 30 32  1  0
 32 33  2  0
 22 34  1  0
 34 35  2  0
 18 36  1  0
 36 37  1  0
 37 38  2  0
 38 39  1  0
 39 40  2  0
 40 41  1  0
 41 42  1  0
 40 43  1  0
 43 44  2  0
  6 45  1  0
 45 46  2  0
 46  3  1  0
 36 15  1  0
 44 37  1  0
 35 19  1  0
 33 27  1  0
M  END
>  <Binding energies>  (49) 
[-10.86]

>  <Ligand effiencies>  (49) 
[-0.22163265306122448]

>  <Interactions>  (49) 
["V-B:MET:535:CE:9806, V-B:ASP:366:CG:8184, V-B:TYR:539:C:9838, H-B:ASP:366:OD2:8186, V-B:PRO:540:N:9855, V-B:PRO:540:CB:9856, H-B:TYR:531:OH:9766, V-B:PRO:540:CA:9854, V-B:LEU:363:CD1:8160, V-B:ASP:366:CB:8183, H-B:GLU:543:OE2:9881, H-B:ALA:541:N:9862, V-A:GLU:543:CD:4908, V-A:PRO:540:CB:4885, V-A:TYR:539:CD2:4874, V-A:ALA:541:CB:4892, H-A:ALA:541:N:4891, V-A:ALA:541:CA:4890, V-A:PRO:540:CA:4883, V-B:ILE:369:CD1:8210, V-B:GLY:453:C:9013, H-B:ARG:545:NH2:9899, V-B:ILE:369:CG2:8208, V-A:TYR:539:CE2:4876, V-A:TYR:539:CZ:4877, V-B:ASP:366:CA:8181, V-B:ASP:366:C:8179, V-B:TYR:539:CD1:9844, V-B:TYR:539:CE1:9846, H-A:TYR:531:OH:4795, V-B:ARG:545:CZ:9897, V-A:TYR:531:CE2:4793, V-A:TYR:531:CZ:4794, V-A:MET:535:CE:4835, V-B:ILE:369:CB:8207, H-A:TYR:539:N:4870, V-A:TYR:539:CG:4872, V-A:ILE:538:CA:4860, V-A:TYR:539:CD1:4873, V-A:ILE:538:CB:4862, V-A:TYR:539:CE1:4875, V-A:ILE:538:CG2:4863, V-A:PRO:540:C:4881, V-A:ALA:541:C:4888, V-B:GLY:453:CA:9015"]

$$$$
RR33_Rahimova_2017
     RDKit          3D

 18 19  0  0  0  0  0  0  0  0999 V2000
  132.9760  122.0910   63.4880 C   0  0  0  0  0  0  0  0  0  0  0  0
  133.9060  121.4880   62.4310 C   0  0  0  0  0  0  0  0  0  0  0  0
  133.1340  120.6710   61.5540 O   0  0  0  0  0  0  0  0  0  0  0  0
  131.8580  121.0700   61.2040 C   0  0  0  0  0  0  0  0  0  0  0  0
  131.7380  122.3330   60.6280 C   0  0  0  0  0  0  0  0  0  0  0  0
  130.4920  122.8220   60.2450 C   0  0  0  0  0  0  0  0  0  0  0  0
  129.3430  122.0490   60.4350 C   0  0  0  0  0  0  0  0  0  0  0  0
  128.0040  122.5750   60.0240 C   0  0  0  0  0  0  0  0  0  0  0  0
  127.5640  122.7840   58.8040 N   0  0  0  0  0  0  0  0  0  0  0  0
  126.3330  123.2490   58.9510 C   0  0  0  0  0  0  0  0  0  0  0  0
  125.4850  123.6000   57.7470 C   0  0  0  0  0  0  0  0  0  0  0  0
  126.1190  123.1380   56.5210 N   0  0  0  0  0  0  0  0  0  0  0  0
  125.2820  122.1570   55.8500 C   0  0  0  0  0  0  0  0  0  0  0  0
  126.0210  123.3240   60.3030 C   0  0  0  0  0  0  0  0  0  0  0  0
  124.8160  123.7520   61.1040 C   0  0  0  0  0  0  0  0  0  0  0  0
  127.1020  122.8890   60.9900 O   0  0  0  0  0  0  0  0  0  0  0  0
  129.4590  120.7790   61.0090 C   0  0  0  0  0  0  0  0  0  0  0  0
  130.7060  120.2910   61.3920 C   0  0  0  0  0  0  0  0  0  0  0  0
  1  2  1  0
  2  3  1  0
  3  4  1  0
  4  5  2  0
  5  6  1  0
  6  7  2  0
  7  8  1  0
  8  9  2  0
  9 10  1  0
 10 11  1  0
 11 12  1  0
 12 13  1  0
 10 14  2  0
 14 15  1  0
 14 16  1  0
  7 17  1  0
 17 18  2  0
 18  4  1  0
 16  8  1  0
M  END
>  <Binding energies>  (50) 
[-5.16]

>  <Ligand effiencies>  (50) 
[-0.2715789473684211]

>  <Interactions>  (50) 
["V-B:TYR:539:CD2:9845, V-B:MET:535:CE:9806, V-B:TYR:539:CE2:9847, V-B:PRO:540:CD:9858, V-B:PRO:540:N:9855, V-A:ILE:369:CG2:3236, V-B:PRO:540:CB:9856, V-B:PRO:540:CA:9854, V-B:LEU:363:CD1:8160, H-B:ALA:541:N:9862, V-A:LEU:475:CD2:4258, V-A:ILE:369:CD1:3238, V-A:GLY:454:CA:4048, V-B:ALA:541:CB:9863, V-B:PRO:540:C:9852, V-B:ALA:541:CA:9861, V-B:ASN:362:CB:8147, V-B:ILE:538:CA:9831, V-B:ILE:538:CD1:9836, V-B:ILE:538:CG2:9834"]

$$$$
RR3_Rahimova_2017
     RDKit          3D

 38 44  0  0  0  0  0  0  0  0999 V2000
  125.5880  122.0770   54.9650 C   0  0  0  0  0  0  0  0  0  0  0  0
  126.8700  122.6030   54.8470 C   0  0  0  0  0  0  0  0  0  0  0  0
  127.4630  123.2280   55.9410 C   0  0  0  0  0  0  0  0  0  0  0  0
  126.7840  123.3340   57.1640 C   0  0  0  0  0  0  0  0  0  0  0  0
  127.4230  124.0050   58.3400 C   0  0  0  0  0  0  0  0  0  0  0  0
  126.6460  124.5110   59.3910 C   0  0  0  0  0  0  0  0  0  0  0  0
  127.2400  125.1390   60.4820 C   0  0  0  0  0  0  0  0  0  0  0  0
  128.6290  125.2810   60.5440 C   0  0  0  0  0  0  0  0  0  0  0  0
  129.2740  125.9580   61.7120 C   0  0  0  0  0  0  0  0  0  0  0  0
  129.1810  125.4250   62.9250 N   0  0  0  0  0  0  0  0  0  0  0  0
  129.8690  126.1990   63.7290 C   0  0  0  0  0  0  0  0  0  0  0  0
  130.0360  125.9850   65.1640 C   0  0  0  0  0  0  0  0  0  0  0  0
  130.8020  124.9920   65.7520 C   0  0  0  0  0  0  0  0  0  0  0  0
  130.7390  125.0920   67.1170 N   0  0  0  0  0  0  0  0  0  0  0  0
  129.9300  126.1490   67.4730 C   0  0  0  0  0  0  0  0  0  0  0  0
  129.5670  126.6370   68.7330 C   0  0  0  0  0  0  0  0  0  0  0  0
  128.7170  127.7420   68.7630 C   0  0  0  0  0  0  0  0  0  0  0  0
  128.2460  128.3370   67.5970 C   0  0  0  0  0  0  0  0  0  0  0  0
  128.6090  127.8520   66.3420 C   0  0  0  0  0  0  0  0  0  0  0  0
  129.4640  126.7380   66.2560 C   0  0  0  0  0  0  0  0  0  0  0  0
  130.4130  127.2520   63.0470 N   0  0  0  0  0  0  0  0  0  0  0  0
  130.0300  127.1430   61.7350 C   0  0  0  0  0  0  0  0  0  0  0  0
  130.3900  128.1570   60.6990 C   0  0  0  0  0  0  0  0  0  0  0  0
  130.3390  129.5180   61.0030 C   0  0  0  0  0  0  0  0  0  0  0  0
  130.6610  130.4650   60.0360 C   0  0  0  0  0  0  0  0  0  0  0  0
  131.0460  130.0750   58.7450 C   0  0  0  0  0  0  0  0  0  0  0  0
  131.3730  131.0970   57.7030 C   0  0  0  0  0  0  0  0  0  0  0  0
  131.3510  130.7660   56.3390 C   0  0  0  0  0  0  0  0  0  0  0  0
  131.6510  131.7190   55.3680 C   0  0  0  0  0  0  0  0  0  0  0  0
  131.9770  133.0160   55.7520 C   0  0  0  0  0  0  0  0  0  0  0  0
  132.0040  133.3660   57.0980 C   0  0  0  0  0  0  0  0  0  0  0  0
  131.7050  132.4110   58.0660 C   0  0  0  0  0  0  0  0  0  0  0  0
  131.1100  128.7040   58.4580 C   0  0  0  0  0  0  0  0  0  0  0  0
  130.7880  127.7540   59.4230 C   0  0  0  0  0  0  0  0  0  0  0  0
  129.4130  124.7680   59.5090 C   0  0  0  0  0  0  0  0  0  0  0  0
  128.8160  124.1410   58.4180 C   0  0  0  0  0  0  0  0  0  0  0  0
  125.4920  122.7970   57.2600 C   0  0  0  0  0  0  0  0  0  0  0  0
  124.8960  122.1710   56.1680 C   0  0  0  0  0  0  0  0  0  0  0  0
  1  2  2  0
  2  3  1  0
  3  4  2  0
  4  5  1  0
  5  6  2  0
  6  7  1  0
  7  8  2  0
  8  9  1  0
  9 10  1  0
 10 11  2  0
 11 12  1  0
 12 13  2  0
 13 14  1  0
 14 15  1  0
 15 16  2  0
 16 17  1  0
 17 18  2  0
 18 19  1  0
 19 20  2  0
 11 21  1  0
 21 22  1  0
 22 23  1  0
 23 24  2  0
 24 25  1  0
 25 26  2  0
 26 27  1  0
 27 28  2  0
 28 29  1  0
 29 30  2  0
 30 31  1  0
 31 32  2  0
 26 33  1  0
 33 34  2  0
  8 35  1  0
 35 36  2  0
  4 37  1  0
 37 38  2  0
 38  1  1  0
 36  5  1  0
 22  9  2  0
 34 23  1  0
 20 12  1  0
 32 27  1  0
 20 15  1  0
M  END
>  <Binding energies>  (51) 
[-10.48]

>  <Ligand effiencies>  (51) 
[-0.262]

>  <Interactions>  (51) 
["V-B:MET:535:CE:9806, V-B:TYR:539:CE2:9847, V-B:PRO:540:CD:9858, V-A:ASP:366:CG:3212, V-B:PRO:540:N:9855, V-B:PRO:540:CB:9856, V-A:ASP:366:CB:3211, V-B:PRO:540:CA:9854, V-B:LEU:363:CD1:8160, V-B:TYR:539:CZ:9848, V-A:PRO:540:N:4884, V-A:GLU:543:CD:4908, H-A:GLU:543:OE1:4909, V-A:GLU:543:CG:4907, V-A:PRO:540:CB:4885, H-A:GLU:543:OE2:4910, V-A:PRO:540:CA:4883, V-A:TYR:539:C:4867, V-B:GLU:543:CD:9879, V-B:HIS:456:CE1:9041, V-A:HIS:456:CE1:4069, V-B:GLU:543:CG:9878, V-A:TYR:484:CE1:4344, H-A:HIS:456:NE2:4070, H-A:TYR:484:OH:4347, V-B:TYR:539:CD1:9844, V-B:TYR:539:CE1:9846, V-A:TYR:531:CE2:4793, V-A:LEU:363:CD1:3188, V-A:TYR:531:CZ:4794, V-A:TYR:484:CZ:4346, V-A:MET:535:CE:4835, V-A:ILE:538:CA:4860, V-A:ILE:538:CB:4862, V-A:PRO:540:CD:4887, V-A:ILE:538:CG2:4863, V-B:PRO:540:CG:9857, V-B:ILE:538:CA:9831, V-B:ILE:538:C:9829, V-B:ILE:538:CD1:9836, V-B:ILE:538:CG2:9834, V-B:ILE:538:CB:9833, V-B:ILE:538:CG1:9835, V-A:PRO:540:CG:4886"]

$$$$
RR4_Rahimova_2017
     RDKit          3D

 40 44  0  0  0  0  0  0  0  0999 V2000
  130.0460  125.5340   74.2860 C   0  0  0  0  0  0  0  0  0  0  0  0
  128.8720  126.1370   73.7520 O   0  0  0  0  0  0  0  0  0  0  0  0
  128.7810  126.3440   72.3890 C   0  0  0  0  0  0  0  0  0  0  0  0
  129.4480  127.4550   71.8790 C   0  0  0  0  0  0  0  0  0  0  0  0
  129.4120  127.7410   70.5180 C   0  0  0  0  0  0  0  0  0  0  0  0
  128.7040  126.9240   69.6240 C   0  0  0  0  0  0  0  0  0  0  0  0
  128.6670  127.2360   68.1560 C   0  0  0  0  0  0  0  0  0  0  0  0
  127.8670  128.2480   67.6160 C   0  0  0  0  0  0  0  0  0  0  0  0
  127.8710  128.5040   66.2390 C   0  0  0  0  0  0  0  0  0  0  0  0
  127.0130  129.6200   65.7390 C   0  0  0  0  0  0  0  0  0  0  0  0
  125.6590  129.3970   65.4680 C   0  0  0  0  0  0  0  0  0  0  0  0
  124.8490  130.4350   65.0130 C   0  0  0  0  0  0  0  0  0  0  0  0
  125.3740  131.7140   64.8270 C   0  0  0  0  0  0  0  0  0  0  0  0
  124.4960  132.6800   64.3740 O   0  0  0  0  0  0  0  0  0  0  0  0
  124.0340  132.6220   63.0280 C   0  0  0  0  0  0  0  0  0  0  0  0
  126.7300  131.9430   65.1030 C   0  0  0  0  0  0  0  0  0  0  0  0
  127.5380  130.9040   65.5580 C   0  0  0  0  0  0  0  0  0  0  0  0
  128.6800  127.6940   65.4040 C   0  0  0  0  0  0  0  0  0  0  0  0
  128.7220  127.9190   63.9560 C   0  0  0  0  0  0  0  0  0  0  0  0
  128.7540  128.0970   62.8130 N   0  0  0  0  0  0  0  0  0  0  0  0
  129.4400  126.6690   66.0130 C   0  0  0  0  0  0  0  0  0  0  0  0
  130.5000  125.5520   65.1200 S   0  0  0  0  0  0  0  0  0  0  0  0
  129.4910  124.1250   64.5990 C   0  0  0  0  0  0  0  0  0  0  0  0
  129.2040  124.0640   63.0920 C   0  0  0  0  0  0  0  0  0  0  0  0
  130.1290  124.0810   62.2770 O   0  0  0  0  0  0  0  0  0  0  0  0
  127.8910  124.0080   62.7680 N   0  0  0  0  0  0  0  0  0  0  0  0
  127.3130  123.9420   61.4980 C   0  0  0  0  0  0  0  0  0  0  0  0
  125.9570  124.9290   61.0210 S   0  0  0  0  0  0  0  0  0  0  0  0
  125.9270  124.2210   59.4360 C   0  0  0  0  0  0  0  0  0  0  0  0
  126.9300  123.2510   59.2850 C   0  0  0  0  0  0  0  0  0  0  0  0
  127.7240  123.1060   60.4490 C   0  0  0  0  0  0  0  0  0  0  0  0
  128.8460  122.1780   60.5460 C   0  0  0  0  0  0  0  0  0  0  0  0
  129.7350  121.4410   60.6230 N   0  0  0  0  0  0  0  0  0  0  0  0
  127.1350  122.5080   57.9590 C   0  0  0  0  0  0  0  0  0  0  0  0
  126.4100  123.2390   56.8070 C   0  0  0  0  0  0  0  0  0  0  0  0
  124.9790  123.6520   57.1910 C   0  0  0  0  0  0  0  0  0  0  0  0
  124.9620  124.6740   58.3480 C   0  0  0  0  0  0  0  0  0  0  0  0
  129.4430  126.4650   67.3510 N   0  0  0  0  0  0  0  0  0  0  0  0
  128.0390  125.8030   70.1470 C   0  0  0  0  0  0  0  0  0  0  0  0
  128.0720  125.5150   71.5090 C   0  0  0  0  0  0  0  0  0  0  0  0
  1  2  1  0
  2  3  1  0
  3  4  2  0
  4  5  1  0
  5  6  2  0
  6  7  1  0
  7  8  2  0
  8  9  1  0
  9 10  1  0
 10 11  2  0
 11 12  1  0
 12 13  2  0
 13 14  1  0
 14 15  1  0
 13 16  1  0
 16 17  2  0
  9 18  2  0
 18 19  1  0
 19 20  3  0
 18 21  1  0
 21 22  1  0
 22 23  1  0
 23 24  1  0
 24 25  2  0
 24 26  1  0
 26 27  1  0
 27 28  1  0
 28 29  1  0
 29 30  2  0
 30 31  1  0
 31 32  1  0
 32 33  3  0
 30 34  1  0
 34 35  1  0
 35 36  1  0
 36 37  1  0
 21 38  2  0
  6 39  1  0
 39 40  2  0
 40  3  1  0
 38  7  1  0
 17 10  1  0
 31 27  2  0
 37 29  1  0
M  END
>  <Binding energies>  (52) 
[-11.14]

>  <Ligand effiencies>  (52) 
[-0.27170731707317075]

>  <Interactions>  (52) 
["V-B:TYR:539:CD2:9845, V-B:TYR:539:CE2:9847, V-B:TYR:539:C:9838, V-B:PRO:540:N:9855, V-B:PRO:540:CB:9856, V-B:PRO:540:CA:9854, V-B:LEU:363:CD1:8160, H-B:GLU:543:OE2:9881, V-A:GLU:543:CD:4908, V-B:LEU:475:CD1:9229, V-A:GLU:543:CG:4907, V-B:ILE:369:CD1:8210, V-A:HIS:456:CD2:4067, V-B:GLU:543:C:9873, H-B:GLY:454:N:9021, V-B:GLU:543:CD:9879, V-B:HIS:456:CE1:9041, V-B:GLY:454:CA:9020, V-A:HIS:456:CE1:4069, H-B:LYS:547:NZ:9922, V-B:HIS:456:CD2:9039, V-B:GLU:543:CG:9878, V-B:GLU:543:CB:9877, V-B:ALA:541:CB:9863, V-B:ARG:545:CZ:9897, V-B:GLY:544:C:9883"]

$$$$
RR6_Rahimova_2017
     RDKit          3D

 38 41  0  0  0  0  0  0  0  0999 V2000
  125.9850  130.7350   56.6120 C   0  0  0  0  0  0  0  0  0  0  0  0
  124.8410  130.4030   57.3860 O   0  0  0  0  0  0  0  0  0  0  0  0
  124.4020  131.2270   58.3720 C   0  0  0  0  0  0  0  0  0  0  0  0
  123.7380  132.2470   58.1600 O   0  0  0  0  0  0  0  0  0  0  0  0
  124.8030  130.7750   59.7470 C   0  0  0  0  0  0  0  0  0  0  0  0
  125.8890  129.9140   59.9590 C   0  0  0  0  0  0  0  0  0  0  0  0
  126.2310  129.5060   61.2470 C   0  0  0  0  0  0  0  0  0  0  0  0
  125.4850  129.9530   62.3470 C   0  0  0  0  0  0  0  0  0  0  0  0
  125.7250  129.5810   63.6830 N   0  0  0  0  0  0  0  0  0  0  0  0
  124.9130  129.6820   64.7590 C   0  0  0  0  0  0  0  0  0  0  0  0
  123.7650  130.1270   64.7480 O   0  0  0  0  0  0  0  0  0  0  0  0
  125.5290  129.2520   66.0950 C   0  0  0  0  0  0  0  0  0  0  0  0
  127.1860  129.9510   66.3970 S   0  0  0  0  0  0  0  0  0  0  0  0
  128.2450  128.5890   66.8380 C   0  0  0  0  0  0  0  0  0  0  0  0
  128.4480  128.4490   68.1700 N   0  0  0  0  0  0  0  0  0  0  0  0
  129.2140  127.4290   68.6310 C   0  0  0  0  0  0  0  0  0  0  0  0
  129.3390  127.3080   70.1220 C   0  0  0  0  0  0  0  0  0  0  0  0
  130.1390  128.1980   70.8540 C   0  0  0  0  0  0  0  0  0  0  0  0
  130.2650  128.0780   72.2360 C   0  0  0  0  0  0  0  0  0  0  0  0
  129.5860  127.0650   72.9130 C   0  0  0  0  0  0  0  0  0  0  0  0
  129.7340  126.9320   74.4170 C   0  0  0  0  0  0  0  0  0  0  0  0
  128.7850  126.1730   72.2040 C   0  0  0  0  0  0  0  0  0  0  0  0
  128.6620  126.2980   70.8240 C   0  0  0  0  0  0  0  0  0  0  0  0
  129.8100  126.5250   67.7450 C   0  0  0  0  0  0  0  0  0  0  0  0
  129.6190  126.6520   66.3620 C   0  0  0  0  0  0  0  0  0  0  0  0
  130.2680  125.6420   65.4740 C   0  0  0  0  0  0  0  0  0  0  0  0
  131.4150  125.9780   64.7490 C   0  0  0  0  0  0  0  0  0  0  0  0
  132.0370  125.0380   63.9310 C   0  0  0  0  0  0  0  0  0  0  0  0
  131.5290  123.7440   63.8270 C   0  0  0  0  0  0  0  0  0  0  0  0
  132.2110  122.8780   62.9950 O   0  0  0  0  0  0  0  0  0  0  0  0
  133.4380  123.3010   62.4090 C   0  0  0  0  0  0  0  0  0  0  0  0
  130.3810  123.3990   64.5580 C   0  0  0  0  0  0  0  0  0  0  0  0
  129.7620  124.3420   65.3740 C   0  0  0  0  0  0  0  0  0  0  0  0
  128.8170  127.7190   65.8880 C   0  0  0  0  0  0  0  0  0  0  0  0
  128.5990  127.9260   64.4520 C   0  0  0  0  0  0  0  0  0  0  0  0
  128.4270  128.0890   63.3200 N   0  0  0  0  0  0  0  0  0  0  0  0
  124.4140  130.8230   62.1420 C   0  0  0  0  0  0  0  0  0  0  0  0
  124.0720  131.2270   60.8540 C   0  0  0  0  0  0  0  0  0  0  0  0
  1  2  1  0
  2  3  1  0
  3  4  2  0
  3  5  1  0
  5  6  2  0
  6  7  1  0
  7  8  2  0
  8  9  1  0
  9 10  1  0
 10 11  2  0
 10 12  1  0
 12 13  1  0
 13 14  1  0
 14 15  2  0
 15 16  1  0
 16 17  1  0
 17 18  2  0
 18 19  1  0
 19 20  2  0
 20 21  1  0
 20 22  1  0
 22 23  2  0
 16 24  2  0
 24 25  1  0
 25 26  1  0
 26 27  2  0
 27 28  1  0
 28 29  2  0
 29 30  1  0
 30 31  1  0
 29 32  1  0
 32 33  2  0
 25 34  2  0
 34 35  1  0
 35 36  3  0
  8 37  1  0
 37 38  2  0
 38  5  1  0
 34 14  1  0
 23 17  1  0
 33 26  1  0
M  END
>  <Binding energies>  (53) 
[-9.44]

>  <Ligand effiencies>  (53) 
[-0.24205128205128204]

>  <Interactions>  (53) 
["V-B:ASP:366:CG:8184, H-B:TYR:531:OH:9766, V-B:ASP:366:CB:8183, H-B:GLU:543:OE2:9881, V-A:GLU:543:CD:4908, V-A:GLU:543:CG:4907, V-B:ILE:369:CD1:8210, H-B:GLY:454:N:9021, V-B:GLU:543:CD:9879, V-B:HIS:456:CE1:9041, H-B:ARG:545:NH1:9898, H-B:ARG:545:NH2:9899, H-B:ARG:545:NE:9895, V-A:HIS:456:CE1:4069, V-B:GLU:543:CG:9878, V-B:GLU:543:CB:9877, V-A:TYR:539:CE2:4876, V-A:TYR:539:CZ:4877, V-B:ASP:366:CA:8181, V-A:ILE:369:CD1:3238, V-B:ARG:545:CZ:9897, H-A:TYR:539:OH:4878, H-B:TYR:484:OH:9319"]

$$$$
RR7_Rahimova_2017
     RDKit          3D

 47 53  0  0  0  0  0  0  0  0999 V2000
  124.3750  129.5730   67.2600 C   0  0  0  0  0  0  0  0  0  0  0  0
  123.5630  129.8380   66.1190 O   0  0  0  0  0  0  0  0  0  0  0  0
  124.1530  130.3370   64.9750 C   0  0  0  0  0  0  0  0  0  0  0  0
  125.1150  131.3300   65.1520 C   0  0  0  0  0  0  0  0  0  0  0  0
  125.7670  131.8900   64.0580 C   0  0  0  0  0  0  0  0  0  0  0  0
  125.4630  131.4750   62.7530 C   0  0  0  0  0  0  0  0  0  0  0  0
  126.2020  132.0610   61.5100 C   0  0  0  0  0  0  0  0  0  0  0  0
  127.4870  131.4010   61.4510 O   0  0  0  0  0  0  0  0  0  0  0  0
  128.2340  131.1780   62.6520 C   0  0  0  0  0  0  0  0  0  0  0  0
  128.4530  129.6670   62.8320 C   0  0  1  0  0  0  0  0  0  0  0  0
  128.9640  129.4790   64.1490 O   0  0  0  0  0  0  0  0  0  0  0  0
  128.1440  128.6440   64.9140 C   0  0  1  0  0  0  0  0  0  0  0  0
  128.1790  129.0480   66.3070 N   0  0  0  0  0  0  0  0  0  0  0  0
  127.6380  130.1860   66.8780 C   0  0  0  0  0  0  0  0  0  0  0  0
  127.8570  130.3290   68.1620 N   0  0  0  0  0  0  0  0  0  0  0  0
  128.6340  129.2490   68.4820 C   0  0  0  0  0  0  0  0  0  0  0  0
  129.2150  128.8320   69.6950 C   0  0  0  0  0  0  0  0  0  0  0  0
  128.9970  129.6070   70.8500 N   0  0  0  0  0  0  0  0  0  0  0  0
  129.6370  129.5590   72.0420 C   0  0  0  0  0  0  0  0  0  0  0  0
  130.5470  128.7710   72.3110 O   0  0  0  0  0  0  0  0  0  0  0  0
  129.1460  130.5370   73.0890 C   0  0  0  0  0  0  0  0  0  0  0  0
  129.5450  130.3810   74.4250 C   0  0  0  0  0  0  0  0  0  0  0  0
  129.1100  131.2710   75.4030 C   0  0  0  0  0  0  0  0  0  0  0  0
  128.2760  132.3280   75.0520 C   0  0  0  0  0  0  0  0  0  0  0  0
  127.8730  132.5030   73.7310 C   0  0  0  0  0  0  0  0  0  0  0  0
  128.3070  131.6120   72.7520 C   0  0  0  0  0  0  0  0  0  0  0  0
  129.9740  127.6950   69.7170 N   0  0  0  0  0  0  0  0  0  0  0  0
  130.1320  127.0160   68.5500 C   0  0  0  0  0  0  0  0  0  0  0  0
  129.6160  127.3250   67.3300 N   0  0  0  0  0  0  0  0  0  0  0  0
  128.8730  128.4390   67.3420 C   0  0  0  0  0  0  0  0  0  0  0  0
  126.7710  128.7190   64.2570 C   0  0  0  0  0  0  0  0  0  0  0  0
  127.1750  128.8170   62.7960 C   0  0  2  0  0  0  0  0  0  0  0  0
  127.3900  127.5420   62.2170 O   0  0  0  0  0  0  0  0  0  0  0  0
  125.4680  131.7410   60.1810 C   0  0  0  0  0  0  0  0  0  0  0  0
  124.1350  132.1430   59.9940 C   0  0  0  0  0  0  0  0  0  0  0  0
  123.4620  131.8500   58.8120 C   0  0  0  0  0  0  0  0  0  0  0  0
  124.1160  131.1490   57.8030 C   0  0  0  0  0  0  0  0  0  0  0  0
  125.4360  130.7400   57.9670 C   0  0  0  0  0  0  0  0  0  0  0  0
  126.1080  131.0340   59.1500 C   0  0  0  0  0  0  0  0  0  0  0  0
  126.4110  133.6020   61.5110 C   0  0  0  0  0  0  0  0  0  0  0  0
  125.3080  134.4690   61.5740 C   0  0  0  0  0  0  0  0  0  0  0  0
  125.4840  135.8490   61.5660 C   0  0  0  0  0  0  0  0  0  0  0  0
  126.7690  136.3790   61.4850 C   0  0  0  0  0  0  0  0  0  0  0  0
  127.8750  135.5390   61.4090 C   0  0  0  0  0  0  0  0  0  0  0  0
  127.6970  134.1590   61.4170 C   0  0  0  0  0  0  0  0  0  0  0  0
  124.5050  130.4650   62.5810 C   0  0  0  0  0  0  0  0  0  0  0  0
  123.8530  129.9040   63.6750 C   0  0  0  0  0  0  0  0  0  0  0  0
  1  2  1  0
  2  3  1  0
  3  4  2  0
  4  5  1  0
  5  6  2  0
  6  7  1  0
  7  8  1  0
  8  9  1  0
 10  9  1  1
 10 11  1  0
 11 12  1  0
 12 13  1  1
 13 14  1  0
 14 15  2  0
 15 16  1  0
 16 17  2  0
 17 18  1  0
 18 19  1  0
 19 20  2  0
 19 21  1  0
 21 22  2  0
 22 23  1  0
 23 24  2  0
 24 25  1  0
 25 26  2  0
 17 27  1  0
 27 28  2  0
 28 29  1  0
 29 30  2  0
 12 31  1  0
 31 32  1  0
 32 33  1  1
  7 34  1  0
 34 35  2  0
 35 36  1  0
 36 37  2  0
 37 38  1  0
 38 39  2  0
  7 40  1  0
 40 41  2  0
 41 42  1  0
 42 43  2  0
 43 44  1  0
 44 45  2  0
  6 46  1  0
 46 47  2  0
 47  3  1  0
 32 10  1  0
 39 34  1  0
 45 40  1  0
 30 13  1  0
 30 16  1  0
 26 21  1  0
M  END
>  <Binding energies>  (54) 
[-9.9]

>  <Ligand effiencies>  (54) 
[-0.20204081632653062]

>  <Interactions>  (54) 
["V-B:ASP:366:CG:8184, V-B:ASP:366:CB:8183, H-B:GLU:543:OE2:9881, V-A:GLU:543:CD:4908, V-B:LEU:475:CD1:9229, V-B:TRP:381:CH2:8343, V-A:GLU:543:CG:4907, V-A:TYR:539:CD2:4874, V-A:ALA:541:CB:4892, V-B:TRP:381:CZ2:8341, V-A:TYR:539:C:4867, H-A:LYS:547:NZ:4951, V-B:GLY:453:C:9013, H-B:GLY:454:N:9021, V-B:GLU:543:CD:9879, V-B:HIS:456:CE1:9041, V-B:GLY:454:CA:9020, H-B:ARG:545:NH2:9899, H-B:ARG:545:NE:9895, V-A:GLU:543:CB:4906, V-A:HIS:456:CE1:4069, V-B:HIS:456:CG:9037, V-B:TYR:484:CD1:9314, V-B:TYR:484:CG:9313, V-B:TYR:484:CB:9312, V-B:TYR:484:CE1:9316, V-B:ILE:369:CG2:8208, V-A:TYR:539:CE2:4876, V-A:TYR:539:CZ:4877, V-B:ASP:366:CA:8181, V-B:ASP:366:C:8179, V-B:ARG:545:CZ:9897, V-B:TYR:484:CZ:9318, H-B:TYR:484:OH:9319, V-B:ARG:545:CG:9893, V-B:ILE:369:CB:8207, V-A:LYS:547:CE:4950, H-B:HIS:456:NE2:9042, V-B:ARG:545:CD:9894, H-B:HIS:456:ND1:9038, V-B:TRP:381:CZ3:8342, V-B:GLY:453:CA:9015, H-A:GLU:543:O:4903"]

$$$$
RR8_A_Rahimova_2017
     RDKit          3D

 42 46  0  0  0  0  0  0  0  0999 V2000
  126.8590  128.7560   63.3950 O   0  0  0  0  0  0  0  0  0  0  0  0
  127.3280  128.9560   62.2690 C   0  0  0  0  0  0  0  0  0  0  0  0
  128.5980  128.6110   61.8890 O   0  0  0  0  0  0  0  0  0  0  0  0
  129.6080  129.5660   62.0610 C   0  0  1  0  0  0  0  0  0  0  0  0
  130.1940  129.9220   60.8430 O   0  0  0  0  0  0  0  0  0  0  0  0
  130.5010  131.3130   60.7900 C   0  0  2  0  0  0  0  0  0  0  0  0
  131.9980  131.4730   60.4720 C   0  0  0  0  0  0  0  0  0  0  0  0
  132.2310  131.0430   59.1380 O   0  0  0  0  0  0  0  0  0  0  0  0
  132.5590  132.0960   58.2400 C   0  0  0  0  0  0  0  0  0  0  0  0
  131.3400  132.4610   57.4060 C   0  0  0  0  0  0  0  0  0  0  0  0
  131.4670  132.6330   56.0250 C   0  0  0  0  0  0  0  0  0  0  0  0
  130.3510  132.9610   55.2590 C   0  0  0  0  0  0  0  0  0  0  0  0
  129.1100  133.1130   55.8750 C   0  0  0  0  0  0  0  0  0  0  0  0
  128.9740  132.9370   57.2500 C   0  0  0  0  0  0  0  0  0  0  0  0
  130.0890  132.6070   58.0160 C   0  0  0  0  0  0  0  0  0  0  0  0
  130.0580  131.8370   62.1620 C   0  0  1  0  0  0  0  0  0  0  0  0
  129.4520  133.1260   62.1010 O   0  0  0  0  0  0  0  0  0  0  0  0
  128.5890  133.3500   60.9920 C   0  0  0  0  0  0  0  0  0  0  0  0
  127.4530  134.2780   61.3970 C   0  0  0  0  0  0  0  0  0  0  0  0
  126.1380  133.8020   61.4050 C   0  0  0  0  0  0  0  0  0  0  0  0
  125.0930  134.6480   61.7650 C   0  0  0  0  0  0  0  0  0  0  0  0
  125.3630  135.9700   62.1140 C   0  0  0  0  0  0  0  0  0  0  0  0
  126.6690  136.4550   62.1020 C   0  0  0  0  0  0  0  0  0  0  0  0
  127.7150  135.6090   61.7400 C   0  0  0  0  0  0  0  0  0  0  0  0
  128.9830  130.8520   62.5830 C   0  0  2  0  0  0  0  0  0  0  0  0
  128.8090  130.8720   63.9970 O   0  0  0  0  0  0  0  0  0  0  0  0
  127.7660  131.7130   64.4780 C   0  0  0  0  0  0  0  0  0  0  0  0
  126.7780  130.8970   65.2970 C   0  0  0  0  0  0  0  0  0  0  0  0
  127.2380  130.0160   66.2810 C   0  0  0  0  0  0  0  0  0  0  0  0
  126.3280  129.2780   67.0350 C   0  0  0  0  0  0  0  0  0  0  0  0
  124.9620  129.4250   66.8050 C   0  0  0  0  0  0  0  0  0  0  0  0
  124.4960  130.3040   65.8310 C   0  0  0  0  0  0  0  0  0  0  0  0
  125.4050  131.0430   65.0760 C   0  0  0  0  0  0  0  0  0  0  0  0
  126.5470  129.6000   61.1610 C   0  0  0  0  0  0  0  0  0  0  0  0
  126.9450  129.5010   59.8180 C   0  0  0  0  0  0  0  0  0  0  0  0
  126.1990  130.1110   58.8130 C   0  0  0  0  0  0  0  0  0  0  0  0
  125.0410  130.8360   59.1220 C   0  0  0  0  0  0  0  0  0  0  0  0
  124.2470  131.4840   58.0500 N   0  0  0  0  0  0  0  0  0  0  0  0
  123.7220  132.5690   58.2810 O   0  0  0  0  0  0  0  0  0  0  0  0
  124.1440  130.9130   56.9680 O   0  0  0  0  0  0  0  0  0  0  0  0
  124.6470  130.9360   60.4620 C   0  0  0  0  0  0  0  0  0  0  0  0
  125.3900  130.3270   61.4690 C   0  0  0  0  0  0  0  0  0  0  0  0
  1  2  2  0
  2  3  1  0
  4  3  1  6
  4  5  1  0
  5  6  1  0
  6  7  1  1
  7  8  1  0
  8  9  1  0
  9 10  1  0
 10 11  2  0
 11 12  1  0
 12 13  2  0
 13 14  1  0
 14 15  2  0
  6 16  1  0
 16 17  1  6
 17 18  1  0
 18 19  1  0
 19 20  2  0
 20 21  1  0
 21 22  2  0
 22 23  1  0
 23 24  2  0
 16 25  1  0
 25 26  1  1
 26 27  1  0
 27 28  1  0
 28 29  2  0
 29 30  1  0
 30 31  2  0
 31 32  1  0
 32 33  2  0
  2 34  1  0
 34 35  2  0
 35 36  1  0
 36 37  2  0
 37 38  1  0
 38 39  2  0
 38 40  1  0
 37 41  1  0
 41 42  2  0
 25  4  1  0
 33 28  1  0
 42 34  1  0
 15 10  1  0
 24 19  1  0
M  CHG  2  38   1  40  -1
M  END
>  <Binding energies>  (55) 
[-10.41]

>  <Ligand effiencies>  (55) 
[-0.24785714285714286]

>  <Interactions>  (55) 
["V-B:ASP:366:CG:8184, H-B:TYR:531:OH:9766, V-B:ASP:366:CB:8183, V-A:PRO:540:N:4884, V-B:PRO:482:CB:9297, V-B:LEU:475:CD1:9229, V-B:TRP:381:CH2:8343, V-A:GLU:543:CG:4907, V-A:PRO:540:CB:4885, V-A:TYR:539:CD2:4874, V-A:ALA:541:CB:4892, V-B:PRO:482:CG:9298, V-B:TRP:381:CZ2:8341, H-A:ALA:541:N:4891, V-A:PRO:540:CA:4883, V-A:TYR:539:C:4867, V-B:HIS:456:CE1:9041, V-B:GLY:454:CA:9020, H-B:ARG:545:NH2:9899, V-A:TYR:539:CE2:4876, V-A:TYR:539:CZ:4877, V-B:ARG:545:CZ:9897, V-A:LEU:363:CD1:3188, V-A:MET:535:CE:4835, H-A:TYR:539:OH:4878, V-B:ARG:545:CG:9893, V-A:TYR:539:CG:4872, V-A:ILE:538:CA:4860, V-A:TYR:539:CD1:4873, V-A:ILE:538:CB:4862, V-A:TYR:539:CE1:4875, V-A:ILE:538:C:4858, V-A:ILE:538:CG2:4863, V-B:ARG:545:CD:9894, H-B:ASN:370:N:8215"]

$$$$
RR8_B_Rahimova_2017
     RDKit          3D

 42 46  0  0  0  0  0  0  0  0999 V2000
  123.9420  131.7820   57.6480 O   0  0  0  0  0  0  0  0  0  0  0  0
  124.5710  130.9450   58.3050 C   0  0  0  0  0  0  0  0  0  0  0  0
  125.3590  129.9690   57.7600 O   0  0  0  0  0  0  0  0  0  0  0  0
  126.2050  130.3170   56.6920 C   0  0  2  0  0  0  0  0  0  0  0  0
  126.4140  129.2420   55.8200 O   0  0  0  0  0  0  0  0  0  0  0  0
  127.5690  128.4900   56.1890 C   0  0  2  0  0  0  0  0  0  0  0  0
  127.1670  127.0270   56.4500 C   0  0  0  0  0  0  0  0  0  0  0  0
  128.1820  126.1660   55.9490 O   0  0  0  0  0  0  0  0  0  0  0  0
  128.3940  124.9850   56.7080 C   0  0  0  0  0  0  0  0  0  0  0  0
  127.3130  123.9710   56.3680 C   0  0  0  0  0  0  0  0  0  0  0  0
  127.3890  123.2490   55.1740 C   0  0  0  0  0  0  0  0  0  0  0  0
  126.3900  122.3360   54.8450 C   0  0  0  0  0  0  0  0  0  0  0  0
  125.3180  122.1470   55.7140 C   0  0  0  0  0  0  0  0  0  0  0  0
  125.2380  122.8580   56.9090 C   0  0  0  0  0  0  0  0  0  0  0  0
  126.2350  123.7730   57.2370 C   0  0  0  0  0  0  0  0  0  0  0  0
  128.1430  129.2410   57.3950 C   0  0  1  0  0  0  0  0  0  0  0  0
  129.5720  129.1810   57.3700 O   0  0  0  0  0  0  0  0  0  0  0  0
  130.2320  128.8830   58.6030 C   0  0  0  0  0  0  0  0  0  0  0  0
  131.3780  129.8480   58.8930 C   0  0  0  0  0  0  0  0  0  0  0  0
  131.3490  130.6460   60.0410 C   0  0  0  0  0  0  0  0  0  0  0  0
  132.4110  131.5020   60.3190 C   0  0  0  0  0  0  0  0  0  0  0  0
  133.4960  131.5610   59.4470 C   0  0  0  0  0  0  0  0  0  0  0  0
  133.5290  130.7720   58.2990 C   0  0  0  0  0  0  0  0  0  0  0  0
  132.4690  129.9130   58.0220 C   0  0  0  0  0  0  0  0  0  0  0  0
  127.5940  130.6540   57.2300 C   0  0  2  0  0  0  0  0  0  0  0  0
  127.5760  131.3300   58.4850 O   0  0  0  0  0  0  0  0  0  0  0  0
  128.1040  132.6470   58.4800 C   0  0  0  0  0  0  0  0  0  0  0  0
  129.1480  132.7370   57.3810 C   0  0  0  0  0  0  0  0  0  0  0  0
  130.5070  132.6230   57.6880 C   0  0  0  0  0  0  0  0  0  0  0  0
  131.4570  132.7260   56.6740 C   0  0  0  0  0  0  0  0  0  0  0  0
  131.0460  132.9440   55.3610 C   0  0  0  0  0  0  0  0  0  0  0  0
  129.6920  133.0580   55.0490 C   0  0  0  0  0  0  0  0  0  0  0  0
  128.7430  132.9540   56.0610 C   0  0  0  0  0  0  0  0  0  0  0  0
  124.5200  130.8700   59.8030 C   0  0  0  0  0  0  0  0  0  0  0  0
  125.4920  130.1800   60.5430 C   0  0  0  0  0  0  0  0  0  0  0  0
  125.4140  130.1210   61.9300 C   0  0  0  0  0  0  0  0  0  0  0  0
  124.3590  130.7380   62.6130 C   0  0  0  0  0  0  0  0  0  0  0  0
  124.2640  130.6500   64.0910 N   0  0  0  0  0  0  0  0  0  0  0  0
  123.7420  129.6560   64.5890 O   0  0  0  0  0  0  0  0  0  0  0  0
  124.7150  131.5730   64.7650 O   0  0  0  0  0  0  0  0  0  0  0  0
  123.3920  131.4320   61.8740 C   0  0  0  0  0  0  0  0  0  0  0  0
  123.4720  131.4990   60.4870 C   0  0  0  0  0  0  0  0  0  0  0  0
  1  2  2  0
  2  3  1  0
  4  3  1  1
  4  5  1  0
  5  6  1  0
  6  7  1  1
  7  8  1  0
  8  9  1  0
  9 10  1  0
 10 11  2  0
 11 12  1  0
 12 13  2  0
 13 14  1  0
 14 15  2  0
  6 16  1  0
 16 17  1  6
 17 18  1  0
 18 19  1  0
 19 20  2  0
 20 21  1  0
 21 22  2  0
 22 23  1  0
 23 24  2  0
 16 25  1  0
 25 26  1  1
 26 27  1  0
 27 28  1  0
 28 29  2  0
 29 30  1  0
 30 31  2  0
 31 32  1  0
 32 33  2  0
  2 34  1  0
 34 35  2  0
 35 36  1  0
 36 37  2  0
 37 38  1  0
 38 39  2  0
 38 40  1  0
 37 41  1  0
 41 42  2  0
 25  4  1  0
 33 28  1  0
 42 34  1  0
 15 10  1  0
 24 19  1  0
M  CHG  2  38   1  40  -1
M  END
>  <Binding energies>  (56) 
[-11.61]

>  <Ligand effiencies>  (56) 
[-0.2764285714285714]

>  <Interactions>  (56) 
["V-B:MET:535:CE:9806, V-B:ASP:366:CG:8184, V-B:PRO:540:CD:9858, V-A:ASP:366:CG:3212, V-B:PRO:540:N:9855, V-B:PRO:540:CB:9856, H-B:TYR:531:OH:9766, V-A:ASP:366:CB:3211, V-B:PRO:540:CA:9854, V-B:LEU:363:CD1:8160, V-B:TYR:539:CZ:9848, V-B:TYR:531:CZ:9765, V-B:ASP:366:CB:8183, V-A:PRO:540:N:4884, V-A:PRO:540:CB:4885, V-A:TYR:539:CD2:4874, V-A:PRO:540:CA:4883, V-A:TYR:539:C:4867, V-B:ILE:369:CD1:8210, H-B:GLY:454:N:9021, V-B:GLY:454:CA:9020, H-B:ARG:545:NH1:9898, H-B:ARG:545:NH2:9899, H-B:ARG:545:NE:9895, V-B:ILE:369:CG2:8208, V-A:TYR:539:CE2:4876, V-A:TYR:539:CZ:4877, V-B:ASP:366:CA:8181, V-B:TYR:539:CD1:9844, V-B:TYR:539:CE1:9846, H-A:TYR:531:OH:4795, V-B:ARG:545:CZ:9897, V-A:TYR:531:CE2:4793, V-A:LEU:363:CD1:3188, V-A:TYR:531:CZ:4794, V-A:LEU:363:CA:3184, V-A:MET:535:CE:4835, H-A:TYR:539:OH:4878, H-B:TYR:484:OH:9319, V-B:ILE:369:CB:8207, V-A:TYR:539:CG:4872, V-A:ILE:538:CA:4860, V-A:TYR:539:CD1:4873, V-A:ILE:538:CB:4862, V-A:TYR:539:CE1:4875, V-A:ILE:538:C:4858, V-A:ILE:538:CG2:4863, V-B:ILE:538:CA:9831, V-B:ILE:538:CD1:9836, V-B:ILE:538:CG2:9834"]

$$$$
RR9_Rahimova_2017
     RDKit          3D

 36 40  0  0  0  0  0  0  0  0999 V2000
  132.5910  127.3870   72.5610 C   0  0  0  0  0  0  0  0  0  0  0  0
  131.7230  128.2210   71.6120 C   0  0  0  0  0  0  0  0  0  0  0  0
  130.4830  127.5470   71.4160 O   0  0  0  0  0  0  0  0  0  0  0  0
  129.7480  127.7990   70.2740 C   0  0  0  0  0  0  0  0  0  0  0  0
  129.3750  129.1230   70.0510 C   0  0  0  0  0  0  0  0  0  0  0  0
  128.6310  129.4710   68.9280 C   0  0  0  0  0  0  0  0  0  0  0  0
  128.2380  128.5010   67.9930 C   0  0  0  0  0  0  0  0  0  0  0  0
  127.4320  128.8700   66.7830 C   0  0  0  0  0  0  0  0  0  0  0  0
  127.9590  128.7590   65.4870 C   0  0  0  0  0  0  0  0  0  0  0  0
  127.1940  129.0930   64.3540 C   0  0  0  0  0  0  0  0  0  0  0  0
  127.7790  128.8560   62.9890 C   0  0  0  0  0  0  0  0  0  0  0  0
  128.5210  129.6930   62.4750 O   0  0  0  0  0  0  0  0  0  0  0  0
  127.4160  127.7060   62.3880 N   0  0  0  0  0  0  0  0  0  0  0  0
  127.7460  127.3120   61.0140 C   0  0  0  0  0  0  0  0  0  0  0  0
  127.8000  125.7790   60.8200 C   0  0  0  0  0  0  0  0  0  0  0  0
  126.4480  125.1210   60.5670 C   0  0  0  0  0  0  0  0  0  0  0  0
  125.7600  124.5060   61.6180 C   0  0  0  0  0  0  0  0  0  0  0  0
  124.5100  123.9370   61.3910 C   0  0  0  0  0  0  0  0  0  0  0  0
  123.9540  123.9790   60.1150 C   0  0  0  0  0  0  0  0  0  0  0  0
  124.6360  124.5860   59.0620 C   0  0  0  0  0  0  0  0  0  0  0  0
  125.8860  125.1570   59.2880 C   0  0  0  0  0  0  0  0  0  0  0  0
  125.8860  129.5770   64.6010 C   0  0  0  0  0  0  0  0  0  0  0  0
  124.7520  130.0720   63.8570 C   0  0  0  0  0  0  0  0  0  0  0  0
  124.6170  130.3280   62.3930 C   0  0  0  0  0  0  0  0  0  0  0  0
  125.5170  129.7510   61.4910 C   0  0  0  0  0  0  0  0  0  0  0  0
  125.3990  130.0040   60.1270 C   0  0  0  0  0  0  0  0  0  0  0  0
  124.3780  130.8330   59.6580 C   0  0  0  0  0  0  0  0  0  0  0  0
  124.2610  131.1240   58.1730 C   0  0  0  0  0  0  0  0  0  0  0  0
  123.4800  131.4130   60.5550 C   0  0  0  0  0  0  0  0  0  0  0  0
  123.5970  131.1570   61.9180 C   0  0  0  0  0  0  0  0  0  0  0  0
  123.7470  130.3290   64.6650 N   0  0  0  0  0  0  0  0  0  0  0  0
  124.1550  130.0910   65.9210 N   0  0  0  0  0  0  0  0  0  0  0  0
  125.4550  129.6420   65.9480 C   0  0  0  0  0  0  0  0  0  0  0  0
  126.1680  129.3170   67.0250 N   0  0  0  0  0  0  0  0  0  0  0  0
  128.6150  127.1710   68.2250 C   0  0  0  0  0  0  0  0  0  0  0  0
  129.3610  126.8200   69.3480 C   0  0  0  0  0  0  0  0  0  0  0  0
  1  2  1  0
  2  3  1  0
  3  4  1  0
  4  5  2  0
  5  6  1  0
  6  7  2  0
  7  8  1  0
  8  9  2  0
  9 10  1  0
 10 11  1  0
 11 12  2  0
 11 13  1  0
 13 14  1  0
 14 15  1  0
 15 16  1  0
 16 17  2  0
 17 18  1  0
 18 19  2  0
 19 20  1  0
 20 21  2  0
 10 22  2  0
 22 23  1  0
 23 24  1  0
 24 25  2  0
 25 26  1  0
 26 27  2  0
 27 28  1  0
 27 29  1  0
 29 30  2  0
 23 31  2  0
 31 32  1  0
 32 33  1  0
 33 34  2  0
  7 35  1  0
 35 36  2  0
 36  4  1  0
 34  8  1  0
 21 16  1  0
 33 22  1  0
 30 24  1  0
M  END
>  <Binding energies>  (57) 
[-9.44]

>  <Ligand effiencies>  (57) 
[-0.24842105263157893]

>  <Interactions>  (57) 
["V-B:ASP:366:CG:8184, V-B:LEU:363:CA:8156, V-B:PRO:540:CB:9856, V-B:PRO:540:CA:9854, V-B:ASP:366:CB:8183, H-B:GLU:543:OE2:9881, V-A:GLU:543:CD:4908, V-A:GLU:543:CG:4907, V-B:ILE:369:CD1:8210, V-A:HIS:456:CD2:4067, V-A:HIS:456:CB:4064, H-B:GLY:454:N:9021, V-A:HIS:456:CG:4065, V-B:GLU:543:CD:9879, V-B:HIS:456:CE1:9041, V-B:GLY:454:CA:9020, H-B:ARG:545:NH2:9899, V-A:GLU:543:CB:4906, V-A:HIS:456:CE1:4069, V-B:GLU:543:CB:9877, V-B:TYR:484:CE1:9316, V-B:ILE:369:CG2:8208, V-A:TYR:539:CE2:4876, V-B:ASP:366:CA:8181, V-B:ASP:366:C:8179, V-B:ASN:362:CB:8147, V-B:ARG:545:CZ:9897, V-B:ASN:362:C:8143, H-B:TYR:484:OH:9319, V-B:ILE:369:CB:8207, V-A:ARG:545:CA:4919, V-A:GLY:544:C:4912, V-B:ARG:545:CD:9894, H-B:GLU:543:OE1:9880, H-B:ILE:455:O:9024"]

$$$$
