1a_Ghoteimi_2023
     RDKit          3D

 67 70  0  0  0  0  0  0  0  0999 V2000
  124.0070  124.6600   57.9990 C   0  0  0  0  0  0  0  0  0  0  0  0
  124.7400  123.7440   57.0140 C   0  0  0  0  0  0  0  0  0  0  0  0
  126.1420  123.8420   57.2340 O   0  0  0  0  0  0  0  0  0  0  0  0
  126.8280  122.8420   57.8450 C   0  0  0  0  0  0  0  0  0  0  0  0
  127.0930  121.7660   57.3000 O   0  0  0  0  0  0  0  0  0  0  0  0
  127.2370  123.1770   59.2510 C   0  0  0  0  0  0  0  0  0  0  0  0
  126.5180  124.0920   60.0350 C   0  0  0  0  0  0  0  0  0  0  0  0
  126.9240  124.3850   61.3340 C   0  0  0  0  0  0  0  0  0  0  0  0
  128.0590  123.7630   61.8760 C   0  0  0  0  0  0  0  0  0  0  0  0
  128.5600  123.9880   63.1720 N   0  0  0  0  0  0  0  0  0  0  0  0
  129.4670  123.2830   63.8840 C   0  0  0  0  0  0  0  0  0  0  0  0
  130.0560  122.2750   63.4950 O   0  0  0  0  0  0  0  0  0  0  0  0
  129.7640  123.8200   65.2840 C   0  0  0  0  0  0  0  0  0  0  0  0
  130.5790  125.4430   65.2230 S   0  0  0  0  0  0  0  0  0  0  0  0
  129.5330  126.5570   66.1320 C   0  0  0  0  0  0  0  0  0  0  0  0
  129.5320  126.3420   67.4690 N   0  0  0  0  0  0  0  0  0  0  0  0
  128.7770  127.1290   68.2790 C   0  0  0  0  0  0  0  0  0  0  0  0
  128.8460  126.8410   69.7510 C   0  0  0  0  0  0  0  0  0  0  0  0
  128.1760  125.7410   70.3120 C   0  0  0  0  0  0  0  0  0  0  0  0
  128.2430  125.4770   71.6770 C   0  0  0  0  0  0  0  0  0  0  0  0
  128.9780  126.3020   72.5240 C   0  0  0  0  0  0  0  0  0  0  0  0
  128.9900  125.9620   73.8640 O   0  0  0  0  0  0  0  0  0  0  0  0
  129.8070  124.8800   74.2970 C   0  0  0  0  0  0  0  0  0  0  0  0
  129.6480  127.4060   71.9810 C   0  0  0  0  0  0  0  0  0  0  0  0
  129.5800  127.6680   70.6160 C   0  0  0  0  0  0  0  0  0  0  0  0
  127.9970  128.1610   67.7440 C   0  0  0  0  0  0  0  0  0  0  0  0
  127.9620  128.3870   66.3610 C   0  0  0  0  0  0  0  0  0  0  0  0
  127.0820  129.4850   65.8580 C   0  0  0  0  0  0  0  0  0  0  0  0
  125.6940  129.3250   65.8060 C   0  0  0  0  0  0  0  0  0  0  0  0
  124.8800  130.3590   65.3500 C   0  0  0  0  0  0  0  0  0  0  0  0
  125.4350  131.5720   64.9450 C   0  0  0  0  0  0  0  0  0  0  0  0
  124.5510  132.5390   64.5090 O   0  0  0  0  0  0  0  0  0  0  0  0
  124.1460  132.5450   63.1440 C   0  0  0  0  0  0  0  0  0  0  0  0
  126.8270  131.7390   65.0040 C   0  0  0  0  0  0  0  0  0  0  0  0
  127.6390  130.7040   65.4590 C   0  0  0  0  0  0  0  0  0  0  0  0
  128.7550  127.5660   65.5240 C   0  0  0  0  0  0  0  0  0  0  0  0
  128.7720  127.7640   64.0710 C   0  0  0  0  0  0  0  0  0  0  0  0
  128.7850  127.9210   62.9250 N   0  0  0  0  0  0  0  0  0  0  0  0
  128.7780  122.8560   61.0970 C   0  0  0  0  0  0  0  0  0  0  0  0
  128.3710  122.5630   59.7980 C   0  0  0  0  0  0  0  0  0  0  0  0
  124.2482  124.3586   59.0290 H   0  0  0  0  0  0  0  0  0  0  0  0
  124.3245  125.7008   57.8376 H   0  0  0  0  0  0  0  0  0  0  0  0
  122.9220  124.5784   57.8376 H   0  0  0  0  0  0  0  0  0  0  0  0
  124.4158  122.7043   57.1684 H   0  0  0  0  0  0  0  0  0  0  0  0
  124.5068  124.0498   55.9834 H   0  0  0  0  0  0  0  0  0  0  0  0
  125.6253  124.5823   59.6194 H   0  0  0  0  0  0  0  0  0  0  0  0
  126.3533  125.1063   61.9373 H   0  0  0  0  0  0  0  0  0  0  0  0
  128.2030  124.8230   63.6120 H   0  0  0  0  0  0  0  0  0  0  0  0
  128.8179  123.9168   65.8367 H   0  0  0  0  0  0  0  0  0  0  0  0
  130.4429  123.1142   65.7849 H   0  0  0  0  0  0  0  0  0  0  0  0
  127.5883  125.0768   69.6613 H   0  0  0  0  0  0  0  0  0  0  0  0
  127.7101  124.6081   72.0905 H   0  0  0  0  0  0  0  0  0  0  0  0
  129.8273  124.8531   75.3965 H   0  0  0  0  0  0  0  0  0  0  0  0
  129.3958  123.9341   73.9146 H   0  0  0  0  0  0  0  0  0  0  0  0
  130.8293  125.0166   73.9146 H   0  0  0  0  0  0  0  0  0  0  0  0
  130.2309  128.0692   72.6370 H   0  0  0  0  0  0  0  0  0  0  0  0
  130.1116  128.5398   70.2069 H   0  0  0  0  0  0  0  0  0  0  0  0
  127.4057  128.8009   68.4155 H   0  0  0  0  0  0  0  0  0  0  0  0
  125.2415  128.3754   66.1276 H   0  0  0  0  0  0  0  0  0  0  0  0
  123.7899  130.2173   65.3091 H   0  0  0  0  0  0  0  0  0  0  0  0
  123.0476  132.5613   63.0875 H   0  0  0  0  0  0  0  0  0  0  0  0
  124.5521  133.4372   62.6450 H   0  0  0  0  0  0  0  0  0  0  0  0
  124.5255  131.6411   62.6450 H   0  0  0  0  0  0  0  0  0  0  0  0
  127.2783  132.6916   64.6895 H   0  0  0  0  0  0  0  0  0  0  0  0
  128.7288  130.8463   65.5051 H   0  0  0  0  0  0  0  0  0  0  0  0
  129.6727  122.3689   61.5119 H   0  0  0  0  0  0  0  0  0  0  0  0
  128.9450  121.8431   59.1961 H   0  0  0  0  0  0  0  0  0  0  0  0
  1  2  1  0
  2  3  1  0
  3  4  1  0
  4  5  2  0
  4  6  1  0
  6  7  2  0
  7  8  1  0
  8  9  2  0
  9 10  1  0
 10 11  1  0
 11 12  2  0
 11 13  1  0
 13 14  1  0
 14 15  1  0
 15 16  2  0
 16 17  1  0
 17 18  1  0
 18 19  2  0
 19 20  1  0
 20 21  2  0
 21 22  1  0
 22 23  1  0
 21 24  1  0
 24 25  2  0
 17 26  2  0
 26 27  1  0
 27 28  1  0
 28 29  2  0
 29 30  1  0
 30 31  2  0
 31 32  1  0
 32 33  1  0
 31 34  1  0
 34 35  2  0
 27 36  2  0
 36 37  1  0
 37 38  3  0
  9 39  1  0
 39 40  2  0
 40  6  1  0
 36 15  1  0
 25 18  1  0
 35 28  1  0
  1 41  1  0
  1 42  1  0
  1 43  1  0
  2 44  1  0
  2 45  1  0
  7 46  1  0
  8 47  1  0
 10 48  1  0
 13 49  1  0
 13 50  1  0
 19 51  1  0
 20 52  1  0
 23 53  1  0
 23 54  1  0
 23 55  1  0
 24 56  1  0
 25 57  1  0
 26 58  1  0
 29 59  1  0
 30 60  1  0
 33 61  1  0
 33 62  1  0
 33 63  1  0
 34 64  1  0
 35 65  1  0
 39 66  1  0
 40 67  1  0
M  END
>  <Binding energies>  (1) 
[-9.92]

>  <Ligand effiencies>  (1) 
[-0.24195121951219511]

>  <Interactions>  (1) 
["V-B:TYR:539:CD2:9845, V-B:MET:535:CE:9806, V-B:TYR:539:CE2:9847, V-B:TYR:539:C:9838, V-B:PRO:540:N:9855, V-B:LEU:363:CA:8156, V-B:PRO:540:CB:9856, V-B:PRO:540:CA:9854, V-B:LEU:363:CD1:8160, V-B:TYR:531:CZ:9765, V-B:ASP:366:CB:8183, V-B:TYR:531:CE2:9764, H-B:GLU:543:OE2:9881, V-A:GLU:543:CD:4908, V-B:LEU:475:CD1:9229, V-A:GLU:543:CG:4907, V-B:ILE:369:CD1:8210, V-A:HIS:456:CD2:4067, V-B:GLU:543:C:9873, H-B:GLY:454:N:9021, V-B:GLU:543:CD:9879, V-B:HIS:456:CE1:9041, V-B:GLY:454:CA:9020, V-A:HIS:456:CE1:4069, H-B:LYS:547:NZ:9922, V-B:GLU:543:CG:9878, V-B:GLU:543:CB:9877, V-B:ALA:541:CB:9863, H-B:TYR:539:N:9841, V-B:ARG:545:CZ:9897, V-B:LYS:547:CE:9921"]

$$$$
1a_Grossjean_2025
     RDKit          3D

 45 46  0  0  0  0  0  0  0  0999 V2000
  124.2000  124.2590   59.1420 C   0  0  0  0  0  0  0  0  0  0  0  0
  124.4880  124.2060   57.6390 C   0  0  0  0  0  0  0  0  0  0  0  0
  124.7030  122.8560   57.2450 O   0  0  0  0  0  0  0  0  0  0  0  0
  125.8340  122.4900   56.5880 C   0  0  0  0  0  0  0  0  0  0  0  0
  125.8370  121.7500   55.6000 O   0  0  0  0  0  0  0  0  0  0  0  0
  127.0840  123.0610   57.1940 C   0  0  0  0  0  0  0  0  0  0  0  0
  127.5240  122.5810   58.4340 C   0  0  0  0  0  0  0  0  0  0  0  0
  128.6760  123.0940   59.0230 C   0  0  0  0  0  0  0  0  0  0  0  0
  129.4100  124.0960   58.3890 C   0  0  0  0  0  0  0  0  0  0  0  0
  130.5550  124.5430   59.0770 N   0  0  0  0  0  0  0  0  0  0  0  0
  131.6200  125.2410   58.6280 C   0  0  0  0  0  0  0  0  0  0  0  0
  131.7820  125.6340   57.4730 O   0  0  0  0  0  0  0  0  0  0  0  0
  132.6900  125.5490   59.6770 C   0  0  0  0  0  0  0  0  0  0  0  0
  133.4990  124.0420   60.2940 S   0  0  0  0  0  0  0  0  0  0  0  0
  132.3420  123.2160   61.3640 C   0  0  0  0  0  0  0  0  0  0  0  0
  131.5410  122.3290   60.7230 N   0  0  0  0  0  0  0  0  0  0  0  0
  130.6190  121.6470   61.4430 C   0  0  0  0  0  0  0  0  0  0  0  0
  129.7490  120.6830   60.6570 C   0  0  0  0  0  0  0  0  0  0  0  0
  130.4660  121.8110   62.8180 C   0  0  0  0  0  0  0  0  0  0  0  0
  131.3020  122.7080   63.4920 C   0  0  0  0  0  0  0  0  0  0  0  0
  131.1270  122.8600   65.0020 C   0  0  0  0  0  0  0  0  0  0  0  0
  132.2750  123.4290   62.7620 C   0  0  0  0  0  0  0  0  0  0  0  0
  133.1940  124.3370   63.4540 C   0  0  0  0  0  0  0  0  0  0  0  0
  133.9180  125.0530   64.0030 N   0  0  0  0  0  0  0  0  0  0  0  0
  128.9810  124.5780   57.1430 C   0  0  0  0  0  0  0  0  0  0  0  0
  127.8280  124.0650   56.5550 C   0  0  0  0  0  0  0  0  0  0  0  0
  125.1322  124.0875   59.7002 H   0  0  0  0  0  0  0  0  0  0  0  0
  123.7930  125.2471   59.4027 H   0  0  0  0  0  0  0  0  0  0  0  0
  123.4679  123.4805   59.4027 H   0  0  0  0  0  0  0  0  0  0  0  0
  123.6302  124.6171   57.0865 H   0  0  0  0  0  0  0  0  0  0  0  0
  125.3863  124.8006   57.4165 H   0  0  0  0  0  0  0  0  0  0  0  0
  126.9543  121.7919   58.9467 H   0  0  0  0  0  0  0  0  0  0  0  0
  129.0102  122.7059   59.9965 H   0  0  0  0  0  0  0  0  0  0  0  0
  130.5510  124.3250   60.0620 H   0  0  0  0  0  0  0  0  0  0  0  0
  133.4522  126.2008   59.2251 H   0  0  0  0  0  0  0  0  0  0  0  0
  132.1971  126.0410   60.5284 H   0  0  0  0  0  0  0  0  0  0  0  0
  129.1790  120.0515   61.3544 H   0  0  0  0  0  0  0  0  0  0  0  0
  129.0520  121.2512   60.0235 H   0  0  0  0  0  0  0  0  0  0  0  0
  130.3855  120.0477   60.0235 H   0  0  0  0  0  0  0  0  0  0  0  0
  129.6992  121.2436   63.3658 H   0  0  0  0  0  0  0  0  0  0  0  0
  131.8589  122.2243   65.5218 H   0  0  0  0  0  0  0  0  0  0  0  0
  131.2870  123.9107   65.2857 H   0  0  0  0  0  0  0  0  0  0  0  0
  130.1091  122.5545   65.2857 H   0  0  0  0  0  0  0  0  0  0  0  0
  129.5566  125.3625   56.6299 H   0  0  0  0  0  0  0  0  0  0  0  0
  127.4967  124.4506   55.5795 H   0  0  0  0  0  0  0  0  0  0  0  0
  1  2  1  0
  2  3  1  0
  3  4  1  0
  4  5  2  0
  4  6  1  0
  6  7  2  0
  7  8  1  0
  8  9  2  0
  9 10  1  0
 10 11  1  0
 11 12  2  0
 11 13  1  0
 13 14  1  0
 14 15  1  0
 15 16  2  0
 16 17  1  0
 17 18  1  0
 17 19  2  0
 19 20  1  0
 20 21  1  0
 20 22  2  0
 22 23  1  0
 23 24  3  0
  9 25  1  0
 25 26  2  0
 26  6  1  0
 22 15  1  0
  1 27  1  0
  1 28  1  0
  1 29  1  0
  2 30  1  0
  2 31  1  0
  7 32  1  0
  8 33  1  0
 10 34  1  0
 13 35  1  0
 13 36  1  0
 18 37  1  0
 18 38  1  0
 18 39  1  0
 19 40  1  0
 21 41  1  0
 21 42  1  0
 21 43  1  0
 25 44  1  0
 26 45  1  0
M  END
>  <Binding energies>  (1) 
[-7.79]

>  <Ligand effiencies>  (1) 
[-0.2885185185185185]

>  <Interactions>  (1) 
["V-B:TYR:539:CD2:9845, V-B:TYR:539:CE2:9847, V-B:TYR:539:C:9838, V-B:PRO:540:CD:9858, V-A:ASP:366:CG:3212, V-B:PRO:540:N:9855, V-A:ILE:369:CG2:3236, V-B:LEU:363:CA:8156, V-B:PRO:540:CB:9856, V-A:ASP:366:CB:3211, V-B:PRO:540:CA:9854, V-B:LEU:363:CD1:8160, V-B:TYR:539:CZ:9848, V-B:TYR:531:CE2:9764, V-A:ASP:366:CA:3209, V-A:LEU:475:CD2:4258, H-B:TYR:539:OH:9849, V-A:TYR:484:CE1:4344, H-A:ARG:545:NH2:4928, V-B:TYR:539:CE1:9846, V-B:ALA:541:CB:9863, H-B:TYR:539:N:9841, H-A:TYR:531:OH:4795, V-A:TYR:484:CZ:4346, H-A:ARG:545:NH1:4927, H-A:GLY:454:N:4049"]

$$$$
1aa_Ghoteimi_2023
     RDKit          3D

 67 70  0  0  0  0  0  0  0  0999 V2000
  125.9360  130.7100   55.2820 C   0  0  0  0  0  0  0  0  0  0  0  0
  126.0670  130.7250   56.8070 C   0  0  0  0  0  0  0  0  0  0  0  0
  124.7950  130.4760   57.3940 O   0  0  0  0  0  0  0  0  0  0  0  0
  124.3040  131.2800   58.3710 C   0  0  0  0  0  0  0  0  0  0  0  0
  123.5790  132.2550   58.1490 O   0  0  0  0  0  0  0  0  0  0  0  0
  124.7300  130.8670   59.7500 C   0  0  0  0  0  0  0  0  0  0  0  0
  125.7720  129.9520   59.9630 C   0  0  0  0  0  0  0  0  0  0  0  0
  126.1460  129.5880   61.2540 C   0  0  0  0  0  0  0  0  0  0  0  0
  125.4830  130.1380   62.3600 C   0  0  0  0  0  0  0  0  0  0  0  0
  125.7720  129.8450   63.7060 N   0  0  0  0  0  0  0  0  0  0  0  0
  124.9590  129.7900   64.7860 C   0  0  0  0  0  0  0  0  0  0  0  0
  123.7450  129.9970   64.7640 O   0  0  0  0  0  0  0  0  0  0  0  0
  125.6040  129.4410   66.1370 C   0  0  0  0  0  0  0  0  0  0  0  0
  127.0260  129.6130   66.0720 O   0  0  0  0  0  0  0  0  0  0  0  0
  127.8750  128.5800   66.4450 C   0  0  0  0  0  0  0  0  0  0  0  0
  127.9020  128.2140   67.7560 N   0  0  0  0  0  0  0  0  0  0  0  0
  128.7310  127.2170   68.1620 C   0  0  0  0  0  0  0  0  0  0  0  0
  128.7010  126.8720   69.6240 C   0  0  0  0  0  0  0  0  0  0  0  0
  129.4690  127.5930   70.5510 C   0  0  0  0  0  0  0  0  0  0  0  0
  129.4440  127.2740   71.9060 C   0  0  0  0  0  0  0  0  0  0  0  0
  128.6520  126.2290   72.3760 C   0  0  0  0  0  0  0  0  0  0  0  0
  128.6910  125.9850   73.7350 O   0  0  0  0  0  0  0  0  0  0  0  0
  129.8450  125.3680   74.2970 C   0  0  0  0  0  0  0  0  0  0  0  0
  127.8750  125.5040   71.4620 C   0  0  0  0  0  0  0  0  0  0  0  0
  127.9010  125.8250   70.1090 C   0  0  0  0  0  0  0  0  0  0  0  0
  129.5440  126.5450   67.2410 C   0  0  0  0  0  0  0  0  0  0  0  0
  129.5260  126.8940   65.8840 C   0  0  0  0  0  0  0  0  0  0  0  0
  130.4090  126.1330   64.9500 C   0  0  0  0  0  0  0  0  0  0  0  0
  131.8000  126.2310   65.0610 C   0  0  0  0  0  0  0  0  0  0  0  0
  132.6290  125.5170   64.2000 C   0  0  0  0  0  0  0  0  0  0  0  0
  132.0890  124.6880   63.2180 C   0  0  0  0  0  0  0  0  0  0  0  0
  132.9880  124.0190   62.4110 O   0  0  0  0  0  0  0  0  0  0  0  0
  133.5870  124.7080   61.3190 C   0  0  0  0  0  0  0  0  0  0  0  0
  130.6940  124.5800   63.1100 C   0  0  0  0  0  0  0  0  0  0  0  0
  129.8660  125.2960   63.9700 C   0  0  0  0  0  0  0  0  0  0  0  0
  128.6740  127.9470   65.4770 C   0  0  0  0  0  0  0  0  0  0  0  0
  128.6200  128.4100   64.0900 C   0  0  0  0  0  0  0  0  0  0  0  0
  128.5760  128.7780   62.9930 N   0  0  0  0  0  0  0  0  0  0  0  0
  124.4450  131.0480   62.1520 C   0  0  0  0  0  0  0  0  0  0  0  0
  124.0720  131.4100   60.8620 C   0  0  0  0  0  0  0  0  0  0  0  0
  124.8781  130.5889   55.0060 H   0  0  0  0  0  0  0  0  0  0  0  0
  126.3157  131.6575   54.8720 H   0  0  0  0  0  0  0  0  0  0  0  0
  126.5201  129.8729   54.8720 H   0  0  0  0  0  0  0  0  0  0  0  0
  126.7754  129.9447   57.1220 H   0  0  0  0  0  0  0  0  0  0  0  0
  126.4360  131.7083   57.1340 H   0  0  0  0  0  0  0  0  0  0  0  0
  126.2992  129.5175   59.1009 H   0  0  0  0  0  0  0  0  0  0  0  0
  126.9632  128.8676   61.4063 H   0  0  0  0  0  0  0  0  0  0  0  0
  126.7460  129.6390   63.8810 H   0  0  0  0  0  0  0  0  0  0  0  0
  125.1944  130.1015   66.9154 H   0  0  0  0  0  0  0  0  0  0  0  0
  125.3825  128.3906   66.3770 H   0  0  0  0  0  0  0  0  0  0  0  0
  130.1006  128.4231   70.2017 H   0  0  0  0  0  0  0  0  0  0  0  0
  130.0562  127.8533   72.6128 H   0  0  0  0  0  0  0  0  0  0  0  0
  129.7812  125.4021   75.3946 H   0  0  0  0  0  0  0  0  0  0  0  0
  129.8991  124.3206   73.9652 H   0  0  0  0  0  0  0  0  0  0  0  0
  130.7460  125.9047   73.9652 H   0  0  0  0  0  0  0  0  0  0  0  0
  127.2418  124.6773   71.8165 H   0  0  0  0  0  0  0  0  0  0  0  0
  127.2831  125.2477   69.4055 H   0  0  0  0  0  0  0  0  0  0  0  0
  130.2034  125.7350   67.5862 H   0  0  0  0  0  0  0  0  0  0  0  0
  132.2420  126.8768   65.8341 H   0  0  0  0  0  0  0  0  0  0  0  0
  133.7211  125.6080   64.2956 H   0  0  0  0  0  0  0  0  0  0  0  0
  134.2633  125.4859   61.7029 H   0  0  0  0  0  0  0  0  0  0  0  0
  134.1581  123.9960   60.7051 H   0  0  0  0  0  0  0  0  0  0  0  0
  132.8025  125.1745   60.7051 H   0  0  0  0  0  0  0  0  0  0  0  0
  130.2530  123.9269   62.3426 H   0  0  0  0  0  0  0  0  0  0  0  0
  128.7739  125.2025   63.8778 H   0  0  0  0  0  0  0  0  0  0  0  0
  123.9183  131.4819   63.0147 H   0  0  0  0  0  0  0  0  0  0  0  0
  123.2530  132.1291   60.7131 H   0  0  0  0  0  0  0  0  0  0  0  0
  1  2  1  0
  2  3  1  0
  3  4  1  0
  4  5  2  0
  4  6  1  0
  6  7  2  0
  7  8  1  0
  8  9  2  0
  9 10  1  0
 10 11  1  0
 11 12  2  0
 11 13  1  0
 13 14  1  0
 14 15  1  0
 15 16  2  0
 16 17  1  0
 17 18  1  0
 18 19  2  0
 19 20  1  0
 20 21  2  0
 21 22  1  0
 22 23  1  0
 21 24  1  0
 24 25  2  0
 17 26  2  0
 26 27  1  0
 27 28  1  0
 28 29  2  0
 29 30  1  0
 30 31  2  0
 31 32  1  0
 32 33  1  0
 31 34  1  0
 34 35  2  0
 27 36  2  0
 36 37  1  0
 37 38  3  0
  9 39  1  0
 39 40  2  0
 40  6  1  0
 36 15  1  0
 25 18  1  0
 35 28  1  0
  1 41  1  0
  1 42  1  0
  1 43  1  0
  2 44  1  0
  2 45  1  0
  7 46  1  0
  8 47  1  0
 10 48  1  0
 13 49  1  0
 13 50  1  0
 19 51  1  0
 20 52  1  0
 23 53  1  0
 23 54  1  0
 23 55  1  0
 24 56  1  0
 25 57  1  0
 26 58  1  0
 29 59  1  0
 30 60  1  0
 33 61  1  0
 33 62  1  0
 33 63  1  0
 34 64  1  0
 35 65  1  0
 39 66  1  0
 40 67  1  0
M  END
>  <Binding energies>  (1) 
[-9.59]

>  <Ligand effiencies>  (1) 
[-0.23390243902439023]

>  <Interactions>  (1) 
["V-B:ASP:366:CG:8184, V-A:ASP:366:CG:3212, H-B:TYR:531:OH:9766, V-B:ASP:366:CB:8183, V-A:GLU:543:CD:4908, V-A:GLU:543:CG:4907, V-B:ILE:369:CD1:8210, V-A:HIS:456:CD2:4067, V-B:GLU:543:C:9873, H-B:GLY:454:N:9021, V-B:GLU:543:CD:9879, V-B:HIS:456:CE1:9041, H-B:ARG:545:NH1:9898, H-B:ARG:545:NH2:9899, H-B:ARG:545:NE:9895, V-A:HIS:456:CE1:4069, H-B:LYS:547:NZ:9922, V-B:HIS:456:CD2:9039, V-B:GLU:543:CB:9877, V-A:TYR:539:CE2:4876, V-A:TYR:539:CZ:4877, V-B:ASP:366:CA:8181, V-A:ILE:369:CD1:3238, V-A:ARG:545:CZ:4926, V-B:ARG:545:CZ:9897, V-A:MET:535:CE:4835, H-A:TYR:539:OH:4878, H-B:TYR:484:OH:9319, V-B:TYR:531:CE1:9763, H-B:ASN:370:N:8215, V-B:GLY:544:C:9883"]

$$$$
1b_Ghoteimi_2023
     RDKit          3D

 54 57  0  0  0  0  0  0  0  0999 V2000
  131.6170  132.4270   55.7630 C   0  0  0  0  0  0  0  0  0  0  0  0
  130.8450  133.3720   56.4950 O   0  0  0  0  0  0  0  0  0  0  0  0
  130.1070  132.9410   57.5810 C   0  0  0  0  0  0  0  0  0  0  0  0
  128.7310  132.8170   57.3920 C   0  0  0  0  0  0  0  0  0  0  0  0
  127.9080  132.3910   58.4300 C   0  0  0  0  0  0  0  0  0  0  0  0
  128.4360  132.0720   59.6900 C   0  0  0  0  0  0  0  0  0  0  0  0
  127.5430  131.6140   60.8090 C   0  0  0  0  0  0  0  0  0  0  0  0
  127.9820  130.7780   61.8400 C   0  0  0  0  0  0  0  0  0  0  0  0
  127.1100  130.3830   62.8630 C   0  0  0  0  0  0  0  0  0  0  0  0
  127.6470  129.4840   63.9280 C   0  0  0  0  0  0  0  0  0  0  0  0
  128.3820  128.3460   63.5860 C   0  0  0  0  0  0  0  0  0  0  0  0
  128.8780  127.5010   64.5750 C   0  0  0  0  0  0  0  0  0  0  0  0
  128.6440  127.7740   65.9230 C   0  0  0  0  0  0  0  0  0  0  0  0
  129.1740  126.8800   66.8350 O   0  0  0  0  0  0  0  0  0  0  0  0
  128.5670  126.7540   68.1160 C   0  0  0  0  0  0  0  0  0  0  0  0
  127.9000  128.9110   66.2710 C   0  0  0  0  0  0  0  0  0  0  0  0
  127.4060  129.7530   65.2790 C   0  0  0  0  0  0  0  0  0  0  0  0
  125.7770  130.8610   62.8340 C   0  0  0  0  0  0  0  0  0  0  0  0
  124.8530  130.5560   63.9300 C   0  0  0  0  0  0  0  0  0  0  0  0
  124.1240  130.3140   64.7960 N   0  0  0  0  0  0  0  0  0  0  0  0
  125.3920  131.6860   61.7530 C   0  0  0  0  0  0  0  0  0  0  0  0
  123.7610  132.3700   61.5490 S   0  0  0  0  0  0  0  0  0  0  0  0
  122.9580  131.5030   60.1580 C   0  0  0  0  0  0  0  0  0  0  0  0
  123.8030  131.4060   58.8800 C   0  0  0  0  0  0  0  0  0  0  0  0
  123.7000  132.2540   57.9910 O   0  0  0  0  0  0  0  0  0  0  0  0
  124.6300  130.3380   58.8310 N   0  0  0  0  0  0  0  0  0  0  0  0
  125.5050  129.9970   57.8060 C   0  0  0  0  0  0  0  0  0  0  0  0
  126.7230  129.3560   58.0270 C   0  0  0  0  0  0  0  0  0  0  0  0
  127.2770  129.2010   56.7760 C   0  0  0  0  0  0  0  0  0  0  0  0
  126.4350  129.7210   55.8510 O   0  0  0  0  0  0  0  0  0  0  0  0
  125.3160  130.2220   56.5160 N   0  0  0  0  0  0  0  0  0  0  0  0
  126.2610  132.0640   60.7850 N   0  0  0  0  0  0  0  0  0  0  0  0
  129.8220  132.2030   59.8700 C   0  0  0  0  0  0  0  0  0  0  0  0
  130.6490  132.6300   58.8350 C   0  0  0  0  0  0  0  0  0  0  0  0
  132.1534  131.7703   56.4637 H   0  0  0  0  0  0  0  0  0  0  0  0
  130.9516  131.8219   55.1297 H   0  0  0  0  0  0  0  0  0  0  0  0
  132.3427  132.9583   55.1297 H   0  0  0  0  0  0  0  0  0  0  0  0
  128.2918  133.0583   56.4128 H   0  0  0  0  0  0  0  0  0  0  0  0
  126.8248  132.3029   58.2597 H   0  0  0  0  0  0  0  0  0  0  0  0
  129.0242  130.4262   61.8481 H   0  0  0  0  0  0  0  0  0  0  0  0
  128.5702  128.1159   62.5269 H   0  0  0  0  0  0  0  0  0  0  0  0
  129.4590  126.6111   64.2914 H   0  0  0  0  0  0  0  0  0  0  0  0
  129.3246  126.9113   68.8978 H   0  0  0  0  0  0  0  0  0  0  0  0
  127.7710  127.5061   68.2202 H   0  0  0  0  0  0  0  0  0  0  0  0
  128.1361  125.7473   68.2202 H   0  0  0  0  0  0  0  0  0  0  0  0
  127.7066  129.1376   67.3299 H   0  0  0  0  0  0  0  0  0  0  0  0
  126.8195  130.6399   65.5608 H   0  0  0  0  0  0  0  0  0  0  0  0
  122.7170  130.4811   60.4862 H   0  0  0  0  0  0  0  0  0  0  0  0
  122.0707  132.0979   59.8957 H   0  0  0  0  0  0  0  0  0  0  0  0
  124.6320  129.7170   59.6270 H   0  0  0  0  0  0  0  0  0  0  0  0
  127.1490  129.0422   58.9914 H   0  0  0  0  0  0  0  0  0  0  0  0
  128.2479  128.7303   56.5620 H   0  0  0  0  0  0  0  0  0  0  0  0
  130.2634  131.9634   60.8486 H   0  0  0  0  0  0  0  0  0  0  0  0
  131.7322  132.7236   59.0022 H   0  0  0  0  0  0  0  0  0  0  0  0
  1  2  1  0
  2  3  1  0
  3  4  2  0
  4  5  1  0
  5  6  2  0
  6  7  1  0
  7  8  2  0
  8  9  1  0
  9 10  1  0
 10 11  2  0
 11 12  1  0
 12 13  2  0
 13 14  1  0
 14 15  1  0
 13 16  1  0
 16 17  2  0
  9 18  2  0
 18 19  1  0
 19 20  3  0
 18 21  1  0
 21 22  1  0
 22 23  1  0
 23 24  1  0
 24 25  2  0
 24 26  1  0
 26 27  1  0
 27 28  1  0
 28 29  2  0
 29 30  1  0
 30 31  1  0
 21 32  2  0
  6 33  1  0
 33 34  2  0
 34  3  1  0
 32  7  1  0
 17 10  1  0
 31 27  2  0
  1 35  1  0
  1 36  1  0
  1 37  1  0
  4 38  1  0
  5 39  1  0
  8 40  1  0
 11 41  1  0
 12 42  1  0
 15 43  1  0
 15 44  1  0
 15 45  1  0
 16 46  1  0
 17 47  1  0
 23 48  1  0
 23 49  1  0
 26 50  1  0
 28 51  1  0
 29 52  1  0
 33 53  1  0
 34 54  1  0
M  END
>  <Binding energies>  (1) 
[-9.24]

>  <Ligand effiencies>  (1) 
[-0.264]

>  <Interactions>  (1) 
["V-B:ASP:366:CG:8184, H-B:ASP:366:OD2:8186, H-B:TYR:531:OH:9766, V-B:ASP:366:CB:8183, V-A:PRO:540:N:4884, V-A:GLU:543:CD:4908, V-A:GLU:543:CG:4907, V-A:PRO:540:CB:4885, V-A:TYR:539:CD2:4874, V-A:PRO:540:CA:4883, V-A:TYR:539:C:4867, V-B:ILE:369:CD1:8210, H-B:GLY:454:N:9021, V-B:GLU:543:CD:9879, H-B:ARG:545:NH2:9899, V-B:GLU:543:CG:9878, V-B:GLU:543:CB:9877, V-B:ILE:369:CG2:8208, V-A:TYR:539:CE2:4876, V-A:TYR:539:CZ:4877, V-B:ASP:366:CA:8181, V-B:ASP:366:C:8179, V-A:LEU:363:CD1:3188, V-A:MET:535:CE:4835, H-A:TYR:539:OH:4878, V-B:ILE:369:CB:8207, H-A:TYR:539:N:4870, V-A:TYR:539:CG:4872, V-A:ILE:538:CB:4862, V-A:TYR:539:CE1:4875, V-A:ILE:538:CG2:4863, H-B:ASN:370:N:8215, H-B:ASP:366:OD1:8185, V-B:ILE:369:CG1:8209"]

$$$$
1b_Grossjean_2025
     RDKit          3D

 42 43  0  0  0  0  0  0  0  0999 V2000
  132.0900  132.4280   57.1910 C   0  0  0  0  0  0  0  0  0  0  0  0
  131.2400  133.3830   56.5710 O   0  0  0  0  0  0  0  0  0  0  0  0
  130.1260  132.9950   55.8990 C   0  0  0  0  0  0  0  0  0  0  0  0
  130.0480  132.9700   54.6670 O   0  0  0  0  0  0  0  0  0  0  0  0
  128.9980  132.5900   56.8050 C   0  0  0  0  0  0  0  0  0  0  0  0
  128.9660  132.9550   58.1600 C   0  0  0  0  0  0  0  0  0  0  0  0
  127.9070  132.5630   58.9720 C   0  0  0  0  0  0  0  0  0  0  0  0
  126.8600  131.8010   58.4530 C   0  0  0  0  0  0  0  0  0  0  0  0
  125.8440  131.4610   59.3660 N   0  0  0  0  0  0  0  0  0  0  0  0
  124.5080  131.6520   59.2930 C   0  0  0  0  0  0  0  0  0  0  0  0
  123.9120  132.1830   58.3570 O   0  0  0  0  0  0  0  0  0  0  0  0
  123.7070  131.1390   60.4900 C   0  0  0  0  0  0  0  0  0  0  0  0
  123.7600  132.2920   61.8950 S   0  0  0  0  0  0  0  0  0  0  0  0
  125.3220  133.1430   61.8240 C   0  0  0  0  0  0  0  0  0  0  0  0
  126.3950  132.3300   61.9930 N   0  0  0  0  0  0  0  0  0  0  0  0
  127.6340  132.8730   61.9560 C   0  0  0  0  0  0  0  0  0  0  0  0
  128.7860  131.9020   62.1370 C   0  0  0  0  0  0  0  0  0  0  0  0
  127.8530  134.2360   61.7620 C   0  0  0  0  0  0  0  0  0  0  0  0
  126.7520  135.0850   61.6100 C   0  0  0  0  0  0  0  0  0  0  0  0
  127.0160  136.5770   61.4150 C   0  0  0  0  0  0  0  0  0  0  0  0
  125.4480  134.5400   61.6450 C   0  0  0  0  0  0  0  0  0  0  0  0
  124.2800  135.4160   61.5310 C   0  0  0  0  0  0  0  0  0  0  0  0
  123.3590  136.1110   61.4410 N   0  0  0  0  0  0  0  0  0  0  0  0
  126.8840  131.4330   57.1000 C   0  0  0  0  0  0  0  0  0  0  0  0
  127.9440  131.8260   56.2880 C   0  0  0  0  0  0  0  0  0  0  0  0
  132.0085  132.5196   58.2841 H   0  0  0  0  0  0  0  0  0  0  0  0
  131.7889  131.4154   56.8844 H   0  0  0  0  0  0  0  0  0  0  0  0
  133.1307  132.6097   56.8844 H   0  0  0  0  0  0  0  0  0  0  0  0
  129.7847  133.5557   58.5829 H   0  0  0  0  0  0  0  0  0  0  0  0
  127.8949  132.8562   60.0321 H   0  0  0  0  0  0  0  0  0  0  0  0
  126.1810  131.0160   60.2070 H   0  0  0  0  0  0  0  0  0  0  0  0
  122.6596  131.0020   60.1832 H   0  0  0  0  0  0  0  0  0  0  0  0
  124.1558  130.1888   60.8151 H   0  0  0  0  0  0  0  0  0  0  0  0
  128.9698  131.7471   63.2104 H   0  0  0  0  0  0  0  0  0  0  0  0
  128.5328  130.9408   61.6659 H   0  0  0  0  0  0  0  0  0  0  0  0
  129.6905  132.3143   61.6659 H   0  0  0  0  0  0  0  0  0  0  0  0
  128.8765  134.6378   61.7290 H   0  0  0  0  0  0  0  0  0  0  0  0
  127.1024  137.0655   62.3968 H   0  0  0  0  0  0  0  0  0  0  0  0
  127.9522  136.7134   60.8539 H   0  0  0  0  0  0  0  0  0  0  0  0
  126.1834  137.0264   60.8539 H   0  0  0  0  0  0  0  0  0  0  0  0
  126.0637  130.8327   56.6797 H   0  0  0  0  0  0  0  0  0  0  0  0
  127.9541  131.5331   55.2278 H   0  0  0  0  0  0  0  0  0  0  0  0
  1  2  1  0
  2  3  1  0
  3  4  2  0
  3  5  1  0
  5  6  2  0
  6  7  1  0
  7  8  2  0
  8  9  1  0
  9 10  1  0
 10 11  2  0
 10 12  1  0
 12 13  1  0
 13 14  1  0
 14 15  2  0
 15 16  1  0
 16 17  1  0
 16 18  2  0
 18 19  1  0
 19 20  1  0
 19 21  2  0
 21 22  1  0
 22 23  3  0
  8 24  1  0
 24 25  2  0
 25  5  1  0
 21 14  1  0
  1 26  1  0
  1 27  1  0
  1 28  1  0
  6 29  1  0
  7 30  1  0
  9 31  1  0
 12 32  1  0
 12 33  1  0
 17 34  1  0
 17 35  1  0
 17 36  1  0
 18 37  1  0
 20 38  1  0
 20 39  1  0
 20 40  1  0
 24 41  1  0
 25 42  1  0
M  END
>  <Binding energies>  (1) 
[-7.69]

>  <Ligand effiencies>  (1) 
[-0.2957692307692308]

>  <Interactions>  (1) 
["V-B:ASP:366:CG:8184, V-B:ASP:366:CB:8183, V-A:PRO:540:N:4884, V-B:PRO:482:CB:9297, V-B:TRP:381:CH2:8343, V-A:PRO:540:CB:4885, V-A:TYR:539:CD2:4874, V-A:ALA:541:CB:4892, V-B:PRO:482:CG:9298, V-B:TRP:381:CZ2:8341, V-A:PRO:540:CA:4883, V-A:TYR:539:C:4867, V-B:ILE:369:CD1:8210, V-B:ILE:369:CG2:8208, V-A:TYR:539:CE2:4876, V-A:TYR:539:CZ:4877, V-B:ASP:366:CA:8181, V-A:LEU:363:CD1:3188, V-A:MET:535:CE:4835, H-A:TYR:539:OH:4878, H-A:TYR:539:N:4870, V-A:TYR:539:CG:4872, V-A:ILE:538:CA:4860, V-A:ILE:538:CB:4862, V-A:TYR:539:CE1:4875, V-A:ILE:538:C:4858, V-B:TRP:381:CZ3:8342"]

$$$$
1c_Ghoteimi_2023
     RDKit          3D

 54 57  0  0  0  0  0  0  0  0999 V2000
  129.9500  125.0150   75.0290 C   0  0  0  0  0  0  0  0  0  0  0  0
  129.0030  125.9090   74.4540 O   0  0  0  0  0  0  0  0  0  0  0  0
  129.0740  126.1920   73.1030 C   0  0  0  0  0  0  0  0  0  0  0  0
  128.3810  125.3390   72.2490 C   0  0  0  0  0  0  0  0  0  0  0  0
  128.4000  125.5470   70.8720 C   0  0  0  0  0  0  0  0  0  0  0  0
  129.1140  126.6150   70.3090 C   0  0  0  0  0  0  0  0  0  0  0  0
  129.1410  126.8400   68.8250 C   0  0  0  0  0  0  0  0  0  0  0  0
  129.7520  125.9500   67.9360 C   0  0  0  0  0  0  0  0  0  0  0  0
  129.7280  126.1880   66.5560 C   0  0  0  0  0  0  0  0  0  0  0  0
  130.3410  125.1620   65.6620 C   0  0  0  0  0  0  0  0  0  0  0  0
  129.7500  123.9040   65.5120 C   0  0  0  0  0  0  0  0  0  0  0  0
  130.3340  122.9420   64.6950 C   0  0  0  0  0  0  0  0  0  0  0  0
  131.5210  123.2150   64.0170 C   0  0  0  0  0  0  0  0  0  0  0  0
  132.0290  122.2000   63.2280 O   0  0  0  0  0  0  0  0  0  0  0  0
  133.2770  122.3910   62.5690 C   0  0  0  0  0  0  0  0  0  0  0  0
  132.1220  124.4740   64.1700 C   0  0  0  0  0  0  0  0  0  0  0  0
  131.5350  125.4360   64.9880 C   0  0  0  0  0  0  0  0  0  0  0  0
  129.0980  127.3650   66.0880 C   0  0  0  0  0  0  0  0  0  0  0  0
  129.0690  127.6900   64.6570 C   0  0  0  0  0  0  0  0  0  0  0  0
  129.0450  127.9440   63.5280 N   0  0  0  0  0  0  0  0  0  0  0  0
  128.4870  128.2110   67.0370 C   0  0  0  0  0  0  0  0  0  0  0  0
  127.5170  129.6300   66.5770 S   0  0  0  0  0  0  0  0  0  0  0  0
  125.8120  129.2050   67.0600 C   0  0  0  0  0  0  0  0  0  0  0  0
  124.7930  129.5850   65.9800 C   0  0  0  0  0  0  0  0  0  0  0  0
  123.6050  129.7110   66.2810 O   0  0  0  0  0  0  0  0  0  0  0  0
  125.3110  129.8000   64.7500 N   0  0  0  0  0  0  0  0  0  0  0  0
  124.6410  130.2980   63.6440 C   0  0  0  0  0  0  0  0  0  0  0  0
  123.3800  130.6670   63.5630 N   0  0  0  0  0  0  0  0  0  0  0  0
  123.0900  131.1320   62.3630 C   0  0  0  0  0  0  0  0  0  0  0  0
  124.1320  131.1490   61.4410 C   0  0  0  0  0  0  0  0  0  0  0  0
  125.5650  130.5160   62.1940 S   0  0  0  0  0  0  0  0  0  0  0  0
  128.5020  127.9480   68.3660 N   0  0  0  0  0  0  0  0  0  0  0  0
  129.8030  127.4720   71.1800 C   0  0  0  0  0  0  0  0  0  0  0  0
  129.7880  127.2670   72.5560 C   0  0  0  0  0  0  0  0  0  0  0  0
  129.8893  125.0723   76.1258 H   0  0  0  0  0  0  0  0  0  0  0  0
  129.7297  123.9879   74.7027 H   0  0  0  0  0  0  0  0  0  0  0  0
  130.9628  125.2941   74.7027 H   0  0  0  0  0  0  0  0  0  0  0  0
  127.8136  124.4935   72.6651 H   0  0  0  0  0  0  0  0  0  0  0  0
  127.8453  124.8616   70.2143 H   0  0  0  0  0  0  0  0  0  0  0  0
  130.2569  125.0534   68.3248 H   0  0  0  0  0  0  0  0  0  0  0  0
  128.8155  123.6732   66.0445 H   0  0  0  0  0  0  0  0  0  0  0  0
  129.8555  121.9579   64.5829 H   0  0  0  0  0  0  0  0  0  0  0  0
  134.0727  122.5128   63.3187 H   0  0  0  0  0  0  0  0  0  0  0  0
  133.4970  121.5161   61.9396 H   0  0  0  0  0  0  0  0  0  0  0  0
  133.2253  123.2917   61.9396 H   0  0  0  0  0  0  0  0  0  0  0  0
  133.0598  124.7016   63.6420 H   0  0  0  0  0  0  0  0  0  0  0  0
  132.0144  126.4191   65.1048 H   0  0  0  0  0  0  0  0  0  0  0  0
  125.7535  128.1208   67.2365 H   0  0  0  0  0  0  0  0  0  0  0  0
  125.5672  129.7723   67.9701 H   0  0  0  0  0  0  0  0  0  0  0  0
  126.3020  129.6550   64.6330 H   0  0  0  0  0  0  0  0  0  0  0  0
  122.0810  131.4864   62.1057 H   0  0  0  0  0  0  0  0  0  0  0  0
  124.0604  131.5056   60.4029 H   0  0  0  0  0  0  0  0  0  0  0  0
  130.3658  128.3222   70.7672 H   0  0  0  0  0  0  0  0  0  0  0  0
  130.3389  127.9516   73.2176 H   0  0  0  0  0  0  0  0  0  0  0  0
  1  2  1  0
  2  3  1  0
  3  4  2  0
  4  5  1  0
  5  6  2  0
  6  7  1  0
  7  8  2  0
  8  9  1  0
  9 10  1  0
 10 11  2  0
 11 12  1  0
 12 13  2  0
 13 14  1  0
 14 15  1  0
 13 16  1  0
 16 17  2  0
  9 18  2  0
 18 19  1  0
 19 20  3  0
 18 21  1  0
 21 22  1  0
 22 23  1  0
 23 24  1  0
 24 25  2  0
 24 26  1  0
 26 27  1  0
 27 28  2  0
 28 29  1  0
 29 30  2  0
 30 31  1  0
 21 32  2  0
  6 33  1  0
 33 34  2  0
 34  3  1  0
 32  7  1  0
 17 10  1  0
 31 27  1  0
  1 35  1  0
  1 36  1  0
  1 37  1  0
  4 38  1  0
  5 39  1  0
  8 40  1  0
 11 41  1  0
 12 42  1  0
 15 43  1  0
 15 44  1  0
 15 45  1  0
 16 46  1  0
 17 47  1  0
 23 48  1  0
 23 49  1  0
 26 50  1  0
 29 51  1  0
 30 52  1  0
 33 53  1  0
 34 54  1  0
M  END
>  <Binding energies>  (1) 
[-8.83]

>  <Ligand effiencies>  (1) 
[-0.2522857142857143]

>  <Interactions>  (1) 
["V-B:ASP:366:CG:8184, V-A:ILE:369:CG2:3236, V-A:GLU:543:CD:4908, V-A:GLU:543:CG:4907, V-B:ILE:369:CD1:8210, V-B:GLU:543:C:9873, V-B:GLY:453:C:9013, H-B:GLY:454:N:9021, V-B:GLU:543:CD:9879, V-B:HIS:456:CE1:9041, H-B:ARG:545:NE:9895, V-A:HIS:456:CE1:4069, H-B:LYS:547:NZ:9922, V-A:LEU:475:CD2:4258, V-B:GLU:543:CG:9878, V-A:TYR:484:CE1:4344, V-B:GLU:543:CB:9877, V-A:ILE:369:CD1:3238, V-A:GLY:454:CA:4048, V-B:ALA:541:CB:9863, V-B:ARG:545:CZ:9897, H-B:TYR:484:OH:9319, V-B:ARG:545:CD:9894, V-B:LYS:547:CE:9921"]

$$$$
1c_Grossjean_2025
     RDKit          3D

 40 41  0  0  0  0  0  0  0  0999 V2000
  131.5810  132.8670   56.4600 C   0  0  0  0  0  0  0  0  0  0  0  0
  130.2230  133.1150   56.1130 O   0  0  0  0  0  0  0  0  0  0  0  0
  129.2240  132.7370   56.9900 C   0  0  0  0  0  0  0  0  0  0  0  0
  128.1620  132.0130   56.4490 C   0  0  0  0  0  0  0  0  0  0  0  0
  127.1090  131.5860   57.2520 C   0  0  0  0  0  0  0  0  0  0  0  0
  127.1100  131.8790   58.6240 C   0  0  0  0  0  0  0  0  0  0  0  0
  126.0930  131.5060   59.5240 N   0  0  0  0  0  0  0  0  0  0  0  0
  124.7530  131.5650   59.3740 C   0  0  0  0  0  0  0  0  0  0  0  0
  124.1630  131.9590   58.3680 O   0  0  0  0  0  0  0  0  0  0  0  0
  123.9370  131.0870   60.5770 C   0  0  0  0  0  0  0  0  0  0  0  0
  123.7570  132.3870   61.8340 S   0  0  0  0  0  0  0  0  0  0  0  0
  125.2760  133.3160   61.9030 C   0  0  0  0  0  0  0  0  0  0  0  0
  126.3760  132.5390   62.0720 N   0  0  0  0  0  0  0  0  0  0  0  0
  127.5900  133.1350   62.1390 C   0  0  0  0  0  0  0  0  0  0  0  0
  128.7730  132.2010   62.3180 C   0  0  0  0  0  0  0  0  0  0  0  0
  127.7550  134.5150   62.0540 C   0  0  0  0  0  0  0  0  0  0  0  0
  126.6270  135.3270   61.9050 C   0  0  0  0  0  0  0  0  0  0  0  0
  126.8320  136.8390   61.8310 C   0  0  0  0  0  0  0  0  0  0  0  0
  125.3480  134.7270   61.8340 C   0  0  0  0  0  0  0  0  0  0  0  0
  124.1500  135.5640   61.7330 C   0  0  0  0  0  0  0  0  0  0  0  0
  123.2040  136.2260   61.6530 N   0  0  0  0  0  0  0  0  0  0  0  0
  128.1660  132.6130   59.1670 C   0  0  0  0  0  0  0  0  0  0  0  0
  129.2170  133.0380   58.3610 C   0  0  0  0  0  0  0  0  0  0  0  0
  131.6821  132.8485   57.5552 H   0  0  0  0  0  0  0  0  0  0  0  0
  131.8938  131.8969   56.0465 H   0  0  0  0  0  0  0  0  0  0  0  0
  132.2165  133.6639   56.0465 H   0  0  0  0  0  0  0  0  0  0  0  0
  128.1567  131.7767   55.3747 H   0  0  0  0  0  0  0  0  0  0  0  0
  126.2759  131.0188   56.8112 H   0  0  0  0  0  0  0  0  0  0  0  0
  126.4280  131.0920   60.3810 H   0  0  0  0  0  0  0  0  0  0  0  0
  122.9371  130.7858   60.2313 H   0  0  0  0  0  0  0  0  0  0  0  0
  124.4698  130.2410   61.0357 H   0  0  0  0  0  0  0  0  0  0  0  0
  128.9628  132.0512   63.3911 H   0  0  0  0  0  0  0  0  0  0  0  0
  128.5502  131.2326   61.8463 H   0  0  0  0  0  0  0  0  0  0  0  0
  129.6633  132.6424   61.8463 H   0  0  0  0  0  0  0  0  0  0  0  0
  128.7596  134.9603   62.1034 H   0  0  0  0  0  0  0  0  0  0  0  0
  126.8880  137.2517   62.8491 H   0  0  0  0  0  0  0  0  0  0  0  0
  127.7678  137.0564   61.2953 H   0  0  0  0  0  0  0  0  0  0  0  0
  125.9878  137.2977   61.2953 H   0  0  0  0  0  0  0  0  0  0  0  0
  128.1670  132.8570   60.2396 H   0  0  0  0  0  0  0  0  0  0  0  0
  130.0461  133.6124   58.7999 H   0  0  0  0  0  0  0  0  0  0  0  0
  1  2  1  0
  2  3  1  0
  3  4  2  0
  4  5  1  0
  5  6  2  0
  6  7  1  0
  7  8  1  0
  8  9  2  0
  8 10  1  0
 10 11  1  0
 11 12  1  0
 12 13  2  0
 13 14  1  0
 14 15  1  0
 14 16  2  0
 16 17  1  0
 17 18  1  0
 17 19  2  0
 19 20  1  0
 20 21  3  0
  6 22  1  0
 22 23  2  0
 23  3  1  0
 19 12  1  0
  1 24  1  0
  1 25  1  0
  1 26  1  0
  4 27  1  0
  5 28  1  0
  7 29  1  0
 10 30  1  0
 10 31  1  0
 15 32  1  0
 15 33  1  0
 15 34  1  0
 16 35  1  0
 18 36  1  0
 18 37  1  0
 18 38  1  0
 22 39  1  0
 23 40  1  0
M  END
>  <Binding energies>  (1) 
[-7.05]

>  <Ligand effiencies>  (1) 
[-0.29375]

>  <Interactions>  (1) 
["V-B:ASP:366:CG:8184, V-B:ASP:366:CB:8183, V-A:PRO:540:N:4884, V-B:PRO:482:CB:9297, V-B:LEU:475:CD1:9229, V-B:TRP:381:CH2:8343, V-A:TYR:539:CD2:4874, V-A:ALA:541:CB:4892, V-B:PRO:482:CG:9298, V-B:TRP:381:CZ2:8341, V-A:TYR:539:C:4867, V-B:ILE:369:CD1:8210, V-B:ILE:369:CG2:8208, V-A:TYR:539:CE2:4876, V-A:TYR:539:CZ:4877, V-B:ASP:366:CA:8181, V-A:LEU:363:CD1:3188, V-A:MET:535:CE:4835, H-A:TYR:539:OH:4878, H-A:TYR:539:N:4870, V-B:TRP:381:CE2:8338, V-A:TYR:539:CG:4872, V-A:ILE:538:CB:4862, V-A:PRO:540:CD:4887, V-A:TYR:539:CE1:4875, V-B:TRP:381:CZ3:8342"]

$$$$
1d_Ghoteimi_2023
     RDKit          3D

 50 52  0  0  0  0  0  0  0  0999 V2000
  133.8400  125.4760   63.7650 C   0  0  0  0  0  0  0  0  0  0  0  0
  133.6240  124.7350   64.9560 O   0  0  0  0  0  0  0  0  0  0  0  0
  134.0180  125.2250   66.1490 C   0  0  0  0  0  0  0  0  0  0  0  0
  135.1380  125.1110   66.6500 O   0  0  0  0  0  0  0  0  0  0  0  0
  132.8980  125.9710   66.8690 C   0  0  0  0  0  0  0  0  0  0  0  0
  131.3530  125.6360   65.9720 S   0  0  0  0  0  0  0  0  0  0  0  0
  130.0690  126.5650   66.7800 C   0  0  0  0  0  0  0  0  0  0  0  0
  130.0060  126.3590   68.1180 N   0  0  0  0  0  0  0  0  0  0  0  0
  129.0680  127.0030   68.8590 C   0  0  0  0  0  0  0  0  0  0  0  0
  129.0700  126.7240   70.3340 C   0  0  0  0  0  0  0  0  0  0  0  0
  128.4850  125.5590   70.8550 C   0  0  0  0  0  0  0  0  0  0  0  0
  128.4820  125.3050   72.2240 C   0  0  0  0  0  0  0  0  0  0  0  0
  129.0600  126.2070   73.1140 C   0  0  0  0  0  0  0  0  0  0  0  0
  129.0070  125.8750   74.4540 O   0  0  0  0  0  0  0  0  0  0  0  0
  129.9440  124.9380   74.9740 C   0  0  0  0  0  0  0  0  0  0  0  0
  129.6470  127.3750   72.6090 C   0  0  0  0  0  0  0  0  0  0  0  0
  129.6500  127.6250   71.2390 C   0  0  0  0  0  0  0  0  0  0  0  0
  128.1690  127.8900   68.2560 C   0  0  0  0  0  0  0  0  0  0  0  0
  128.2010  128.1100   66.8730 C   0  0  0  0  0  0  0  0  0  0  0  0
  127.2070  129.0640   66.2940 C   0  0  0  0  0  0  0  0  0  0  0  0
  127.5860  129.9440   65.2750 C   0  0  0  0  0  0  0  0  0  0  0  0
  126.6650  130.8350   64.7310 C   0  0  0  0  0  0  0  0  0  0  0  0
  125.3480  130.8610   65.1880 C   0  0  0  0  0  0  0  0  0  0  0  0
  124.5060  131.7820   64.5960 O   0  0  0  0  0  0  0  0  0  0  0  0
  124.1430  131.6140   63.2300 C   0  0  0  0  0  0  0  0  0  0  0  0
  124.9600  129.9710   66.2010 C   0  0  0  0  0  0  0  0  0  0  0  0
  125.8820  129.0810   66.7430 C   0  0  0  0  0  0  0  0  0  0  0  0
  129.1650  127.4140   66.1020 C   0  0  0  0  0  0  0  0  0  0  0  0
  129.1780  127.5270   64.6400 C   0  0  0  0  0  0  0  0  0  0  0  0
  129.1860  127.6160   63.4870 N   0  0  0  0  0  0  0  0  0  0  0  0
  134.1394  126.5030   64.0213 H   0  0  0  0  0  0  0  0  0  0  0  0
  134.6363  124.9983   63.1753 H   0  0  0  0  0  0  0  0  0  0  0  0
  132.9118  125.5010   63.1753 H   0  0  0  0  0  0  0  0  0  0  0  0
  132.8151  125.6138   67.9061 H   0  0  0  0  0  0  0  0  0  0  0  0
  133.1053  127.0510   66.8933 H   0  0  0  0  0  0  0  0  0  0  0  0
  128.0210  124.8343   70.1698 H   0  0  0  0  0  0  0  0  0  0  0  0
  128.0188  124.3834   72.6062 H   0  0  0  0  0  0  0  0  0  0  0  0
  129.9175  124.9645   76.0734 H   0  0  0  0  0  0  0  0  0  0  0  0
  129.6842  123.9276   74.6252 H   0  0  0  0  0  0  0  0  0  0  0  0
  130.9544  125.1978   74.6252 H   0  0  0  0  0  0  0  0  0  0  0  0
  130.1077  128.0980   73.2982 H   0  0  0  0  0  0  0  0  0  0  0  0
  130.1160  128.5463   70.8595 H   0  0  0  0  0  0  0  0  0  0  0  0
  127.4296  128.4199   68.8745 H   0  0  0  0  0  0  0  0  0  0  0  0
  128.6202  129.9319   64.9004 H   0  0  0  0  0  0  0  0  0  0  0  0
  126.9791  131.5246   63.9336 H   0  0  0  0  0  0  0  0  0  0  0  0
  123.1462  131.1527   63.1696 H   0  0  0  0  0  0  0  0  0  0  0  0
  124.1239  132.5948   62.7324 H   0  0  0  0  0  0  0  0  0  0  0  0
  124.8783  130.9647   62.7324 H   0  0  0  0  0  0  0  0  0  0  0  0
  123.9231  129.9769   66.5680 H   0  0  0  0  0  0  0  0  0  0  0  0
  125.5659  128.3835   67.5327 H   0  0  0  0  0  0  0  0  0  0  0  0
  1  2  1  0
  2  3  1  0
  3  4  2  0
  3  5  1  0
  5  6  1  0
  6  7  1  0
  7  8  2  0
  8  9  1  0
  9 10  1  0
 10 11  2  0
 11 12  1  0
 12 13  2  0
 13 14  1  0
 14 15  1  0
 13 16  1  0
 16 17  2  0
  9 18  2  0
 18 19  1  0
 19 20  1  0
 20 21  2  0
 21 22  1  0
 22 23  2  0
 23 24  1  0
 24 25  1  0
 23 26  1  0
 26 27  2  0
 19 28  2  0
 28 29  1  0
 29 30  3  0
 28  7  1  0
 17 10  1  0
 27 20  1  0
  1 31  1  0
  1 32  1  0
  1 33  1  0
  5 34  1  0
  5 35  1  0
 11 36  1  0
 12 37  1  0
 15 38  1  0
 15 39  1  0
 15 40  1  0
 16 41  1  0
 17 42  1  0
 18 43  1  0
 21 44  1  0
 22 45  1  0
 25 46  1  0
 25 47  1  0
 25 48  1  0
 26 49  1  0
 27 50  1  0
M  END
>  <Binding energies>  (1) 
[-8.42]

>  <Ligand effiencies>  (1) 
[-0.2806666666666667]

>  <Interactions>  (1) 
["V-A:GLU:543:CD:4908, V-A:GLU:543:CG:4907, V-A:HIS:456:CD2:4067, V-B:GLU:543:C:9873, H-B:GLY:454:N:9021, V-B:GLU:543:CD:9879, V-B:HIS:456:CE1:9041, V-B:GLY:454:CA:9020, V-A:HIS:456:CE1:4069, H-B:LYS:547:NZ:9922, H-A:TYR:484:OH:4347, V-A:GLY:454:CA:4048, H-A:ARG:545:NE:4924, V-A:ARG:545:CZ:4926, H-A:GLY:454:N:4049, V-B:LYS:547:CE:9921, V-A:ARG:545:CG:4922, V-A:ARG:545:CD:4923, V-A:GLY:453:CA:4043, H-A:ILE:455:N:4054"]

$$$$
1d_Grossjean_2025
     RDKit          3D

 36 37  0  0  0  0  0  0  0  0999 V2000
  127.4130  127.7610   58.4840 C   0  0  0  0  0  0  0  0  0  0  0  0
  127.0310  126.4480   57.8300 C   0  0  0  0  0  0  0  0  0  0  0  0
  127.7880  125.9000   56.7960 C   0  0  0  0  0  0  0  0  0  0  0  0
  127.3940  124.6800   56.2370 C   0  0  0  0  0  0  0  0  0  0  0  0
  128.2480  124.0920   55.1160 C   0  0  0  0  0  0  0  0  0  0  0  0
  126.2340  124.0370   56.7280 C   0  0  0  0  0  0  0  0  0  0  0  0
  125.8290  122.7360   56.1910 C   0  0  0  0  0  0  0  0  0  0  0  0
  125.5120  121.7080   55.7640 N   0  0  0  0  0  0  0  0  0  0  0  0
  125.5130  124.6780   57.7630 C   0  0  0  0  0  0  0  0  0  0  0  0
  124.0340  124.0140   58.4960 S   0  0  0  0  0  0  0  0  0  0  0  0
  124.0990  124.3810   60.2760 C   0  0  0  0  0  0  0  0  0  0  0  0
  125.1970  123.5890   60.9880 C   0  0  0  0  0  0  0  0  0  0  0  0
  124.8980  122.8760   61.9470 O   0  0  0  0  0  0  0  0  0  0  0  0
  126.4370  123.7250   60.4710 N   0  0  0  0  0  0  0  0  0  0  0  0
  127.6560  123.1590   60.8880 C   0  0  0  0  0  0  0  0  0  0  0  0
  128.2330  122.2450   60.0040 C   0  0  0  0  0  0  0  0  0  0  0  0
  129.4420  121.6310   60.3170 C   0  0  0  0  0  0  0  0  0  0  0  0
  130.0810  121.9370   61.5160 C   0  0  0  0  0  0  0  0  0  0  0  0
  129.5210  122.8530   62.4030 C   0  0  0  0  0  0  0  0  0  0  0  0
  128.3110  123.4680   62.0930 C   0  0  0  0  0  0  0  0  0  0  0  0
  125.9160  125.8510   58.3130 N   0  0  0  0  0  0  0  0  0  0  0  0
  127.3804  127.6490   59.5778 H   0  0  0  0  0  0  0  0  0  0  0  0
  128.4303  128.0425   58.1744 H   0  0  0  0  0  0  0  0  0  0  0  0
  126.7055  128.5443   58.1744 H   0  0  0  0  0  0  0  0  0  0  0  0
  128.6833  126.4200   56.4246 H   0  0  0  0  0  0  0  0  0  0  0  0
  129.0802  123.5190   55.5510 H   0  0  0  0  0  0  0  0  0  0  0  0
  127.6302  123.4269   54.4947 H   0  0  0  0  0  0  0  0  0  0  0  0
  128.6489  124.9064   54.4947 H   0  0  0  0  0  0  0  0  0  0  0  0
  124.2935  125.4554   60.4096 H   0  0  0  0  0  0  0  0  0  0  0  0
  123.1334  124.0919   60.7166 H   0  0  0  0  0  0  0  0  0  0  0  0
  126.5140  124.3100   59.6510 H   0  0  0  0  0  0  0  0  0  0  0  0
  127.7292  122.0090   59.0551 H   0  0  0  0  0  0  0  0  0  0  0  0
  129.8908  120.9074   59.6206 H   0  0  0  0  0  0  0  0  0  0  0  0
  131.0361  121.4511   61.7645 H   0  0  0  0  0  0  0  0  0  0  0  0
  130.0337  123.0902   63.3468 H   0  0  0  0  0  0  0  0  0  0  0  0
  127.8681  124.1947   62.7900 H   0  0  0  0  0  0  0  0  0  0  0  0
  1  2  1  0
  2  3  2  0
  3  4  1  0
  4  5  1  0
  4  6  2  0
  6  7  1  0
  7  8  3  0
  6  9  1  0
  9 10  1  0
 10 11  1  0
 11 12  1  0
 12 13  2  0
 12 14  1  0
 14 15  1  0
 15 16  2  0
 16 17  1  0
 17 18  2  0
 18 19  1  0
 19 20  2  0
  9 21  2  0
 21  2  1  0
 20 15  1  0
  1 22  1  0
  1 23  1  0
  1 24  1  0
  3 25  1  0
  5 26  1  0
  5 27  1  0
  5 28  1  0
 11 29  1  0
 11 30  1  0
 14 31  1  0
 16 32  1  0
 17 33  1  0
 18 34  1  0
 19 35  1  0
 20 36  1  0
M  END
>  <Binding energies>  (1) 
[-6.92]

>  <Ligand effiencies>  (1) 
[-0.3145454545454545]

>  <Interactions>  (1) 
["V-B:TYR:539:CD2:9845, V-B:MET:535:CE:9806, V-B:ASP:366:CG:8184, V-B:TYR:539:CE2:9847, V-B:TYR:539:C:9838, V-B:PRO:540:CD:9858, V-B:PRO:540:N:9855, V-B:LEU:363:CA:8156, V-B:PRO:540:CB:9856, H-B:TYR:531:OH:9766, V-B:PRO:540:CA:9854, V-B:LEU:363:CD1:8160, V-B:TYR:539:CZ:9848, H-B:ALA:541:N:9862, V-B:TYR:539:CD1:9844, V-B:TYR:539:CE1:9846, V-B:ALA:541:CB:9863, H-B:TYR:539:N:9841, V-B:PRO:540:C:9852, V-B:ASN:362:CB:8147, V-B:ASN:362:C:8143"]

$$$$
1e_Grossjean_2025
     RDKit          3D

 38 39  0  0  0  0  0  0  0  0999 V2000
  123.7350  129.6670   67.5240 C   0  0  0  0  0  0  0  0  0  0  0  0
  124.6620  129.7500   66.3250 C   0  0  0  0  0  0  0  0  0  0  0  0
  126.0440  129.5900   66.4570 C   0  0  0  0  0  0  0  0  0  0  0  0
  126.8340  129.6820   65.3110 C   0  0  0  0  0  0  0  0  0  0  0  0
  126.2330  129.9310   64.0750 C   0  0  0  0  0  0  0  0  0  0  0  0
  124.8410  130.0760   64.0130 C   0  0  0  0  0  0  0  0  0  0  0  0
  124.2950  130.3360   62.7440 N   0  0  0  0  0  0  0  0  0  0  0  0
  123.9010  131.5190   62.2240 C   0  0  0  0  0  0  0  0  0  0  0  0
  123.9530  132.6010   62.8120 O   0  0  0  0  0  0  0  0  0  0  0  0
  123.3270  131.4660   60.8070 C   0  0  0  0  0  0  0  0  0  0  0  0
  124.1600  132.6350   59.6910 S   0  0  0  0  0  0  0  0  0  0  0  0
  125.5460  133.3540   60.5500 C   0  0  0  0  0  0  0  0  0  0  0  0
  126.6680  132.5910   60.4980 N   0  0  0  0  0  0  0  0  0  0  0  0
  127.7870  133.0330   61.1180 C   0  0  0  0  0  0  0  0  0  0  0  0
  129.0010  132.1320   61.0110 C   0  0  0  0  0  0  0  0  0  0  0  0
  127.8320  134.2370   61.8180 C   0  0  0  0  0  0  0  0  0  0  0  0
  126.6760  135.0190   61.8990 C   0  0  0  0  0  0  0  0  0  0  0  0
  126.7470  136.3260   62.6890 C   0  0  0  0  0  0  0  0  0  0  0  0
  125.4940  134.5760   61.2630 C   0  0  0  0  0  0  0  0  0  0  0  0
  124.2600  135.3550   61.3870 C   0  0  0  0  0  0  0  0  0  0  0  0
  123.2860  135.9720   61.4860 N   0  0  0  0  0  0  0  0  0  0  0  0
  124.0630  129.9910   65.1320 N   0  0  0  0  0  0  0  0  0  0  0  0
  124.3270  129.7200   68.4496 H   0  0  0  0  0  0  0  0  0  0  0  0
  123.0230  130.5050   67.4957 H   0  0  0  0  0  0  0  0  0  0  0  0
  123.1832  128.7159   67.4957 H   0  0  0  0  0  0  0  0  0  0  0  0
  126.4976  129.3963   67.4402 H   0  0  0  0  0  0  0  0  0  0  0  0
  127.9249  129.5591   65.3804 H   0  0  0  0  0  0  0  0  0  0  0  0
  126.8437  130.0121   63.1637 H   0  0  0  0  0  0  0  0  0  0  0  0
  124.1330  129.5160   62.1770 H   0  0  0  0  0  0  0  0  0  0  0  0
  123.4513  130.4472   60.4113 H   0  0  0  0  0  0  0  0  0  0  0  0
  122.2643  131.7452   60.8600 H   0  0  0  0  0  0  0  0  0  0  0  0
  129.3535  131.8704   62.0196 H   0  0  0  0  0  0  0  0  0  0  0  0
  128.7300  131.2146   60.4679 H   0  0  0  0  0  0  0  0  0  0  0  0
  129.8006  132.6571   60.4679 H   0  0  0  0  0  0  0  0  0  0  0  0
  128.7639  134.5675   62.3000 H   0  0  0  0  0  0  0  0  0  0  0  0
  126.7350  136.1044   63.7664 H   0  0  0  0  0  0  0  0  0  0  0  0
  127.6754  136.8583   62.4345 H   0  0  0  0  0  0  0  0  0  0  0  0
  125.8817  136.9557   62.4345 H   0  0  0  0  0  0  0  0  0  0  0  0
  1  2  1  0
  2  3  2  0
  3  4  1  0
  4  5  2  0
  5  6  1  0
  6  7  1  0
  7  8  1  0
  8  9  2  0
  8 10  1  0
 10 11  1  0
 11 12  1  0
 12 13  2  0
 13 14  1  0
 14 15  1  0
 14 16  2  0
 16 17  1  0
 17 18  1  0
 17 19  2  0
 19 20  1  0
 20 21  3  0
  6 22  2  0
 22  2  1  0
 19 12  1  0
  1 23  1  0
  1 24  1  0
  1 25  1  0
  3 26  1  0
  4 27  1  0
  5 28  1  0
  7 29  1  0
 10 30  1  0
 10 31  1  0
 15 32  1  0
 15 33  1  0
 15 34  1  0
 16 35  1  0
 18 36  1  0
 18 37  1  0
 18 38  1  0
M  END
>  <Binding energies>  (1) 
[-7.36]

>  <Ligand effiencies>  (1) 
[-0.32]

>  <Interactions>  (1) 
["V-B:ASP:366:CG:8184, H-B:ASP:366:OD2:8186, V-B:ASP:366:CB:8183, V-B:PRO:482:CB:9297, V-B:LEU:475:CD1:9229, V-B:TRP:381:CH2:8343, V-A:TYR:539:CD2:4874, V-A:ALA:541:CB:4892, V-B:PRO:482:CG:9298, V-B:TRP:381:CZ2:8341, V-B:ILE:369:CD1:8210, H-B:GLY:454:N:9021, V-B:HIS:456:CE1:9041, H-B:ARG:545:NH2:9899, H-B:ARG:545:NE:9895, V-B:ILE:369:CG2:8208, V-A:TYR:539:CE2:4876, V-B:ASP:366:CA:8181, V-B:ARG:545:CZ:9897, V-B:ARG:545:CG:9893, V-B:ILE:369:CB:8207, V-B:ARG:545:CD:9894, H-B:ASP:366:OD1:8185, V-B:ILE:455:C:9023, V-B:ARG:545:CB:9892"]

$$$$
1f_Grossjean_2025
     RDKit          3D

 35 36  0  0  0  0  0  0  0  0999 V2000
  123.3640  135.5680   61.7690 C   0  0  0  0  0  0  0  0  0  0  0  0
  124.7920  135.0700   61.6430 C   0  0  0  0  0  0  0  0  0  0  0  0
  125.8780  135.9290   61.7870 C   0  0  0  0  0  0  0  0  0  0  0  0
  127.1720  135.4160   61.6480 C   0  0  0  0  0  0  0  0  0  0  0  0
  128.3480  136.3810   61.7910 C   0  0  0  0  0  0  0  0  0  0  0  0
  127.3450  134.0400   61.3740 C   0  0  0  0  0  0  0  0  0  0  0  0
  128.6900  133.4950   61.1690 C   0  0  0  0  0  0  0  0  0  0  0  0
  129.7520  133.0660   61.0080 N   0  0  0  0  0  0  0  0  0  0  0  0
  126.1850  133.2360   61.2720 C   0  0  0  0  0  0  0  0  0  0  0  0
  126.2050  131.4870   60.9320 S   0  0  0  0  0  0  0  0  0  0  0  0
  125.6840  131.2300   59.2020 C   0  0  0  0  0  0  0  0  0  0  0  0
  126.7790  131.4760   58.1530 C   0  0  0  0  0  0  0  0  0  0  0  0
  126.5500  131.2940   56.9570 O   0  0  0  0  0  0  0  0  0  0  0  0
  127.9670  131.8660   58.6630 N   0  0  0  0  0  0  0  0  0  0  0  0
  129.1690  132.1800   58.0020 C   0  0  0  0  0  0  0  0  0  0  0  0
  130.4530  131.7510   58.3880 C   0  0  0  0  0  0  0  0  0  0  0  0
  131.5650  132.1360   57.6340 C   0  0  0  0  0  0  0  0  0  0  0  0
  131.3660  132.9380   56.5100 C   0  0  0  0  0  0  0  0  0  0  0  0
  130.1400  133.3600   56.1140 N   0  0  0  0  0  0  0  0  0  0  0  0
  129.0680  132.9780   56.8570 C   0  0  0  0  0  0  0  0  0  0  0  0
  124.9340  133.7490   61.3850 N   0  0  0  0  0  0  0  0  0  0  0  0
  123.1003  135.6600   62.8330 H   0  0  0  0  0  0  0  0  0  0  0  0
  123.2741  136.5506   61.2827 H   0  0  0  0  0  0  0  0  0  0  0  0
  122.6826  134.8544   61.2827 H   0  0  0  0  0  0  0  0  0  0  0  0
  125.7209  136.9953   62.0068 H   0  0  0  0  0  0  0  0  0  0  0  0
  128.5552  136.5510   62.8579 H   0  0  0  0  0  0  0  0  0  0  0  0
  129.2375  135.9490   61.3090 H   0  0  0  0  0  0  0  0  0  0  0  0
  128.0980  137.3377   61.3090 H   0  0  0  0  0  0  0  0  0  0  0  0
  125.3403  130.1901   59.0996 H   0  0  0  0  0  0  0  0  0  0  0  0
  124.8954  131.9710   59.0042 H   0  0  0  0  0  0  0  0  0  0  0  0
  128.0180  131.9320   59.6700 H   0  0  0  0  0  0  0  0  0  0  0  0
  130.5803  131.1167   59.2776 H   0  0  0  0  0  0  0  0  0  0  0  0
  132.5766  131.8132   57.9210 H   0  0  0  0  0  0  0  0  0  0  0  0
  132.2426  133.2414   55.9189 H   0  0  0  0  0  0  0  0  0  0  0  0
  128.0690  133.3136   56.5419 H   0  0  0  0  0  0  0  0  0  0  0  0
  1  2  1  0
  2  3  2  0
  3  4  1  0
  4  5  1  0
  4  6  2  0
  6  7  1  0
  7  8  3  0
  6  9  1  0
  9 10  1  0
 10 11  1  0
 11 12  1  0
 12 13  2  0
 12 14  1  0
 14 15  1  0
 15 16  2  0
 16 17  1  0
 17 18  2  0
 18 19  1  0
 19 20  2  0
  9 21  2  0
 21  2  1  0
 20 15  1  0
  1 22  1  0
  1 23  1  0
  1 24  1  0
  3 25  1  0
  5 26  1  0
  5 27  1  0
  5 28  1  0
 11 29  1  0
 11 30  1  0
 14 31  1  0
 16 32  1  0
 17 33  1  0
 18 34  1  0
 20 35  1  0
M  END
>  <Binding energies>  (1) 
[-6.8]

>  <Ligand effiencies>  (1) 
[-0.3090909090909091]

>  <Interactions>  (1) 
["V-A:PRO:540:N:4884, V-B:PRO:482:CB:9297, V-B:LEU:475:CD1:9229, V-B:TRP:381:CH2:8343, V-A:PRO:540:CB:4885, V-A:TYR:539:CD2:4874, V-A:ALA:541:CB:4892, V-B:PRO:482:CG:9298, V-B:TRP:381:CZ2:8341, H-A:ALA:541:N:4891, V-A:ALA:541:CA:4890, V-A:PRO:540:CA:4883, V-A:TYR:539:C:4867, V-B:ILE:369:CG2:8208, V-A:TYR:539:CE2:4876, V-A:TYR:539:CZ:4877, V-A:LEU:363:CD1:3188, H-A:TYR:539:OH:4878, H-A:TYR:539:N:4870, V-B:SER:385:CA:8378, V-A:TYR:539:CG:4872, V-B:SER:385:C:8376, V-A:TYR:539:CD1:4873, V-A:ILE:538:CB:4862, V-A:PRO:540:CD:4887, V-A:TYR:539:CE1:4875, V-A:PRO:540:C:4881"]

$$$$
1g_Grossjean_2025
     RDKit          3D

 39 40  0  0  0  0  0  0  0  0999 V2000
  126.9640  127.8800   58.6030 C   0  0  0  0  0  0  0  0  0  0  0  0
  126.7130  126.5220   57.9740 C   0  0  0  0  0  0  0  0  0  0  0  0
  127.5960  125.9730   57.0460 C   0  0  0  0  0  0  0  0  0  0  0  0
  127.3040  124.7240   56.4880 C   0  0  0  0  0  0  0  0  0  0  0  0
  128.2790  124.1490   55.4600 C   0  0  0  0  0  0  0  0  0  0  0  0
  126.1300  124.0460   56.8840 C   0  0  0  0  0  0  0  0  0  0  0  0
  125.7770  122.7610   56.2750 C   0  0  0  0  0  0  0  0  0  0  0  0
  125.5010  121.7470   55.7900 N   0  0  0  0  0  0  0  0  0  0  0  0
  125.3040  124.6670   57.8520 C   0  0  0  0  0  0  0  0  0  0  0  0
  123.7970  123.9520   58.4700 S   0  0  0  0  0  0  0  0  0  0  0  0
  123.7470  124.2620   60.2600 C   0  0  0  0  0  0  0  0  0  0  0  0
  125.1050  124.0200   60.9220 C   0  0  0  0  0  0  0  0  0  0  0  0
  125.3730  122.9120   61.3910 O   0  0  0  0  0  0  0  0  0  0  0  0
  125.9460  125.0670   60.9560 N   0  0  0  0  0  0  0  0  0  0  0  0
  127.3090  125.0440   61.4860 C   0  0  0  0  0  0  0  0  0  0  0  0
  128.1040  123.7940   61.1190 C   0  0  0  0  0  0  0  0  0  0  0  0
  128.9490  123.2020   62.0630 C   0  0  0  0  0  0  0  0  0  0  0  0
  129.6740  122.0610   61.7280 C   0  0  0  0  0  0  0  0  0  0  0  0
  129.5480  121.5130   60.4530 C   0  0  0  0  0  0  0  0  0  0  0  0
  128.7040  122.0950   59.5100 C   0  0  0  0  0  0  0  0  0  0  0  0
  127.9800  123.2370   59.8430 C   0  0  0  0  0  0  0  0  0  0  0  0
  125.5830  125.8890   58.3710 N   0  0  0  0  0  0  0  0  0  0  0  0
  126.9465  127.7854   59.6988 H   0  0  0  0  0  0  0  0  0  0  0  0
  127.9469  128.2562   58.2831 H   0  0  0  0  0  0  0  0  0  0  0  0
  126.1805  128.5827   58.2831 H   0  0  0  0  0  0  0  0  0  0  0  0
  128.5091  126.5139   56.7566 H   0  0  0  0  0  0  0  0  0  0  0  0
  129.1134  123.6569   55.9812 H   0  0  0  0  0  0  0  0  0  0  0  0
  127.7563  123.4146   54.8296 H   0  0  0  0  0  0  0  0  0  0  0  0
  128.6688  124.9618   54.8296 H   0  0  0  0  0  0  0  0  0  0  0  0
  123.4497  125.3071   60.4312 H   0  0  0  0  0  0  0  0  0  0  0  0
  123.0228  123.5641   60.7055 H   0  0  0  0  0  0  0  0  0  0  0  0
  125.6520  125.9340   60.5290 H   0  0  0  0  0  0  0  0  0  0  0  0
  127.8457  125.9209   61.0948 H   0  0  0  0  0  0  0  0  0  0  0  0
  127.2210  125.0510   62.5825 H   0  0  0  0  0  0  0  0  0  0  0  0
  129.0410  123.6371   63.0691 H   0  0  0  0  0  0  0  0  0  0  0  0
  130.3429  121.5947   62.4663 H   0  0  0  0  0  0  0  0  0  0  0  0
  130.1207  120.6119   60.1886 H   0  0  0  0  0  0  0  0  0  0  0  0
  128.6098  121.6544   58.5065 H   0  0  0  0  0  0  0  0  0  0  0  0
  127.3112  123.7003   59.1026 H   0  0  0  0  0  0  0  0  0  0  0  0
  1  2  1  0
  2  3  2  0
  3  4  1  0
  4  5  1  0
  4  6  2  0
  6  7  1  0
  7  8  3  0
  6  9  1  0
  9 10  1  0
 10 11  1  0
 11 12  1  0
 12 13  2  0
 12 14  1  0
 14 15  1  0
 15 16  1  0
 16 17  2  0
 17 18  1  0
 18 19  2  0
 19 20  1  0
 20 21  2  0
  9 22  2  0
 22  2  1  0
 21 16  1  0
  1 23  1  0
  1 24  1  0
  1 25  1  0
  3 26  1  0
  5 27  1  0
  5 28  1  0
  5 29  1  0
 11 30  1  0
 11 31  1  0
 14 32  1  0
 15 33  1  0
 15 34  1  0
 17 35  1  0
 18 36  1  0
 19 37  1  0
 20 38  1  0
 21 39  1  0
M  END
>  <Binding energies>  (1) 
[-7.38]

>  <Ligand effiencies>  (1) 
[-0.3208695652173913]

>  <Interactions>  (1) 
["V-B:TYR:539:CD2:9845, V-B:MET:535:CE:9806, V-B:ASP:366:CG:8184, V-B:TYR:539:CE2:9847, V-B:TYR:539:C:9838, V-B:PRO:540:CD:9858, H-B:ASP:366:OD2:8186, V-B:PRO:540:N:9855, V-B:LEU:363:CA:8156, V-B:PRO:540:CB:9856, H-B:TYR:531:OH:9766, V-B:PRO:540:CA:9854, V-B:LEU:363:CD1:8160, V-B:TYR:539:CZ:9848, H-B:ALA:541:N:9862, V-B:TYR:539:CE1:9846, V-B:ALA:541:CB:9863, H-B:TYR:539:N:9841, V-B:ASN:362:CB:8147, V-B:ASN:362:C:8143, H-B:LEU:363:N:8157"]

$$$$
1h_Grossjean_2025
     RDKit          3D

 51 52  0  0  0  0  0  0  0  0999 V2000
  131.8710  133.0200   55.9670 C   0  0  0  0  0  0  0  0  0  0  0  0
  130.8750  133.4360   56.8940 O   0  0  0  0  0  0  0  0  0  0  0  0
  130.0310  132.4930   57.4520 C   0  0  0  0  0  0  0  0  0  0  0  0
  128.6470  132.4450   57.2200 C   0  0  0  0  0  0  0  0  0  0  0  0
  127.8540  131.4720   57.8280 C   0  0  0  0  0  0  0  0  0  0  0  0
  126.3540  131.4170   57.5500 C   0  0  0  0  0  0  0  0  0  0  0  0
  125.5230  131.5330   58.7470 N   0  0  0  0  0  0  0  0  0  0  0  0
  124.1950  131.7530   58.7530 C   0  0  0  0  0  0  0  0  0  0  0  0
  123.5160  131.8580   57.7330 O   0  0  0  0  0  0  0  0  0  0  0  0
  123.5320  131.8810   60.1250 C   0  0  0  0  0  0  0  0  0  0  0  0
  124.7010  131.5530   61.4790 S   0  0  0  0  0  0  0  0  0  0  0  0
  125.9010  132.8740   61.5070 C   0  0  0  0  0  0  0  0  0  0  0  0
  127.1820  132.5130   61.2300 N   0  0  0  0  0  0  0  0  0  0  0  0
  128.1420  133.4670   61.2300 C   0  0  0  0  0  0  0  0  0  0  0  0
  129.5450  132.9880   60.9080 C   0  0  0  0  0  0  0  0  0  0  0  0
  127.8730  134.8060   61.5050 C   0  0  0  0  0  0  0  0  0  0  0  0
  126.5590  135.1890   61.7940 C   0  0  0  0  0  0  0  0  0  0  0  0
  126.2850  136.6620   62.0910 C   0  0  0  0  0  0  0  0  0  0  0  0
  125.5400  134.2100   61.7990 C   0  0  0  0  0  0  0  0  0  0  0  0
  124.1550  134.5820   62.1010 C   0  0  0  0  0  0  0  0  0  0  0  0
  123.0610  134.8760   62.3400 N   0  0  0  0  0  0  0  0  0  0  0  0
  128.4480  130.5110   58.6480 C   0  0  0  0  0  0  0  0  0  0  0  0
  129.8310  130.5320   58.8920 C   0  0  0  0  0  0  0  0  0  0  0  0
  130.4860  129.6150   59.6940 O   0  0  0  0  0  0  0  0  0  0  0  0
  130.8420  129.9770   61.0240 C   0  0  0  0  0  0  0  0  0  0  0  0
  130.6090  131.5340   58.2970 C   0  0  0  0  0  0  0  0  0  0  0  0
  131.9640  131.5630   58.5230 O   0  0  0  0  0  0  0  0  0  0  0  0
  132.6700  130.4730   57.9450 C   0  0  0  0  0  0  0  0  0  0  0  0
  132.7512  132.6524   56.5149 H   0  0  0  0  0  0  0  0  0  0  0  0
  131.4698  132.2142   55.3347 H   0  0  0  0  0  0  0  0  0  0  0  0
  132.1621  133.8718   55.3347 H   0  0  0  0  0  0  0  0  0  0  0  0
  128.1825  133.1839   56.5505 H   0  0  0  0  0  0  0  0  0  0  0  0
  126.0978  132.2425   56.8697 H   0  0  0  0  0  0  0  0  0  0  0  0
  126.1472  130.4287   57.1134 H   0  0  0  0  0  0  0  0  0  0  0  0
  126.0050  131.4740   59.6320 H   0  0  0  0  0  0  0  0  0  0  0  0
  123.1381  132.9021   60.2353 H   0  0  0  0  0  0  0  0  0  0  0  0
  122.7256  131.1352   60.1839 H   0  0  0  0  0  0  0  0  0  0  0  0
  130.0924  132.8011   61.8436 H   0  0  0  0  0  0  0  0  0  0  0  0
  129.4897  132.0578   60.3234 H   0  0  0  0  0  0  0  0  0  0  0  0
  130.0701  133.7578   60.3234 H   0  0  0  0  0  0  0  0  0  0  0  0
  128.6821  135.5512   61.4950 H   0  0  0  0  0  0  0  0  0  0  0  0
  126.2561  136.8173   63.1796 H   0  0  0  0  0  0  0  0  0  0  0  0
  127.0838  137.2790   61.6536 H   0  0  0  0  0  0  0  0  0  0  0  0
  125.3178  136.9505   61.6536 H   0  0  0  0  0  0  0  0  0  0  0  0
  127.8262  129.7289   59.1080 H   0  0  0  0  0  0  0  0  0  0  0  0
  130.2543  129.3794   61.7364 H   0  0  0  0  0  0  0  0  0  0  0  0
  131.9137  129.7859   61.1816 H   0  0  0  0  0  0  0  0  0  0  0  0
  130.6330  131.0454   61.1816 H   0  0  0  0  0  0  0  0  0  0  0  0
  133.0814  129.8379   58.7434 H   0  0  0  0  0  0  0  0  0  0  0  0
  131.9837  129.8805   57.3222 H   0  0  0  0  0  0  0  0  0  0  0  0
  133.4913  130.8571   57.3222 H   0  0  0  0  0  0  0  0  0  0  0  0
  1  2  1  0
  2  3  1  0
  3  4  2  0
  4  5  1  0
  5  6  1  0
  6  7  1  0
  7  8  1  0
  8  9  2  0
  8 10  1  0
 10 11  1  0
 11 12  1  0
 12 13  2  0
 13 14  1  0
 14 15  1  0
 14 16  2  0
 16 17  1  0
 17 18  1  0
 17 19  2  0
 19 20  1  0
 20 21  3  0
  5 22  2  0
 22 23  1  0
 23 24  1  0
 24 25  1  0
 23 26  2  0
 26 27  1  0
 27 28  1  0
 26  3  1  0
 19 12  1  0
  1 29  1  0
  1 30  1  0
  1 31  1  0
  4 32  1  0
  6 33  1  0
  6 34  1  0
  7 35  1  0
 10 36  1  0
 10 37  1  0
 15 38  1  0
 15 39  1  0
 15 40  1  0
 16 41  1  0
 18 42  1  0
 18 43  1  0
 18 44  1  0
 22 45  1  0
 25 46  1  0
 25 47  1  0
 25 48  1  0
 28 49  1  0
 28 50  1  0
 28 51  1  0
M  END
>  <Binding energies>  (1) 
[-6.65]

>  <Ligand effiencies>  (1) 
[-0.22931034482758622]

>  <Interactions>  (1) 
["V-A:ASP:366:CG:3212, V-A:ASP:366:CB:3211, V-B:PRO:482:CB:9297, V-B:LEU:475:CD1:9229, V-B:TRP:381:CH2:8343, V-A:TYR:539:CD2:4874, V-A:ALA:541:CB:4892, V-B:TRP:381:CZ2:8341, V-A:PRO:540:CA:4883, V-A:TYR:539:C:4867, V-B:ILE:369:CD1:8210, V-B:ILE:369:CG2:8208, V-A:TYR:539:CE2:4876, V-A:TYR:539:CZ:4877, V-B:ASP:366:CA:8181, V-A:TYR:531:CE2:4793, V-A:LEU:363:CD1:3188, H-A:TYR:539:OH:4878, V-B:ILE:369:CB:8207, H-A:TYR:539:N:4870, V-B:TRP:381:CE2:8338, V-A:ILE:538:CA:4860, V-A:ILE:538:CB:4862, V-A:PRO:540:CD:4887, V-A:ILE:538:CG2:4863, V-A:PRO:540:C:4881, H-B:ASN:370:N:8215"]

$$$$
1i_Grossjean_2025
     RDKit          3D

 32 33  0  0  0  0  0  0  0  0999 V2000
  123.3530  135.5220   61.7350 C   0  0  0  0  0  0  0  0  0  0  0  0
  124.7820  135.0440   61.5530 C   0  0  0  0  0  0  0  0  0  0  0  0
  125.8660  135.9000   61.7310 C   0  0  0  0  0  0  0  0  0  0  0  0
  127.1620  135.4010   61.5590 C   0  0  0  0  0  0  0  0  0  0  0  0
  128.3350  136.3540   61.7760 C   0  0  0  0  0  0  0  0  0  0  0  0
  127.3380  134.0430   61.2020 C   0  0  0  0  0  0  0  0  0  0  0  0
  128.6870  133.4880   61.0660 C   0  0  0  0  0  0  0  0  0  0  0  0
  129.7540  133.0510   60.9610 N   0  0  0  0  0  0  0  0  0  0  0  0
  126.1790  133.2540   61.0180 C   0  0  0  0  0  0  0  0  0  0  0  0
  126.2150  131.5330   60.5690 S   0  0  0  0  0  0  0  0  0  0  0  0
  125.8730  131.4220   58.7870 C   0  0  0  0  0  0  0  0  0  0  0  0
  127.1570  131.4130   57.9540 C   0  0  0  0  0  0  0  0  0  0  0  0
  127.3200  130.5340   57.1060 O   0  0  0  0  0  0  0  0  0  0  0  0
  128.0330  132.4050   58.2240 N   0  0  0  0  0  0  0  0  0  0  0  0
  129.2650  132.6250   57.6240 C   0  0  0  0  0  0  0  0  0  0  0  0
  130.4370  131.9940   58.0380 C   0  0  0  0  0  0  0  0  0  0  0  0
  131.4170  132.4760   57.2020 C   0  0  0  0  0  0  0  0  0  0  0  0
  130.8650  133.3530   56.3300 O   0  0  0  0  0  0  0  0  0  0  0  0
  129.5000  133.4400   56.6090 N   0  0  0  0  0  0  0  0  0  0  0  0
  124.9270  133.7420   61.2070 N   0  0  0  0  0  0  0  0  0  0  0  0
  123.1257  135.5980   62.8086 H   0  0  0  0  0  0  0  0  0  0  0  0
  123.2337  136.5090   61.2642 H   0  0  0  0  0  0  0  0  0  0  0  0
  122.6639  134.8054   61.2642 H   0  0  0  0  0  0  0  0  0  0  0  0
  125.7057  136.9537   62.0030 H   0  0  0  0  0  0  0  0  0  0  0  0
  128.5023  136.4899   62.8547 H   0  0  0  0  0  0  0  0  0  0  0  0
  129.2402  135.9323   61.3148 H   0  0  0  0  0  0  0  0  0  0  0  0
  128.1076  137.3264   61.3148 H   0  0  0  0  0  0  0  0  0  0  0  0
  125.3157  130.4943   58.5899 H   0  0  0  0  0  0  0  0  0  0  0  0
  125.2881  132.3078   58.4984 H   0  0  0  0  0  0  0  0  0  0  0  0
  127.7920  133.0460   58.9660 H   0  0  0  0  0  0  0  0  0  0  0  0
  130.5529  131.2679   58.8561 H   0  0  0  0  0  0  0  0  0  0  0  0
  132.4797  132.1941   57.2362 H   0  0  0  0  0  0  0  0  0  0  0  0
  1  2  1  0
  2  3  2  0
  3  4  1  0
  4  5  1  0
  4  6  2  0
  6  7  1  0
  7  8  3  0
  6  9  1  0
  9 10  1  0
 10 11  1  0
 11 12  1  0
 12 13  2  0
 12 14  1  0
 14 15  1  0
 15 16  1  0
 16 17  2  0
 17 18  1  0
 18 19  1  0
  9 20  2  0
 20  2  1  0
 19 15  2  0
  1 21  1  0
  1 22  1  0
  1 23  1  0
  3 24  1  0
  5 25  1  0
  5 26  1  0
  5 27  1  0
 11 28  1  0
 11 29  1  0
 14 30  1  0
 16 31  1  0
 17 32  1  0
M  END
>  <Binding energies>  (1) 
[-6.83]

>  <Ligand effiencies>  (1) 
[-0.3252380952380952]

>  <Interactions>  (1) 
["V-A:PRO:540:N:4884, V-B:PRO:482:CB:9297, V-B:LEU:475:CD1:9229, V-B:TRP:381:CH2:8343, V-A:TYR:539:CD2:4874, V-A:ALA:541:CB:4892, V-B:PRO:482:CG:9298, V-B:TRP:381:CZ2:8341, H-A:ALA:541:N:4891, V-A:ALA:541:CA:4890, V-A:PRO:540:CA:4883, V-A:TYR:539:C:4867, V-B:ILE:369:CG2:8208, V-A:TYR:539:CE2:4876, V-A:TYR:539:CZ:4877, H-A:TYR:539:O:4868, H-A:TYR:539:N:4870, V-B:SER:385:CA:8378, V-B:SER:385:C:8376, V-A:PRO:540:C:4881"]

$$$$
1j_Grossjean_2025
     RDKit          3D

 32 33  0  0  0  0  0  0  0  0999 V2000
  127.3640  127.7690   58.2930 C   0  0  0  0  0  0  0  0  0  0  0  0
  126.9770  126.4410   57.6690 C   0  0  0  0  0  0  0  0  0  0  0  0
  127.7350  125.8650   56.6520 C   0  0  0  0  0  0  0  0  0  0  0  0
  127.3370  124.6330   56.1240 C   0  0  0  0  0  0  0  0  0  0  0  0
  128.1940  124.0120   55.0220 C   0  0  0  0  0  0  0  0  0  0  0  0
  126.1740  124.0080   56.6270 C   0  0  0  0  0  0  0  0  0  0  0  0
  125.7680  122.6920   56.1250 C   0  0  0  0  0  0  0  0  0  0  0  0
  125.4510  121.6530   55.7280 N   0  0  0  0  0  0  0  0  0  0  0  0
  125.4510  124.6780   57.6420 C   0  0  0  0  0  0  0  0  0  0  0  0
  123.9660  124.0400   58.3880 S   0  0  0  0  0  0  0  0  0  0  0  0
  124.0700  124.3480   60.1760 C   0  0  0  0  0  0  0  0  0  0  0  0
  125.1860  123.5350   60.8340 C   0  0  0  0  0  0  0  0  0  0  0  0
  124.9350  122.8630   61.8350 O   0  0  0  0  0  0  0  0  0  0  0  0
  126.3970  123.6230   60.2420 N   0  0  0  0  0  0  0  0  0  0  0  0
  127.5650  122.9920   60.6470 C   0  0  0  0  0  0  0  0  0  0  0  0
  128.0460  122.8910   61.8680 N   0  0  0  0  0  0  0  0  0  0  0  0
  129.1810  122.2200   61.8870 C   0  0  0  0  0  0  0  0  0  0  0  0
  129.6440  121.7580   60.6580 C   0  0  0  0  0  0  0  0  0  0  0  0
  128.5230  122.2330   59.4170 S   0  0  0  0  0  0  0  0  0  0  0  0
  125.8570  125.8630   58.1640 N   0  0  0  0  0  0  0  0  0  0  0  0
  127.3382  127.6804   59.3891 H   0  0  0  0  0  0  0  0  0  0  0  0
  128.3794  128.0433   57.9711 H   0  0  0  0  0  0  0  0  0  0  0  0
  126.6549  128.5459   57.9711 H   0  0  0  0  0  0  0  0  0  0  0  0
  128.6334  126.3719   56.2700 H   0  0  0  0  0  0  0  0  0  0  0  0
  129.0054  123.4241   55.4759 H   0  0  0  0  0  0  0  0  0  0  0  0
  127.5698  123.3551   54.3984 H   0  0  0  0  0  0  0  0  0  0  0  0
  128.6238  124.8097   54.3984 H   0  0  0  0  0  0  0  0  0  0  0  0
  124.2654  125.4178   60.3412 H   0  0  0  0  0  0  0  0  0  0  0  0
  123.1152  124.0430   60.6292 H   0  0  0  0  0  0  0  0  0  0  0  0
  126.4820  124.2290   59.4400 H   0  0  0  0  0  0  0  0  0  0  0  0
  129.7312  122.0356   62.8215 H   0  0  0  0  0  0  0  0  0  0  0  0
  130.5693  121.1851   60.4981 H   0  0  0  0  0  0  0  0  0  0  0  0
  1  2  1  0
  2  3  2  0
  3  4  1  0
  4  5  1  0
  4  6  2  0
  6  7  1  0
  7  8  3  0
  6  9  1  0
  9 10  1  0
 10 11  1  0
 11 12  1  0
 12 13  2  0
 12 14  1  0
 14 15  1  0
 15 16  2  0
 16 17  1  0
 17 18  2  0
 18 19  1  0
  9 20  2  0
 20  2  1  0
 19 15  1  0
  1 21  1  0
  1 22  1  0
  1 23  1  0
  3 24  1  0
  5 25  1  0
  5 26  1  0
  5 27  1  0
 11 28  1  0
 11 29  1  0
 14 30  1  0
 17 31  1  0
 18 32  1  0
M  END
>  <Binding energies>  (1) 
[-6.59]

>  <Ligand effiencies>  (1) 
[-0.3138095238095238]

>  <Interactions>  (1) 
["V-B:TYR:539:CD2:9845, V-B:MET:535:CE:9806, V-B:ASP:366:CG:8184, V-B:TYR:539:CE2:9847, V-B:TYR:539:C:9838, V-B:PRO:540:CD:9858, V-B:PRO:540:N:9855, V-B:LEU:363:CA:8156, V-B:PRO:540:CB:9856, H-B:TYR:531:OH:9766, V-B:PRO:540:CA:9854, V-B:LEU:363:CD1:8160, V-B:TYR:539:CZ:9848, H-B:ALA:541:N:9862, V-B:TYR:539:CD1:9844, V-B:TYR:539:CE1:9846, V-B:ALA:541:CB:9863, H-B:TYR:539:N:9841, V-B:PRO:540:C:9852, V-B:ALA:541:CA:9861, V-B:ASN:362:CB:8147, V-B:ASN:362:C:8143"]

$$$$
1k_Grossjean_2025
     RDKit          3D

 50 50  0  0  0  0  0  0  0  0999 V2000
  132.0200  132.6520   57.1290 C   0  0  0  0  0  0  0  0  0  0  0  0
  131.1320  133.5310   56.4590 O   0  0  0  0  0  0  0  0  0  0  0  0
  129.8190  133.0060   56.3120 C   0  0  0  0  0  0  0  0  0  0  0  0
  129.0680  133.1220   57.6450 C   0  0  0  0  0  0  0  0  0  0  0  0
  128.3560  131.9160   57.8930 O   0  0  0  0  0  0  0  0  0  0  0  0
  127.7120  131.3870   56.7420 C   0  0  0  0  0  0  0  0  0  0  0  0
  127.6850  129.8560   56.8320 C   0  0  0  0  0  0  0  0  0  0  0  0
  126.5150  129.3630   56.1920 O   0  0  0  0  0  0  0  0  0  0  0  0
  125.7930  130.3580   55.4780 C   0  0  0  0  0  0  0  0  0  0  0  0
  124.5350  130.7530   56.2740 C   0  0  0  0  0  0  0  0  0  0  0  0
  124.6760  130.6050   57.7230 N   0  0  0  0  0  0  0  0  0  0  0  0
  124.1880  131.4570   58.6410 C   0  0  0  0  0  0  0  0  0  0  0  0
  123.5520  132.4710   58.3460 O   0  0  0  0  0  0  0  0  0  0  0  0
  124.4770  131.0920   60.1050 C   0  0  0  0  0  0  0  0  0  0  0  0
  126.1180  131.5920   60.7350 S   0  0  0  0  0  0  0  0  0  0  0  0
  126.0830  133.3300   61.1500 C   0  0  0  0  0  0  0  0  0  0  0  0
  124.8500  133.8740   61.3200 N   0  0  0  0  0  0  0  0  0  0  0  0
  124.7510  135.1880   61.6260 C   0  0  0  0  0  0  0  0  0  0  0  0
  123.3420  135.7230   61.7910 C   0  0  0  0  0  0  0  0  0  0  0  0
  125.8660  136.0080   61.7830 C   0  0  0  0  0  0  0  0  0  0  0  0
  127.1420  135.4590   61.6180 C   0  0  0  0  0  0  0  0  0  0  0  0
  128.3510  136.3750   61.7940 C   0  0  0  0  0  0  0  0  0  0  0  0
  127.2660  134.0890   61.2940 C   0  0  0  0  0  0  0  0  0  0  0  0
  128.5900  133.4870   61.1110 C   0  0  0  0  0  0  0  0  0  0  0  0
  129.6360  133.0130   60.9670 N   0  0  0  0  0  0  0  0  0  0  0  0
  131.9013  132.7695   58.2163 H   0  0  0  0  0  0  0  0  0  0  0  0
  131.7920  131.6140   56.8453 H   0  0  0  0  0  0  0  0  0  0  0  0
  133.0557  132.8906   56.8453 H   0  0  0  0  0  0  0  0  0  0  0  0
  129.2818  133.5740   55.5382 H   0  0  0  0  0  0  0  0  0  0  0  0
  129.8787  131.9482   56.0163 H   0  0  0  0  0  0  0  0  0  0  0  0
  129.7882  133.2967   58.4579 H   0  0  0  0  0  0  0  0  0  0  0  0
  128.3604  133.9628   57.5959 H   0  0  0  0  0  0  0  0  0  0  0  0
  126.6821  131.7698   56.6892 H   0  0  0  0  0  0  0  0  0  0  0  0
  128.2624  131.6925   55.8399 H   0  0  0  0  0  0  0  0  0  0  0  0
  128.5757  129.4440   56.3352 H   0  0  0  0  0  0  0  0  0  0  0  0
  127.6801  129.5514   57.8890 H   0  0  0  0  0  0  0  0  0  0  0  0
  126.4306  131.2433   55.3376 H   0  0  0  0  0  0  0  0  0  0  0  0
  125.4950  129.9602   54.4967 H   0  0  0  0  0  0  0  0  0  0  0  0
  124.3036  131.8058   56.0548 H   0  0  0  0  0  0  0  0  0  0  0  0
  123.7327  130.0686   55.9610 H   0  0  0  0  0  0  0  0  0  0  0  0
  125.1890  129.7950   58.0400 H   0  0  0  0  0  0  0  0  0  0  0  0
  123.7126  131.5751   60.7313 H   0  0  0  0  0  0  0  0  0  0  0  0
  124.4598  129.9931   60.1499 H   0  0  0  0  0  0  0  0  0  0  0  0
  123.1068  135.8123   62.8618 H   0  0  0  0  0  0  0  0  0  0  0  0
  123.2673  136.7121   61.3154 H   0  0  0  0  0  0  0  0  0  0  0  0
  122.6297  135.0328   61.3154 H   0  0  0  0  0  0  0  0  0  0  0  0
  125.7448  137.0723   62.0332 H   0  0  0  0  0  0  0  0  0  0  0  0
  128.5460  136.5228   62.8664 H   0  0  0  0  0  0  0  0  0  0  0  0
  129.2313  135.9152   61.3212 H   0  0  0  0  0  0  0  0  0  0  0  0
  128.1466  137.3469   61.3212 H   0  0  0  0  0  0  0  0  0  0  0  0
  1  2  1  0
  2  3  1  0
  3  4  1  0
  4  5  1  0
  5  6  1  0
  6  7  1  0
  7  8  1  0
  8  9  1  0
  9 10  1  0
 10 11  1  0
 11 12  1  0
 12 13  2  0
 12 14  1  0
 14 15  1  0
 15 16  1  0
 16 17  2  0
 17 18  1  0
 18 19  1  0
 18 20  2  0
 20 21  1  0
 21 22  1  0
 21 23  2  0
 23 24  1  0
 24 25  3  0
 23 16  1  0
  1 26  1  0
  1 27  1  0
  1 28  1  0
  3 29  1  0
  3 30  1  0
  4 31  1  0
  4 32  1  0
  6 33  1  0
  6 34  1  0
  7 35  1  0
  7 36  1  0
  9 37  1  0
  9 38  1  0
 10 39  1  0
 10 40  1  0
 11 41  1  0
 14 42  1  0
 14 43  1  0
 19 44  1  0
 19 45  1  0
 19 46  1  0
 20 47  1  0
 22 48  1  0
 22 49  1  0
 22 50  1  0
M  END
>  <Binding energies>  (1) 
[-6.73]

>  <Ligand effiencies>  (1) 
[-0.25884615384615384]

>  <Interactions>  (1) 
["V-B:ASP:366:CG:8184, H-B:TYR:531:OH:9766, V-B:TYR:531:CZ:9765, V-B:ASP:366:CB:8183, V-A:PRO:540:N:4884, V-B:PRO:482:CB:9297, V-B:LEU:475:CD1:9229, V-B:TRP:381:CH2:8343, V-A:PRO:540:CB:4885, V-A:TYR:539:CD2:4874, V-A:ALA:541:CB:4892, V-B:PRO:482:CG:9298, V-B:TRP:381:CZ2:8341, H-A:ALA:541:N:4891, V-A:ALA:541:CA:4890, V-A:PRO:540:CA:4883, V-A:TYR:539:C:4867, V-B:ILE:369:CG2:8208, V-A:TYR:539:CE2:4876, V-A:TYR:539:CZ:4877, V-B:ASP:366:CA:8181, V-A:LEU:363:CD1:3188, V-A:MET:535:CE:4835, H-A:TYR:539:OH:4878, V-B:ASN:370:CB:8216, V-B:TYR:531:CE1:9763, V-B:ASN:370:CG:8217, H-A:TYR:539:N:4870, V-A:TYR:539:CA:4869, V-B:SER:385:CA:8378, V-A:TYR:539:CG:4872, V-B:SER:385:C:8376, V-A:ILE:538:CA:4860, V-A:PRO:540:CD:4887, V-A:PRO:540:C:4881, H-B:ASN:370:N:8215"]

$$$$
1l_Grossjean_2025
     RDKit          3D

 30 30  0  0  0  0  0  0  0  0999 V2000
  124.8990  129.6270   65.4170 C   0  0  0  0  0  0  0  0  0  0  0  0
  123.7270  129.9960   64.7050 O   0  0  0  0  0  0  0  0  0  0  0  0
  123.9840  129.9970   63.3350 N   0  0  0  0  0  0  0  0  0  0  0  0
  124.1340  131.1750   62.6990 C   0  0  0  0  0  0  0  0  0  0  0  0
  124.2850  132.2520   63.2820 O   0  0  0  0  0  0  0  0  0  0  0  0
  124.1210  131.0950   61.1660 C   0  0  0  0  0  0  0  0  0  0  0  0
  124.1240  132.7070   60.3090 S   0  0  0  0  0  0  0  0  0  0  0  0
  125.5200  133.6480   60.9000 C   0  0  0  0  0  0  0  0  0  0  0  0
  126.7350  133.0600   60.7460 N   0  0  0  0  0  0  0  0  0  0  0  0
  127.8380  133.7190   61.1740 C   0  0  0  0  0  0  0  0  0  0  0  0
  129.1570  132.9990   60.9680 C   0  0  0  0  0  0  0  0  0  0  0  0
  127.7790  134.9790   61.7650 C   0  0  0  0  0  0  0  0  0  0  0  0
  126.5340  135.5950   61.9270 C   0  0  0  0  0  0  0  0  0  0  0  0
  126.4930  136.9770   62.5770 C   0  0  0  0  0  0  0  0  0  0  0  0
  125.3700  134.9250   61.4890 C   0  0  0  0  0  0  0  0  0  0  0  0
  124.0520  135.5470   61.6460 C   0  0  0  0  0  0  0  0  0  0  0  0
  123.0120  136.0390   61.7710 N   0  0  0  0  0  0  0  0  0  0  0  0
  124.7056  129.6879   66.4982 H   0  0  0  0  0  0  0  0  0  0  0  0
  125.1799  128.5970   65.1522 H   0  0  0  0  0  0  0  0  0  0  0  0
  125.7193  130.3103   65.1522 H   0  0  0  0  0  0  0  0  0  0  0  0
  123.6580  129.1540   62.8840 H   0  0  0  0  0  0  0  0  0  0  0  0
  125.0131  130.5367   60.8459 H   0  0  0  0  0  0  0  0  0  0  0  0
  123.1761  130.6030   60.8919 H   0  0  0  0  0  0  0  0  0  0  0  0
  129.5995  132.7575   61.9457 H   0  0  0  0  0  0  0  0  0  0  0  0
  128.9837  132.0703   60.4045 H   0  0  0  0  0  0  0  0  0  0  0  0
  129.8444  133.6470   60.4045 H   0  0  0  0  0  0  0  0  0  0  0  0
  128.6983  135.4821   62.0994 H   0  0  0  0  0  0  0  0  0  0  0  0
  126.4962  136.8676   63.6715 H   0  0  0  0  0  0  0  0  0  0  0  0
  127.3744  137.5558   62.2637 H   0  0  0  0  0  0  0  0  0  0  0  0
  125.5789  137.5026   62.2637 H   0  0  0  0  0  0  0  0  0  0  0  0
  1  2  1  0
  2  3  1  0
  3  4  1  0
  4  5  2  0
  4  6  1  0
  6  7  1  0
  7  8  1  0
  8  9  2  0
  9 10  1  0
 10 11  1  0
 10 12  2  0
 12 13  1  0
 13 14  1  0
 13 15  2  0
 15 16  1  0
 16 17  3  0
 15  8  1  0
  1 18  1  0
  1 19  1  0
  1 20  1  0
  3 21  1  0
  6 22  1  0
  6 23  1  0
 11 24  1  0
 11 25  1  0
 11 26  1  0
 12 27  1  0
 14 28  1  0
 14 29  1  0
 14 30  1  0
M  END
>  <Binding energies>  (1) 
[-6.06]

>  <Ligand effiencies>  (1) 
[-0.33666666666666667]

>  <Interactions>  (1) 
["V-B:ASP:366:CG:8184, H-B:ASP:366:OD2:8186, V-B:PRO:482:CB:9297, V-B:LEU:475:CD1:9229, V-B:TRP:381:CH2:8343, V-A:TYR:539:CD2:4874, V-A:ALA:541:CB:4892, V-B:PRO:482:CG:9298, V-B:TRP:381:CZ2:8341, V-A:PRO:540:CA:4883, H-B:GLY:454:N:9021, H-B:ARG:545:NH1:9898, H-B:ARG:545:NH2:9899, H-B:ARG:545:NE:9895, V-B:ILE:369:CG2:8208, V-A:TYR:539:CE2:4876, V-B:ARG:545:CZ:9897, V-B:TRP:381:CE2:8338, H-B:ASP:366:OD1:8185"]

$$$$
1m_Grossjean_2025
     RDKit          3D

 35 35  0  0  0  0  0  0  0  0999 V2000
  132.7810  125.6670   66.2580 C   0  0  0  0  0  0  0  0  0  0  0  0
  133.5050  124.7270   65.4760 O   0  0  0  0  0  0  0  0  0  0  0  0
  133.1920  124.5280   64.1800 C   0  0  0  0  0  0  0  0  0  0  0  0
  133.9610  124.6750   63.2250 O   0  0  0  0  0  0  0  0  0  0  0  0
  131.7270  124.0720   64.0150 C   0  0  0  0  0  0  0  0  0  0  0  0
  131.3390  123.8980   62.6070 N   0  0  0  0  0  0  0  0  0  0  0  0
  130.1570  123.4240   62.1700 C   0  0  0  0  0  0  0  0  0  0  0  0
  129.2570  123.0610   62.9310 O   0  0  0  0  0  0  0  0  0  0  0  0
  129.9950  123.3520   60.6460 C   0  0  0  0  0  0  0  0  0  0  0  0
  128.7850  122.1150   60.0660 S   0  0  0  0  0  0  0  0  0  0  0  0
  127.1750  122.8750   60.0700 C   0  0  0  0  0  0  0  0  0  0  0  0
  126.6370  122.9980   61.3100 N   0  0  0  0  0  0  0  0  0  0  0  0
  125.4160  123.5690   61.4360 C   0  0  0  0  0  0  0  0  0  0  0  0
  124.8890  123.6900   62.8530 C   0  0  0  0  0  0  0  0  0  0  0  0
  124.6820  124.0250   60.3430 C   0  0  0  0  0  0  0  0  0  0  0  0
  125.2160  123.8780   59.0580 C   0  0  0  0  0  0  0  0  0  0  0  0
  124.3870  124.3710   57.8740 C   0  0  0  0  0  0  0  0  0  0  0  0
  126.4890  123.2850   58.9010 C   0  0  0  0  0  0  0  0  0  0  0  0
  127.0440  123.0770   57.5620 C   0  0  0  0  0  0  0  0  0  0  0  0
  127.4830  122.9130   56.5040 N   0  0  0  0  0  0  0  0  0  0  0  0
  132.9424  125.4574   67.3257 H   0  0  0  0  0  0  0  0  0  0  0  0
  133.1316  126.6837   66.0268 H   0  0  0  0  0  0  0  0  0  0  0  0
  131.7085  125.5876   66.0268 H   0  0  0  0  0  0  0  0  0  0  0  0
  131.5969  123.1123   64.5365 H   0  0  0  0  0  0  0  0  0  0  0  0
  131.0857  124.8580   64.4404 H   0  0  0  0  0  0  0  0  0  0  0  0
  132.0370  124.1500   61.9210 H   0  0  0  0  0  0  0  0  0  0  0  0
  129.6723  124.3410   60.2885 H   0  0  0  0  0  0  0  0  0  0  0  0
  130.9714  123.0442   60.2437 H   0  0  0  0  0  0  0  0  0  0  0  0
  125.7060  123.5024   63.5653 H   0  0  0  0  0  0  0  0  0  0  0  0
  124.4904  124.7030   63.0107 H   0  0  0  0  0  0  0  0  0  0  0  0
  124.0884  122.9523   63.0107 H   0  0  0  0  0  0  0  0  0  0  0  0
  123.6974  124.4936   60.4881 H   0  0  0  0  0  0  0  0  0  0  0  0
  123.4969  124.9004   58.2447 H   0  0  0  0  0  0  0  0  0  0  0  0
  124.9926  125.0558   57.2622 H   0  0  0  0  0  0  0  0  0  0  0  0
  124.0744  123.5119   57.2622 H   0  0  0  0  0  0  0  0  0  0  0  0
  1  2  1  0
  2  3  1  0
  3  4  2  0
  3  5  1  0
  5  6  1  0
  6  7  1  0
  7  8  2  0
  7  9  1  0
  9 10  1  0
 10 11  1  0
 11 12  2  0
 12 13  1  0
 13 14  1  0
 13 15  2  0
 15 16  1  0
 16 17  1  0
 16 18  2  0
 18 19  1  0
 19 20  3  0
 18 11  1  0
  1 21  1  0
  1 22  1  0
  1 23  1  0
  5 24  1  0
  5 25  1  0
  6 26  1  0
  9 27  1  0
  9 28  1  0
 14 29  1  0
 14 30  1  0
 14 31  1  0
 15 32  1  0
 17 33  1  0
 17 34  1  0
 17 35  1  0
M  END
>  <Binding energies>  (1) 
[-6.08]

>  <Ligand effiencies>  (1) 
[-0.2895238095238095]

>  <Interactions>  (1) 
["V-B:TYR:539:CE2:9847, V-B:PRO:540:N:9855, V-B:LEU:363:CA:8156, V-B:PRO:540:CB:9856, V-B:PRO:540:CA:9854, V-B:LEU:363:CD1:8160, V-B:TYR:531:CE2:9764, H-B:ALA:541:N:9862, V-B:GLU:543:CD:9879, V-A:HIS:456:CE1:4069, V-B:GLU:543:CG:9878, H-A:TYR:484:OH:4347, V-A:GLY:454:CA:4048, V-A:ARG:545:CZ:4926, V-B:PRO:540:C:9852, V-B:ALA:541:C:9859, V-B:ASN:362:CB:8147, H-A:GLY:454:N:4049, V-A:ARG:545:CD:4923, V-B:ASN:362:CG:8148"]

$$$$
1n_Grossjean_2025
     RDKit          3D

 48 49  0  0  0  0  0  0  0  0999 V2000
  133.5150  130.7440   58.0760 C   0  0  0  0  0  0  0  0  0  0  0  0
  132.3730  131.7660   58.0770 C   0  0  0  0  0  0  0  0  0  0  0  0
  131.5700  131.5770   56.9180 O   0  0  0  0  0  0  0  0  0  0  0  0
  130.6170  132.4800   56.5710 C   0  0  0  0  0  0  0  0  0  0  0  0
  130.7930  133.3660   55.7290 O   0  0  0  0  0  0  0  0  0  0  0  0
  129.3200  132.2840   57.3040 C   0  0  0  0  0  0  0  0  0  0  0  0
  129.0940  132.8390   58.5730 C   0  0  0  0  0  0  0  0  0  0  0  0
  127.8820  132.6360   59.2260 C   0  0  0  0  0  0  0  0  0  0  0  0
  126.8770  131.8710   58.6320 C   0  0  0  0  0  0  0  0  0  0  0  0
  125.6940  131.7260   59.3830 N   0  0  0  0  0  0  0  0  0  0  0  0
  124.4100  131.6620   58.9690 C   0  0  0  0  0  0  0  0  0  0  0  0
  124.0350  131.7140   57.7970 O   0  0  0  0  0  0  0  0  0  0  0  0
  123.3620  131.5060   60.0790 C   0  0  0  0  0  0  0  0  0  0  0  0
  123.9780  131.1340   61.4450 C   0  0  0  0  0  0  0  0  0  0  0  0
  124.0590  132.5060   62.6340 S   0  0  0  0  0  0  0  0  0  0  0  0
  125.5510  133.4190   62.3040 C   0  0  0  0  0  0  0  0  0  0  0  0
  126.6770  132.6690   62.3940 N   0  0  0  0  0  0  0  0  0  0  0  0
  127.8720  133.2560   62.1470 C   0  0  0  0  0  0  0  0  0  0  0  0
  129.0860  132.3530   62.2560 C   0  0  0  0  0  0  0  0  0  0  0  0
  127.9920  134.6020   61.8080 C   0  0  0  0  0  0  0  0  0  0  0  0
  126.8380  135.3890   61.7320 C   0  0  0  0  0  0  0  0  0  0  0  0
  126.9950  136.8650   61.3730 C   0  0  0  0  0  0  0  0  0  0  0  0
  125.5800  134.7990   61.9920 C   0  0  0  0  0  0  0  0  0  0  0  0
  124.3650  135.6150   61.9690 C   0  0  0  0  0  0  0  0  0  0  0  0
  123.4060  136.2620   61.9510 N   0  0  0  0  0  0  0  0  0  0  0  0
  127.0920  131.3220   57.3600 C   0  0  0  0  0  0  0  0  0  0  0  0
  128.3040  131.5290   56.7060 C   0  0  0  0  0  0  0  0  0  0  0  0
  133.7887  130.4990   59.1129 H   0  0  0  0  0  0  0  0  0  0  0  0
  133.1890  129.8304   57.5572 H   0  0  0  0  0  0  0  0  0  0  0  0
  134.3869  131.1690   57.5572 H   0  0  0  0  0  0  0  0  0  0  0  0
  131.7566  131.6270   58.9774 H   0  0  0  0  0  0  0  0  0  0  0  0
  132.7902  132.7838   58.0735 H   0  0  0  0  0  0  0  0  0  0  0  0
  129.8803  133.4386   59.0548 H   0  0  0  0  0  0  0  0  0  0  0  0
  127.7148  133.0817   60.2176 H   0  0  0  0  0  0  0  0  0  0  0  0
  125.8460  131.6180   60.3750 H   0  0  0  0  0  0  0  0  0  0  0  0
  122.8212  132.4579   60.1863 H   0  0  0  0  0  0  0  0  0  0  0  0
  122.6932  130.6834   59.7856 H   0  0  0  0  0  0  0  0  0  0  0  0
  123.3712  130.3307   61.8882 H   0  0  0  0  0  0  0  0  0  0  0  0
  125.0164  130.8296   61.2474 H   0  0  0  0  0  0  0  0  0  0  0  0
  129.3196  132.1792   63.3168 H   0  0  0  0  0  0  0  0  0  0  0  0
  128.8733  131.3918   61.7651 H   0  0  0  0  0  0  0  0  0  0  0  0
  129.9454  132.8331   61.7651 H   0  0  0  0  0  0  0  0  0  0  0  0
  128.9802  135.0397   61.6030 H   0  0  0  0  0  0  0  0  0  0  0  0
  127.0585  137.4618   62.2948 H   0  0  0  0  0  0  0  0  0  0  0  0
  127.9129  137.0032   60.7828 H   0  0  0  0  0  0  0  0  0  0  0  0
  126.1267  137.1932   60.7828 H   0  0  0  0  0  0  0  0  0  0  0  0
  126.3023  130.7270   56.8779 H   0  0  0  0  0  0  0  0  0  0  0  0
  128.4648  131.0944   55.7084 H   0  0  0  0  0  0  0  0  0  0  0  0
  1  2  1  0
  2  3  1  0
  3  4  1  0
  4  5  2  0
  4  6  1  0
  6  7  2  0
  7  8  1  0
  8  9  2  0
  9 10  1  0
 10 11  1  0
 11 12  2  0
 11 13  1  0
 13 14  1  0
 14 15  1  0
 15 16  1  0
 16 17  2  0
 17 18  1  0
 18 19  1  0
 18 20  2  0
 20 21  1  0
 21 22  1  0
 21 23  2  0
 23 24  1  0
 24 25  3  0
  9 26  1  0
 26 27  2  0
 27  6  1  0
 23 16  1  0
  1 28  1  0
  1 29  1  0
  1 30  1  0
  2 31  1  0
  2 32  1  0
  7 33  1  0
  8 34  1  0
 10 35  1  0
 13 36  1  0
 13 37  1  0
 14 38  1  0
 14 39  1  0
 19 40  1  0
 19 41  1  0
 19 42  1  0
 20 43  1  0
 22 44  1  0
 22 45  1  0
 22 46  1  0
 26 47  1  0
 27 48  1  0
M  END
>  <Binding energies>  (1) 
[-8.03]

>  <Ligand effiencies>  (1) 
[-0.28678571428571425]

>  <Interactions>  (1) 
["V-B:ASP:366:CG:8184, V-A:ASP:366:CG:3212, V-A:ASP:366:CB:3211, V-B:ASP:366:CB:8183, V-B:PRO:482:CB:9297, V-B:LEU:475:CD1:9229, V-B:TRP:381:CH2:8343, V-A:PRO:540:CB:4885, V-A:TYR:539:CD2:4874, V-A:ALA:541:CB:4892, V-B:PRO:482:CG:9298, V-B:TRP:381:CZ2:8341, V-A:PRO:540:CA:4883, V-A:TYR:539:C:4867, V-B:ILE:369:CD1:8210, V-B:ILE:369:CG2:8208, V-A:TYR:539:CE2:4876, V-A:TYR:539:CZ:4877, V-B:ASP:366:CA:8181, V-A:TYR:531:CE2:4793, V-A:LEU:363:CD1:3188, V-A:LEU:363:CA:3184, V-A:MET:535:CE:4835, H-A:TYR:539:OH:4878, V-B:ILE:369:CB:8207, H-A:TYR:539:N:4870, V-B:TRP:381:CE2:8338, V-B:TRP:381:CZ3:8342"]

$$$$
1o_Grossjean_2025
     RDKit          3D

 45 46  0  0  0  0  0  0  0  0999 V2000
  127.8880  122.3330   58.3730 C   0  0  0  0  0  0  0  0  0  0  0  0
  127.3490  121.7700   57.1850 O   0  0  0  0  0  0  0  0  0  0  0  0
  126.7720  122.5550   56.2390 C   0  0  0  0  0  0  0  0  0  0  0  0
  126.0020  122.1230   55.3740 O   0  0  0  0  0  0  0  0  0  0  0  0
  127.1580  124.0010   56.3500 C   0  0  0  0  0  0  0  0  0  0  0  0
  126.4280  124.9070   57.1330 C   0  0  0  0  0  0  0  0  0  0  0  0
  126.8160  126.2420   57.2170 C   0  0  0  0  0  0  0  0  0  0  0  0
  127.9330  126.7000   56.5180 C   0  0  0  0  0  0  0  0  0  0  0  0
  128.2390  128.0650   56.6800 N   0  0  0  0  0  0  0  0  0  0  0  0
  127.5140  129.1600   56.3610 C   0  0  0  0  0  0  0  0  0  0  0  0
  126.3780  129.1440   55.8860 O   0  0  0  0  0  0  0  0  0  0  0  0
  128.1860  130.5080   56.6580 C   0  0  0  0  0  0  0  0  0  0  0  0
  127.4220  131.3560   57.6950 C   0  0  0  0  0  0  0  0  0  0  0  0
  128.4140  132.6860   58.4350 S   0  0  0  0  0  0  0  0  0  0  0  0
  130.1360  132.3370   58.1400 C   0  0  0  0  0  0  0  0  0  0  0  0
  130.4450  132.2170   56.8240 N   0  0  0  0  0  0  0  0  0  0  0  0
  131.7280  131.9600   56.4760 C   0  0  0  0  0  0  0  0  0  0  0  0
  131.9990  131.8530   54.9870 C   0  0  0  0  0  0  0  0  0  0  0  0
  132.7430  131.8010   57.4160 C   0  0  0  0  0  0  0  0  0  0  0  0
  132.4320  131.8980   58.7770 C   0  0  0  0  0  0  0  0  0  0  0  0
  133.5600  131.7050   59.7880 C   0  0  0  0  0  0  0  0  0  0  0  0
  131.0980  132.1610   59.1640 C   0  0  0  0  0  0  0  0  0  0  0  0
  130.7420  132.2070   60.5840 C   0  0  0  0  0  0  0  0  0  0  0  0
  130.4630  132.2440   61.7060 N   0  0  0  0  0  0  0  0  0  0  0  0
  128.6710  125.7990   55.7360 C   0  0  0  0  0  0  0  0  0  0  0  0
  128.2830  124.4640   55.6540 C   0  0  0  0  0  0  0  0  0  0  0  0
  127.4274  121.8519   59.2485 H   0  0  0  0  0  0  0  0  0  0  0  0
  128.9757  122.1704   58.3951 H   0  0  0  0  0  0  0  0  0  0  0  0
  127.6782  123.4126   58.3951 H   0  0  0  0  0  0  0  0  0  0  0  0
  125.5420  124.5605   57.6852 H   0  0  0  0  0  0  0  0  0  0  0  0
  126.2373  126.9405   57.8392 H   0  0  0  0  0  0  0  0  0  0  0  0
  129.1290  128.2380   57.1250 H   0  0  0  0  0  0  0  0  0  0  0  0
  129.1987  130.3160   57.0421 H   0  0  0  0  0  0  0  0  0  0  0  0
  128.2002  131.0787   55.7178 H   0  0  0  0  0  0  0  0  0  0  0  0
  126.5515  131.8090   57.1980 H   0  0  0  0  0  0  0  0  0  0  0  0
  127.1366  130.6782   58.5131 H   0  0  0  0  0  0  0  0  0  0  0  0
  133.0112  131.4534   54.8263 H   0  0  0  0  0  0  0  0  0  0  0  0
  131.2613  131.1786   54.5276 H   0  0  0  0  0  0  0  0  0  0  0  0
  131.9210  132.8494   54.5276 H   0  0  0  0  0  0  0  0  0  0  0  0
  133.7755  131.6018   57.0931 H   0  0  0  0  0  0  0  0  0  0  0  0
  133.1541  131.7745   60.8080 H   0  0  0  0  0  0  0  0  0  0  0  0
  134.0178  130.7155   59.6421 H   0  0  0  0  0  0  0  0  0  0  0  0
  134.3207  132.4860   59.6421 H   0  0  0  0  0  0  0  0  0  0  0  0
  129.5579  126.1476   55.1865 H   0  0  0  0  0  0  0  0  0  0  0  0
  128.8660  123.7651   55.0361 H   0  0  0  0  0  0  0  0  0  0  0  0
  1  2  1  0
  2  3  1  0
  3  4  2  0
  3  5  1  0
  5  6  2  0
  6  7  1  0
  7  8  2  0
  8  9  1  0
  9 10  1  0
 10 11  2  0
 10 12  1  0
 12 13  1  0
 13 14  1  0
 14 15  1  0
 15 16  2  0
 16 17  1  0
 17 18  1  0
 17 19  2  0
 19 20  1  0
 20 21  1  0
 20 22  2  0
 22 23  1  0
 23 24  3  0
  8 25  1  0
 25 26  2  0
 26  5  1  0
 22 15  1  0
  1 27  1  0
  1 28  1  0
  1 29  1  0
  6 30  1  0
  7 31  1  0
  9 32  1  0
 12 33  1  0
 12 34  1  0
 13 35  1  0
 13 36  1  0
 18 37  1  0
 18 38  1  0
 18 39  1  0
 19 40  1  0
 21 41  1  0
 21 42  1  0
 21 43  1  0
 25 44  1  0
 26 45  1  0
M  END
>  <Binding energies>  (1) 
[-8.35]

>  <Ligand effiencies>  (1) 
[-0.30925925925925923]

>  <Interactions>  (1) 
["V-B:TYR:539:CD2:9845, V-B:TYR:539:CE2:9847, V-B:TYR:539:C:9838, V-A:ASP:366:CG:3212, V-B:PRO:540:N:9855, H-B:TYR:531:OH:9766, V-B:PRO:540:CA:9854, V-B:TYR:539:CZ:9848, V-A:PRO:540:N:4884, V-A:PRO:540:CB:4885, H-A:ALA:541:N:4891, V-A:PRO:540:CA:4883, V-A:TYR:539:C:4867, V-A:TYR:539:CE2:4876, V-A:TYR:539:CZ:4877, V-B:TYR:539:CD1:9844, V-B:TYR:539:CG:9843, V-B:TYR:539:CE1:9846, H-B:TYR:539:N:9841, H-A:TYR:531:OH:4795, V-A:TYR:531:CE2:4793, V-A:LEU:363:CD1:3188, V-A:LEU:363:CA:3184, V-A:MET:535:CE:4835, V-A:ILE:538:CB:4862, V-A:ILE:538:CG2:4863, V-A:PRO:540:C:4881, V-A:MET:535:CG:4833, V-A:ASN:362:C:3171"]

$$$$
1p_Grossjean_2025
     RDKit          3D

 35 36  0  0  0  0  0  0  0  0999 V2000
  130.3720  123.2130   65.1840 C   0  0  0  0  0  0  0  0  0  0  0  0
  129.9340  122.8690   63.7730 C   0  0  0  0  0  0  0  0  0  0  0  0
  130.4980  121.8010   63.0760 C   0  0  0  0  0  0  0  0  0  0  0  0
  130.0640  121.5370   61.7720 C   0  0  0  0  0  0  0  0  0  0  0  0
  130.7060  120.3720   61.0210 C   0  0  0  0  0  0  0  0  0  0  0  0
  129.0620  122.3520   61.1980 C   0  0  0  0  0  0  0  0  0  0  0  0
  128.6260  122.1260   59.8190 C   0  0  0  0  0  0  0  0  0  0  0  0
  128.2820  121.9460   58.7280 N   0  0  0  0  0  0  0  0  0  0  0  0
  128.5300  123.3990   61.9880 C   0  0  0  0  0  0  0  0  0  0  0  0
  127.2600  124.5090   61.4250 S   0  0  0  0  0  0  0  0  0  0  0  0
  125.7830  123.4990   61.1060 C   0  0  0  0  0  0  0  0  0  0  0  0
  124.6880  124.2350   60.3120 C   0  0  0  0  0  0  0  0  0  0  0  0
  124.7090  123.9280   58.8070 C   0  0  0  0  0  0  0  0  0  0  0  0
  123.7780  124.3100   58.0950 O   0  0  0  0  0  0  0  0  0  0  0  0
  125.7930  123.2510   58.3640 N   0  0  0  0  0  0  0  0  0  0  0  0
  126.0590  122.8510   57.0610 C   0  0  0  0  0  0  0  0  0  0  0  0
  126.8570  123.5880   56.1860 C   0  0  0  0  0  0  0  0  0  0  0  0
  126.8710  122.8620   55.0170 C   0  0  0  0  0  0  0  0  0  0  0  0
  126.1200  121.7480   55.1780 O   0  0  0  0  0  0  0  0  0  0  0  0
  125.6090  121.7530   56.4780 N   0  0  0  0  0  0  0  0  0  0  0  0
  128.9720  123.6600   63.2440 N   0  0  0  0  0  0  0  0  0  0  0  0
  129.7192  122.7003   65.9058 H   0  0  0  0  0  0  0  0  0  0  0  0
  131.4119  122.8877   65.3347 H   0  0  0  0  0  0  0  0  0  0  0  0
  130.3024  124.3004   65.3347 H   0  0  0  0  0  0  0  0  0  0  0  0
  131.2723  121.1755   63.5441 H   0  0  0  0  0  0  0  0  0  0  0  0
  131.1062  119.6458   61.7438 H   0  0  0  0  0  0  0  0  0  0  0  0
  129.9504  119.8822   60.3892 H   0  0  0  0  0  0  0  0  0  0  0  0
  131.5237  120.7491   60.3892 H   0  0  0  0  0  0  0  0  0  0  0  0
  126.0875  122.6096   60.5347 H   0  0  0  0  0  0  0  0  0  0  0  0
  125.3520  123.2425   62.0850 H   0  0  0  0  0  0  0  0  0  0  0  0
  123.7080  123.9383   60.7139 H   0  0  0  0  0  0  0  0  0  0  0  0
  124.8770  125.3128   60.4243 H   0  0  0  0  0  0  0  0  0  0  0  0
  126.4890  122.9940   59.0480 H   0  0  0  0  0  0  0  0  0  0  0  0
  127.3651  124.5427   56.3869 H   0  0  0  0  0  0  0  0  0  0  0  0
  127.4071  123.1425   54.0984 H   0  0  0  0  0  0  0  0  0  0  0  0
  1  2  1  0
  2  3  2  0
  3  4  1  0
  4  5  1  0
  4  6  2  0
  6  7  1  0
  7  8  3  0
  6  9  1  0
  9 10  1  0
 10 11  1  0
 11 12  1  0
 12 13  1  0
 13 14  2  0
 13 15  1  0
 15 16  1  0
 16 17  1  0
 17 18  2  0
 18 19  1  0
 19 20  1  0
  9 21  2  0
 21  2  1  0
 20 16  2  0
  1 22  1  0
  1 23  1  0
  1 24  1  0
  3 25  1  0
  5 26  1  0
  5 27  1  0
  5 28  1  0
 11 29  1  0
 11 30  1  0
 12 31  1  0
 12 32  1  0
 15 33  1  0
 17 34  1  0
 18 35  1  0
M  END
>  <Binding energies>  (1) 
[-7.38]

>  <Ligand effiencies>  (1) 
[-0.33545454545454545]

>  <Interactions>  (1) 
["V-B:TYR:539:CD2:9845, V-B:MET:535:CE:9806, V-B:TYR:539:CE2:9847, V-B:TYR:539:C:9838, V-B:PRO:540:CD:9858, V-B:PRO:540:N:9855, V-B:PRO:540:CB:9856, H-B:TYR:531:OH:9766, V-B:PRO:540:CA:9854, V-A:LEU:475:CD2:4258, V-B:GLU:543:CG:9878, V-A:TYR:484:CE1:4344, V-B:TYR:539:CD1:9844, V-B:TYR:539:CE1:9846, V-B:ALA:541:CB:9863, H-B:TYR:539:N:9841, V-B:PRO:540:C:9852, V-A:TYR:484:CZ:4346"]

$$$$
1q_Grossjean_2025
     RDKit          3D

 38 38  0  0  0  0  0  0  0  0999 V2000
  127.2920  122.9000   54.6670 C   0  0  0  0  0  0  0  0  0  0  0  0
  127.0970  122.0940   55.8200 O   0  0  0  0  0  0  0  0  0  0  0  0
  125.9480  122.1820   56.5350 C   0  0  0  0  0  0  0  0  0  0  0  0
  124.8400  121.7950   56.1600 O   0  0  0  0  0  0  0  0  0  0  0  0
  126.1140  122.8630   57.9100 C   0  0  0  0  0  0  0  0  0  0  0  0
  127.4570  122.6810   58.4830 N   0  0  0  0  0  0  0  0  0  0  0  0
  127.7650  122.7000   59.7940 C   0  0  0  0  0  0  0  0  0  0  0  0
  126.9270  122.8750   60.6800 O   0  0  0  0  0  0  0  0  0  0  0  0
  129.2440  122.4720   60.1400 C   0  0  0  0  0  0  0  0  0  0  0  0
  129.5680  121.0430   60.6200 C   0  0  0  0  0  0  0  0  0  0  0  0
  131.2990  120.8230   61.1320 S   0  0  0  0  0  0  0  0  0  0  0  0
  132.1030  122.4130   61.1110 C   0  0  0  0  0  0  0  0  0  0  0  0
  132.1480  122.9780   59.8780 N   0  0  0  0  0  0  0  0  0  0  0  0
  132.7380  124.1870   59.7350 C   0  0  0  0  0  0  0  0  0  0  0  0
  132.7640  124.7460   58.3250 C   0  0  0  0  0  0  0  0  0  0  0  0
  133.2920  124.8840   60.8070 C   0  0  0  0  0  0  0  0  0  0  0  0
  133.2290  124.3240   62.0860 C   0  0  0  0  0  0  0  0  0  0  0  0
  133.8280  125.1160   63.2480 C   0  0  0  0  0  0  0  0  0  0  0  0
  132.6160  123.0630   62.2610 C   0  0  0  0  0  0  0  0  0  0  0  0
  132.4900  122.4870   63.6010 C   0  0  0  0  0  0  0  0  0  0  0  0
  132.3920  122.0360   64.6620 N   0  0  0  0  0  0  0  0  0  0  0  0
  127.5403  123.9264   54.9749 H   0  0  0  0  0  0  0  0  0  0  0  0
  128.1163  122.4877   54.0666 H   0  0  0  0  0  0  0  0  0  0  0  0
  126.3704  122.9101   54.0666 H   0  0  0  0  0  0  0  0  0  0  0  0
  125.9260  123.9404   57.7926 H   0  0  0  0  0  0  0  0  0  0  0  0
  125.3960  122.3937   58.5986 H   0  0  0  0  0  0  0  0  0  0  0  0
  128.2080  122.5570   57.8180 H   0  0  0  0  0  0  0  0  0  0  0  0
  129.8442  122.6785   59.2416 H   0  0  0  0  0  0  0  0  0  0  0  0
  129.4808  123.1473   60.9754 H   0  0  0  0  0  0  0  0  0  0  0  0
  128.9193  120.8083   61.4768 H   0  0  0  0  0  0  0  0  0  0  0  0
  129.3951  120.3691   59.7679 H   0  0  0  0  0  0  0  0  0  0  0  0
  132.8151  125.8440   58.3668 H   0  0  0  0  0  0  0  0  0  0  0  0
  133.6451  124.3579   57.7929 H   0  0  0  0  0  0  0  0  0  0  0  0
  131.8507  124.4414   57.7929 H   0  0  0  0  0  0  0  0  0  0  0  0
  133.7720  125.8610   60.6488 H   0  0  0  0  0  0  0  0  0  0  0  0
  133.4961  124.6772   64.2005 H   0  0  0  0  0  0  0  0  0  0  0  0
  134.9258  125.0786   63.1899 H   0  0  0  0  0  0  0  0  0  0  0  0
  133.4931  126.1622   63.1899 H   0  0  0  0  0  0  0  0  0  0  0  0
  1  2  1  0
  2  3  1  0
  3  4  2  0
  3  5  1  0
  5  6  1  0
  6  7  1  0
  7  8  2  0
  7  9  1  0
  9 10  1  0
 10 11  1  0
 11 12  1  0
 12 13  2  0
 13 14  1  0
 14 15  1  0
 14 16  2  0
 16 17  1  0
 17 18  1  0
 17 19  2  0
 19 20  1  0
 20 21  3  0
 19 12  1  0
  1 22  1  0
  1 23  1  0
  1 24  1  0
  5 25  1  0
  5 26  1  0
  6 27  1  0
  9 28  1  0
  9 29  1  0
 10 30  1  0
 10 31  1  0
 15 32  1  0
 15 33  1  0
 15 34  1  0
 16 35  1  0
 18 36  1  0
 18 37  1  0
 18 38  1  0
M  END
>  <Binding energies>  (1) 
[-6.4]

>  <Ligand effiencies>  (1) 
[-0.29090909090909095]

>  <Interactions>  (1) 
["V-B:TYR:539:CD2:9845, V-B:MET:535:CE:9806, V-B:TYR:539:CE2:9847, V-B:TYR:539:C:9838, V-B:PRO:540:CD:9858, V-A:ASP:366:CG:3212, V-B:PRO:540:N:9855, V-A:ILE:369:CG2:3236, V-B:PRO:540:CB:9856, V-A:ASP:366:CB:3211, V-B:PRO:540:CA:9854, V-B:TYR:539:CZ:9848, H-B:ALA:541:N:9862, V-A:ASP:366:CA:3209, V-A:LEU:475:CD2:4258, H-A:TYR:484:OH:4347, V-A:ILE:369:CD1:3238, V-A:GLY:454:CA:4048, V-A:ARG:545:CZ:4926, V-B:TYR:539:CD1:9844, V-B:TYR:539:CE1:9846, V-B:ALA:541:CB:9863, H-B:TYR:539:N:9841, V-A:ASP:366:C:3207"]

$$$$
2a_Ghoteimi_2023
     RDKit          3D

 85 90  0  0  0  0  0  0  0  0999 V2000
  127.5030  123.1910   54.8860 C   0  0  0  0  0  0  0  0  0  0  0  0
  126.4460  122.0830   54.9150 C   0  0  0  0  0  0  0  0  0  0  0  0
  125.9120  121.9750   56.2280 O   0  0  0  0  0  0  0  0  0  0  0  0
  125.3840  123.0540   56.8620 C   0  0  0  0  0  0  0  0  0  0  0  0
  124.4900  123.7560   56.3790 O   0  0  0  0  0  0  0  0  0  0  0  0
  125.9910  123.3040   58.2130 C   0  0  0  0  0  0  0  0  0  0  0  0
  127.3140  122.9460   58.5100 C   0  0  0  0  0  0  0  0  0  0  0  0
  127.8460  123.1930   59.7720 C   0  0  0  0  0  0  0  0  0  0  0  0
  127.0730  123.8050   60.7600 C   0  0  0  0  0  0  0  0  0  0  0  0
  127.7100  124.0030   62.0000 N   0  0  0  0  0  0  0  0  0  0  0  0
  128.6980  123.2930   62.5880 C   0  0  0  0  0  0  0  0  0  0  0  0
  129.2010  122.2660   62.1310 O   0  0  0  0  0  0  0  0  0  0  0  0
  129.1630  123.8270   63.9490 C   0  0  0  0  0  0  0  0  0  0  0  0
  130.2850  125.2590   63.8530 S   0  0  0  0  0  0  0  0  0  0  0  0
  129.4850  126.5580   64.7660 C   0  0  0  0  0  0  0  0  0  0  0  0
  129.5550  126.4060   66.1090 N   0  0  0  0  0  0  0  0  0  0  0  0
  128.9730  127.3290   66.9160 C   0  0  0  0  0  0  0  0  0  0  0  0
  129.0810  127.0910   68.3870 C   0  0  0  0  0  0  0  0  0  0  0  0
  128.3270  126.0930   69.0180 C   0  0  0  0  0  0  0  0  0  0  0  0
  128.4230  125.8840   70.3910 C   0  0  0  0  0  0  0  0  0  0  0  0
  129.2820  126.6580   71.1840 C   0  0  0  0  0  0  0  0  0  0  0  0
  129.3450  126.4560   72.5670 N   0  0  0  0  0  0  0  0  0  0  0  0
  129.3030  125.1000   73.1500 C   0  0  0  0  0  0  0  0  0  0  0  0
  129.7440  125.0430   74.6280 C   0  0  0  0  0  0  0  0  0  0  0  0
  128.9750  125.9520   75.4000 O   0  0  0  0  0  0  0  0  0  0  0  0
  129.1440  127.2860   74.9490 C   0  0  0  0  0  0  0  0  0  0  0  0
  128.6860  127.4130   73.4810 C   0  0  0  0  0  0  0  0  0  0  0  0
  130.0260  127.6650   70.5490 C   0  0  0  0  0  0  0  0  0  0  0  0
  129.9320  127.8720   69.1760 C   0  0  0  0  0  0  0  0  0  0  0  0
  128.3150  128.4410   66.3840 C   0  0  0  0  0  0  0  0  0  0  0  0
  128.2300  128.6190   64.9960 C   0  0  0  0  0  0  0  0  0  0  0  0
  127.5070  129.8270   64.4950 C   0  0  0  0  0  0  0  0  0  0  0  0
  126.1470  129.7530   64.1830 C   0  0  0  0  0  0  0  0  0  0  0  0
  125.4690  130.8670   63.6970 C   0  0  0  0  0  0  0  0  0  0  0  0
  126.1300  132.0910   63.5120 C   0  0  0  0  0  0  0  0  0  0  0  0
  125.4720  133.2160   63.0080 N   0  0  0  0  0  0  0  0  0  0  0  0
  124.0620  133.1000   62.5830 C   0  0  0  0  0  0  0  0  0  0  0  0
  123.3590  134.4650   62.4260 C   0  0  0  0  0  0  0  0  0  0  0  0
  124.0890  135.2880   61.5300 O   0  0  0  0  0  0  0  0  0  0  0  0
  125.4090  135.5270   61.9930 C   0  0  0  0  0  0  0  0  0  0  0  0
  126.1660  134.1910   62.1430 C   0  0  0  0  0  0  0  0  0  0  0  0
  127.4980  132.1540   63.8160 C   0  0  0  0  0  0  0  0  0  0  0  0
  128.1760  131.0390   64.3010 C   0  0  0  0  0  0  0  0  0  0  0  0
  128.8370  127.6550   64.1560 C   0  0  0  0  0  0  0  0  0  0  0  0
  128.8310  127.8160   62.6980 C   0  0  0  0  0  0  0  0  0  0  0  0
  128.8230  127.9450   61.5480 N   0  0  0  0  0  0  0  0  0  0  0  0
  125.7460  124.1590   60.4730 C   0  0  0  0  0  0  0  0  0  0  0  0
  125.2150  123.9120   59.2090 C   0  0  0  0  0  0  0  0  0  0  0  0
  127.7696  123.4705   55.9160 H   0  0  0  0  0  0  0  0  0  0  0  0
  128.3991  122.8292   54.3606 H   0  0  0  0  0  0  0  0  0  0  0  0
  127.0994  124.0691   54.3606 H   0  0  0  0  0  0  0  0  0  0  0  0
  125.6385  122.3274   54.2092 H   0  0  0  0  0  0  0  0  0  0  0  0
  126.9072  121.1271   54.6258 H   0  0  0  0  0  0  0  0  0  0  0  0
  127.9358  122.4664   57.7397 H   0  0  0  0  0  0  0  0  0  0  0  0
  128.8841  122.9036   59.9927 H   0  0  0  0  0  0  0  0  0  0  0  0
  127.3490  124.7820   62.5290 H   0  0  0  0  0  0  0  0  0  0  0  0
  128.2736  124.1249   64.5237 H   0  0  0  0  0  0  0  0  0  0  0  0
  129.7308  123.0152   64.4271 H   0  0  0  0  0  0  0  0  0  0  0  0
  127.6495  125.4657   68.4201 H   0  0  0  0  0  0  0  0  0  0  0  0
  127.8144  125.0980   70.8619 H   0  0  0  0  0  0  0  0  0  0  0  0
  128.2712  124.7249   73.0813 H   0  0  0  0  0  0  0  0  0  0  0  0
  130.0140  124.4841   72.5797 H   0  0  0  0  0  0  0  0  0  0  0  0
  129.5968  124.0231   75.0129 H   0  0  0  0  0  0  0  0  0  0  0  0
  130.8065  125.3189   74.6984 H   0  0  0  0  0  0  0  0  0  0  0  0
  128.5437  127.9608   75.5768 H   0  0  0  0  0  0  0  0  0  0  0  0
  130.2079  127.5568   75.0183 H   0  0  0  0  0  0  0  0  0  0  0  0
  127.6003  127.2408   73.4400 H   0  0  0  0  0  0  0  0  0  0  0  0
  128.9644  128.4224   73.1440 H   0  0  0  0  0  0  0  0  0  0  0  0
  130.6948  128.3014   71.1470 H   0  0  0  0  0  0  0  0  0  0  0  0
  130.5357  128.6613   68.7043 H   0  0  0  0  0  0  0  0  0  0  0  0
  127.8607  129.1816   67.0587 H   0  0  0  0  0  0  0  0  0  0  0  0
  125.6069  128.8050   64.3229 H   0  0  0  0  0  0  0  0  0  0  0  0
  124.3991  130.7869   63.4543 H   0  0  0  0  0  0  0  0  0  0  0  0
  124.0305  132.5774   61.6156 H   0  0  0  0  0  0  0  0  0  0  0  0
  123.5284  132.5465   63.3697 H   0  0  0  0  0  0  0  0  0  0  0  0
  122.3440  134.3085   62.0318 H   0  0  0  0  0  0  0  0  0  0  0  0
  123.3067  134.9586   63.4076 H   0  0  0  0  0  0  0  0  0  0  0  0
  125.9381  136.1663   61.2709 H   0  0  0  0  0  0  0  0  0  0  0  0
  125.3632  136.0277   62.9714 H   0  0  0  0  0  0  0  0  0  0  0  0
  126.2883  133.7458   61.1446 H   0  0  0  0  0  0  0  0  0  0  0  0
  127.1314  134.4172   62.6193 H   0  0  0  0  0  0  0  0  0  0  0  0
  128.0429  133.0982   63.6690 H   0  0  0  0  0  0  0  0  0  0  0  0
  129.2486  131.1124   64.5338 H   0  0  0  0  0  0  0  0  0  0  0  0
  125.1241  124.6322   61.2471 H   0  0  0  0  0  0  0  0  0  0  0  0
  124.1754  124.1973   58.9904 H   0  0  0  0  0  0  0  0  0  0  0  0
  1  2  1  0
  2  3  1  0
  3  4  1  0
  4  5  2  0
  4  6  1  0
  6  7  2  0
  7  8  1  0
  8  9  2  0
  9 10  1  0
 10 11  1  0
 11 12  2  0
 11 13  1  0
 13 14  1  0
 14 15  1  0
 15 16  2  0
 16 17  1  0
 17 18  1  0
 18 19  2  0
 19 20  1  0
 20 21  2  0
 21 22  1  0
 22 23  1  0
 23 24  1  0
 24 25  1  0
 25 26  1  0
 26 27  1  0
 21 28  1  0
 28 29  2  0
 17 30  2  0
 30 31  1  0
 31 32  1  0
 32 33  2  0
 33 34  1  0
 34 35  2  0
 35 36  1  0
 36 37  1  0
 37 38  1  0
 38 39  1  0
 39 40  1  0
 40 41  1  0
 35 42  1  0
 42 43  2  0
 31 44  2  0
 44 45  1  0
 45 46  3  0
  9 47  1  0
 47 48  2  0
 48  6  1  0
 44 15  1  0
 29 18  1  0
 43 32  1  0
 27 22  1  0
 41 36  1  0
  1 49  1  0
  1 50  1  0
  1 51  1  0
  2 52  1  0
  2 53  1  0
  7 54  1  0
  8 55  1  0
 10 56  1  0
 13 57  1  0
 13 58  1  0
 19 59  1  0
 20 60  1  0
 23 61  1  0
 23 62  1  0
 24 63  1  0
 24 64  1  0
 26 65  1  0
 26 66  1  0
 27 67  1  0
 27 68  1  0
 28 69  1  0
 29 70  1  0
 30 71  1  0
 33 72  1  0
 34 73  1  0
 37 74  1  0
 37 75  1  0
 38 76  1  0
 38 77  1  0
 40 78  1  0
 40 79  1  0
 41 80  1  0
 41 81  1  0
 42 82  1  0
 43 83  1  0
 47 84  1  0
 48 85  1  0
M  END
>  <Binding energies>  (1) 
[-11.45]

>  <Ligand effiencies>  (1) 
[-0.2336734693877551]

>  <Interactions>  (1) 
["V-B:MET:535:CE:9806, V-B:TYR:539:C:9838, V-B:PRO:540:CD:9858, V-B:PRO:540:N:9855, V-B:PRO:540:CB:9856, H-B:TYR:531:OH:9766, V-B:PRO:540:CA:9854, V-B:LEU:363:CD1:8160, V-B:TYR:539:CZ:9848, H-B:GLU:543:OE2:9881, H-B:ALA:541:N:9862, V-A:GLU:543:CD:4908, V-B:LEU:475:CD1:9229, V-B:TRP:381:CH2:8343, V-A:GLU:543:CG:4907, V-A:ALA:541:CB:4892, V-B:TRP:381:CZ2:8341, V-B:ILE:369:CD1:8210, V-A:HIS:456:CD2:4067, V-B:GLU:543:CD:9879, V-B:HIS:456:CE1:9041, V-B:GLY:454:CA:9020, V-A:GLU:543:CB:4906, V-A:HIS:456:CE1:4069, H-B:LYS:547:NZ:9922, V-B:HIS:456:CD2:9039, V-B:GLU:543:CG:9878, V-B:GLU:543:CB:9877, V-B:ILE:369:CG2:8208, V-B:TYR:539:CD1:9844, V-B:TYR:539:CE1:9846, V-B:ALA:541:CB:9863, H-B:TYR:539:N:9841, V-B:SER:385:C:8376, V-B:ILE:538:CA:9831, V-B:ILE:538:C:9829, V-B:ILE:538:CD1:9836, V-B:LYS:547:CE:9921"]

$$$$
2a_Grossjean_2025
     RDKit          3D

 45 46  0  0  0  0  0  0  0  0999 V2000
  132.3850  131.2610   56.6580 C   0  0  0  0  0  0  0  0  0  0  0  0
  132.0530  132.4660   57.5440 C   0  0  0  0  0  0  0  0  0  0  0  0
  131.2750  133.3960   56.8000 O   0  0  0  0  0  0  0  0  0  0  0  0
  130.1860  132.9940   56.0960 C   0  0  0  0  0  0  0  0  0  0  0  0
  130.1580  132.9270   54.8630 O   0  0  0  0  0  0  0  0  0  0  0  0
  129.0240  132.6150   56.9690 C   0  0  0  0  0  0  0  0  0  0  0  0
  128.9520  133.0000   58.3160 C   0  0  0  0  0  0  0  0  0  0  0  0
  127.8620  132.6310   59.0990 C   0  0  0  0  0  0  0  0  0  0  0  0
  126.8270  131.8680   58.5570 C   0  0  0  0  0  0  0  0  0  0  0  0
  125.7840  131.5420   59.4430 N   0  0  0  0  0  0  0  0  0  0  0  0
  124.4480  131.6800   59.2990 C   0  0  0  0  0  0  0  0  0  0  0  0
  123.8810  132.1680   58.3210 O   0  0  0  0  0  0  0  0  0  0  0  0
  123.6020  131.1800   60.4750 C   0  0  0  0  0  0  0  0  0  0  0  0
  123.7840  132.1970   61.9790 S   0  0  0  0  0  0  0  0  0  0  0  0
  125.4170  132.9280   62.0190 C   0  0  0  0  0  0  0  0  0  0  0  0
  126.4460  132.0600   62.1900 N   0  0  0  0  0  0  0  0  0  0  0  0
  127.7070  132.5440   62.2430 C   0  0  0  0  0  0  0  0  0  0  0  0
  128.8020  131.5160   62.4620 C   0  0  0  0  0  0  0  0  0  0  0  0
  127.9970  133.9000   62.1210 C   0  0  0  0  0  0  0  0  0  0  0  0
  126.9490  134.8150   61.9350 C   0  0  0  0  0  0  0  0  0  0  0  0
  127.2860  136.3120   61.8010 C   0  0  0  0  0  0  0  0  0  0  0  0
  126.7680  136.9910   62.8240 F   0  0  0  0  0  0  0  0  0  0  0  0
  128.6090  136.4820   61.7920 F   0  0  0  0  0  0  0  0  0  0  0  0
  126.8050  136.8490   60.6760 F   0  0  0  0  0  0  0  0  0  0  0  0
  125.6210  134.3200   61.8810 C   0  0  0  0  0  0  0  0  0  0  0  0
  124.4880  135.2320   61.6920 C   0  0  0  0  0  0  0  0  0  0  0  0
  123.5930  135.9520   61.5430 N   0  0  0  0  0  0  0  0  0  0  0  0
  126.8870  131.4870   57.2090 C   0  0  0  0  0  0  0  0  0  0  0  0
  127.9770  131.8600   56.4260 C   0  0  0  0  0  0  0  0  0  0  0  0
  132.6238  130.3944   57.2920 H   0  0  0  0  0  0  0  0  0  0  0  0
  131.5189  131.0231   56.0229 H   0  0  0  0  0  0  0  0  0  0  0  0
  133.2507  131.5003   56.0229 H   0  0  0  0  0  0  0  0  0  0  0  0
  131.4830  132.1301   58.4228 H   0  0  0  0  0  0  0  0  0  0  0  0
  132.9847  132.9472   57.8761 H   0  0  0  0  0  0  0  0  0  0  0  0
  129.7632  133.5981   58.7568 H   0  0  0  0  0  0  0  0  0  0  0  0
  127.8161  132.9431   60.1528 H   0  0  0  0  0  0  0  0  0  0  0  0
  126.0910  131.0960   60.2940 H   0  0  0  0  0  0  0  0  0  0  0  0
  122.5443  131.1894   60.1731 H   0  0  0  0  0  0  0  0  0  0  0  0
  123.9536  130.1674   60.7219 H   0  0  0  0  0  0  0  0  0  0  0  0
  128.9574  131.3701   63.5411 H   0  0  0  0  0  0  0  0  0  0  0  0
  128.5063  130.5616   62.0018 H   0  0  0  0  0  0  0  0  0  0  0  0
  129.7358  131.8713   62.0018 H   0  0  0  0  0  0  0  0  0  0  0  0
  129.0382  134.2513   62.1699 H   0  0  0  0  0  0  0  0  0  0  0  0
  126.0724  130.8929   56.7693 H   0  0  0  0  0  0  0  0  0  0  0  0
  128.0158  131.5580   55.3690 H   0  0  0  0  0  0  0  0  0  0  0  0
  1  2  1  0
  2  3  1  0
  3  4  1  0
  4  5  2  0
  4  6  1  0
  6  7  2  0
  7  8  1  0
  8  9  2  0
  9 10  1  0
 10 11  1  0
 11 12  2  0
 11 13  1  0
 13 14  1  0
 14 15  1  0
 15 16  2  0
 16 17  1  0
 17 18  1  0
 17 19  2  0
 19 20  1  0
 20 21  1  0
 21 22  1  0
 21 23  1  0
 21 24  1  0
 20 25  2  0
 25 26  1  0
 26 27  3  0
  9 28  1  0
 28 29  2  0
 29  6  1  0
 25 15  1  0
  1 30  1  0
  1 31  1  0
  1 32  1  0
  2 33  1  0
  2 34  1  0
  7 35  1  0
  8 36  1  0
 10 37  1  0
 13 38  1  0
 13 39  1  0
 18 40  1  0
 18 41  1  0
 18 42  1  0
 19 43  1  0
 28 44  1  0
 29 45  1  0
M  END
>  <Binding energies>  (1) 
[-7.73]

>  <Ligand effiencies>  (1) 
[-0.25766666666666665]

>  <Interactions>  (1) 
["V-B:ASP:366:CG:8184, V-B:ASP:366:CB:8183, V-A:PRO:540:N:4884, V-B:PRO:482:CB:9297, V-B:LEU:475:CD1:9229, V-B:TRP:381:CH2:8343, V-A:PRO:540:CB:4885, V-A:TYR:539:CD2:4874, V-A:ALA:541:CB:4892, V-B:PRO:482:CG:9298, V-B:TRP:381:CZ2:8341, V-A:ALA:541:CA:4890, V-A:PRO:540:CA:4883, V-A:TYR:539:C:4867, V-B:ILE:369:CD1:8210, V-B:ILE:369:CG2:8208, V-A:TYR:539:CE2:4876, V-A:TYR:539:CZ:4877, V-B:ASP:366:CA:8181, V-A:TYR:531:CE2:4793, V-A:LEU:363:CD1:3188, V-A:TYR:531:CZ:4794, V-A:MET:535:CE:4835, H-A:TYR:539:OH:4878, H-A:TYR:539:N:4870, V-B:TRP:381:CE2:8338, V-A:TYR:539:CG:4872, V-A:ILE:538:CA:4860, V-A:ILE:538:CB:4862, V-A:PRO:540:CD:4887, V-A:TYR:539:CE1:4875, V-A:ILE:538:C:4858, V-B:TRP:381:CZ3:8342, V-A:PRO:540:C:4881, V-B:TRP:381:CE3:8339, V-A:TYR:539:CB:4871"]

$$$$
2aa_Ghoteimi_2023
     RDKit          3D

 85 90  0  0  0  0  0  0  0  0999 V2000
  132.4120  131.7870   54.8410 C   0  0  0  0  0  0  0  0  0  0  0  0
  131.0640  132.4940   55.0170 C   0  0  0  0  0  0  0  0  0  0  0  0
  131.0620  133.2040   56.2490 O   0  0  0  0  0  0  0  0  0  0  0  0
  130.0570  133.0460   57.1490 C   0  0  0  0  0  0  0  0  0  0  0  0
  129.0420  133.7510   57.1660 O   0  0  0  0  0  0  0  0  0  0  0  0
  130.2940  131.9180   58.1110 C   0  0  0  0  0  0  0  0  0  0  0  0
  131.4880  131.1810   58.1080 C   0  0  0  0  0  0  0  0  0  0  0  0
  131.6800  130.1430   59.0160 C   0  0  0  0  0  0  0  0  0  0  0  0
  130.6830  129.8160   59.9370 C   0  0  0  0  0  0  0  0  0  0  0  0
  130.9840  128.7520   60.8100 N   0  0  0  0  0  0  0  0  0  0  0  0
  130.1670  127.8290   61.3630 C   0  0  0  0  0  0  0  0  0  0  0  0
  128.9540  127.7450   61.1600 O   0  0  0  0  0  0  0  0  0  0  0  0
  130.8700  126.8260   62.2860 C   0  0  0  0  0  0  0  0  0  0  0  0
  129.9250  126.2780   63.2110 O   0  0  0  0  0  0  0  0  0  0  0  0
  129.3820  127.0780   64.2080 C   0  0  0  0  0  0  0  0  0  0  0  0
  128.7200  128.2080   63.8320 N   0  0  0  0  0  0  0  0  0  0  0  0
  128.1740  129.0100   64.7810 C   0  0  0  0  0  0  0  0  0  0  0  0
  127.4670  130.2350   64.2950 C   0  0  0  0  0  0  0  0  0  0  0  0
  128.0140  131.5060   64.5030 C   0  0  0  0  0  0  0  0  0  0  0  0
  127.3630  132.6500   64.0470 C   0  0  0  0  0  0  0  0  0  0  0  0
  126.1470  132.5640   63.3520 C   0  0  0  0  0  0  0  0  0  0  0  0
  125.4730  133.7040   62.8980 N   0  0  0  0  0  0  0  0  0  0  0  0
  126.1850  134.7870   62.1890 C   0  0  0  0  0  0  0  0  0  0  0  0
  125.3770  136.0970   62.0830 C   0  0  0  0  0  0  0  0  0  0  0  0
  124.1170  135.8430   61.4850 O   0  0  0  0  0  0  0  0  0  0  0  0
  123.3540  134.9240   62.2520 C   0  0  0  0  0  0  0  0  0  0  0  0
  124.1020  133.5790   62.3630 C   0  0  0  0  0  0  0  0  0  0  0  0
  125.5920  131.2900   63.1640 C   0  0  0  0  0  0  0  0  0  0  0  0
  126.2420  130.1470   63.6230 C   0  0  0  0  0  0  0  0  0  0  0  0
  128.2920  128.7050   66.1400 C   0  0  0  0  0  0  0  0  0  0  0  0
  128.9770  127.5550   66.5530 C   0  0  0  0  0  0  0  0  0  0  0  0
  129.0930  127.2960   68.0210 C   0  0  0  0  0  0  0  0  0  0  0  0
  128.3290  126.2930   68.6220 C   0  0  0  0  0  0  0  0  0  0  0  0
  128.4170  126.0600   69.9920 C   0  0  0  0  0  0  0  0  0  0  0  0
  129.2620  126.8330   70.8030 C   0  0  0  0  0  0  0  0  0  0  0  0
  129.3690  126.6140   72.1790 N   0  0  0  0  0  0  0  0  0  0  0  0
  129.1940  125.2690   72.7590 C   0  0  0  0  0  0  0  0  0  0  0  0
  129.6920  125.1590   74.2160 C   0  0  0  0  0  0  0  0  0  0  0  0
  129.0600  126.1430   75.0200 O   0  0  0  0  0  0  0  0  0  0  0  0
  129.3420  127.4550   74.5580 C   0  0  0  0  0  0  0  0  0  0  0  0
  128.8340  127.6270   73.1120 C   0  0  0  0  0  0  0  0  0  0  0  0
  130.0300  127.8320   70.1890 C   0  0  0  0  0  0  0  0  0  0  0  0
  129.9420  128.0660   68.8200 C   0  0  0  0  0  0  0  0  0  0  0  0
  129.5240  126.7120   65.5580 C   0  0  0  0  0  0  0  0  0  0  0  0
  130.2130  125.4640   65.8950 C   0  0  0  0  0  0  0  0  0  0  0  0
  130.7560  124.4780   66.1620 N   0  0  0  0  0  0  0  0  0  0  0  0
  129.4900  130.5520   59.9510 C   0  0  0  0  0  0  0  0  0  0  0  0
  129.3020  131.5920   59.0440 C   0  0  0  0  0  0  0  0  0  0  0  0
  132.8401  131.5625   55.8291 H   0  0  0  0  0  0  0  0  0  0  0  0
  132.2647  130.8501   54.2838 H   0  0  0  0  0  0  0  0  0  0  0  0
  133.0990  132.4409   54.2838 H   0  0  0  0  0  0  0  0  0  0  0  0
  130.9076  133.1985   54.1868 H   0  0  0  0  0  0  0  0  0  0  0  0
  130.2551  131.7486   55.0205 H   0  0  0  0  0  0  0  0  0  0  0  0
  132.2783  131.4251   57.3829 H   0  0  0  0  0  0  0  0  0  0  0  0
  132.6232  129.5770   59.0076 H   0  0  0  0  0  0  0  0  0  0  0  0
  131.9680  128.6530   61.0150 H   0  0  0  0  0  0  0  0  0  0  0  0
  131.3034  126.0150   61.6823 H   0  0  0  0  0  0  0  0  0  0  0  0
  131.6683  127.3396   62.8418 H   0  0  0  0  0  0  0  0  0  0  0  0
  128.9722  131.6032   65.0344 H   0  0  0  0  0  0  0  0  0  0  0  0
  127.8097  133.6375   64.2349 H   0  0  0  0  0  0  0  0  0  0  0  0
  127.1200  134.9987   62.7284 H   0  0  0  0  0  0  0  0  0  0  0  0
  126.3624  134.4355   61.1619 H   0  0  0  0  0  0  0  0  0  0  0  0
  125.2250  136.5136   63.0896 H   0  0  0  0  0  0  0  0  0  0  0  0
  125.9331  136.8147   61.4620 H   0  0  0  0  0  0  0  0  0  0  0  0
  123.1935  135.3356   63.2594 H   0  0  0  0  0  0  0  0  0  0  0  0
  122.3855  134.7583   61.7575 H   0  0  0  0  0  0  0  0  0  0  0  0
  123.5287  132.9168   63.0284 H   0  0  0  0  0  0  0  0  0  0  0  0
  124.1905  133.1755   61.3435 H   0  0  0  0  0  0  0  0  0  0  0  0
  124.6270  131.1918   62.6453 H   0  0  0  0  0  0  0  0  0  0  0  0
  125.7860  129.1602   63.4550 H   0  0  0  0  0  0  0  0  0  0  0  0
  127.8438  129.3728   66.8905 H   0  0  0  0  0  0  0  0  0  0  0  0
  127.6517  125.6817   68.0075 H   0  0  0  0  0  0  0  0  0  0  0  0
  127.8154  125.2583   70.4452 H   0  0  0  0  0  0  0  0  0  0  0  0
  128.1236  125.0164   72.7366 H   0  0  0  0  0  0  0  0  0  0  0  0
  129.7983  124.5749   72.1565 H   0  0  0  0  0  0  0  0  0  0  0  0
  129.4530  124.1595   74.6083 H   0  0  0  0  0  0  0  0  0  0  0  0
  130.7802  125.3181   74.2389 H   0  0  0  0  0  0  0  0  0  0  0  0
  128.8406  128.1859   75.2094 H   0  0  0  0  0  0  0  0  0  0  0  0
  130.4295  127.6190   74.5800 H   0  0  0  0  0  0  0  0  0  0  0  0
  127.7366  127.5521   73.1165 H   0  0  0  0  0  0  0  0  0  0  0  0
  129.1816  128.6094   72.7598 H   0  0  0  0  0  0  0  0  0  0  0  0
  130.7133  128.4409   70.7992 H   0  0  0  0  0  0  0  0  0  0  0  0
  130.5459  128.8639   68.3631 H   0  0  0  0  0  0  0  0  0  0  0  0
  128.7020  130.3080   60.6787 H   0  0  0  0  0  0  0  0  0  0  0  0
  128.3628  132.1643   59.0607 H   0  0  0  0  0  0  0  0  0  0  0  0
  1  2  1  0
  2  3  1  0
  3  4  1  0
  4  5  2  0
  4  6  1  0
  6  7  2  0
  7  8  1  0
  8  9  2  0
  9 10  1  0
 10 11  1  0
 11 12  2  0
 11 13  1  0
 13 14  1  0
 14 15  1  0
 15 16  2  0
 16 17  1  0
 17 18  1  0
 18 19  2  0
 19 20  1  0
 20 21  2  0
 21 22  1  0
 22 23  1  0
 23 24  1  0
 24 25  1  0
 25 26  1  0
 26 27  1  0
 21 28  1  0
 28 29  2  0
 17 30  2  0
 30 31  1  0
 31 32  1  0
 32 33  2  0
 33 34  1  0
 34 35  2  0
 35 36  1  0
 36 37  1  0
 37 38  1  0
 38 39  1  0
 39 40  1  0
 40 41  1  0
 35 42  1  0
 42 43  2  0
 31 44  2  0
 44 45  1  0
 45 46  3  0
  9 47  1  0
 47 48  2  0
 48  6  1  0
 44 15  1  0
 29 18  1  0
 43 32  1  0
 27 22  1  0
 41 36  1  0
  1 49  1  0
  1 50  1  0
  1 51  1  0
  2 52  1  0
  2 53  1  0
  7 54  1  0
  8 55  1  0
 10 56  1  0
 13 57  1  0
 13 58  1  0
 19 59  1  0
 20 60  1  0
 23 61  1  0
 23 62  1  0
 24 63  1  0
 24 64  1  0
 26 65  1  0
 26 66  1  0
 27 67  1  0
 27 68  1  0
 28 69  1  0
 29 70  1  0
 30 71  1  0
 33 72  1  0
 34 73  1  0
 37 74  1  0
 37 75  1  0
 38 76  1  0
 38 77  1  0
 40 78  1  0
 40 79  1  0
 41 80  1  0
 41 81  1  0
 42 82  1  0
 43 83  1  0
 47 84  1  0
 48 85  1  0
M  END
>  <Binding energies>  (1) 
[-10.25]

>  <Ligand effiencies>  (1) 
[-0.20918367346938777]

>  <Interactions>  (1) 
["V-A:ASP:366:CG:3212, V-A:PRO:540:N:4884, V-A:GLU:543:CD:4908, V-B:LEU:475:CD1:9229, V-B:TRP:381:CH2:8343, V-A:GLU:543:CG:4907, V-A:ALA:541:CB:4892, V-B:TRP:381:CZ2:8341, V-A:TYR:539:C:4867, V-B:ILE:369:CD1:8210, V-A:HIS:456:CD2:4067, V-B:GLU:543:CD:9879, V-B:HIS:456:CE1:9041, V-A:GLU:543:CB:4906, V-A:HIS:456:CE1:4069, H-B:LYS:547:NZ:9922, V-B:HIS:456:CD2:9039, V-B:GLU:543:CG:9878, V-B:GLU:543:CB:9877, H-A:TYR:484:OH:4347, V-B:ILE:369:CG2:8208, V-A:TYR:531:CE2:4793, V-A:LEU:363:CD1:3188, V-A:TYR:531:CZ:4794, V-A:MET:535:CE:4835, H-A:TYR:539:N:4870, V-A:TYR:539:CA:4869, V-B:SER:385:C:8376, V-A:ILE:538:CA:4860, V-A:ILE:538:CB:4862, V-A:ILE:538:CG2:4863, H-A:ASP:366:OD2:3214, H-A:ASP:366:OD1:3213, V-A:MET:535:CG:4833, V-A:TYR:531:CD2:4791, V-B:LYS:547:CE:9921"]

$$$$
2b_Ghoteimi_2023
     RDKit          3D

 72 77  0  0  0  0  0  0  0  0999 V2000
  127.7690  132.2140   64.9470 N   0  0  0  0  0  0  0  0  0  0  0  0
  127.6530  131.3390   64.1980 C   0  0  0  0  0  0  0  0  0  0  0  0
  127.5080  130.2280   63.2530 C   0  0  0  0  0  0  0  0  0  0  0  0
  127.6600  128.8880   63.6890 C   0  0  0  0  0  0  0  0  0  0  0  0
  127.9700  128.5030   65.0980 C   0  0  0  0  0  0  0  0  0  0  0  0
  128.9760  127.5740   65.3690 C   0  0  0  0  0  0  0  0  0  0  0  0
  129.2680  127.2110   66.6810 C   0  0  0  0  0  0  0  0  0  0  0  0
  128.5490  127.7550   67.7570 C   0  0  0  0  0  0  0  0  0  0  0  0
  128.8320  127.4160   69.0810 N   0  0  0  0  0  0  0  0  0  0  0  0
  128.6050  126.0290   69.5330 C   0  0  0  0  0  0  0  0  0  0  0  0
  128.5900  125.8810   71.0690 C   0  0  0  0  0  0  0  0  0  0  0  0
  129.7850  126.4100   71.6230 O   0  0  0  0  0  0  0  0  0  0  0  0
  129.9410  127.7860   71.3160 C   0  0  0  0  0  0  0  0  0  0  0  0
  130.0000  127.9800   69.7870 C   0  0  0  0  0  0  0  0  0  0  0  0
  127.5380  128.6840   67.4740 C   0  0  0  0  0  0  0  0  0  0  0  0
  127.2490  129.0500   66.1630 C   0  0  0  0  0  0  0  0  0  0  0  0
  127.5070  127.8600   62.7510 C   0  0  0  0  0  0  0  0  0  0  0  0
  127.1790  128.1550   61.4240 C   0  0  0  0  0  0  0  0  0  0  0  0
  126.9750  127.0930   60.3910 C   0  0  0  0  0  0  0  0  0  0  0  0
  126.7400  125.7660   60.7680 C   0  0  0  0  0  0  0  0  0  0  0  0
  126.5330  124.7760   59.8120 C   0  0  0  0  0  0  0  0  0  0  0  0
  126.5660  125.0730   58.4400 C   0  0  0  0  0  0  0  0  0  0  0  0
  126.3300  124.0940   57.4680 N   0  0  0  0  0  0  0  0  0  0  0  0
  127.4680  123.4440   56.7860 C   0  0  0  0  0  0  0  0  0  0  0  0
  127.0690  122.6950   55.4960 C   0  0  0  0  0  0  0  0  0  0  0  0
  126.0410  121.7570   55.7770 O   0  0  0  0  0  0  0  0  0  0  0  0
  124.8800  122.3960   56.2810 C   0  0  0  0  0  0  0  0  0  0  0  0
  125.2110  123.1390   57.5920 C   0  0  0  0  0  0  0  0  0  0  0  0
  126.7950  126.4050   58.0670 C   0  0  0  0  0  0  0  0  0  0  0  0
  126.9990  127.3950   59.0240 C   0  0  0  0  0  0  0  0  0  0  0  0
  127.0320  129.4390   61.0090 N   0  0  0  0  0  0  0  0  0  0  0  0
  127.2080  130.4520   61.8900 C   0  0  0  0  0  0  0  0  0  0  0  0
  126.9830  132.0660   61.1750 S   0  0  0  0  0  0  0  0  0  0  0  0
  128.4510  133.0580   61.5840 C   0  0  0  0  0  0  0  0  0  0  0  0
  129.5730  132.8720   60.5620 C   0  0  0  0  0  0  0  0  0  0  0  0
  130.7160  132.6340   60.9570 O   0  0  0  0  0  0  0  0  0  0  0  0
  129.2070  132.9940   59.2680 N   0  0  0  0  0  0  0  0  0  0  0  0
  130.0170  132.8630   58.1480 C   0  0  0  0  0  0  0  0  0  0  0  0
  131.2000  132.1260   58.1470 C   0  0  0  0  0  0  0  0  0  0  0  0
  131.6940  132.2450   56.8690 C   0  0  0  0  0  0  0  0  0  0  0  0
  130.8520  133.0130   56.1380 O   0  0  0  0  0  0  0  0  0  0  0  0
  129.7900  133.3980   56.9600 N   0  0  0  0  0  0  0  0  0  0  0  0
  129.5424  127.1253   64.5396 H   0  0  0  0  0  0  0  0  0  0  0  0
  130.0733  126.4878   66.8772 H   0  0  0  0  0  0  0  0  0  0  0  0
  127.6357  125.6882   69.1402 H   0  0  0  0  0  0  0  0  0  0  0  0
  129.4420  125.4229   69.1560 H   0  0  0  0  0  0  0  0  0  0  0  0
  127.7269  126.4264   71.4784 H   0  0  0  0  0  0  0  0  0  0  0  0
  128.5159  124.8142   71.3266 H   0  0  0  0  0  0  0  0  0  0  0  0
  129.0880  128.3492   71.7224 H   0  0  0  0  0  0  0  0  0  0  0  0
  130.8764  128.1529   71.7637 H   0  0  0  0  0  0  0  0  0  0  0  0
  130.0499  129.0579   69.5735 H   0  0  0  0  0  0  0  0  0  0  0  0
  130.8896  127.4440   69.4247 H   0  0  0  0  0  0  0  0  0  0  0  0
  126.9649  129.1300   68.3002 H   0  0  0  0  0  0  0  0  0  0  0  0
  126.4467  129.7756   65.9633 H   0  0  0  0  0  0  0  0  0  0  0  0
  127.6457  126.8134   63.0599 H   0  0  0  0  0  0  0  0  0  0  0  0
  126.7186  125.5015   61.8355 H   0  0  0  0  0  0  0  0  0  0  0  0
  126.3402  123.7429   60.1368 H   0  0  0  0  0  0  0  0  0  0  0  0
  128.2052  124.2177   56.5252 H   0  0  0  0  0  0  0  0  0  0  0  0
  127.8759  122.6952   57.4810 H   0  0  0  0  0  0  0  0  0  0  0  0
  126.7075  123.4194   54.7513 H   0  0  0  0  0  0  0  0  0  0  0  0
  127.9467  122.1615   55.1023 H   0  0  0  0  0  0  0  0  0  0  0  0
  124.5098  123.1172   55.5375 H   0  0  0  0  0  0  0  0  0  0  0  0
  124.1096  121.6370   56.4818 H   0  0  0  0  0  0  0  0  0  0  0  0
  124.3162  123.6926   57.9126 H   0  0  0  0  0  0  0  0  0  0  0  0
  125.5186  122.3774   58.3237 H   0  0  0  0  0  0  0  0  0  0  0  0
  126.8138  126.6722   57.0001 H   0  0  0  0  0  0  0  0  0  0  0  0
  127.1819  128.4306   58.7013 H   0  0  0  0  0  0  0  0  0  0  0  0
  128.1659  134.1201   61.6086 H   0  0  0  0  0  0  0  0  0  0  0  0
  128.8248  132.7227   62.5627 H   0  0  0  0  0  0  0  0  0  0  0  0
  128.2330  133.1760   59.0780 H   0  0  0  0  0  0  0  0  0  0  0  0
  131.6426  131.5697   58.9864 H   0  0  0  0  0  0  0  0  0  0  0  0
  132.6245  131.7891   56.4997 H   0  0  0  0  0  0  0  0  0  0  0  0
  1  2  3  0
  2  3  1  0
  3  4  2  0
  4  5  1  0
  5  6  2  0
  6  7  1  0
  7  8  2  0
  8  9  1  0
  9 10  1  0
 10 11  1  0
 11 12  1  0
 12 13  1  0
 13 14  1  0
  8 15  1  0
 15 16  2  0
  4 17  1  0
 17 18  2  0
 18 19  1  0
 19 20  2  0
 20 21  1  0
 21 22  2  0
 22 23  1  0
 23 24  1  0
 24 25  1  0
 25 26  1  0
 26 27  1  0
 27 28  1  0
 22 29  1  0
 29 30  2  0
 18 31  1  0
 31 32  2  0
 32 33  1  0
 33 34  1  0
 34 35  1  0
 35 36  2  0
 35 37  1  0
 37 38  1  0
 38 39  1  0
 39 40  2  0
 40 41  1  0
 41 42  1  0
 32  3  1  0
 42 38  2  0
 16  5  1  0
 30 19  1  0
 14  9  1  0
 28 23  1  0
  6 43  1  0
  7 44  1  0
 10 45  1  0
 10 46  1  0
 11 47  1  0
 11 48  1  0
 13 49  1  0
 13 50  1  0
 14 51  1  0
 14 52  1  0
 15 53  1  0
 16 54  1  0
 17 55  1  0
 20 56  1  0
 21 57  1  0
 24 58  1  0
 24 59  1  0
 25 60  1  0
 25 61  1  0
 27 62  1  0
 27 63  1  0
 28 64  1  0
 28 65  1  0
 29 66  1  0
 30 67  1  0
 34 68  1  0
 34 69  1  0
 37 70  1  0
 39 71  1  0
 40 72  1  0
M  END
>  <Binding energies>  (1) 
[-11.21]

>  <Ligand effiencies>  (1) 
[-0.2606976744186047]

>  <Interactions>  (1) 
["V-B:MET:535:CE:9806, V-B:PRO:540:CD:9858, V-B:PRO:540:N:9855, V-B:PRO:540:CB:9856, V-B:PRO:540:CA:9854, V-B:LEU:363:CD1:8160, V-B:TYR:539:CZ:9848, V-A:PRO:540:N:4884, V-A:GLU:543:CD:4908, V-A:GLU:543:CG:4907, V-A:PRO:540:CB:4885, V-A:TYR:539:CD2:4874, V-A:ALA:541:CB:4892, H-A:ALA:541:N:4891, V-A:PRO:540:CA:4883, V-A:TYR:539:C:4867, V-B:GLU:543:CD:9879, V-B:HIS:456:CE1:9041, V-A:GLU:543:CB:4906, V-A:HIS:456:CE1:4069, V-B:GLU:543:CB:9877, V-B:TYR:539:CD1:9844, V-B:TYR:539:CE1:9846, H-B:TYR:539:N:9841, V-A:LEU:363:CD1:3188, H-A:TYR:539:O:4868, H-A:TYR:539:N:4870, V-B:ILE:538:CG2:9834"]

$$$$
2b_Grossjean_2025
     RDKit          3D

 42 43  0  0  0  0  0  0  0  0999 V2000
  132.1330  132.4220   57.3730 C   0  0  0  0  0  0  0  0  0  0  0  0
  131.2490  133.3840   56.8150 O   0  0  0  0  0  0  0  0  0  0  0  0
  130.1550  133.0020   56.1080 C   0  0  0  0  0  0  0  0  0  0  0  0
  130.1160  132.9810   54.8730 O   0  0  0  0  0  0  0  0  0  0  0  0
  128.9950  132.6090   56.9760 C   0  0  0  0  0  0  0  0  0  0  0  0
  128.9220  132.9760   58.3280 C   0  0  0  0  0  0  0  0  0  0  0  0
  127.8330  132.5940   59.1060 C   0  0  0  0  0  0  0  0  0  0  0  0
  126.7950  131.8460   58.5520 C   0  0  0  0  0  0  0  0  0  0  0  0
  125.7460  131.5090   59.4290 N   0  0  0  0  0  0  0  0  0  0  0  0
  124.4170  131.7050   59.2980 C   0  0  0  0  0  0  0  0  0  0  0  0
  123.8690  132.2660   58.3480 O   0  0  0  0  0  0  0  0  0  0  0  0
  123.5630  131.1860   60.4600 C   0  0  0  0  0  0  0  0  0  0  0  0
  123.7530  132.1690   61.9830 S   0  0  0  0  0  0  0  0  0  0  0  0
  125.3730  132.9230   62.0260 C   0  0  0  0  0  0  0  0  0  0  0  0
  126.4140  132.0710   62.2070 N   0  0  0  0  0  0  0  0  0  0  0  0
  127.6690  132.5730   62.2550 C   0  0  0  0  0  0  0  0  0  0  0  0
  128.7740  131.5580   62.4730 C   0  0  0  0  0  0  0  0  0  0  0  0
  127.9400  133.9310   62.1170 C   0  0  0  0  0  0  0  0  0  0  0  0
  126.8800  134.8290   61.9220 C   0  0  0  0  0  0  0  0  0  0  0  0
  127.1970  136.3280   61.7660 C   0  0  0  0  0  0  0  0  0  0  0  0
  128.5180  136.5160   61.7570 F   0  0  0  0  0  0  0  0  0  0  0  0
  126.6880  136.7890   60.6220 F   0  0  0  0  0  0  0  0  0  0  0  0
  126.6930  137.0690   62.7550 F   0  0  0  0  0  0  0  0  0  0  0  0
  125.5580  134.3170   61.8760 C   0  0  0  0  0  0  0  0  0  0  0  0
  124.4120  135.2110   61.6800 C   0  0  0  0  0  0  0  0  0  0  0  0
  123.5070  135.9160   61.5250 N   0  0  0  0  0  0  0  0  0  0  0  0
  126.8630  131.4680   57.2030 C   0  0  0  0  0  0  0  0  0  0  0  0
  127.9530  131.8490   56.4260 C   0  0  0  0  0  0  0  0  0  0  0  0
  132.0855  132.4737   58.4708 H   0  0  0  0  0  0  0  0  0  0  0  0
  131.8376  131.4160   57.0401 H   0  0  0  0  0  0  0  0  0  0  0  0
  133.1603  132.6314   57.0401 H   0  0  0  0  0  0  0  0  0  0  0  0
  129.7317  133.5702   58.7767 H   0  0  0  0  0  0  0  0  0  0  0  0
  127.7909  132.8845   60.1661 H   0  0  0  0  0  0  0  0  0  0  0  0
  126.0510  131.1030   60.3010 H   0  0  0  0  0  0  0  0  0  0  0  0
  122.5061  131.2120   60.1563 H   0  0  0  0  0  0  0  0  0  0  0  0
  123.9023  130.1642   60.6851 H   0  0  0  0  0  0  0  0  0  0  0  0
  128.9314  131.4134   63.5520 H   0  0  0  0  0  0  0  0  0  0  0  0
  128.4886  130.6006   62.0126 H   0  0  0  0  0  0  0  0  0  0  0  0
  129.7037  131.9235   62.0126 H   0  0  0  0  0  0  0  0  0  0  0  0
  128.9764  134.2971   62.1604 H   0  0  0  0  0  0  0  0  0  0  0  0
  126.0539  130.8697   56.7586 H   0  0  0  0  0  0  0  0  0  0  0  0
  127.9975  131.5504   55.3682 H   0  0  0  0  0  0  0  0  0  0  0  0
  1  2  1  0
  2  3  1  0
  3  4  2  0
  3  5  1  0
  5  6  2  0
  6  7  1  0
  7  8  2  0
  8  9  1  0
  9 10  1  0
 10 11  2  0
 10 12  1  0
 12 13  1  0
 13 14  1  0
 14 15  2  0
 15 16  1  0
 16 17  1  0
 16 18  2  0
 18 19  1  0
 19 20  1  0
 20 21  1  0
 20 22  1  0
 20 23  1  0
 19 24  2  0
 24 25  1  0
 25 26  3  0
  8 27  1  0
 27 28  2  0
 28  5  1  0
 24 14  1  0
  1 29  1  0
  1 30  1  0
  1 31  1  0
  6 32  1  0
  7 33  1  0
  9 34  1  0
 12 35  1  0
 12 36  1  0
 17 37  1  0
 17 38  1  0
 17 39  1  0
 18 40  1  0
 27 41  1  0
 28 42  1  0
M  END
>  <Binding energies>  (1) 
[-7.56]

>  <Ligand effiencies>  (1) 
[-0.26068965517241377]

>  <Interactions>  (1) 
["V-B:ASP:366:CG:8184, V-B:ASP:366:CB:8183, V-A:PRO:540:N:4884, V-B:PRO:482:CB:9297, V-B:LEU:475:CD1:9229, V-B:TRP:381:CH2:8343, V-A:PRO:540:CB:4885, V-A:TYR:539:CD2:4874, V-A:ALA:541:CB:4892, V-B:PRO:482:CG:9298, V-B:TRP:381:CZ2:8341, V-A:ALA:541:CA:4890, V-A:PRO:540:CA:4883, V-A:TYR:539:C:4867, V-B:ILE:369:CD1:8210, V-B:ILE:369:CG2:8208, V-A:TYR:539:CE2:4876, V-A:TYR:539:CZ:4877, V-B:ASP:366:CA:8181, V-A:LEU:363:CD1:3188, V-A:MET:535:CE:4835, H-A:TYR:539:OH:4878, V-B:ILE:369:CB:8207, H-A:TYR:539:N:4870, V-B:TRP:381:CE2:8338, V-A:TYR:539:CG:4872, V-A:ILE:538:CA:4860, V-A:ILE:538:CB:4862, V-A:PRO:540:CD:4887, V-A:TYR:539:CE1:4875, V-A:ILE:538:C:4858, V-B:TRP:381:CZ3:8342, V-A:PRO:540:C:4881, V-B:TRP:381:CE3:8339, V-A:TYR:539:CB:4871"]

$$$$
2c_Ghoteimi_2023
     RDKit          3D

 72 77  0  0  0  0  0  0  0  0999 V2000
  127.8020  132.4230   64.8080 N   0  0  0  0  0  0  0  0  0  0  0  0
  127.6670  131.5440   64.0690 C   0  0  0  0  0  0  0  0  0  0  0  0
  127.4940  130.4250   63.1370 C   0  0  0  0  0  0  0  0  0  0  0  0
  127.6050  129.0870   63.5880 C   0  0  0  0  0  0  0  0  0  0  0  0
  127.9010  128.7070   65.0020 C   0  0  0  0  0  0  0  0  0  0  0  0
  128.8740  127.7460   65.2830 C   0  0  0  0  0  0  0  0  0  0  0  0
  129.1580  127.3900   66.5990 C   0  0  0  0  0  0  0  0  0  0  0  0
  128.4670  127.9760   67.6710 C   0  0  0  0  0  0  0  0  0  0  0  0
  128.7500  127.6480   68.9990 N   0  0  0  0  0  0  0  0  0  0  0  0
  128.6900  126.2360   69.4230 C   0  0  0  0  0  0  0  0  0  0  0  0
  128.6390  126.0620   70.9560 C   0  0  0  0  0  0  0  0  0  0  0  0
  129.7400  126.7250   71.5590 O   0  0  0  0  0  0  0  0  0  0  0  0
  129.7320  128.1160   71.2760 C   0  0  0  0  0  0  0  0  0  0  0  0
  129.8110  128.3440   69.7520 C   0  0  0  0  0  0  0  0  0  0  0  0
  127.4890  128.9370   67.3780 C   0  0  0  0  0  0  0  0  0  0  0  0
  127.2070  129.2940   66.0630 C   0  0  0  0  0  0  0  0  0  0  0  0
  127.4290  128.0530   62.6590 C   0  0  0  0  0  0  0  0  0  0  0  0
  127.1240  128.3440   61.3260 C   0  0  0  0  0  0  0  0  0  0  0  0
  126.9090  127.2770   60.3000 C   0  0  0  0  0  0  0  0  0  0  0  0
  126.8950  127.5900   58.9370 C   0  0  0  0  0  0  0  0  0  0  0  0
  126.7010  126.6000   57.9770 C   0  0  0  0  0  0  0  0  0  0  0  0
  126.5020  125.2600   58.3460 C   0  0  0  0  0  0  0  0  0  0  0  0
  126.3310  124.2500   57.3930 N   0  0  0  0  0  0  0  0  0  0  0  0
  127.5100  123.6590   56.7280 C   0  0  0  0  0  0  0  0  0  0  0  0
  127.1660  122.8580   55.4540 C   0  0  0  0  0  0  0  0  0  0  0  0
  126.2040  121.8610   55.7540 O   0  0  0  0  0  0  0  0  0  0  0  0
  125.0000  122.4300   56.2440 C   0  0  0  0  0  0  0  0  0  0  0  0
  125.2780  123.2230   57.5380 C   0  0  0  0  0  0  0  0  0  0  0  0
  126.5300  124.9500   59.7130 C   0  0  0  0  0  0  0  0  0  0  0  0
  126.7250  125.9400   60.6720 C   0  0  0  0  0  0  0  0  0  0  0  0
  127.0160  129.6270   60.8970 N   0  0  0  0  0  0  0  0  0  0  0  0
  127.2130  130.6440   61.7690 C   0  0  0  0  0  0  0  0  0  0  0  0
  127.0440  132.2550   61.0350 S   0  0  0  0  0  0  0  0  0  0  0  0
  128.5300  133.2100   61.4660 C   0  0  0  0  0  0  0  0  0  0  0  0
  129.7000  132.9040   60.5300 C   0  0  0  0  0  0  0  0  0  0  0  0
  130.8000  132.6230   61.0090 O   0  0  0  0  0  0  0  0  0  0  0  0
  129.4240  132.9740   59.2100 N   0  0  0  0  0  0  0  0  0  0  0  0
  130.3010  132.7270   58.1640 C   0  0  0  0  0  0  0  0  0  0  0  0
  130.4080  133.3800   57.0280 N   0  0  0  0  0  0  0  0  0  0  0  0
  131.3570  132.8740   56.2650 C   0  0  0  0  0  0  0  0  0  0  0  0
  132.0460  131.7820   56.7830 C   0  0  0  0  0  0  0  0  0  0  0  0
  131.4080  131.4060   58.3560 S   0  0  0  0  0  0  0  0  0  0  0  0
  129.4208  127.2660   64.4580 H   0  0  0  0  0  0  0  0  0  0  0  0
  129.9353  126.6385   66.8014 H   0  0  0  0  0  0  0  0  0  0  0  0
  127.7884  125.7789   68.9893 H   0  0  0  0  0  0  0  0  0  0  0  0
  129.6112  125.7496   69.0697 H   0  0  0  0  0  0  0  0  0  0  0  0
  127.7015  126.4907   71.3398 H   0  0  0  0  0  0  0  0  0  0  0  0
  128.6873  124.9902   71.1985 H   0  0  0  0  0  0  0  0  0  0  0  0
  128.8039  128.5614   71.6635 H   0  0  0  0  0  0  0  0  0  0  0  0
  130.6011  128.5879   71.7576 H   0  0  0  0  0  0  0  0  0  0  0  0
  129.7268  129.4232   69.5562 H   0  0  0  0  0  0  0  0  0  0  0  0
  130.7731  127.9332   69.4119 H   0  0  0  0  0  0  0  0  0  0  0  0
  126.9365  129.4158   68.1998 H   0  0  0  0  0  0  0  0  0  0  0  0
  126.4305  130.0453   65.8569 H   0  0  0  0  0  0  0  0  0  0  0  0
  127.5314  127.0060   62.9804 H   0  0  0  0  0  0  0  0  0  0  0  0
  127.0393  128.6330   58.6187 H   0  0  0  0  0  0  0  0  0  0  0  0
  126.7037  126.8725   56.9113 H   0  0  0  0  0  0  0  0  0  0  0  0
  128.1974  124.4723   56.4521 H   0  0  0  0  0  0  0  0  0  0  0  0
  127.9610  122.9526   57.4404 H   0  0  0  0  0  0  0  0  0  0  0  0
  126.7586  123.5403   54.6934 H   0  0  0  0  0  0  0  0  0  0  0  0
  128.0785  122.3766   55.0724 H   0  0  0  0  0  0  0  0  0  0  0  0
  124.5820  123.1073   55.4847 H   0  0  0  0  0  0  0  0  0  0  0  0
  124.2831  121.6246   56.4617 H   0  0  0  0  0  0  0  0  0  0  0  0
  124.3472  123.7216   57.8461 H   0  0  0  0  0  0  0  0  0  0  0  0
  125.6357  122.5004   58.2863 H   0  0  0  0  0  0  0  0  0  0  0  0
  126.3955  123.9063   60.0333 H   0  0  0  0  0  0  0  0  0  0  0  0
  126.7347  125.6678   61.7377 H   0  0  0  0  0  0  0  0  0  0  0  0
  128.2941  134.2824   61.4006 H   0  0  0  0  0  0  0  0  0  0  0  0
  128.8295  132.9296   62.4866 H   0  0  0  0  0  0  0  0  0  0  0  0
  128.4780  133.2060   58.9420 H   0  0  0  0  0  0  0  0  0  0  0  0
  131.5907  133.2918   55.2746 H   0  0  0  0  0  0  0  0  0  0  0  0
  132.8622  131.2437   56.2790 H   0  0  0  0  0  0  0  0  0  0  0  0
  1  2  3  0
  2  3  1  0
  3  4  2  0
  4  5  1  0
  5  6  2  0
  6  7  1  0
  7  8  2  0
  8  9  1  0
  9 10  1  0
 10 11  1  0
 11 12  1  0
 12 13  1  0
 13 14  1  0
  8 15  1  0
 15 16  2  0
  4 17  1  0
 17 18  2  0
 18 19  1  0
 19 20  2  0
 20 21  1  0
 21 22  2  0
 22 23  1  0
 23 24  1  0
 24 25  1  0
 25 26  1  0
 26 27  1  0
 27 28  1  0
 22 29  1  0
 29 30  2  0
 18 31  1  0
 31 32  2  0
 32 33  1  0
 33 34  1  0
 34 35  1  0
 35 36  2  0
 35 37  1  0
 37 38  1  0
 38 39  2  0
 39 40  1  0
 40 41  2  0
 41 42  1  0
 32  3  1  0
 42 38  1  0
 16  5  1  0
 30 19  1  0
 14  9  1  0
 28 23  1  0
  6 43  1  0
  7 44  1  0
 10 45  1  0
 10 46  1  0
 11 47  1  0
 11 48  1  0
 13 49  1  0
 13 50  1  0
 14 51  1  0
 14 52  1  0
 15 53  1  0
 16 54  1  0
 17 55  1  0
 20 56  1  0
 21 57  1  0
 24 58  1  0
 24 59  1  0
 25 60  1  0
 25 61  1  0
 27 62  1  0
 27 63  1  0
 28 64  1  0
 28 65  1  0
 29 66  1  0
 30 67  1  0
 34 68  1  0
 34 69  1  0
 37 70  1  0
 40 71  1  0
 41 72  1  0
M  END
>  <Binding energies>  (1) 
[-10.85]

>  <Ligand effiencies>  (1) 
[-0.25232558139534883]

>  <Interactions>  (1) 
["V-B:MET:535:CE:9806, V-B:PRO:540:CD:9858, V-B:PRO:540:N:9855, V-B:PRO:540:CB:9856, V-B:PRO:540:CA:9854, V-B:LEU:363:CD1:8160, V-B:TYR:539:CZ:9848, V-A:PRO:540:N:4884, V-A:GLU:543:CD:4908, V-A:GLU:543:CG:4907, V-A:TYR:539:CD2:4874, V-A:ALA:541:CB:4892, H-A:ALA:541:N:4891, V-A:PRO:540:CA:4883, V-A:TYR:539:C:4867, V-B:GLU:543:CD:9879, V-B:HIS:456:CE1:9041, V-A:GLU:543:CB:4906, V-A:HIS:456:CE1:4069, V-B:GLU:543:CB:9877, V-B:TYR:539:CD1:9844, V-B:TYR:539:CE1:9846, H-B:TYR:539:N:9841, V-A:LEU:363:CD1:3188, H-A:TYR:539:O:4868, H-A:TYR:539:N:4870, V-A:ILE:538:CA:4860, V-A:ILE:538:CB:4862, V-B:ILE:538:CG2:9834, V-A:PRO:540:C:4881"]

$$$$
2c_Grossjean_2025
     RDKit          3D

 40 41  0  0  0  0  0  0  0  0999 V2000
  131.6290  132.9690   56.6160 C   0  0  0  0  0  0  0  0  0  0  0  0
  130.3010  133.0170   56.1050 O   0  0  0  0  0  0  0  0  0  0  0  0
  129.2480  132.6800   56.9340 C   0  0  0  0  0  0  0  0  0  0  0  0
  128.2070  131.9560   56.3540 C   0  0  0  0  0  0  0  0  0  0  0  0
  127.1010  131.5710   57.1080 C   0  0  0  0  0  0  0  0  0  0  0  0
  127.0240  131.9210   58.4640 C   0  0  0  0  0  0  0  0  0  0  0  0
  125.9580  131.5630   59.3100 N   0  0  0  0  0  0  0  0  0  0  0  0
  124.6310  131.6940   59.0950 C   0  0  0  0  0  0  0  0  0  0  0  0
  124.1310  132.2220   58.1000 O   0  0  0  0  0  0  0  0  0  0  0  0
  123.7370  131.1620   60.2260 C   0  0  0  0  0  0  0  0  0  0  0  0
  123.8450  132.0720   61.8060 S   0  0  0  0  0  0  0  0  0  0  0  0
  125.4370  132.8770   61.9220 C   0  0  0  0  0  0  0  0  0  0  0  0
  126.4980  132.0550   62.1310 N   0  0  0  0  0  0  0  0  0  0  0  0
  127.7310  132.5950   62.2380 C   0  0  0  0  0  0  0  0  0  0  0  0
  128.8600  131.6140   62.4880 C   0  0  0  0  0  0  0  0  0  0  0  0
  127.9640  133.9650   62.1330 C   0  0  0  0  0  0  0  0  0  0  0  0
  126.8850  134.8320   61.9090 C   0  0  0  0  0  0  0  0  0  0  0  0
  127.1580  136.3440   61.7930 C   0  0  0  0  0  0  0  0  0  0  0  0
  126.6030  136.9880   62.8210 F   0  0  0  0  0  0  0  0  0  0  0  0
  128.4720  136.5740   61.7960 F   0  0  0  0  0  0  0  0  0  0  0  0
  126.6610  136.8730   60.6730 F   0  0  0  0  0  0  0  0  0  0  0  0
  125.5840  134.2790   61.8000 C   0  0  0  0  0  0  0  0  0  0  0  0
  124.4180  135.1390   61.5680 C   0  0  0  0  0  0  0  0  0  0  0  0
  123.4990  135.8180   61.3850 N   0  0  0  0  0  0  0  0  0  0  0  0
  128.0710  132.6320   59.0540 C   0  0  0  0  0  0  0  0  0  0  0  0
  129.1740  133.0140   58.2960 C   0  0  0  0  0  0  0  0  0  0  0  0
  131.5990  132.9701   57.7156 H   0  0  0  0  0  0  0  0  0  0  0  0
  132.1246  132.0524   56.2636 H   0  0  0  0  0  0  0  0  0  0  0  0
  132.1894  133.8475   56.2636 H   0  0  0  0  0  0  0  0  0  0  0  0
  128.2598  131.6859   55.2890 H   0  0  0  0  0  0  0  0  0  0  0  0
  126.2895  130.9936   56.6409 H   0  0  0  0  0  0  0  0  0  0  0  0
  126.2360  131.2200   60.2180 H   0  0  0  0  0  0  0  0  0  0  0  0
  122.6932  131.2037   59.8813 H   0  0  0  0  0  0  0  0  0  0  0  0
  124.0927  130.1431   60.4388 H   0  0  0  0  0  0  0  0  0  0  0  0
  129.0039  131.4889   63.5713 H   0  0  0  0  0  0  0  0  0  0  0  0
  128.6084  130.6428   62.0370 H   0  0  0  0  0  0  0  0  0  0  0  0
  129.7866  131.9987   62.0370 H   0  0  0  0  0  0  0  0  0  0  0  0
  128.9854  134.3627   62.2250 H   0  0  0  0  0  0  0  0  0  0  0  0
  128.0239  132.8912   60.1220 H   0  0  0  0  0  0  0  0  0  0  0  0
  129.9916  133.5802   58.7660 H   0  0  0  0  0  0  0  0  0  0  0  0
  1  2  1  0
  2  3  1  0
  3  4  2  0
  4  5  1  0
  5  6  2  0
  6  7  1  0
  7  8  1  0
  8  9  2  0
  8 10  1  0
 10 11  1  0
 11 12  1  0
 12 13  2  0
 13 14  1  0
 14 15  1  0
 14 16  2  0
 16 17  1  0
 17 18  1  0
 18 19  1  0
 18 20  1  0
 18 21  1  0
 17 22  2  0
 22 23  1  0
 23 24  3  0
  6 25  1  0
 25 26  2  0
 26  3  1  0
 22 12  1  0
  1 27  1  0
  1 28  1  0
  1 29  1  0
  4 30  1  0
  5 31  1  0
  7 32  1  0
 10 33  1  0
 10 34  1  0
 15 35  1  0
 15 36  1  0
 15 37  1  0
 16 38  1  0
 25 39  1  0
 26 40  1  0
M  END
>  <Binding energies>  (1) 
[-6.74]

>  <Ligand effiencies>  (1) 
[-0.24962962962962965]

>  <Interactions>  (1) 
["V-B:ASP:366:CG:8184, V-B:ASP:366:CB:8183, V-A:PRO:540:N:4884, V-B:PRO:482:CB:9297, V-B:LEU:475:CD1:9229, V-B:TRP:381:CH2:8343, V-A:TYR:539:CD2:4874, V-A:ALA:541:CB:4892, V-B:PRO:482:CG:9298, V-B:TRP:381:CZ2:8341, V-A:ALA:541:CA:4890, V-A:TYR:539:C:4867, V-B:ILE:369:CD1:8210, V-B:ILE:369:CG2:8208, V-A:TYR:539:CE2:4876, V-A:TYR:539:CZ:4877, V-B:ASP:366:CA:8181, V-A:LEU:363:CD1:3188, V-A:MET:535:CE:4835, H-A:TYR:539:OH:4878, H-A:TYR:539:N:4870, V-B:TRP:381:CE2:8338, V-A:TYR:539:CG:4872, V-A:ILE:538:CB:4862, V-A:PRO:540:CD:4887, V-A:TYR:539:CE1:4875, V-B:TRP:381:CD2:8336, V-B:TRP:381:CZ3:8342, V-A:PRO:540:C:4881, V-B:TRP:381:CE3:8339, V-A:TYR:539:CB:4871"]

$$$$
2d_Ghoteimi_2023
     RDKit          3D

 68 72  0  0  0  0  0  0  0  0999 V2000
  124.5340  131.8360   59.8550 C   0  0  0  0  0  0  0  0  0  0  0  0
  124.2360  132.8550   60.7980 O   0  0  0  0  0  0  0  0  0  0  0  0
  123.7540  132.5400   62.0180 C   0  0  0  0  0  0  0  0  0  0  0  0
  123.8070  133.2630   63.0170 O   0  0  0  0  0  0  0  0  0  0  0  0
  123.1070  131.1470   62.0200 C   0  0  0  0  0  0  0  0  0  0  0  0
  123.3570  130.3040   63.6200 S   0  0  0  0  0  0  0  0  0  0  0  0
  125.1080  130.1950   63.9270 C   0  0  0  0  0  0  0  0  0  0  0  0
  125.8620  130.5690   62.8650 N   0  0  0  0  0  0  0  0  0  0  0  0
  127.2150  130.5290   62.9550 C   0  0  0  0  0  0  0  0  0  0  0  0
  127.9800  130.9390   61.7380 C   0  0  0  0  0  0  0  0  0  0  0  0
  128.6970  132.1400   61.7180 C   0  0  0  0  0  0  0  0  0  0  0  0
  129.4110  132.5280   60.5870 C   0  0  0  0  0  0  0  0  0  0  0  0
  129.4430  131.7220   59.4390 C   0  0  0  0  0  0  0  0  0  0  0  0
  130.1410  132.1050   58.2880 N   0  0  0  0  0  0  0  0  0  0  0  0
  129.5110  132.9360   57.2440 C   0  0  0  0  0  0  0  0  0  0  0  0
  130.2840  132.9420   55.9080 C   0  0  0  0  0  0  0  0  0  0  0  0
  131.6270  133.3420   56.1290 O   0  0  0  0  0  0  0  0  0  0  0  0
  132.2960  132.4580   57.0130 C   0  0  0  0  0  0  0  0  0  0  0  0
  131.5790  132.4320   58.3800 C   0  0  0  0  0  0  0  0  0  0  0  0
  128.7130  130.5250   59.4590 C   0  0  0  0  0  0  0  0  0  0  0  0
  127.9970  130.1390   60.5890 C   0  0  0  0  0  0  0  0  0  0  0  0
  127.8470  130.1120   64.1300 C   0  0  0  0  0  0  0  0  0  0  0  0
  127.0920  129.7530   65.2530 C   0  0  0  0  0  0  0  0  0  0  0  0
  127.8350  129.3450   66.4830 C   0  0  0  0  0  0  0  0  0  0  0  0
  127.8320  130.1680   67.6110 C   0  0  0  0  0  0  0  0  0  0  0  0
  128.5110  129.7910   68.7660 C   0  0  0  0  0  0  0  0  0  0  0  0
  129.2170  128.5780   68.8240 C   0  0  0  0  0  0  0  0  0  0  0  0
  129.8950  128.1740   69.9780 N   0  0  0  0  0  0  0  0  0  0  0  0
  129.1670  127.7340   71.1840 C   0  0  0  0  0  0  0  0  0  0  0  0
  130.0580  126.9970   72.2060 C   0  0  0  0  0  0  0  0  0  0  0  0
  131.1720  127.8050   72.5520 O   0  0  0  0  0  0  0  0  0  0  0  0
  131.9660  128.1170   71.4180 C   0  0  0  0  0  0  0  0  0  0  0  0
  131.1240  128.8870   70.3780 C   0  0  0  0  0  0  0  0  0  0  0  0
  129.2000  127.7500   67.6940 C   0  0  0  0  0  0  0  0  0  0  0  0
  128.5190  128.1270   66.5390 C   0  0  0  0  0  0  0  0  0  0  0  0
  125.6780  129.7990   65.1590 C   0  0  0  0  0  0  0  0  0  0  0  0
  124.8450  129.4500   66.3130 C   0  0  0  0  0  0  0  0  0  0  0  0
  124.1900  129.1750   67.2280 N   0  0  0  0  0  0  0  0  0  0  0  0
  124.8043  130.9119   60.3869 H   0  0  0  0  0  0  0  0  0  0  0  0
  123.6523  131.6513   59.2238 H   0  0  0  0  0  0  0  0  0  0  0  0
  125.3763  132.1555   59.2238 H   0  0  0  0  0  0  0  0  0  0  0  0
  122.0278  131.2526   61.8350 H   0  0  0  0  0  0  0  0  0  0  0  0
  123.5790  130.5430   61.2310 H   0  0  0  0  0  0  0  0  0  0  0  0
  128.6968  132.7868   62.6078 H   0  0  0  0  0  0  0  0  0  0  0  0
  129.9588  133.4819   60.5938 H   0  0  0  0  0  0  0  0  0  0  0  0
  128.4976  132.5508   57.0576 H   0  0  0  0  0  0  0  0  0  0  0  0
  129.5036  133.9709   57.6167 H   0  0  0  0  0  0  0  0  0  0  0  0
  130.2711  131.9310   55.4746 H   0  0  0  0  0  0  0  0  0  0  0  0
  129.8047  133.6496   55.2155 H   0  0  0  0  0  0  0  0  0  0  0  0
  132.2970  131.4454   56.5833 H   0  0  0  0  0  0  0  0  0  0  0  0
  133.3301  132.8051   57.1552 H   0  0  0  0  0  0  0  0  0  0  0  0
  132.0672  131.6776   59.0144 H   0  0  0  0  0  0  0  0  0  0  0  0
  131.6529  133.4451   58.8021 H   0  0  0  0  0  0  0  0  0  0  0  0
  128.7059  129.8805   58.5676 H   0  0  0  0  0  0  0  0  0  0  0  0
  127.4369  129.1923   60.5789 H   0  0  0  0  0  0  0  0  0  0  0  0
  128.9452  130.0656   64.1726 H   0  0  0  0  0  0  0  0  0  0  0  0
  127.2877  131.1236   67.5866 H   0  0  0  0  0  0  0  0  0  0  0  0
  128.4945  130.4518   69.6452 H   0  0  0  0  0  0  0  0  0  0  0  0
  128.7358  128.6199   71.6730 H   0  0  0  0  0  0  0  0  0  0  0  0
  128.3955  127.0224   70.8547 H   0  0  0  0  0  0  0  0  0  0  0  0
  129.4711  126.7795   73.1106 H   0  0  0  0  0  0  0  0  0  0  0  0
  130.4182  126.0584   71.7596 H   0  0  0  0  0  0  0  0  0  0  0  0
  132.8175  128.7396   71.7299 H   0  0  0  0  0  0  0  0  0  0  0  0
  132.3316  127.1832   70.9659 H   0  0  0  0  0  0  0  0  0  0  0  0
  130.8395  129.8582   70.8092 H   0  0  0  0  0  0  0  0  0  0  0  0
  131.7436  128.9993   69.4760 H   0  0  0  0  0  0  0  0  0  0  0  0
  129.7324  126.7878   67.7193 H   0  0  0  0  0  0  0  0  0  0  0  0
  128.5194  127.4609   65.6636 H   0  0  0  0  0  0  0  0  0  0  0  0
  1  2  1  0
  2  3  1  0
  3  4  2  0
  3  5  1  0
  5  6  1  0
  6  7  1  0
  7  8  2  0
  8  9  1  0
  9 10  1  0
 10 11  2  0
 11 12  1  0
 12 13  2  0
 13 14  1  0
 14 15  1  0
 15 16  1  0
 16 17  1  0
 17 18  1  0
 18 19  1  0
 13 20  1  0
 20 21  2  0
  9 22  2  0
 22 23  1  0
 23 24  1  0
 24 25  2  0
 25 26  1  0
 26 27  2  0
 27 28  1  0
 28 29  1  0
 29 30  1  0
 30 31  1  0
 31 32  1  0
 32 33  1  0
 27 34  1  0
 34 35  2  0
 23 36  2  0
 36 37  1  0
 37 38  3  0
 36  7  1  0
 21 10  1  0
 35 24  1  0
 19 14  1  0
 33 28  1  0
  1 39  1  0
  1 40  1  0
  1 41  1  0
  5 42  1  0
  5 43  1  0
 11 44  1  0
 12 45  1  0
 15 46  1  0
 15 47  1  0
 16 48  1  0
 16 49  1  0
 18 50  1  0
 18 51  1  0
 19 52  1  0
 19 53  1  0
 20 54  1  0
 21 55  1  0
 22 56  1  0
 25 57  1  0
 26 58  1  0
 29 59  1  0
 29 60  1  0
 30 61  1  0
 30 62  1  0
 32 63  1  0
 32 64  1  0
 33 65  1  0
 33 66  1  0
 34 67  1  0
 35 68  1  0
M  END
>  <Binding energies>  (1) 
[-8.93]

>  <Ligand effiencies>  (1) 
[-0.235]

>  <Interactions>  (1) 
["V-B:ASP:366:CG:8184, V-A:PRO:540:N:4884, V-A:GLU:543:CD:4908, V-A:GLU:543:CG:4907, V-A:PRO:540:CB:4885, V-A:TYR:539:CD2:4874, V-A:PRO:540:CA:4883, V-A:TYR:539:C:4867, V-B:ILE:369:CD1:8210, V-A:HIS:456:CD2:4067, H-A:LYS:547:NZ:4951, H-B:GLY:454:N:9021, V-A:HIS:456:CG:4065, V-B:GLU:543:CD:9879, V-B:HIS:456:CE1:9041, H-B:ARG:545:NH1:9898, H-B:ARG:545:NH2:9899, H-B:ARG:545:NE:9895, V-A:GLU:543:CB:4906, V-A:HIS:456:CE1:4069, V-A:GLU:543:C:4902, V-B:TYR:484:CE1:9316, V-B:ILE:369:CG2:8208, V-A:TYR:539:CE2:4876, V-B:ARG:545:CZ:9897, V-B:TYR:484:CZ:9318, V-A:LEU:363:CD1:3188, V-A:MET:535:CE:4835, H-B:TYR:484:OH:9319, V-B:ARG:545:CG:9893, H-A:TYR:539:N:4870, V-A:TYR:539:CG:4872, V-A:ILE:538:CA:4860, V-A:ARG:545:CA:4919, V-A:GLY:544:C:4912, V-A:ILE:538:CB:4862, V-A:PRO:540:CD:4887, V-A:ILE:538:C:4858, V-B:ARG:545:CD:9894, V-A:GLU:543:CA:4904"]

$$$$
2d_Grossjean_2025
     RDKit          3D

 36 37  0  0  0  0  0  0  0  0999 V2000
  132.7280  131.1560   56.1430 C   0  0  0  0  0  0  0  0  0  0  0  0
  132.0620  131.5320   57.4530 C   0  0  0  0  0  0  0  0  0  0  0  0
  132.7570  131.5010   58.6600 C   0  0  0  0  0  0  0  0  0  0  0  0
  132.0970  131.8620   59.8440 C   0  0  0  0  0  0  0  0  0  0  0  0
  132.8850  131.8320   61.1680 C   0  0  0  0  0  0  0  0  0  0  0  0
  132.4030  130.8770   61.9640 F   0  0  0  0  0  0  0  0  0  0  0  0
  134.1740  131.5830   60.9280 F   0  0  0  0  0  0  0  0  0  0  0  0
  132.8170  132.9840   61.8370 F   0  0  0  0  0  0  0  0  0  0  0  0
  130.7330  132.2420   59.7720 C   0  0  0  0  0  0  0  0  0  0  0  0
  130.0130  132.6730   60.9730 C   0  0  0  0  0  0  0  0  0  0  0  0
  129.4450  133.0140   61.9220 N   0  0  0  0  0  0  0  0  0  0  0  0
  130.1020  132.2200   58.5060 C   0  0  0  0  0  0  0  0  0  0  0  0
  128.3890  132.6360   58.2390 S   0  0  0  0  0  0  0  0  0  0  0  0
  127.3820  131.8240   59.5240 C   0  0  0  0  0  0  0  0  0  0  0  0
  126.4360  132.7900   60.2430 C   0  0  0  0  0  0  0  0  0  0  0  0
  125.2300  132.5410   60.2660 O   0  0  0  0  0  0  0  0  0  0  0  0
  127.0160  133.8830   60.7820 N   0  0  0  0  0  0  0  0  0  0  0  0
  126.4260  134.9390   61.5010 C   0  0  0  0  0  0  0  0  0  0  0  0
  127.2560  136.0250   61.7860 C   0  0  0  0  0  0  0  0  0  0  0  0
  126.7650  137.1170   62.4980 C   0  0  0  0  0  0  0  0  0  0  0  0
  125.4420  137.1170   62.9330 C   0  0  0  0  0  0  0  0  0  0  0  0
  124.6080  136.0350   62.6660 C   0  0  0  0  0  0  0  0  0  0  0  0
  125.0960  134.9430   61.9540 C   0  0  0  0  0  0  0  0  0  0  0  0
  130.7600  131.8880   57.3680 N   0  0  0  0  0  0  0  0  0  0  0  0
  133.6689  130.6248   56.3492 H   0  0  0  0  0  0  0  0  0  0  0  0
  132.0575  130.5032   55.5649 H   0  0  0  0  0  0  0  0  0  0  0  0
  132.9406  132.0674   55.5649 H   0  0  0  0  0  0  0  0  0  0  0  0
  133.8137  131.1962   58.6844 H   0  0  0  0  0  0  0  0  0  0  0  0
  126.7818  131.0328   59.0509 H   0  0  0  0  0  0  0  0  0  0  0  0
  128.0741  131.4198   60.2774 H   0  0  0  0  0  0  0  0  0  0  0  0
  128.0040  133.9980   60.6060 H   0  0  0  0  0  0  0  0  0  0  0  0
  128.3024  136.0182   61.4468 H   0  0  0  0  0  0  0  0  0  0  0  0
  127.4186  137.9746   62.7155 H   0  0  0  0  0  0  0  0  0  0  0  0
  125.0525  137.9801   63.4928 H   0  0  0  0  0  0  0  0  0  0  0  0
  123.5655  136.0429   63.0169 H   0  0  0  0  0  0  0  0  0  0  0  0
  124.4410  134.0840   61.7462 H   0  0  0  0  0  0  0  0  0  0  0  0
  1  2  1  0
  2  3  2  0
  3  4  1  0
  4  5  1  0
  5  6  1  0
  5  7  1  0
  5  8  1  0
  4  9  2  0
  9 10  1  0
 10 11  3  0
  9 12  1  0
 12 13  1  0
 13 14  1  0
 14 15  1  0
 15 16  2  0
 15 17  1  0
 17 18  1  0
 18 19  2  0
 19 20  1  0
 20 21  2  0
 21 22  1  0
 22 23  2  0
 12 24  2  0
 24  2  1  0
 23 18  1  0
  1 25  1  0
  1 26  1  0
  1 27  1  0
  3 28  1  0
 14 29  1  0
 14 30  1  0
 17 31  1  0
 19 32  1  0
 20 33  1  0
 21 34  1  0
 22 35  1  0
 23 36  1  0
M  END
>  <Binding energies>  (1) 
[-6.45]

>  <Ligand effiencies>  (1) 
[-0.258]

>  <Interactions>  (1) 
["V-A:ASP:366:CG:3212, V-A:PRO:540:N:4884, V-B:PRO:482:CB:9297, V-B:LEU:475:CD1:9229, V-B:TRP:381:CH2:8343, V-A:PRO:540:CB:4885, V-A:TYR:539:CD2:4874, V-A:ALA:541:CB:4892, V-B:PRO:482:CG:9298, V-B:TRP:381:CZ2:8341, H-A:ALA:541:N:4891, V-A:ALA:541:CA:4890, V-A:PRO:540:CA:4883, V-A:TYR:539:C:4867, V-A:TYR:539:CE2:4876, V-A:TYR:531:CE2:4793, V-A:LEU:363:CD1:3188, V-A:TYR:531:CZ:4794, V-A:LEU:363:CA:3184, H-A:TYR:539:O:4868, V-B:LEU:475:CB:9227, V-B:TRP:381:CE2:8338, V-A:PRO:540:C:4881, V-A:ALA:541:C:4888, V-A:TYR:531:CD2:4791, V-A:ASN:362:CA:3173, V-A:ASN:362:C:3171, V-A:ASN:362:CB:3175"]

$$$$
2e_Grossjean_2025
     RDKit          3D

 38 39  0  0  0  0  0  0  0  0999 V2000
  132.8090  132.0360   62.3680 C   0  0  0  0  0  0  0  0  0  0  0  0
  132.7460  131.8800   60.8610 C   0  0  0  0  0  0  0  0  0  0  0  0
  133.8940  131.6450   60.1000 C   0  0  0  0  0  0  0  0  0  0  0  0
  133.7570  131.4990   58.7190 C   0  0  0  0  0  0  0  0  0  0  0  0
  132.4910  131.5920   58.1370 C   0  0  0  0  0  0  0  0  0  0  0  0
  131.3830  131.8390   58.9570 C   0  0  0  0  0  0  0  0  0  0  0  0
  130.1280  131.8800   58.3250 N   0  0  0  0  0  0  0  0  0  0  0  0
  129.7520  132.6320   57.2670 C   0  0  0  0  0  0  0  0  0  0  0  0
  130.4980  133.3720   56.6250 O   0  0  0  0  0  0  0  0  0  0  0  0
  128.2670  132.5650   56.8970 C   0  0  0  0  0  0  0  0  0  0  0  0
  127.3860  131.2740   57.8330 S   0  0  0  0  0  0  0  0  0  0  0  0
  127.0830  131.9740   59.4400 C   0  0  0  0  0  0  0  0  0  0  0  0
  128.1760  132.0510   60.2380 N   0  0  0  0  0  0  0  0  0  0  0  0
  128.0260  132.5300   61.4940 C   0  0  0  0  0  0  0  0  0  0  0  0
  129.2880  132.5880   62.3330 C   0  0  0  0  0  0  0  0  0  0  0  0
  126.7940  132.9410   62.0000 C   0  0  0  0  0  0  0  0  0  0  0  0
  125.6520  132.8600   61.1900 C   0  0  0  0  0  0  0  0  0  0  0  0
  124.2940  133.2980   61.7700 C   0  0  0  0  0  0  0  0  0  0  0  0
  123.8910  134.4280   61.1880 F   0  0  0  0  0  0  0  0  0  0  0  0
  123.3810  132.3510   61.5570 F   0  0  0  0  0  0  0  0  0  0  0  0
  124.3450  133.5200   63.0860 F   0  0  0  0  0  0  0  0  0  0  0  0
  125.7940  132.3650   59.8690 C   0  0  0  0  0  0  0  0  0  0  0  0
  124.6340  132.2280   58.9830 C   0  0  0  0  0  0  0  0  0  0  0  0
  123.7180  132.1180   58.2830 N   0  0  0  0  0  0  0  0  0  0  0  0
  131.5080  131.9740   60.3090 N   0  0  0  0  0  0  0  0  0  0  0  0
  132.4383  131.1180   62.8475 H   0  0  0  0  0  0  0  0  0  0  0  0
  133.8500  132.2152   62.6749 H   0  0  0  0  0  0  0  0  0  0  0  0
  132.1844  132.8879   62.6749 H   0  0  0  0  0  0  0  0  0  0  0  0
  134.8823  131.5767   60.5781 H   0  0  0  0  0  0  0  0  0  0  0  0
  134.6414  131.3117   58.0923 H   0  0  0  0  0  0  0  0  0  0  0  0
  132.3660  131.4730   57.0506 H   0  0  0  0  0  0  0  0  0  0  0  0
  129.4450  131.2350   58.6940 H   0  0  0  0  0  0  0  0  0  0  0  0
  127.8032  133.5388   57.1130 H   0  0  0  0  0  0  0  0  0  0  0  0
  128.1949  132.3174   55.8277 H   0  0  0  0  0  0  0  0  0  0  0  0
  129.0200  132.5757   63.3998 H   0  0  0  0  0  0  0  0  0  0  0  0
  129.9209  131.7180   62.1039 H   0  0  0  0  0  0  0  0  0  0  0  0
  129.8385  133.5124   62.1039 H   0  0  0  0  0  0  0  0  0  0  0  0
  126.7180  133.3262   63.0275 H   0  0  0  0  0  0  0  0  0  0  0  0
  1  2  1  0
  2  3  2  0
  3  4  1  0
  4  5  2  0
  5  6  1  0
  6  7  1  0
  7  8  1  0
  8  9  2  0
  8 10  1  0
 10 11  1  0
 11 12  1  0
 12 13  2  0
 13 14  1  0
 14 15  1  0
 14 16  2  0
 16 17  1  0
 17 18  1  0
 18 19  1  0
 18 20  1  0
 18 21  1  0
 17 22  2  0
 22 23  1  0
 23 24  3  0
  6 25  2  0
 25  2  1  0
 22 12  1  0
  1 26  1  0
  1 27  1  0
  1 28  1  0
  3 29  1  0
  4 30  1  0
  5 31  1  0
  7 32  1  0
 10 33  1  0
 10 34  1  0
 15 35  1  0
 15 36  1  0
 15 37  1  0
 16 38  1  0
M  END
>  <Binding energies>  (1) 
[-6.7]

>  <Ligand effiencies>  (1) 
[-0.2576923076923077]

>  <Interactions>  (1) 
["V-A:ASP:366:CG:3212, V-A:ASP:366:CB:3211, V-B:LEU:475:CD1:9229, V-A:PRO:540:CB:4885, V-A:TYR:539:CD2:4874, V-A:ALA:541:CB:4892, V-A:ALA:541:CA:4890, V-A:PRO:540:CA:4883, V-A:TYR:539:C:4867, V-B:ILE:369:CD1:8210, V-B:GLY:454:CA:9020, V-B:ILE:369:CG2:8208, V-A:TYR:539:CE2:4876, V-A:TYR:539:CZ:4877, V-A:LEU:363:CD1:3188, V-A:LEU:363:CA:3184, V-A:MET:535:CE:4835, H-A:TYR:539:OH:4878, V-B:ILE:369:CB:8207, H-A:TYR:539:N:4870, V-A:TYR:539:CG:4872, V-A:TYR:539:CD1:4873, V-A:TYR:539:CE1:4875, V-A:ALA:541:C:4888, V-B:ILE:369:CG1:8209, V-A:LEU:363:CB:3186, V-A:ASN:362:C:3171, V-A:ASN:362:CB:3175"]

$$$$
2f_Grossjean_2025
     RDKit          3D

 35 36  0  0  0  0  0  0  0  0999 V2000
  129.0100  121.0360   60.7980 C   0  0  0  0  0  0  0  0  0  0  0  0
  128.5970  122.4520   60.4450 C   0  0  0  0  0  0  0  0  0  0  0  0
  129.3630  123.2460   59.5950 C   0  0  0  0  0  0  0  0  0  0  0  0
  128.9420  124.5530   59.3050 C   0  0  0  0  0  0  0  0  0  0  0  0
  129.8090  125.4190   58.3730 C   0  0  0  0  0  0  0  0  0  0  0  0
  130.1810  126.5380   58.9990 F   0  0  0  0  0  0  0  0  0  0  0  0
  130.9010  124.7450   58.0100 F   0  0  0  0  0  0  0  0  0  0  0  0
  129.1700  125.7800   57.2580 F   0  0  0  0  0  0  0  0  0  0  0  0
  127.7360  125.0220   59.8880 C   0  0  0  0  0  0  0  0  0  0  0  0
  127.2850  126.3970   59.6620 C   0  0  0  0  0  0  0  0  0  0  0  0
  126.9280  127.4840   59.4830 N   0  0  0  0  0  0  0  0  0  0  0  0
  127.0100  124.1360   60.7190 C   0  0  0  0  0  0  0  0  0  0  0  0
  125.4750  124.5510   61.5220 S   0  0  0  0  0  0  0  0  0  0  0  0
  124.1070  123.9720   60.4610 C   0  0  0  0  0  0  0  0  0  0  0  0
  124.3940  124.0020   58.9530 C   0  0  0  0  0  0  0  0  0  0  0  0
  123.6750  124.6460   58.1890 O   0  0  0  0  0  0  0  0  0  0  0  0
  125.4590  123.2640   58.5720 N   0  0  0  0  0  0  0  0  0  0  0  0
  126.0040  123.0770   57.2880 C   0  0  0  0  0  0  0  0  0  0  0  0
  127.0770  123.8060   56.7420 C   0  0  0  0  0  0  0  0  0  0  0  0
  127.5260  123.5140   55.4520 C   0  0  0  0  0  0  0  0  0  0  0  0
  126.8920  122.4960   54.7390 C   0  0  0  0  0  0  0  0  0  0  0  0
  125.8610  121.7730   55.2450 N   0  0  0  0  0  0  0  0  0  0  0  0
  125.4370  122.0680   56.5010 C   0  0  0  0  0  0  0  0  0  0  0  0
  127.4440  122.8840   61.0050 N   0  0  0  0  0  0  0  0  0  0  0  0
  129.0423  120.9254   61.8919 H   0  0  0  0  0  0  0  0  0  0  0  0
  128.2814  120.3263   60.3790 H   0  0  0  0  0  0  0  0  0  0  0  0
  130.0059  120.8293   60.3790 H   0  0  0  0  0  0  0  0  0  0  0  0
  130.2906  122.8518   59.1544 H   0  0  0  0  0  0  0  0  0  0  0  0
  123.8730  122.9347   60.7427 H   0  0  0  0  0  0  0  0  0  0  0  0
  123.2736  124.6703   60.6279 H   0  0  0  0  0  0  0  0  0  0  0  0
  125.9220  122.7390   59.3000 H   0  0  0  0  0  0  0  0  0  0  0  0
  127.5596  124.6018   57.3283 H   0  0  0  0  0  0  0  0  0  0  0  0
  128.3616  124.0747   55.0077 H   0  0  0  0  0  0  0  0  0  0  0  0
  127.2434  122.2694   53.7216 H   0  0  0  0  0  0  0  0  0  0  0  0
  124.6051  121.4839   56.9215 H   0  0  0  0  0  0  0  0  0  0  0  0
  1  2  1  0
  2  3  2  0
  3  4  1  0
  4  5  1  0
  5  6  1  0
  5  7  1  0
  5  8  1  0
  4  9  2  0
  9 10  1  0
 10 11  3  0
  9 12  1  0
 12 13  1  0
 13 14  1  0
 14 15  1  0
 15 16  2  0
 15 17  1  0
 17 18  1  0
 18 19  2  0
 19 20  1  0
 20 21  2  0
 21 22  1  0
 22 23  2  0
 12 24  2  0
 24  2  1  0
 23 18  1  0
  1 25  1  0
  1 26  1  0
  1 27  1  0
  3 28  1  0
 14 29  1  0
 14 30  1  0
 17 31  1  0
 19 32  1  0
 20 33  1  0
 21 34  1  0
 23 35  1  0
M  END
>  <Binding energies>  (1) 
[-6.29]

>  <Ligand effiencies>  (1) 
[-0.2516]

>  <Interactions>  (1) 
["V-B:TYR:539:CD2:9845, V-B:MET:535:CE:9806, V-B:TYR:539:CE2:9847, V-B:TYR:539:C:9838, V-B:PRO:540:CD:9858, V-B:PRO:540:N:9855, V-B:LEU:363:CA:8156, V-B:PRO:540:CB:9856, H-B:TYR:531:OH:9766, V-B:PRO:540:CA:9854, V-B:LEU:363:CD1:8160, V-B:TYR:539:CZ:9848, H-B:ALA:541:N:9862, H-B:ARG:545:NH2:9899, V-B:TYR:539:CD1:9844, V-B:TYR:539:CE1:9846, V-B:ALA:541:CB:9863, H-B:TYR:539:N:9841, V-B:PRO:540:C:9852, V-B:ALA:541:CA:9861, V-B:ASN:362:CB:8147, V-B:ASN:362:C:8143, V-B:PRO:540:CG:9857, V-B:ILE:538:CA:9831, V-B:ILE:538:CD1:9836"]

$$$$
2g_Grossjean_2025
     RDKit          3D

 39 40  0  0  0  0  0  0  0  0999 V2000
  132.8070  125.1070   58.3700 C   0  0  0  0  0  0  0  0  0  0  0  0
  132.6740  124.4390   59.7260 C   0  0  0  0  0  0  0  0  0  0  0  0
  133.1230  125.0580   60.8900 C   0  0  0  0  0  0  0  0  0  0  0  0
  132.9840  124.3960   62.1200 C   0  0  0  0  0  0  0  0  0  0  0  0
  133.4950  125.0920   63.3970 C   0  0  0  0  0  0  0  0  0  0  0  0
  134.7540  125.4990   63.2290 F   0  0  0  0  0  0  0  0  0  0  0  0
  132.7310  126.1500   63.6710 F   0  0  0  0  0  0  0  0  0  0  0  0
  133.4740  124.2910   64.4650 F   0  0  0  0  0  0  0  0  0  0  0  0
  132.3790  123.1130   62.1360 C   0  0  0  0  0  0  0  0  0  0  0  0
  132.2620  122.3550   63.3840 C   0  0  0  0  0  0  0  0  0  0  0  0
  132.1690  121.7570   64.3710 N   0  0  0  0  0  0  0  0  0  0  0  0
  131.9260  122.5760   60.9060 C   0  0  0  0  0  0  0  0  0  0  0  0
  131.1240  120.9950   60.7490 S   0  0  0  0  0  0  0  0  0  0  0  0
  129.4170  121.1820   61.3670 C   0  0  0  0  0  0  0  0  0  0  0  0
  128.5760  122.2290   60.6230 C   0  0  0  0  0  0  0  0  0  0  0  0
  127.4410  122.5280   61.0000 O   0  0  0  0  0  0  0  0  0  0  0  0
  129.1610  122.7790   59.5430 N   0  0  0  0  0  0  0  0  0  0  0  0
  128.5640  123.8010   58.6820 C   0  0  0  0  0  0  0  0  0  0  0  0
  127.3340  123.3330   57.9110 C   0  0  0  0  0  0  0  0  0  0  0  0
  126.0620  123.7580   58.3080 C   0  0  0  0  0  0  0  0  0  0  0  0
  124.9400  123.3630   57.5830 C   0  0  0  0  0  0  0  0  0  0  0  0
  125.0940  122.5540   56.4600 C   0  0  0  0  0  0  0  0  0  0  0  0
  126.3600  122.1380   56.0520 C   0  0  0  0  0  0  0  0  0  0  0  0
  127.4820  122.5330   56.7760 C   0  0  0  0  0  0  0  0  0  0  0  0
  132.0890  123.2200   59.7240 N   0  0  0  0  0  0  0  0  0  0  0  0
  133.0201  126.1773   58.5079 H   0  0  0  0  0  0  0  0  0  0  0  0
  133.6295  124.6386   57.8096 H   0  0  0  0  0  0  0  0  0  0  0  0
  131.8678  124.9893   57.8096 H   0  0  0  0  0  0  0  0  0  0  0  0
  133.5824  126.0565   60.8459 H   0  0  0  0  0  0  0  0  0  0  0  0
  128.9114  120.2093   61.2765 H   0  0  0  0  0  0  0  0  0  0  0  0
  129.4997  121.5319   62.4066 H   0  0  0  0  0  0  0  0  0  0  0  0
  130.1030  122.5000   59.3130 H   0  0  0  0  0  0  0  0  0  0  0  0
  128.2716  124.6540   59.3119 H   0  0  0  0  0  0  0  0  0  0  0  0
  129.3244  124.0638   57.9318 H   0  0  0  0  0  0  0  0  0  0  0  0
  125.9477  124.4033   59.1915 H   0  0  0  0  0  0  0  0  0  0  0  0
  123.9370  123.6886   57.8961 H   0  0  0  0  0  0  0  0  0  0  0  0
  124.2075  122.2402   55.8893 H   0  0  0  0  0  0  0  0  0  0  0  0
  126.4724  121.5008   55.1624 H   0  0  0  0  0  0  0  0  0  0  0  0
  128.4846  122.2150   56.4540 H   0  0  0  0  0  0  0  0  0  0  0  0
  1  2  1  0
  2  3  2  0
  3  4  1  0
  4  5  1  0
  5  6  1  0
  5  7  1  0
  5  8  1  0
  4  9  2  0
  9 10  1  0
 10 11  3  0
  9 12  1  0
 12 13  1  0
 13 14  1  0
 14 15  1  0
 15 16  2  0
 15 17  1  0
 17 18  1  0
 18 19  1  0
 19 20  2  0
 20 21  1  0
 21 22  2  0
 22 23  1  0
 23 24  2  0
 12 25  2  0
 25  2  1  0
 24 19  1  0
  1 26  1  0
  1 27  1  0
  1 28  1  0
  3 29  1  0
 14 30  1  0
 14 31  1  0
 17 32  1  0
 18 33  1  0
 18 34  1  0
 20 35  1  0
 21 36  1  0
 22 37  1  0
 23 38  1  0
 24 39  1  0
M  END
>  <Binding energies>  (1) 
[-6.8]

>  <Ligand effiencies>  (1) 
[-0.26153846153846155]

>  <Interactions>  (1) 
["V-B:TYR:539:CD2:9845, V-B:MET:535:CE:9806, V-B:TYR:539:CE2:9847, V-B:TYR:539:C:9838, V-B:PRO:540:CD:9858, V-A:ASP:366:CG:3212, V-B:PRO:540:N:9855, V-A:ILE:369:CG2:3236, V-B:PRO:540:CB:9856, V-A:ASP:366:CB:3211, V-B:PRO:540:CA:9854, V-B:LEU:363:CD1:8160, V-B:TYR:539:CZ:9848, H-B:ALA:541:N:9862, V-A:ASP:366:CA:3209, V-A:LEU:475:CD2:4258, H-A:TYR:484:OH:4347, V-A:ILE:369:CD1:3238, V-A:GLY:454:CA:4048, V-A:ARG:545:CZ:4926, V-B:TYR:539:CA:9840, V-B:TYR:539:CD1:9844, V-B:TYR:539:CG:9843, V-B:TYR:539:CE1:9846, V-B:ALA:541:CB:9863, V-B:PRO:540:C:9852, V-B:ALA:541:CA:9861, V-A:ASP:366:C:3207, V-B:ILE:538:CA:9831, V-A:GLY:453:CA:4043, V-A:GLY:453:C:4041"]

$$$$
2h_Grossjean_2025
     RDKit          3D

 51 52  0  0  0  0  0  0  0  0999 V2000
  130.1730  119.2920   61.0170 C   0  0  0  0  0  0  0  0  0  0  0  0
  130.6310  120.5850   60.6390 O   0  0  0  0  0  0  0  0  0  0  0  0
  129.8040  121.6790   60.8230 C   0  0  0  0  0  0  0  0  0  0  0  0
  128.9940  122.2260   59.8150 C   0  0  0  0  0  0  0  0  0  0  0  0
  128.1790  123.3250   60.0780 C   0  0  0  0  0  0  0  0  0  0  0  0
  128.1540  123.9010   61.3490 C   0  0  0  0  0  0  0  0  0  0  0  0
  127.2370  125.0920   61.6180 C   0  0  0  0  0  0  0  0  0  0  0  0
  125.9480  125.0080   60.9310 N   0  0  0  0  0  0  0  0  0  0  0  0
  125.1320  123.9400   60.9520 C   0  0  0  0  0  0  0  0  0  0  0  0
  125.4280  122.8740   61.4960 O   0  0  0  0  0  0  0  0  0  0  0  0
  123.7770  124.1270   60.2550 C   0  0  0  0  0  0  0  0  0  0  0  0
  123.8250  124.0150   58.4350 S   0  0  0  0  0  0  0  0  0  0  0  0
  125.2580  124.9260   57.9010 C   0  0  0  0  0  0  0  0  0  0  0  0
  125.3480  126.1660   58.4410 N   0  0  0  0  0  0  0  0  0  0  0  0
  126.3890  126.9520   58.0880 C   0  0  0  0  0  0  0  0  0  0  0  0
  126.4210  128.3290   58.7250 C   0  0  0  0  0  0  0  0  0  0  0  0
  127.3770  126.5370   57.1970 C   0  0  0  0  0  0  0  0  0  0  0  0
  127.3120  125.2490   56.6440 C   0  0  0  0  0  0  0  0  0  0  0  0
  128.4180  124.8050   55.6680 C   0  0  0  0  0  0  0  0  0  0  0  0
  127.9730  123.8120   54.8980 F   0  0  0  0  0  0  0  0  0  0  0  0
  128.8190  125.7890   54.8600 F   0  0  0  0  0  0  0  0  0  0  0  0
  129.4850  124.3820   56.3460 F   0  0  0  0  0  0  0  0  0  0  0  0
  126.2290  124.4090   57.0100 C   0  0  0  0  0  0  0  0  0  0  0  0
  126.1460  123.0360   56.5070 C   0  0  0  0  0  0  0  0  0  0  0  0
  126.0850  121.9500   56.1110 N   0  0  0  0  0  0  0  0  0  0  0  0
  128.9760  123.3790   62.3590 C   0  0  0  0  0  0  0  0  0  0  0  0
  128.9590  123.9420   63.6130 O   0  0  0  0  0  0  0  0  0  0  0  0
  130.0670  124.7900   63.8900 C   0  0  0  0  0  0  0  0  0  0  0  0
  129.7830  122.2580   62.0980 C   0  0  0  0  0  0  0  0  0  0  0  0
  130.5750  121.7330   63.0910 O   0  0  0  0  0  0  0  0  0  0  0  0
  131.9400  122.1180   63.0090 C   0  0  0  0  0  0  0  0  0  0  0  0
  130.1470  119.2185   62.1142 H   0  0  0  0  0  0  0  0  0  0  0  0
  129.1624  119.1288   60.6145 H   0  0  0  0  0  0  0  0  0  0  0  0
  130.8556  118.5291   60.6145 H   0  0  0  0  0  0  0  0  0  0  0  0
  129.0029  121.7828   58.8083 H   0  0  0  0  0  0  0  0  0  0  0  0
  127.5502  123.7420   59.2775 H   0  0  0  0  0  0  0  0  0  0  0  0
  127.0506  125.1494   62.7006 H   0  0  0  0  0  0  0  0  0  0  0  0
  127.7493  125.9859   61.2327 H   0  0  0  0  0  0  0  0  0  0  0  0
  125.6210  125.8570   60.4930 H   0  0  0  0  0  0  0  0  0  0  0  0
  123.0919  123.3508   60.6268 H   0  0  0  0  0  0  0  0  0  0  0  0
  123.4478  125.1495   60.4917 H   0  0  0  0  0  0  0  0  0  0  0  0
  126.4186  128.2265   59.8202 H   0  0  0  0  0  0  0  0  0  0  0  0
  127.3317  128.8585   58.4083 H   0  0  0  0  0  0  0  0  0  0  0  0
  125.5359  128.9002   58.4083 H   0  0  0  0  0  0  0  0  0  0  0  0
  128.2016  127.2140   56.9293 H   0  0  0  0  0  0  0  0  0  0  0  0
  130.1922  124.8858   64.9786 H   0  0  0  0  0  0  0  0  0  0  0  0
  130.9787  124.3567   63.4528 H   0  0  0  0  0  0  0  0  0  0  0  0
  129.8869  125.7832   63.4528 H   0  0  0  0  0  0  0  0  0  0  0  0
  132.3499  122.2336   64.0232 H   0  0  0  0  0  0  0  0  0  0  0  0
  132.5073  121.3448   62.4702 H   0  0  0  0  0  0  0  0  0  0  0  0
  132.0197  123.0737   62.4702 H   0  0  0  0  0  0  0  0  0  0  0  0
  1  2  1  0
  2  3  1  0
  3  4  2  0
  4  5  1  0
  5  6  2  0
  6  7  1  0
  7  8  1  0
  8  9  1  0
  9 10  2  0
  9 11  1  0
 11 12  1  0
 12 13  1  0
 13 14  2  0
 14 15  1  0
 15 16  1  0
 15 17  2  0
 17 18  1  0
 18 19  1  0
 19 20  1  0
 19 21  1  0
 19 22  1  0
 18 23  2  0
 23 24  1  0
 24 25  3  0
  6 26  1  0
 26 27  1  0
 27 28  1  0
 26 29  2  0
 29 30  1  0
 30 31  1  0
 29  3  1  0
 23 13  1  0
  1 32  1  0
  1 33  1  0
  1 34  1  0
  4 35  1  0
  5 36  1  0
  7 37  1  0
  7 38  1  0
  8 39  1  0
 11 40  1  0
 11 41  1  0
 16 42  1  0
 16 43  1  0
 16 44  1  0
 17 45  1  0
 28 46  1  0
 28 47  1  0
 28 48  1  0
 31 49  1  0
 31 50  1  0
 31 51  1  0
M  END
>  <Binding energies>  (1) 
[-6.35]

>  <Ligand effiencies>  (1) 
[-0.1984375]

>  <Interactions>  (1) 
["V-B:TYR:539:CD2:9845, V-B:MET:535:CE:9806, V-B:ASP:366:CG:8184, V-B:TYR:539:CE2:9847, H-B:ASP:366:OD2:8186, V-B:LEU:363:CA:8156, V-B:PRO:540:CB:9856, H-B:TYR:531:OH:9766, V-B:PRO:540:CA:9854, V-B:TYR:539:CZ:9848, H-B:ALA:541:N:9862, V-A:LEU:475:CD2:4258, V-B:TYR:539:CD1:9844, V-B:TYR:539:CE1:9846, V-B:ALA:541:CB:9863, V-A:TRP:381:CH2:3371, H-B:TYR:539:N:9841, V-A:PRO:482:CG:4326, V-A:TRP:381:CZ2:3369, V-A:PRO:482:CB:4325, V-B:ASN:362:CB:8147, V-B:ASN:362:C:8143, H-B:LEU:363:N:8157"]

$$$$
2i_Grossjean_2025
     RDKit          3D

 32 33  0  0  0  0  0  0  0  0999 V2000
  127.6940  137.4220   60.7380 C   0  0  0  0  0  0  0  0  0  0  0  0
  127.0660  136.1950   61.3740 C   0  0  0  0  0  0  0  0  0  0  0  0
  125.7000  136.1250   61.6310 C   0  0  0  0  0  0  0  0  0  0  0  0
  125.1670  134.9670   62.2180 C   0  0  0  0  0  0  0  0  0  0  0  0
  123.6530  134.9060   62.4970 C   0  0  0  0  0  0  0  0  0  0  0  0
  123.1140  133.8640   61.8630 F   0  0  0  0  0  0  0  0  0  0  0  0
  123.4340  134.7780   63.8060 F   0  0  0  0  0  0  0  0  0  0  0  0
  123.0090  136.0020   62.0890 F   0  0  0  0  0  0  0  0  0  0  0  0
  126.0480  133.9000   62.5310 C   0  0  0  0  0  0  0  0  0  0  0  0
  125.5450  132.6670   63.1440 C   0  0  0  0  0  0  0  0  0  0  0  0
  125.1480  131.6930   63.6280 N   0  0  0  0  0  0  0  0  0  0  0  0
  127.4220  134.0570   62.2370 C   0  0  0  0  0  0  0  0  0  0  0  0
  128.6240  132.7850   62.5930 S   0  0  0  0  0  0  0  0  0  0  0  0
  128.7770  131.7250   61.1240 C   0  0  0  0  0  0  0  0  0  0  0  0
  129.8690  132.2120   60.1690 C   0  0  0  0  0  0  0  0  0  0  0  0
  130.9300  132.6310   60.6360 O   0  0  0  0  0  0  0  0  0  0  0  0
  129.5640  132.1670   58.8550 N   0  0  0  0  0  0  0  0  0  0  0  0
  130.3730  132.5650   57.8030 C   0  0  0  0  0  0  0  0  0  0  0  0
  131.7040  132.2350   57.5130 C   0  0  0  0  0  0  0  0  0  0  0  0
  131.9870  132.9140   56.3500 C   0  0  0  0  0  0  0  0  0  0  0  0
  130.8890  133.6050   55.9620 O   0  0  0  0  0  0  0  0  0  0  0  0
  129.8730  133.3690   56.8900 N   0  0  0  0  0  0  0  0  0  0  0  0
  127.9170  135.1860   61.6670 N   0  0  0  0  0  0  0  0  0  0  0  0
  128.0437  138.1052   61.5261 H   0  0  0  0  0  0  0  0  0  0  0  0
  128.5462  137.1158   60.1135 H   0  0  0  0  0  0  0  0  0  0  0  0
  126.9472  137.9342   60.1135 H   0  0  0  0  0  0  0  0  0  0  0  0
  125.0437  136.9702   61.3762 H   0  0  0  0  0  0  0  0  0  0  0  0
  129.0211  130.7028   61.4490 H   0  0  0  0  0  0  0  0  0  0  0  0
  127.8189  131.7564   60.5845 H   0  0  0  0  0  0  0  0  0  0  0  0
  128.6440  131.8390   58.5980 H   0  0  0  0  0  0  0  0  0  0  0  0
  132.3740  131.5786   58.0877 H   0  0  0  0  0  0  0  0  0  0  0  0
  132.9509  132.8980   55.8203 H   0  0  0  0  0  0  0  0  0  0  0  0
  1  2  1  0
  2  3  2  0
  3  4  1  0
  4  5  1  0
  5  6  1  0
  5  7  1  0
  5  8  1  0
  4  9  2  0
  9 10  1  0
 10 11  3  0
  9 12  1  0
 12 13  1  0
 13 14  1  0
 14 15  1  0
 15 16  2  0
 15 17  1  0
 17 18  1  0
 18 19  1  0
 19 20  2  0
 20 21  1  0
 21 22  1  0
 12 23  2  0
 23  2  1  0
 22 18  2  0
  1 24  1  0
  1 25  1  0
  1 26  1  0
  3 27  1  0
 14 28  1  0
 14 29  1  0
 17 30  1  0
 19 31  1  0
 20 32  1  0
M  END
>  <Binding energies>  (1) 
[-6.82]

>  <Ligand effiencies>  (1) 
[-0.2841666666666667]

>  <Interactions>  (1) 
["V-A:PRO:540:N:4884, V-B:PRO:482:CB:9297, V-B:LEU:475:CD1:9229, V-B:TRP:381:CH2:8343, V-A:PRO:540:CB:4885, V-A:TYR:539:CD2:4874, V-A:ALA:541:CB:4892, V-B:PRO:482:CG:9298, V-B:TRP:381:CZ2:8341, H-A:ALA:541:N:4891, V-A:PRO:540:CA:4883, V-A:TYR:539:C:4867, V-B:ILE:369:CD1:8210, V-B:GLY:454:CA:9020, V-B:ILE:369:CG2:8208, V-A:LEU:363:CD1:3188, V-B:ILE:369:CB:8207, H-A:TYR:539:N:4870, V-B:LEU:475:CG:9228, V-B:SER:385:CB:8380, V-B:SER:385:CA:8378, V-B:TRP:381:CE2:8338, V-A:TYR:539:CG:4872, V-B:SER:385:C:8376, V-A:ILE:538:CB:4862, V-A:PRO:540:CD:4887, V-B:TRP:381:CD2:8336, V-B:TRP:381:CZ3:8342, V-B:TRP:381:CE3:8339, V-A:TYR:539:CB:4871, V-B:ILE:369:CG1:8209"]

$$$$
2j_Grossjean_2025
     RDKit          3D

 32 33  0  0  0  0  0  0  0  0999 V2000
  127.3340  133.5970   61.5990 C   0  0  0  0  0  0  0  0  0  0  0  0
  128.5160  133.0680   60.8080 C   0  0  0  0  0  0  0  0  0  0  0  0
  129.6880  132.6560   61.4370 C   0  0  0  0  0  0  0  0  0  0  0  0
  130.7530  132.1710   60.6620 C   0  0  0  0  0  0  0  0  0  0  0  0
  132.0420  131.7180   61.3740 C   0  0  0  0  0  0  0  0  0  0  0  0
  132.1890  132.3850   62.5200 F   0  0  0  0  0  0  0  0  0  0  0  0
  131.9830  130.4120   61.6380 F   0  0  0  0  0  0  0  0  0  0  0  0
  133.1380  131.9310   60.6420 F   0  0  0  0  0  0  0  0  0  0  0  0
  130.5970  132.1200   59.2540 C   0  0  0  0  0  0  0  0  0  0  0  0
  131.6770  131.6230   58.3960 C   0  0  0  0  0  0  0  0  0  0  0  0
  132.5300  131.2300   57.7190 N   0  0  0  0  0  0  0  0  0  0  0  0
  129.3720  132.5600   58.7000 C   0  0  0  0  0  0  0  0  0  0  0  0
  129.0640  132.5390   56.9400 S   0  0  0  0  0  0  0  0  0  0  0  0
  128.3210  130.9290   56.5050 C   0  0  0  0  0  0  0  0  0  0  0  0
  126.8530  130.7620   56.9240 C   0  0  0  0  0  0  0  0  0  0  0  0
  126.1050  130.0000   56.3070 O   0  0  0  0  0  0  0  0  0  0  0  0
  126.4780  131.5110   57.9840 N   0  0  0  0  0  0  0  0  0  0  0  0
  125.2180  131.5510   58.5680 C   0  0  0  0  0  0  0  0  0  0  0  0
  124.0800  131.8990   58.0070 N   0  0  0  0  0  0  0  0  0  0  0  0
  123.0750  131.8180   58.8570 C   0  0  0  0  0  0  0  0  0  0  0  0
  123.3910  131.3960   60.1450 C   0  0  0  0  0  0  0  0  0  0  0  0
  125.1000  131.0910   60.2360 S   0  0  0  0  0  0  0  0  0  0  0  0
  128.3520  133.0240   59.4670 N   0  0  0  0  0  0  0  0  0  0  0  0
  127.5418  133.5040   62.6752 H   0  0  0  0  0  0  0  0  0  0  0  0
  127.1686  134.6550   61.3476 H   0  0  0  0  0  0  0  0  0  0  0  0
  126.4348  133.0155   61.3476 H   0  0  0  0  0  0  0  0  0  0  0  0
  129.7784  132.7102   62.5319 H   0  0  0  0  0  0  0  0  0  0  0  0
  128.3809  130.8084   55.4133 H   0  0  0  0  0  0  0  0  0  0  0  0
  128.8892  130.1666   57.0581 H   0  0  0  0  0  0  0  0  0  0  0  0
  127.1750  132.1080   58.4040 H   0  0  0  0  0  0  0  0  0  0  0  0
  122.0449  132.0698   58.5645 H   0  0  0  0  0  0  0  0  0  0  0  0
  122.6753  131.2750   60.9715 H   0  0  0  0  0  0  0  0  0  0  0  0
  1  2  1  0
  2  3  2  0
  3  4  1  0
  4  5  1  0
  5  6  1  0
  5  7  1  0
  5  8  1  0
  4  9  2  0
  9 10  1  0
 10 11  3  0
  9 12  1  0
 12 13  1  0
 13 14  1  0
 14 15  1  0
 15 16  2  0
 15 17  1  0
 17 18  1  0
 18 19  2  0
 19 20  1  0
 20 21  2  0
 21 22  1  0
 12 23  2  0
 23  2  1  0
 22 18  1  0
  1 24  1  0
  1 25  1  0
  1 26  1  0
  3 27  1  0
 14 28  1  0
 14 29  1  0
 17 30  1  0
 20 31  1  0
 21 32  1  0
M  END
>  <Binding energies>  (1) 
[-5.88]

>  <Ligand effiencies>  (1) 
[-0.245]

>  <Interactions>  (1) 
["V-B:ASP:366:CG:8184, V-A:ASP:366:CG:3212, H-B:TYR:531:OH:9766, V-B:ASP:366:CB:8183, V-A:PRO:540:N:4884, V-A:PRO:540:CB:4885, V-A:ALA:541:CB:4892, V-A:ALA:541:CA:4890, V-A:PRO:540:CA:4883, V-A:TYR:539:C:4867, V-B:ILE:369:CD1:8210, V-B:ILE:369:CG2:8208, V-A:TYR:539:CE2:4876, V-A:TYR:539:CZ:4877, V-B:ASP:366:CA:8181, V-B:ASP:366:C:8179, V-A:MET:535:CE:4835, H-A:TYR:539:OH:4878, V-B:ILE:369:CB:8207, V-A:PRO:540:C:4881, V-A:ALA:541:C:4888"]

$$$$
2k_Grossjean_2025
     RDKit          3D

 50 50  0  0  0  0  0  0  0  0999 V2000
  126.6590  122.3140   54.6680 C   0  0  0  0  0  0  0  0  0  0  0  0
  125.9260  121.7970   55.7680 O   0  0  0  0  0  0  0  0  0  0  0  0
  126.1440  122.5080   56.9790 C   0  0  0  0  0  0  0  0  0  0  0  0
  127.6470  122.7430   57.1790 C   0  0  0  0  0  0  0  0  0  0  0  0
  127.8580  124.0970   57.5510 O   0  0  0  0  0  0  0  0  0  0  0  0
  126.6810  124.7810   57.9620 C   0  0  0  0  0  0  0  0  0  0  0  0
  126.7830  126.2420   57.5050 C   0  0  0  0  0  0  0  0  0  0  0  0
  127.3970  126.2550   56.2250 O   0  0  0  0  0  0  0  0  0  0  0  0
  127.9450  127.5030   55.8310 C   0  0  0  0  0  0  0  0  0  0  0  0
  128.7570  128.0860   57.0030 C   0  0  0  0  0  0  0  0  0  0  0  0
  128.6040  129.5370   57.1390 N   0  0  0  0  0  0  0  0  0  0  0  0
  127.4570  130.2230   56.9730 C   0  0  0  0  0  0  0  0  0  0  0  0
  126.3790  129.6870   56.7090 O   0  0  0  0  0  0  0  0  0  0  0  0
  127.5680  131.7480   57.1100 C   0  0  0  0  0  0  0  0  0  0  0  0
  128.2730  132.3430   58.6860 S   0  0  0  0  0  0  0  0  0  0  0  0
  130.0340  132.0370   58.7030 C   0  0  0  0  0  0  0  0  0  0  0  0
  130.5980  131.7780   57.4950 N   0  0  0  0  0  0  0  0  0  0  0  0
  131.9250  131.5320   57.4330 C   0  0  0  0  0  0  0  0  0  0  0  0
  132.4760  131.2400   56.0510 C   0  0  0  0  0  0  0  0  0  0  0  0
  132.7450  131.5460   58.5580 C   0  0  0  0  0  0  0  0  0  0  0  0
  132.1850  131.8200   59.8160 C   0  0  0  0  0  0  0  0  0  0  0  0
  133.1080  131.8370   61.0500 C   0  0  0  0  0  0  0  0  0  0  0  0
  133.0620  132.9930   61.7140 F   0  0  0  0  0  0  0  0  0  0  0  0
  132.7510  130.8720   61.9000 F   0  0  0  0  0  0  0  0  0  0  0  0
  134.3730  131.6380   60.6770 F   0  0  0  0  0  0  0  0  0  0  0  0
  130.7920  132.0720   59.8970 C   0  0  0  0  0  0  0  0  0  0  0  0
  130.1540  132.3600   61.1850 C   0  0  0  0  0  0  0  0  0  0  0  0
  129.6510  132.5880   62.2030 N   0  0  0  0  0  0  0  0  0  0  0  0
  127.5052  122.9108   55.0392 H   0  0  0  0  0  0  0  0  0  0  0  0
  127.0376  121.4820   54.0561 H   0  0  0  0  0  0  0  0  0  0  0  0
  126.0023  122.9499   54.0561 H   0  0  0  0  0  0  0  0  0  0  0  0
  125.6257  123.4771   56.9321 H   0  0  0  0  0  0  0  0  0  0  0  0
  125.7526  121.9194   57.8218 H   0  0  0  0  0  0  0  0  0  0  0  0
  128.0215  122.0799   57.9727 H   0  0  0  0  0  0  0  0  0  0  0  0
  128.1845  122.5265   56.2440 H   0  0  0  0  0  0  0  0  0  0  0  0
  125.7988  124.3096   57.5042 H   0  0  0  0  0  0  0  0  0  0  0  0
  126.5804  124.7343   59.0564 H   0  0  0  0  0  0  0  0  0  0  0  0
  125.7783  126.6854   57.4425 H   0  0  0  0  0  0  0  0  0  0  0  0
  127.3770  126.8280   58.2218 H   0  0  0  0  0  0  0  0  0  0  0  0
  128.6034  127.3588   54.9617 H   0  0  0  0  0  0  0  0  0  0  0  0
  127.1349  128.1956   55.5590 H   0  0  0  0  0  0  0  0  0  0  0  0
  128.4195  127.6090   57.9350 H   0  0  0  0  0  0  0  0  0  0  0  0
  129.8192  127.8845   56.8001 H   0  0  0  0  0  0  0  0  0  0  0  0
  129.4410  130.0520   57.3690 H   0  0  0  0  0  0  0  0  0  0  0  0
  128.2049  132.1168   56.2925 H   0  0  0  0  0  0  0  0  0  0  0  0
  126.5376  132.1315   57.0747 H   0  0  0  0  0  0  0  0  0  0  0  0
  133.4445  130.7267   56.1433 H   0  0  0  0  0  0  0  0  0  0  0  0
  131.7711  130.5971   55.5035 H   0  0  0  0  0  0  0  0  0  0  0  0
  132.6122  132.1843   55.5035 H   0  0  0  0  0  0  0  0  0  0  0  0
  133.8221  131.3442   58.4621 H   0  0  0  0  0  0  0  0  0  0  0  0
  1  2  1  0
  2  3  1  0
  3  4  1  0
  4  5  1  0
  5  6  1  0
  6  7  1  0
  7  8  1  0
  8  9  1  0
  9 10  1  0
 10 11  1  0
 11 12  1  0
 12 13  2  0
 12 14  1  0
 14 15  1  0
 15 16  1  0
 16 17  2  0
 17 18  1  0
 18 19  1  0
 18 20  2  0
 20 21  1  0
 21 22  1  0
 22 23  1  0
 22 24  1  0
 22 25  1  0
 21 26  2  0
 26 27  1  0
 27 28  3  0
 26 16  1  0
  1 29  1  0
  1 30  1  0
  1 31  1  0
  3 32  1  0
  3 33  1  0
  4 34  1  0
  4 35  1  0
  6 36  1  0
  6 37  1  0
  7 38  1  0
  7 39  1  0
  9 40  1  0
  9 41  1  0
 10 42  1  0
 10 43  1  0
 11 44  1  0
 14 45  1  0
 14 46  1  0
 19 47  1  0
 19 48  1  0
 19 49  1  0
 20 50  1  0
M  END
>  <Binding energies>  (1) 
[-5.24]

>  <Ligand effiencies>  (1) 
[-0.1806896551724138]

>  <Interactions>  (1) 
["V-B:TYR:539:CD2:9845, V-B:MET:535:CE:9806, V-B:TYR:539:CE2:9847, V-B:TYR:539:C:9838, V-B:PRO:540:CD:9858, V-A:ASP:366:CG:3212, V-B:PRO:540:N:9855, V-B:PRO:540:CB:9856, H-B:TYR:531:OH:9766, V-B:PRO:540:CA:9854, V-B:TYR:539:CZ:9848, V-A:PRO:540:CB:4885, H-A:ALA:541:N:4891, V-A:ALA:541:CA:4890, V-A:PRO:540:CA:4883, V-A:TYR:539:CE2:4876, V-A:TYR:539:CZ:4877, V-A:ARG:545:CZ:4926, V-B:TYR:539:CD1:9844, V-B:TYR:539:CG:9843, V-B:TYR:539:CE1:9846, H-B:TYR:539:N:9841, V-A:TYR:531:CE2:4793, V-A:LEU:363:CD1:3188, V-A:TYR:531:CZ:4794, V-A:LEU:363:CA:3184, V-A:MET:535:CE:4835, V-B:ILE:538:CA:9831, V-B:ILE:538:CD1:9836, V-A:PRO:540:C:4881, V-A:ALA:541:C:4888, V-A:ASN:362:CA:3173, V-A:ASN:362:C:3171, V-A:ASN:362:CB:3175"]

$$$$
3aa_Grossjean_2025
     RDKit          3D

 52 54  0  0  0  0  0  0  0  0999 V2000
  131.9970  125.5120   65.7470 C   0  0  0  0  0  0  0  0  0  0  0  0
  133.4590  125.2960   65.3450 C   0  0  0  0  0  0  0  0  0  0  0  0
  133.5190  124.4240   64.2220 O   0  0  0  0  0  0  0  0  0  0  0  0
  134.0230  124.8470   63.0350 C   0  0  0  0  0  0  0  0  0  0  0  0
  135.2160  125.1160   62.8600 O   0  0  0  0  0  0  0  0  0  0  0  0
  132.9840  124.9710   61.9580 C   0  0  0  0  0  0  0  0  0  0  0  0
  131.7780  125.6590   62.1650 C   0  0  0  0  0  0  0  0  0  0  0  0
  130.8380  125.7590   61.1430 C   0  0  0  0  0  0  0  0  0  0  0  0
  131.0840  125.1830   59.8960 C   0  0  0  0  0  0  0  0  0  0  0  0
  130.0690  125.3470   58.9310 N   0  0  0  0  0  0  0  0  0  0  0  0
  130.1700  125.4830   57.5910 C   0  0  0  0  0  0  0  0  0  0  0  0
  131.2230  125.5110   56.9530 O   0  0  0  0  0  0  0  0  0  0  0  0
  128.8450  125.6220   56.8410 C   0  0  0  0  0  0  0  0  0  0  0  0
  127.8910  124.0740   56.8610 S   0  0  0  0  0  0  0  0  0  0  0  0
  127.4150  123.7770   58.5500 C   0  0  0  0  0  0  0  0  0  0  0  0
  128.4330  123.3510   59.3340 N   0  0  0  0  0  0  0  0  0  0  0  0
  128.2060  123.0850   60.6470 C   0  0  0  0  0  0  0  0  0  0  0  0
  129.3860  122.6320   61.4520 C   0  0  0  0  0  0  0  0  0  0  0  0
  130.3590  121.7920   60.8850 C   0  0  0  0  0  0  0  0  0  0  0  0
  131.4590  121.3680   61.6260 C   0  0  0  0  0  0  0  0  0  0  0  0
  131.6010  121.7780   62.9470 C   0  0  0  0  0  0  0  0  0  0  0  0
  130.6520  122.6120   63.5310 C   0  0  0  0  0  0  0  0  0  0  0  0
  129.5550  123.0370   62.7870 C   0  0  0  0  0  0  0  0  0  0  0  0
  126.9350  123.2520   61.2040 C   0  0  0  0  0  0  0  0  0  0  0  0
  125.8600  123.6760   60.4070 C   0  0  0  0  0  0  0  0  0  0  0  0
  124.4720  123.8370   61.0550 C   0  0  0  0  0  0  0  0  0  0  0  0
  123.4720  123.6700   60.1870 F   0  0  0  0  0  0  0  0  0  0  0  0
  124.3100  122.9380   62.0260 F   0  0  0  0  0  0  0  0  0  0  0  0
  124.3530  125.0600   61.5750 F   0  0  0  0  0  0  0  0  0  0  0  0
  126.0980  123.9360   59.0350 C   0  0  0  0  0  0  0  0  0  0  0  0
  125.0020  124.3250   58.1430 C   0  0  0  0  0  0  0  0  0  0  0  0
  124.1370  124.6320   57.4380 N   0  0  0  0  0  0  0  0  0  0  0  0
  132.2810  124.4830   59.6860 C   0  0  0  0  0  0  0  0  0  0  0  0
  133.2190  124.3820   60.7090 C   0  0  0  0  0  0  0  0  0  0  0  0
  131.9163  125.5239   66.8440 H   0  0  0  0  0  0  0  0  0  0  0  0
  131.6436  126.4721   65.3429 H   0  0  0  0  0  0  0  0  0  0  0  0
  131.3811  124.6951   65.3429 H   0  0  0  0  0  0  0  0  0  0  0  0
  133.9138  126.2627   65.0831 H   0  0  0  0  0  0  0  0  0  0  0  0
  134.0080  124.8481   66.1864 H   0  0  0  0  0  0  0  0  0  0  0  0
  131.5743  126.1224   63.1416 H   0  0  0  0  0  0  0  0  0  0  0  0
  129.8944  126.2960   61.3197 H   0  0  0  0  0  0  0  0  0  0  0  0
  129.1390  125.4160   59.3170 H   0  0  0  0  0  0  0  0  0  0  0  0
  128.2481  126.4141   57.3168 H   0  0  0  0  0  0  0  0  0  0  0  0
  129.0699  125.8711   55.7935 H   0  0  0  0  0  0  0  0  0  0  0  0
  130.2503  121.4645   59.8405 H   0  0  0  0  0  0  0  0  0  0  0  0
  132.2130  120.7110   61.1679 H   0  0  0  0  0  0  0  0  0  0  0  0
  132.4683  121.4413   63.5339 H   0  0  0  0  0  0  0  0  0  0  0  0
  130.7684  122.9340   64.5764 H   0  0  0  0  0  0  0  0  0  0  0  0
  128.8095  123.6996   63.2508 H   0  0  0  0  0  0  0  0  0  0  0  0
  126.7761  123.0499   62.2735 H   0  0  0  0  0  0  0  0  0  0  0  0
  132.4787  124.0131   58.7113 H   0  0  0  0  0  0  0  0  0  0  0  0
  134.1562  123.8331   60.5347 H   0  0  0  0  0  0  0  0  0  0  0  0
  1  2  1  0
  2  3  1  0
  3  4  1  0
  4  5  2  0
  4  6  1  0
  6  7  2  0
  7  8  1  0
  8  9  2  0
  9 10  1  0
 10 11  1  0
 11 12  2  0
 11 13  1  0
 13 14  1  0
 14 15  1  0
 15 16  2  0
 16 17  1  0
 17 18  1  0
 18 19  2  0
 19 20  1  0
 20 21  2  0
 21 22  1  0
 22 23  2  0
 17 24  2  0
 24 25  1  0
 25 26  1  0
 26 27  1  0
 26 28  1  0
 26 29  1  0
 25 30  2  0
 30 31  1  0
 31 32  3  0
  9 33  1  0
 33 34  2  0
 34  6  1  0
 30 15  1  0
 23 18  1  0
  1 35  1  0
  1 36  1  0
  1 37  1  0
  2 38  1  0
  2 39  1  0
  7 40  1  0
  8 41  1  0
 10 42  1  0
 13 43  1  0
 13 44  1  0
 19 45  1  0
 20 46  1  0
 21 47  1  0
 22 48  1  0
 23 49  1  0
 24 50  1  0
 33 51  1  0
 34 52  1  0
M  END
>  <Binding energies>  (1) 
[-7.69]

>  <Ligand effiencies>  (1) 
[-0.21971428571428572]

>  <Interactions>  (1) 
["V-B:TYR:539:CD2:9845, V-B:ASP:366:CG:8184, V-B:TYR:539:CE2:9847, V-A:ASP:366:CG:3212, V-A:ILE:369:CG2:3236, V-B:LEU:363:CA:8156, V-B:PRO:540:CB:9856, H-B:TYR:531:OH:9766, V-B:PRO:540:CA:9854, V-B:TYR:539:CZ:9848, V-A:LEU:475:CD2:4258, H-B:TYR:539:OH:9849, H-A:TYR:484:OH:4347, V-A:ILE:369:CD1:3238, V-A:ARG:545:CZ:4926, V-B:ALA:541:CB:9863, V-B:PRO:540:C:9852, V-B:ALA:541:C:9859, V-B:ASN:362:CB:8147, H-A:TYR:531:OH:4795, V-B:ARG:545:CZ:9897, V-B:ASN:362:C:8143, V-B:LEU:363:CB:8158, H-A:ARG:545:NH1:4927, H-A:GLY:454:N:4049, V-B:ASN:362:CA:8145, V-A:ARG:545:CD:4923, V-A:GLY:453:CA:4043, V-B:ASN:362:CG:8148"]

$$$$
3ab_Grossjean_2025
     RDKit          3D

 49 51  0  0  0  0  0  0  0  0999 V2000
  133.6010  125.5380   66.6200 C   0  0  0  0  0  0  0  0  0  0  0  0
  133.8360  124.6490   65.5370 O   0  0  0  0  0  0  0  0  0  0  0  0
  133.6940  125.0600   64.2510 C   0  0  0  0  0  0  0  0  0  0  0  0
  134.6460  125.2910   63.5010 O   0  0  0  0  0  0  0  0  0  0  0  0
  132.2600  125.2040   63.8300 C   0  0  0  0  0  0  0  0  0  0  0  0
  131.2150  124.5650   64.5160 C   0  0  0  0  0  0  0  0  0  0  0  0
  129.8950  124.7180   64.1040 C   0  0  0  0  0  0  0  0  0  0  0  0
  129.5940  125.5170   62.9890 C   0  0  0  0  0  0  0  0  0  0  0  0
  128.2980  125.7460   62.4890 N   0  0  0  0  0  0  0  0  0  0  0  0
  127.8700  126.6330   61.5650 C   0  0  0  0  0  0  0  0  0  0  0  0
  128.5780  127.4510   60.9770 O   0  0  0  0  0  0  0  0  0  0  0  0
  126.3720  126.5850   61.2550 C   0  0  0  0  0  0  0  0  0  0  0  0
  125.6940  124.9060   61.4090 S   0  0  0  0  0  0  0  0  0  0  0  0
  126.4890  123.8940   60.1780 C   0  0  0  0  0  0  0  0  0  0  0  0
  127.6690  123.3710   60.5870 N   0  0  0  0  0  0  0  0  0  0  0  0
  128.3810  122.5730   59.7500 C   0  0  0  0  0  0  0  0  0  0  0  0
  129.6760  122.0310   60.2800 C   0  0  0  0  0  0  0  0  0  0  0  0
  129.7760  120.6960   60.7030 C   0  0  0  0  0  0  0  0  0  0  0  0
  130.9750  120.1880   61.1950 C   0  0  0  0  0  0  0  0  0  0  0  0
  132.0940  121.0110   61.2720 C   0  0  0  0  0  0  0  0  0  0  0  0
  132.0210  122.3380   60.8630 C   0  0  0  0  0  0  0  0  0  0  0  0
  130.8200  122.8420   60.3720 C   0  0  0  0  0  0  0  0  0  0  0  0
  127.9220  122.3010   58.4560 C   0  0  0  0  0  0  0  0  0  0  0  0
  126.7120  122.8470   58.0030 C   0  0  0  0  0  0  0  0  0  0  0  0
  126.2440  122.5270   56.5700 C   0  0  0  0  0  0  0  0  0  0  0  0
  127.1140  121.7680   55.8990 F   0  0  0  0  0  0  0  0  0  0  0  0
  125.0830  121.8710   56.6010 F   0  0  0  0  0  0  0  0  0  0  0  0
  126.0830  123.6580   55.8810 F   0  0  0  0  0  0  0  0  0  0  0  0
  125.9720  123.6760   58.8810 C   0  0  0  0  0  0  0  0  0  0  0  0
  124.7310  124.3180   58.4380 C   0  0  0  0  0  0  0  0  0  0  0  0
  123.7510  124.8230   58.0860 N   0  0  0  0  0  0  0  0  0  0  0  0
  130.6290  126.1580   62.3080 C   0  0  0  0  0  0  0  0  0  0  0  0
  131.9490  126.0030   62.7220 C   0  0  0  0  0  0  0  0  0  0  0  0
  133.7424  125.0031   67.5707 H   0  0  0  0  0  0  0  0  0  0  0  0
  134.3076  126.3791   66.5639 H   0  0  0  0  0  0  0  0  0  0  0  0
  132.5710  125.9201   66.5639 H   0  0  0  0  0  0  0  0  0  0  0  0
  131.4425  123.9361   65.3893 H   0  0  0  0  0  0  0  0  0  0  0  0
  129.0862  124.2126   64.6522 H   0  0  0  0  0  0  0  0  0  0  0  0
  127.5850  125.1750   62.9200 H   0  0  0  0  0  0  0  0  0  0  0  0
  125.8434  127.2465   61.9571 H   0  0  0  0  0  0  0  0  0  0  0  0
  126.2313  126.9124   60.2143 H   0  0  0  0  0  0  0  0  0  0  0  0
  128.8937  120.0417   60.6448 H   0  0  0  0  0  0  0  0  0  0  0  0
  131.0375  119.1395   61.5218 H   0  0  0  0  0  0  0  0  0  0  0  0
  133.0423  120.6095   61.6588 H   0  0  0  0  0  0  0  0  0  0  0  0
  132.9076  122.9860   60.9271 H   0  0  0  0  0  0  0  0  0  0  0  0
  130.7654  123.8926   60.0506 H   0  0  0  0  0  0  0  0  0  0  0  0
  128.5136  121.6553   57.7904 H   0  0  0  0  0  0  0  0  0  0  0  0
  130.4004  126.7905   61.4376 H   0  0  0  0  0  0  0  0  0  0  0  0
  132.7553  126.5126   62.1741 H   0  0  0  0  0  0  0  0  0  0  0  0
  1  2  1  0
  2  3  1  0
  3  4  2  0
  3  5  1  0
  5  6  2  0
  6  7  1  0
  7  8  2  0
  8  9  1  0
  9 10  1  0
 10 11  2  0
 10 12  1  0
 12 13  1  0
 13 14  1  0
 14 15  2  0
 15 16  1  0
 16 17  1  0
 17 18  2  0
 18 19  1  0
 19 20  2  0
 20 21  1  0
 21 22  2  0
 16 23  2  0
 23 24  1  0
 24 25  1  0
 25 26  1  0
 25 27  1  0
 25 28  1  0
 24 29  2  0
 29 30  1  0
 30 31  3  0
  8 32  1  0
 32 33  2  0
 33  5  1  0
 29 14  1  0
 22 17  1  0
  1 34  1  0
  1 35  1  0
  1 36  1  0
  6 37  1  0
  7 38  1  0
  9 39  1  0
 12 40  1  0
 12 41  1  0
 18 42  1  0
 19 43  1  0
 20 44  1  0
 21 45  1  0
 22 46  1  0
 23 47  1  0
 32 48  1  0
 33 49  1  0
M  END
>  <Binding energies>  (1) 
[-8.2]

>  <Ligand effiencies>  (1) 
[-0.24117647058823527]

>  <Interactions>  (1) 
["V-B:TYR:539:CD2:9845, V-B:MET:535:CE:9806, V-B:ASP:366:CG:8184, V-B:TYR:539:CE2:9847, V-B:TYR:539:C:9838, V-B:PRO:540:CD:9858, V-B:PRO:540:N:9855, V-A:ILE:369:CG2:3236, V-B:PRO:540:CB:9856, H-B:TYR:531:OH:9766, V-B:PRO:540:CA:9854, V-B:LEU:363:CD1:8160, V-B:TYR:539:CZ:9848, H-B:GLU:543:OE2:9881, V-B:GLU:543:CD:9879, H-B:ARG:545:NH2:9899, V-A:HIS:456:CE1:4069, V-A:LEU:475:CD2:4258, V-B:GLU:543:CG:9878, H-A:TYR:484:OH:4347, H-A:ARG:545:NH2:4928, V-A:ARG:545:CZ:4926, V-B:TYR:539:CA:9840, V-B:TYR:539:CD1:9844, V-B:TYR:539:CG:9843, V-B:TYR:539:CE1:9846, V-B:ALA:541:CB:9863, H-A:ARG:545:NH1:4927, H-A:GLY:454:N:4049, V-B:PRO:540:CG:9857, V-B:TYR:539:CB:9842, V-B:ILE:538:CA:9831, V-B:ILE:538:C:9829, V-B:ILE:538:CG2:9834, V-A:ARG:545:CG:4922, V-A:ARG:545:CD:4923, V-A:GLY:453:CA:4043"]

$$$$
3ac_Grossjean_2025
     RDKit          3D

 47 49  0  0  0  0  0  0  0  0999 V2000
  133.7870  125.1580   65.7860 C   0  0  0  0  0  0  0  0  0  0  0  0
  133.5540  124.7280   64.4490 O   0  0  0  0  0  0  0  0  0  0  0  0
  132.3150  124.9440   63.8770 C   0  0  0  0  0  0  0  0  0  0  0  0
  131.2190  124.9210   64.7390 C   0  0  0  0  0  0  0  0  0  0  0  0
  129.9320  125.1320   64.2550 C   0  0  0  0  0  0  0  0  0  0  0  0
  129.7200  125.3610   62.8940 C   0  0  0  0  0  0  0  0  0  0  0  0
  128.3870  125.5840   62.5020 N   0  0  0  0  0  0  0  0  0  0  0  0
  127.9070  126.4110   61.5480 C   0  0  0  0  0  0  0  0  0  0  0  0
  128.5930  127.1080   60.8000 O   0  0  0  0  0  0  0  0  0  0  0  0
  126.3840  126.4530   61.4180 C   0  0  0  0  0  0  0  0  0  0  0  0
  125.6480  124.7890   61.4190 S   0  0  0  0  0  0  0  0  0  0  0  0
  126.4440  123.8100   60.1600 C   0  0  0  0  0  0  0  0  0  0  0  0
  127.6110  123.2600   60.5720 N   0  0  0  0  0  0  0  0  0  0  0  0
  128.3290  122.4810   59.7220 C   0  0  0  0  0  0  0  0  0  0  0  0
  129.6130  121.9150   60.2530 C   0  0  0  0  0  0  0  0  0  0  0  0
  130.7950  122.6750   60.2340 C   0  0  0  0  0  0  0  0  0  0  0  0
  131.9870  122.1580   60.7310 C   0  0  0  0  0  0  0  0  0  0  0  0
  132.0160  120.8690   61.2540 C   0  0  0  0  0  0  0  0  0  0  0  0
  130.8620  120.0940   61.2800 C   0  0  0  0  0  0  0  0  0  0  0  0
  129.6710  120.6150   60.7820 C   0  0  0  0  0  0  0  0  0  0  0  0
  127.8890  122.2520   58.4150 C   0  0  0  0  0  0  0  0  0  0  0  0
  126.6950  122.8290   57.9560 C   0  0  0  0  0  0  0  0  0  0  0  0
  126.2500  122.5550   56.5060 C   0  0  0  0  0  0  0  0  0  0  0  0
  127.1040  121.7760   55.8400 F   0  0  0  0  0  0  0  0  0  0  0  0
  125.0640  121.9440   56.4950 F   0  0  0  0  0  0  0  0  0  0  0  0
  126.1490  123.7050   55.8390 F   0  0  0  0  0  0  0  0  0  0  0  0
  125.9520  123.6460   58.8450 C   0  0  0  0  0  0  0  0  0  0  0  0
  124.7410  124.3310   58.3880 C   0  0  0  0  0  0  0  0  0  0  0  0
  123.7850  124.8730   58.0260 N   0  0  0  0  0  0  0  0  0  0  0  0
  130.8180  125.3930   62.0210 C   0  0  0  0  0  0  0  0  0  0  0  0
  132.1050  125.1820   62.5090 C   0  0  0  0  0  0  0  0  0  0  0  0
  133.3830  124.4124   66.4866 H   0  0  0  0  0  0  0  0  0  0  0  0
  134.8687  125.2690   65.9522 H   0  0  0  0  0  0  0  0  0  0  0  0
  133.2894  126.1248   65.9522 H   0  0  0  0  0  0  0  0  0  0  0  0
  131.3737  124.7342   65.8119 H   0  0  0  0  0  0  0  0  0  0  0  0
  129.0775  125.1184   64.9476 H   0  0  0  0  0  0  0  0  0  0  0  0
  127.7100  125.0040   62.9750 H   0  0  0  0  0  0  0  0  0  0  0  0
  125.9719  127.0232   62.2636 H   0  0  0  0  0  0  0  0  0  0  0  0
  126.1401  126.9296   60.4571 H   0  0  0  0  0  0  0  0  0  0  0  0
  130.7773  123.6939   59.8199 H   0  0  0  0  0  0  0  0  0  0  0  0
  132.9034  122.7661   60.7106 H   0  0  0  0  0  0  0  0  0  0  0  0
  132.9577  120.4606   61.6493 H   0  0  0  0  0  0  0  0  0  0  0  0
  130.8899  119.0744   61.6919 H   0  0  0  0  0  0  0  0  0  0  0  0
  128.7603  119.9985   60.8031 H   0  0  0  0  0  0  0  0  0  0  0  0
  128.4824  121.6155   57.7421 H   0  0  0  0  0  0  0  0  0  0  0  0
  130.6619  125.5851   60.9492 H   0  0  0  0  0  0  0  0  0  0  0  0
  132.9617  125.2018   61.8193 H   0  0  0  0  0  0  0  0  0  0  0  0
  1  2  1  0
  2  3  1  0
  3  4  2  0
  4  5  1  0
  5  6  2  0
  6  7  1  0
  7  8  1  0
  8  9  2  0
  8 10  1  0
 10 11  1  0
 11 12  1  0
 12 13  2  0
 13 14  1  0
 14 15  1  0
 15 16  2  0
 16 17  1  0
 17 18  2  0
 18 19  1  0
 19 20  2  0
 14 21  2  0
 21 22  1  0
 22 23  1  0
 23 24  1  0
 23 25  1  0
 23 26  1  0
 22 27  2  0
 27 28  1  0
 28 29  3  0
  6 30  1  0
 30 31  2  0
 31  3  1  0
 27 12  1  0
 20 15  1  0
  1 32  1  0
  1 33  1  0
  1 34  1  0
  4 35  1  0
  5 36  1  0
  7 37  1  0
 10 38  1  0
 10 39  1  0
 16 40  1  0
 17 41  1  0
 18 42  1  0
 19 43  1  0
 20 44  1  0
 21 45  1  0
 30 46  1  0
 31 47  1  0
M  END
>  <Binding energies>  (1) 
[-7.7]

>  <Ligand effiencies>  (1) 
[-0.240625]

>  <Interactions>  (1) 
["V-B:TYR:539:CD2:9845, V-B:MET:535:CE:9806, V-B:ASP:366:CG:8184, V-B:TYR:539:CE2:9847, V-B:TYR:539:C:9838, V-B:PRO:540:CD:9858, V-B:PRO:540:N:9855, V-A:ILE:369:CG2:3236, V-B:PRO:540:CB:9856, H-B:TYR:531:OH:9766, V-B:PRO:540:CA:9854, V-B:LEU:363:CD1:8160, V-B:TYR:539:CZ:9848, H-B:GLU:543:OE2:9881, H-B:ALA:541:N:9862, V-B:GLU:543:CD:9879, H-B:ARG:545:NH2:9899, V-A:LEU:475:CD2:4258, V-B:GLU:543:CG:9878, H-A:TYR:484:OH:4347, V-A:GLY:454:CA:4048, V-A:ARG:545:CZ:4926, V-B:TYR:539:CA:9840, V-B:TYR:539:CD1:9844, V-B:TYR:539:CG:9843, V-B:TYR:539:CE1:9846, V-B:ALA:541:CB:9863, H-A:GLY:454:N:4049, V-B:PRO:540:CG:9857, V-B:TYR:539:CB:9842, V-B:ILE:538:CA:9831, V-B:ILE:538:C:9829, V-B:ILE:538:CG2:9834, V-A:ARG:545:CD:4923"]

$$$$
3ad_Grossjean_2025
     RDKit          3D

 43 45  0  0  0  0  0  0  0  0999 V2000
  132.1070  130.4780   58.2090 N   0  0  0  0  0  0  0  0  0  0  0  0
  131.3050  131.1420   58.7140 C   0  0  0  0  0  0  0  0  0  0  0  0
  130.2910  131.9830   59.3580 C   0  0  0  0  0  0  0  0  0  0  0  0
  130.3520  132.2550   60.7460 C   0  0  0  0  0  0  0  0  0  0  0  0
  131.4870  131.7340   61.6480 C   0  0  0  0  0  0  0  0  0  0  0  0
  131.5120  130.4030   61.7350 F   0  0  0  0  0  0  0  0  0  0  0  0
  132.6670  132.1280   61.1650 F   0  0  0  0  0  0  0  0  0  0  0  0
  131.3450  132.2120   62.8860 F   0  0  0  0  0  0  0  0  0  0  0  0
  129.3310  133.0260   61.3220 C   0  0  0  0  0  0  0  0  0  0  0  0
  128.2790  133.5090   60.5360 C   0  0  0  0  0  0  0  0  0  0  0  0
  127.1560  134.3250   61.1030 C   0  0  0  0  0  0  0  0  0  0  0  0
  127.4100  135.5470   61.7460 C   0  0  0  0  0  0  0  0  0  0  0  0
  126.3720  136.3100   62.2730 C   0  0  0  0  0  0  0  0  0  0  0  0
  125.0590  135.8590   62.1640 C   0  0  0  0  0  0  0  0  0  0  0  0
  124.7810  134.6530   61.5290 C   0  0  0  0  0  0  0  0  0  0  0  0
  125.8230  133.8940   61.0030 C   0  0  0  0  0  0  0  0  0  0  0  0
  128.2230  133.2400   59.2070 N   0  0  0  0  0  0  0  0  0  0  0  0
  129.2070  132.5160   58.6250 C   0  0  0  0  0  0  0  0  0  0  0  0
  128.9770  132.2730   56.8780 S   0  0  0  0  0  0  0  0  0  0  0  0
  128.2850  130.6070   56.6510 C   0  0  0  0  0  0  0  0  0  0  0  0
  126.8330  130.5140   57.1250 C   0  0  0  0  0  0  0  0  0  0  0  0
  125.9970  129.9860   56.3920 O   0  0  0  0  0  0  0  0  0  0  0  0
  126.5870  131.0380   58.3450 N   0  0  0  0  0  0  0  0  0  0  0  0
  125.3840  131.1040   59.0710 C   0  0  0  0  0  0  0  0  0  0  0  0
  125.4700  130.7430   60.4190 C   0  0  0  0  0  0  0  0  0  0  0  0
  124.3360  130.7690   61.2280 C   0  0  0  0  0  0  0  0  0  0  0  0
  123.1120  131.1520   60.6870 C   0  0  0  0  0  0  0  0  0  0  0  0
  123.0110  131.5070   59.3450 C   0  0  0  0  0  0  0  0  0  0  0  0
  124.1420  131.4820   58.5320 C   0  0  0  0  0  0  0  0  0  0  0  0
  129.3578  133.2521   62.3982 H   0  0  0  0  0  0  0  0  0  0  0  0
  128.4456  135.9071   61.8347 H   0  0  0  0  0  0  0  0  0  0  0  0
  126.5880  137.2654   62.7736 H   0  0  0  0  0  0  0  0  0  0  0  0
  124.2376  136.4594   62.5821 H   0  0  0  0  0  0  0  0  0  0  0  0
  123.7426  134.3005   61.4428 H   0  0  0  0  0  0  0  0  0  0  0  0
  125.5986  132.9413   60.5010 H   0  0  0  0  0  0  0  0  0  0  0  0
  128.3259  130.3491   55.5824 H   0  0  0  0  0  0  0  0  0  0  0  0
  128.8825  129.9083   57.2549 H   0  0  0  0  0  0  0  0  0  0  0  0
  127.3680  131.4850   58.8020 H   0  0  0  0  0  0  0  0  0  0  0  0
  126.4378  130.4369   60.8429 H   0  0  0  0  0  0  0  0  0  0  0  0
  124.4076  130.4882   62.2891 H   0  0  0  0  0  0  0  0  0  0  0  0
  122.2167  131.1743   61.3257 H   0  0  0  0  0  0  0  0  0  0  0  0
  122.0389  131.8071   58.9267 H   0  0  0  0  0  0  0  0  0  0  0  0
  124.0633  131.7576   57.4700 H   0  0  0  0  0  0  0  0  0  0  0  0
  1  2  3  0
  2  3  1  0
  3  4  2  0
  4  5  1  0
  5  6  1  0
  5  7  1  0
  5  8  1  0
  4  9  1  0
  9 10  2  0
 10 11  1  0
 11 12  2  0
 12 13  1  0
 13 14  2  0
 14 15  1  0
 15 16  2  0
 10 17  1  0
 17 18  2  0
 18 19  1  0
 19 20  1  0
 20 21  1  0
 21 22  2  0
 21 23  1  0
 23 24  1  0
 24 25  2  0
 25 26  1  0
 26 27  2  0
 27 28  1  0
 28 29  2  0
 18  3  1  0
 29 24  1  0
 16 11  1  0
  9 30  1  0
 12 31  1  0
 13 32  1  0
 14 33  1  0
 15 34  1  0
 16 35  1  0
 20 36  1  0
 20 37  1  0
 23 38  1  0
 25 39  1  0
 26 40  1  0
 27 41  1  0
 28 42  1  0
 29 43  1  0
M  END
>  <Binding energies>  (1) 
[-7.42]

>  <Ligand effiencies>  (1) 
[-0.24733333333333332]

>  <Interactions>  (1) 
["V-B:ASP:366:CG:8184, H-B:TYR:531:OH:9766, V-B:ASP:366:CB:8183, V-A:GLU:543:CD:4908, V-B:PRO:482:CB:9297, V-B:LEU:475:CD1:9229, V-B:TRP:381:CH2:8343, V-A:GLU:543:CG:4907, V-A:PRO:540:CB:4885, V-A:TYR:539:CD2:4874, V-A:ALA:541:CB:4892, V-B:TRP:381:CZ2:8341, V-A:ALA:541:CA:4890, V-A:PRO:540:CA:4883, V-A:TYR:539:C:4867, V-B:ILE:369:CD1:8210, V-B:ILE:369:CG2:8208, V-A:TYR:539:CE2:4876, V-B:ASP:366:CA:8181, V-B:ASP:366:C:8179, V-A:MET:535:CE:4835, H-A:TYR:539:OH:4878, V-B:ILE:369:CB:8207, V-A:PRO:540:C:4881, V-A:ALA:541:C:4888"]

$$$$
3af_Grossjean_2025
     RDKit          3D

 42 44  0  0  0  0  0  0  0  0999 V2000
  123.7290  133.7390   61.3200 N   0  0  0  0  0  0  0  0  0  0  0  0
  124.8610  133.5040   61.2510 C   0  0  0  0  0  0  0  0  0  0  0  0
  126.2930  133.2080   61.1630 C   0  0  0  0  0  0  0  0  0  0  0  0
  127.2550  134.1820   61.5270 C   0  0  0  0  0  0  0  0  0  0  0  0
  126.8690  135.5700   62.0740 C   0  0  0  0  0  0  0  0  0  0  0  0
  125.7990  135.5330   62.8720 F   0  0  0  0  0  0  0  0  0  0  0  0
  127.8790  136.0770   62.7810 F   0  0  0  0  0  0  0  0  0  0  0  0
  126.5860  136.3970   61.0670 F   0  0  0  0  0  0  0  0  0  0  0  0
  128.6150  133.8710   61.3740 C   0  0  0  0  0  0  0  0  0  0  0  0
  129.0030  132.6250   60.8710 C   0  0  0  0  0  0  0  0  0  0  0  0
  130.4400  132.2480   60.6700 C   0  0  0  0  0  0  0  0  0  0  0  0
  130.9920  132.1850   59.3800 C   0  0  0  0  0  0  0  0  0  0  0  0
  132.3270  131.8380   59.1870 C   0  0  0  0  0  0  0  0  0  0  0  0
  133.1290  131.5490   60.2850 C   0  0  0  0  0  0  0  0  0  0  0  0
  132.6090  131.6060   61.5730 C   0  0  0  0  0  0  0  0  0  0  0  0
  131.2740  131.9550   61.7620 C   0  0  0  0  0  0  0  0  0  0  0  0
  128.0780  131.6960   60.5200 N   0  0  0  0  0  0  0  0  0  0  0  0
  126.7590  131.9640   60.6800 C   0  0  0  0  0  0  0  0  0  0  0  0
  125.7000  130.6210   60.1810 S   0  0  0  0  0  0  0  0  0  0  0  0
  125.2050  130.9080   58.4550 C   0  0  0  0  0  0  0  0  0  0  0  0
  126.3910  130.7970   57.4970 C   0  0  0  0  0  0  0  0  0  0  0  0
  126.3340  129.9960   56.5640 O   0  0  0  0  0  0  0  0  0  0  0  0
  127.4340  131.6100   57.7720 N   0  0  0  0  0  0  0  0  0  0  0  0
  128.6650  131.7490   57.1020 C   0  0  0  0  0  0  0  0  0  0  0  0
  129.5420  130.7000   56.7690 C   0  0  0  0  0  0  0  0  0  0  0  0
  130.7360  130.9820   56.1030 C   0  0  0  0  0  0  0  0  0  0  0  0
  131.0270  132.3100   55.7860 C   0  0  0  0  0  0  0  0  0  0  0  0
  130.1990  133.3380   56.0950 N   0  0  0  0  0  0  0  0  0  0  0  0
  129.0420  133.0470   56.7420 C   0  0  0  0  0  0  0  0  0  0  0  0
  129.3799  134.6113   61.6512 H   0  0  0  0  0  0  0  0  0  0  0  0
  130.3603  132.4132   58.5088 H   0  0  0  0  0  0  0  0  0  0  0  0
  132.7448  131.7928   58.1704 H   0  0  0  0  0  0  0  0  0  0  0  0
  134.1830  131.2731   60.1336 H   0  0  0  0  0  0  0  0  0  0  0  0
  133.2485  131.3767   62.4382 H   0  0  0  0  0  0  0  0  0  0  0  0
  130.8661  132.0020   62.7825 H   0  0  0  0  0  0  0  0  0  0  0  0
  124.4486  130.1609   58.1728 H   0  0  0  0  0  0  0  0  0  0  0  0
  124.8007  131.9283   58.3810 H   0  0  0  0  0  0  0  0  0  0  0  0
  127.3260  132.2180   58.5690 H   0  0  0  0  0  0  0  0  0  0  0  0
  129.2878  129.6627   57.0323 H   0  0  0  0  0  0  0  0  0  0  0  0
  131.4329  130.1747   55.8336 H   0  0  0  0  0  0  0  0  0  0  0  0
  131.9689  132.5319   55.2629 H   0  0  0  0  0  0  0  0  0  0  0  0
  128.3650  133.8757   56.9967 H   0  0  0  0  0  0  0  0  0  0  0  0
  1  2  3  0
  2  3  1  0
  3  4  2  0
  4  5  1  0
  5  6  1  0
  5  7  1  0
  5  8  1  0
  4  9  1  0
  9 10  2  0
 10 11  1  0
 11 12  2  0
 12 13  1  0
 13 14  2  0
 14 15  1  0
 15 16  2  0
 10 17  1  0
 17 18  2  0
 18 19  1  0
 19 20  1  0
 20 21  1  0
 21 22  2  0
 21 23  1  0
 23 24  1  0
 24 25  2  0
 25 26  1  0
 26 27  2  0
 27 28  1  0
 28 29  2  0
 18  3  1  0
 29 24  1  0
 16 11  1  0
  9 30  1  0
 12 31  1  0
 13 32  1  0
 14 33  1  0
 15 34  1  0
 16 35  1  0
 20 36  1  0
 20 37  1  0
 23 38  1  0
 25 39  1  0
 26 40  1  0
 27 41  1  0
 29 42  1  0
M  END
>  <Binding energies>  (1) 
[-7.5]

>  <Ligand effiencies>  (1) 
[-0.25]

>  <Interactions>  (1) 
["V-A:ASP:366:CG:3212, H-B:TYR:531:OH:9766, V-B:ASP:366:CB:8183, V-A:PRO:540:N:4884, V-B:PRO:482:CB:9297, V-B:LEU:475:CD1:9229, V-B:TRP:381:CH2:8343, V-A:PRO:540:CB:4885, V-A:TYR:539:CD2:4874, V-A:ALA:541:CB:4892, V-B:PRO:482:CG:9298, V-B:TRP:381:CZ2:8341, V-A:ALA:541:CA:4890, V-A:PRO:540:CA:4883, V-A:TYR:539:C:4867, V-B:ILE:369:CG2:8208, V-A:TYR:539:CE2:4876, V-A:TYR:539:CZ:4877, V-A:MET:535:CE:4835, H-A:TYR:539:N:4870, V-A:TYR:539:CG:4872, V-A:TYR:539:CD1:4873, V-A:ILE:538:CB:4862, V-A:TYR:539:CE1:4875, V-A:ILE:538:CG2:4863, V-B:TRP:381:CZ3:8342"]

$$$$
3ag_Grossjean_2025
     RDKit          3D

 46 48  0  0  0  0  0  0  0  0999 V2000
  123.7780  124.6630   57.9280 N   0  0  0  0  0  0  0  0  0  0  0  0
  124.7280  124.1690   58.3690 C   0  0  0  0  0  0  0  0  0  0  0  0
  125.9290  123.5450   58.9310 C   0  0  0  0  0  0  0  0  0  0  0  0
  126.2050  123.6240   60.3180 C   0  0  0  0  0  0  0  0  0  0  0  0
  125.2500  124.3050   61.3180 C   0  0  0  0  0  0  0  0  0  0  0  0
  123.9860  124.3280   60.8940 F   0  0  0  0  0  0  0  0  0  0  0  0
  125.2720  123.6530   62.4810 F   0  0  0  0  0  0  0  0  0  0  0  0
  125.6250  125.5680   61.5230 F   0  0  0  0  0  0  0  0  0  0  0  0
  127.3950  123.0570   60.7990 C   0  0  0  0  0  0  0  0  0  0  0  0
  128.2900  122.4400   59.9190 C   0  0  0  0  0  0  0  0  0  0  0  0
  129.5760  121.8210   60.3770 C   0  0  0  0  0  0  0  0  0  0  0  0
  129.5940  120.5270   60.9210 C   0  0  0  0  0  0  0  0  0  0  0  0
  130.7850  119.9460   61.3490 C   0  0  0  0  0  0  0  0  0  0  0  0
  131.9770  120.6540   61.2380 C   0  0  0  0  0  0  0  0  0  0  0  0
  131.9860  121.9390   60.7050 C   0  0  0  0  0  0  0  0  0  0  0  0
  130.7940  122.5170   60.2800 C   0  0  0  0  0  0  0  0  0  0  0  0
  128.0170  122.3550   58.5910 N   0  0  0  0  0  0  0  0  0  0  0  0
  126.8640  122.8780   58.1080 C   0  0  0  0  0  0  0  0  0  0  0  0
  126.6720  122.6730   56.3510 S   0  0  0  0  0  0  0  0  0  0  0  0
  127.8160  123.8310   55.5420 C   0  0  0  0  0  0  0  0  0  0  0  0
  128.1570  125.0250   56.4350 C   0  0  0  0  0  0  0  0  0  0  0  0
  127.2740  125.8210   56.7600 O   0  0  0  0  0  0  0  0  0  0  0  0
  129.4390  125.1320   56.8270 N   0  0  0  0  0  0  0  0  0  0  0  0
  129.9740  126.1700   57.7070 C   0  0  0  0  0  0  0  0  0  0  0  0
  131.1210  125.7020   58.5950 C   0  0  0  0  0  0  0  0  0  0  0  0
  132.2540  125.1210   58.0180 C   0  0  0  0  0  0  0  0  0  0  0  0
  133.3160  124.7200   58.8230 C   0  0  0  0  0  0  0  0  0  0  0  0
  133.2470  124.9090   60.2020 C   0  0  0  0  0  0  0  0  0  0  0  0
  132.1280  125.5010   60.7820 C   0  0  0  0  0  0  0  0  0  0  0  0
  131.0650  125.9030   59.9780 C   0  0  0  0  0  0  0  0  0  0  0  0
  127.6252  123.0980   61.8739 H   0  0  0  0  0  0  0  0  0  0  0  0
  128.6534  119.9637   61.0105 H   0  0  0  0  0  0  0  0  0  0  0  0
  130.7831  118.9311   61.7732 H   0  0  0  0  0  0  0  0  0  0  0  0
  132.9186  120.1950   61.5738 H   0  0  0  0  0  0  0  0  0  0  0  0
  132.9311  122.4954   60.6200 H   0  0  0  0  0  0  0  0  0  0  0  0
  130.8045  123.5343   59.8616 H   0  0  0  0  0  0  0  0  0  0  0  0
  128.7452  123.2966   55.2950 H   0  0  0  0  0  0  0  0  0  0  0  0
  127.3230  124.2160   54.6372 H   0  0  0  0  0  0  0  0  0  0  0  0
  130.0950  124.4280   56.5210 H   0  0  0  0  0  0  0  0  0  0  0  0
  130.3370  126.9994   57.0822 H   0  0  0  0  0  0  0  0  0  0  0  0
  129.1555  126.4703   58.3777 H   0  0  0  0  0  0  0  0  0  0  0  0
  132.3061  124.9809   56.9282 H   0  0  0  0  0  0  0  0  0  0  0  0
  134.2059  124.2559   58.3728 H   0  0  0  0  0  0  0  0  0  0  0  0
  134.0846  124.5874   60.8384 H   0  0  0  0  0  0  0  0  0  0  0  0
  132.0842  125.6504   61.8709 H   0  0  0  0  0  0  0  0  0  0  0  0
  130.1819  126.3783   60.4299 H   0  0  0  0  0  0  0  0  0  0  0  0
  1  2  3  0
  2  3  1  0
  3  4  2  0
  4  5  1  0
  5  6  1  0
  5  7  1  0
  5  8  1  0
  4  9  1  0
  9 10  2  0
 10 11  1  0
 11 12  2  0
 12 13  1  0
 13 14  2  0
 14 15  1  0
 15 16  2  0
 10 17  1  0
 17 18  2  0
 18 19  1  0
 19 20  1  0
 20 21  1  0
 21 22  2  0
 21 23  1  0
 23 24  1  0
 24 25  1  0
 25 26  2  0
 26 27  1  0
 27 28  2  0
 28 29  1  0
 29 30  2  0
 18  3  1  0
 30 25  1  0
 16 11  1  0
  9 31  1  0
 12 32  1  0
 13 33  1  0
 14 34  1  0
 15 35  1  0
 16 36  1  0
 20 37  1  0
 20 38  1  0
 23 39  1  0
 24 40  1  0
 24 41  1  0
 26 42  1  0
 27 43  1  0
 28 44  1  0
 29 45  1  0
 30 46  1  0
M  END
>  <Binding energies>  (1) 
[-8.2]

>  <Ligand effiencies>  (1) 
[-0.264516129032258]

>  <Interactions>  (1) 
["V-B:TYR:539:CD2:9845, V-B:ASP:366:CG:8184, V-B:TYR:539:CE2:9847, V-B:TYR:539:C:9838, V-A:ASP:366:CG:3212, V-B:PRO:540:N:9855, V-A:ILE:369:CG2:3236, V-B:LEU:363:CA:8156, V-B:PRO:540:CB:9856, H-B:TYR:531:OH:9766, V-A:ASP:366:CB:3211, V-B:PRO:540:CA:9854, V-B:LEU:363:CD1:8160, V-B:TYR:539:CZ:9848, V-A:ASP:366:CA:3209, V-B:GLU:543:CD:9879, V-A:LEU:475:CD2:4258, H-B:TYR:539:OH:9849, V-B:GLU:543:CG:9878, V-B:TYR:539:CD1:9844, V-B:TYR:539:CE1:9846, V-B:ALA:541:CB:9863, V-A:TRP:381:CH2:3371, V-B:PRO:540:C:9852, V-B:ASN:362:CB:8147, V-A:ILE:369:CB:3235, V-A:ASP:366:C:3207, V-B:ASN:362:C:8143, V-B:ASN:362:CA:8145"]

$$$$
3ai_Grossjean_2025
     RDKit          3D

 39 41  0  0  0  0  0  0  0  0999 V2000
  133.3550  122.6910   61.6130 N   0  0  0  0  0  0  0  0  0  0  0  0
  132.3230  122.7200   61.0900 C   0  0  0  0  0  0  0  0  0  0  0  0
  131.0150  122.7560   60.4290 C   0  0  0  0  0  0  0  0  0  0  0  0
  130.0750  121.7150   60.6260 C   0  0  0  0  0  0  0  0  0  0  0  0
  130.3400  120.5220   61.5640 C   0  0  0  0  0  0  0  0  0  0  0  0
  130.5080  120.8910   62.8360 F   0  0  0  0  0  0  0  0  0  0  0  0
  129.3120  119.6740   61.5240 F   0  0  0  0  0  0  0  0  0  0  0  0
  131.4460  119.8790   61.1880 F   0  0  0  0  0  0  0  0  0  0  0  0
  128.8570  121.7720   59.9330 C   0  0  0  0  0  0  0  0  0  0  0  0
  128.5840  122.8350   59.0660 C   0  0  0  0  0  0  0  0  0  0  0  0
  127.3050  122.9410   58.2930 C   0  0  0  0  0  0  0  0  0  0  0  0
  126.2000  123.6240   58.8260 C   0  0  0  0  0  0  0  0  0  0  0  0
  125.0100  123.7300   58.1120 C   0  0  0  0  0  0  0  0  0  0  0  0
  124.9090  123.1550   56.8490 C   0  0  0  0  0  0  0  0  0  0  0  0
  125.9900  122.4760   56.2970 C   0  0  0  0  0  0  0  0  0  0  0  0
  127.1780  122.3720   57.0140 C   0  0  0  0  0  0  0  0  0  0  0  0
  129.4920  123.8270   58.8740 N   0  0  0  0  0  0  0  0  0  0  0  0
  130.6660  123.8070   59.5500 C   0  0  0  0  0  0  0  0  0  0  0  0
  131.7160  125.1980   59.1880 S   0  0  0  0  0  0  0  0  0  0  0  0
  131.4500  126.4530   60.4860 C   0  0  0  0  0  0  0  0  0  0  0  0
  131.5330  125.9260   61.9260 C   0  0  0  0  0  0  0  0  0  0  0  0
  130.5530  125.4060   62.4640 O   0  0  0  0  0  0  0  0  0  0  0  0
  132.7390  126.0870   62.5160 N   0  0  0  0  0  0  0  0  0  0  0  0
  133.1040  125.7030   63.8000 C   0  0  0  0  0  0  0  0  0  0  0  0
  132.2890  125.8970   64.9140 C   0  0  0  0  0  0  0  0  0  0  0  0
  133.0050  125.3910   65.9750 C   0  0  0  0  0  0  0  0  0  0  0  0
  134.1900  124.9170   65.5230 O   0  0  0  0  0  0  0  0  0  0  0  0
  134.2410  125.1200   64.1430 N   0  0  0  0  0  0  0  0  0  0  0  0
  128.1114  120.9753   60.0723 H   0  0  0  0  0  0  0  0  0  0  0  0
  126.2760  124.0823   59.8231 H   0  0  0  0  0  0  0  0  0  0  0  0
  124.1526  124.2663   58.5446 H   0  0  0  0  0  0  0  0  0  0  0  0
  123.9689  123.2379   56.2839 H   0  0  0  0  0  0  0  0  0  0  0  0
  125.9062  122.0232   55.2980 H   0  0  0  0  0  0  0  0  0  0  0  0
  128.0313  121.8360   56.5729 H   0  0  0  0  0  0  0  0  0  0  0  0
  132.2130  127.2360   60.3648 H   0  0  0  0  0  0  0  0  0  0  0  0
  130.4218  126.8201   60.3521 H   0  0  0  0  0  0  0  0  0  0  0  0
  133.4650  126.5300   61.9730 H   0  0  0  0  0  0  0  0  0  0  0  0
  131.2894  126.3555   64.9396 H   0  0  0  0  0  0  0  0  0  0  0  0
  132.6685  125.3744   67.0221 H   0  0  0  0  0  0  0  0  0  0  0  0
  1  2  3  0
  2  3  1  0
  3  4  2  0
  4  5  1  0
  5  6  1  0
  5  7  1  0
  5  8  1  0
  4  9  1  0
  9 10  2  0
 10 11  1  0
 11 12  2  0
 12 13  1  0
 13 14  2  0
 14 15  1  0
 15 16  2  0
 10 17  1  0
 17 18  2  0
 18 19  1  0
 19 20  1  0
 20 21  1  0
 21 22  2  0
 21 23  1  0
 23 24  1  0
 24 25  1  0
 25 26  2  0
 26 27  1  0
 27 28  1  0
 18  3  1  0
 28 24  2  0
 16 11  1  0
  9 29  1  0
 12 30  1  0
 13 31  1  0
 14 32  1  0
 15 33  1  0
 16 34  1  0
 20 35  1  0
 20 36  1  0
 23 37  1  0
 25 38  1  0
 26 39  1  0
M  END
>  <Binding energies>  (1) 
[-7.98]

>  <Ligand effiencies>  (1) 
[-0.2751724137931035]

>  <Interactions>  (1) 
["V-B:TYR:539:CD2:9845, V-B:MET:535:CE:9806, V-B:TYR:539:CE2:9847, V-B:TYR:539:C:9838, V-B:PRO:540:CD:9858, V-A:ASP:366:CG:3212, V-B:PRO:540:N:9855, V-A:ILE:369:CG2:3236, V-B:PRO:540:CB:9856, V-B:PRO:540:CA:9854, V-B:LEU:363:CD1:8160, V-B:TYR:539:CZ:9848, V-A:HIS:456:CE1:4069, V-A:LEU:475:CD2:4258, H-B:TYR:539:OH:9849, H-A:TYR:484:OH:4347, H-A:ARG:545:NH2:4928, H-A:ARG:545:NE:4924, V-A:ARG:545:CZ:4926, V-B:TYR:539:CD1:9844, V-B:TYR:539:CG:9843, V-B:TYR:539:CE1:9846, V-B:ALA:541:CB:9863, V-A:TRP:381:CH2:3371, V-B:PRO:540:C:9852, V-A:PRO:482:CG:4326, V-A:TRP:381:CZ2:3369, V-B:ALA:541:CA:9861, V-A:PRO:482:CB:4325, V-A:LEU:475:CD1:4257, H-A:ARG:545:NH1:4927, H-A:GLY:454:N:4049, H-A:ASP:366:OD2:3214, H-A:ASP:366:OD1:3213, V-A:ARG:545:CD:4923"]

$$$$
3aj_Grossjean_2025
     RDKit          3D

 39 41  0  0  0  0  0  0  0  0999 V2000
  132.1510  130.5780   58.1870 N   0  0  0  0  0  0  0  0  0  0  0  0
  131.3430  131.2300   58.6970 C   0  0  0  0  0  0  0  0  0  0  0  0
  130.3200  132.0560   59.3460 C   0  0  0  0  0  0  0  0  0  0  0  0
  130.3560  132.2880   60.7420 C   0  0  0  0  0  0  0  0  0  0  0  0
  131.4730  131.7360   61.6490 C   0  0  0  0  0  0  0  0  0  0  0  0
  132.6960  132.0210   61.1950 F   0  0  0  0  0  0  0  0  0  0  0  0
  131.3660  132.2550   62.8720 F   0  0  0  0  0  0  0  0  0  0  0  0
  131.3790  130.4080   61.7330 F   0  0  0  0  0  0  0  0  0  0  0  0
  129.3270  133.0460   61.3220 C   0  0  0  0  0  0  0  0  0  0  0  0
  128.2910  133.5550   60.5320 C   0  0  0  0  0  0  0  0  0  0  0  0
  127.1640  134.3620   61.1000 C   0  0  0  0  0  0  0  0  0  0  0  0
  127.4100  135.5920   61.7280 C   0  0  0  0  0  0  0  0  0  0  0  0
  126.3670  136.3490   62.2560 C   0  0  0  0  0  0  0  0  0  0  0  0
  125.0590  135.8820   62.1620 C   0  0  0  0  0  0  0  0  0  0  0  0
  124.7890  134.6660   61.5430 C   0  0  0  0  0  0  0  0  0  0  0  0
  125.8350  133.9140   61.0160 C   0  0  0  0  0  0  0  0  0  0  0  0
  128.2580  133.3230   59.1940 N   0  0  0  0  0  0  0  0  0  0  0  0
  129.2520  132.6150   58.6080 C   0  0  0  0  0  0  0  0  0  0  0  0
  129.0510  132.4330   56.8490 S   0  0  0  0  0  0  0  0  0  0  0  0
  128.2900  130.8030   56.5380 C   0  0  0  0  0  0  0  0  0  0  0  0
  126.8040  130.6980   56.9120 C   0  0  0  0  0  0  0  0  0  0  0  0
  126.0320  130.0090   56.2420 O   0  0  0  0  0  0  0  0  0  0  0  0
  126.4470  131.4080   58.0060 N   0  0  0  0  0  0  0  0  0  0  0  0
  125.1780  131.4850   58.5660 C   0  0  0  0  0  0  0  0  0  0  0  0
  124.0810  131.9580   58.0170 N   0  0  0  0  0  0  0  0  0  0  0  0
  123.0510  131.8720   58.8360 C   0  0  0  0  0  0  0  0  0  0  0  0
  123.3060  131.3170   60.0880 C   0  0  0  0  0  0  0  0  0  0  0  0
  124.9880  130.8900   60.1840 S   0  0  0  0  0  0  0  0  0  0  0  0
  129.3353  133.2410   62.4045 H   0  0  0  0  0  0  0  0  0  0  0  0
  128.4423  135.9642   61.8046 H   0  0  0  0  0  0  0  0  0  0  0  0
  126.5759  137.3118   62.7452 H   0  0  0  0  0  0  0  0  0  0  0  0
  124.2342  136.4780   62.5796 H   0  0  0  0  0  0  0  0  0  0  0  0
  123.7540  134.3005   61.4703 H   0  0  0  0  0  0  0  0  0  0  0  0
  125.6177  132.9535   60.5259 H   0  0  0  0  0  0  0  0  0  0  0  0
  128.3885  130.5796   55.4654 H   0  0  0  0  0  0  0  0  0  0  0  0
  128.8206  130.0879   57.1838 H   0  0  0  0  0  0  0  0  0  0  0  0
  127.1690  131.9310   58.4790 H   0  0  0  0  0  0  0  0  0  0  0  0
  122.0478  132.2187   58.5470 H   0  0  0  0  0  0  0  0  0  0  0  0
  122.5633  131.1724   60.8864 H   0  0  0  0  0  0  0  0  0  0  0  0
  1  2  3  0
  2  3  1  0
  3  4  2  0
  4  5  1  0
  5  6  1  0
  5  7  1  0
  5  8  1  0
  4  9  1  0
  9 10  2  0
 10 11  1  0
 11 12  2  0
 12 13  1  0
 13 14  2  0
 14 15  1  0
 15 16  2  0
 10 17  1  0
 17 18  2  0
 18 19  1  0
 19 20  1  0
 20 21  1  0
 21 22  2  0
 21 23  1  0
 23 24  1  0
 24 25  2  0
 25 26  1  0
 26 27  2  0
 27 28  1  0
 18  3  1  0
 28 24  1  0
 16 11  1  0
  9 29  1  0
 12 30  1  0
 13 31  1  0
 14 32  1  0
 15 33  1  0
 16 34  1  0
 20 35  1  0
 20 36  1  0
 23 37  1  0
 26 38  1  0
 27 39  1  0
M  END
>  <Binding energies>  (1) 
[-7.58]

>  <Ligand effiencies>  (1) 
[-0.2613793103448276]

>  <Interactions>  (1) 
["V-B:ASP:366:CG:8184, H-B:TYR:531:OH:9766, V-B:ASP:366:CB:8183, V-A:GLU:543:CD:4908, V-B:PRO:482:CB:9297, V-B:LEU:475:CD1:9229, V-B:TRP:381:CH2:8343, V-A:PRO:540:CB:4885, V-A:TYR:539:CD2:4874, V-A:ALA:541:CB:4892, V-B:TRP:381:CZ2:8341, V-A:ALA:541:CA:4890, V-A:PRO:540:CA:4883, V-A:TYR:539:C:4867, V-B:ILE:369:CD1:8210, V-B:ILE:369:CG2:8208, V-A:TYR:539:CE2:4876, V-A:TYR:539:CZ:4877, V-B:ASP:366:CA:8181, V-B:ASP:366:C:8179, V-A:MET:535:CE:4835, H-A:TYR:539:OH:4878, V-B:ILE:369:CB:8207, V-A:PRO:540:C:4881, V-A:ALA:541:C:4888"]

$$$$
3ak_Grossjean_2025
     RDKit          3D

 57 58  0  0  0  0  0  0  0  0999 V2000
  131.8490  133.0120   56.5960 C   0  0  0  0  0  0  0  0  0  0  0  0
  130.5040  133.3720   56.3240 O   0  0  0  0  0  0  0  0  0  0  0  0
  129.5540  132.5440   56.9780 C   0  0  0  0  0  0  0  0  0  0  0  0
  130.1720  131.9980   58.2710 C   0  0  0  0  0  0  0  0  0  0  0  0
  130.1180  133.0100   59.2720 O   0  0  0  0  0  0  0  0  0  0  0  0
  129.0010  132.9420   60.1550 C   0  0  0  0  0  0  0  0  0  0  0  0
  129.3420  132.3670   61.5420 C   0  0  0  0  0  0  0  0  0  0  0  0
  130.7320  132.5330   61.7880 O   0  0  0  0  0  0  0  0  0  0  0  0
  131.4760  131.3230   61.7280 C   0  0  0  0  0  0  0  0  0  0  0  0
  130.5720  130.1660   61.2670 C   0  0  0  0  0  0  0  0  0  0  0  0
  131.2220  128.8550   61.3260 N   0  0  0  0  0  0  0  0  0  0  0  0
  130.8270  127.7470   60.6700 C   0  0  0  0  0  0  0  0  0  0  0  0
  129.8550  127.7300   59.9140 O   0  0  0  0  0  0  0  0  0  0  0  0
  131.6210  126.4450   60.8700 C   0  0  0  0  0  0  0  0  0  0  0  0
  131.7390  125.3280   59.4240 S   0  0  0  0  0  0  0  0  0  0  0  0
  130.6600  123.9300   59.6910 C   0  0  0  0  0  0  0  0  0  0  0  0
  129.4700  123.9750   59.0430 N   0  0  0  0  0  0  0  0  0  0  0  0
  128.5800  122.9610   59.1890 C   0  0  0  0  0  0  0  0  0  0  0  0
  127.2890  123.0930   58.4360 C   0  0  0  0  0  0  0  0  0  0  0  0
  127.1320  122.5010   57.1730 C   0  0  0  0  0  0  0  0  0  0  0  0
  125.9350  122.6170   56.4710 C   0  0  0  0  0  0  0  0  0  0  0  0
  124.8750  123.3270   57.0250 C   0  0  0  0  0  0  0  0  0  0  0  0
  125.0040  123.9200   58.2760 C   0  0  0  0  0  0  0  0  0  0  0  0
  126.2020  123.8020   58.9760 C   0  0  0  0  0  0  0  0  0  0  0  0
  128.8790  121.8530   59.9890 C   0  0  0  0  0  0  0  0  0  0  0  0
  130.1040  121.7800   60.6690 C   0  0  0  0  0  0  0  0  0  0  0  0
  130.3960  120.5450   61.5430 C   0  0  0  0  0  0  0  0  0  0  0  0
  129.3830  119.6820   61.4680 F   0  0  0  0  0  0  0  0  0  0  0  0
  131.5100  119.9420   61.1230 F   0  0  0  0  0  0  0  0  0  0  0  0
  130.5690  120.8510   62.8310 F   0  0  0  0  0  0  0  0  0  0  0  0
  131.0230  122.8460   60.5200 C   0  0  0  0  0  0  0  0  0  0  0  0
  132.3190  122.8250   61.2070 C   0  0  0  0  0  0  0  0  0  0  0  0
  133.3420  122.8080   61.7510 N   0  0  0  0  0  0  0  0  0  0  0  0
  132.0045  132.9704   57.6842 H   0  0  0  0  0  0  0  0  0  0  0  0
  132.0604  132.0256   56.1574 H   0  0  0  0  0  0  0  0  0  0  0  0
  132.5249  133.7609   56.1574 H   0  0  0  0  0  0  0  0  0  0  0  0
  128.6560  133.1321   57.2184 H   0  0  0  0  0  0  0  0  0  0  0  0
  129.2736  131.7089   56.3192 H   0  0  0  0  0  0  0  0  0  0  0  0
  129.6066  131.1162   58.6067 H   0  0  0  0  0  0  0  0  0  0  0  0
  131.2176  131.7080   58.0905 H   0  0  0  0  0  0  0  0  0  0  0  0
  128.6020  133.9583   60.2890 H   0  0  0  0  0  0  0  0  0  0  0  0
  128.2695  132.2608   59.6958 H   0  0  0  0  0  0  0  0  0  0  0  0
  128.7658  132.8997   62.3129 H   0  0  0  0  0  0  0  0  0  0  0  0
  129.0867  131.2975   61.5716 H   0  0  0  0  0  0  0  0  0  0  0  0
  132.3060  131.4416   61.0159 H   0  0  0  0  0  0  0  0  0  0  0  0
  131.8701  131.0938   62.7291 H   0  0  0  0  0  0  0  0  0  0  0  0
  129.6815  130.1420   61.9123 H   0  0  0  0  0  0  0  0  0  0  0  0
  130.3198  130.3539   60.2129 H   0  0  0  0  0  0  0  0  0  0  0  0
  132.0420  128.7930   61.9120 H   0  0  0  0  0  0  0  0  0  0  0  0
  132.6447  126.7199   61.1640 H   0  0  0  0  0  0  0  0  0  0  0  0
  131.0632  125.8784   61.6301 H   0  0  0  0  0  0  0  0  0  0  0  0
  127.9668  121.9371   56.7313 H   0  0  0  0  0  0  0  0  0  0  0  0
  125.8281  122.1486   55.4815 H   0  0  0  0  0  0  0  0  0  0  0  0
  123.9296  123.4199   56.4705 H   0  0  0  0  0  0  0  0  0  0  0  0
  124.1631  124.4801   58.7110 H   0  0  0  0  0  0  0  0  0  0  0  0
  126.2992  124.2707   59.9664 H   0  0  0  0  0  0  0  0  0  0  0  0
  128.1500  121.0349   60.0854 H   0  0  0  0  0  0  0  0  0  0  0  0
  1  2  1  0
  2  3  1  0
  3  4  1  0
  4  5  1  0
  5  6  1  0
  6  7  1  0
  7  8  1  0
  8  9  1  0
  9 10  1  0
 10 11  1  0
 11 12  1  0
 12 13  2  0
 12 14  1  0
 14 15  1  0
 15 16  1  0
 16 17  2  0
 17 18  1  0
 18 19  1  0
 19 20  2  0
 20 21  1  0
 21 22  2  0
 22 23  1  0
 23 24  2  0
 18 25  2  0
 25 26  1  0
 26 27  1  0
 27 28  1  0
 27 29  1  0
 27 30  1  0
 26 31  2  0
 31 32  1  0
 32 33  3  0
 31 16  1  0
 24 19  1  0
  1 34  1  0
  1 35  1  0
  1 36  1  0
  3 37  1  0
  3 38  1  0
  4 39  1  0
  4 40  1  0
  6 41  1  0
  6 42  1  0
  7 43  1  0
  7 44  1  0
  9 45  1  0
  9 46  1  0
 10 47  1  0
 10 48  1  0
 11 49  1  0
 14 50  1  0
 14 51  1  0
 20 52  1  0
 21 53  1  0
 22 54  1  0
 23 55  1  0
 24 56  1  0
 25 57  1  0
M  END
>  <Binding energies>  (1) 
[-7.29]

>  <Ligand effiencies>  (1) 
[-0.21441176470588236]

>  <Interactions>  (1) 
["V-B:TYR:539:CD2:9845, V-B:TYR:539:CE2:9847, V-B:TYR:539:C:9838, V-B:PRO:540:CD:9858, V-A:ASP:366:CG:3212, V-B:PRO:540:N:9855, V-A:ILE:369:CG2:3236, V-B:PRO:540:CB:9856, V-B:PRO:540:CA:9854, V-B:LEU:363:CD1:8160, V-B:TYR:539:CZ:9848, V-A:PRO:540:N:4884, H-A:GLU:543:OE1:4909, V-A:ALA:541:CB:4892, H-A:ALA:541:N:4891, V-A:PRO:540:CA:4883, V-A:TYR:539:C:4867, V-A:LEU:475:CD2:4258, V-B:TYR:539:CD1:9844, V-B:TYR:539:CG:9843, V-B:TYR:539:CE1:9846, V-B:ALA:541:CB:9863, V-A:TRP:381:CH2:3371, V-B:PRO:540:C:9852, V-A:PRO:482:CG:4326, V-A:TRP:381:CZ2:3369, V-B:ALA:541:CA:9861, V-A:PRO:482:CB:4325, V-A:LEU:363:CD1:3188, V-A:LEU:475:CD1:4257, V-A:LEU:475:CG:4256, H-A:TYR:539:N:4870, V-A:ILE:538:CB:4862, V-A:PRO:540:CD:4887, H-A:ASP:366:OD2:3214, H-A:ASP:366:OD1:3213"]

$$$$
3bc_Grossjean_2025
     RDKit          3D

 47 49  0  0  0  0  0  0  0  0999 V2000
  124.6650  130.0160   65.7890 C   0  0  0  0  0  0  0  0  0  0  0  0
  123.7530  130.3570   64.7510 O   0  0  0  0  0  0  0  0  0  0  0  0
  124.2240  130.4970   63.4590 C   0  0  0  0  0  0  0  0  0  0  0  0
  125.4900  129.9700   63.1990 C   0  0  0  0  0  0  0  0  0  0  0  0
  126.0490  130.0640   61.9280 C   0  0  0  0  0  0  0  0  0  0  0  0
  125.3500  130.6950   60.8970 C   0  0  0  0  0  0  0  0  0  0  0  0
  125.9900  130.7300   59.6440 N   0  0  0  0  0  0  0  0  0  0  0  0
  125.5690  131.2860   58.4880 C   0  0  0  0  0  0  0  0  0  0  0  0
  124.5180  131.9160   58.3530 O   0  0  0  0  0  0  0  0  0  0  0  0
  126.5350  131.1170   57.3060 C   0  0  0  0  0  0  0  0  0  0  0  0
  128.0070  132.1940   57.3470 S   0  0  0  0  0  0  0  0  0  0  0  0
  128.3780  132.5430   59.0510 C   0  0  0  0  0  0  0  0  0  0  0  0
  127.4780  133.3630   59.6490 N   0  0  0  0  0  0  0  0  0  0  0  0
  127.6400  133.7090   60.9520 C   0  0  0  0  0  0  0  0  0  0  0  0
  126.6130  134.6360   61.5320 C   0  0  0  0  0  0  0  0  0  0  0  0
  126.9780  135.9040   62.0080 C   0  0  0  0  0  0  0  0  0  0  0  0
  126.0300  136.7700   62.5470 C   0  0  0  0  0  0  0  0  0  0  0  0
  124.6990  136.3750   62.6190 C   0  0  0  0  0  0  0  0  0  0  0  0
  124.3090  135.1220   62.1580 C   0  0  0  0  0  0  0  0  0  0  0  0
  125.2620  134.2590   61.6200 C   0  0  0  0  0  0  0  0  0  0  0  0
  128.7260  133.2330   61.6930 C   0  0  0  0  0  0  0  0  0  0  0  0
  129.6520  132.3680   61.0980 C   0  0  0  0  0  0  0  0  0  0  0  0
  130.8130  131.8590   61.9500 C   0  0  0  0  0  0  0  0  0  0  0  0
  129.4810  131.9970   59.7470 C   0  0  0  0  0  0  0  0  0  0  0  0
  130.4080  131.0550   59.1180 C   0  0  0  0  0  0  0  0  0  0  0  0
  131.1440  130.3110   58.6230 N   0  0  0  0  0  0  0  0  0  0  0  0
  124.0720  131.2160   61.1470 C   0  0  0  0  0  0  0  0  0  0  0  0
  123.5160  131.1200   62.4200 C   0  0  0  0  0  0  0  0  0  0  0  0
  124.1915  130.1931   66.7659 H   0  0  0  0  0  0  0  0  0  0  0  0
  124.9397  128.9544   65.7017 H   0  0  0  0  0  0  0  0  0  0  0  0
  125.5688  130.6370   65.7017 H   0  0  0  0  0  0  0  0  0  0  0  0
  126.0510  129.4759   64.0060 H   0  0  0  0  0  0  0  0  0  0  0  0
  127.0453  129.6396   61.7349 H   0  0  0  0  0  0  0  0  0  0  0  0
  126.9170  130.3300   59.6380 H   0  0  0  0  0  0  0  0  0  0  0  0
  126.8780  130.0719   57.2934 H   0  0  0  0  0  0  0  0  0  0  0  0
  125.9708  131.4047   56.4066 H   0  0  0  0  0  0  0  0  0  0  0  0
  128.0304  136.2195   61.9546 H   0  0  0  0  0  0  0  0  0  0  0  0
  126.3328  137.7618   62.9140 H   0  0  0  0  0  0  0  0  0  0  0  0
  123.9489  137.0584   63.0436 H   0  0  0  0  0  0  0  0  0  0  0  0
  123.2547  134.8140   62.2177 H   0  0  0  0  0  0  0  0  0  0  0  0
  124.9519  133.2674   61.2586 H   0  0  0  0  0  0  0  0  0  0  0  0
  128.8526  133.5379   62.7423 H   0  0  0  0  0  0  0  0  0  0  0  0
  130.5619  131.9691   63.0153 H   0  0  0  0  0  0  0  0  0  0  0  0
  130.9960  130.7981   61.7242 H   0  0  0  0  0  0  0  0  0  0  0  0
  131.7173  132.4432   61.7242 H   0  0  0  0  0  0  0  0  0  0  0  0
  123.5083  131.7010   60.3365 H   0  0  0  0  0  0  0  0  0  0  0  0
  122.5156  131.5351   62.6123 H   0  0  0  0  0  0  0  0  0  0  0  0
  1  2  1  0
  2  3  1  0
  3  4  2  0
  4  5  1  0
  5  6  2  0
  6  7  1  0
  7  8  1  0
  8  9  2  0
  8 10  1  0
 10 11  1  0
 11 12  1  0
 12 13  2  0
 13 14  1  0
 14 15  1  0
 15 16  2  0
 16 17  1  0
 17 18  2  0
 18 19  1  0
 19 20  2  0
 14 21  2  0
 21 22  1  0
 22 23  1  0
 22 24  2  0
 24 25  1  0
 25 26  3  0
  6 27  1  0
 27 28  2  0
 28  3  1  0
 24 12  1  0
 20 15  1  0
  1 29  1  0
  1 30  1  0
  1 31  1  0
  4 32  1  0
  5 33  1  0
  7 34  1  0
 10 35  1  0
 10 36  1  0
 16 37  1  0
 17 38  1  0
 18 39  1  0
 19 40  1  0
 20 41  1  0
 21 42  1  0
 23 43  1  0
 23 44  1  0
 23 45  1  0
 27 46  1  0
 28 47  1  0
M  END
>  <Binding energies>  (1) 
[-7.84]

>  <Ligand effiencies>  (1) 
[-0.27034482758620687]

>  <Interactions>  (1) 
["V-B:ASP:366:CG:8184, V-B:PRO:482:CB:9297, V-B:LEU:475:CD1:9229, V-B:TRP:381:CH2:8343, V-A:TYR:539:CD2:4874, V-A:ALA:541:CB:4892, V-B:TRP:381:CZ2:8341, V-A:PRO:540:CA:4883, V-B:ILE:369:CD1:8210, H-B:GLY:454:N:9021, V-B:GLY:454:CA:9020, H-B:ARG:545:NH2:9899, V-B:ILE:369:CG2:8208, V-A:TYR:539:CE2:4876, V-A:TYR:539:CZ:4877, V-B:ARG:545:CZ:9897, H-A:TYR:539:OH:4878, V-B:SER:385:CB:8380, V-B:TRP:381:CE2:8338"]

$$$$
3bd_Grossjean_2025
     RDKit          3D

 43 45  0  0  0  0  0  0  0  0999 V2000
  131.4480  131.7410   61.7140 C   0  0  0  0  0  0  0  0  0  0  0  0
  130.3350  132.2540   60.8020 C   0  0  0  0  0  0  0  0  0  0  0  0
  129.3220  133.0350   61.3700 C   0  0  0  0  0  0  0  0  0  0  0  0
  128.2820  133.5200   60.5680 C   0  0  0  0  0  0  0  0  0  0  0  0
  127.1680  134.3660   61.1110 C   0  0  0  0  0  0  0  0  0  0  0  0
  127.4390  135.5900   61.7430 C   0  0  0  0  0  0  0  0  0  0  0  0
  126.4100  136.3790   62.2500 C   0  0  0  0  0  0  0  0  0  0  0  0
  125.0910  135.9530   62.1320 C   0  0  0  0  0  0  0  0  0  0  0  0
  124.7960  134.7430   61.5130 C   0  0  0  0  0  0  0  0  0  0  0  0
  125.8270  133.9570   61.0080 C   0  0  0  0  0  0  0  0  0  0  0  0
  128.2480  133.2540   59.2360 N   0  0  0  0  0  0  0  0  0  0  0  0
  129.2220  132.4980   58.6700 C   0  0  0  0  0  0  0  0  0  0  0  0
  129.0570  132.2110   56.9150 S   0  0  0  0  0  0  0  0  0  0  0  0
  128.3280  130.5620   56.6800 C   0  0  0  0  0  0  0  0  0  0  0  0
  126.8730  130.5070   57.1490 C   0  0  0  0  0  0  0  0  0  0  0  0
  126.0250  130.0050   56.4090 O   0  0  0  0  0  0  0  0  0  0  0  0
  126.6290  131.0400   58.3650 N   0  0  0  0  0  0  0  0  0  0  0  0
  125.4140  131.1140   59.0720 C   0  0  0  0  0  0  0  0  0  0  0  0
  125.4670  130.7610   60.4240 C   0  0  0  0  0  0  0  0  0  0  0  0
  124.3130  130.7950   61.2020 C   0  0  0  0  0  0  0  0  0  0  0  0
  123.1030  131.1720   60.6270 C   0  0  0  0  0  0  0  0  0  0  0  0
  123.0350  131.5120   59.2780 C   0  0  0  0  0  0  0  0  0  0  0  0
  124.1870  131.4810   58.4970 C   0  0  0  0  0  0  0  0  0  0  0  0
  130.2940  131.9700   59.4210 C   0  0  0  0  0  0  0  0  0  0  0  0
  131.3410  131.1550   58.7960 C   0  0  0  0  0  0  0  0  0  0  0  0
  132.1690  130.5130   58.3040 N   0  0  0  0  0  0  0  0  0  0  0  0
  131.1529  131.8770   62.7649 H   0  0  0  0  0  0  0  0  0  0  0  0
  131.6203  130.6726   61.5169 H   0  0  0  0  0  0  0  0  0  0  0  0
  132.3722  132.3040   61.5169 H   0  0  0  0  0  0  0  0  0  0  0  0
  129.3429  133.2674   62.4450 H   0  0  0  0  0  0  0  0  0  0  0  0
  128.4804  135.9309   61.8391 H   0  0  0  0  0  0  0  0  0  0  0  0
  126.6392  137.3357   62.7421 H   0  0  0  0  0  0  0  0  0  0  0  0
  124.2770  136.5765   62.5304 H   0  0  0  0  0  0  0  0  0  0  0  0
  123.7519  134.4088   61.4231 H   0  0  0  0  0  0  0  0  0  0  0  0
  125.5890  133.0002   60.5203 H   0  0  0  0  0  0  0  0  0  0  0  0
  128.3666  130.3056   55.6110 H   0  0  0  0  0  0  0  0  0  0  0  0
  128.9065  129.8457   57.2819 H   0  0  0  0  0  0  0  0  0  0  0  0
  127.4060  131.4990   58.8180 H   0  0  0  0  0  0  0  0  0  0  0  0
  126.4231  130.4556   60.8741 H   0  0  0  0  0  0  0  0  0  0  0  0
  124.3574  130.5249   62.2674 H   0  0  0  0  0  0  0  0  0  0  0  0
  122.1923  131.2017   61.2433 H   0  0  0  0  0  0  0  0  0  0  0  0
  122.0734  131.8043   58.8309 H   0  0  0  0  0  0  0  0  0  0  0  0
  124.1359  131.7439   57.4301 H   0  0  0  0  0  0  0  0  0  0  0  0
  1  2  1  0
  2  3  2  0
  3  4  1  0
  4  5  1  0
  5  6  2  0
  6  7  1  0
  7  8  2  0
  8  9  1  0
  9 10  2  0
  4 11  2  0
 11 12  1  0
 12 13  1  0
 13 14  1  0
 14 15  1  0
 15 16  2  0
 15 17  1  0
 17 18  1  0
 18 19  2  0
 19 20  1  0
 20 21  2  0
 21 22  1  0
 22 23  2  0
 12 24  2  0
 24 25  1  0
 25 26  3  0
 24  2  1  0
 10  5  1  0
 23 18  1  0
  1 27  1  0
  1 28  1  0
  1 29  1  0
  3 30  1  0
  6 31  1  0
  7 32  1  0
  8 33  1  0
  9 34  1  0
 10 35  1  0
 14 36  1  0
 14 37  1  0
 17 38  1  0
 19 39  1  0
 20 40  1  0
 21 41  1  0
 22 42  1  0
 23 43  1  0
M  END
>  <Binding energies>  (1) 
[-7.7]

>  <Ligand effiencies>  (1) 
[-0.2851851851851852]

>  <Interactions>  (1) 
["V-B:ASP:366:CG:8184, H-B:TYR:531:OH:9766, V-B:ASP:366:CB:8183, V-B:PRO:482:CB:9297, V-B:LEU:475:CD1:9229, V-B:TRP:381:CH2:8343, V-A:TYR:539:CD2:4874, V-A:ALA:541:CB:4892, V-B:TRP:381:CZ2:8341, V-A:PRO:540:CA:4883, V-A:TYR:539:C:4867, V-B:ILE:369:CD1:8210, V-B:ILE:369:CG2:8208, V-A:TYR:539:CE2:4876, V-B:ASP:366:CA:8181, V-B:ASP:366:C:8179, V-A:MET:535:CE:4835, H-A:TYR:539:OH:4878, V-B:ILE:369:CB:8207, V-A:PRO:540:C:4881"]

$$$$
3be_Grossjean_2025
     RDKit          3D

 45 47  0  0  0  0  0  0  0  0999 V2000
  123.7950  129.6420   67.4470 C   0  0  0  0  0  0  0  0  0  0  0  0
  124.6560  129.7900   66.2080 C   0  0  0  0  0  0  0  0  0  0  0  0
  126.0510  129.7930   66.2830 C   0  0  0  0  0  0  0  0  0  0  0  0
  126.7790  129.9360   65.1020 C   0  0  0  0  0  0  0  0  0  0  0  0
  126.1030  130.0700   63.8860 C   0  0  0  0  0  0  0  0  0  0  0  0
  124.7030  130.0550   63.8820 C   0  0  0  0  0  0  0  0  0  0  0  0
  124.0820  130.2060   62.6280 N   0  0  0  0  0  0  0  0  0  0  0  0
  123.6380  131.3350   62.0340 C   0  0  0  0  0  0  0  0  0  0  0  0
  123.7100  132.4610   62.5300 O   0  0  0  0  0  0  0  0  0  0  0  0
  123.0140  131.1280   60.6450 C   0  0  0  0  0  0  0  0  0  0  0  0
  124.0870  131.5730   59.2380 S   0  0  0  0  0  0  0  0  0  0  0  0
  125.5190  132.4130   59.8790 C   0  0  0  0  0  0  0  0  0  0  0  0
  125.2180  133.4790   60.6610 N   0  0  0  0  0  0  0  0  0  0  0  0
  126.2170  134.2120   61.2210 C   0  0  0  0  0  0  0  0  0  0  0  0
  125.8000  135.3830   62.0600 C   0  0  0  0  0  0  0  0  0  0  0  0
  124.4720  135.5180   62.4950 C   0  0  0  0  0  0  0  0  0  0  0  0
  124.0780  136.6030   63.2720 C   0  0  0  0  0  0  0  0  0  0  0  0
  125.0100  137.5720   63.6270 C   0  0  0  0  0  0  0  0  0  0  0  0
  126.3310  137.4650   63.2080 C   0  0  0  0  0  0  0  0  0  0  0  0
  126.7210  136.3780   62.4300 C   0  0  0  0  0  0  0  0  0  0  0  0
  127.5590  133.8840   60.9980 C   0  0  0  0  0  0  0  0  0  0  0  0
  127.8860  132.7730   60.2140 C   0  0  0  0  0  0  0  0  0  0  0  0
  129.3640  132.4420   60.0130 C   0  0  0  0  0  0  0  0  0  0  0  0
  126.8500  132.0020   59.6420 C   0  0  0  0  0  0  0  0  0  0  0  0
  127.1690  130.8030   58.8630 C   0  0  0  0  0  0  0  0  0  0  0  0
  127.4230  129.8570   58.2480 N   0  0  0  0  0  0  0  0  0  0  0  0
  123.9850  129.9190   65.0350 N   0  0  0  0  0  0  0  0  0  0  0  0
  124.4221  129.7498   68.3443 H   0  0  0  0  0  0  0  0  0  0  0  0
  123.0169  130.4196   67.4478 H   0  0  0  0  0  0  0  0  0  0  0  0
  123.3212  128.6492   67.4478 H   0  0  0  0  0  0  0  0  0  0  0  0
  126.5631  129.6851   67.2505 H   0  0  0  0  0  0  0  0  0  0  0  0
  127.8787  129.9433   65.1274 H   0  0  0  0  0  0  0  0  0  0  0  0
  126.6626  130.1855   62.9461 H   0  0  0  0  0  0  0  0  0  0  0  0
  123.9290  129.3420   62.1280 H   0  0  0  0  0  0  0  0  0  0  0  0
  122.7469  130.0655   60.5467 H   0  0  0  0  0  0  0  0  0  0  0  0
  122.1483  131.8048   60.5950 H   0  0  0  0  0  0  0  0  0  0  0  0
  123.7311  134.7539   62.2172 H   0  0  0  0  0  0  0  0  0  0  0  0
  123.0333  136.6938   63.6041 H   0  0  0  0  0  0  0  0  0  0  0  0
  124.6999  138.4287   64.2434 H   0  0  0  0  0  0  0  0  0  0  0  0
  127.0644  138.2349   63.4895 H   0  0  0  0  0  0  0  0  0  0  0  0
  127.7671  136.2968   62.0996 H   0  0  0  0  0  0  0  0  0  0  0  0
  128.3565  134.4999   61.4392 H   0  0  0  0  0  0  0  0  0  0  0  0
  129.8518  132.3328   60.9928 H   0  0  0  0  0  0  0  0  0  0  0  0
  129.4558  131.5010   59.4507 H   0  0  0  0  0  0  0  0  0  0  0  0
  129.8484  133.2539   59.4507 H   0  0  0  0  0  0  0  0  0  0  0  0
  1  2  1  0
  2  3  2  0
  3  4  1  0
  4  5  2  0
  5  6  1  0
  6  7  1  0
  7  8  1  0
  8  9  2  0
  8 10  1  0
 10 11  1  0
 11 12  1  0
 12 13  2  0
 13 14  1  0
 14 15  1  0
 15 16  2  0
 16 17  1  0
 17 18  2  0
 18 19  1  0
 19 20  2  0
 14 21  2  0
 21 22  1  0
 22 23  1  0
 22 24  2  0
 24 25  1  0
 25 26  3  0
  6 27  2  0
 27  2  1  0
 24 12  1  0
 20 15  1  0
  1 28  1  0
  1 29  1  0
  1 30  1  0
  3 31  1  0
  4 32  1  0
  5 33  1  0
  7 34  1  0
 10 35  1  0
 10 36  1  0
 16 37  1  0
 17 38  1  0
 18 39  1  0
 19 40  1  0
 20 41  1  0
 21 42  1  0
 23 43  1  0
 23 44  1  0
 23 45  1  0
M  END
>  <Binding energies>  (1) 
[-8.73]

>  <Ligand effiencies>  (1) 
[-0.3117857142857143]

>  <Interactions>  (1) 
["V-B:ASP:366:CG:8184, H-B:ASP:366:OD2:8186, V-B:ASP:366:CB:8183, V-B:PRO:482:CB:9297, V-B:LEU:475:CD1:9229, V-B:TRP:381:CH2:8343, V-A:TYR:539:CD2:4874, V-A:ALA:541:CB:4892, V-B:PRO:482:CG:9298, V-B:TRP:381:CZ2:8341, V-A:PRO:540:CA:4883, V-B:ILE:369:CD1:8210, H-B:GLY:454:N:9021, V-B:HIS:456:CE1:9041, H-B:ARG:545:NH1:9898, H-B:ARG:545:NH2:9899, H-B:ARG:545:NE:9895, V-B:ILE:369:CG2:8208, V-A:TYR:539:CE2:4876, V-B:ASP:366:CA:8181, V-B:ARG:545:CZ:9897, V-B:ARG:545:CG:9893, V-B:ILE:369:CB:8207, V-B:LEU:475:CG:9228, V-B:SER:385:CB:8380, V-B:LEU:475:CB:9227, V-B:SER:385:CA:8378, V-B:TRP:381:CE2:8338, V-B:SER:385:C:8376, V-B:ARG:545:CD:9894, H-B:ASP:366:OD1:8185, V-B:ILE:369:CG1:8209, V-B:ILE:455:C:9023"]

$$$$
3bf_Grossjean_2025
     RDKit          3D

 42 44  0  0  0  0  0  0  0  0999 V2000
  127.9810  128.9340   60.8730 C   0  0  0  0  0  0  0  0  0  0  0  0
  128.6480  130.2700   61.1950 C   0  0  0  0  0  0  0  0  0  0  0  0
  127.8660  131.4280   61.1330 C   0  0  0  0  0  0  0  0  0  0  0  0
  128.4330  132.6720   61.4340 C   0  0  0  0  0  0  0  0  0  0  0  0
  127.6450  133.9470   61.4070 C   0  0  0  0  0  0  0  0  0  0  0  0
  128.2480  135.1690   61.7450 C   0  0  0  0  0  0  0  0  0  0  0  0
  127.5220  136.3570   61.7230 C   0  0  0  0  0  0  0  0  0  0  0  0
  126.1790  136.3380   61.3620 C   0  0  0  0  0  0  0  0  0  0  0  0
  125.5580  135.1400   61.0240 C   0  0  0  0  0  0  0  0  0  0  0  0
  126.2870  133.9540   61.0490 C   0  0  0  0  0  0  0  0  0  0  0  0
  129.7420  132.7740   61.7900 N   0  0  0  0  0  0  0  0  0  0  0  0
  130.5180  131.6630   61.8310 C   0  0  0  0  0  0  0  0  0  0  0  0
  132.2020  131.9880   62.3090 S   0  0  0  0  0  0  0  0  0  0  0  0
  133.2840  131.5410   60.9090 C   0  0  0  0  0  0  0  0  0  0  0  0
  132.5920  131.4970   59.5380 C   0  0  0  0  0  0  0  0  0  0  0  0
  132.9600  130.7000   58.6740 O   0  0  0  0  0  0  0  0  0  0  0  0
  131.5660  132.3650   59.3970 N   0  0  0  0  0  0  0  0  0  0  0  0
  130.7420  132.5830   58.2780 C   0  0  0  0  0  0  0  0  0  0  0  0
  129.3840  132.2770   58.4160 C   0  0  0  0  0  0  0  0  0  0  0  0
  128.5110  132.4850   57.3450 C   0  0  0  0  0  0  0  0  0  0  0  0
  129.0270  133.0020   56.1570 C   0  0  0  0  0  0  0  0  0  0  0  0
  130.3370  133.3170   55.9980 N   0  0  0  0  0  0  0  0  0  0  0  0
  131.1730  133.1100   57.0480 C   0  0  0  0  0  0  0  0  0  0  0  0
  130.0080  130.3750   61.5580 C   0  0  0  0  0  0  0  0  0  0  0  0
  130.8320  129.1680   61.6780 C   0  0  0  0  0  0  0  0  0  0  0  0
  131.4820  128.2150   61.7710 N   0  0  0  0  0  0  0  0  0  0  0  0
  127.7233  128.4177   61.8095 H   0  0  0  0  0  0  0  0  0  0  0  0
  127.0662  129.1123   60.2888 H   0  0  0  0  0  0  0  0  0  0  0  0
  128.6733  128.3099   60.2888 H   0  0  0  0  0  0  0  0  0  0  0  0
  126.8057  131.3612   60.8478 H   0  0  0  0  0  0  0  0  0  0  0  0
  129.3099  135.1882   62.0315 H   0  0  0  0  0  0  0  0  0  0  0  0
  128.0087  137.3066   61.9900 H   0  0  0  0  0  0  0  0  0  0  0  0
  125.6045  137.2759   61.3436 H   0  0  0  0  0  0  0  0  0  0  0  0
  124.4958  135.1297   60.7383 H   0  0  0  0  0  0  0  0  0  0  0  0
  125.7918  133.0081   60.7843 H   0  0  0  0  0  0  0  0  0  0  0  0
  134.0966  132.2805   60.8569 H   0  0  0  0  0  0  0  0  0  0  0  0
  133.6348  130.5176   61.1078 H   0  0  0  0  0  0  0  0  0  0  0  0
  131.3170  132.9050   60.2130 H   0  0  0  0  0  0  0  0  0  0  0  0
  129.0040  131.8733   59.3661 H   0  0  0  0  0  0  0  0  0  0  0  0
  127.4411  132.2464   57.4368 H   0  0  0  0  0  0  0  0  0  0  0  0
  128.3416  133.1614   55.3115 H   0  0  0  0  0  0  0  0  0  0  0  0
  132.2362  133.3665   56.9307 H   0  0  0  0  0  0  0  0  0  0  0  0
  1  2  1  0
  2  3  2  0
  3  4  1  0
  4  5  1  0
  5  6  2  0
  6  7  1  0
  7  8  2  0
  8  9  1  0
  9 10  2  0
  4 11  2  0
 11 12  1  0
 12 13  1  0
 13 14  1  0
 14 15  1  0
 15 16  2  0
 15 17  1  0
 17 18  1  0
 18 19  2  0
 19 20  1  0
 20 21  2  0
 21 22  1  0
 22 23  2  0
 12 24  2  0
 24 25  1  0
 25 26  3  0
 24  2  1  0
 10  5  1  0
 23 18  1  0
  1 27  1  0
  1 28  1  0
  1 29  1  0
  3 30  1  0
  6 31  1  0
  7 32  1  0
  8 33  1  0
  9 34  1  0
 10 35  1  0
 14 36  1  0
 14 37  1  0
 17 38  1  0
 19 39  1  0
 20 40  1  0
 21 41  1  0
 23 42  1  0
M  END
>  <Binding energies>  (1) 
[-7.6]

>  <Ligand effiencies>  (1) 
[-0.28148148148148144]

>  <Interactions>  (1) 
["V-A:ASP:366:CG:3212, V-A:PRO:540:N:4884, V-B:PRO:482:CB:9297, V-B:TRP:381:CH2:8343, V-A:PRO:540:CB:4885, V-A:TYR:539:CD2:4874, V-A:ALA:541:CB:4892, V-B:PRO:482:CG:9298, V-B:TRP:381:CZ2:8341, H-A:ALA:541:N:4891, V-A:ALA:541:CA:4890, V-A:PRO:540:CA:4883, V-A:TYR:539:C:4867, V-A:TYR:539:CE2:4876, V-A:TYR:539:CZ:4877, H-A:ARG:545:NH2:4928, V-A:MET:535:CE:4835, H-A:TYR:539:O:4868, H-A:TYR:539:N:4870, V-A:TYR:539:CG:4872, V-A:TYR:539:CD1:4873, V-A:PRO:540:CD:4887, V-A:TYR:539:CE1:4875, V-B:TRP:381:CZ3:8342, V-A:PRO:540:C:4881, V-A:ASN:362:CB:3175"]

$$$$
3bg_Grossjean_2025
     RDKit          3D

 46 48  0  0  0  0  0  0  0  0999 V2000
  125.0430  124.3610   61.3490 C   0  0  0  0  0  0  0  0  0  0  0  0
  126.0040  123.7250   60.3470 C   0  0  0  0  0  0  0  0  0  0  0  0
  127.1900  123.1670   60.8320 C   0  0  0  0  0  0  0  0  0  0  0  0
  128.0970  122.5660   59.9480 C   0  0  0  0  0  0  0  0  0  0  0  0
  129.3840  121.9370   60.4050 C   0  0  0  0  0  0  0  0  0  0  0  0
  130.6090  122.6110   60.2660 C   0  0  0  0  0  0  0  0  0  0  0  0
  131.8000  122.0390   60.7040 C   0  0  0  0  0  0  0  0  0  0  0  0
  131.7870  120.7780   61.2890 C   0  0  0  0  0  0  0  0  0  0  0  0
  130.5920  120.0830   61.4290 C   0  0  0  0  0  0  0  0  0  0  0  0
  129.4030  120.6570   60.9870 C   0  0  0  0  0  0  0  0  0  0  0  0
  127.8260  122.5050   58.6170 N   0  0  0  0  0  0  0  0  0  0  0  0
  126.6770  123.0400   58.1300 C   0  0  0  0  0  0  0  0  0  0  0  0
  126.4260  122.8630   56.3700 S   0  0  0  0  0  0  0  0  0  0  0  0
  127.8330  123.6410   55.5110 C   0  0  0  0  0  0  0  0  0  0  0  0
  128.2550  124.9520   56.1810 C   0  0  0  0  0  0  0  0  0  0  0  0
  127.5240  125.9400   56.1120 O   0  0  0  0  0  0  0  0  0  0  0  0
  129.4470  124.9490   56.8030 N   0  0  0  0  0  0  0  0  0  0  0  0
  130.1250  126.1260   57.3470 C   0  0  0  0  0  0  0  0  0  0  0  0
  131.1680  125.7470   58.3910 C   0  0  0  0  0  0  0  0  0  0  0  0
  132.3560  125.1220   57.9990 C   0  0  0  0  0  0  0  0  0  0  0  0
  133.3040  124.7670   58.9540 C   0  0  0  0  0  0  0  0  0  0  0  0
  133.0680  125.0490   60.2990 C   0  0  0  0  0  0  0  0  0  0  0  0
  131.8960  125.6890   60.6950 C   0  0  0  0  0  0  0  0  0  0  0  0
  130.9470  126.0440   59.7390 C   0  0  0  0  0  0  0  0  0  0  0  0
  125.7320  123.6730   58.9630 C   0  0  0  0  0  0  0  0  0  0  0  0
  124.4940  124.2430   58.4260 C   0  0  0  0  0  0  0  0  0  0  0  0
  123.5160  124.6940   58.0030 N   0  0  0  0  0  0  0  0  0  0  0  0
  125.3797  124.1382   62.3722 H   0  0  0  0  0  0  0  0  0  0  0  0
  125.0242  125.4505   61.1983 H   0  0  0  0  0  0  0  0  0  0  0  0
  124.0328  123.9525   61.1983 H   0  0  0  0  0  0  0  0  0  0  0  0
  127.4121  123.1994   61.9089 H   0  0  0  0  0  0  0  0  0  0  0  0
  130.6272  123.6085   59.8028 H   0  0  0  0  0  0  0  0  0  0  0  0
  132.7488  122.5832   60.5876 H   0  0  0  0  0  0  0  0  0  0  0  0
  132.7267  120.3285   61.6425 H   0  0  0  0  0  0  0  0  0  0  0  0
  130.5854  119.0830   61.8873 H   0  0  0  0  0  0  0  0  0  0  0  0
  128.4612  120.0990   61.0950 H   0  0  0  0  0  0  0  0  0  0  0  0
  128.6852  122.9455   55.5216 H   0  0  0  0  0  0  0  0  0  0  0  0
  127.5208  123.8688   54.4811 H   0  0  0  0  0  0  0  0  0  0  0  0
  129.9810  124.0920   56.8050 H   0  0  0  0  0  0  0  0  0  0  0  0
  130.6224  126.6618   56.5251 H   0  0  0  0  0  0  0  0  0  0  0  0
  129.3698  126.7608   57.8334 H   0  0  0  0  0  0  0  0  0  0  0  0
  132.5412  124.9109   56.9355 H   0  0  0  0  0  0  0  0  0  0  0  0
  134.2349  124.2664   58.6493 H   0  0  0  0  0  0  0  0  0  0  0  0
  133.8146  124.7633   61.0546 H   0  0  0  0  0  0  0  0  0  0  0  0
  131.7206  125.9131   61.7576 H   0  0  0  0  0  0  0  0  0  0  0  0
  130.0238  126.5580   60.0448 H   0  0  0  0  0  0  0  0  0  0  0  0
  1  2  1  0
  2  3  2  0
  3  4  1  0
  4  5  1  0
  5  6  2  0
  6  7  1  0
  7  8  2  0
  8  9  1  0
  9 10  2  0
  4 11  2  0
 11 12  1  0
 12 13  1  0
 13 14  1  0
 14 15  1  0
 15 16  2  0
 15 17  1  0
 17 18  1  0
 18 19  1  0
 19 20  2  0
 20 21  1  0
 21 22  2  0
 22 23  1  0
 23 24  2  0
 12 25  2  0
 25 26  1  0
 26 27  3  0
 25  2  1  0
 10  5  1  0
 24 19  1  0
  1 28  1  0
  1 29  1  0
  1 30  1  0
  3 31  1  0
  6 32  1  0
  7 33  1  0
  8 34  1  0
  9 35  1  0
 10 36  1  0
 14 37  1  0
 14 38  1  0
 17 39  1  0
 18 40  1  0
 18 41  1  0
 20 42  1  0
 21 43  1  0
 22 44  1  0
 23 45  1  0
 24 46  1  0
M  END
>  <Binding energies>  (1) 
[-8.41]

>  <Ligand effiencies>  (1) 
[-0.3003571428571429]

>  <Interactions>  (1) 
["V-B:TYR:539:CD2:9845, V-B:TYR:539:CE2:9847, V-B:TYR:539:C:9838, V-A:ASP:366:CG:3212, V-B:PRO:540:N:9855, V-A:ILE:369:CG2:3236, V-B:LEU:363:CA:8156, V-B:PRO:540:CB:9856, H-B:TYR:531:OH:9766, V-A:ASP:366:CB:3211, V-B:PRO:540:CA:9854, V-B:LEU:363:CD1:8160, V-B:TYR:539:CZ:9848, V-A:ASP:366:CA:3209, V-A:LEU:475:CD2:4258, H-B:TYR:539:OH:9849, V-B:TYR:539:CD1:9844, V-B:TYR:539:CE1:9846, V-B:ALA:541:CB:9863, V-B:PRO:540:C:9852, V-B:ALA:541:CA:9861, V-B:ASN:362:CB:8147, V-A:ILE:369:CB:3235, V-A:ASP:366:C:3207"]

$$$$
3bk_Grossjean_2025
     RDKit          3D

 57 58  0  0  0  0  0  0  0  0999 V2000
  133.4960  125.3240   65.4950 C   0  0  0  0  0  0  0  0  0  0  0  0
  133.7680  124.6280   64.2880 O   0  0  0  0  0  0  0  0  0  0  0  0
  133.6700  125.4450   63.1300 C   0  0  0  0  0  0  0  0  0  0  0  0
  133.8250  124.5780   61.8730 C   0  0  0  0  0  0  0  0  0  0  0  0
  132.7220  124.8030   61.0060 O   0  0  0  0  0  0  0  0  0  0  0  0
  133.0860  125.3340   59.7390 C   0  0  0  0  0  0  0  0  0  0  0  0
  132.6430  124.3630   58.6370 C   0  0  0  0  0  0  0  0  0  0  0  0
  131.4510  124.8470   58.0330 O   0  0  0  0  0  0  0  0  0  0  0  0
  130.8550  125.9360   58.7270 C   0  0  0  0  0  0  0  0  0  0  0  0
  129.3470  125.9610   58.4390 C   0  0  0  0  0  0  0  0  0  0  0  0
  128.9540  124.9680   57.4380 N   0  0  0  0  0  0  0  0  0  0  0  0
  128.2520  125.2220   56.3200 C   0  0  0  0  0  0  0  0  0  0  0  0
  127.8660  126.3460   55.9960 O   0  0  0  0  0  0  0  0  0  0  0  0
  127.9580  124.0250   55.4130 C   0  0  0  0  0  0  0  0  0  0  0  0
  126.7650  122.8750   56.1680 S   0  0  0  0  0  0  0  0  0  0  0  0
  126.8850  122.9960   57.9440 C   0  0  0  0  0  0  0  0  0  0  0  0
  127.9910  122.4440   58.5040 N   0  0  0  0  0  0  0  0  0  0  0  0
  128.1660  122.4860   59.8510 C   0  0  0  0  0  0  0  0  0  0  0  0
  129.4250  121.8720   60.3830 C   0  0  0  0  0  0  0  0  0  0  0  0
  130.6450  122.5650   60.3200 C   0  0  0  0  0  0  0  0  0  0  0  0
  131.8190  121.9970   60.8080 C   0  0  0  0  0  0  0  0  0  0  0  0
  131.7890  120.7250   61.3690 C   0  0  0  0  0  0  0  0  0  0  0  0
  130.5930  120.0180   61.4480 C   0  0  0  0  0  0  0  0  0  0  0  0
  129.4220  120.5900   60.9600 C   0  0  0  0  0  0  0  0  0  0  0  0
  127.2180  123.1000   60.6780 C   0  0  0  0  0  0  0  0  0  0  0  0
  126.0710  123.6730   60.1190 C   0  0  0  0  0  0  0  0  0  0  0  0
  125.0620  124.3320   61.0580 C   0  0  0  0  0  0  0  0  0  0  0  0
  125.8880  123.6260   58.7210 C   0  0  0  0  0  0  0  0  0  0  0  0
  124.6970  124.2200   58.1070 C   0  0  0  0  0  0  0  0  0  0  0  0
  123.7560  124.6890   57.6220 N   0  0  0  0  0  0  0  0  0  0  0  0
  133.7467  124.6825   66.3527 H   0  0  0  0  0  0  0  0  0  0  0  0
  134.1018  126.2413   65.5338 H   0  0  0  0  0  0  0  0  0  0  0  0
  132.4287  125.5875   65.5338 H   0  0  0  0  0  0  0  0  0  0  0  0
  132.6882  125.9408   63.1139 H   0  0  0  0  0  0  0  0  0  0  0  0
  134.4658  126.2041   63.1503 H   0  0  0  0  0  0  0  0  0  0  0  0
  134.7586  124.8446   61.3560 H   0  0  0  0  0  0  0  0  0  0  0  0
  133.8564  123.5166   62.1601 H   0  0  0  0  0  0  0  0  0  0  0  0
  132.5927  126.3062   59.5924 H   0  0  0  0  0  0  0  0  0  0  0  0
  134.1768  125.4688   59.6952 H   0  0  0  0  0  0  0  0  0  0  0  0
  133.4342  124.2849   57.8768 H   0  0  0  0  0  0  0  0  0  0  0  0
  132.4569  123.3709   59.0742 H   0  0  0  0  0  0  0  0  0  0  0  0
  131.0202  125.8167   59.8080 H   0  0  0  0  0  0  0  0  0  0  0  0
  131.3090  126.8793   58.3893 H   0  0  0  0  0  0  0  0  0  0  0  0
  128.8053  125.7540   59.3737 H   0  0  0  0  0  0  0  0  0  0  0  0
  129.0978  126.9557   58.0408 H   0  0  0  0  0  0  0  0  0  0  0  0
  129.2830  124.0270   57.5970 H   0  0  0  0  0  0  0  0  0  0  0  0
  127.5442  124.3927   54.4624 H   0  0  0  0  0  0  0  0  0  0  0  0
  128.9002  123.4806   55.2523 H   0  0  0  0  0  0  0  0  0  0  0  0
  130.6735  123.5720   59.8783 H   0  0  0  0  0  0  0  0  0  0  0  0
  132.7667  122.5525   60.7499 H   0  0  0  0  0  0  0  0  0  0  0  0
  132.7164  120.2748   61.7527 H   0  0  0  0  0  0  0  0  0  0  0  0
  130.5733  119.0125   61.8937 H   0  0  0  0  0  0  0  0  0  0  0  0
  128.4779  120.0295   61.0269 H   0  0  0  0  0  0  0  0  0  0  0  0
  127.3749  123.1318   61.7663 H   0  0  0  0  0  0  0  0  0  0  0  0
  125.3535  124.1416   62.1014 H   0  0  0  0  0  0  0  0  0  0  0  0
  125.0441  125.4164   60.8743 H   0  0  0  0  0  0  0  0  0  0  0  0
  124.0619  123.9125   60.8743 H   0  0  0  0  0  0  0  0  0  0  0  0
  1  2  1  0
  2  3  1  0
  3  4  1  0
  4  5  1  0
  5  6  1  0
  6  7  1  0
  7  8  1  0
  8  9  1  0
  9 10  1  0
 10 11  1  0
 11 12  1  0
 12 13  2  0
 12 14  1  0
 14 15  1  0
 15 16  1  0
 16 17  2  0
 17 18  1  0
 18 19  1  0
 19 20  2  0
 20 21  1  0
 21 22  2  0
 22 23  1  0
 23 24  2  0
 18 25  2  0
 25 26  1  0
 26 27  1  0
 26 28  2  0
 28 29  1  0
 29 30  3  0
 28 16  1  0
 24 19  1  0
  1 31  1  0
  1 32  1  0
  1 33  1  0
  3 34  1  0
  3 35  1  0
  4 36  1  0
  4 37  1  0
  6 38  1  0
  6 39  1  0
  7 40  1  0
  7 41  1  0
  9 42  1  0
  9 43  1  0
 10 44  1  0
 10 45  1  0
 11 46  1  0
 14 47  1  0
 14 48  1  0
 20 49  1  0
 21 50  1  0
 22 51  1  0
 23 52  1  0
 24 53  1  0
 25 54  1  0
 27 55  1  0
 27 56  1  0
 27 57  1  0
M  END
>  <Binding energies>  (1) 
[-6.82]

>  <Ligand effiencies>  (1) 
[-0.22]

>  <Interactions>  (1) 
["V-B:TYR:539:CD2:9845, V-B:TYR:539:CE2:9847, V-B:TYR:539:C:9838, V-A:ASP:366:CG:3212, V-B:PRO:540:N:9855, V-A:ILE:369:CG2:3236, V-B:PRO:540:CB:9856, H-B:TYR:531:OH:9766, V-A:ASP:366:CB:3211, V-B:PRO:540:CA:9854, V-B:LEU:363:CD1:8160, V-B:TYR:539:CZ:9848, V-A:ASP:366:CA:3209, V-A:LEU:475:CD2:4258, H-B:TYR:539:OH:9849, V-A:ILE:369:CD1:3238, V-A:ARG:545:CZ:4926, V-B:TYR:539:CE1:9846, V-B:ALA:541:CB:9863, V-B:PRO:540:C:9852, V-B:ALA:541:CA:9861, H-A:GLY:454:N:4049, V-A:ARG:545:CD:4923"]

$$$$
3ca_Grossjean_2025
     RDKit          3D

 52 54  0  0  0  0  0  0  0  0999 V2000
  132.1410  131.8760   58.3730 C   0  0  0  0  0  0  0  0  0  0  0  0
  132.2710  132.4720   56.9680 C   0  0  0  0  0  0  0  0  0  0  0  0
  131.1890  133.3630   56.7290 O   0  0  0  0  0  0  0  0  0  0  0  0
  130.0990  132.9690   56.0230 C   0  0  0  0  0  0  0  0  0  0  0  0
  130.0660  132.9260   54.7890 O   0  0  0  0  0  0  0  0  0  0  0  0
  128.9350  132.5840   56.8920 C   0  0  0  0  0  0  0  0  0  0  0  0
  128.9220  132.9830   58.2340 C   0  0  0  0  0  0  0  0  0  0  0  0
  127.8590  132.6410   59.0650 C   0  0  0  0  0  0  0  0  0  0  0  0
  126.7910  131.8880   58.5730 C   0  0  0  0  0  0  0  0  0  0  0  0
  125.7680  131.6000   59.4960 N   0  0  0  0  0  0  0  0  0  0  0  0
  124.4280  131.5980   59.3250 C   0  0  0  0  0  0  0  0  0  0  0  0
  123.8440  131.8430   58.2700 O   0  0  0  0  0  0  0  0  0  0  0  0
  123.6100  131.2330   60.5690 C   0  0  0  0  0  0  0  0  0  0  0  0
  123.9230  132.3400   61.9840 S   0  0  0  0  0  0  0  0  0  0  0  0
  125.5590  132.0380   62.6400 C   0  0  0  0  0  0  0  0  0  0  0  0
  126.5700  132.7070   62.0300 N   0  0  0  0  0  0  0  0  0  0  0  0
  127.8300  132.5440   62.4860 C   0  0  0  0  0  0  0  0  0  0  0  0
  128.9000  133.3380   61.7650 C   0  0  0  0  0  0  0  0  0  0  0  0
  128.1380  131.7010   63.5520 C   0  0  0  0  0  0  0  0  0  0  0  0
  127.1150  130.9850   64.1860 C   0  0  0  0  0  0  0  0  0  0  0  0
  127.4940  130.0820   65.3150 C   0  0  0  0  0  0  0  0  0  0  0  0
  127.2120  130.4530   66.6360 C   0  0  0  0  0  0  0  0  0  0  0  0
  127.5700  129.6230   67.6950 C   0  0  0  0  0  0  0  0  0  0  0  0
  128.2170  128.4170   67.4370 C   0  0  0  0  0  0  0  0  0  0  0  0
  128.5100  128.0360   66.1300 C   0  0  0  0  0  0  0  0  0  0  0  0
  128.1520  128.8700   65.0730 C   0  0  0  0  0  0  0  0  0  0  0  0
  125.7840  131.1610   63.7280 C   0  0  0  0  0  0  0  0  0  0  0  0
  124.6660  130.4780   64.3860 C   0  0  0  0  0  0  0  0  0  0  0  0
  123.7840  129.9380   64.9060 N   0  0  0  0  0  0  0  0  0  0  0  0
  126.7920  131.4910   57.2270 C   0  0  0  0  0  0  0  0  0  0  0  0
  127.8560  131.8360   56.3980 C   0  0  0  0  0  0  0  0  0  0  0  0
  132.3126  132.6628   59.1224 H   0  0  0  0  0  0  0  0  0  0  0  0
  131.1310  131.4600   58.5028 H   0  0  0  0  0  0  0  0  0  0  0  0
  132.8860  131.0772   58.5028 H   0  0  0  0  0  0  0  0  0  0  0  0
  133.2215  133.0199   56.8887 H   0  0  0  0  0  0  0  0  0  0  0  0
  132.2509  131.6628   56.2232 H   0  0  0  0  0  0  0  0  0  0  0  0
  129.7597  133.5722   58.6354 H   0  0  0  0  0  0  0  0  0  0  0  0
  127.8603  132.9660   60.1159 H   0  0  0  0  0  0  0  0  0  0  0  0
  126.1000  131.3060   60.4030 H   0  0  0  0  0  0  0  0  0  0  0  0
  122.5415  131.2862   60.3130 H   0  0  0  0  0  0  0  0  0  0  0  0
  123.9117  130.2199   60.8732 H   0  0  0  0  0  0  0  0  0  0  0  0
  129.5553  133.8243   62.5026 H   0  0  0  0  0  0  0  0  0  0  0  0
  129.4960  132.6619   61.1344 H   0  0  0  0  0  0  0  0  0  0  0  0
  128.4256  134.1044   61.1344 H   0  0  0  0  0  0  0  0  0  0  0  0
  129.1786  131.5986   63.8935 H   0  0  0  0  0  0  0  0  0  0  0  0
  126.7038  131.4074   66.8382 H   0  0  0  0  0  0  0  0  0  0  0  0
  127.3430  129.9183   68.7300 H   0  0  0  0  0  0  0  0  0  0  0  0
  128.4990  127.7598   68.2728 H   0  0  0  0  0  0  0  0  0  0  0  0
  129.0212  127.0820   65.9333 H   0  0  0  0  0  0  0  0  0  0  0  0
  128.3881  128.5740   64.0402 H   0  0  0  0  0  0  0  0  0  0  0  0
  125.9508  130.9063   56.8263 H   0  0  0  0  0  0  0  0  0  0  0  0
  127.8505  131.5187   55.3448 H   0  0  0  0  0  0  0  0  0  0  0  0
  1  2  1  0
  2  3  1  0
  3  4  1  0
  4  5  2  0
  4  6  1  0
  6  7  2  0
  7  8  1  0
  8  9  2  0
  9 10  1  0
 10 11  1  0
 11 12  2  0
 11 13  1  0
 13 14  1  0
 14 15  1  0
 15 16  2  0
 16 17  1  0
 17 18  1  0
 17 19  2  0
 19 20  1  0
 20 21  1  0
 21 22  2  0
 22 23  1  0
 23 24  2  0
 24 25  1  0
 25 26  2  0
 20 27  2  0
 27 28  1  0
 28 29  3  0
  9 30  1  0
 30 31  2  0
 31  6  1  0
 27 15  1  0
 26 21  1  0
  1 32  1  0
  1 33  1  0
  1 34  1  0
  2 35  1  0
  2 36  1  0
  7 37  1  0
  8 38  1  0
 10 39  1  0
 13 40  1  0
 13 41  1  0
 18 42  1  0
 18 43  1  0
 18 44  1  0
 19 45  1  0
 22 46  1  0
 23 47  1  0
 24 48  1  0
 25 49  1  0
 26 50  1  0
 30 51  1  0
 31 52  1  0
M  END
>  <Binding energies>  (1) 
[-8.74]

>  <Ligand effiencies>  (1) 
[-0.273125]

>  <Interactions>  (1) 
["V-B:ASP:366:CG:8184, V-B:ASP:366:CB:8183, V-A:PRO:540:N:4884, V-A:GLU:543:CD:4908, V-A:GLU:543:CG:4907, V-A:PRO:540:CB:4885, V-A:TYR:539:CD2:4874, V-A:ALA:541:CB:4892, V-A:ALA:541:CA:4890, V-A:PRO:540:CA:4883, V-A:TYR:539:C:4867, V-B:ILE:369:CD1:8210, H-B:GLY:454:N:9021, V-B:GLU:543:CD:9879, V-B:HIS:456:CE1:9041, V-B:GLY:454:CA:9020, H-B:ARG:545:NH1:9898, H-B:ARG:545:NH2:9899, H-B:ARG:545:NE:9895, V-A:GLU:543:CB:4906, V-B:TYR:484:CE1:9316, V-A:TYR:539:CE2:4876, V-A:TYR:539:CZ:4877, V-B:ASP:366:CA:8181, V-B:ARG:545:CZ:9897, V-B:TYR:484:CZ:9318, V-A:LEU:363:CD1:3188, V-A:MET:535:CE:4835, H-A:TYR:539:OH:4878, H-A:TYR:539:N:4870, V-A:TYR:539:CG:4872, V-A:ILE:538:CA:4860, V-A:ILE:538:CB:4862, V-A:PRO:540:CD:4887, V-A:TYR:539:CE1:4875"]

$$$$
3cb_Grossjean_2025
     RDKit          3D

 49 51  0  0  0  0  0  0  0  0999 V2000
  124.1500  129.6240   66.3700 C   0  0  0  0  0  0  0  0  0  0  0  0
  123.8920  129.9510   65.0130 O   0  0  0  0  0  0  0  0  0  0  0  0
  124.5320  130.9840   64.4080 C   0  0  0  0  0  0  0  0  0  0  0  0
  124.9730  131.9620   65.0180 O   0  0  0  0  0  0  0  0  0  0  0  0
  124.6480  130.8210   62.9190 C   0  0  0  0  0  0  0  0  0  0  0  0
  123.6630  131.2950   62.0400 C   0  0  0  0  0  0  0  0  0  0  0  0
  123.8030  131.1300   60.6650 C   0  0  0  0  0  0  0  0  0  0  0  0
  124.9230  130.4850   60.1390 C   0  0  0  0  0  0  0  0  0  0  0  0
  124.9630  130.3760   58.7340 N   0  0  0  0  0  0  0  0  0  0  0  0
  124.4010  131.1560   57.7870 C   0  0  0  0  0  0  0  0  0  0  0  0
  123.7320  132.1670   58.0100 O   0  0  0  0  0  0  0  0  0  0  0  0
  124.6700  130.7010   56.3440 C   0  0  0  0  0  0  0  0  0  0  0  0
  126.3360  131.0960   55.7110 S   0  0  0  0  0  0  0  0  0  0  0  0
  127.5250  130.3230   56.7870 C   0  0  0  0  0  0  0  0  0  0  0  0
  127.1110  129.1310   57.2820 N   0  0  0  0  0  0  0  0  0  0  0  0
  127.9340  128.4520   58.1120 C   0  0  0  0  0  0  0  0  0  0  0  0
  127.4110  127.1210   58.6160 C   0  0  0  0  0  0  0  0  0  0  0  0
  129.1870  128.9320   58.4830 C   0  0  0  0  0  0  0  0  0  0  0  0
  129.6290  130.1690   57.9970 C   0  0  0  0  0  0  0  0  0  0  0  0
  130.9800  130.6430   58.4290 C   0  0  0  0  0  0  0  0  0  0  0  0
  132.0990  130.4130   57.6200 C   0  0  0  0  0  0  0  0  0  0  0  0
  133.3600  130.8600   58.0090 C   0  0  0  0  0  0  0  0  0  0  0  0
  133.5050  131.5460   59.2120 C   0  0  0  0  0  0  0  0  0  0  0  0
  132.4020  131.7910   60.0250 C   0  0  0  0  0  0  0  0  0  0  0  0
  131.1430  131.3440   59.6320 C   0  0  0  0  0  0  0  0  0  0  0  0
  128.7720  130.9010   57.1350 C   0  0  0  0  0  0  0  0  0  0  0  0
  129.1430  132.2410   56.6720 C   0  0  0  0  0  0  0  0  0  0  0  0
  129.4360  133.2990   56.3060 N   0  0  0  0  0  0  0  0  0  0  0  0
  125.9150  130.0120   61.0110 C   0  0  0  0  0  0  0  0  0  0  0  0
  125.7740  130.1780   62.3870 C   0  0  0  0  0  0  0  0  0  0  0  0
  123.6025  130.3179   67.0248 H   0  0  0  0  0  0  0  0  0  0  0  0
  123.8186  128.5940   66.5684 H   0  0  0  0  0  0  0  0  0  0  0  0
  125.2288  129.7067   66.5684 H   0  0  0  0  0  0  0  0  0  0  0  0
  122.7725  131.8014   62.4407 H   0  0  0  0  0  0  0  0  0  0  0  0
  123.0246  131.5111   59.9877 H   0  0  0  0  0  0  0  0  0  0  0  0
  125.5230  129.6050   58.3990 H   0  0  0  0  0  0  0  0  0  0  0  0
  124.5375  129.6099   56.2995 H   0  0  0  0  0  0  0  0  0  0  0  0
  123.9604  131.2523   55.7095 H   0  0  0  0  0  0  0  0  0  0  0  0
  127.4106  127.1200   59.7160 H   0  0  0  0  0  0  0  0  0  0  0  0
  126.3856  126.9672   58.2488 H   0  0  0  0  0  0  0  0  0  0  0  0
  128.0574  126.3102   58.2488 H   0  0  0  0  0  0  0  0  0  0  0  0
  129.8274  128.3421   59.1552 H   0  0  0  0  0  0  0  0  0  0  0  0
  131.9816  129.8743   56.6682 H   0  0  0  0  0  0  0  0  0  0  0  0
  134.2354  130.6722   57.3699 H   0  0  0  0  0  0  0  0  0  0  0  0
  134.5000  131.8974   59.5226 H   0  0  0  0  0  0  0  0  0  0  0  0
  132.5242  132.3350   60.9732 H   0  0  0  0  0  0  0  0  0  0  0  0
  130.2696  131.5425   60.2705 H   0  0  0  0  0  0  0  0  0  0  0  0
  126.8061  129.5090   60.6074 H   0  0  0  0  0  0  0  0  0  0  0  0
  126.5550  129.8003   63.0633 H   0  0  0  0  0  0  0  0  0  0  0  0
  1  2  1  0
  2  3  1  0
  3  4  2  0
  3  5  1  0
  5  6  2  0
  6  7  1  0
  7  8  2  0
  8  9  1  0
  9 10  1  0
 10 11  2  0
 10 12  1  0
 12 13  1  0
 13 14  1  0
 14 15  2  0
 15 16  1  0
 16 17  1  0
 16 18  2  0
 18 19  1  0
 19 20  1  0
 20 21  2  0
 21 22  1  0
 22 23  2  0
 23 24  1  0
 24 25  2  0
 19 26  2  0
 26 27  1  0
 27 28  3  0
  8 29  1  0
 29 30  2  0
 30  5  1  0
 26 14  1  0
 25 20  1  0
  1 31  1  0
  1 32  1  0
  1 33  1  0
  6 34  1  0
  7 35  1  0
  9 36  1  0
 12 37  1  0
 12 38  1  0
 17 39  1  0
 17 40  1  0
 17 41  1  0
 18 42  1  0
 21 43  1  0
 22 44  1  0
 23 45  1  0
 24 46  1  0
 25 47  1  0
 29 48  1  0
 30 49  1  0
M  END
>  <Binding energies>  (1) 
[-8.37]

>  <Ligand effiencies>  (1) 
[-0.26999999999999996]

>  <Interactions>  (1) 
["V-B:ASP:366:CG:8184, H-B:ASP:366:OD2:8186, V-A:ASP:366:CG:3212, H-B:TYR:531:OH:9766, V-A:ASP:366:CB:3211, V-B:TYR:531:CZ:9765, V-B:ASP:366:CB:8183, V-A:PRO:540:CB:4885, V-A:PRO:540:CA:4883, V-B:ILE:369:CD1:8210, H-B:GLY:454:N:9021, V-B:GLY:454:CA:9020, H-B:ARG:545:NH1:9898, H-B:ARG:545:NH2:9899, H-B:ARG:545:NE:9895, V-A:TYR:539:CE2:4876, V-A:TYR:539:CZ:4877, V-B:ASP:366:CA:8181, V-B:ASP:366:C:8179, V-B:ARG:545:CZ:9897, V-A:TYR:531:CE2:4793, V-A:LEU:363:CD1:3188, V-A:TYR:531:CZ:4794, V-A:LEU:363:CA:3184, V-A:MET:535:CE:4835, H-A:TYR:539:OH:4878, H-B:TYR:484:OH:9319, V-B:ASN:370:CB:8216, V-B:TYR:531:CE1:9763, V-B:ARG:545:CG:9893, H-A:TYR:539:N:4870, V-B:ARG:545:CD:9894, H-B:ASN:370:N:8215"]

$$$$
3ce_Grossjean_2025
     RDKit          3D

 45 47  0  0  0  0  0  0  0  0999 V2000
  123.5340  129.5990   67.3370 C   0  0  0  0  0  0  0  0  0  0  0  0
  124.4630  129.6700   66.1400 C   0  0  0  0  0  0  0  0  0  0  0  0
  125.8300  129.4040   66.2570 C   0  0  0  0  0  0  0  0  0  0  0  0
  126.6210  129.4790   65.1120 C   0  0  0  0  0  0  0  0  0  0  0  0
  126.0360  129.8160   63.8890 C   0  0  0  0  0  0  0  0  0  0  0  0
  124.6620  130.0810   63.8430 C   0  0  0  0  0  0  0  0  0  0  0  0
  124.1250  130.3950   62.5830 N   0  0  0  0  0  0  0  0  0  0  0  0
  123.9790  131.6140   62.0180 C   0  0  0  0  0  0  0  0  0  0  0  0
  124.3130  132.6790   62.5380 O   0  0  0  0  0  0  0  0  0  0  0  0
  123.3550  131.6260   60.6230 C   0  0  0  0  0  0  0  0  0  0  0  0
  124.3780  130.7360   59.4130 S   0  0  0  0  0  0  0  0  0  0  0  0
  125.9330  131.5960   59.3690 C   0  0  0  0  0  0  0  0  0  0  0  0
  126.1540  132.3900   60.4450 N   0  0  0  0  0  0  0  0  0  0  0  0
  127.3180  133.0760   60.5140 C   0  0  0  0  0  0  0  0  0  0  0  0
  127.5070  133.9330   61.7510 C   0  0  0  0  0  0  0  0  0  0  0  0
  128.2890  133.0080   59.5180 C   0  0  0  0  0  0  0  0  0  0  0  0
  128.0670  132.2140   58.3850 C   0  0  0  0  0  0  0  0  0  0  0  0
  129.1260  132.1940   57.3320 C   0  0  0  0  0  0  0  0  0  0  0  0
  130.2530  131.3770   57.4840 C   0  0  0  0  0  0  0  0  0  0  0  0
  131.2470  131.3570   56.5090 C   0  0  0  0  0  0  0  0  0  0  0  0
  131.1220  132.1610   55.3800 C   0  0  0  0  0  0  0  0  0  0  0  0
  130.0120  132.9870   55.2190 C   0  0  0  0  0  0  0  0  0  0  0  0
  129.0190  133.0040   56.1940 C   0  0  0  0  0  0  0  0  0  0  0  0
  126.8570  131.4800   58.3030 C   0  0  0  0  0  0  0  0  0  0  0  0
  126.5760  130.6200   57.1490 C   0  0  0  0  0  0  0  0  0  0  0  0
  126.3550  129.9420   56.2380 N   0  0  0  0  0  0  0  0  0  0  0  0
  123.8800  130.0010   64.9590 N   0  0  0  0  0  0  0  0  0  0  0  0
  124.1255  129.6442   68.2634 H   0  0  0  0  0  0  0  0  0  0  0  0
  122.8330  130.4462   67.3078 H   0  0  0  0  0  0  0  0  0  0  0  0
  122.9699  128.6551   67.3078 H   0  0  0  0  0  0  0  0  0  0  0  0
  126.2712  129.1416   67.2299 H   0  0  0  0  0  0  0  0  0  0  0  0
  127.7001  129.2739   65.1710 H   0  0  0  0  0  0  0  0  0  0  0  0
  126.6460  129.8723   62.9754 H   0  0  0  0  0  0  0  0  0  0  0  0
  123.9050  129.5980   62.0040 H   0  0  0  0  0  0  0  0  0  0  0  0
  122.3657  131.1475   60.6722 H   0  0  0  0  0  0  0  0  0  0  0  0
  123.2743  132.6730   60.2955 H   0  0  0  0  0  0  0  0  0  0  0  0
  127.3705  133.3142   62.6501 H   0  0  0  0  0  0  0  0  0  0  0  0
  128.5208  134.3598   61.7500 H   0  0  0  0  0  0  0  0  0  0  0  0
  126.7667  134.7466   61.7500 H   0  0  0  0  0  0  0  0  0  0  0  0
  129.2260  133.5751   59.6203 H   0  0  0  0  0  0  0  0  0  0  0  0
  130.3538  130.7466   58.3798 H   0  0  0  0  0  0  0  0  0  0  0  0
  132.1272  130.7085   56.6307 H   0  0  0  0  0  0  0  0  0  0  0  0
  131.9060  132.1441   54.6086 H   0  0  0  0  0  0  0  0  0  0  0  0
  129.9208  133.6226   54.3258 H   0  0  0  0  0  0  0  0  0  0  0  0
  128.1435  133.6584   56.0701 H   0  0  0  0  0  0  0  0  0  0  0  0
  1  2  1  0
  2  3  2  0
  3  4  1  0
  4  5  2  0
  5  6  1  0
  6  7  1  0
  7  8  1  0
  8  9  2  0
  8 10  1  0
 10 11  1  0
 11 12  1  0
 12 13  2  0
 13 14  1  0
 14 15  1  0
 14 16  2  0
 16 17  1  0
 17 18  1  0
 18 19  2  0
 19 20  1  0
 20 21  2  0
 21 22  1  0
 22 23  2  0
 17 24  2  0
 24 25  1  0
 25 26  3  0
  6 27  2  0
 27  2  1  0
 24 12  1  0
 23 18  1  0
  1 28  1  0
  1 29  1  0
  1 30  1  0
  3 31  1  0
  4 32  1  0
  5 33  1  0
  7 34  1  0
 10 35  1  0
 10 36  1  0
 15 37  1  0
 15 38  1  0
 15 39  1  0
 16 40  1  0
 19 41  1  0
 20 42  1  0
 21 43  1  0
 22 44  1  0
 23 45  1  0
M  END
>  <Binding energies>  (1) 
[-9.15]

>  <Ligand effiencies>  (1) 
[-0.3267857142857143]

>  <Interactions>  (1) 
["V-B:ASP:366:CG:8184, H-B:ASP:366:OD2:8186, H-B:TYR:531:OH:9766, V-B:ASP:366:CB:8183, V-A:TYR:539:CD2:4874, V-A:ALA:541:CB:4892, V-A:TYR:539:C:4867, V-B:ILE:369:CD1:8210, H-B:GLY:454:N:9021, H-B:ARG:545:NH1:9898, H-B:ARG:545:NH2:9899, H-B:ARG:545:NE:9895, V-B:ILE:369:CG2:8208, V-A:TYR:539:CE2:4876, V-A:TYR:539:CZ:4877, V-B:ASP:366:CA:8181, V-B:ARG:545:CZ:9897, V-A:MET:535:CE:4835, V-B:ARG:545:CG:9893, V-B:ILE:369:CB:8207, V-A:TYR:539:CG:4872, V-A:ILE:538:CA:4860, V-A:TYR:539:CD1:4873, V-A:ILE:538:CB:4862, V-A:TYR:539:CE1:4875, V-A:ILE:538:C:4858, V-A:ILE:538:CG2:4863, V-B:ARG:545:CD:9894, H-B:ASP:366:OD1:8185, V-B:ILE:455:C:9023, V-B:ARG:545:CB:9892"]

$$$$
3ch_Grossjean_2025
     RDKit          3D

 55 57  0  0  0  0  0  0  0  0999 V2000
  127.5580  132.6600   59.6860 C   0  0  0  0  0  0  0  0  0  0  0  0
  128.0870  132.6110   58.3650 O   0  0  0  0  0  0  0  0  0  0  0  0
  129.2870  131.9630   58.1340 C   0  0  0  0  0  0  0  0  0  0  0  0
  129.6990  130.8070   58.8160 C   0  0  0  0  0  0  0  0  0  0  0  0
  130.9270  130.1970   58.5220 C   0  0  0  0  0  0  0  0  0  0  0  0
  131.4220  129.0360   59.1460 N   0  0  0  0  0  0  0  0  0  0  0  0
  130.7870  127.8830   59.4490 C   0  0  0  0  0  0  0  0  0  0  0  0
  129.6070  127.6320   59.2070 O   0  0  0  0  0  0  0  0  0  0  0  0
  131.6510  126.8100   60.1110 C   0  0  0  0  0  0  0  0  0  0  0  0
  131.9860  125.4140   58.9970 S   0  0  0  0  0  0  0  0  0  0  0  0
  130.6050  124.3040   59.1670 C   0  0  0  0  0  0  0  0  0  0  0  0
  130.7140  123.4470   60.2120 N   0  0  0  0  0  0  0  0  0  0  0  0
  129.7190  122.5560   60.4240 C   0  0  0  0  0  0  0  0  0  0  0  0
  129.9080  121.6240   61.6060 C   0  0  0  0  0  0  0  0  0  0  0  0
  128.5900  122.4840   59.6110 C   0  0  0  0  0  0  0  0  0  0  0  0
  128.4550  123.3670   58.5300 C   0  0  0  0  0  0  0  0  0  0  0  0
  127.2320  123.2460   57.6800 C   0  0  0  0  0  0  0  0  0  0  0  0
  127.3040  122.6210   56.4290 C   0  0  0  0  0  0  0  0  0  0  0  0
  126.1700  122.5130   55.6280 C   0  0  0  0  0  0  0  0  0  0  0  0
  124.9580  123.0330   56.0740 C   0  0  0  0  0  0  0  0  0  0  0  0
  124.8720  123.6640   57.3120 C   0  0  0  0  0  0  0  0  0  0  0  0
  126.0080  123.7710   58.1110 C   0  0  0  0  0  0  0  0  0  0  0  0
  129.4820  124.3200   58.3070 C   0  0  0  0  0  0  0  0  0  0  0  0
  129.3490  125.3280   57.2510 C   0  0  0  0  0  0  0  0  0  0  0  0
  129.2460  126.1230   56.4160 N   0  0  0  0  0  0  0  0  0  0  0  0
  131.7530  130.7670   57.5500 C   0  0  0  0  0  0  0  0  0  0  0  0
  131.3640  131.9230   56.8570 C   0  0  0  0  0  0  0  0  0  0  0  0
  132.1320  132.5320   55.8790 O   0  0  0  0  0  0  0  0  0  0  0  0
  132.3740  131.8500   54.6530 C   0  0  0  0  0  0  0  0  0  0  0  0
  130.1300  132.5130   57.1600 C   0  0  0  0  0  0  0  0  0  0  0  0
  129.7300  133.6360   56.4750 O   0  0  0  0  0  0  0  0  0  0  0  0
  129.2210  133.3710   55.1750 C   0  0  0  0  0  0  0  0  0  0  0  0
  128.3799  132.5839   60.4131 H   0  0  0  0  0  0  0  0  0  0  0  0
  127.0256  133.6113   59.8327 H   0  0  0  0  0  0  0  0  0  0  0  0
  126.8599  131.8227   59.8327 H   0  0  0  0  0  0  0  0  0  0  0  0
  129.0499  130.3740   59.5913 H   0  0  0  0  0  0  0  0  0  0  0  0
  132.4090  129.0690   59.3580 H   0  0  0  0  0  0  0  0  0  0  0  0
  132.6082  127.2614   60.4110 H   0  0  0  0  0  0  0  0  0  0  0  0
  131.1006  126.4229   60.9812 H   0  0  0  0  0  0  0  0  0  0  0  0
  129.7931  122.1907   62.5418 H   0  0  0  0  0  0  0  0  0  0  0  0
  129.1537  120.8243   61.5666 H   0  0  0  0  0  0  0  0  0  0  0  0
  130.9142  121.1813   61.5666 H   0  0  0  0  0  0  0  0  0  0  0  0
  127.8081  121.7380   59.8161 H   0  0  0  0  0  0  0  0  0  0  0  0
  128.2627  122.2126   56.0767 H   0  0  0  0  0  0  0  0  0  0  0  0
  126.2316  122.0190   54.6471 H   0  0  0  0  0  0  0  0  0  0  0  0
  124.0612  122.9446   55.4432 H   0  0  0  0  0  0  0  0  0  0  0  0
  123.9122  124.0758   57.6573 H   0  0  0  0  0  0  0  0  0  0  0  0
  125.9428  124.2719   59.0882 H   0  0  0  0  0  0  0  0  0  0  0  0
  132.7240  130.3018   57.3245 H   0  0  0  0  0  0  0  0  0  0  0  0
  132.7350  130.8327   54.8644 H   0  0  0  0  0  0  0  0  0  0  0  0
  131.4406  131.7948   54.0737 H   0  0  0  0  0  0  0  0  0  0  0  0
  133.1334  132.3955   54.0737 H   0  0  0  0  0  0  0  0  0  0  0  0
  128.2481  132.8645   55.2584 H   0  0  0  0  0  0  0  0  0  0  0  0
  129.0957  134.3183   54.6302 H   0  0  0  0  0  0  0  0  0  0  0  0
  129.9252  132.7250   54.6302 H   0  0  0  0  0  0  0  0  0  0  0  0
  1  2  1  0
  2  3  1  0
  3  4  2  0
  4  5  1  0
  5  6  1  0
  6  7  1  0
  7  8  2  0
  7  9  1  0
  9 10  1  0
 10 11  1  0
 11 12  2  0
 12 13  1  0
 13 14  1  0
 13 15  2  0
 15 16  1  0
 16 17  1  0
 17 18  2  0
 18 19  1  0
 19 20  2  0
 20 21  1  0
 21 22  2  0
 16 23  2  0
 23 24  1  0
 24 25  3  0
  5 26  2  0
 26 27  1  0
 27 28  1  0
 28 29  1  0
 27 30  2  0
 30 31  1  0
 31 32  1  0
 30  3  1  0
 23 11  1  0
 22 17  1  0
  1 33  1  0
  1 34  1  0
  1 35  1  0
  4 36  1  0
  6 37  1  0
  9 38  1  0
  9 39  1  0
 14 40  1  0
 14 41  1  0
 14 42  1  0
 15 43  1  0
 18 44  1  0
 19 45  1  0
 20 46  1  0
 21 47  1  0
 22 48  1  0
 26 49  1  0
 29 50  1  0
 29 51  1  0
 29 52  1  0
 32 53  1  0
 32 54  1  0
 32 55  1  0
M  END
>  <Binding energies>  (1) 
[-8.14]

>  <Ligand effiencies>  (1) 
[-0.24666666666666667]

>  <Interactions>  (1) 
["V-B:TYR:539:CD2:9845, V-B:MET:535:CE:9806, V-B:TYR:539:CE2:9847, V-A:ASP:366:CG:3212, V-B:PRO:540:CB:9856, V-A:ASP:366:CB:3211, V-B:PRO:540:CA:9854, V-B:LEU:363:CD1:8160, V-B:TYR:539:CZ:9848, V-A:TYR:539:CD2:4874, V-A:TYR:539:C:4867, H-B:TYR:539:OH:9849, V-A:TYR:539:CE2:4876, V-A:TYR:539:CZ:4877, V-B:TYR:539:CD1:9844, V-B:TYR:539:CG:9843, V-B:TYR:539:CE1:9846, V-B:ALA:541:CB:9863, H-A:TYR:531:OH:4795, V-A:TYR:531:CE2:4793, V-A:LEU:363:CD1:3188, V-A:TYR:531:CZ:4794, V-A:MET:535:CE:4835, H-A:TYR:539:N:4870, V-A:TYR:539:CG:4872, V-A:ILE:538:CA:4860, V-A:TYR:539:CD1:4873, V-A:ILE:538:CB:4862, V-A:TYR:539:CE1:4875, V-A:ILE:538:C:4858, V-A:ILE:538:CG2:4863, H-A:ASP:366:OD2:3214, V-A:MET:535:CG:4833, V-A:TYR:531:CD2:4791"]

$$$$
3ci_Grossjean_2025
     RDKit          3D

 39 41  0  0  0  0  0  0  0  0999 V2000
  129.7130  121.4800   61.4990 C   0  0  0  0  0  0  0  0  0  0  0  0
  129.5280  122.4250   60.3260 C   0  0  0  0  0  0  0  0  0  0  0  0
  128.4380  122.3190   59.4670 C   0  0  0  0  0  0  0  0  0  0  0  0
  128.3020  123.2260   58.4070 C   0  0  0  0  0  0  0  0  0  0  0  0
  127.1090  123.0830   57.5190 C   0  0  0  0  0  0  0  0  0  0  0  0
  127.1570  122.2700   56.3790 C   0  0  0  0  0  0  0  0  0  0  0  0
  126.0440  122.1470   55.5510 C   0  0  0  0  0  0  0  0  0  0  0  0
  124.8790  122.8440   55.8550 C   0  0  0  0  0  0  0  0  0  0  0  0
  124.8170  123.6630   56.9790 C   0  0  0  0  0  0  0  0  0  0  0  0
  125.9310  123.7830   57.8060 C   0  0  0  0  0  0  0  0  0  0  0  0
  129.2960  124.2230   58.2400 C   0  0  0  0  0  0  0  0  0  0  0  0
  129.2290  125.1730   57.1240 C   0  0  0  0  0  0  0  0  0  0  0  0
  129.1740  125.9220   56.2430 N   0  0  0  0  0  0  0  0  0  0  0  0
  130.3690  124.2630   59.1640 C   0  0  0  0  0  0  0  0  0  0  0  0
  131.6660  125.4910   59.0620 S   0  0  0  0  0  0  0  0  0  0  0  0
  133.2560  124.7370   59.5370 C   0  0  0  0  0  0  0  0  0  0  0  0
  133.3340  124.3680   61.0220 C   0  0  0  0  0  0  0  0  0  0  0  0
  133.5320  123.1940   61.3420 O   0  0  0  0  0  0  0  0  0  0  0  0
  133.1590  125.3890   61.8910 N   0  0  0  0  0  0  0  0  0  0  0  0
  133.2090  125.3320   63.2770 C   0  0  0  0  0  0  0  0  0  0  0  0
  132.0870  125.5040   64.0860 C   0  0  0  0  0  0  0  0  0  0  0  0
  132.5530  125.3800   65.3750 C   0  0  0  0  0  0  0  0  0  0  0  0
  133.8860  125.1440   65.3420 O   0  0  0  0  0  0  0  0  0  0  0  0
  134.2910  125.1180   64.0070 N   0  0  0  0  0  0  0  0  0  0  0  0
  130.4800  123.3730   60.1820 N   0  0  0  0  0  0  0  0  0  0  0  0
  129.6037  122.0383   62.4404 H   0  0  0  0  0  0  0  0  0  0  0  0
  128.9533  120.6858   61.4534 H   0  0  0  0  0  0  0  0  0  0  0  0
  130.7161  121.0309   61.4534 H   0  0  0  0  0  0  0  0  0  0  0  0
  127.6882  121.5286   59.6190 H   0  0  0  0  0  0  0  0  0  0  0  0
  128.0809  121.7246   56.1361 H   0  0  0  0  0  0  0  0  0  0  0  0
  126.0858  121.5019   54.6610 H   0  0  0  0  0  0  0  0  0  0  0  0
  123.9994  122.7471   55.2017 H   0  0  0  0  0  0  0  0  0  0  0  0
  123.8931  124.2124   57.2126 H   0  0  0  0  0  0  0  0  0  0  0  0
  125.8850  124.4332   58.6921 H   0  0  0  0  0  0  0  0  0  0  0  0
  133.4000  123.8228   58.9424 H   0  0  0  0  0  0  0  0  0  0  0  0
  134.0401  125.4845   59.3462 H   0  0  0  0  0  0  0  0  0  0  0  0
  132.9970  126.3050   61.5000 H   0  0  0  0  0  0  0  0  0  0  0  0
  131.0531  125.6970   63.7639 H   0  0  0  0  0  0  0  0  0  0  0  0
  131.9411  125.4598   66.2856 H   0  0  0  0  0  0  0  0  0  0  0  0
  1  2  1  0
  2  3  2  0
  3  4  1  0
  4  5  1  0
  5  6  2  0
  6  7  1  0
  7  8  2  0
  8  9  1  0
  9 10  2  0
  4 11  2  0
 11 12  1  0
 12 13  3  0
 11 14  1  0
 14 15  1  0
 15 16  1  0
 16 17  1  0
 17 18  2  0
 17 19  1  0
 19 20  1  0
 20 21  1  0
 21 22  2  0
 22 23  1  0
 23 24  1  0
 14 25  2  0
 25  2  1  0
 10  5  1  0
 24 20  2  0
  1 26  1  0
  1 27  1  0
  1 28  1  0
  3 29  1  0
  6 30  1  0
  7 31  1  0
  8 32  1  0
  9 33  1  0
 10 34  1  0
 16 35  1  0
 16 36  1  0
 19 37  1  0
 21 38  1  0
 22 39  1  0
M  END
>  <Binding energies>  (1) 
[-8.31]

>  <Ligand effiencies>  (1) 
[-0.31961538461538463]

>  <Interactions>  (1) 
["V-B:TYR:539:CD2:9845, V-B:MET:535:CE:9806, V-B:TYR:539:CE2:9847, V-B:TYR:539:C:9838, V-B:PRO:540:CD:9858, V-A:ASP:366:CG:3212, V-B:PRO:540:N:9855, V-A:ILE:369:CG2:3236, V-B:PRO:540:CB:9856, V-A:ASP:366:CB:3211, V-B:PRO:540:CA:9854, V-B:LEU:363:CD1:8160, V-B:TYR:539:CZ:9848, V-A:ASP:366:CA:3209, H-B:TYR:539:OH:9849, H-A:TYR:484:OH:4347, H-A:ARG:545:NH2:4928, V-A:ILE:369:CD1:3238, H-A:ARG:545:NE:4924, V-A:ARG:545:CZ:4926, V-B:TYR:539:CA:9840, V-B:TYR:539:CD1:9844, V-B:TYR:539:CG:9843, V-B:TYR:539:CE1:9846, V-B:ALA:541:CB:9863, H-A:TYR:531:OH:4795, V-A:ILE:369:CB:3235, H-A:ARG:545:NH1:4927, H-A:GLY:454:N:4049, H-A:ASP:366:OD2:3214, H-A:ASP:366:OD1:3213, V-B:ILE:538:CA:9831, V-B:ILE:538:C:9829, V-B:ILE:538:CD1:9836"]

$$$$
3cj_Grossjean_2025
     RDKit          3D

 39 41  0  0  0  0  0  0  0  0999 V2000
  127.6480  133.9150   61.6940 C   0  0  0  0  0  0  0  0  0  0  0  0
  127.4310  133.0750   60.4510 C   0  0  0  0  0  0  0  0  0  0  0  0
  128.3930  132.9980   59.4460 C   0  0  0  0  0  0  0  0  0  0  0  0
  128.1600  132.1910   58.3240 C   0  0  0  0  0  0  0  0  0  0  0  0
  129.2440  132.0890   57.3040 C   0  0  0  0  0  0  0  0  0  0  0  0
  130.1720  131.0420   57.3560 C   0  0  0  0  0  0  0  0  0  0  0  0
  131.1920  130.9550   56.4110 C   0  0  0  0  0  0  0  0  0  0  0  0
  131.2900  131.9200   55.4130 C   0  0  0  0  0  0  0  0  0  0  0  0
  130.3800  132.9720   55.3540 C   0  0  0  0  0  0  0  0  0  0  0  0
  129.3610  133.0570   56.2990 C   0  0  0  0  0  0  0  0  0  0  0  0
  126.9260  131.5000   58.2350 C   0  0  0  0  0  0  0  0  0  0  0  0
  126.6110  130.6630   57.0730 C   0  0  0  0  0  0  0  0  0  0  0  0
  126.3640  130.0010   56.1560 N   0  0  0  0  0  0  0  0  0  0  0  0
  126.0100  131.6320   59.3030 C   0  0  0  0  0  0  0  0  0  0  0  0
  124.4860  130.7150   59.3820 S   0  0  0  0  0  0  0  0  0  0  0  0
  123.4210  131.6740   60.5050 C   0  0  0  0  0  0  0  0  0  0  0  0
  123.9510  131.6630   61.9420 C   0  0  0  0  0  0  0  0  0  0  0  0
  124.0760  132.7270   62.5520 O   0  0  0  0  0  0  0  0  0  0  0  0
  124.2120  130.4400   62.4530 N   0  0  0  0  0  0  0  0  0  0  0  0
  124.5680  130.1480   63.7590 C   0  0  0  0  0  0  0  0  0  0  0  0
  123.7760  129.9970   64.7980 N   0  0  0  0  0  0  0  0  0  0  0  0
  124.4580  129.6920   65.8850 C   0  0  0  0  0  0  0  0  0  0  0  0
  125.8380  129.5910   65.7390 C   0  0  0  0  0  0  0  0  0  0  0  0
  126.2570  129.9160   64.0830 S   0  0  0  0  0  0  0  0  0  0  0  0
  126.2630  132.3970   60.3950 N   0  0  0  0  0  0  0  0  0  0  0  0
  127.4878  133.2948   62.5882 H   0  0  0  0  0  0  0  0  0  0  0  0
  128.6764  134.3052   61.6979 H   0  0  0  0  0  0  0  0  0  0  0  0
  126.9372  134.7545   61.6979 H   0  0  0  0  0  0  0  0  0  0  0  0
  129.3301  133.5674   59.5327 H   0  0  0  0  0  0  0  0  0  0  0  0
  130.0953  130.2829   58.1484 H   0  0  0  0  0  0  0  0  0  0  0  0
  131.9160  130.1280   56.4535 H   0  0  0  0  0  0  0  0  0  0  0  0
  132.0932  131.8510   54.6646 H   0  0  0  0  0  0  0  0  0  0  0  0
  130.4657  133.7328   54.5642 H   0  0  0  0  0  0  0  0  0  0  0  0
  128.6435  133.8897   56.2558 H   0  0  0  0  0  0  0  0  0  0  0  0
  123.3758  132.7143   60.1505 H   0  0  0  0  0  0  0  0  0  0  0  0
  122.4227  131.2120   60.5060 H   0  0  0  0  0  0  0  0  0  0  0  0
  124.0520  129.6430   61.8530 H   0  0  0  0  0  0  0  0  0  0  0  0
  123.9631  129.5266   66.8534 H   0  0  0  0  0  0  0  0  0  0  0  0
  126.5491  129.3453   66.5415 H   0  0  0  0  0  0  0  0  0  0  0  0
  1  2  1  0
  2  3  2  0
  3  4  1  0
  4  5  1  0
  5  6  2  0
  6  7  1  0
  7  8  2  0
  8  9  1  0
  9 10  2  0
  4 11  2  0
 11 12  1  0
 12 13  3  0
 11 14  1  0
 14 15  1  0
 15 16  1  0
 16 17  1  0
 17 18  2  0
 17 19  1  0
 19 20  1  0
 20 21  2  0
 21 22  1  0
 22 23  2  0
 23 24  1  0
 14 25  2  0
 25  2  1  0
 10  5  1  0
 24 20  1  0
  1 26  1  0
  1 27  1  0
  1 28  1  0
  3 29  1  0
  6 30  1  0
  7 31  1  0
  8 32  1  0
  9 33  1  0
 10 34  1  0
 16 35  1  0
 16 36  1  0
 19 37  1  0
 22 38  1  0
 23 39  1  0
M  END
>  <Binding energies>  (1) 
[-8.05]

>  <Ligand effiencies>  (1) 
[-0.3096153846153846]

>  <Interactions>  (1) 
["V-B:ASP:366:CG:8184, H-B:ASP:366:OD2:8186, H-B:TYR:531:OH:9766, V-B:ASP:366:CB:8183, V-A:TYR:539:CD2:4874, V-A:ALA:541:CB:4892, V-A:TYR:539:C:4867, V-B:ILE:369:CD1:8210, H-B:GLY:454:N:9021, H-B:ARG:545:NH1:9898, H-B:ARG:545:NH2:9899, H-B:ARG:545:NE:9895, V-B:ILE:369:CG2:8208, V-A:TYR:539:CE2:4876, V-A:TYR:539:CZ:4877, V-B:ASP:366:CA:8181, V-B:ARG:545:CZ:9897, V-A:TYR:531:CE2:4793, V-A:TYR:531:CZ:4794, V-A:MET:535:CE:4835, V-B:ILE:369:CB:8207, V-A:TYR:539:CG:4872, V-A:ILE:538:CA:4860, V-A:TYR:539:CD1:4873, V-A:ILE:538:CB:4862, V-A:TYR:539:CE1:4875, V-A:ILE:538:C:4858, V-A:ILE:538:CG2:4863, V-B:ARG:545:CD:9894, H-B:ASP:366:OD1:8185"]

$$$$
3ck_Grossjean_2025
     RDKit          3D

 57 58  0  0  0  0  0  0  0  0999 V2000
  129.7190  132.6120   56.1460 C   0  0  0  0  0  0  0  0  0  0  0  0
  130.6850  133.3930   56.8310 O   0  0  0  0  0  0  0  0  0  0  0  0
  131.9890  132.8280   56.8090 C   0  0  0  0  0  0  0  0  0  0  0  0
  131.8860  131.2980   56.8390 C   0  0  0  0  0  0  0  0  0  0  0  0
  131.7870  130.8590   58.1880 O   0  0  0  0  0  0  0  0  0  0  0  0
  132.0200  131.8840   59.1460 C   0  0  0  0  0  0  0  0  0  0  0  0
  130.7090  132.1910   59.8790 C   0  0  0  0  0  0  0  0  0  0  0  0
  130.9730  132.2210   61.2740 O   0  0  0  0  0  0  0  0  0  0  0  0
  131.5700  131.0420   61.7930 C   0  0  0  0  0  0  0  0  0  0  0  0
  130.7050  129.8220   61.4240 C   0  0  0  0  0  0  0  0  0  0  0  0
  131.2340  129.0420   60.3010 N   0  0  0  0  0  0  0  0  0  0  0  0
  130.7770  127.8440   59.8930 C   0  0  0  0  0  0  0  0  0  0  0  0
  129.8210  127.2710   60.4200 O   0  0  0  0  0  0  0  0  0  0  0  0
  131.5250  127.2190   58.7050 C   0  0  0  0  0  0  0  0  0  0  0  0
  132.1380  125.5200   58.9710 S   0  0  0  0  0  0  0  0  0  0  0  0
  130.7480  124.4360   59.2650 C   0  0  0  0  0  0  0  0  0  0  0  0
  130.8160  123.6900   60.3960 N   0  0  0  0  0  0  0  0  0  0  0  0
  129.8010  122.8440   60.6790 C   0  0  0  0  0  0  0  0  0  0  0  0
  129.9490  122.0410   61.9570 C   0  0  0  0  0  0  0  0  0  0  0  0
  128.6860  122.7070   59.8550 C   0  0  0  0  0  0  0  0  0  0  0  0
  128.5970  123.4630   58.6790 C   0  0  0  0  0  0  0  0  0  0  0  0
  127.3950  123.2660   57.8150 C   0  0  0  0  0  0  0  0  0  0  0  0
  127.5010  122.5520   56.6150 C   0  0  0  0  0  0  0  0  0  0  0  0
  126.3860  122.3740   55.7990 C   0  0  0  0  0  0  0  0  0  0  0  0
  125.1610  122.9140   56.1790 C   0  0  0  0  0  0  0  0  0  0  0  0
  125.0410  123.6350   57.3650 C   0  0  0  0  0  0  0  0  0  0  0  0
  126.1570  123.8110   58.1780 C   0  0  0  0  0  0  0  0  0  0  0  0
  129.6500  124.3640   58.3760 C   0  0  0  0  0  0  0  0  0  0  0  0
  129.5910  125.2120   57.1800 C   0  0  0  0  0  0  0  0  0  0  0  0
  129.5440  125.8800   56.2360 N   0  0  0  0  0  0  0  0  0  0  0  0
  129.0799  132.0953   56.8771 H   0  0  0  0  0  0  0  0  0  0  0  0
  129.0994  133.2660   55.5149 H   0  0  0  0  0  0  0  0  0  0  0  0
  130.2287  131.8691   55.5149 H   0  0  0  0  0  0  0  0  0  0  0  0
  132.5089  133.1422   55.8920 H   0  0  0  0  0  0  0  0  0  0  0  0
  132.5525  133.1740   57.6880 H   0  0  0  0  0  0  0  0  0  0  0  0
  130.9924  130.9791   56.2825 H   0  0  0  0  0  0  0  0  0  0  0  0
  132.7814  130.8597   56.3741 H   0  0  0  0  0  0  0  0  0  0  0  0
  132.7768  131.5470   59.8697 H   0  0  0  0  0  0  0  0  0  0  0  0
  132.3829  132.7903   58.6391 H   0  0  0  0  0  0  0  0  0  0  0  0
  130.3207  133.1672   59.5531 H   0  0  0  0  0  0  0  0  0  0  0  0
  129.9590  131.4189   59.6523 H   0  0  0  0  0  0  0  0  0  0  0  0
  132.5758  130.9213   61.3643 H   0  0  0  0  0  0  0  0  0  0  0  0
  131.6445  131.1205   62.8877 H   0  0  0  0  0  0  0  0  0  0  0  0
  130.6394  129.1642   62.3032 H   0  0  0  0  0  0  0  0  0  0  0  0
  129.7225  130.2069   61.1133 H   0  0  0  0  0  0  0  0  0  0  0  0
  132.0110  129.4510   59.8040 H   0  0  0  0  0  0  0  0  0  0  0  0
  130.8404  127.2018   57.8442 H   0  0  0  0  0  0  0  0  0  0  0  0
  132.4179  127.8419   58.5477 H   0  0  0  0  0  0  0  0  0  0  0  0
  129.8264  122.7063   62.8244 H   0  0  0  0  0  0  0  0  0  0  0  0
  129.1807  121.2543   61.9868 H   0  0  0  0  0  0  0  0  0  0  0  0
  130.9473  121.5799   61.9868 H   0  0  0  0  0  0  0  0  0  0  0  0
  127.8801  122.0092   60.1263 H   0  0  0  0  0  0  0  0  0  0  0  0
  128.4710  122.1289   56.3147 H   0  0  0  0  0  0  0  0  0  0  0  0
  126.4735  121.8094   54.8590 H   0  0  0  0  0  0  0  0  0  0  0  0
  124.2794  122.7702   55.5370 H   0  0  0  0  0  0  0  0  0  0  0  0
  124.0705  124.0625   57.6571 H   0  0  0  0  0  0  0  0  0  0  0  0
  126.0659  124.3828   59.1133 H   0  0  0  0  0  0  0  0  0  0  0  0
  1  2  1  0
  2  3  1  0
  3  4  1  0
  4  5  1  0
  5  6  1  0
  6  7  1  0
  7  8  1  0
  8  9  1  0
  9 10  1  0
 10 11  1  0
 11 12  1  0
 12 13  2  0
 12 14  1  0
 14 15  1  0
 15 16  1  0
 16 17  2  0
 17 18  1  0
 18 19  1  0
 18 20  2  0
 20 21  1  0
 21 22  1  0
 22 23  2  0
 23 24  1  0
 24 25  2  0
 25 26  1  0
 26 27  2  0
 21 28  2  0
 28 29  1  0
 29 30  3  0
 28 16  1  0
 27 22  1  0
  1 31  1  0
  1 32  1  0
  1 33  1  0
  3 34  1  0
  3 35  1  0
  4 36  1  0
  4 37  1  0
  6 38  1  0
  6 39  1  0
  7 40  1  0
  7 41  1  0
  9 42  1  0
  9 43  1  0
 10 44  1  0
 10 45  1  0
 11 46  1  0
 14 47  1  0
 14 48  1  0
 19 49  1  0
 19 50  1  0
 19 51  1  0
 20 52  1  0
 23 53  1  0
 24 54  1  0
 25 55  1  0
 26 56  1  0
 27 57  1  0
M  END
>  <Binding energies>  (1) 
[-6.94]

>  <Ligand effiencies>  (1) 
[-0.2238709677419355]

>  <Interactions>  (1) 
["V-B:TYR:539:CD2:9845, V-B:MET:535:CE:9806, V-B:TYR:539:CE2:9847, V-B:TYR:539:C:9838, V-B:PRO:540:CD:9858, V-A:ASP:366:CG:3212, V-B:PRO:540:N:9855, V-B:PRO:540:CB:9856, V-A:ASP:366:CB:3211, V-B:PRO:540:CA:9854, V-B:LEU:363:CD1:8160, V-B:TYR:539:CZ:9848, V-A:PRO:540:N:4884, V-A:PRO:540:CB:4885, H-A:ALA:541:N:4891, V-A:PRO:540:CA:4883, H-B:TYR:539:OH:9849, V-B:TYR:539:CD1:9844, V-B:TYR:539:CG:9843, V-B:TYR:539:CE1:9846, V-B:ALA:541:CB:9863, H-A:TYR:531:OH:4795, V-A:TYR:531:CE2:4793, V-A:LEU:363:CD1:3188, V-A:MET:535:CE:4835, H-A:TYR:539:N:4870, V-A:ILE:538:CB:4862, V-A:PRO:540:CD:4887, H-A:ASP:366:OD2:3214"]

$$$$
4aa_Grossjean_2025
     RDKit          3D

 45 47  0  0  0  0  0  0  0  0999 V2000
  124.1780  123.9450   57.8510 C   0  0  0  0  0  0  0  0  0  0  0  0
  124.8120  124.3060   56.5040 C   0  0  0  0  0  0  0  0  0  0  0  0
  125.0930  123.1160   55.7800 O   0  0  0  0  0  0  0  0  0  0  0  0
  126.3450  122.5890   55.7550 C   0  0  0  0  0  0  0  0  0  0  0  0
  126.7620  121.8690   54.8410 O   0  0  0  0  0  0  0  0  0  0  0  0
  127.1700  122.9640   56.9510 C   0  0  0  0  0  0  0  0  0  0  0  0
  127.1260  122.1550   58.0940 C   0  0  0  0  0  0  0  0  0  0  0  0
  127.8760  122.4800   59.2210 C   0  0  0  0  0  0  0  0  0  0  0  0
  128.6920  123.6120   59.2260 C   0  0  0  0  0  0  0  0  0  0  0  0
  129.4000  123.8500   60.4200 N   0  0  0  0  0  0  0  0  0  0  0  0
  129.8340  122.9830   61.3660 C   0  0  0  0  0  0  0  0  0  0  0  0
  129.6220  121.7700   61.3430 O   0  0  0  0  0  0  0  0  0  0  0  0
  130.5760  123.5870   62.4740 C   0  0  0  0  0  0  0  0  0  0  0  0
  132.3020  123.2670   62.6690 S   0  0  0  0  0  0  0  0  0  0  0  0
  132.3660  124.2420   64.1200 C   0  0  0  0  0  0  0  0  0  0  0  0
  133.4970  124.4150   64.8040 N   0  0  0  0  0  0  0  0  0  0  0  0
  133.4090  125.1910   65.9120 C   0  0  0  0  0  0  0  0  0  0  0  0
  134.7070  125.3700   66.6800 C   0  0  0  0  0  0  0  0  0  0  0  0
  132.2300  125.7940   66.3450 C   0  0  0  0  0  0  0  0  0  0  0  0
  131.0460  125.6120   65.6230 C   0  0  0  0  0  0  0  0  0  0  0  0
  129.7840  126.2920   66.1340 C   0  0  0  0  0  0  0  0  0  0  0  0
  131.0970  124.8020   64.4570 C   0  0  0  0  0  0  0  0  0  0  0  0
  130.0930  124.4080   63.5050 C   0  0  0  0  0  0  0  0  0  0  0  0
  128.7860  124.8130   63.6100 N   0  0  0  0  0  0  0  0  0  0  0  0
  128.7390  124.4310   58.0890 C   0  0  0  0  0  0  0  0  0  0  0  0
  127.9850  124.1070   56.9630 C   0  0  0  0  0  0  0  0  0  0  0  0
  124.8187  124.3098   58.6673 H   0  0  0  0  0  0  0  0  0  0  0  0
  123.1856  124.4135   57.9265 H   0  0  0  0  0  0  0  0  0  0  0  0
  124.0744  122.8525   57.9265 H   0  0  0  0  0  0  0  0  0  0  0  0
  124.1152  124.9311   55.9263 H   0  0  0  0  0  0  0  0  0  0  0  0
  125.7462  124.8611   56.6749 H   0  0  0  0  0  0  0  0  0  0  0  0
  126.4933  121.2552   58.1010 H   0  0  0  0  0  0  0  0  0  0  0  0
  127.8250  121.8398   60.1140 H   0  0  0  0  0  0  0  0  0  0  0  0
  129.5980  124.8250   60.5940 H   0  0  0  0  0  0  0  0  0  0  0  0
  134.5009  125.3416   67.7601 H   0  0  0  0  0  0  0  0  0  0  0  0
  135.4028  124.5593   66.4181 H   0  0  0  0  0  0  0  0  0  0  0  0
  135.1574  126.3388   66.4181 H   0  0  0  0  0  0  0  0  0  0  0  0
  132.2303  126.4130   67.2543 H   0  0  0  0  0  0  0  0  0  0  0  0
  129.7865  126.2907   67.2340 H   0  0  0  0  0  0  0  0  0  0  0  0
  129.7527  127.3291   65.7687 H   0  0  0  0  0  0  0  0  0  0  0  0
  128.9006  125.7478   65.7687 H   0  0  0  0  0  0  0  0  0  0  0  0
  128.0680  124.2060   63.9790 H   0  0  0  0  0  0  0  0  0  0  0  0
  128.4970  125.7360   63.3190 H   0  0  0  0  0  0  0  0  0  0  0  0
  129.3720  125.3306   58.0859 H   0  0  0  0  0  0  0  0  0  0  0  0
  128.0288  124.7536   56.0742 H   0  0  0  0  0  0  0  0  0  0  0  0
  1  2  1  0
  2  3  1  0
  3  4  1  0
  4  5  2  0
  4  6  1  0
  6  7  2  0
  7  8  1  0
  8  9  2  0
  9 10  1  0
 10 11  1  0
 11 12  2  0
 11 13  1  0
 13 14  1  0
 14 15  1  0
 15 16  2  0
 16 17  1  0
 17 18  1  0
 17 19  2  0
 19 20  1  0
 20 21  1  0
 20 22  2  0
 22 23  1  0
 23 24  1  0
  9 25  1  0
 25 26  2  0
 26  6  1  0
 23 13  2  0
 22 15  1  0
  1 27  1  0
  1 28  1  0
  1 29  1  0
  2 30  1  0
  2 31  1  0
  7 32  1  0
  8 33  1  0
 10 34  1  0
 18 35  1  0
 18 36  1  0
 18 37  1  0
 19 38  1  0
 21 39  1  0
 21 40  1  0
 21 41  1  0
 24 42  1  0
 24 43  1  0
 25 44  1  0
 26 45  1  0
M  END
>  <Binding energies>  (1) 
[-7.69]

>  <Ligand effiencies>  (1) 
[-0.26517241379310347]

>  <Interactions>  (1) 
["V-B:TYR:539:CD2:9845, V-B:MET:535:CE:9806, V-B:TYR:539:CE2:9847, V-B:TYR:539:C:9838, V-B:PRO:540:CD:9858, V-B:PRO:540:N:9855, V-B:LEU:363:CA:8156, V-B:PRO:540:CB:9856, V-B:PRO:540:CA:9854, V-B:LEU:363:CD1:8160, V-B:TYR:539:CZ:9848, V-B:TYR:531:CZ:9765, V-B:TYR:531:CE2:9764, H-B:GLU:543:OE2:9881, V-A:GLU:543:CD:4908, V-B:GLU:543:CD:9879, V-A:HIS:456:CE1:4069, V-B:GLU:543:CG:9878, H-A:TYR:484:OH:4347, V-A:GLY:454:CA:4048, V-A:ARG:545:CZ:4926, V-B:TYR:539:CA:9840, V-B:TYR:539:CD1:9844, V-B:TYR:539:CG:9843, V-B:TYR:539:CE1:9846, H-B:TYR:539:N:9841, V-B:LEU:363:CB:8158, H-A:GLY:454:N:4049, V-A:ARG:545:CG:4922, V-A:ARG:545:CD:4923, V-A:GLY:453:CA:4043, V-A:GLY:453:C:4041, V-A:ILE:455:C:4051"]

$$$$
4ab_Grossjean_2025
     RDKit          3D

 42 44  0  0  0  0  0  0  0  0999 V2000
  135.3720  125.4880   66.6260 C   0  0  0  0  0  0  0  0  0  0  0  0
  134.2000  125.0160   65.9760 O   0  0  0  0  0  0  0  0  0  0  0  0
  132.9920  125.5880   66.2140 C   0  0  0  0  0  0  0  0  0  0  0  0
  132.7490  126.2780   67.2090 O   0  0  0  0  0  0  0  0  0  0  0  0
  131.9760  125.2910   65.1490 C   0  0  0  0  0  0  0  0  0  0  0  0
  132.3530  124.5200   64.0410 C   0  0  0  0  0  0  0  0  0  0  0  0
  131.4350  124.2290   63.0360 C   0  0  0  0  0  0  0  0  0  0  0  0
  130.1220  124.6930   63.1200 C   0  0  0  0  0  0  0  0  0  0  0  0
  129.2820  124.3460   62.0460 N   0  0  0  0  0  0  0  0  0  0  0  0
  128.0990  123.6850   62.0400 C   0  0  0  0  0  0  0  0  0  0  0  0
  127.5600  123.2200   63.0450 O   0  0  0  0  0  0  0  0  0  0  0  0
  127.4790  123.5250   60.7230 C   0  0  0  0  0  0  0  0  0  0  0  0
  128.2190  122.4740   59.5130 S   0  0  0  0  0  0  0  0  0  0  0  0
  126.9790  122.8660   58.3450 C   0  0  0  0  0  0  0  0  0  0  0  0
  126.9740  122.3450   57.1170 N   0  0  0  0  0  0  0  0  0  0  0  0
  125.9580  122.7330   56.3090 C   0  0  0  0  0  0  0  0  0  0  0  0
  125.9750  122.1320   54.9150 C   0  0  0  0  0  0  0  0  0  0  0  0
  124.9550  123.6180   56.6960 C   0  0  0  0  0  0  0  0  0  0  0  0
  124.9620  124.1640   57.9850 C   0  0  0  0  0  0  0  0  0  0  0  0
  123.8460  125.1270   58.3590 C   0  0  0  0  0  0  0  0  0  0  0  0
  126.0150  123.7840   58.8610 C   0  0  0  0  0  0  0  0  0  0  0  0
  126.3280  124.1470   60.2160 C   0  0  0  0  0  0  0  0  0  0  0  0
  125.5550  125.0240   60.9350 N   0  0  0  0  0  0  0  0  0  0  0  0
  129.7370  125.4710   64.2230 C   0  0  0  0  0  0  0  0  0  0  0  0
  130.6570  125.7630   65.2260 C   0  0  0  0  0  0  0  0  0  0  0  0
  135.2344  125.4326   67.7159 H   0  0  0  0  0  0  0  0  0  0  0  0
  136.2300  124.8653   66.3326 H   0  0  0  0  0  0  0  0  0  0  0  0
  135.5590  126.5315   66.3326 H   0  0  0  0  0  0  0  0  0  0  0  0
  133.3831  124.1416   63.9650 H   0  0  0  0  0  0  0  0  0  0  0  0
  131.7472  123.6285   62.1688 H   0  0  0  0  0  0  0  0  0  0  0  0
  129.6310  124.6280   61.1420 H   0  0  0  0  0  0  0  0  0  0  0  0
  126.0060  121.0349   54.9890 H   0  0  0  0  0  0  0  0  0  0  0  0
  125.0679  122.4374   54.3729 H   0  0  0  0  0  0  0  0  0  0  0  0
  126.8634  122.4882   54.3729 H   0  0  0  0  0  0  0  0  0  0  0  0
  124.1570  123.8881   55.9887 H   0  0  0  0  0  0  0  0  0  0  0  0
  123.7700  125.1926   59.4544 H   0  0  0  0  0  0  0  0  0  0  0  0
  124.0671  126.1225   57.9466 H   0  0  0  0  0  0  0  0  0  0  0  0
  122.8936  124.7625   57.9466 H   0  0  0  0  0  0  0  0  0  0  0  0
  124.8910  125.6400   60.4890 H   0  0  0  0  0  0  0  0  0  0  0  0
  125.6310  125.0870   61.9420 H   0  0  0  0  0  0  0  0  0  0  0  0
  128.7070  125.8504   64.2949 H   0  0  0  0  0  0  0  0  0  0  0  0
  130.3464  126.3707   66.0887 H   0  0  0  0  0  0  0  0  0  0  0  0
  1  2  1  0
  2  3  1  0
  3  4  2  0
  3  5  1  0
  5  6  2  0
  6  7  1  0
  7  8  2  0
  8  9  1  0
  9 10  1  0
 10 11  2  0
 10 12  1  0
 12 13  1  0
 13 14  1  0
 14 15  2  0
 15 16  1  0
 16 17  1  0
 16 18  2  0
 18 19  1  0
 19 20  1  0
 19 21  2  0
 21 22  1  0
 22 23  1  0
  8 24  1  0
 24 25  2  0
 25  5  1  0
 22 12  2  0
 21 14  1  0
  1 26  1  0
  1 27  1  0
  1 28  1  0
  6 29  1  0
  7 30  1  0
  9 31  1  0
 17 32  1  0
 17 33  1  0
 17 34  1  0
 18 35  1  0
 20 36  1  0
 20 37  1  0
 20 38  1  0
 23 39  1  0
 23 40  1  0
 24 41  1  0
 25 42  1  0
M  END
>  <Binding energies>  (1) 
[-7.7]

>  <Ligand effiencies>  (1) 
[-0.275]

>  <Interactions>  (1) 
["V-B:TYR:539:CD2:9845, V-B:MET:535:CE:9806, V-B:ASP:366:CG:8184, V-B:TYR:539:CE2:9847, V-B:TYR:539:C:9838, V-B:PRO:540:CD:9858, H-B:ASP:366:OD2:8186, V-B:PRO:540:N:9855, V-B:LEU:363:CA:8156, V-B:PRO:540:CB:9856, V-B:PRO:540:CA:9854, V-B:LEU:363:CD1:8160, V-B:TYR:531:CZ:9765, V-B:ASP:366:CB:8183, V-B:TYR:531:CE2:9764, H-B:GLU:543:OE2:9881, H-B:ALA:541:N:9862, V-B:GLU:543:CD:9879, V-A:HIS:456:CE1:4069, V-B:GLU:543:CG:9878, H-A:TYR:484:OH:4347, V-A:GLY:454:CA:4048, H-A:ARG:545:NE:4924, V-A:ARG:545:CZ:4926, V-B:TYR:539:CD1:9844, V-B:ALA:541:CB:9863, H-B:TYR:539:N:9841, H-A:GLY:454:N:4049, V-B:ILE:538:CA:9831, V-B:ILE:538:C:9829, V-B:ILE:538:CD1:9836, V-B:ILE:538:CG2:9834, V-B:ILE:538:CB:9833, V-A:ARG:545:CG:4922, V-A:ARG:545:CD:4923, V-A:GLY:453:CA:4043, V-A:GLY:453:C:4041, H-A:HIS:456:ND1:4066, V-A:VAL:452:C:4033, V-A:ILE:455:C:4051"]

$$$$
4ac_Grossjean_2025
     RDKit          3D

 40 42  0  0  0  0  0  0  0  0999 V2000
  133.8000  125.4950   66.7020 C   0  0  0  0  0  0  0  0  0  0  0  0
  134.0210  124.9360   65.4110 O   0  0  0  0  0  0  0  0  0  0  0  0
  132.9410  124.7030   64.5830 C   0  0  0  0  0  0  0  0  0  0  0  0
  133.2250  124.4920   63.2340 C   0  0  0  0  0  0  0  0  0  0  0  0
  132.2000  124.2480   62.3240 C   0  0  0  0  0  0  0  0  0  0  0  0
  130.8740  124.2040   62.7550 C   0  0  0  0  0  0  0  0  0  0  0  0
  129.9050  123.9650   61.7620 N   0  0  0  0  0  0  0  0  0  0  0  0
  128.6060  123.6070   61.9010 C   0  0  0  0  0  0  0  0  0  0  0  0
  128.0620  123.3940   62.9860 O   0  0  0  0  0  0  0  0  0  0  0  0
  127.8540  123.4730   60.6500 C   0  0  0  0  0  0  0  0  0  0  0  0
  128.4580  122.4410   59.3530 S   0  0  0  0  0  0  0  0  0  0  0  0
  127.0870  122.8310   58.3390 C   0  0  0  0  0  0  0  0  0  0  0  0
  126.9450  122.3190   57.1160 N   0  0  0  0  0  0  0  0  0  0  0  0
  125.8380  122.7030   56.4360 C   0  0  0  0  0  0  0  0  0  0  0  0
  125.6940  122.1090   55.0470 C   0  0  0  0  0  0  0  0  0  0  0  0
  124.8810  123.5800   56.9440 C   0  0  0  0  0  0  0  0  0  0  0  0
  125.0330  124.1150   58.2270 C   0  0  0  0  0  0  0  0  0  0  0  0
  123.9620  125.0670   58.7370 C   0  0  0  0  0  0  0  0  0  0  0  0
  126.1810  123.7340   58.9720 C   0  0  0  0  0  0  0  0  0  0  0  0
  126.6420  124.0820   60.2900 C   0  0  0  0  0  0  0  0  0  0  0  0
  125.9450  124.9370   61.1060 N   0  0  0  0  0  0  0  0  0  0  0  0
  130.5780  124.4280   64.1070 C   0  0  0  0  0  0  0  0  0  0  0  0
  131.6060  124.6720   65.0150 C   0  0  0  0  0  0  0  0  0  0  0  0
  134.0888  124.7646   67.4722 H   0  0  0  0  0  0  0  0  0  0  0  0
  134.4055  126.4063   66.8155 H   0  0  0  0  0  0  0  0  0  0  0  0
  132.7350  125.7459   66.8155 H   0  0  0  0  0  0  0  0  0  0  0  0
  134.2681  124.5186   62.8859 H   0  0  0  0  0  0  0  0  0  0  0  0
  132.4366  124.0894   61.2615 H   0  0  0  0  0  0  0  0  0  0  0  0
  130.2470  124.0430   60.8150 H   0  0  0  0  0  0  0  0  0  0  0  0
  125.4356  121.0429   55.1291 H   0  0  0  0  0  0  0  0  0  0  0  0
  124.8982  122.6383   54.5025 H   0  0  0  0  0  0  0  0  0  0  0  0
  126.6439  122.2151   54.5025 H   0  0  0  0  0  0  0  0  0  0  0  0
  124.0058  123.8513   56.3354 H   0  0  0  0  0  0  0  0  0  0  0  0
  123.9637  125.0655   59.8370 H   0  0  0  0  0  0  0  0  0  0  0  0
  124.1706  126.0833   58.3714 H   0  0  0  0  0  0  0  0  0  0  0  0
  122.9772  124.7407   58.3714 H   0  0  0  0  0  0  0  0  0  0  0  0
  126.1270  124.9950   62.0970 H   0  0  0  0  0  0  0  0  0  0  0  0
  125.2230  125.5410   60.7380 H   0  0  0  0  0  0  0  0  0  0  0  0
  129.5333  124.4111   64.4510 H   0  0  0  0  0  0  0  0  0  0  0  0
  131.3702  124.8412   66.0760 H   0  0  0  0  0  0  0  0  0  0  0  0
  1  2  1  0
  2  3  1  0
  3  4  2  0
  4  5  1  0
  5  6  2  0
  6  7  1  0
  7  8  1  0
  8  9  2  0
  8 10  1  0
 10 11  1  0
 11 12  1  0
 12 13  2  0
 13 14  1  0
 14 15  1  0
 14 16  2  0
 16 17  1  0
 17 18  1  0
 17 19  2  0
 19 20  1  0
 20 21  1  0
  6 22  1  0
 22 23  2  0
 23  3  1  0
 20 10  2  0
 19 12  1  0
  1 24  1  0
  1 25  1  0
  1 26  1  0
  4 27  1  0
  5 28  1  0
  7 29  1  0
 15 30  1  0
 15 31  1  0
 15 32  1  0
 16 33  1  0
 18 34  1  0
 18 35  1  0
 18 36  1  0
 21 37  1  0
 21 38  1  0
 22 39  1  0
 23 40  1  0
M  END
>  <Binding energies>  (1) 
[-7.8]

>  <Ligand effiencies>  (1) 
[-0.3]

>  <Interactions>  (1) 
["V-B:TYR:539:CD2:9845, V-B:MET:535:CE:9806, V-B:ASP:366:CG:8184, V-B:TYR:539:CE2:9847, V-B:TYR:539:C:9838, V-B:PRO:540:CD:9858, H-B:ASP:366:OD2:8186, V-B:PRO:540:N:9855, V-B:LEU:363:CA:8156, V-B:PRO:540:CB:9856, V-B:PRO:540:CA:9854, V-B:LEU:363:CD1:8160, V-B:ASP:366:CB:8183, H-B:GLU:543:OE2:9881, V-A:HIS:456:CE1:4069, H-A:TYR:484:OH:4347, H-A:ARG:545:NE:4924, V-A:ARG:545:CZ:4926, V-B:ALA:541:CB:9863, H-B:TYR:539:N:9841, H-A:GLY:454:N:4049, V-B:ILE:538:CA:9831, V-B:ILE:538:C:9829, V-B:ILE:538:CD1:9836, V-B:ILE:538:CG2:9834, V-B:ILE:538:CB:9833, V-A:ARG:545:CG:4922, V-A:ARG:545:CD:4923"]

$$$$
4ad_Grossjean_2025
     RDKit          3D

 36 38  0  0  0  0  0  0  0  0999 V2000
  132.3750  131.6070   54.8340 C   0  0  0  0  0  0  0  0  0  0  0  0
  131.8820  131.8240   56.2520 C   0  0  0  0  0  0  0  0  0  0  0  0
  132.7120  131.5840   57.3450 C   0  0  0  0  0  0  0  0  0  0  0  0
  132.2350  131.7900   58.6460 C   0  0  0  0  0  0  0  0  0  0  0  0
  133.1770  131.5110   59.8070 C   0  0  0  0  0  0  0  0  0  0  0  0
  130.8970  132.2440   58.7970 C   0  0  0  0  0  0  0  0  0  0  0  0
  130.1020  132.5520   59.9550 C   0  0  0  0  0  0  0  0  0  0  0  0
  130.5950  132.4380   61.2310 N   0  0  0  0  0  0  0  0  0  0  0  0
  128.7970  132.9740   59.6560 C   0  0  0  0  0  0  0  0  0  0  0  0
  127.7250  133.3480   60.5820 C   0  0  0  0  0  0  0  0  0  0  0  0
  127.0830  132.4830   61.1810 O   0  0  0  0  0  0  0  0  0  0  0  0
  127.5190  134.6800   60.7240 N   0  0  0  0  0  0  0  0  0  0  0  0
  126.5540  135.3600   61.4920 C   0  0  0  0  0  0  0  0  0  0  0  0
  125.2650  134.8190   61.4710 C   0  0  0  0  0  0  0  0  0  0  0  0
  124.2430  135.4130   62.2060 C   0  0  0  0  0  0  0  0  0  0  0  0
  124.5110  136.5450   62.9710 C   0  0  0  0  0  0  0  0  0  0  0  0
  125.7940  137.0860   63.0110 C   0  0  0  0  0  0  0  0  0  0  0  0
  126.8180  136.4940   62.2760 C   0  0  0  0  0  0  0  0  0  0  0  0
  128.5210  133.0040   57.9140 S   0  0  0  0  0  0  0  0  0  0  0  0
  130.1500  132.4520   57.5980 C   0  0  0  0  0  0  0  0  0  0  0  0
  130.6020  132.2570   56.3580 N   0  0  0  0  0  0  0  0  0  0  0  0
  133.3815  131.1640   54.8595 H   0  0  0  0  0  0  0  0  0  0  0  0
  131.6887  130.9278   54.3071 H   0  0  0  0  0  0  0  0  0  0  0  0
  132.4123  132.5719   54.3071 H   0  0  0  0  0  0  0  0  0  0  0  0
  133.7422  131.2326   57.1863 H   0  0  0  0  0  0  0  0  0  0  0  0
  132.6450  131.6686   60.7568 H   0  0  0  0  0  0  0  0  0  0  0  0
  133.5286  130.4702   59.7519 H   0  0  0  0  0  0  0  0  0  0  0  0
  134.0387  132.1925   59.7519 H   0  0  0  0  0  0  0  0  0  0  0  0
  129.9930  132.2660   62.0230 H   0  0  0  0  0  0  0  0  0  0  0  0
  131.5850  132.5180   61.4200 H   0  0  0  0  0  0  0  0  0  0  0  0
  128.1550  135.2840   60.2240 H   0  0  0  0  0  0  0  0  0  0  0  0
  125.0577  133.9205   60.8713 H   0  0  0  0  0  0  0  0  0  0  0  0
  123.2279  134.9898   62.1825 H   0  0  0  0  0  0  0  0  0  0  0  0
  123.7024  137.0163   63.5489 H   0  0  0  0  0  0  0  0  0  0  0  0
  125.9977  137.9782   63.6213 H   0  0  0  0  0  0  0  0  0  0  0  0
  127.8337  136.9150   62.3098 H   0  0  0  0  0  0  0  0  0  0  0  0
  1  2  1  0
  2  3  2  0
  3  4  1  0
  4  5  1  0
  4  6  2  0
  6  7  1  0
  7  8  1  0
  7  9  2  0
  9 10  1  0
 10 11  2  0
 10 12  1  0
 12 13  1  0
 13 14  2  0
 14 15  1  0
 15 16  2  0
 16 17  1  0
 17 18  2  0
  9 19  1  0
 19 20  1  0
 20 21  2  0
 21  2  1  0
 20  6  1  0
 18 13  1  0
  1 22  1  0
  1 23  1  0
  1 24  1  0
  3 25  1  0
  5 26  1  0
  5 27  1  0
  5 28  1  0
  8 29  1  0
  8 30  1  0
 12 31  1  0
 14 32  1  0
 15 33  1  0
 16 34  1  0
 17 35  1  0
 18 36  1  0
M  END
>  <Binding energies>  (1) 
[-7.22]

>  <Ligand effiencies>  (1) 
[-0.30083333333333334]

>  <Interactions>  (1) 
["V-A:ASP:366:CG:3212, V-A:PRO:540:N:4884, H-A:GLU:543:OE1:4909, V-B:PRO:482:CB:9297, V-B:LEU:475:CD1:9229, V-B:TRP:381:CH2:8343, V-A:PRO:540:CB:4885, V-A:TYR:539:CD2:4874, V-B:PRO:482:CG:9298, V-B:TRP:381:CZ2:8341, V-A:PRO:540:CA:4883, V-A:TYR:539:C:4867, V-B:ILE:369:CG2:8208, V-A:TYR:539:CE2:4876, V-A:TYR:539:CZ:4877, V-A:TYR:531:CE2:4793, V-A:LEU:363:CD1:3188, V-A:TYR:531:CZ:4794, V-A:LEU:363:CA:3184, H-A:TYR:539:O:4868, V-B:SER:385:CB:8380, V-B:LEU:475:CB:9227, V-B:SER:385:CA:8378, V-B:TRP:381:CE2:8338, V-A:TYR:539:CG:4872, V-A:ILE:538:CB:4862, V-A:ILE:538:CG2:4863, V-A:PRO:540:C:4881, V-A:MET:535:CG:4833, V-A:TYR:531:CD2:4791"]

$$$$
4ae_Grossjean_2025
     RDKit          3D

 38 40  0  0  0  0  0  0  0  0999 V2000
  130.1430  125.1140   66.9130 C   0  0  0  0  0  0  0  0  0  0  0  0
  130.7440  124.9590   65.5290 C   0  0  0  0  0  0  0  0  0  0  0  0
  132.1130  125.1230   65.3040 C   0  0  0  0  0  0  0  0  0  0  0  0
  132.5940  124.9730   64.0030 C   0  0  0  0  0  0  0  0  0  0  0  0
  131.7060  124.6670   62.9700 C   0  0  0  0  0  0  0  0  0  0  0  0
  130.3480  124.5080   63.2660 C   0  0  0  0  0  0  0  0  0  0  0  0
  129.5000  124.2220   62.1820 N   0  0  0  0  0  0  0  0  0  0  0  0
  128.2770  123.6350   62.1940 C   0  0  0  0  0  0  0  0  0  0  0  0
  127.7130  123.2450   63.2170 O   0  0  0  0  0  0  0  0  0  0  0  0
  127.6430  123.4810   60.8820 C   0  0  0  0  0  0  0  0  0  0  0  0
  128.3780  122.4500   59.6530 S   0  0  0  0  0  0  0  0  0  0  0  0
  127.1180  122.8380   58.5060 C   0  0  0  0  0  0  0  0  0  0  0  0
  127.1050  122.3300   57.2730 N   0  0  0  0  0  0  0  0  0  0  0  0
  126.0760  122.7140   56.4810 C   0  0  0  0  0  0  0  0  0  0  0  0
  126.0850  122.1300   55.0800 C   0  0  0  0  0  0  0  0  0  0  0  0
  125.0670  123.5850   56.8890 C   0  0  0  0  0  0  0  0  0  0  0  0
  125.0820  124.1160   58.1840 C   0  0  0  0  0  0  0  0  0  0  0  0
  123.9610  125.0640   58.5820 C   0  0  0  0  0  0  0  0  0  0  0  0
  126.1480  123.7360   59.0440 C   0  0  0  0  0  0  0  0  0  0  0  0
  126.4700  124.0860   60.4020 C   0  0  0  0  0  0  0  0  0  0  0  0
  125.6910  124.9370   61.1440 N   0  0  0  0  0  0  0  0  0  0  0  0
  129.8690  124.6600   64.5360 N   0  0  0  0  0  0  0  0  0  0  0  0
  130.9140  124.9151   67.6719 H   0  0  0  0  0  0  0  0  0  0  0  0
  129.7639  126.1393   67.0354 H   0  0  0  0  0  0  0  0  0  0  0  0
  129.3153  124.3999   67.0354 H   0  0  0  0  0  0  0  0  0  0  0  0
  132.7951  125.3645   66.1325 H   0  0  0  0  0  0  0  0  0  0  0  0
  133.6667  125.0951   63.7923 H   0  0  0  0  0  0  0  0  0  0  0  0
  132.0690  124.5525   61.9380 H   0  0  0  0  0  0  0  0  0  0  0  0
  129.8850  124.4410   61.2750 H   0  0  0  0  0  0  0  0  0  0  0  0
  126.1019  121.0318   55.1406 H   0  0  0  0  0  0  0  0  0  0  0  0
  125.1818  122.4536   54.5420 H   0  0  0  0  0  0  0  0  0  0  0  0
  126.9778  122.4813   54.5420 H   0  0  0  0  0  0  0  0  0  0  0  0
  124.2589  123.8550   56.1932 H   0  0  0  0  0  0  0  0  0  0  0  0
  123.8980  125.1173   59.6789 H   0  0  0  0  0  0  0  0  0  0  0  0
  124.1671  126.0659   58.1775 H   0  0  0  0  0  0  0  0  0  0  0  0
  123.0072  124.6943   58.1775 H   0  0  0  0  0  0  0  0  0  0  0  0
  125.8150  125.0410   62.1420 H   0  0  0  0  0  0  0  0  0  0  0  0
  124.9630  125.4910   60.7150 H   0  0  0  0  0  0  0  0  0  0  0  0
  1  2  1  0
  2  3  2  0
  3  4  1  0
  4  5  2  0
  5  6  1  0
  6  7  1  0
  7  8  1  0
  8  9  2  0
  8 10  1  0
 10 11  1  0
 11 12  1  0
 12 13  2  0
 13 14  1  0
 14 15  1  0
 14 16  2  0
 16 17  1  0
 17 18  1  0
 17 19  2  0
 19 20  1  0
 20 21  1  0
  6 22  2  0
 22  2  1  0
 20 10  2  0
 19 12  1  0
  1 23  1  0
  1 24  1  0
  1 25  1  0
  3 26  1  0
  4 27  1  0
  5 28  1  0
  7 29  1  0
 15 30  1  0
 15 31  1  0
 15 32  1  0
 16 33  1  0
 18 34  1  0
 18 35  1  0
 18 36  1  0
 21 37  1  0
 21 38  1  0
M  END
>  <Binding energies>  (1) 
[-7.35]

>  <Ligand effiencies>  (1) 
[-0.294]

>  <Interactions>  (1) 
["V-B:TYR:539:CD2:9845, V-B:MET:535:CE:9806, V-B:ASP:366:CG:8184, V-B:TYR:539:CE2:9847, V-B:TYR:539:C:9838, V-B:PRO:540:CD:9858, H-B:ASP:366:OD2:8186, V-B:PRO:540:N:9855, V-B:LEU:363:CA:8156, V-B:PRO:540:CB:9856, V-B:PRO:540:CA:9854, V-B:LEU:363:CD1:8160, V-B:ASP:366:CB:8183, H-B:GLU:543:OE2:9881, H-B:ALA:541:N:9862, V-A:HIS:456:CE1:4069, V-B:GLU:543:CG:9878, V-A:TYR:484:CE1:4344, V-B:GLU:543:CB:9877, V-B:TYR:539:CD1:9844, V-B:ALA:541:CB:9863, H-B:TYR:539:N:9841, V-B:ILE:538:CA:9831, V-B:ILE:538:C:9829, V-B:ILE:538:CD1:9836, V-B:ILE:538:CG2:9834"]

$$$$
4af_Grossjean_2025
     RDKit          3D

 35 37  0  0  0  0  0  0  0  0999 V2000
  126.2310  122.1310   55.3540 C   0  0  0  0  0  0  0  0  0  0  0  0
  126.2760  122.6920   56.7640 C   0  0  0  0  0  0  0  0  0  0  0  0
  125.2100  123.4290   57.2770 C   0  0  0  0  0  0  0  0  0  0  0  0
  125.2740  123.9390   58.5790 C   0  0  0  0  0  0  0  0  0  0  0  0
  124.0880  124.7390   59.0930 C   0  0  0  0  0  0  0  0  0  0  0  0
  126.4480  123.6790   59.3360 C   0  0  0  0  0  0  0  0  0  0  0  0
  126.8420  124.0430   60.6710 C   0  0  0  0  0  0  0  0  0  0  0  0
  126.0330  124.7840   61.4960 N   0  0  0  0  0  0  0  0  0  0  0  0
  128.1120  123.5740   61.0390 C   0  0  0  0  0  0  0  0  0  0  0  0
  128.8320  123.7830   62.2970 C   0  0  0  0  0  0  0  0  0  0  0  0
  128.2470  123.6880   63.3770 O   0  0  0  0  0  0  0  0  0  0  0  0
  130.1520  124.0640   62.1710 N   0  0  0  0  0  0  0  0  0  0  0  0
  131.1030  124.3610   63.1650 C   0  0  0  0  0  0  0  0  0  0  0  0
  130.8180  124.8940   64.4350 C   0  0  0  0  0  0  0  0  0  0  0  0
  131.8610  125.1590   65.3230 C   0  0  0  0  0  0  0  0  0  0  0  0
  133.1690  124.8890   64.9190 C   0  0  0  0  0  0  0  0  0  0  0  0
  133.4720  124.3820   63.6970 N   0  0  0  0  0  0  0  0  0  0  0  0
  132.4470  124.1300   62.8440 C   0  0  0  0  0  0  0  0  0  0  0  0
  128.8600  122.6620   59.7260 S   0  0  0  0  0  0  0  0  0  0  0  0
  127.4670  122.9110   58.6970 C   0  0  0  0  0  0  0  0  0  0  0  0
  127.4090  122.4230   57.4570 N   0  0  0  0  0  0  0  0  0  0  0  0
  126.1431  121.0354   55.3979 H   0  0  0  0  0  0  0  0  0  0  0  0
  125.3634  122.5474   54.8212 H   0  0  0  0  0  0  0  0  0  0  0  0
  127.1539  122.4038   54.8212 H   0  0  0  0  0  0  0  0  0  0  0  0
  124.3184  123.6099   56.6587 H   0  0  0  0  0  0  0  0  0  0  0  0
  124.0926  124.7359   60.1930 H   0  0  0  0  0  0  0  0  0  0  0  0
  124.1588  125.7746   58.7290 H   0  0  0  0  0  0  0  0  0  0  0  0
  123.1543  124.2854   58.7290 H   0  0  0  0  0  0  0  0  0  0  0  0
  126.1380  124.7700   62.5010 H   0  0  0  0  0  0  0  0  0  0  0  0
  125.3030  125.3750   61.1220 H   0  0  0  0  0  0  0  0  0  0  0  0
  130.5200  124.0560   61.2310 H   0  0  0  0  0  0  0  0  0  0  0  0
  129.7778  125.1009   64.7267 H   0  0  0  0  0  0  0  0  0  0  0  0
  131.6563  125.5725   66.3216 H   0  0  0  0  0  0  0  0  0  0  0  0
  133.9900  125.0960   65.6212 H   0  0  0  0  0  0  0  0  0  0  0  0
  132.6836  123.7235   61.8496 H   0  0  0  0  0  0  0  0  0  0  0  0
  1  2  1  0
  2  3  2  0
  3  4  1  0
  4  5  1  0
  4  6  2  0
  6  7  1  0
  7  8  1  0
  7  9  2  0
  9 10  1  0
 10 11  2  0
 10 12  1  0
 12 13  1  0
 13 14  2  0
 14 15  1  0
 15 16  2  0
 16 17  1  0
 17 18  2  0
  9 19  1  0
 19 20  1  0
 20 21  2  0
 21  2  1  0
 20  6  1  0
 18 13  1  0
  1 22  1  0
  1 23  1  0
  1 24  1  0
  3 25  1  0
  5 26  1  0
  5 27  1  0
  5 28  1  0
  8 29  1  0
  8 30  1  0
 12 31  1  0
 14 32  1  0
 15 33  1  0
 16 34  1  0
 18 35  1  0
M  END
>  <Binding energies>  (1) 
[-7.08]

>  <Ligand effiencies>  (1) 
[-0.295]

>  <Interactions>  (1) 
["V-B:TYR:539:CD2:9845, V-B:MET:535:CE:9806, V-B:ASP:366:CG:8184, V-B:TYR:539:CE2:9847, V-B:TYR:539:C:9838, V-B:PRO:540:CD:9858, H-B:ASP:366:OD2:8186, V-B:PRO:540:N:9855, V-B:LEU:363:CA:8156, V-B:PRO:540:CB:9856, V-B:PRO:540:CA:9854, V-B:LEU:363:CD1:8160, V-B:ASP:366:CB:8183, H-B:GLU:543:OE2:9881, V-A:ARG:545:CZ:4926, V-B:TYR:539:CD1:9844, V-B:TYR:539:CE1:9846, V-B:ALA:541:CB:9863, V-B:ASN:362:C:8143, H-A:GLY:454:N:4049, V-B:ILE:538:CA:9831, V-B:ILE:538:C:9829, V-B:ILE:538:CD1:9836"]

$$$$
4ag_Grossjean_2025
     RDKit          3D

 39 41  0  0  0  0  0  0  0  0999 V2000
  126.3640  122.1160   54.6450 C   0  0  0  0  0  0  0  0  0  0  0  0
  126.2070  122.6640   56.0520 C   0  0  0  0  0  0  0  0  0  0  0  0
  125.1140  123.4600   56.3930 C   0  0  0  0  0  0  0  0  0  0  0  0
  124.9890  123.9550   57.6960 C   0  0  0  0  0  0  0  0  0  0  0  0
  123.7790  124.8180   58.0200 C   0  0  0  0  0  0  0  0  0  0  0  0
  126.0010  123.6170   58.6340 C   0  0  0  0  0  0  0  0  0  0  0  0
  126.1840  123.9450   60.0220 C   0  0  0  0  0  0  0  0  0  0  0  0
  125.2930  124.7250   60.7160 N   0  0  0  0  0  0  0  0  0  0  0  0
  127.3460  123.4000   60.5860 C   0  0  0  0  0  0  0  0  0  0  0  0
  127.8320  123.5210   61.9610 C   0  0  0  0  0  0  0  0  0  0  0  0
  127.1290  123.1990   62.9210 O   0  0  0  0  0  0  0  0  0  0  0  0
  129.0780  124.0200   62.1090 N   0  0  0  0  0  0  0  0  0  0  0  0
  129.7710  124.2030   63.3830 C   0  0  0  0  0  0  0  0  0  0  0  0
  131.2510  124.5410   63.2400 C   0  0  0  0  0  0  0  0  0  0  0  0
  132.0130  124.8210   64.3770 C   0  0  0  0  0  0  0  0  0  0  0  0
  133.3710  125.1050   64.2520 C   0  0  0  0  0  0  0  0  0  0  0  0
  133.9630  125.0980   62.9900 C   0  0  0  0  0  0  0  0  0  0  0  0
  133.2130  124.8050   61.8550 C   0  0  0  0  0  0  0  0  0  0  0  0
  131.8560  124.5190   61.9800 C   0  0  0  0  0  0  0  0  0  0  0  0
  128.2470  122.4490   59.4050 S   0  0  0  0  0  0  0  0  0  0  0  0
  127.0670  122.7950   58.1600 C   0  0  0  0  0  0  0  0  0  0  0  0
  127.1890  122.3210   56.9190 N   0  0  0  0  0  0  0  0  0  0  0  0
  126.6666  121.0596   54.6946 H   0  0  0  0  0  0  0  0  0  0  0  0
  125.4061  122.1983   54.1104 H   0  0  0  0  0  0  0  0  0  0  0  0
  127.1330  122.6930   54.1104 H   0  0  0  0  0  0  0  0  0  0  0  0
  124.3504  123.6987   55.6381 H   0  0  0  0  0  0  0  0  0  0  0  0
  123.6672  124.8978   59.1114 H   0  0  0  0  0  0  0  0  0  0  0  0
  123.9189  125.8214   57.5915 H   0  0  0  0  0  0  0  0  0  0  0  0
  122.8759  124.3589   57.5915 H   0  0  0  0  0  0  0  0  0  0  0  0
  125.2590  124.7260   61.7250 H   0  0  0  0  0  0  0  0  0  0  0  0
  124.6400  125.3300   60.2360 H   0  0  0  0  0  0  0  0  0  0  0  0
  129.6180  124.2080   61.2770 H   0  0  0  0  0  0  0  0  0  0  0  0
  129.2802  125.0219   63.9294 H   0  0  0  0  0  0  0  0  0  0  0  0
  129.7135  123.2434   63.9177 H   0  0  0  0  0  0  0  0  0  0  0  0
  131.5408  124.8172   65.3705 H   0  0  0  0  0  0  0  0  0  0  0  0
  133.9727  125.3335   65.1440 H   0  0  0  0  0  0  0  0  0  0  0  0
  135.0344  125.3265   62.8902 H   0  0  0  0  0  0  0  0  0  0  0  0
  133.6899  124.7994   60.8638 H   0  0  0  0  0  0  0  0  0  0  0  0
  131.2604  124.2759   61.0877 H   0  0  0  0  0  0  0  0  0  0  0  0
  1  2  1  0
  2  3  2  0
  3  4  1  0
  4  5  1  0
  4  6  2  0
  6  7  1  0
  7  8  1  0
  7  9  2  0
  9 10  1  0
 10 11  2  0
 10 12  1  0
 12 13  1  0
 13 14  1  0
 14 15  2  0
 15 16  1  0
 16 17  2  0
 17 18  1  0
 18 19  2  0
  9 20  1  0
 20 21  1  0
 21 22  2  0
 22  2  1  0
 21  6  1  0
 19 14  1  0
  1 23  1  0
  1 24  1  0
  1 25  1  0
  3 26  1  0
  5 27  1  0
  5 28  1  0
  5 29  1  0
  8 30  1  0
  8 31  1  0
 12 32  1  0
 13 33  1  0
 13 34  1  0
 15 35  1  0
 16 36  1  0
 17 37  1  0
 18 38  1  0
 19 39  1  0
M  END
>  <Binding energies>  (1) 
[-7.38]

>  <Ligand effiencies>  (1) 
[-0.2952]

>  <Interactions>  (1) 
["V-B:TYR:539:CD2:9845, V-B:MET:535:CE:9806, V-B:ASP:366:CG:8184, V-B:TYR:539:CE2:9847, V-B:TYR:539:C:9838, H-B:ASP:366:OD2:8186, V-A:ASP:366:CG:3212, V-B:PRO:540:N:9855, V-B:LEU:363:CA:8156, V-B:PRO:540:CB:9856, V-B:PRO:540:CA:9854, V-B:LEU:363:CD1:8160, V-B:TYR:531:CZ:9765, V-B:ASP:366:CB:8183, V-B:TYR:531:CE2:9764, H-B:GLU:543:OE2:9881, H-B:ALA:541:N:9862, V-A:ILE:369:CD1:3238, V-A:ARG:545:CZ:4926, V-B:TYR:539:CD1:9844, V-B:TYR:539:CE1:9846, V-B:ALA:541:CB:9863, H-B:TYR:539:N:9841, V-B:ILE:538:CA:9831, V-B:ILE:538:C:9829, V-B:ILE:538:CD1:9836, V-A:GLY:453:CA:4043"]

$$$$
4ah_Grossjean_2025
     RDKit          3D

 51 53  0  0  0  0  0  0  0  0999 V2000
  128.6140  123.8800   72.6500 C   0  0  0  0  0  0  0  0  0  0  0  0
  128.8270  125.2100   73.1080 O   0  0  0  0  0  0  0  0  0  0  0  0
  129.1630  126.1960   72.1970 C   0  0  0  0  0  0  0  0  0  0  0  0
  128.6620  126.2570   70.8870 C   0  0  0  0  0  0  0  0  0  0  0  0
  129.0460  127.2820   70.0220 C   0  0  0  0  0  0  0  0  0  0  0  0
  128.4550  127.3570   68.6180 C   0  0  0  0  0  0  0  0  0  0  0  0
  129.2060  126.5890   67.6250 N   0  0  0  0  0  0  0  0  0  0  0  0
  129.4140  125.2560   67.6620 C   0  0  0  0  0  0  0  0  0  0  0  0
  129.0100  124.5460   68.5850 O   0  0  0  0  0  0  0  0  0  0  0  0
  130.1910  124.6980   66.5570 C   0  0  0  0  0  0  0  0  0  0  0  0
  129.6320  123.2460   65.7250 S   0  0  0  0  0  0  0  0  0  0  0  0
  131.0380  123.2480   64.6830 C   0  0  0  0  0  0  0  0  0  0  0  0
  131.2210  122.3210   63.7420 N   0  0  0  0  0  0  0  0  0  0  0  0
  132.3500  122.4380   63.0020 C   0  0  0  0  0  0  0  0  0  0  0  0
  132.5400  121.3710   61.9400 C   0  0  0  0  0  0  0  0  0  0  0  0
  133.2900  123.4510   63.1780 C   0  0  0  0  0  0  0  0  0  0  0  0
  133.0970  124.4220   64.1670 C   0  0  0  0  0  0  0  0  0  0  0  0
  134.1510  125.5070   64.3220 C   0  0  0  0  0  0  0  0  0  0  0  0
  131.9240  124.3310   64.9660 C   0  0  0  0  0  0  0  0  0  0  0  0
  131.4230  125.1350   66.0480 C   0  0  0  0  0  0  0  0  0  0  0  0
  132.0960  126.2330   66.5200 N   0  0  0  0  0  0  0  0  0  0  0  0
  129.9170  128.2740   70.4740 C   0  0  0  0  0  0  0  0  0  0  0  0
  130.4380  128.2360   71.7770 C   0  0  0  0  0  0  0  0  0  0  0  0
  131.3160  129.1760   72.2840 O   0  0  0  0  0  0  0  0  0  0  0  0
  130.8040  130.2940   73.0020 C   0  0  0  0  0  0  0  0  0  0  0  0
  130.0570  127.1880   72.6260 C   0  0  0  0  0  0  0  0  0  0  0  0
  130.5450  127.1480   73.9110 O   0  0  0  0  0  0  0  0  0  0  0  0
  131.4960  126.1160   74.1370 C   0  0  0  0  0  0  0  0  0  0  0  0
  128.5063  123.2076   73.5138 H   0  0  0  0  0  0  0  0  0  0  0  0
  127.6987  123.8441   72.0410 H   0  0  0  0  0  0  0  0  0  0  0  0
  129.4723  123.5600   72.0410 H   0  0  0  0  0  0  0  0  0  0  0  0
  127.9580  125.4871   70.5383 H   0  0  0  0  0  0  0  0  0  0  0  0
  127.4263  126.9690   68.6525 H   0  0  0  0  0  0  0  0  0  0  0  0
  128.4940  128.4115   68.3073 H   0  0  0  0  0  0  0  0  0  0  0  0
  129.4940  127.0930   66.8000 H   0  0  0  0  0  0  0  0  0  0  0  0
  132.7132  120.3986   62.4241 H   0  0  0  0  0  0  0  0  0  0  0  0
  131.6381  121.3130   61.3130 H   0  0  0  0  0  0  0  0  0  0  0  0
  133.4065  121.6279   61.3130 H   0  0  0  0  0  0  0  0  0  0  0  0
  134.1846  123.4876   62.5390 H   0  0  0  0  0  0  0  0  0  0  0  0
  134.3315  125.6928   65.3911 H   0  0  0  0  0  0  0  0  0  0  0  0
  135.0862  125.1807   63.8435 H   0  0  0  0  0  0  0  0  0  0  0  0
  133.7978  126.4324   63.8435 H   0  0  0  0  0  0  0  0  0  0  0  0
  132.3350  126.3340   67.4950 H   0  0  0  0  0  0  0  0  0  0  0  0
  132.3730  126.9840   65.9010 H   0  0  0  0  0  0  0  0  0  0  0  0
  130.1991  129.0966   69.8004 H   0  0  0  0  0  0  0  0  0  0  0  0
  130.8899  130.1064   74.0825 H   0  0  0  0  0  0  0  0  0  0  0  0
  131.3799  131.1936   72.7391 H   0  0  0  0  0  0  0  0  0  0  0  0
  129.7467  130.4457   72.7391 H   0  0  0  0  0  0  0  0  0  0  0  0
  131.6296  125.9711   75.2192 H   0  0  0  0  0  0  0  0  0  0  0  0
  131.1367  125.1805   73.6833 H   0  0  0  0  0  0  0  0  0  0  0  0
  132.4577  126.3978   73.6833 H   0  0  0  0  0  0  0  0  0  0  0  0
  1  2  1  0
  2  3  1  0
  3  4  2  0
  4  5  1  0
  5  6  1  0
  6  7  1  0
  7  8  1  0
  8  9  2  0
  8 10  1  0
 10 11  1  0
 11 12  1  0
 12 13  2  0
 13 14  1  0
 14 15  1  0
 14 16  2  0
 16 17  1  0
 17 18  1  0
 17 19  2  0
 19 20  1  0
 20 21  1  0
  5 22  2  0
 22 23  1  0
 23 24  1  0
 24 25  1  0
 23 26  2  0
 26 27  1  0
 27 28  1  0
 26  3  1  0
 20 10  2  0
 19 12  1  0
  1 29  1  0
  1 30  1  0
  1 31  1  0
  4 32  1  0
  6 33  1  0
  6 34  1  0
  7 35  1  0
 15 36  1  0
 15 37  1  0
 15 38  1  0
 16 39  1  0
 18 40  1  0
 18 41  1  0
 18 42  1  0
 21 43  1  0
 21 44  1  0
 22 45  1  0
 25 46  1  0
 25 47  1  0
 25 48  1  0
 28 49  1  0
 28 50  1  0
 28 51  1  0
M  END
>  <Binding energies>  (1) 
[-6.84]

>  <Ligand effiencies>  (1) 
[-0.22064516129032258]

>  <Interactions>  (1) 
["V-A:ILE:369:CG2:3236, V-A:GLU:543:CD:4908, H-A:GLU:543:OE1:4909, H-A:GLU:543:OE2:4910, V-A:HIS:456:CD2:4067, H-A:LYS:547:NZ:4951, V-A:HIS:456:CB:4064, V-A:HIS:456:CG:4065, V-B:GLU:543:CD:9879, V-B:HIS:456:CE1:9041, V-A:GLU:543:CB:4906, V-A:HIS:456:CE1:4069, H-B:LYS:547:NZ:9922, V-A:LEU:475:CD2:4258, V-B:GLU:543:CG:9878, V-A:TYR:484:CE1:4344, V-B:GLU:543:CB:9877, V-A:GLU:543:C:4902, V-B:GLU:543:CA:9875, H-A:TYR:484:OH:4347, V-A:GLY:454:CA:4048, V-A:ARG:545:CZ:4926, V-B:ALA:541:CB:9863, V-A:TYR:484:CZ:4346, V-A:LYS:547:CE:4950, V-A:GLY:544:C:4912, V-A:GLY:544:CA:4914, V-B:LYS:547:CE:9921, V-A:ARG:545:CG:4922, V-A:ARG:545:CD:4923, V-A:GLY:453:CA:4043, V-A:GLY:453:C:4041"]

$$$$
4ai_Grossjean_2025
     RDKit          3D

 32 34  0  0  0  0  0  0  0  0999 V2000
  126.7540  122.4370   56.3890 C   0  0  0  0  0  0  0  0  0  0  0  0
  127.0120  122.7680   57.8480 C   0  0  0  0  0  0  0  0  0  0  0  0
  125.9880  123.2400   58.6680 C   0  0  0  0  0  0  0  0  0  0  0  0
  126.2470  123.5340   60.0120 C   0  0  0  0  0  0  0  0  0  0  0  0
  125.0970  124.0440   60.8660 C   0  0  0  0  0  0  0  0  0  0  0  0
  127.5700  123.3330   60.4910 C   0  0  0  0  0  0  0  0  0  0  0  0
  128.1720  123.5270   61.7830 C   0  0  0  0  0  0  0  0  0  0  0  0
  127.4620  123.9970   62.8590 N   0  0  0  0  0  0  0  0  0  0  0  0
  129.5330  123.1890   61.8340 C   0  0  0  0  0  0  0  0  0  0  0  0
  130.4500  123.2710   62.9730 C   0  0  0  0  0  0  0  0  0  0  0  0
  130.4940  122.3690   63.8120 O   0  0  0  0  0  0  0  0  0  0  0  0
  131.2310  124.3800   63.0110 N   0  0  0  0  0  0  0  0  0  0  0  0
  132.1870  124.7070   63.9640 C   0  0  0  0  0  0  0  0  0  0  0  0
  131.8650  125.1300   65.2530 C   0  0  0  0  0  0  0  0  0  0  0  0
  133.0740  125.3530   65.8700 C   0  0  0  0  0  0  0  0  0  0  0  0
  134.0730  125.0770   64.9990 O   0  0  0  0  0  0  0  0  0  0  0  0
  133.4990  124.6670   63.7950 N   0  0  0  0  0  0  0  0  0  0  0  0
  130.1130  122.6390   60.2600 S   0  0  0  0  0  0  0  0  0  0  0  0
  128.5270  122.8460   59.5510 C   0  0  0  0  0  0  0  0  0  0  0  0
  128.2840  122.5670   58.2700 N   0  0  0  0  0  0  0  0  0  0  0  0
  126.0790  121.5710   56.3233 H   0  0  0  0  0  0  0  0  0  0  0  0
  126.2897  123.3022   55.8933 H   0  0  0  0  0  0  0  0  0  0  0  0
  127.7064  122.1980   55.8933 H   0  0  0  0  0  0  0  0  0  0  0  0
  124.9767  123.3814   58.2590 H   0  0  0  0  0  0  0  0  0  0  0  0
  125.3522  123.9308   61.9300 H   0  0  0  0  0  0  0  0  0  0  0  0
  124.9175  125.1061   60.6429 H   0  0  0  0  0  0  0  0  0  0  0  0
  124.1893  123.4640   60.6429 H   0  0  0  0  0  0  0  0  0  0  0  0
  127.8300  123.9590   63.7980 H   0  0  0  0  0  0  0  0  0  0  0  0
  126.5390  124.3920   62.7460 H   0  0  0  0  0  0  0  0  0  0  0  0
  131.1190  125.0470   62.2630 H   0  0  0  0  0  0  0  0  0  0  0  0
  130.8609  125.2578   65.6836 H   0  0  0  0  0  0  0  0  0  0  0  0
  133.2077  125.7000   66.9052 H   0  0  0  0  0  0  0  0  0  0  0  0
  1  2  1  0
  2  3  2  0
  3  4  1  0
  4  5  1  0
  4  6  2  0
  6  7  1  0
  7  8  1  0
  7  9  2  0
  9 10  1  0
 10 11  2  0
 10 12  1  0
 12 13  1  0
 13 14  1  0
 14 15  2  0
 15 16  1  0
 16 17  1  0
  9 18  1  0
 18 19  1  0
 19 20  2  0
 20  2  1  0
 19  6  1  0
 17 13  2  0
  1 21  1  0
  1 22  1  0
  1 23  1  0
  3 24  1  0
  5 25  1  0
  5 26  1  0
  5 27  1  0
  8 28  1  0
  8 29  1  0
 12 30  1  0
 14 31  1  0
 15 32  1  0
M  END
>  <Binding energies>  (1) 
[-6.8]

>  <Ligand effiencies>  (1) 
[-0.2956521739130435]

>  <Interactions>  (1) 
["V-B:TYR:539:CD2:9845, V-B:TYR:539:CE2:9847, V-B:TYR:539:C:9838, V-B:PRO:540:N:9855, V-B:PRO:540:CB:9856, V-B:PRO:540:CA:9854, H-B:GLU:543:OE2:9881, V-B:GLU:543:CD:9879, V-B:GLU:543:CG:9878, H-A:TYR:484:OH:4347, H-A:ARG:545:NE:4924, V-A:ARG:545:CZ:4926, V-B:TYR:539:CD1:9844, V-B:TYR:539:CE1:9846, V-B:ALA:541:CB:9863, H-A:ARG:545:NH1:4927, H-A:GLY:454:N:4049, V-A:ARG:545:CD:4923"]

$$$$
4aj_Grossjean_2025
     RDKit          3D

 32 34  0  0  0  0  0  0  0  0999 V2000
  126.3670  122.1420   54.6470 C   0  0  0  0  0  0  0  0  0  0  0  0
  126.2330  122.7270   56.0410 C   0  0  0  0  0  0  0  0  0  0  0  0
  125.1940  123.6010   56.3550 C   0  0  0  0  0  0  0  0  0  0  0  0
  125.0930  124.1330   57.6450 C   0  0  0  0  0  0  0  0  0  0  0  0
  123.9410  125.0820   57.9380 C   0  0  0  0  0  0  0  0  0  0  0  0
  126.0720  123.7490   58.6000 C   0  0  0  0  0  0  0  0  0  0  0  0
  126.2680  124.0970   59.9820 C   0  0  0  0  0  0  0  0  0  0  0  0
  125.4300  124.9560   60.6460 N   0  0  0  0  0  0  0  0  0  0  0  0
  127.3790  123.4770   60.5740 C   0  0  0  0  0  0  0  0  0  0  0  0
  127.8730  123.6100   61.9460 C   0  0  0  0  0  0  0  0  0  0  0  0
  127.4520  122.8750   62.8420 O   0  0  0  0  0  0  0  0  0  0  0  0
  128.8120  124.5700   62.1350 N   0  0  0  0  0  0  0  0  0  0  0  0
  129.4470  124.8920   63.3270 C   0  0  0  0  0  0  0  0  0  0  0  0
  129.7250  126.0890   63.7960 N   0  0  0  0  0  0  0  0  0  0  0  0
  130.3330  126.0230   64.9650 C   0  0  0  0  0  0  0  0  0  0  0  0
  130.5600  124.7450   65.4690 C   0  0  0  0  0  0  0  0  0  0  0  0
  129.9390  123.5750   64.3420 S   0  0  0  0  0  0  0  0  0  0  0  0
  128.2270  122.4490   59.4170 S   0  0  0  0  0  0  0  0  0  0  0  0
  127.0840  122.8460   58.1540 C   0  0  0  0  0  0  0  0  0  0  0  0
  127.1840  122.3380   56.9250 N   0  0  0  0  0  0  0  0  0  0  0  0
  126.6121  121.0722   54.7203 H   0  0  0  0  0  0  0  0  0  0  0  0
  125.4176  122.2644   54.1052 H   0  0  0  0  0  0  0  0  0  0  0  0
  127.1685  122.6655   54.1052 H   0  0  0  0  0  0  0  0  0  0  0  0
  124.4532  123.8726   55.5885 H   0  0  0  0  0  0  0  0  0  0  0  0
  123.8175  125.1837   59.0263 H   0  0  0  0  0  0  0  0  0  0  0  0
  124.1573  126.0675   57.4998 H   0  0  0  0  0  0  0  0  0  0  0  0
  123.0151  124.6811   57.4998 H   0  0  0  0  0  0  0  0  0  0  0  0
  124.8710  125.6400   60.1580 H   0  0  0  0  0  0  0  0  0  0  0  0
  125.3450  124.9330   61.6530 H   0  0  0  0  0  0  0  0  0  0  0  0
  129.0890  125.1120   61.3300 H   0  0  0  0  0  0  0  0  0  0  0  0
  130.6430  126.9264   65.5106 H   0  0  0  0  0  0  0  0  0  0  0  0
  131.0523  124.5130   66.4250 H   0  0  0  0  0  0  0  0  0  0  0  0
  1  2  1  0
  2  3  2  0
  3  4  1  0
  4  5  1  0
  4  6  2  0
  6  7  1  0
  7  8  1  0
  7  9  2  0
  9 10  1  0
 10 11  2  0
 10 12  1  0
 12 13  1  0
 13 14  2  0
 14 15  1  0
 15 16  2  0
 16 17  1  0
  9 18  1  0
 18 19  1  0
 19 20  2  0
 20  2  1  0
 19  6  1  0
 17 13  1  0
  1 21  1  0
  1 22  1  0
  1 23  1  0
  3 24  1  0
  5 25  1  0
  5 26  1  0
  5 27  1  0
  8 28  1  0
  8 29  1  0
 12 30  1  0
 15 31  1  0
 16 32  1  0
M  END
>  <Binding energies>  (1) 
[-6.76]

>  <Ligand effiencies>  (1) 
[-0.29391304347826086]

>  <Interactions>  (1) 
["V-B:TYR:539:CD2:9845, V-B:MET:535:CE:9806, V-B:ASP:366:CG:8184, V-B:TYR:539:CE2:9847, V-B:TYR:539:C:9838, H-B:ASP:366:OD2:8186, V-B:PRO:540:N:9855, V-B:LEU:363:CA:8156, V-B:PRO:540:CB:9856, V-B:PRO:540:CA:9854, V-B:LEU:363:CD1:8160, V-B:TYR:531:CZ:9765, V-B:ASP:366:CB:8183, V-B:TYR:531:CE2:9764, H-B:GLU:543:OE2:9881, H-B:ALA:541:N:9862, V-B:GLU:543:CD:9879, V-B:GLU:543:CG:9878, V-B:TYR:539:CD1:9844, V-B:TYR:539:CE1:9846, V-B:ALA:541:CB:9863, H-B:TYR:539:N:9841, V-B:ILE:538:CA:9831, V-B:ILE:538:C:9829, V-B:ILE:538:CD1:9836"]

$$$$
4ak_Grossjean_2025
     RDKit          3D

 50 51  0  0  0  0  0  0  0  0999 V2000
  132.7500  125.4600   57.6430 C   0  0  0  0  0  0  0  0  0  0  0  0
  133.1310  124.2420   58.2640 O   0  0  0  0  0  0  0  0  0  0  0  0
  133.1380  124.3080   59.6840 C   0  0  0  0  0  0  0  0  0  0  0  0
  131.6960  124.2580   60.2060 C   0  0  0  0  0  0  0  0  0  0  0  0
  131.1930  122.9350   60.0730 O   0  0  0  0  0  0  0  0  0  0  0  0
  132.1500  121.9250   60.3640 C   0  0  0  0  0  0  0  0  0  0  0  0
  131.8690  121.3470   61.7560 C   0  0  0  0  0  0  0  0  0  0  0  0
  132.5070  122.1540   62.7370 O   0  0  0  0  0  0  0  0  0  0  0  0
  131.6700  123.1670   63.2800 C   0  0  0  0  0  0  0  0  0  0  0  0
  130.2350  122.6250   63.4120 C   0  0  0  0  0  0  0  0  0  0  0  0
  129.4610  122.7090   62.1740 N   0  0  0  0  0  0  0  0  0  0  0  0
  128.2180  123.2210   62.0640 C   0  0  0  0  0  0  0  0  0  0  0  0
  127.6140  123.6990   63.0260 O   0  0  0  0  0  0  0  0  0  0  0  0
  127.6240  123.1870   60.7290 C   0  0  0  0  0  0  0  0  0  0  0  0
  128.3030  122.1440   59.4790 S   0  0  0  0  0  0  0  0  0  0  0  0
  127.0960  122.6640   58.3250 C   0  0  0  0  0  0  0  0  0  0  0  0
  127.0690  122.2000   57.0750 N   0  0  0  0  0  0  0  0  0  0  0  0
  126.0830  122.6860   56.2820 C   0  0  0  0  0  0  0  0  0  0  0  0
  126.0680  122.1450   54.8640 C   0  0  0  0  0  0  0  0  0  0  0  0
  125.1330  123.6140   56.7050 C   0  0  0  0  0  0  0  0  0  0  0  0
  125.1640  124.0990   58.0180 C   0  0  0  0  0  0  0  0  0  0  0  0
  124.1100  125.1130   58.4320 C   0  0  0  0  0  0  0  0  0  0  0  0
  126.1850  123.6130   58.8790 C   0  0  0  0  0  0  0  0  0  0  0  0
  126.5060  123.8890   60.2540 C   0  0  0  0  0  0  0  0  0  0  0  0
  125.7750  124.7650   61.0160 N   0  0  0  0  0  0  0  0  0  0  0  0
  132.5161  126.2077   58.4151 H   0  0  0  0  0  0  0  0  0  0  0  0
  133.5765  125.8263   57.0163 H   0  0  0  0  0  0  0  0  0  0  0  0
  131.8621  125.2900   57.0163 H   0  0  0  0  0  0  0  0  0  0  0  0
  133.7038  123.4555   60.0878 H   0  0  0  0  0  0  0  0  0  0  0  0
  133.6115  125.2476   60.0048 H   0  0  0  0  0  0  0  0  0  0  0  0
  131.6785  124.5528   61.2656 H   0  0  0  0  0  0  0  0  0  0  0  0
  131.0696  124.9502   59.6242 H   0  0  0  0  0  0  0  0  0  0  0  0
  132.0796  121.1246   59.6127 H   0  0  0  0  0  0  0  0  0  0  0  0
  133.1610  122.3578   60.3418 H   0  0  0  0  0  0  0  0  0  0  0  0
  130.7841  121.3367   61.9375 H   0  0  0  0  0  0  0  0  0  0  0  0
  132.2580  120.3197   61.8140 H   0  0  0  0  0  0  0  0  0  0  0  0
  132.0445  123.4606   64.2717 H   0  0  0  0  0  0  0  0  0  0  0  0
  131.6732  124.0432   62.6150 H   0  0  0  0  0  0  0  0  0  0  0  0
  130.2887  121.5697   63.7176 H   0  0  0  0  0  0  0  0  0  0  0  0
  129.7212  123.2507   64.1566 H   0  0  0  0  0  0  0  0  0  0  0  0
  129.9040  122.3380   61.3450 H   0  0  0  0  0  0  0  0  0  0  0  0
  126.0375  121.0458   54.8912 H   0  0  0  0  0  0  0  0  0  0  0  0
  125.1800  122.5235   54.3365 H   0  0  0  0  0  0  0  0  0  0  0  0
  126.9756  122.4737   54.3365 H   0  0  0  0  0  0  0  0  0  0  0  0
  124.3587  123.9654   56.0071 H   0  0  0  0  0  0  0  0  0  0  0  0
  124.0593  125.1618   59.5297 H   0  0  0  0  0  0  0  0  0  0  0  0
  124.3767  126.1028   58.0329 H   0  0  0  0  0  0  0  0  0  0  0  0
  123.1313  124.8083   58.0329 H   0  0  0  0  0  0  0  0  0  0  0  0
  125.0570  125.3520   60.6140 H   0  0  0  0  0  0  0  0  0  0  0  0
  125.9290  124.8500   62.0110 H   0  0  0  0  0  0  0  0  0  0  0  0
  1  2  1  0
  2  3  1  0
  3  4  1  0
  4  5  1  0
  5  6  1  0
  6  7  1  0
  7  8  1  0
  8  9  1  0
  9 10  1  0
 10 11  1  0
 11 12  1  0
 12 13  2  0
 12 14  1  0
 14 15  1  0
 15 16  1  0
 16 17  2  0
 17 18  1  0
 18 19  1  0
 18 20  2  0
 20 21  1  0
 21 22  1  0
 21 23  2  0
 23 24  1  0
 24 25  1  0
 24 14  2  0
 23 16  1  0
  1 26  1  0
  1 27  1  0
  1 28  1  0
  3 29  1  0
  3 30  1  0
  4 31  1  0
  4 32  1  0
  6 33  1  0
  6 34  1  0
  7 35  1  0
  7 36  1  0
  9 37  1  0
  9 38  1  0
 10 39  1  0
 10 40  1  0
 11 41  1  0
 19 42  1  0
 19 43  1  0
 19 44  1  0
 20 45  1  0
 22 46  1  0
 22 47  1  0
 22 48  1  0
 25 49  1  0
 25 50  1  0
M  END
>  <Binding energies>  (1) 
[-5.56]

>  <Ligand effiencies>  (1) 
[-0.19857142857142857]

>  <Interactions>  (1) 
["V-B:TYR:539:CD2:9845, V-B:MET:535:CE:9806, V-B:ASP:366:CG:8184, V-B:TYR:539:CE2:9847, V-B:TYR:539:C:9838, V-B:PRO:540:CD:9858, H-B:ASP:366:OD2:8186, V-B:PRO:540:N:9855, V-A:ILE:369:CG2:3236, V-B:LEU:363:CA:8156, V-B:PRO:540:CB:9856, V-A:ASP:366:CB:3211, V-B:PRO:540:CA:9854, V-B:LEU:363:CD1:8160, V-B:ASP:366:CB:8183, V-B:TYR:531:CE2:9764, H-B:GLU:543:OE2:9881, V-A:ASP:366:CA:3209, V-A:LEU:475:CD2:4258, H-B:TYR:539:OH:9849, V-B:TYR:539:CD1:9844, V-B:ALA:541:CB:9863, H-B:TYR:539:N:9841, V-A:ILE:369:CB:3235, V-A:ASP:366:C:3207, V-A:TYR:531:CZ:4794, V-B:ILE:538:CA:9831, V-B:ILE:538:C:9829, V-B:ILE:538:CD1:9836, V-B:ILE:538:CG2:9834, V-B:ILE:538:CB:9833"]

$$$$
4al_Grossjean_2025
     RDKit          3D

 28 29  0  0  0  0  0  0  0  0999 V2000
  130.4290  122.6780   63.2560 C   0  0  0  0  0  0  0  0  0  0  0  0
  129.5590  122.5720   62.1400 O   0  0  0  0  0  0  0  0  0  0  0  0
  128.3830  123.2510   62.1060 C   0  0  0  0  0  0  0  0  0  0  0  0
  127.9010  123.8440   63.0730 O   0  0  0  0  0  0  0  0  0  0  0  0
  127.7310  123.2080   60.7790 C   0  0  0  0  0  0  0  0  0  0  0  0
  128.3720  122.1530   59.5160 S   0  0  0  0  0  0  0  0  0  0  0  0
  127.1320  122.6710   58.3970 C   0  0  0  0  0  0  0  0  0  0  0  0
  127.0620  122.1960   57.1530 N   0  0  0  0  0  0  0  0  0  0  0  0
  126.0530  122.6790   56.3870 C   0  0  0  0  0  0  0  0  0  0  0  0
  125.9910  122.1250   54.9750 C   0  0  0  0  0  0  0  0  0  0  0  0
  125.1230  123.6170   56.8310 C   0  0  0  0  0  0  0  0  0  0  0  0
  125.1990  124.1140   58.1370 C   0  0  0  0  0  0  0  0  0  0  0  0
  124.1630  125.1350   58.5760 C   0  0  0  0  0  0  0  0  0  0  0  0
  126.2440  123.6300   58.9700 C   0  0  0  0  0  0  0  0  0  0  0  0
  126.6110  123.9160   60.3290 C   0  0  0  0  0  0  0  0  0  0  0  0
  125.9180  124.8060   61.1090 N   0  0  0  0  0  0  0  0  0  0  0  0
  129.8442  122.6067   64.1849 H   0  0  0  0  0  0  0  0  0  0  0  0
  131.1673  121.8632   63.2241 H   0  0  0  0  0  0  0  0  0  0  0  0
  130.9500  123.6463   63.2241 H   0  0  0  0  0  0  0  0  0  0  0  0
  125.8687  121.0325   55.0148 H   0  0  0  0  0  0  0  0  0  0  0  0
  125.1371  122.5704   54.4435 H   0  0  0  0  0  0  0  0  0  0  0  0
  126.9222  122.3706   54.4435 H   0  0  0  0  0  0  0  0  0  0  0  0
  124.3290  123.9668   56.1548 H   0  0  0  0  0  0  0  0  0  0  0  0
  124.1264  125.1711   59.6748 H   0  0  0  0  0  0  0  0  0  0  0  0
  124.4367  126.1263   58.1855 H   0  0  0  0  0  0  0  0  0  0  0  0
  123.1758  124.8469   58.1855 H   0  0  0  0  0  0  0  0  0  0  0  0
  125.2390  125.4440   60.7180 H   0  0  0  0  0  0  0  0  0  0  0  0
  126.0650  124.8550   62.1080 H   0  0  0  0  0  0  0  0  0  0  0  0
  1  2  1  0
  2  3  1  0
  3  4  2  0
  3  5  1  0
  5  6  1  0
  6  7  1  0
  7  8  2  0
  8  9  1  0
  9 10  1  0
  9 11  2  0
 11 12  1  0
 12 13  1  0
 12 14  2  0
 14 15  1  0
 15 16  1  0
 15  5  2  0
 14  7  1  0
  1 17  1  0
  1 18  1  0
  1 19  1  0
 10 20  1  0
 10 21  1  0
 10 22  1  0
 11 23  1  0
 13 24  1  0
 13 25  1  0
 13 26  1  0
 16 27  1  0
 16 28  1  0
M  END
>  <Binding energies>  (1) 
[-5.59]

>  <Ligand effiencies>  (1) 
[-0.31055555555555553]

>  <Interactions>  (1) 
["V-B:TYR:539:CD2:9845, V-B:MET:535:CE:9806, V-B:ASP:366:CG:8184, V-B:TYR:539:CE2:9847, V-B:TYR:539:C:9838, V-B:PRO:540:CD:9858, H-B:ASP:366:OD2:8186, V-B:PRO:540:N:9855, V-B:LEU:363:CA:8156, V-B:PRO:540:CB:9856, V-B:PRO:540:CA:9854, V-B:LEU:363:CD1:8160, V-B:ASP:366:CB:8183, H-B:GLU:543:OE2:9881, V-B:TYR:539:CD1:9844, V-B:ALA:541:CB:9863, H-B:TYR:539:N:9841, V-B:ILE:538:CA:9831, V-B:ILE:538:C:9829, V-B:ILE:538:CD1:9836, V-B:ILE:538:CG2:9834, V-B:ILE:538:CB:9833"]

$$$$
4ba_Grossjean_2025
     RDKit          3D

 44 46  0  0  0  0  0  0  0  0999 V2000
  124.6170  124.0110   57.3170 C   0  0  0  0  0  0  0  0  0  0  0  0
  125.0020  123.1780   56.0800 C   0  0  0  0  0  0  0  0  0  0  0  0
  126.4220  122.5770   56.1120 C   0  0  0  0  0  0  0  0  0  0  0  0
  126.7530  121.7560   55.2530 O   0  0  0  0  0  0  0  0  0  0  0  0
  127.3480  123.0310   57.2020 C   0  0  0  0  0  0  0  0  0  0  0  0
  127.4320  122.2890   58.3870 C   0  0  0  0  0  0  0  0  0  0  0  0
  128.2810  122.6890   59.4140 C   0  0  0  0  0  0  0  0  0  0  0  0
  129.0660  123.8350   59.2790 C   0  0  0  0  0  0  0  0  0  0  0  0
  129.8820  124.1520   60.3820 N   0  0  0  0  0  0  0  0  0  0  0  0
  131.1580  124.6070   60.4200 C   0  0  0  0  0  0  0  0  0  0  0  0
  131.8600  124.7850   59.4230 O   0  0  0  0  0  0  0  0  0  0  0  0
  131.6910  124.8630   61.7600 C   0  0  0  0  0  0  0  0  0  0  0  0
  133.4160  124.6980   62.0750 S   0  0  0  0  0  0  0  0  0  0  0  0
  133.1940  125.0910   63.7630 C   0  0  0  0  0  0  0  0  0  0  0  0
  134.2230  125.1320   64.6080 N   0  0  0  0  0  0  0  0  0  0  0  0
  133.9270  125.4470   65.8900 C   0  0  0  0  0  0  0  0  0  0  0  0
  135.1130  125.4780   66.8380 C   0  0  0  0  0  0  0  0  0  0  0  0
  132.6400  125.7260   66.3410 C   0  0  0  0  0  0  0  0  0  0  0  0
  131.5510  125.6860   65.4550 C   0  0  0  0  0  0  0  0  0  0  0  0
  130.1530  126.0020   65.9980 C   0  0  0  0  0  0  0  0  0  0  0  0
  129.5190  126.9390   65.2910 F   0  0  0  0  0  0  0  0  0  0  0  0
  129.3980  124.9030   65.9720 F   0  0  0  0  0  0  0  0  0  0  0  0
  130.2460  126.4430   67.2530 F   0  0  0  0  0  0  0  0  0  0  0  0
  131.8290  125.3500   64.0960 C   0  0  0  0  0  0  0  0  0  0  0  0
  130.9910  125.2020   62.9310 C   0  0  0  0  0  0  0  0  0  0  0  0
  129.6320  125.3800   62.9690 N   0  0  0  0  0  0  0  0  0  0  0  0
  128.9830  124.5880   58.0980 C   0  0  0  0  0  0  0  0  0  0  0  0
  128.1320  124.1870   57.0710 C   0  0  0  0  0  0  0  0  0  0  0  0
  124.8748  123.4532   58.2294 H   0  0  0  0  0  0  0  0  0  0  0  0
  125.1659  124.9642   57.3025 H   0  0  0  0  0  0  0  0  0  0  0  0
  123.5353  124.2105   57.3025 H   0  0  0  0  0  0  0  0  0  0  0  0
  124.2835  122.3500   55.9897 H   0  0  0  0  0  0  0  0  0  0  0  0
  124.9818  123.8708   55.2258 H   0  0  0  0  0  0  0  0  0  0  0  0
  126.8213  121.3820   58.5067 H   0  0  0  0  0  0  0  0  0  0  0  0
  128.3340  122.0973   60.3398 H   0  0  0  0  0  0  0  0  0  0  0  0
  129.4410  124.0000   61.2760 H   0  0  0  0  0  0  0  0  0  0  0  0
  134.7522  125.4686   67.8771 H   0  0  0  0  0  0  0  0  0  0  0  0
  135.7464  124.5961   66.6618 H   0  0  0  0  0  0  0  0  0  0  0  0
  135.6995  126.3918   66.6618 H   0  0  0  0  0  0  0  0  0  0  0  0
  132.4748  125.9795   67.3986 H   0  0  0  0  0  0  0  0  0  0  0  0
  129.0800  125.1160   63.7730 H   0  0  0  0  0  0  0  0  0  0  0  0
  129.1310  125.7770   62.1860 H   0  0  0  0  0  0  0  0  0  0  0  0
  129.5915  125.4971   57.9830 H   0  0  0  0  0  0  0  0  0  0  0  0
  128.0740  124.7826   56.1480 H   0  0  0  0  0  0  0  0  0  0  0  0
  1  2  1  0
  2  3  1  0
  3  4  2  0
  3  5  1  0
  5  6  2  0
  6  7  1  0
  7  8  2  0
  8  9  1  0
  9 10  1  0
 10 11  2  0
 10 12  1  0
 12 13  1  0
 13 14  1  0
 14 15  2  0
 15 16  1  0
 16 17  1  0
 16 18  2  0
 18 19  1  0
 19 20  1  0
 20 21  1  0
 20 22  1  0
 20 23  1  0
 19 24  2  0
 24 25  1  0
 25 26  1  0
  8 27  1  0
 27 28  2  0
 28  5  1  0
 25 12  2  0
 24 14  1  0
  1 29  1  0
  1 30  1  0
  1 31  1  0
  2 32  1  0
  2 33  1  0
  6 34  1  0
  7 35  1  0
  9 36  1  0
 17 37  1  0
 17 38  1  0
 17 39  1  0
 18 40  1  0
 26 41  1  0
 26 42  1  0
 27 43  1  0
 28 44  1  0
M  END
>  <Binding energies>  (1) 
[-7.41]

>  <Ligand effiencies>  (1) 
[-0.23903225806451614]

>  <Interactions>  (1) 
["V-B:TYR:539:CD2:9845, V-B:MET:535:CE:9806, V-B:TYR:539:CE2:9847, V-B:TYR:539:C:9838, V-A:ASP:366:CG:3212, V-B:PRO:540:N:9855, V-B:PRO:540:CB:9856, V-B:PRO:540:CA:9854, V-B:LEU:363:CD1:8160, V-B:TYR:539:CZ:9848, V-B:TYR:531:CE2:9764, H-B:GLU:543:OE2:9881, V-A:GLU:543:CD:4908, V-B:GLU:543:CD:9879, V-A:HIS:456:CE1:4069, V-B:GLU:543:CG:9878, V-B:GLU:543:CB:9877, V-A:ILE:369:CD1:3238, H-A:ARG:545:NE:4924, V-A:ARG:545:CZ:4926, V-B:TYR:539:CD1:9844, V-B:TYR:539:CG:9843, V-B:TYR:539:CE1:9846, H-B:TYR:539:N:9841, H-A:ARG:545:NH1:4927, H-A:GLY:454:N:4049, V-A:ARG:545:CB:4921, V-A:ARG:545:CG:4922, V-A:ARG:545:CD:4923, V-A:GLY:453:CA:4043, V-A:GLY:453:C:4041, V-A:ILE:455:C:4051"]

$$$$
4bb_Grossjean_2025
     RDKit          3D

 41 43  0  0  0  0  0  0  0  0999 V2000
  132.9510  126.1730   67.0410 C   0  0  0  0  0  0  0  0  0  0  0  0
  133.3830  125.4260   65.7770 C   0  0  0  0  0  0  0  0  0  0  0  0
  134.5720  125.1240   65.6590 O   0  0  0  0  0  0  0  0  0  0  0  0
  132.3400  125.1110   64.7470 C   0  0  0  0  0  0  0  0  0  0  0  0
  132.7380  124.6730   63.4780 C   0  0  0  0  0  0  0  0  0  0  0  0
  131.7900  124.3750   62.5030 C   0  0  0  0  0  0  0  0  0  0  0  0
  130.4270  124.5000   62.7810 C   0  0  0  0  0  0  0  0  0  0  0  0
  129.5550  124.1750   61.7230 N   0  0  0  0  0  0  0  0  0  0  0  0
  128.4140  123.4440   61.7280 C   0  0  0  0  0  0  0  0  0  0  0  0
  127.9490  122.8930   62.7260 O   0  0  0  0  0  0  0  0  0  0  0  0
  127.7500  123.3140   60.4270 C   0  0  0  0  0  0  0  0  0  0  0  0
  128.4550  122.2990   59.1700 S   0  0  0  0  0  0  0  0  0  0  0  0
  127.1740  122.7120   58.0540 C   0  0  0  0  0  0  0  0  0  0  0  0
  127.1380  122.2110   56.8200 N   0  0  0  0  0  0  0  0  0  0  0  0
  126.0980  122.6050   56.0490 C   0  0  0  0  0  0  0  0  0  0  0  0
  126.0760  122.0210   54.6480 C   0  0  0  0  0  0  0  0  0  0  0  0
  125.1040  123.4790   56.4780 C   0  0  0  0  0  0  0  0  0  0  0  0
  125.1350  124.0090   57.7770 C   0  0  0  0  0  0  0  0  0  0  0  0
  124.0180  124.9680   58.2030 C   0  0  0  0  0  0  0  0  0  0  0  0
  123.4480  124.6220   59.3600 F   0  0  0  0  0  0  0  0  0  0  0  0
  124.5120  126.1970   58.3520 F   0  0  0  0  0  0  0  0  0  0  0  0
  123.0610  124.9870   57.2770 F   0  0  0  0  0  0  0  0  0  0  0  0
  126.2200  123.6150   58.6170 C   0  0  0  0  0  0  0  0  0  0  0  0
  126.5800  123.9440   59.9740 C   0  0  0  0  0  0  0  0  0  0  0  0
  125.8360  124.7940   60.7520 N   0  0  0  0  0  0  0  0  0  0  0  0
  130.0210  124.9440   64.0480 C   0  0  0  0  0  0  0  0  0  0  0  0
  130.9710  125.2440   65.0210 C   0  0  0  0  0  0  0  0  0  0  0  0
  133.2763  125.6105   67.9286 H   0  0  0  0  0  0  0  0  0  0  0  0
  133.4106  127.1723   67.0515 H   0  0  0  0  0  0  0  0  0  0  0  0
  131.8556  126.2731   67.0515 H   0  0  0  0  0  0  0  0  0  0  0  0
  133.8084  124.5635   63.2496 H   0  0  0  0  0  0  0  0  0  0  0  0
  132.1164  124.0391   61.5077 H   0  0  0  0  0  0  0  0  0  0  0  0
  129.8490  124.5280   60.8240 H   0  0  0  0  0  0  0  0  0  0  0  0
  126.0347  120.9235   54.7089 H   0  0  0  0  0  0  0  0  0  0  0  0
  125.1912  122.3920   54.1100 H   0  0  0  0  0  0  0  0  0  0  0  0
  126.9862  122.3244   54.1100 H   0  0  0  0  0  0  0  0  0  0  0  0
  124.2882  123.7564   55.7942 H   0  0  0  0  0  0  0  0  0  0  0  0
  125.2530  125.5160   60.3500 H   0  0  0  0  0  0  0  0  0  0  0  0
  125.8450  124.7270   61.7610 H   0  0  0  0  0  0  0  0  0  0  0  0
  128.9501  125.0555   64.2735 H   0  0  0  0  0  0  0  0  0  0  0  0
  130.6447  125.5884   66.0134 H   0  0  0  0  0  0  0  0  0  0  0  0
  1  2  1  0
  2  3  2  0
  2  4  1  0
  4  5  2  0
  5  6  1  0
  6  7  2  0
  7  8  1  0
  8  9  1  0
  9 10  2  0
  9 11  1  0
 11 12  1  0
 12 13  1  0
 13 14  2  0
 14 15  1  0
 15 16  1  0
 15 17  2  0
 17 18  1  0
 18 19  1  0
 19 20  1  0
 19 21  1  0
 19 22  1  0
 18 23  2  0
 23 24  1  0
 24 25  1  0
  7 26  1  0
 26 27  2  0
 27  4  1  0
 24 11  2  0
 23 13  1  0
  1 28  1  0
  1 29  1  0
  1 30  1  0
  5 31  1  0
  6 32  1  0
  8 33  1  0
 16 34  1  0
 16 35  1  0
 16 36  1  0
 17 37  1  0
 25 38  1  0
 25 39  1  0
 26 40  1  0
 27 41  1  0
M  END
>  <Binding energies>  (1) 
[-7.79]

>  <Ligand effiencies>  (1) 
[-0.25966666666666666]

>  <Interactions>  (1) 
["V-B:TYR:539:CD2:9845, V-B:MET:535:CE:9806, V-B:ASP:366:CG:8184, V-B:TYR:539:CE2:9847, V-B:TYR:539:C:9838, H-B:ASP:366:OD2:8186, V-B:PRO:540:N:9855, V-B:LEU:363:CA:8156, V-B:PRO:540:CB:9856, V-B:PRO:540:CA:9854, V-B:LEU:363:CD1:8160, V-B:TYR:539:CZ:9848, V-B:TYR:531:CZ:9765, V-B:ASP:366:CB:8183, V-B:TYR:531:CE2:9764, H-B:GLU:543:OE2:9881, H-B:ALA:541:N:9862, V-A:HIS:456:CE1:4069, H-A:TYR:484:OH:4347, H-A:ARG:545:NE:4924, V-A:ARG:545:CZ:4926, V-B:TYR:539:CD1:9844, V-B:TYR:539:CG:9843, V-B:ALA:541:CB:9863, H-B:TYR:539:N:9841, V-B:ASN:362:C:8143, V-B:LEU:363:CB:8158, V-B:LEU:363:CG:8159, V-B:LEU:363:C:8154, H-A:ARG:545:NH1:4927, H-A:GLY:454:N:4049, V-B:ILE:538:CA:9831, V-B:ILE:538:C:9829, V-B:ILE:538:CD1:9836, V-B:ILE:538:CG2:9834, V-B:ILE:538:CB:9833, V-A:ARG:545:CG:4922, V-A:ARG:545:CD:4923, V-B:TYR:531:CD2:9762"]

$$$$
4bc_Grossjean_2025
     RDKit          3D

 40 42  0  0  0  0  0  0  0  0999 V2000
  133.6230  125.5000   66.6170 C   0  0  0  0  0  0  0  0  0  0  0  0
  133.8920  125.0530   65.2920 O   0  0  0  0  0  0  0  0  0  0  0  0
  132.8350  124.7430   64.4590 C   0  0  0  0  0  0  0  0  0  0  0  0
  133.0780  124.8230   63.0880 C   0  0  0  0  0  0  0  0  0  0  0  0
  132.0730  124.5290   62.1700 C   0  0  0  0  0  0  0  0  0  0  0  0
  130.8080  124.1400   62.6150 C   0  0  0  0  0  0  0  0  0  0  0  0
  129.8520  123.8780   61.6160 N   0  0  0  0  0  0  0  0  0  0  0  0
  128.5540  123.5090   61.7470 C   0  0  0  0  0  0  0  0  0  0  0  0
  128.0040  123.3040   62.8300 O   0  0  0  0  0  0  0  0  0  0  0  0
  127.8150  123.3510   60.4910 C   0  0  0  0  0  0  0  0  0  0  0  0
  128.3900  122.2330   59.2570 S   0  0  0  0  0  0  0  0  0  0  0  0
  127.0540  122.6360   58.2040 C   0  0  0  0  0  0  0  0  0  0  0  0
  126.9150  122.0650   57.0080 N   0  0  0  0  0  0  0  0  0  0  0  0
  125.8430  122.4590   56.2830 C   0  0  0  0  0  0  0  0  0  0  0  0
  125.7010  121.7930   54.9260 C   0  0  0  0  0  0  0  0  0  0  0  0
  124.9150  123.4000   56.7210 C   0  0  0  0  0  0  0  0  0  0  0  0
  125.0560  124.0050   57.9800 C   0  0  0  0  0  0  0  0  0  0  0  0
  124.0110  125.0370   58.4170 C   0  0  0  0  0  0  0  0  0  0  0  0
  122.9320  125.0510   57.6320 F   0  0  0  0  0  0  0  0  0  0  0  0
  123.6010  124.7650   59.6550 F   0  0  0  0  0  0  0  0  0  0  0  0
  124.5430  126.2590   58.3870 F   0  0  0  0  0  0  0  0  0  0  0  0
  126.1760  123.6110   58.7710 C   0  0  0  0  0  0  0  0  0  0  0  0
  126.6380  123.9980   60.0820 C   0  0  0  0  0  0  0  0  0  0  0  0
  125.9780  124.9190   60.8560 N   0  0  0  0  0  0  0  0  0  0  0  0
  130.5510  124.0700   63.9920 C   0  0  0  0  0  0  0  0  0  0  0  0
  131.5580  124.3660   64.9060 C   0  0  0  0  0  0  0  0  0  0  0  0
  134.0513  124.7883   67.3381 H   0  0  0  0  0  0  0  0  0  0  0  0
  134.0745  126.4916   66.7682 H   0  0  0  0  0  0  0  0  0  0  0  0
  132.5354  125.5654   66.7682 H   0  0  0  0  0  0  0  0  0  0  0  0
  134.0737  125.1214   62.7281 H   0  0  0  0  0  0  0  0  0  0  0  0
  132.2762  124.6034   61.0915 H   0  0  0  0  0  0  0  0  0  0  0  0
  130.2030  123.9490   60.6720 H   0  0  0  0  0  0  0  0  0  0  0  0
  125.4734  120.7256   55.0634 H   0  0  0  0  0  0  0  0  0  0  0  0
  124.8849  122.2727   54.3657 H   0  0  0  0  0  0  0  0  0  0  0  0
  126.6418  121.8981   54.3657 H   0  0  0  0  0  0  0  0  0  0  0  0
  124.0659  123.6712   56.0764 H   0  0  0  0  0  0  0  0  0  0  0  0
  126.1870  125.0420   61.8360 H   0  0  0  0  0  0  0  0  0  0  0  0
  125.2570  125.5110   60.4660 H   0  0  0  0  0  0  0  0  0  0  0  0
  129.5520  123.7807   64.3502 H   0  0  0  0  0  0  0  0  0  0  0  0
  131.3525  124.3043   65.9849 H   0  0  0  0  0  0  0  0  0  0  0  0
  1  2  1  0
  2  3  1  0
  3  4  2  0
  4  5  1  0
  5  6  2  0
  6  7  1  0
  7  8  1  0
  8  9  2  0
  8 10  1  0
 10 11  1  0
 11 12  1  0
 12 13  2  0
 13 14  1  0
 14 15  1  0
 14 16  2  0
 16 17  1  0
 17 18  1  0
 18 19  1  0
 18 20  1  0
 18 21  1  0
 17 22  2  0
 22 23  1  0
 23 24  1  0
  6 25  1  0
 25 26  2  0
 26  3  1  0
 23 10  2  0
 22 12  1  0
  1 27  1  0
  1 28  1  0
  1 29  1  0
  4 30  1  0
  5 31  1  0
  7 32  1  0
 15 33  1  0
 15 34  1  0
 15 35  1  0
 16 36  1  0
 24 37  1  0
 24 38  1  0
 25 39  1  0
 26 40  1  0
M  END
>  <Binding energies>  (1) 
[-7.23]

>  <Ligand effiencies>  (1) 
[-0.2493103448275862]

>  <Interactions>  (1) 
["V-B:TYR:539:CD2:9845, V-B:MET:535:CE:9806, V-B:ASP:366:CG:8184, V-B:TYR:539:CE2:9847, V-B:TYR:539:C:9838, V-B:PRO:540:CD:9858, H-B:ASP:366:OD2:8186, V-B:PRO:540:N:9855, V-B:LEU:363:CA:8156, V-B:PRO:540:CB:9856, V-B:PRO:540:CA:9854, V-B:LEU:363:CD1:8160, V-B:TYR:531:CZ:9765, V-B:ASP:366:CB:8183, V-B:TYR:531:CE2:9764, H-B:GLU:543:OE2:9881, H-B:ALA:541:N:9862, V-A:HIS:456:CE1:4069, H-A:TYR:484:OH:4347, H-A:ARG:545:NE:4924, V-A:ARG:545:CZ:4926, V-B:ALA:541:CB:9863, H-B:TYR:539:N:9841, V-B:ASN:362:C:8143, V-B:LEU:363:CB:8158, V-B:LEU:363:CG:8159, V-B:LEU:363:C:8154, H-A:GLY:454:N:4049, V-B:ILE:538:CA:9831, V-B:ILE:538:C:9829, V-B:ILE:538:CD1:9836, V-B:ILE:538:CG2:9834, V-B:ILE:538:CB:9833, V-B:ILE:538:CG1:9835, V-A:ARG:545:CG:4922, V-A:ARG:545:CD:4923"]

$$$$
4bd_Grossjean_2025
     RDKit          3D

 36 38  0  0  0  0  0  0  0  0999 V2000
  126.4230  122.0860   54.9260 C   0  0  0  0  0  0  0  0  0  0  0  0
  126.3670  122.6720   56.3250 C   0  0  0  0  0  0  0  0  0  0  0  0
  125.3300  123.5180   56.7090 C   0  0  0  0  0  0  0  0  0  0  0  0
  125.2920  124.0540   58.0050 C   0  0  0  0  0  0  0  0  0  0  0  0
  124.1330  124.9840   58.3800 C   0  0  0  0  0  0  0  0  0  0  0  0
  123.6350  124.7330   59.5930 F   0  0  0  0  0  0  0  0  0  0  0  0
  124.5490  126.2500   58.3740 F   0  0  0  0  0  0  0  0  0  0  0  0
  123.1390  124.8410   57.5040 F   0  0  0  0  0  0  0  0  0  0  0  0
  126.3500  123.6930   58.8920 C   0  0  0  0  0  0  0  0  0  0  0  0
  126.6420  124.0360   60.2630 C   0  0  0  0  0  0  0  0  0  0  0  0
  125.8380  124.8600   61.0060 N   0  0  0  0  0  0  0  0  0  0  0  0
  127.8190  123.4520   60.7620 C   0  0  0  0  0  0  0  0  0  0  0  0
  128.4170  123.5980   62.0930 C   0  0  0  0  0  0  0  0  0  0  0  0
  127.8070  123.2350   63.0990 O   0  0  0  0  0  0  0  0  0  0  0  0
  129.6610  124.1370   62.1150 N   0  0  0  0  0  0  0  0  0  0  0  0
  130.4830  124.4460   63.2140 C   0  0  0  0  0  0  0  0  0  0  0  0
  129.8890  125.2000   64.2300 C   0  0  0  0  0  0  0  0  0  0  0  0
  130.6170  125.5470   65.3650 C   0  0  0  0  0  0  0  0  0  0  0  0
  131.9410  125.1330   65.4890 C   0  0  0  0  0  0  0  0  0  0  0  0
  132.5400  124.3700   64.4900 C   0  0  0  0  0  0  0  0  0  0  0  0
  131.8150  124.0210   63.3540 C   0  0  0  0  0  0  0  0  0  0  0  0
  128.6000  122.4490   59.5430 S   0  0  0  0  0  0  0  0  0  0  0  0
  127.3530  122.8180   58.3740 C   0  0  0  0  0  0  0  0  0  0  0  0
  127.3830  122.3110   57.1430 N   0  0  0  0  0  0  0  0  0  0  0  0
  126.5275  120.9929   54.9903 H   0  0  0  0  0  0  0  0  0  0  0  0
  125.4970  122.3348   54.3869 H   0  0  0  0  0  0  0  0  0  0  0  0
  127.2851  122.5057   54.3869 H   0  0  0  0  0  0  0  0  0  0  0  0
  124.5349  123.7679   55.9912 H   0  0  0  0  0  0  0  0  0  0  0  0
  125.8600  124.8610   62.0160 H   0  0  0  0  0  0  0  0  0  0  0  0
  125.1950  125.5040   60.5660 H   0  0  0  0  0  0  0  0  0  0  0  0
  130.0760  124.3350   61.2160 H   0  0  0  0  0  0  0  0  0  0  0  0
  128.8413  125.5208   64.1324 H   0  0  0  0  0  0  0  0  0  0  0  0
  130.1485  126.1455   66.1602 H   0  0  0  0  0  0  0  0  0  0  0  0
  132.5181  125.4110   66.3832 H   0  0  0  0  0  0  0  0  0  0  0  0
  133.5848  124.0434   64.5983 H   0  0  0  0  0  0  0  0  0  0  0  0
  132.2845  123.4130   62.5666 H   0  0  0  0  0  0  0  0  0  0  0  0
  1  2  1  0
  2  3  2  0
  3  4  1  0
  4  5  1  0
  5  6  1  0
  5  7  1  0
  5  8  1  0
  4  9  2  0
  9 10  1  0
 10 11  1  0
 10 12  2  0
 12 13  1  0
 13 14  2  0
 13 15  1  0
 15 16  1  0
 16 17  2  0
 17 18  1  0
 18 19  2  0
 19 20  1  0
 20 21  2  0
 12 22  1  0
 22 23  1  0
 23 24  2  0
 24  2  1  0
 23  9  1  0
 21 16  1  0
  1 25  1  0
  1 26  1  0
  1 27  1  0
  3 28  1  0
 11 29  1  0
 11 30  1  0
 15 31  1  0
 17 32  1  0
 18 33  1  0
 19 34  1  0
 20 35  1  0
 21 36  1  0
M  END
>  <Binding energies>  (1) 
[-6.65]

>  <Ligand effiencies>  (1) 
[-0.24629629629629632]

>  <Interactions>  (1) 
["V-B:TYR:539:CD2:9845, V-B:MET:535:CE:9806, V-B:ASP:366:CG:8184, V-B:TYR:539:CE2:9847, V-B:TYR:539:C:9838, H-B:ASP:366:OD2:8186, V-B:PRO:540:N:9855, V-B:LEU:363:CA:8156, V-B:PRO:540:CB:9856, V-B:PRO:540:CA:9854, V-B:LEU:363:CD1:8160, V-B:TYR:531:CZ:9765, V-B:ASP:366:CB:8183, V-B:TYR:531:CE2:9764, H-B:GLU:543:OE2:9881, H-B:ALA:541:N:9862, V-B:GLU:543:CD:9879, V-B:GLU:543:CG:9878, V-B:TYR:539:CD1:9844, V-B:TYR:539:CE1:9846, V-B:ALA:541:CB:9863, H-B:TYR:539:N:9841, V-B:ASN:362:C:8143, V-B:LEU:363:CB:8158, V-B:LEU:363:CG:8159, V-B:LEU:363:C:8154, V-B:ILE:538:CA:9831, V-B:ILE:538:C:9829, V-B:ILE:538:CD1:9836"]

$$$$
4be_Grossjean_2025
     RDKit          3D

 38 40  0  0  0  0  0  0  0  0999 V2000
  133.6090  131.5070   58.7820 C   0  0  0  0  0  0  0  0  0  0  0  0
  132.3940  131.5170   57.8750 C   0  0  0  0  0  0  0  0  0  0  0  0
  132.0200  132.6620   57.1670 C   0  0  0  0  0  0  0  0  0  0  0  0
  130.8890  132.5990   56.3520 C   0  0  0  0  0  0  0  0  0  0  0  0
  130.1660  131.4070   56.2660 C   0  0  0  0  0  0  0  0  0  0  0  0
  130.5990  130.2950   56.9980 C   0  0  0  0  0  0  0  0  0  0  0  0
  129.8240  129.1280   56.8730 N   0  0  0  0  0  0  0  0  0  0  0  0
  128.7690  128.7220   57.6230 C   0  0  0  0  0  0  0  0  0  0  0  0
  128.3130  129.3640   58.5710 O   0  0  0  0  0  0  0  0  0  0  0  0
  128.1930  127.4270   57.2490 C   0  0  0  0  0  0  0  0  0  0  0  0
  128.9080  126.4850   55.9420 S   0  0  0  0  0  0  0  0  0  0  0  0
  127.7000  125.2340   56.1230 C   0  0  0  0  0  0  0  0  0  0  0  0
  127.7030  124.1490   55.3510 N   0  0  0  0  0  0  0  0  0  0  0  0
  126.7190  123.2490   55.5870 C   0  0  0  0  0  0  0  0  0  0  0  0
  126.7380  122.0210   54.6950 C   0  0  0  0  0  0  0  0  0  0  0  0
  125.7440  123.4090   56.5680 C   0  0  0  0  0  0  0  0  0  0  0  0
  125.7360  124.5500   57.3850 C   0  0  0  0  0  0  0  0  0  0  0  0
  124.6450  124.6790   58.4530 C   0  0  0  0  0  0  0  0  0  0  0  0
  123.8660  123.5970   58.5360 F   0  0  0  0  0  0  0  0  0  0  0  0
  125.2040  124.8580   59.6500 F   0  0  0  0  0  0  0  0  0  0  0  0
  123.8600  125.7180   58.1740 F   0  0  0  0  0  0  0  0  0  0  0  0
  126.7580  125.5200   57.1600 C   0  0  0  0  0  0  0  0  0  0  0  0
  127.0610  126.7870   57.7780 C   0  0  0  0  0  0  0  0  0  0  0  0
  126.3100  127.3130   58.7970 N   0  0  0  0  0  0  0  0  0  0  0  0
  131.7020  130.3510   57.8000 N   0  0  0  0  0  0  0  0  0  0  0  0
  133.2825  131.5097   59.8324 H   0  0  0  0  0  0  0  0  0  0  0  0
  134.2056  130.6039   58.5858 H   0  0  0  0  0  0  0  0  0  0  0  0
  134.2204  132.4001   58.5858 H   0  0  0  0  0  0  0  0  0  0  0  0
  132.6032  133.5910   57.2501 H   0  0  0  0  0  0  0  0  0  0  0  0
  130.5688  133.4828   55.7807 H   0  0  0  0  0  0  0  0  0  0  0  0
  129.2692  131.3429   55.6322 H   0  0  0  0  0  0  0  0  0  0  0  0
  130.1310  128.4950   56.1490 H   0  0  0  0  0  0  0  0  0  0  0  0
  126.7520  121.1150   55.3187 H   0  0  0  0  0  0  0  0  0  0  0  0
  125.8398  122.0152   54.0600 H   0  0  0  0  0  0  0  0  0  0  0  0
  127.6359  122.0429   54.0600 H   0  0  0  0  0  0  0  0  0  0  0  0
  124.9741  122.6351   56.7037 H   0  0  0  0  0  0  0  0  0  0  0  0
  125.4640  126.8680   59.1230 H   0  0  0  0  0  0  0  0  0  0  0  0
  126.5760  128.1740   59.2550 H   0  0  0  0  0  0  0  0  0  0  0  0
  1  2  1  0
  2  3  2  0
  3  4  1  0
  4  5  2  0
  5  6  1  0
  6  7  1  0
  7  8  1  0
  8  9  2  0
  8 10  1  0
 10 11  1  0
 11 12  1  0
 12 13  2  0
 13 14  1  0
 14 15  1  0
 14 16  2  0
 16 17  1  0
 17 18  1  0
 18 19  1  0
 18 20  1  0
 18 21  1  0
 17 22  2  0
 22 23  1  0
 23 24  1  0
  6 25  2  0
 25  2  1  0
 23 10  2  0
 22 12  1  0
  1 26  1  0
  1 27  1  0
  1 28  1  0
  3 29  1  0
  4 30  1  0
  5 31  1  0
  7 32  1  0
 15 33  1  0
 15 34  1  0
 15 35  1  0
 16 36  1  0
 24 37  1  0
 24 38  1  0
M  END
>  <Binding energies>  (1) 
[-6.71]

>  <Ligand effiencies>  (1) 
[-0.23964285714285713]

>  <Interactions>  (1) 
["V-B:MET:535:CE:9806, V-B:ASP:366:CG:8184, H-B:ASP:366:OD2:8186, V-A:ASP:366:CG:3212, V-B:LEU:363:CA:8156, V-B:PRO:540:CB:9856, H-B:TYR:531:OH:9766, V-A:ASP:366:CB:3211, V-B:PRO:540:CA:9854, V-B:LEU:363:CD1:8160, V-B:TYR:531:CZ:9765, V-B:ASP:366:CB:8183, V-B:TYR:531:CE2:9764, V-A:PRO:540:N:4884, V-A:PRO:540:CB:4885, V-A:PRO:540:CA:4883, V-B:TYR:539:CD1:9844, V-B:TYR:539:CE1:9846, H-A:TYR:531:OH:4795, V-A:LEU:363:CD1:3188, V-A:LEU:363:CA:3184, V-B:LEU:363:CB:8158, V-A:MET:535:CE:4835, V-A:PRO:540:CD:4887, V-B:ILE:538:CA:9831, V-B:ILE:538:C:9829, V-B:ILE:538:CD1:9836, V-A:LEU:363:CB:3186"]

$$$$
4bf_Grossjean_2025
     RDKit          3D

 35 37  0  0  0  0  0  0  0  0999 V2000
  126.3340  122.4830   56.0160 C   0  0  0  0  0  0  0  0  0  0  0  0
  126.5790  122.7910   57.4830 C   0  0  0  0  0  0  0  0  0  0  0  0
  125.5670  123.3110   58.2850 C   0  0  0  0  0  0  0  0  0  0  0  0
  125.8080  123.5950   59.6380 C   0  0  0  0  0  0  0  0  0  0  0  0
  124.6640  124.1690   60.4810 C   0  0  0  0  0  0  0  0  0  0  0  0
  124.0990  123.2620   61.2820 F   0  0  0  0  0  0  0  0  0  0  0  0
  125.1230  125.1540   61.2540 F   0  0  0  0  0  0  0  0  0  0  0  0
  123.7090  124.6450   59.6820 F   0  0  0  0  0  0  0  0  0  0  0  0
  127.1170  123.3280   60.1380 C   0  0  0  0  0  0  0  0  0  0  0  0
  127.7230  123.4870   61.4370 C   0  0  0  0  0  0  0  0  0  0  0  0
  127.0360  123.9790   62.5180 N   0  0  0  0  0  0  0  0  0  0  0  0
  129.0700  123.0930   61.4950 C   0  0  0  0  0  0  0  0  0  0  0  0
  129.9900  123.1490   62.6360 C   0  0  0  0  0  0  0  0  0  0  0  0
  130.1540  122.1650   63.3580 O   0  0  0  0  0  0  0  0  0  0  0  0
  130.6300  124.3310   62.8070 N   0  0  0  0  0  0  0  0  0  0  0  0
  131.5280  124.7260   63.8170 C   0  0  0  0  0  0  0  0  0  0  0  0
  131.1670  125.1460   65.1090 C   0  0  0  0  0  0  0  0  0  0  0  0
  132.1600  125.5280   66.0150 C   0  0  0  0  0  0  0  0  0  0  0  0
  133.4920  125.4840   65.6030 C   0  0  0  0  0  0  0  0  0  0  0  0
  133.8660  125.0890   64.3600 N   0  0  0  0  0  0  0  0  0  0  0  0
  132.8890  124.7220   63.4910 C   0  0  0  0  0  0  0  0  0  0  0  0
  129.6310  122.5120   59.9290 S   0  0  0  0  0  0  0  0  0  0  0  0
  128.0640  122.7940   59.2100 C   0  0  0  0  0  0  0  0  0  0  0  0
  127.8300  122.5250   57.9260 N   0  0  0  0  0  0  0  0  0  0  0  0
  125.6513  121.6247   55.9306 H   0  0  0  0  0  0  0  0  0  0  0  0
  125.8837  123.3597   55.5275 H   0  0  0  0  0  0  0  0  0  0  0  0
  127.2895  122.2415   55.5275 H   0  0  0  0  0  0  0  0  0  0  0  0
  124.5722  123.5005   57.8555 H   0  0  0  0  0  0  0  0  0  0  0  0
  126.9220  123.4430   63.3660 H   0  0  0  0  0  0  0  0  0  0  0  0
  126.6200  124.9000   62.5020 H   0  0  0  0  0  0  0  0  0  0  0  0
  130.4510  125.0390   62.1100 H   0  0  0  0  0  0  0  0  0  0  0  0
  130.1081  125.1738   65.4054 H   0  0  0  0  0  0  0  0  0  0  0  0
  131.8969  125.8564   67.0313 H   0  0  0  0  0  0  0  0  0  0  0  0
  134.2735  125.7827   66.3172 H   0  0  0  0  0  0  0  0  0  0  0  0
  133.1824  124.4054   62.4792 H   0  0  0  0  0  0  0  0  0  0  0  0
  1  2  1  0
  2  3  2  0
  3  4  1  0
  4  5  1  0
  5  6  1  0
  5  7  1  0
  5  8  1  0
  4  9  2  0
  9 10  1  0
 10 11  1  0
 10 12  2  0
 12 13  1  0
 13 14  2  0
 13 15  1  0
 15 16  1  0
 16 17  2  0
 17 18  1  0
 18 19  2  0
 19 20  1  0
 20 21  2  0
 12 22  1  0
 22 23  1  0
 23 24  2  0
 24  2  1  0
 23  9  1  0
 21 16  1  0
  1 25  1  0
  1 26  1  0
  1 27  1  0
  3 28  1  0
 11 29  1  0
 11 30  1  0
 15 31  1  0
 17 32  1  0
 18 33  1  0
 19 34  1  0
 21 35  1  0
M  END
>  <Binding energies>  (1) 
[-6.82]

>  <Ligand effiencies>  (1) 
[-0.2525925925925926]

>  <Interactions>  (1) 
["V-B:TYR:539:CD2:9845, V-B:ASP:366:CG:8184, V-B:TYR:539:CE2:9847, V-B:TYR:539:C:9838, V-B:PRO:540:N:9855, V-B:LEU:363:CA:8156, V-B:PRO:540:CB:9856, V-B:PRO:540:CA:9854, V-B:ASP:366:CB:8183, H-B:GLU:543:OE2:9881, V-B:GLU:543:CD:9879, V-A:HIS:456:CE1:4069, V-B:GLU:543:CG:9878, H-A:ARG:545:NH2:4928, V-A:ARG:545:CZ:4926, V-B:TYR:539:CD1:9844, V-B:ALA:541:CB:9863, V-B:ASN:362:CB:8147, V-B:ASN:362:C:8143, H-A:ARG:545:NH1:4927, H-A:GLY:454:N:4049, V-B:ASN:362:CA:8145, H-B:ALA:541:O:9860, V-A:ARG:545:CD:4923"]

$$$$
4bg_Grossjean_2025
     RDKit          3D

 39 41  0  0  0  0  0  0  0  0999 V2000
  126.3350  122.1290   54.8040 C   0  0  0  0  0  0  0  0  0  0  0  0
  126.2260  122.6560   56.2230 C   0  0  0  0  0  0  0  0  0  0  0  0
  125.1960  123.5180   56.5910 C   0  0  0  0  0  0  0  0  0  0  0  0
  125.1110  124.0020   57.9070 C   0  0  0  0  0  0  0  0  0  0  0  0
  123.9600  124.9480   58.2650 C   0  0  0  0  0  0  0  0  0  0  0  0
  123.3760  124.6420   59.4260 F   0  0  0  0  0  0  0  0  0  0  0  0
  124.4170  126.1960   58.3660 F   0  0  0  0  0  0  0  0  0  0  0  0
  123.0220  124.8970   57.3200 F   0  0  0  0  0  0  0  0  0  0  0  0
  126.1140  123.5730   58.8260 C   0  0  0  0  0  0  0  0  0  0  0  0
  126.3540  123.8560   60.2200 C   0  0  0  0  0  0  0  0  0  0  0  0
  125.5560  124.6960   60.9550 N   0  0  0  0  0  0  0  0  0  0  0  0
  127.4670  123.1900   60.7550 C   0  0  0  0  0  0  0  0  0  0  0  0
  128.0120  123.2690   62.1100 C   0  0  0  0  0  0  0  0  0  0  0  0
  127.3510  122.9230   63.0910 O   0  0  0  0  0  0  0  0  0  0  0  0
  129.2860  123.7030   62.2100 N   0  0  0  0  0  0  0  0  0  0  0  0
  130.0280  123.8760   63.4580 C   0  0  0  0  0  0  0  0  0  0  0  0
  131.5120  124.1500   63.2520 C   0  0  0  0  0  0  0  0  0  0  0  0
  132.1280  123.8050   62.0460 C   0  0  0  0  0  0  0  0  0  0  0  0
  133.4760  124.0920   61.8460 C   0  0  0  0  0  0  0  0  0  0  0  0
  134.2010  124.7360   62.8470 C   0  0  0  0  0  0  0  0  0  0  0  0
  133.5890  125.0980   64.0450 C   0  0  0  0  0  0  0  0  0  0  0  0
  132.2410  124.8100   64.2460 C   0  0  0  0  0  0  0  0  0  0  0  0
  128.2810  122.2160   59.5340 S   0  0  0  0  0  0  0  0  0  0  0  0
  127.1110  122.6820   58.3220 C   0  0  0  0  0  0  0  0  0  0  0  0
  127.1890  122.2270   57.0710 N   0  0  0  0  0  0  0  0  0  0  0  0
  126.5577  121.0521   54.8289 H   0  0  0  0  0  0  0  0  0  0  0  0
  125.3836  122.2946   54.2773 H   0  0  0  0  0  0  0  0  0  0  0  0
  127.1427  122.6584   54.2773 H   0  0  0  0  0  0  0  0  0  0  0  0
  124.4448  123.8216   55.8470 H   0  0  0  0  0  0  0  0  0  0  0  0
  125.4380  124.5850   61.9510 H   0  0  0  0  0  0  0  0  0  0  0  0
  125.0490  125.4540   60.5190 H   0  0  0  0  0  0  0  0  0  0  0  0
  129.7390  124.0440   61.3750 H   0  0  0  0  0  0  0  0  0  0  0  0
  129.5911  124.7226   64.0079 H   0  0  0  0  0  0  0  0  0  0  0  0
  129.9487  122.9303   64.0142 H   0  0  0  0  0  0  0  0  0  0  0  0
  131.5483  123.3069   61.2549 H   0  0  0  0  0  0  0  0  0  0  0  0
  133.9664  123.8116   60.9021 H   0  0  0  0  0  0  0  0  0  0  0  0
  135.2663  124.9605   62.6897 H   0  0  0  0  0  0  0  0  0  0  0  0
  134.1676  125.6089   64.8287 H   0  0  0  0  0  0  0  0  0  0  0  0
  131.7503  125.1017   65.1863 H   0  0  0  0  0  0  0  0  0  0  0  0
  1  2  1  0
  2  3  2  0
  3  4  1  0
  4  5  1  0
  5  6  1  0
  5  7  1  0
  5  8  1  0
  4  9  2  0
  9 10  1  0
 10 11  1  0
 10 12  2  0
 12 13  1  0
 13 14  2  0
 13 15  1  0
 15 16  1  0
 16 17  1  0
 17 18  2  0
 18 19  1  0
 19 20  2  0
 20 21  1  0
 21 22  2  0
 12 23  1  0
 23 24  1  0
 24 25  2  0
 25  2  1  0
 24  9  1  0
 22 17  1  0
  1 26  1  0
  1 27  1  0
  1 28  1  0
  3 29  1  0
 11 30  1  0
 11 31  1  0
 15 32  1  0
 16 33  1  0
 16 34  1  0
 18 35  1  0
 19 36  1  0
 20 37  1  0
 21 38  1  0
 22 39  1  0
M  END
>  <Binding energies>  (1) 
[-6.93]

>  <Ligand effiencies>  (1) 
[-0.2475]

>  <Interactions>  (1) 
["V-B:TYR:539:CD2:9845, V-B:MET:535:CE:9806, V-B:ASP:366:CG:8184, V-B:TYR:539:CE2:9847, V-B:TYR:539:C:9838, H-B:ASP:366:OD2:8186, V-B:PRO:540:N:9855, V-A:ILE:369:CG2:3236, V-B:LEU:363:CA:8156, V-B:PRO:540:CB:9856, V-B:PRO:540:CA:9854, V-B:LEU:363:CD1:8160, V-B:TYR:531:CZ:9765, V-B:ASP:366:CB:8183, V-B:TYR:531:CE2:9764, H-B:GLU:543:OE2:9881, H-B:ALA:541:N:9862, V-A:ILE:369:CD1:3238, V-A:ARG:545:CZ:4926, V-B:TYR:539:CD1:9844, V-B:TYR:539:CE1:9846, V-B:ALA:541:CB:9863, H-B:TYR:539:N:9841, V-B:ASN:362:C:8143, V-B:LEU:363:CB:8158, V-B:LEU:363:CG:8159, V-B:LEU:363:C:8154, V-B:ILE:538:CA:9831, V-B:ILE:538:C:9829, V-B:ILE:538:CD1:9836, V-A:GLY:453:CA:4043, V-A:GLY:453:C:4041, V-B:TYR:531:CD2:9762"]

$$$$
4bh_Grossjean_2025
     RDKit          3D

 51 53  0  0  0  0  0  0  0  0999 V2000
  128.6270  124.4170   72.6380 C   0  0  0  0  0  0  0  0  0  0  0  0
  128.6700  125.6130   73.4080 O   0  0  0  0  0  0  0  0  0  0  0  0
  129.0750  126.7920   72.8100 C   0  0  0  0  0  0  0  0  0  0  0  0
  129.8870  126.8510   71.6660 C   0  0  0  0  0  0  0  0  0  0  0  0
  130.2600  128.0780   71.1160 C   0  0  0  0  0  0  0  0  0  0  0  0
  131.1040  128.1230   69.8480 C   0  0  0  0  0  0  0  0  0  0  0  0
  130.3150  128.2950   68.6270 N   0  0  0  0  0  0  0  0  0  0  0  0
  129.0120  127.9770   68.4870 C   0  0  0  0  0  0  0  0  0  0  0  0
  128.3550  127.4590   69.3930 O   0  0  0  0  0  0  0  0  0  0  0  0
  128.4230  128.2400   67.1740 C   0  0  0  0  0  0  0  0  0  0  0  0
  129.0000  127.3680   65.7580 S   0  0  0  0  0  0  0  0  0  0  0  0
  127.9030  128.2450   64.7170 C   0  0  0  0  0  0  0  0  0  0  0  0
  127.8540  128.0120   63.4060 N   0  0  0  0  0  0  0  0  0  0  0  0
  126.9630  128.7510   62.7050 C   0  0  0  0  0  0  0  0  0  0  0  0
  126.9250  128.4720   61.2130 C   0  0  0  0  0  0  0  0  0  0  0  0
  126.1270  129.7060   63.2780 C   0  0  0  0  0  0  0  0  0  0  0  0
  126.1760  129.9570   64.6580 C   0  0  0  0  0  0  0  0  0  0  0  0
  125.2350  131.0150   65.2440 C   0  0  0  0  0  0  0  0  0  0  0  0
  124.5130  130.5630   66.2720 F   0  0  0  0  0  0  0  0  0  0  0  0
  125.9440  132.0550   65.6830 F   0  0  0  0  0  0  0  0  0  0  0  0
  124.3820  131.4280   64.3070 F   0  0  0  0  0  0  0  0  0  0  0  0
  127.1070  129.1960   65.4270 C   0  0  0  0  0  0  0  0  0  0  0  0
  127.4380  129.1790   66.8300 C   0  0  0  0  0  0  0  0  0  0  0  0
  126.8350  130.0030   67.7460 N   0  0  0  0  0  0  0  0  0  0  0  0
  129.7960  129.2610   71.6950 C   0  0  0  0  0  0  0  0  0  0  0  0
  128.9900  129.2320   72.8430 C   0  0  0  0  0  0  0  0  0  0  0  0
  128.5070  130.3630   73.4770 O   0  0  0  0  0  0  0  0  0  0  0  0
  128.1730  131.5080   72.7000 C   0  0  0  0  0  0  0  0  0  0  0  0
  128.6410  127.9900   73.3940 C   0  0  0  0  0  0  0  0  0  0  0  0
  127.8370  127.9460   74.5090 O   0  0  0  0  0  0  0  0  0  0  0  0
  128.5020  128.2930   75.7150 C   0  0  0  0  0  0  0  0  0  0  0  0
  128.5958  123.5481   73.3118 H   0  0  0  0  0  0  0  0  0  0  0  0
  127.7284  124.4215   72.0035 H   0  0  0  0  0  0  0  0  0  0  0  0
  129.5236  124.3570   72.0035 H   0  0  0  0  0  0  0  0  0  0  0  0
  130.2335  125.9181   71.1974 H   0  0  0  0  0  0  0  0  0  0  0  0
  131.8087  128.9638   69.9285 H   0  0  0  0  0  0  0  0  0  0  0  0
  131.6182  127.1539   69.7671 H   0  0  0  0  0  0  0  0  0  0  0  0
  130.7680  128.7910   67.8730 H   0  0  0  0  0  0  0  0  0  0  0  0
  126.7783  127.3948   61.0450 H   0  0  0  0  0  0  0  0  0  0  0  0
  126.0947  129.0307   60.7565 H   0  0  0  0  0  0  0  0  0  0  0  0
  127.8745  128.7883   60.7565 H   0  0  0  0  0  0  0  0  0  0  0  0
  125.4238  130.2672   62.6451 H   0  0  0  0  0  0  0  0  0  0  0  0
  125.8460  129.9480   67.9440 H   0  0  0  0  0  0  0  0  0  0  0  0
  127.3620  130.7030   68.2500 H   0  0  0  0  0  0  0  0  0  0  0  0
  130.0659  130.2279   71.2453 H   0  0  0  0  0  0  0  0  0  0  0  0
  127.9284  132.3464   73.3688 H   0  0  0  0  0  0  0  0  0  0  0  0
  129.0284  131.7827   72.0654 H   0  0  0  0  0  0  0  0  0  0  0  0
  127.3040  131.2797   72.0654 H   0  0  0  0  0  0  0  0  0  0  0  0
  127.8929  127.9752   76.5741 H   0  0  0  0  0  0  0  0  0  0  0  0
  129.4796  127.7900   75.7525 H   0  0  0  0  0  0  0  0  0  0  0  0
  128.6486  129.3825   75.7525 H   0  0  0  0  0  0  0  0  0  0  0  0
  1  2  1  0
  2  3  1  0
  3  4  2  0
  4  5  1  0
  5  6  1  0
  6  7  1  0
  7  8  1  0
  8  9  2  0
  8 10  1  0
 10 11  1  0
 11 12  1  0
 12 13  2  0
 13 14  1  0
 14 15  1  0
 14 16  2  0
 16 17  1  0
 17 18  1  0
 18 19  1  0
 18 20  1  0
 18 21  1  0
 17 22  2  0
 22 23  1  0
 23 24  1  0
  5 25  2  0
 25 26  1  0
 26 27  1  0
 27 28  1  0
 26 29  2  0
 29 30  1  0
 30 31  1  0
 29  3  1  0
 23 10  2  0
 22 12  1  0
  1 32  1  0
  1 33  1  0
  1 34  1  0
  4 35  1  0
  6 36  1  0
  6 37  1  0
  7 38  1  0
 15 39  1  0
 15 40  1  0
 15 41  1  0
 16 42  1  0
 24 43  1  0
 24 44  1  0
 25 45  1  0
 28 46  1  0
 28 47  1  0
 28 48  1  0
 31 49  1  0
 31 50  1  0
 31 51  1  0
M  END
>  <Binding energies>  (1) 
[-6.16]

>  <Ligand effiencies>  (1) 
[-0.1811764705882353]

>  <Interactions>  (1) 
["V-A:GLU:543:CD:4908, H-A:GLU:543:OE1:4909, V-B:LEU:475:CD1:9229, V-A:GLU:543:CG:4907, H-A:GLU:543:OE2:4910, V-A:HIS:456:CD2:4067, V-B:GLU:543:CD:9879, V-B:HIS:456:CE1:9041, V-B:GLY:454:CA:9020, V-A:GLU:543:CB:4906, V-A:HIS:456:CE1:4069, H-B:LYS:547:NZ:9922, V-B:HIS:456:CD2:9039, V-B:HIS:456:CG:9037, V-B:TYR:484:CD1:9314, V-B:TYR:484:CE1:9316, V-B:TYR:484:CZ:9318, H-B:TYR:484:OH:9319, V-B:LYS:547:CE:9921, V-B:GLY:454:C:9018"]

$$$$
4bi_Grossjean_2025
     RDKit          3D

 32 34  0  0  0  0  0  0  0  0999 V2000
  126.8060  122.4770   56.3900 C   0  0  0  0  0  0  0  0  0  0  0  0
  127.0550  122.7990   57.8520 C   0  0  0  0  0  0  0  0  0  0  0  0
  126.0240  123.2490   58.6730 C   0  0  0  0  0  0  0  0  0  0  0  0
  126.2670  123.5390   60.0260 C   0  0  0  0  0  0  0  0  0  0  0  0
  125.0990  124.0230   60.8910 C   0  0  0  0  0  0  0  0  0  0  0  0
  125.3560  125.1730   61.5190 F   0  0  0  0  0  0  0  0  0  0  0  0
  124.0220  124.2160   60.1300 F   0  0  0  0  0  0  0  0  0  0  0  0
  124.8210  123.1130   61.8250 F   0  0  0  0  0  0  0  0  0  0  0  0
  127.5990  123.3560   60.5020 C   0  0  0  0  0  0  0  0  0  0  0  0
  128.2140  123.5500   61.7930 C   0  0  0  0  0  0  0  0  0  0  0  0
  127.5190  124.0010   62.8850 N   0  0  0  0  0  0  0  0  0  0  0  0
  129.5810  123.2280   61.8310 C   0  0  0  0  0  0  0  0  0  0  0  0
  130.5100  123.3180   62.9620 C   0  0  0  0  0  0  0  0  0  0  0  0
  130.6160  122.3880   63.7640 O   0  0  0  0  0  0  0  0  0  0  0  0
  131.2300  124.4650   63.0340 N   0  0  0  0  0  0  0  0  0  0  0  0
  132.1820  124.8060   63.9860 C   0  0  0  0  0  0  0  0  0  0  0  0
  131.8580  125.3670   65.2200 C   0  0  0  0  0  0  0  0  0  0  0  0
  133.0640  125.5540   65.8570 C   0  0  0  0  0  0  0  0  0  0  0  0
  134.0620  125.1260   65.0480 O   0  0  0  0  0  0  0  0  0  0  0  0
  133.4900  124.6550   63.8640 N   0  0  0  0  0  0  0  0  0  0  0  0
  130.1550  122.6970   60.2520 S   0  0  0  0  0  0  0  0  0  0  0  0
  128.5630  122.8900   59.5570 C   0  0  0  0  0  0  0  0  0  0  0  0
  128.3260  122.6140   58.2750 N   0  0  0  0  0  0  0  0  0  0  0  0
  126.1347  121.6089   56.3149 H   0  0  0  0  0  0  0  0  0  0  0  0
  126.3409  123.3438   55.8977 H   0  0  0  0  0  0  0  0  0  0  0  0
  127.7619  122.2450   55.8977 H   0  0  0  0  0  0  0  0  0  0  0  0
  125.0129  123.3782   58.2595 H   0  0  0  0  0  0  0  0  0  0  0  0
  126.5090  124.0110   62.9090 H   0  0  0  0  0  0  0  0  0  0  0  0
  127.9960  124.3470   63.7060 H   0  0  0  0  0  0  0  0  0  0  0  0
  131.0710  125.1540   62.3130 H   0  0  0  0  0  0  0  0  0  0  0  0
  130.8552  125.6082   65.6024 H   0  0  0  0  0  0  0  0  0  0  0  0
  133.1958  125.9822   66.8616 H   0  0  0  0  0  0  0  0  0  0  0  0
  1  2  1  0
  2  3  2  0
  3  4  1  0
  4  5  1  0
  5  6  1  0
  5  7  1  0
  5  8  1  0
  4  9  2  0
  9 10  1  0
 10 11  1  0
 10 12  2  0
 12 13  1  0
 13 14  2  0
 13 15  1  0
 15 16  1  0
 16 17  1  0
 17 18  2  0
 18 19  1  0
 19 20  1  0
 12 21  1  0
 21 22  1  0
 22 23  2  0
 23  2  1  0
 22  9  1  0
 20 16  2  0
  1 24  1  0
  1 25  1  0
  1 26  1  0
  3 27  1  0
 11 28  1  0
 11 29  1  0
 15 30  1  0
 17 31  1  0
 18 32  1  0
M  END
>  <Binding energies>  (1) 
[-6.68]

>  <Ligand effiencies>  (1) 
[-0.2569230769230769]

>  <Interactions>  (1) 
["V-B:TYR:539:CD2:9845, V-B:ASP:366:CG:8184, V-B:TYR:539:CE2:9847, V-B:TYR:539:C:9838, V-B:PRO:540:N:9855, V-B:LEU:363:CA:8156, V-B:PRO:540:CB:9856, V-B:PRO:540:CA:9854, H-B:GLU:543:OE2:9881, V-B:GLU:543:CD:9879, V-B:GLU:543:CG:9878, H-A:TYR:484:OH:4347, H-A:ARG:545:NE:4924, V-A:ARG:545:CZ:4926, V-B:TYR:539:CD1:9844, V-B:TYR:539:CG:9843, V-B:TYR:539:CE1:9846, V-B:ALA:541:CB:9863, V-B:PRO:540:C:9852, V-B:ASN:362:CB:8147, V-B:ASN:362:C:8143, H-A:ARG:545:NH1:4927, H-A:GLY:454:N:4049, V-A:ARG:545:CD:4923"]

$$$$
4bj_Grossjean_2025
     RDKit          3D

 32 34  0  0  0  0  0  0  0  0999 V2000
  125.9480  122.1250   54.6680 C   0  0  0  0  0  0  0  0  0  0  0  0
  126.0090  122.6670   56.0840 C   0  0  0  0  0  0  0  0  0  0  0  0
  125.0570  123.5710   56.5480 C   0  0  0  0  0  0  0  0  0  0  0  0
  125.1290  124.0700   57.8580 C   0  0  0  0  0  0  0  0  0  0  0  0
  124.0600  125.0650   58.3230 C   0  0  0  0  0  0  0  0  0  0  0  0
  123.0080  125.1220   57.5030 F   0  0  0  0  0  0  0  0  0  0  0  0
  123.6100  124.7150   59.5280 F   0  0  0  0  0  0  0  0  0  0  0  0
  124.5830  126.2900   58.3870 F   0  0  0  0  0  0  0  0  0  0  0  0
  126.2050  123.6080   58.6740 C   0  0  0  0  0  0  0  0  0  0  0  0
  126.5990  123.8920   60.0320 C   0  0  0  0  0  0  0  0  0  0  0  0
  125.9080  124.7610   60.8380 N   0  0  0  0  0  0  0  0  0  0  0  0
  127.7430  123.1950   60.4550 C   0  0  0  0  0  0  0  0  0  0  0  0
  128.4170  123.2510   61.7540 C   0  0  0  0  0  0  0  0  0  0  0  0
  127.9050  123.8440   62.7060 O   0  0  0  0  0  0  0  0  0  0  0  0
  129.6060  122.6040   61.8210 N   0  0  0  0  0  0  0  0  0  0  0  0
  130.4350  122.4960   62.9290 C   0  0  0  0  0  0  0  0  0  0  0  0
  130.0930  122.2400   64.1740 N   0  0  0  0  0  0  0  0  0  0  0  0
  131.1430  122.2040   64.9690 C   0  0  0  0  0  0  0  0  0  0  0  0
  132.3770  122.4360   64.3690 C   0  0  0  0  0  0  0  0  0  0  0  0
  132.1360  122.7180   62.6700 S   0  0  0  0  0  0  0  0  0  0  0  0
  128.3830  122.1780   59.1670 S   0  0  0  0  0  0  0  0  0  0  0  0
  127.1100  122.6770   58.0780 C   0  0  0  0  0  0  0  0  0  0  0  0
  127.0390  122.2090   56.8320 N   0  0  0  0  0  0  0  0  0  0  0  0
  125.8250  121.0323   54.6986 H   0  0  0  0  0  0  0  0  0  0  0  0
  125.0949  122.5753   54.1394 H   0  0  0  0  0  0  0  0  0  0  0  0
  126.8799  122.3744   54.1394 H   0  0  0  0  0  0  0  0  0  0  0  0
  124.2430  123.8963   55.8835 H   0  0  0  0  0  0  0  0  0  0  0  0
  125.2320  125.4130   60.4670 H   0  0  0  0  0  0  0  0  0  0  0  0
  126.0590  124.7820   61.8380 H   0  0  0  0  0  0  0  0  0  0  0  0
  129.9310  122.1420   60.9850 H   0  0  0  0  0  0  0  0  0  0  0  0
  131.0495  122.0020   66.0462 H   0  0  0  0  0  0  0  0  0  0  0  0
  133.3480  122.4403   64.8859 H   0  0  0  0  0  0  0  0  0  0  0  0
  1  2  1  0
  2  3  2  0
  3  4  1  0
  4  5  1  0
  5  6  1  0
  5  7  1  0
  5  8  1  0
  4  9  2  0
  9 10  1  0
 10 11  1  0
 10 12  2  0
 12 13  1  0
 13 14  2  0
 13 15  1  0
 15 16  1  0
 16 17  2  0
 17 18  1  0
 18 19  2  0
 19 20  1  0
 12 21  1  0
 21 22  1  0
 22 23  2  0
 23  2  1  0
 22  9  1  0
 20 16  1  0
  1 24  1  0
  1 25  1  0
  1 26  1  0
  3 27  1  0
 11 28  1  0
 11 29  1  0
 15 30  1  0
 18 31  1  0
 19 32  1  0
M  END
>  <Binding energies>  (1) 
[-6.13]

>  <Ligand effiencies>  (1) 
[-0.23576923076923076]

>  <Interactions>  (1) 
["V-B:TYR:539:CD2:9845, V-B:MET:535:CE:9806, V-B:ASP:366:CG:8184, V-B:TYR:539:CE2:9847, V-B:TYR:539:C:9838, H-B:ASP:366:OD2:8186, V-B:PRO:540:N:9855, V-B:LEU:363:CA:8156, V-B:PRO:540:CB:9856, V-B:PRO:540:CA:9854, V-B:LEU:363:CD1:8160, V-B:TYR:539:CZ:9848, V-B:TYR:531:CZ:9765, V-B:ASP:366:CB:8183, V-B:TYR:531:CE2:9764, H-B:GLU:543:OE2:9881, V-A:LEU:475:CD2:4258, V-A:TYR:484:CE1:4344, V-A:GLY:454:CA:4048, V-B:TYR:539:CG:9843, V-B:ALA:541:CB:9863, H-B:TYR:539:N:9841, V-B:ASN:362:C:8143, V-B:LEU:363:CB:8158, V-A:LEU:475:CD1:4257, V-B:LEU:363:CG:8159, V-B:LEU:363:C:8154, V-A:TYR:484:CZ:4346, V-B:ILE:538:CA:9831, V-B:ILE:538:C:9829, V-B:ILE:538:CD1:9836, V-B:ILE:538:CG2:9834, V-B:ILE:538:CB:9833, V-B:TYR:531:CD2:9762"]

$$$$
4bk_Grossjean_2025
     RDKit          3D

 50 51  0  0  0  0  0  0  0  0999 V2000
  127.3530  125.7900   56.8690 C   0  0  0  0  0  0  0  0  0  0  0  0
  127.6560  124.6770   57.6970 O   0  0  0  0  0  0  0  0  0  0  0  0
  128.2350  123.5880   56.9900 C   0  0  0  0  0  0  0  0  0  0  0  0
  127.5260  123.4180   55.6410 C   0  0  0  0  0  0  0  0  0  0  0  0
  126.9350  122.1270   55.5780 O   0  0  0  0  0  0  0  0  0  0  0  0
  125.5260  122.1480   55.3960 C   0  0  0  0  0  0  0  0  0  0  0  0
  124.8390  122.3400   56.7550 C   0  0  0  0  0  0  0  0  0  0  0  0
  125.2190  123.5950   57.3000 O   0  0  0  0  0  0  0  0  0  0  0  0
  124.1680  124.2670   57.9840 C   0  0  0  0  0  0  0  0  0  0  0  0
  124.5560  124.4510   59.4610 C   0  0  0  0  0  0  0  0  0  0  0  0
  125.8320  123.8290   59.8150 N   0  0  0  0  0  0  0  0  0  0  0  0
  126.2860  123.6420   61.0720 C   0  0  0  0  0  0  0  0  0  0  0  0
  125.6350  123.9720   62.0650 O   0  0  0  0  0  0  0  0  0  0  0  0
  127.6010  123.0110   61.1950 C   0  0  0  0  0  0  0  0  0  0  0  0
  128.2010  121.9610   59.9130 S   0  0  0  0  0  0  0  0  0  0  0  0
  129.6970  121.6920   60.7750 C   0  0  0  0  0  0  0  0  0  0  0  0
  130.6540  120.9100   60.2780 N   0  0  0  0  0  0  0  0  0  0  0  0
  131.7680  120.7790   61.0350 C   0  0  0  0  0  0  0  0  0  0  0  0
  132.8460  119.8860   60.4480 C   0  0  0  0  0  0  0  0  0  0  0  0
  131.9450  121.4050   62.2660 C   0  0  0  0  0  0  0  0  0  0  0  0
  130.9400  122.2290   62.7960 C   0  0  0  0  0  0  0  0  0  0  0  0
  131.1790  122.8940   64.1560 C   0  0  0  0  0  0  0  0  0  0  0  0
  132.3530  122.5650   64.6990 F   0  0  0  0  0  0  0  0  0  0  0  0
  131.1590  124.2190   64.0200 F   0  0  0  0  0  0  0  0  0  0  0  0
  130.2270  122.5250   65.0120 F   0  0  0  0  0  0  0  0  0  0  0  0
  129.7520  122.3900   62.0220 C   0  0  0  0  0  0  0  0  0  0  0  0
  128.5390  123.1390   62.2300 C   0  0  0  0  0  0  0  0  0  0  0  0
  128.3230  123.9060   63.3470 N   0  0  0  0  0  0  0  0  0  0  0  0
  127.1159  126.6609   57.4977 H   0  0  0  0  0  0  0  0  0  0  0  0
  128.2208  126.0216   56.2339 H   0  0  0  0  0  0  0  0  0  0  0  0
  126.4876  125.5497   56.2339 H   0  0  0  0  0  0  0  0  0  0  0  0
  129.3032  123.7880   56.8199 H   0  0  0  0  0  0  0  0  0  0  0  0
  128.1234  122.6670   57.5810 H   0  0  0  0  0  0  0  0  0  0  0  0
  126.7442  124.1850   55.5380 H   0  0  0  0  0  0  0  0  0  0  0  0
  128.2561  123.5282   54.8256 H   0  0  0  0  0  0  0  0  0  0  0  0
  125.2547  122.9781   54.7272 H   0  0  0  0  0  0  0  0  0  0  0  0
  125.1990  121.1970   54.9502 H   0  0  0  0  0  0  0  0  0  0  0  0
  123.7474  122.3125   56.6220 H   0  0  0  0  0  0  0  0  0  0  0  0
  125.1434  121.5340   57.4389 H   0  0  0  0  0  0  0  0  0  0  0  0
  124.0006  125.2516   57.5230 H   0  0  0  0  0  0  0  0  0  0  0  0
  123.2460  123.6708   57.9176 H   0  0  0  0  0  0  0  0  0  0  0  0
  124.6249  125.5287   59.6705 H   0  0  0  0  0  0  0  0  0  0  0  0
  123.7790  123.9559   60.0619 H   0  0  0  0  0  0  0  0  0  0  0  0
  126.4140  123.5360   59.0450 H   0  0  0  0  0  0  0  0  0  0  0  0
  133.4152  119.4144   61.2626 H   0  0  0  0  0  0  0  0  0  0  0  0
  132.3790  119.1066   59.8280 H   0  0  0  0  0  0  0  0  0  0  0  0
  133.5249  120.4899   59.8280 H   0  0  0  0  0  0  0  0  0  0  0  0
  132.8789  121.2527   62.8270 H   0  0  0  0  0  0  0  0  0  0  0  0
  129.0560  124.0930   64.0180 H   0  0  0  0  0  0  0  0  0  0  0  0
  127.4190  124.3180   63.5350 H   0  0  0  0  0  0  0  0  0  0  0  0
  1  2  1  0
  2  3  1  0
  3  4  1  0
  4  5  1  0
  5  6  1  0
  6  7  1  0
  7  8  1  0
  8  9  1  0
  9 10  1  0
 10 11  1  0
 11 12  1  0
 12 13  2  0
 12 14  1  0
 14 15  1  0
 15 16  1  0
 16 17  2  0
 17 18  1  0
 18 19  1  0
 18 20  2  0
 20 21  1  0
 21 22  1  0
 22 23  1  0
 22 24  1  0
 22 25  1  0
 21 26  2  0
 26 27  1  0
 27 28  1  0
 27 14  2  0
 26 16  1  0
  1 29  1  0
  1 30  1  0
  1 31  1  0
  3 32  1  0
  3 33  1  0
  4 34  1  0
  4 35  1  0
  6 36  1  0
  6 37  1  0
  7 38  1  0
  7 39  1  0
  9 40  1  0
  9 41  1  0
 10 42  1  0
 10 43  1  0
 11 44  1  0
 19 45  1  0
 19 46  1  0
 19 47  1  0
 20 48  1  0
 28 49  1  0
 28 50  1  0
M  END
>  <Binding energies>  (1) 
[-4.79]

>  <Ligand effiencies>  (1) 
[-0.15451612903225806]

>  <Interactions>  (1) 
["V-B:TYR:539:CD2:9845, V-B:MET:535:CE:9806, V-B:ASP:366:CG:8184, V-B:TYR:539:CE2:9847, V-B:TYR:539:C:9838, V-B:PRO:540:CD:9858, V-B:PRO:540:N:9855, V-A:ILE:369:CG2:3236, V-B:LEU:363:CA:8156, V-B:PRO:540:CB:9856, V-B:PRO:540:CA:9854, V-B:LEU:363:CD1:8160, V-B:TYR:539:CZ:9848, H-B:GLU:543:OE2:9881, V-B:GLU:543:CD:9879, H-B:ARG:545:NH2:9899, V-A:LEU:475:CD2:4258, V-B:GLU:543:CG:9878, V-A:TYR:484:CE1:4344, V-A:GLY:454:CA:4048, V-B:TYR:539:CD1:9844, V-B:TYR:539:CE1:9846, V-B:ALA:541:CB:9863, V-A:TRP:381:CH2:3371, H-B:TYR:539:N:9841, V-B:PRO:540:C:9852, V-A:TRP:381:CZ2:3369, V-A:TYR:484:CZ:4346, V-B:PRO:540:CG:9857, V-B:ILE:538:CA:9831, V-B:ILE:538:C:9829, V-B:ILE:538:CD1:9836, V-B:ILE:538:CG2:9834"]

$$$$
4ca_Grossjean_2025
     RDKit          3D

 52 55  0  0  0  0  0  0  0  0999 V2000
  125.6720  130.6940   54.9410 C   0  0  0  0  0  0  0  0  0  0  0  0
  125.7510  130.7120   56.4700 C   0  0  0  0  0  0  0  0  0  0  0  0
  124.4440  130.5770   57.0130 O   0  0  0  0  0  0  0  0  0  0  0  0
  124.0240  131.3670   58.0350 C   0  0  0  0  0  0  0  0  0  0  0  0
  123.2480  132.3170   57.8850 O   0  0  0  0  0  0  0  0  0  0  0  0
  124.5930  130.9680   59.3650 C   0  0  0  0  0  0  0  0  0  0  0  0
  125.5560  129.9520   59.4200 C   0  0  0  0  0  0  0  0  0  0  0  0
  126.1060  129.5630   60.6390 C   0  0  0  0  0  0  0  0  0  0  0  0
  125.7010  130.1750   61.8250 C   0  0  0  0  0  0  0  0  0  0  0  0
  126.3290  129.7110   62.9980 N   0  0  0  0  0  0  0  0  0  0  0  0
  125.9390  129.8080   64.2930 C   0  0  0  0  0  0  0  0  0  0  0  0
  124.8780  130.3130   64.6600 O   0  0  0  0  0  0  0  0  0  0  0  0
  126.8720  129.2430   65.2700 C   0  0  0  0  0  0  0  0  0  0  0  0
  126.7800  129.7220   66.9630 S   0  0  0  0  0  0  0  0  0  0  0  0
  128.0880  128.6430   67.3860 C   0  0  0  0  0  0  0  0  0  0  0  0
  128.5230  128.5390   68.6400 N   0  0  0  0  0  0  0  0  0  0  0  0
  129.5350  127.6640   68.8760 C   0  0  0  0  0  0  0  0  0  0  0  0
  129.9970  127.5620   70.3010 C   0  0  0  0  0  0  0  0  0  0  0  0
  129.2230  126.8900   71.2610 C   0  0  0  0  0  0  0  0  0  0  0  0
  129.6440  126.7970   72.5850 C   0  0  0  0  0  0  0  0  0  0  0  0
  130.8480  127.3770   72.9700 C   0  0  0  0  0  0  0  0  0  0  0  0
  131.6320  128.0510   72.0400 C   0  0  0  0  0  0  0  0  0  0  0  0
  131.2090  128.1420   70.7170 C   0  0  0  0  0  0  0  0  0  0  0  0
  130.1200  126.9160   67.8480 C   0  0  0  0  0  0  0  0  0  0  0  0
  129.6710  127.0220   66.5230 C   0  0  0  0  0  0  0  0  0  0  0  0
  130.3550  126.1710   65.4470 C   0  0  0  0  0  0  0  0  0  0  0  0
  130.7980  126.8890   64.4130 F   0  0  0  0  0  0  0  0  0  0  0  0
  131.4040  125.5370   65.9710 F   0  0  0  0  0  0  0  0  0  0  0  0
  129.4930  125.2740   64.9670 F   0  0  0  0  0  0  0  0  0  0  0  0
  128.5990  127.9240   66.2670 C   0  0  0  0  0  0  0  0  0  0  0  0
  127.8820  128.2860   65.0690 C   0  0  0  0  0  0  0  0  0  0  0  0
  128.1660  127.7420   63.8420 N   0  0  0  0  0  0  0  0  0  0  0  0
  124.7420  131.1970   61.7800 C   0  0  0  0  0  0  0  0  0  0  0  0
  124.1940  131.5870   60.5600 C   0  0  0  0  0  0  0  0  0  0  0  0
  124.6433  130.4596   54.6297 H   0  0  0  0  0  0  0  0  0  0  0  0
  125.9584  131.6804   54.5474 H   0  0  0  0  0  0  0  0  0  0  0  0
  126.3575  129.9290   54.5474 H   0  0  0  0  0  0  0  0  0  0  0  0
  126.3794  129.8775   56.8147 H   0  0  0  0  0  0  0  0  0  0  0  0
  126.1905  131.6636   56.8036 H   0  0  0  0  0  0  0  0  0  0  0  0
  125.8805  129.4573   58.4926 H   0  0  0  0  0  0  0  0  0  0  0  0
  126.8652  128.7675   60.6666 H   0  0  0  0  0  0  0  0  0  0  0  0
  127.1960  129.2210   62.8350 H   0  0  0  0  0  0  0  0  0  0  0  0
  128.2695  126.4300   70.9624 H   0  0  0  0  0  0  0  0  0  0  0  0
  129.0261  126.2663   73.3243 H   0  0  0  0  0  0  0  0  0  0  0  0
  131.1818  127.3022   74.0155 H   0  0  0  0  0  0  0  0  0  0  0  0
  132.5826  128.5104   72.3486 H   0  0  0  0  0  0  0  0  0  0  0  0
  131.8326  128.6761   69.9850 H   0  0  0  0  0  0  0  0  0  0  0  0
  130.9482  126.2314   68.0835 H   0  0  0  0  0  0  0  0  0  0  0  0
  127.5060  127.1540   63.3520 H   0  0  0  0  0  0  0  0  0  0  0  0
  129.0510  127.9130   63.3820 H   0  0  0  0  0  0  0  0  0  0  0  0
  124.4220  131.6914   62.7091 H   0  0  0  0  0  0  0  0  0  0  0  0
  123.4409  132.3883   60.5329 H   0  0  0  0  0  0  0  0  0  0  0  0
  1  2  1  0
  2  3  1  0
  3  4  1  0
  4  5  2  0
  4  6  1  0
  6  7  2  0
  7  8  1  0
  8  9  2  0
  9 10  1  0
 10 11  1  0
 11 12  2  0
 11 13  1  0
 13 14  1  0
 14 15  1  0
 15 16  2  0
 16 17  1  0
 17 18  1  0
 18 19  2  0
 19 20  1  0
 20 21  2  0
 21 22  1  0
 22 23  2  0
 17 24  2  0
 24 25  1  0
 25 26  1  0
 26 27  1  0
 26 28  1  0
 26 29  1  0
 25 30  2  0
 30 31  1  0
 31 32  1  0
  9 33  1  0
 33 34  2  0
 34  6  1  0
 31 13  2  0
 30 15  1  0
 23 18  1  0
  1 35  1  0
  1 36  1  0
  1 37  1  0
  2 38  1  0
  2 39  1  0
  7 40  1  0
  8 41  1  0
 10 42  1  0
 19 43  1  0
 20 44  1  0
 21 45  1  0
 22 46  1  0
 23 47  1  0
 24 48  1  0
 32 49  1  0
 32 50  1  0
 33 51  1  0
 34 52  1  0
M  END
>  <Binding energies>  (1) 
[-7.82]

>  <Ligand effiencies>  (1) 
[-0.21135135135135136]

>  <Interactions>  (1) 
["V-B:ASP:366:CG:8184, H-B:TYR:531:OH:9766, V-B:TYR:531:CZ:9765, V-B:ASP:366:CB:8183, H-B:GLU:543:OE2:9881, V-A:GLU:543:CD:4908, H-A:GLU:543:OE1:4909, V-A:GLU:543:CG:4907, H-B:GLY:454:N:9021, V-B:GLU:543:CD:9879, V-B:HIS:456:CE1:9041, V-A:GLU:543:CB:4906, V-A:HIS:456:CE1:4069, V-B:GLU:543:CG:9878, V-A:TYR:539:CE2:4876, V-A:TYR:539:CZ:4877, V-B:ASP:366:CA:8181, V-B:ASP:366:C:8179, V-A:MET:535:CE:4835, H-A:TYR:539:OH:4878, V-B:ASN:370:CB:8216, V-B:TYR:531:CE1:9763, V-B:ASN:370:CG:8217, V-A:ARG:545:CA:4919, V-A:GLY:544:C:4912, H-B:ASN:370:N:8215, H-B:GLU:543:OE1:9880"]

$$$$
4cb_Grossjean_2025
     RDKit          3D

 49 52  0  0  0  0  0  0  0  0999 V2000
  124.8920  122.5630   55.6660 C   0  0  0  0  0  0  0  0  0  0  0  0
  125.4140  122.8530   56.9550 O   0  0  0  0  0  0  0  0  0  0  0  0
  126.6810  122.5000   57.2910 C   0  0  0  0  0  0  0  0  0  0  0  0
  127.3870  121.7560   56.6030 O   0  0  0  0  0  0  0  0  0  0  0  0
  127.1420  123.1070   58.5860 C   0  0  0  0  0  0  0  0  0  0  0  0
  126.4350  124.1910   59.1230 C   0  0  0  0  0  0  0  0  0  0  0  0
  126.8330  124.7700   60.3250 C   0  0  0  0  0  0  0  0  0  0  0  0
  127.9460  124.2840   61.0100 C   0  0  0  0  0  0  0  0  0  0  0  0
  128.2500  124.9340   62.2220 N   0  0  0  0  0  0  0  0  0  0  0  0
  129.4430  125.3410   62.7190 C   0  0  0  0  0  0  0  0  0  0  0  0
  130.5140  125.2360   62.1200 O   0  0  0  0  0  0  0  0  0  0  0  0
  129.3910  125.9540   64.0490 C   0  0  0  0  0  0  0  0  0  0  0  0
  130.3130  125.2610   65.3820 S   0  0  0  0  0  0  0  0  0  0  0  0
  129.7680  126.5140   66.4710 C   0  0  0  0  0  0  0  0  0  0  0  0
  130.1560  126.5470   67.7430 N   0  0  0  0  0  0  0  0  0  0  0  0
  129.6880  127.5660   68.5110 C   0  0  0  0  0  0  0  0  0  0  0  0
  130.1480  127.5790   69.9400 C   0  0  0  0  0  0  0  0  0  0  0  0
  129.3570  127.0170   70.9540 C   0  0  0  0  0  0  0  0  0  0  0  0
  129.7760  127.0290   72.2820 C   0  0  0  0  0  0  0  0  0  0  0  0
  130.9970  127.6050   72.6150 C   0  0  0  0  0  0  0  0  0  0  0  0
  131.8000  128.1720   71.6300 C   0  0  0  0  0  0  0  0  0  0  0  0
  131.3760  128.1590   70.3040 C   0  0  0  0  0  0  0  0  0  0  0  0
  128.8150  128.5330   68.0010 C   0  0  0  0  0  0  0  0  0  0  0  0
  128.3970  128.5060   66.6630 C   0  0  0  0  0  0  0  0  0  0  0  0
  127.4400  129.5990   66.1690 C   0  0  0  0  0  0  0  0  0  0  0  0
  126.2720  129.1170   65.7400 F   0  0  0  0  0  0  0  0  0  0  0  0
  127.1800  130.4510   67.1610 F   0  0  0  0  0  0  0  0  0  0  0  0
  127.9960  130.2610   65.1540 F   0  0  0  0  0  0  0  0  0  0  0  0
  128.8950  127.4510   65.8450 C   0  0  0  0  0  0  0  0  0  0  0  0
  128.7010  127.1080   64.4570 C   0  0  0  0  0  0  0  0  0  0  0  0
  127.9110  127.8470   63.6140 N   0  0  0  0  0  0  0  0  0  0  0  0
  128.6580  123.1970   60.4810 C   0  0  0  0  0  0  0  0  0  0  0  0
  128.2580  122.6180   59.2800 C   0  0  0  0  0  0  0  0  0  0  0  0
  123.9347  122.0312   55.7692 H   0  0  0  0  0  0  0  0  0  0  0  0
  124.7324  123.5018   55.1153 H   0  0  0  0  0  0  0  0  0  0  0  0
  125.6047  121.9315   55.1153 H   0  0  0  0  0  0  0  0  0  0  0  0
  125.5582  124.5879   58.5904 H   0  0  0  0  0  0  0  0  0  0  0  0
  126.2652  125.6171   60.7373 H   0  0  0  0  0  0  0  0  0  0  0  0
  127.4440  125.1300   62.7970 H   0  0  0  0  0  0  0  0  0  0  0  0
  128.3905  126.5597   70.6956 H   0  0  0  0  0  0  0  0  0  0  0  0
  129.1435  126.5845   73.0645 H   0  0  0  0  0  0  0  0  0  0  0  0
  131.3302  127.6125   73.6633 H   0  0  0  0  0  0  0  0  0  0  0  0
  132.7646  128.6280   71.8977 H   0  0  0  0  0  0  0  0  0  0  0  0
  132.0123  128.6100   69.5282 H   0  0  0  0  0  0  0  0  0  0  0  0
  128.4489  129.3311   68.6636 H   0  0  0  0  0  0  0  0  0  0  0  0
  128.2950  128.5570   63.0060 H   0  0  0  0  0  0  0  0  0  0  0  0
  126.9110  127.7040   63.5690 H   0  0  0  0  0  0  0  0  0  0  0  0
  129.5339  122.8016   61.0163 H   0  0  0  0  0  0  0  0  0  0  0  0
  128.8234  121.7677   58.8710 H   0  0  0  0  0  0  0  0  0  0  0  0
  1  2  1  0
  2  3  1  0
  3  4  2  0
  3  5  1  0
  5  6  2  0
  6  7  1  0
  7  8  2  0
  8  9  1  0
  9 10  1  0
 10 11  2  0
 10 12  1  0
 12 13  1  0
 13 14  1  0
 14 15  2  0
 15 16  1  0
 16 17  1  0
 17 18  2  0
 18 19  1  0
 19 20  2  0
 20 21  1  0
 21 22  2  0
 16 23  2  0
 23 24  1  0
 24 25  1  0
 25 26  1  0
 25 27  1  0
 25 28  1  0
 24 29  2  0
 29 30  1  0
 30 31  1  0
  8 32  1  0
 32 33  2  0
 33  5  1  0
 30 12  2  0
 29 14  1  0
 22 17  1  0
  1 34  1  0
  1 35  1  0
  1 36  1  0
  6 37  1  0
  7 38  1  0
  9 39  1  0
 18 40  1  0
 19 41  1  0
 20 42  1  0
 21 43  1  0
 22 44  1  0
 23 45  1  0
 31 46  1  0
 31 47  1  0
 32 48  1  0
 33 49  1  0
M  END
>  <Binding energies>  (1) 
[-7.52]

>  <Ligand effiencies>  (1) 
[-0.20888888888888887]

>  <Interactions>  (1) 
["V-B:TYR:539:CD2:9845, V-B:MET:535:CE:9806, V-B:TYR:539:CE2:9847, V-B:TYR:539:C:9838, V-B:PRO:540:CD:9858, V-B:PRO:540:N:9855, V-B:PRO:540:CB:9856, V-B:PRO:540:CA:9854, V-B:LEU:363:CD1:8160, H-B:GLU:543:OE2:9881, V-A:GLU:543:CD:4908, V-A:GLU:543:CG:4907, V-B:GLU:543:CD:9879, V-B:HIS:456:CE1:9041, V-A:GLU:543:CB:4906, V-A:HIS:456:CE1:4069, V-B:GLU:543:CG:9878, V-B:TYR:484:CE1:9316, H-B:TYR:539:N:9841, V-B:TYR:484:CZ:9318, V-A:ARG:545:CA:4919, V-A:GLY:544:C:4912, V-B:ILE:538:CD1:9836, V-B:ILE:538:CG2:9834, H-B:GLU:543:OE1:9880"]

$$$$
4cc_Grossjean_2025
     RDKit          3D

 47 50  0  0  0  0  0  0  0  0999 V2000
  126.5860  121.9120   54.6540 C   0  0  0  0  0  0  0  0  0  0  0  0
  126.2990  121.8710   56.0480 O   0  0  0  0  0  0  0  0  0  0  0  0
  126.1830  123.0570   56.7470 C   0  0  0  0  0  0  0  0  0  0  0  0
  127.3450  123.8150   56.8850 C   0  0  0  0  0  0  0  0  0  0  0  0
  127.3250  125.0250   57.5720 C   0  0  0  0  0  0  0  0  0  0  0  0
  126.1390  125.4900   58.1420 C   0  0  0  0  0  0  0  0  0  0  0  0
  126.2120  126.7310   58.8040 N   0  0  0  0  0  0  0  0  0  0  0  0
  127.2140  127.6420   58.8070 C   0  0  0  0  0  0  0  0  0  0  0  0
  128.2550  127.5230   58.1590 O   0  0  0  0  0  0  0  0  0  0  0  0
  126.9900  128.8210   59.6490 C   0  0  0  0  0  0  0  0  0  0  0  0
  127.2330  130.4390   58.9940 S   0  0  0  0  0  0  0  0  0  0  0  0
  126.7820  131.1710   60.5150 C   0  0  0  0  0  0  0  0  0  0  0  0
  126.7640  132.4930   60.6720 N   0  0  0  0  0  0  0  0  0  0  0  0
  126.3910  132.9700   61.8870 C   0  0  0  0  0  0  0  0  0  0  0  0
  126.3840  134.4630   62.0350 C   0  0  0  0  0  0  0  0  0  0  0  0
  127.5210  135.2220   61.7150 C   0  0  0  0  0  0  0  0  0  0  0  0
  127.5230  136.6080   61.8520 C   0  0  0  0  0  0  0  0  0  0  0  0
  126.3830  137.2570   62.3130 C   0  0  0  0  0  0  0  0  0  0  0  0
  125.2430  136.5300   62.6410 C   0  0  0  0  0  0  0  0  0  0  0  0
  125.2470  135.1440   62.5040 C   0  0  0  0  0  0  0  0  0  0  0  0
  126.0520  132.1180   62.9430 C   0  0  0  0  0  0  0  0  0  0  0  0
  126.0690  130.7220   62.7890 C   0  0  0  0  0  0  0  0  0  0  0  0
  125.6810  129.8480   63.9870 C   0  0  0  0  0  0  0  0  0  0  0  0
  126.4750  128.7850   64.1410 F   0  0  0  0  0  0  0  0  0  0  0  0
  125.7510  130.5630   65.1090 F   0  0  0  0  0  0  0  0  0  0  0  0
  124.4370  129.3960   63.8310 F   0  0  0  0  0  0  0  0  0  0  0  0
  126.4510  130.2110   61.5160 C   0  0  0  0  0  0  0  0  0  0  0  0
  126.5840  128.8740   60.9920 C   0  0  0  0  0  0  0  0  0  0  0  0
  126.3300  127.7550   61.7440 N   0  0  0  0  0  0  0  0  0  0  0  0
  124.9620  124.7390   57.9980 C   0  0  0  0  0  0  0  0  0  0  0  0
  124.9870  123.5300   57.3090 C   0  0  0  0  0  0  0  0  0  0  0  0
  127.6651  122.0662   54.5062 H   0  0  0  0  0  0  0  0  0  0  0  0
  126.2843  120.9616   54.1894 H   0  0  0  0  0  0  0  0  0  0  0  0
  126.0303  122.7399   54.1894 H   0  0  0  0  0  0  0  0  0  0  0  0
  128.2867  123.4531   56.4466 H   0  0  0  0  0  0  0  0  0  0  0  0
  128.2473  125.6171   57.6661 H   0  0  0  0  0  0  0  0  0  0  0  0
  125.3830  126.9770   59.3230 H   0  0  0  0  0  0  0  0  0  0  0  0
  128.4255  134.7134   61.3499 H   0  0  0  0  0  0  0  0  0  0  0  0
  128.4228  137.1869   61.5965 H   0  0  0  0  0  0  0  0  0  0  0  0
  126.3824  138.3519   62.4190 H   0  0  0  0  0  0  0  0  0  0  0  0
  124.3435  137.0470   63.0065 H   0  0  0  0  0  0  0  0  0  0  0  0
  124.3449  134.5723   62.7673 H   0  0  0  0  0  0  0  0  0  0  0  0
  125.7664  132.5498   63.9135 H   0  0  0  0  0  0  0  0  0  0  0  0
  125.6500  127.0630   61.4610 H   0  0  0  0  0  0  0  0  0  0  0  0
  126.8170  127.5860   62.6130 H   0  0  0  0  0  0  0  0  0  0  0  0
  124.0193  125.1062   58.4299 H   0  0  0  0  0  0  0  0  0  0  0  0
  124.0636  122.9415   57.2042 H   0  0  0  0  0  0  0  0  0  0  0  0
  1  2  1  0
  2  3  1  0
  3  4  2  0
  4  5  1  0
  5  6  2  0
  6  7  1  0
  7  8  1  0
  8  9  2  0
  8 10  1  0
 10 11  1  0
 11 12  1  0
 12 13  2  0
 13 14  1  0
 14 15  1  0
 15 16  2  0
 16 17  1  0
 17 18  2  0
 18 19  1  0
 19 20  2  0
 14 21  2  0
 21 22  1  0
 22 23  1  0
 23 24  1  0
 23 25  1  0
 23 26  1  0
 22 27  2  0
 27 28  1  0
 28 29  1  0
  6 30  1  0
 30 31  2  0
 31  3  1  0
 28 10  2  0
 27 12  1  0
 20 15  1  0
  1 32  1  0
  1 33  1  0
  1 34  1  0
  4 35  1  0
  5 36  1  0
  7 37  1  0
 16 38  1  0
 17 39  1  0
 18 40  1  0
 19 41  1  0
 20 42  1  0
 21 43  1  0
 29 44  1  0
 29 45  1  0
 30 46  1  0
 31 47  1  0
M  END
>  <Binding energies>  (1) 
[-7.85]

>  <Ligand effiencies>  (1) 
[-0.23088235294117646]

>  <Interactions>  (1) 
["V-B:MET:535:CE:9806, V-B:ASP:366:CG:8184, H-B:ASP:366:OD2:8186, V-B:PRO:540:N:9855, V-B:PRO:540:CB:9856, H-B:TYR:531:OH:9766, V-B:LEU:363:CD1:8160, H-B:GLU:543:OE2:9881, V-B:PRO:482:CB:9297, V-B:LEU:475:CD1:9229, V-B:TRP:381:CH2:8343, V-A:TYR:539:CD2:4874, V-A:ALA:541:CB:4892, V-B:PRO:482:CG:9298, V-B:TRP:381:CZ2:8341, V-B:GLU:543:CD:9879, V-B:TYR:539:CD1:9844, V-B:TYR:539:CE1:9846, H-B:TYR:539:N:9841, V-B:ARG:545:CZ:9897, V-B:TRP:381:CE2:8338, V-B:ILE:538:CA:9831, V-B:ILE:538:C:9829, V-B:ILE:538:CD1:9836, H-B:ASP:366:OD1:8185, V-B:ILE:538:CB:9833, V-B:VAL:537:C:9821"]

$$$$
4cd_Grossjean_2025
     RDKit          3D

 43 46  0  0  0  0  0  0  0  0999 V2000
  130.0900  129.2150   56.1350 N   0  0  0  0  0  0  0  0  0  0  0  0
  128.9990  129.3340   56.9590 C   0  0  0  0  0  0  0  0  0  0  0  0
  128.0380  128.3210   57.1140 C   0  0  0  0  0  0  0  0  0  0  0  0
  127.9800  127.0100   56.4610 C   0  0  0  0  0  0  0  0  0  0  0  0
  128.7360  126.7380   55.5290 O   0  0  0  0  0  0  0  0  0  0  0  0
  127.0590  126.1520   56.9640 N   0  0  0  0  0  0  0  0  0  0  0  0
  126.7160  124.8540   56.5400 C   0  0  0  0  0  0  0  0  0  0  0  0
  125.4510  124.3990   56.9220 C   0  0  0  0  0  0  0  0  0  0  0  0
  125.0150  123.1340   56.5400 C   0  0  0  0  0  0  0  0  0  0  0  0
  125.8410  122.3240   55.7660 C   0  0  0  0  0  0  0  0  0  0  0  0
  127.0980  122.7700   55.3660 C   0  0  0  0  0  0  0  0  0  0  0  0
  127.5390  124.0350   55.7480 C   0  0  0  0  0  0  0  0  0  0  0  0
  126.7830  128.8050   58.2530 S   0  0  0  0  0  0  0  0  0  0  0  0
  127.5460  130.3570   58.5040 C   0  0  0  0  0  0  0  0  0  0  0  0
  127.0250  131.2610   59.3300 N   0  0  0  0  0  0  0  0  0  0  0  0
  127.6830  132.4440   59.4500 C   0  0  0  0  0  0  0  0  0  0  0  0
  127.0710  133.4450   60.3870 C   0  0  0  0  0  0  0  0  0  0  0  0
  125.6860  133.4570   60.6210 C   0  0  0  0  0  0  0  0  0  0  0  0
  125.1120  134.3810   61.4890 C   0  0  0  0  0  0  0  0  0  0  0  0
  125.9170  135.3100   62.1380 C   0  0  0  0  0  0  0  0  0  0  0  0
  127.2920  135.3190   61.9270 C   0  0  0  0  0  0  0  0  0  0  0  0
  127.8620  134.3910   61.0610 C   0  0  0  0  0  0  0  0  0  0  0  0
  128.8680  132.7050   58.7560 C   0  0  0  0  0  0  0  0  0  0  0  0
  129.4270  131.7560   57.8850 C   0  0  0  0  0  0  0  0  0  0  0  0
  130.7270  132.1090   57.1520 C   0  0  0  0  0  0  0  0  0  0  0  0
  131.7420  131.3010   57.4660 F   0  0  0  0  0  0  0  0  0  0  0  0
  130.5410  132.0230   55.8350 F   0  0  0  0  0  0  0  0  0  0  0  0
  131.0970  133.3520   57.4640 F   0  0  0  0  0  0  0  0  0  0  0  0
  128.7400  130.5170   57.7420 C   0  0  0  0  0  0  0  0  0  0  0  0
  130.8940  129.8190   56.2240 H   0  0  0  0  0  0  0  0  0  0  0  0
  130.1270  128.5120   55.4100 H   0  0  0  0  0  0  0  0  0  0  0  0
  126.5450  126.4740   57.7720 H   0  0  0  0  0  0  0  0  0  0  0  0
  124.7970  125.0438   57.5274 H   0  0  0  0  0  0  0  0  0  0  0  0
  124.0218  122.7756   56.8484 H   0  0  0  0  0  0  0  0  0  0  0  0
  125.4977  121.3225   55.4676 H   0  0  0  0  0  0  0  0  0  0  0  0
  127.7414  122.1248   54.7497 H   0  0  0  0  0  0  0  0  0  0  0  0
  128.5297  124.3923   55.4303 H   0  0  0  0  0  0  0  0  0  0  0  0
  125.0446  132.7240   60.1098 H   0  0  0  0  0  0  0  0  0  0  0  0
  124.0255  134.3762   61.6608 H   0  0  0  0  0  0  0  0  0  0  0  0
  125.4641  136.0424   62.8225 H   0  0  0  0  0  0  0  0  0  0  0  0
  127.9255  136.0561   62.4422 H   0  0  0  0  0  0  0  0  0  0  0  0
  128.9503  134.3980   60.9012 H   0  0  0  0  0  0  0  0  0  0  0  0
  129.3724  133.6726   58.8949 H   0  0  0  0  0  0  0  0  0  0  0  0
  1  2  1  0
  2  3  2  0
  3  4  1  0
  4  5  2  0
  4  6  1  0
  6  7  1  0
  7  8  2  0
  8  9  1  0
  9 10  2  0
 10 11  1  0
 11 12  2  0
  3 13  1  0
 13 14  1  0
 14 15  2  0
 15 16  1  0
 16 17  1  0
 17 18  2  0
 18 19  1  0
 19 20  2  0
 20 21  1  0
 21 22  2  0
 16 23  2  0
 23 24  1  0
 24 25  1  0
 25 26  1  0
 25 27  1  0
 25 28  1  0
 24 29  2  0
 29  2  1  0
 12  7  1  0
 29 14  1  0
 22 17  1  0
  1 30  1  0
  1 31  1  0
  6 32  1  0
  8 33  1  0
  9 34  1  0
 10 35  1  0
 11 36  1  0
 12 37  1  0
 18 38  1  0
 19 39  1  0
 20 40  1  0
 21 41  1  0
 22 42  1  0
 23 43  1  0
M  END
>  <Binding energies>  (1) 
[-7.17]

>  <Ligand effiencies>  (1) 
[-0.2240625]

>  <Interactions>  (1) 
["V-B:MET:535:CE:9806, V-B:PRO:540:CD:9858, V-B:PRO:540:N:9855, V-B:PRO:540:CB:9856, H-B:TYR:531:OH:9766, V-B:LEU:363:CD1:8160, V-B:TYR:539:CZ:9848, V-A:PRO:540:N:4884, V-B:LEU:475:CD1:9229, V-A:PRO:540:CB:4885, V-A:TYR:539:CD2:4874, V-A:ALA:541:CB:4892, V-A:PRO:540:CA:4883, V-A:TYR:539:C:4867, V-A:TYR:539:CE2:4876, V-B:TYR:539:CD1:9844, V-B:TYR:539:CE1:9846, H-A:TYR:531:OH:4795, V-A:TYR:531:CZ:4794, V-A:MET:535:CE:4835, V-A:TYR:539:CA:4869, V-A:PRO:540:CD:4887, V-B:ILE:538:CA:9831, V-B:ILE:538:CD1:9836, H-A:MET:535:SD:4834"]

$$$$
4ce_Grossjean_2025
     RDKit          3D

 45 48  0  0  0  0  0  0  0  0999 V2000
  127.4880  123.3720   55.4340 C   0  0  0  0  0  0  0  0  0  0  0  0
  126.4700  123.7770   56.4830 C   0  0  0  0  0  0  0  0  0  0  0  0
  125.3710  122.9680   56.7850 C   0  0  0  0  0  0  0  0  0  0  0  0
  124.4790  123.4000   57.7680 C   0  0  0  0  0  0  0  0  0  0  0  0
  124.7050  124.6140   58.4190 C   0  0  0  0  0  0  0  0  0  0  0  0
  125.8230  125.3780   58.0640 C   0  0  0  0  0  0  0  0  0  0  0  0
  126.0100  126.5790   58.7720 N   0  0  0  0  0  0  0  0  0  0  0  0
  127.1670  127.2300   59.0490 C   0  0  0  0  0  0  0  0  0  0  0  0
  128.2760  126.8410   58.6800 O   0  0  0  0  0  0  0  0  0  0  0  0
  127.0260  128.4590   59.8320 C   0  0  0  0  0  0  0  0  0  0  0  0
  127.3170  130.0270   59.0810 S   0  0  0  0  0  0  0  0  0  0  0  0
  126.9200  130.8610   60.5640 C   0  0  0  0  0  0  0  0  0  0  0  0
  126.9510  132.1890   60.6440 N   0  0  0  0  0  0  0  0  0  0  0  0
  126.6110  132.7480   61.8350 C   0  0  0  0  0  0  0  0  0  0  0  0
  126.6510  134.2460   61.8890 C   0  0  0  0  0  0  0  0  0  0  0  0
  125.4830  134.9860   62.1370 C   0  0  0  0  0  0  0  0  0  0  0  0
  125.5120  136.3780   62.1820 C   0  0  0  0  0  0  0  0  0  0  0  0
  126.7120  137.0500   61.9810 C   0  0  0  0  0  0  0  0  0  0  0  0
  127.8830  136.3420   61.7330 C   0  0  0  0  0  0  0  0  0  0  0  0
  127.8500  134.9500   61.6860 C   0  0  0  0  0  0  0  0  0  0  0  0
  126.2620  131.9710   62.9440 C   0  0  0  0  0  0  0  0  0  0  0  0
  126.2310  130.5690   62.8730 C   0  0  0  0  0  0  0  0  0  0  0  0
  125.8380  129.7790   64.1250 C   0  0  0  0  0  0  0  0  0  0  0  0
  126.6410  128.7400   64.3630 F   0  0  0  0  0  0  0  0  0  0  0  0
  125.8880  130.5750   65.1950 F   0  0  0  0  0  0  0  0  0  0  0  0
  124.6000  129.3050   63.9890 F   0  0  0  0  0  0  0  0  0  0  0  0
  126.5710  129.9730   61.6240 C   0  0  0  0  0  0  0  0  0  0  0  0
  126.6420  128.6030   61.1760 C   0  0  0  0  0  0  0  0  0  0  0  0
  126.3580  127.5400   61.9930 N   0  0  0  0  0  0  0  0  0  0  0  0
  126.7020  124.9600   57.1070 N   0  0  0  0  0  0  0  0  0  0  0  0
  128.4005  123.0090   55.9295 H   0  0  0  0  0  0  0  0  0  0  0  0
  127.0689  122.5721   54.8059 H   0  0  0  0  0  0  0  0  0  0  0  0
  127.7329  124.2412   54.8059 H   0  0  0  0  0  0  0  0  0  0  0  0
  125.2128  122.0140   56.2608 H   0  0  0  0  0  0  0  0  0  0  0  0
  123.6032  122.7874   58.0281 H   0  0  0  0  0  0  0  0  0  0  0  0
  124.0144  124.9653   59.1998 H   0  0  0  0  0  0  0  0  0  0  0  0
  125.1580  127.0260   59.0770 H   0  0  0  0  0  0  0  0  0  0  0  0
  124.5313  134.4584   62.2981 H   0  0  0  0  0  0  0  0  0  0  0  0
  124.5885  136.9433   62.3759 H   0  0  0  0  0  0  0  0  0  0  0  0
  126.7356  138.1491   62.0183 H   0  0  0  0  0  0  0  0  0  0  0  0
  128.8303  136.8782   61.5748 H   0  0  0  0  0  0  0  0  0  0  0  0
  128.7775  134.3931   61.4868 H   0  0  0  0  0  0  0  0  0  0  0  0
  126.0065  132.4683   63.8913 H   0  0  0  0  0  0  0  0  0  0  0  0
  126.8540  127.3820   62.8590 H   0  0  0  0  0  0  0  0  0  0  0  0
  125.6400  126.8700   61.7530 H   0  0  0  0  0  0  0  0  0  0  0  0
  1  2  1  0
  2  3  2  0
  3  4  1  0
  4  5  2  0
  5  6  1  0
  6  7  1  0
  7  8  1  0
  8  9  2  0
  8 10  1  0
 10 11  1  0
 11 12  1  0
 12 13  2  0
 13 14  1  0
 14 15  1  0
 15 16  2  0
 16 17  1  0
 17 18  2  0
 18 19  1  0
 19 20  2  0
 14 21  2  0
 21 22  1  0
 22 23  1  0
 23 24  1  0
 23 25  1  0
 23 26  1  0
 22 27  2  0
 27 28  1  0
 28 29  1  0
  6 30  2  0
 30  2  1  0
 28 10  2  0
 27 12  1  0
 20 15  1  0
  1 31  1  0
  1 32  1  0
  1 33  1  0
  3 34  1  0
  4 35  1  0
  5 36  1  0
  7 37  1  0
 16 38  1  0
 17 39  1  0
 18 40  1  0
 19 41  1  0
 20 42  1  0
 21 43  1  0
 29 44  1  0
 29 45  1  0
M  END
>  <Binding energies>  (1) 
[-7.52]

>  <Ligand effiencies>  (1) 
[-0.22787878787878788]

>  <Interactions>  (1) 
["V-B:MET:535:CE:9806, V-B:ASP:366:CG:8184, V-B:PRO:540:CD:9858, H-B:ASP:366:OD2:8186, V-B:PRO:540:N:9855, V-B:LEU:363:CA:8156, V-B:PRO:540:CB:9856, H-B:TYR:531:OH:9766, V-B:PRO:540:CA:9854, V-B:LEU:363:CD1:8160, V-B:TYR:539:CZ:9848, V-B:ASP:366:CB:8183, H-B:GLU:543:OE2:9881, V-B:PRO:482:CB:9297, V-B:LEU:475:CD1:9229, V-B:TRP:381:CH2:8343, V-A:TYR:539:CD2:4874, V-A:ALA:541:CB:4892, V-B:PRO:482:CG:9298, V-B:TRP:381:CZ2:8341, V-B:GLU:543:CD:9879, V-B:TYR:539:CD1:9844, V-B:TYR:539:CE1:9846, V-B:ARG:545:CZ:9897, V-B:TRP:381:CE2:8338, V-B:TRP:381:CZ3:8342, H-B:ASP:366:OD1:8185"]

$$$$
4cf_Grossjean_2025
     RDKit          3D

 42 45  0  0  0  0  0  0  0  0999 V2000
  126.3450  127.5070   62.0410 N   0  0  0  0  0  0  0  0  0  0  0  0
  126.5940  128.5660   61.2060 C   0  0  0  0  0  0  0  0  0  0  0  0
  126.9400  128.4160   59.8540 C   0  0  0  0  0  0  0  0  0  0  0  0
  127.1370  127.1780   59.0930 C   0  0  0  0  0  0  0  0  0  0  0  0
  128.2720  126.7970   58.8010 O   0  0  0  0  0  0  0  0  0  0  0  0
  126.0050  126.5120   58.7650 N   0  0  0  0  0  0  0  0  0  0  0  0
  125.8420  125.3360   58.0070 C   0  0  0  0  0  0  0  0  0  0  0  0
  126.6640  124.9330   56.9380 C   0  0  0  0  0  0  0  0  0  0  0  0
  126.3810  123.7460   56.2590 C   0  0  0  0  0  0  0  0  0  0  0  0
  125.2810  122.9900   56.6630 C   0  0  0  0  0  0  0  0  0  0  0  0
  124.4680  123.3600   57.6850 N   0  0  0  0  0  0  0  0  0  0  0  0
  124.7550  124.5170   58.3350 C   0  0  0  0  0  0  0  0  0  0  0  0
  127.1810  129.9810   59.0810 S   0  0  0  0  0  0  0  0  0  0  0  0
  126.8260  130.8220   60.5710 C   0  0  0  0  0  0  0  0  0  0  0  0
  126.8530  132.1510   60.6430 N   0  0  0  0  0  0  0  0  0  0  0  0
  126.5790  132.7140   61.8490 C   0  0  0  0  0  0  0  0  0  0  0  0
  126.6250  134.2130   61.9010 C   0  0  0  0  0  0  0  0  0  0  0  0
  125.4620  134.9590   62.1470 C   0  0  0  0  0  0  0  0  0  0  0  0
  125.4960  136.3500   62.1980 C   0  0  0  0  0  0  0  0  0  0  0  0
  126.7010  137.0170   62.0050 C   0  0  0  0  0  0  0  0  0  0  0  0
  127.8700  136.3030   61.7630 C   0  0  0  0  0  0  0  0  0  0  0  0
  127.8310  134.9130   61.7130 C   0  0  0  0  0  0  0  0  0  0  0  0
  126.2550  131.9420   62.9680 C   0  0  0  0  0  0  0  0  0  0  0  0
  126.2180  130.5400   62.9020 C   0  0  0  0  0  0  0  0  0  0  0  0
  125.8600  129.7550   64.1690 C   0  0  0  0  0  0  0  0  0  0  0  0
  126.6720  128.7190   64.3910 F   0  0  0  0  0  0  0  0  0  0  0  0
  125.9360  130.5550   65.2320 F   0  0  0  0  0  0  0  0  0  0  0  0
  124.6210  129.2740   64.0680 F   0  0  0  0  0  0  0  0  0  0  0  0
  126.5220  129.9380   61.6470 C   0  0  0  0  0  0  0  0  0  0  0  0
  126.8650  127.3670   62.8960 H   0  0  0  0  0  0  0  0  0  0  0  0
  125.6280  126.8270   61.8280 H   0  0  0  0  0  0  0  0  0  0  0  0
  125.1410  126.9040   59.1120 H   0  0  0  0  0  0  0  0  0  0  0  0
  127.5245  125.5496   56.6390 H   0  0  0  0  0  0  0  0  0  0  0  0
  127.0131  123.4140   55.4222 H   0  0  0  0  0  0  0  0  0  0  0  0
  125.0626  122.0528   56.1301 H   0  0  0  0  0  0  0  0  0  0  0  0
  124.0995  124.8269   59.1622 H   0  0  0  0  0  0  0  0  0  0  0  0
  124.5070  134.4357   62.3022 H   0  0  0  0  0  0  0  0  0  0  0  0
  124.5742  136.9187   62.3900 H   0  0  0  0  0  0  0  0  0  0  0  0
  126.7298  138.1159   62.0440 H   0  0  0  0  0  0  0  0  0  0  0  0
  128.8210  136.8348   61.6118 H   0  0  0  0  0  0  0  0  0  0  0  0
  128.7581  134.3522   61.5234 H   0  0  0  0  0  0  0  0  0  0  0  0
  126.0243  132.4429   63.9198 H   0  0  0  0  0  0  0  0  0  0  0  0
  1  2  1  0
  2  3  2  0
  3  4  1  0
  4  5  2  0
  4  6  1  0
  6  7  1  0
  7  8  2  0
  8  9  1  0
  9 10  2  0
 10 11  1  0
 11 12  2  0
  3 13  1  0
 13 14  1  0
 14 15  2  0
 15 16  1  0
 16 17  1  0
 17 18  2  0
 18 19  1  0
 19 20  2  0
 20 21  1  0
 21 22  2  0
 16 23  2  0
 23 24  1  0
 24 25  1  0
 25 26  1  0
 25 27  1  0
 25 28  1  0
 24 29  2  0
 29  2  1  0
 12  7  1  0
 29 14  1  0
 22 17  1  0
  1 30  1  0
  1 31  1  0
  6 32  1  0
  8 33  1  0
  9 34  1  0
 10 35  1  0
 12 36  1  0
 18 37  1  0
 19 38  1  0
 20 39  1  0
 21 40  1  0
 22 41  1  0
 23 42  1  0
M  END
>  <Binding energies>  (1) 
[-6.99]

>  <Ligand effiencies>  (1) 
[-0.2184375]

>  <Interactions>  (1) 
["V-B:MET:535:CE:9806, V-B:ASP:366:CG:8184, V-B:PRO:540:CD:9858, H-B:ASP:366:OD2:8186, V-B:PRO:540:N:9855, V-B:PRO:540:CB:9856, H-B:TYR:531:OH:9766, V-B:LEU:363:CD1:8160, V-B:ASP:366:CB:8183, H-B:GLU:543:OE2:9881, V-B:PRO:482:CB:9297, V-B:LEU:475:CD1:9229, V-B:TRP:381:CH2:8343, V-A:TYR:539:CD2:4874, V-A:ALA:541:CB:4892, V-B:PRO:482:CG:9298, V-B:TRP:381:CZ2:8341, V-B:GLU:543:CD:9879, V-B:ARG:545:CZ:9897, V-B:TRP:381:CE2:8338, V-B:TRP:381:CZ3:8342, H-B:ASP:366:OD1:8185, H-B:GLU:543:OE1:9880"]

$$$$
4cg_Grossjean_2025
     RDKit          3D

 46 49  0  0  0  0  0  0  0  0999 V2000
  127.2670  128.1680   63.2880 N   0  0  0  0  0  0  0  0  0  0  0  0
  127.0410  128.6080   64.5670 C   0  0  0  0  0  0  0  0  0  0  0  0
  125.9810  129.4590   64.9100 C   0  0  0  0  0  0  0  0  0  0  0  0
  124.9240  129.9910   64.0510 C   0  0  0  0  0  0  0  0  0  0  0  0
  123.7560  130.0660   64.4410 O   0  0  0  0  0  0  0  0  0  0  0  0
  125.2980  130.3530   62.8060 N   0  0  0  0  0  0  0  0  0  0  0  0
  124.4190  130.9270   61.7900 C   0  0  0  0  0  0  0  0  0  0  0  0
  124.3790  132.4510   61.8130 C   0  0  0  0  0  0  0  0  0  0  0  0
  124.8980  133.1760   60.7370 C   0  0  0  0  0  0  0  0  0  0  0  0
  124.8350  134.5680   60.7400 C   0  0  0  0  0  0  0  0  0  0  0  0
  124.2450  135.2280   61.8150 C   0  0  0  0  0  0  0  0  0  0  0  0
  123.7120  134.5110   62.8840 C   0  0  0  0  0  0  0  0  0  0  0  0
  123.7720  133.1200   62.8800 C   0  0  0  0  0  0  0  0  0  0  0  0
  125.9710  129.8100   66.6360 S   0  0  0  0  0  0  0  0  0  0  0  0
  127.4000  128.8330   66.8840 C   0  0  0  0  0  0  0  0  0  0  0  0
  127.9400  128.6870   68.0900 N   0  0  0  0  0  0  0  0  0  0  0  0
  129.0470  127.9050   68.1870 C   0  0  0  0  0  0  0  0  0  0  0  0
  129.6340  127.7630   69.5620 C   0  0  0  0  0  0  0  0  0  0  0  0
  130.8070  128.4490   69.9200 C   0  0  0  0  0  0  0  0  0  0  0  0
  131.3560  128.3190   71.1930 C   0  0  0  0  0  0  0  0  0  0  0  0
  130.7390  127.4960   72.1300 C   0  0  0  0  0  0  0  0  0  0  0  0
  129.5790  126.8030   71.8020 C   0  0  0  0  0  0  0  0  0  0  0  0
  129.0340  126.9350   70.5280 C   0  0  0  0  0  0  0  0  0  0  0  0
  129.6150  127.2880   67.0670 C   0  0  0  0  0  0  0  0  0  0  0  0
  129.0530  127.4350   65.7890 C   0  0  0  0  0  0  0  0  0  0  0  0
  129.7270  126.7320   64.6040 C   0  0  0  0  0  0  0  0  0  0  0  0
  129.8620  127.5200   63.5360 F   0  0  0  0  0  0  0  0  0  0  0  0
  130.9460  126.3240   64.9570 F   0  0  0  0  0  0  0  0  0  0  0  0
  129.0010  125.6790   64.2340 F   0  0  0  0  0  0  0  0  0  0  0  0
  127.8830  128.2420   65.6790 C   0  0  0  0  0  0  0  0  0  0  0  0
  126.7950  127.3590   62.9090 H   0  0  0  0  0  0  0  0  0  0  0  0
  127.9100  128.6480   62.6740 H   0  0  0  0  0  0  0  0  0  0  0  0
  126.2820  130.3330   62.5810 H   0  0  0  0  0  0  0  0  0  0  0  0
  124.7723  130.6026   60.8001 H   0  0  0  0  0  0  0  0  0  0  0  0
  123.4001  130.5727   62.0053 H   0  0  0  0  0  0  0  0  0  0  0  0
  125.3562  132.6479   59.8878 H   0  0  0  0  0  0  0  0  0  0  0  0
  125.2489  135.1423   59.8980 H   0  0  0  0  0  0  0  0  0  0  0  0
  124.1993  136.3270   61.8201 H   0  0  0  0  0  0  0  0  0  0  0  0
  123.2459  135.0415   63.7274 H   0  0  0  0  0  0  0  0  0  0  0  0
  123.3422  132.5480   63.7155 H   0  0  0  0  0  0  0  0  0  0  0  0
  131.2997  129.0995   69.1823 H   0  0  0  0  0  0  0  0  0  0  0  0
  132.2739  128.8648   71.4569 H   0  0  0  0  0  0  0  0  0  0  0  0
  131.1714  127.3930   73.1362 H   0  0  0  0  0  0  0  0  0  0  0  0
  129.0943  126.1535   72.5458 H   0  0  0  0  0  0  0  0  0  0  0  0
  128.1181  126.3822   70.2721 H   0  0  0  0  0  0  0  0  0  0  0  0
  130.5202  126.6754   67.1904 H   0  0  0  0  0  0  0  0  0  0  0  0
  1  2  1  0
  2  3  2  0
  3  4  1  0
  4  5  2  0
  4  6  1  0
  6  7  1  0
  7  8  1  0
  8  9  2  0
  9 10  1  0
 10 11  2  0
 11 12  1  0
 12 13  2  0
  3 14  1  0
 14 15  1  0
 15 16  2  0
 16 17  1  0
 17 18  1  0
 18 19  2  0
 19 20  1  0
 20 21  2  0
 21 22  1  0
 22 23  2  0
 17 24  2  0
 24 25  1  0
 25 26  1  0
 26 27  1  0
 26 28  1  0
 26 29  1  0
 25 30  2  0
 30  2  1  0
 13  8  1  0
 30 15  1  0
 23 18  1  0
  1 31  1  0
  1 32  1  0
  6 33  1  0
  7 34  1  0
  7 35  1  0
  9 36  1  0
 10 37  1  0
 11 38  1  0
 12 39  1  0
 13 40  1  0
 19 41  1  0
 20 42  1  0
 21 43  1  0
 22 44  1  0
 23 45  1  0
 24 46  1  0
M  END
>  <Binding energies>  (1) 
[-7.47]

>  <Ligand effiencies>  (1) 
[-0.22636363636363635]

>  <Interactions>  (1) 
["V-B:ASP:366:CG:8184, H-B:ASP:366:OD2:8186, H-B:GLU:543:OE2:9881, V-A:GLU:543:CD:4908, V-B:LEU:475:CD1:9229, V-B:TRP:381:CH2:8343, V-A:GLU:543:CG:4907, V-A:TYR:539:CD2:4874, V-B:TRP:381:CZ2:8341, V-B:ILE:369:CD1:8210, V-A:HIS:456:CD2:4067, H-B:GLY:454:N:9021, V-B:GLU:543:CD:9879, V-B:HIS:456:CE1:9041, V-B:GLY:454:CA:9020, H-B:ARG:545:NH1:9898, H-B:ARG:545:NH2:9899, H-B:ARG:545:NE:9895, V-A:GLU:543:CB:4906, V-A:HIS:456:CE1:4069, V-B:GLU:543:CG:9878, V-B:ILE:369:CG2:8208, V-A:TYR:539:CE2:4876, V-B:ARG:545:CZ:9897, V-A:ARG:545:CA:4919, V-A:GLY:544:C:4912, H-B:GLU:543:OE1:9880"]

$$$$
4ch_Grossjean_2025
     RDKit          3D

 58 61  0  0  0  0  0  0  0  0999 V2000
  126.7830  123.0500   55.4160 C   0  0  0  0  0  0  0  0  0  0  0  0
  126.7290  122.1210   56.4940 O   0  0  0  0  0  0  0  0  0  0  0  0
  126.8050  122.5870   57.7940 C   0  0  0  0  0  0  0  0  0  0  0  0
  127.9340  122.4380   58.6160 C   0  0  0  0  0  0  0  0  0  0  0  0
  127.9410  122.9350   59.9200 C   0  0  0  0  0  0  0  0  0  0  0  0
  129.1660  122.7390   60.8060 C   0  0  0  0  0  0  0  0  0  0  0  0
  129.1830  123.5840   62.0010 N   0  0  0  0  0  0  0  0  0  0  0  0
  130.2310  124.3200   62.4260 C   0  0  0  0  0  0  0  0  0  0  0  0
  131.2980  124.3720   61.8100 O   0  0  0  0  0  0  0  0  0  0  0  0
  130.0180  125.0910   63.6520 C   0  0  0  0  0  0  0  0  0  0  0  0
  130.8160  124.6110   65.1460 S   0  0  0  0  0  0  0  0  0  0  0  0
  130.1060  125.9550   66.0080 C   0  0  0  0  0  0  0  0  0  0  0  0
  130.3440  126.1540   67.3010 N   0  0  0  0  0  0  0  0  0  0  0  0
  129.7530  127.2290   67.8850 C   0  0  0  0  0  0  0  0  0  0  0  0
  130.0360  127.4220   69.3470 C   0  0  0  0  0  0  0  0  0  0  0  0
  129.1680  126.9030   70.3220 C   0  0  0  0  0  0  0  0  0  0  0  0
  129.4250  127.0790   71.6800 C   0  0  0  0  0  0  0  0  0  0  0  0
  130.5560  127.7790   72.0830 C   0  0  0  0  0  0  0  0  0  0  0  0
  131.4310  128.3070   71.1390 C   0  0  0  0  0  0  0  0  0  0  0  0
  131.1690  128.1300   69.7820 C   0  0  0  0  0  0  0  0  0  0  0  0
  128.9130  128.0880   67.1700 C   0  0  0  0  0  0  0  0  0  0  0  0
  128.6530  127.8870   65.8040 C   0  0  0  0  0  0  0  0  0  0  0  0
  127.7230  128.8670   65.0810 C   0  0  0  0  0  0  0  0  0  0  0  0
  126.7670  128.2580   64.3750 F   0  0  0  0  0  0  0  0  0  0  0  0
  127.1210  129.6570   65.9690 F   0  0  0  0  0  0  0  0  0  0  0  0
  128.4270  129.6160   64.2340 F   0  0  0  0  0  0  0  0  0  0  0  0
  129.2790  126.7700   65.1800 C   0  0  0  0  0  0  0  0  0  0  0  0
  129.2570  126.2570   63.8320 C   0  0  0  0  0  0  0  0  0  0  0  0
  128.5460  126.8520   62.8210 N   0  0  0  0  0  0  0  0  0  0  0  0
  126.8050  123.5730   60.4190 C   0  0  0  0  0  0  0  0  0  0  0  0
  125.6610  123.7340   59.6210 C   0  0  0  0  0  0  0  0  0  0  0  0
  124.5030  124.3560   60.0490 O   0  0  0  0  0  0  0  0  0  0  0  0
  124.2220  124.4270   61.4430 C   0  0  0  0  0  0  0  0  0  0  0  0
  125.6770  123.2420   58.3080 C   0  0  0  0  0  0  0  0  0  0  0  0
  124.5590  123.3800   57.5210 O   0  0  0  0  0  0  0  0  0  0  0  0
  124.1910  124.7290   57.2680 C   0  0  0  0  0  0  0  0  0  0  0  0
  126.8425  124.0729   55.8161 H   0  0  0  0  0  0  0  0  0  0  0  0
  127.6708  122.8452   54.7996 H   0  0  0  0  0  0  0  0  0  0  0  0
  125.8775  122.9494   54.7996 H   0  0  0  0  0  0  0  0  0  0  0  0
  128.8245  121.9227   58.2268 H   0  0  0  0  0  0  0  0  0  0  0  0
  129.1952  121.6872   61.1267 H   0  0  0  0  0  0  0  0  0  0  0  0
  130.0409  123.0251   60.2038 H   0  0  0  0  0  0  0  0  0  0  0  0
  128.3590  123.5460   62.5840 H   0  0  0  0  0  0  0  0  0  0  0  0
  128.2711  126.3488   70.0083 H   0  0  0  0  0  0  0  0  0  0  0  0
  128.7353  126.6654   72.4305 H   0  0  0  0  0  0  0  0  0  0  0  0
  130.7606  127.9164   73.1550 H   0  0  0  0  0  0  0  0  0  0  0  0
  132.3246  128.8611   71.4621 H   0  0  0  0  0  0  0  0  0  0  0  0
  131.8612  128.5519   69.0384 H   0  0  0  0  0  0  0  0  0  0  0  0
  128.4460  128.9388   67.6877 H   0  0  0  0  0  0  0  0  0  0  0  0
  127.5400  126.9410   62.8560 H   0  0  0  0  0  0  0  0  0  0  0  0
  129.0080  127.2270   62.0050 H   0  0  0  0  0  0  0  0  0  0  0  0
  126.8056  123.9547   61.4506 H   0  0  0  0  0  0  0  0  0  0  0  0
  125.1341  124.1965   62.0131 H   0  0  0  0  0  0  0  0  0  0  0  0
  123.8774  125.4404   61.6964 H   0  0  0  0  0  0  0  0  0  0  0  0
  123.4374  123.6989   61.6964 H   0  0  0  0  0  0  0  0  0  0  0  0
  124.0474  125.2552   58.2232 H   0  0  0  0  0  0  0  0  0  0  0  0
  124.9868  125.2244   56.6925 H   0  0  0  0  0  0  0  0  0  0  0  0
  123.2539  124.7516   56.6925 H   0  0  0  0  0  0  0  0  0  0  0  0
  1  2  1  0
  2  3  1  0
  3  4  2  0
  4  5  1  0
  5  6  1  0
  6  7  1  0
  7  8  1  0
  8  9  2  0
  8 10  1  0
 10 11  1  0
 11 12  1  0
 12 13  2  0
 13 14  1  0
 14 15  1  0
 15 16  2  0
 16 17  1  0
 17 18  2  0
 18 19  1  0
 19 20  2  0
 14 21  2  0
 21 22  1  0
 22 23  1  0
 23 24  1  0
 23 25  1  0
 23 26  1  0
 22 27  2  0
 27 28  1  0
 28 29  1  0
  5 30  2  0
 30 31  1  0
 31 32  1  0
 32 33  1  0
 31 34  2  0
 34 35  1  0
 35 36  1  0
 34  3  1  0
 28 10  2  0
 27 12  1  0
 20 15  1  0
  1 37  1  0
  1 38  1  0
  1 39  1  0
  4 40  1  0
  6 41  1  0
  6 42  1  0
  7 43  1  0
 16 44  1  0
 17 45  1  0
 18 46  1  0
 19 47  1  0
 20 48  1  0
 21 49  1  0
 29 50  1  0
 29 51  1  0
 30 52  1  0
 33 53  1  0
 33 54  1  0
 33 55  1  0
 36 56  1  0
 36 57  1  0
 36 58  1  0
M  END
>  <Binding energies>  (1) 
[-7.09]

>  <Ligand effiencies>  (1) 
[-0.1817948717948718]

>  <Interactions>  (1) 
["V-B:TYR:539:CD2:9845, V-B:MET:535:CE:9806, V-B:ASP:366:CG:8184, V-B:TYR:539:CE2:9847, V-B:TYR:539:C:9838, V-B:PRO:540:CD:9858, V-B:PRO:540:N:9855, V-B:LEU:363:CA:8156, V-B:PRO:540:CB:9856, V-B:PRO:540:CA:9854, V-B:LEU:363:CD1:8160, V-B:TYR:539:CZ:9848, V-B:TYR:531:CZ:9765, V-B:TYR:531:CE2:9764, H-B:GLU:543:OE2:9881, V-A:GLU:543:CD:4908, V-A:GLU:543:CG:4907, V-B:GLU:543:CD:9879, V-B:HIS:456:CE1:9041, V-A:GLU:543:CB:4906, V-A:HIS:456:CE1:4069, V-B:GLU:543:CG:9878, V-B:TYR:539:CD1:9844, V-B:TYR:539:CG:9843, V-B:TYR:539:CE1:9846, V-B:ALA:541:CB:9863, H-B:TYR:539:N:9841, V-B:ASN:362:CB:8147, V-B:ARG:545:CZ:9897, V-B:ASN:362:C:8143, V-A:ARG:545:CA:4919, V-A:GLY:544:C:4912, V-B:ASN:362:CA:8145, V-A:ARG:545:CG:4922"]

$$$$
4ci_Grossjean_2025
     RDKit          3D

 39 42  0  0  0  0  0  0  0  0999 V2000
  123.5020  130.7200   60.3330 N   0  0  0  0  0  0  0  0  0  0  0  0
  124.7950  131.0360   60.6620 C   0  0  0  0  0  0  0  0  0  0  0  0
  125.2460  131.1470   61.9870 C   0  0  0  0  0  0  0  0  0  0  0  0
  124.4920  130.9500   63.2280 C   0  0  0  0  0  0  0  0  0  0  0  0
  123.3330  131.3580   63.3310 O   0  0  0  0  0  0  0  0  0  0  0  0
  125.1610  130.3140   64.2220 N   0  0  0  0  0  0  0  0  0  0  0  0
  124.6920  130.0020   65.4920 C   0  0  0  0  0  0  0  0  0  0  0  0
  125.5290  129.6490   66.5490 C   0  0  0  0  0  0  0  0  0  0  0  0
  124.6880  129.4210   67.6130 C   0  0  0  0  0  0  0  0  0  0  0  0
  123.4080  129.6270   67.2170 O   0  0  0  0  0  0  0  0  0  0  0  0
  123.4240  129.9940   65.8710 N   0  0  0  0  0  0  0  0  0  0  0  0
  126.9590  131.5550   62.0440 S   0  0  0  0  0  0  0  0  0  0  0  0
  127.0570  131.5840   60.2980 C   0  0  0  0  0  0  0  0  0  0  0  0
  128.1970  131.8580   59.6700 N   0  0  0  0  0  0  0  0  0  0  0  0
  128.1770  131.8540   58.3120 C   0  0  0  0  0  0  0  0  0  0  0  0
  129.4780  132.1720   57.6320 C   0  0  0  0  0  0  0  0  0  0  0  0
  130.7030  131.9670   58.2880 C   0  0  0  0  0  0  0  0  0  0  0  0
  131.9120  132.2590   57.6620 C   0  0  0  0  0  0  0  0  0  0  0  0
  131.9130  132.7640   56.3660 C   0  0  0  0  0  0  0  0  0  0  0  0
  130.7160  132.9810   55.6950 C   0  0  0  0  0  0  0  0  0  0  0  0
  129.5090  132.6890   56.3240 C   0  0  0  0  0  0  0  0  0  0  0  0
  127.0060  131.5910   57.5930 C   0  0  0  0  0  0  0  0  0  0  0  0
  125.7970  131.3000   58.2460 C   0  0  0  0  0  0  0  0  0  0  0  0
  124.5530  131.0220   57.3950 C   0  0  0  0  0  0  0  0  0  0  0  0
  124.7830  131.1130   56.0840 F   0  0  0  0  0  0  0  0  0  0  0  0
  124.1110  129.7880   57.6360 F   0  0  0  0  0  0  0  0  0  0  0  0
  123.5950  131.8990   57.6950 F   0  0  0  0  0  0  0  0  0  0  0  0
  125.8120  131.2900   59.6700 C   0  0  0  0  0  0  0  0  0  0  0  0
  122.8110  130.4950   61.0350 H   0  0  0  0  0  0  0  0  0  0  0  0
  123.1930  130.7070   59.3700 H   0  0  0  0  0  0  0  0  0  0  0  0
  126.1100  130.0310   64.0300 H   0  0  0  0  0  0  0  0  0  0  0  0
  126.6261  129.5698   66.5352 H   0  0  0  0  0  0  0  0  0  0  0  0
  125.0033  129.1199   68.6229 H   0  0  0  0  0  0  0  0  0  0  0  0
  130.7073  131.5691   59.3135 H   0  0  0  0  0  0  0  0  0  0  0  0
  132.8622  132.0910   58.1901 H   0  0  0  0  0  0  0  0  0  0  0  0
  132.8674  132.9930   55.8693 H   0  0  0  0  0  0  0  0  0  0  0  0
  130.7220  133.3820   54.6707 H   0  0  0  0  0  0  0  0  0  0  0  0
  128.5639  132.8654   55.7895 H   0  0  0  0  0  0  0  0  0  0  0  0
  127.0327  131.6126   56.4935 H   0  0  0  0  0  0  0  0  0  0  0  0
  1  2  1  0
  2  3  2  0
  3  4  1  0
  4  5  2  0
  4  6  1  0
  6  7  1  0
  7  8  1  0
  8  9  2  0
  9 10  1  0
 10 11  1  0
  3 12  1  0
 12 13  1  0
 13 14  2  0
 14 15  1  0
 15 16  1  0
 16 17  2  0
 17 18  1  0
 18 19  2  0
 19 20  1  0
 20 21  2  0
 15 22  2  0
 22 23  1  0
 23 24  1  0
 24 25  1  0
 24 26  1  0
 24 27  1  0
 23 28  2  0
 28  2  1  0
 11  7  2  0
 28 13  1  0
 21 16  1  0
  1 29  1  0
  1 30  1  0
  6 31  1  0
  8 32  1  0
  9 33  1  0
 17 34  1  0
 18 35  1  0
 19 36  1  0
 20 37  1  0
 21 38  1  0
 22 39  1  0
M  END
>  <Binding energies>  (1) 
[-7.0]

>  <Ligand effiencies>  (1) 
[-0.22580645161290322]

>  <Interactions>  (1) 
["V-B:ASP:366:CG:8184, H-B:ASP:366:OD2:8186, V-B:TYR:531:CZ:9765, V-B:ASP:366:CB:8183, V-A:PRO:540:N:4884, V-A:PRO:540:CB:4885, V-A:PRO:540:CA:4883, V-B:ILE:369:CD1:8210, H-B:GLY:454:N:9021, V-B:HIS:456:CE1:9041, H-B:ARG:545:NE:9895, V-B:ILE:369:CG2:8208, V-A:TYR:539:CE2:4876, V-A:TYR:539:CZ:4877, V-B:ASP:366:CA:8181, V-B:ASP:366:C:8179, V-B:ARG:545:CZ:9897, V-A:LEU:363:CD1:3188, V-A:MET:535:CE:4835, H-B:TYR:484:OH:9319, H-B:ILE:455:N:9026, V-B:ASN:370:CB:8216, V-B:TYR:531:CE1:9763, V-B:ASN:370:CG:8217, V-B:ARG:545:CG:9893, V-B:ILE:369:CB:8207, V-A:ILE:538:CA:4860, V-A:ILE:538:CB:4862, V-A:PRO:540:CD:4887, V-A:ILE:538:C:4858, V-A:ILE:538:CG2:4863, V-B:ARG:545:CD:9894, H-B:ASP:366:O:8180, H-B:ASP:366:OD1:8185, V-B:ASN:370:CA:8214"]

$$$$
4cj_Grossjean_2025
     RDKit          3D

 39 42  0  0  0  0  0  0  0  0999 V2000
  123.6950  130.7340   60.3120 N   0  0  0  0  0  0  0  0  0  0  0  0
  124.9810  131.1140   60.6010 C   0  0  0  0  0  0  0  0  0  0  0  0
  125.4610  131.2710   61.9110 C   0  0  0  0  0  0  0  0  0  0  0  0
  124.7480  131.0700   63.1750 C   0  0  0  0  0  0  0  0  0  0  0  0
  123.6260  131.5520   63.3500 O   0  0  0  0  0  0  0  0  0  0  0  0
  125.4110  130.3430   64.1080 N   0  0  0  0  0  0  0  0  0  0  0  0
  124.9620  130.0100   65.3790 C   0  0  0  0  0  0  0  0  0  0  0  0
  123.7220  129.9990   65.8200 N   0  0  0  0  0  0  0  0  0  0  0  0
  123.6600  129.6280   67.0830 C   0  0  0  0  0  0  0  0  0  0  0  0
  124.8730  129.3260   67.6960 C   0  0  0  0  0  0  0  0  0  0  0  0
  126.1580  129.5430   66.5460 S   0  0  0  0  0  0  0  0  0  0  0  0
  127.1560  131.7540   61.9150 S   0  0  0  0  0  0  0  0  0  0  0  0
  127.2080  131.7440   60.1680 C   0  0  0  0  0  0  0  0  0  0  0  0
  128.3220  132.0460   59.5060 N   0  0  0  0  0  0  0  0  0  0  0  0
  128.2700  132.0040   58.1500 C   0  0  0  0  0  0  0  0  0  0  0  0
  129.5470  132.3370   57.4340 C   0  0  0  0  0  0  0  0  0  0  0  0
  130.7750  132.3340   58.1150 C   0  0  0  0  0  0  0  0  0  0  0  0
  131.9620  132.6480   57.4580 C   0  0  0  0  0  0  0  0  0  0  0  0
  131.9370  132.9740   56.1050 C   0  0  0  0  0  0  0  0  0  0  0  0
  130.7350  132.9870   55.4080 C   0  0  0  0  0  0  0  0  0  0  0  0
  129.5510  132.6710   56.0680 C   0  0  0  0  0  0  0  0  0  0  0  0
  127.0930  131.6830   57.4660 C   0  0  0  0  0  0  0  0  0  0  0  0
  125.9120  131.3640   58.1540 C   0  0  0  0  0  0  0  0  0  0  0  0
  124.6580  131.0180   57.3420 C   0  0  0  0  0  0  0  0  0  0  0  0
  124.2030  129.7870   57.5800 F   0  0  0  0  0  0  0  0  0  0  0  0
  123.6790  131.8720   57.6400 F   0  0  0  0  0  0  0  0  0  0  0  0
  124.9290  131.0990   56.0390 F   0  0  0  0  0  0  0  0  0  0  0  0
  125.9610  131.3870   59.5780 C   0  0  0  0  0  0  0  0  0  0  0  0
  123.0220  130.5270   61.0380 H   0  0  0  0  0  0  0  0  0  0  0  0
  123.3740  130.6510   59.3570 H   0  0  0  0  0  0  0  0  0  0  0  0
  126.3330  130.0100   63.8680 H   0  0  0  0  0  0  0  0  0  0  0  0
  122.7038  129.5607   67.6225 H   0  0  0  0  0  0  0  0  0  0  0  0
  124.9980  129.0023   68.7398 H   0  0  0  0  0  0  0  0  0  0  0  0
  130.7998  132.0795   59.1849 H   0  0  0  0  0  0  0  0  0  0  0  0
  132.9157  132.6384   58.0061 H   0  0  0  0  0  0  0  0  0  0  0  0
  132.8738  133.2227   55.5848 H   0  0  0  0  0  0  0  0  0  0  0  0
  130.7192  133.2460   54.3390 H   0  0  0  0  0  0  0  0  0  0  0  0
  128.6022  132.6827   55.5116 H   0  0  0  0  0  0  0  0  0  0  0  0
  127.0929  131.6805   56.3660 H   0  0  0  0  0  0  0  0  0  0  0  0
  1  2  1  0
  2  3  2  0
  3  4  1  0
  4  5  2  0
  4  6  1  0
  6  7  1  0
  7  8  2  0
  8  9  1  0
  9 10  2  0
 10 11  1  0
  3 12  1  0
 12 13  1  0
 13 14  2  0
 14 15  1  0
 15 16  1  0
 16 17  2  0
 17 18  1  0
 18 19  2  0
 19 20  1  0
 20 21  2  0
 15 22  2  0
 22 23  1  0
 23 24  1  0
 24 25  1  0
 24 26  1  0
 24 27  1  0
 23 28  2  0
 28  2  1  0
 11  7  1  0
 28 13  1  0
 21 16  1  0
  1 29  1  0
  1 30  1  0
  6 31  1  0
  9 32  1  0
 10 33  1  0
 17 34  1  0
 18 35  1  0
 19 36  1  0
 20 37  1  0
 21 38  1  0
 22 39  1  0
M  END
>  <Binding energies>  (1) 
[-6.94]

>  <Ligand effiencies>  (1) 
[-0.2238709677419355]

>  <Interactions>  (1) 
["V-B:ASP:366:CG:8184, H-B:ASP:366:OD2:8186, V-B:TYR:531:CZ:9765, V-B:ASP:366:CB:8183, V-A:PRO:540:N:4884, V-A:PRO:540:CB:4885, V-A:TYR:539:CD2:4874, V-A:PRO:540:CA:4883, V-A:TYR:539:C:4867, H-B:GLY:454:N:9021, V-B:HIS:456:CE1:9041, V-B:GLY:454:CA:9020, H-B:ARG:545:NE:9895, V-B:ILE:369:CG2:8208, V-A:TYR:539:CE2:4876, V-A:TYR:539:CZ:4877, V-B:ASP:366:CA:8181, V-B:ASP:366:C:8179, V-B:ARG:545:CZ:9897, V-A:LEU:363:CD1:3188, V-A:MET:535:CE:4835, H-B:TYR:484:OH:9319, V-B:ASN:370:CB:8216, V-B:TYR:531:CE1:9763, V-B:ASN:370:CG:8217, V-B:ARG:545:CG:9893, V-B:ILE:369:CB:8207, V-A:ILE:538:CA:4860, V-A:ILE:538:CB:4862, V-A:PRO:540:CD:4887, V-A:ILE:538:C:4858, V-A:ILE:538:CG2:4863, V-B:ARG:545:CD:9894, H-B:ASP:366:O:8180, H-B:ASP:366:OD1:8185, V-B:ASN:370:CA:8214"]

$$$$
4ck_Grossjean_2025
     RDKit          3D

 57 59  0  0  0  0  0  0  0  0999 V2000
  124.9160  124.0070   61.8960 C   0  0  0  0  0  0  0  0  0  0  0  0
  125.9930  123.1020   61.7100 O   0  0  0  0  0  0  0  0  0  0  0  0
  127.2520  123.6350   62.0960 C   0  0  0  0  0  0  0  0  0  0  0  0
  128.3540  122.9780   61.2540 C   0  0  0  0  0  0  0  0  0  0  0  0
  127.7600  122.3280   60.1390 O   0  0  0  0  0  0  0  0  0  0  0  0
  127.6150  123.1710   59.0030 C   0  0  0  0  0  0  0  0  0  0  0  0
  127.4990  122.3020   57.7440 C   0  0  0  0  0  0  0  0  0  0  0  0
  126.2210  122.5110   57.1600 O   0  0  0  0  0  0  0  0  0  0  0  0
  125.7850  123.8640   57.2020 C   0  0  0  0  0  0  0  0  0  0  0  0
  126.6070  124.7010   56.2100 C   0  0  0  0  0  0  0  0  0  0  0  0
  126.8080  126.0720   56.6820 N   0  0  0  0  0  0  0  0  0  0  0  0
  127.9240  126.8110   56.5110 C   0  0  0  0  0  0  0  0  0  0  0  0
  128.9080  126.3970   55.8950 O   0  0  0  0  0  0  0  0  0  0  0  0
  127.8980  128.1520   57.0950 C   0  0  0  0  0  0  0  0  0  0  0  0
  126.6200  128.6020   58.2210 S   0  0  0  0  0  0  0  0  0  0  0  0
  127.3210  130.1860   58.4520 C   0  0  0  0  0  0  0  0  0  0  0  0
  126.7660  131.0800   59.2660 N   0  0  0  0  0  0  0  0  0  0  0  0
  127.3820  132.2850   59.3800 C   0  0  0  0  0  0  0  0  0  0  0  0
  126.7410  133.2650   60.3200 C   0  0  0  0  0  0  0  0  0  0  0  0
  125.3550  133.2420   60.5470 C   0  0  0  0  0  0  0  0  0  0  0  0
  124.7540  134.1500   61.4160 C   0  0  0  0  0  0  0  0  0  0  0  0
  125.5330  135.0950   62.0730 C   0  0  0  0  0  0  0  0  0  0  0  0
  126.9080  135.1370   61.8710 C   0  0  0  0  0  0  0  0  0  0  0  0
  127.5060  134.2270   61.0020 C   0  0  0  0  0  0  0  0  0  0  0  0
  128.5580  132.5830   58.6840 C   0  0  0  0  0  0  0  0  0  0  0  0
  129.1520  131.6480   57.8220 C   0  0  0  0  0  0  0  0  0  0  0  0
  130.4390  132.0420   57.0860 C   0  0  0  0  0  0  0  0  0  0  0  0
  131.4710  131.2490   57.3760 F   0  0  0  0  0  0  0  0  0  0  0  0
  130.2420  131.9770   55.7690 F   0  0  0  0  0  0  0  0  0  0  0  0
  130.7840  133.2860   57.4190 F   0  0  0  0  0  0  0  0  0  0  0  0
  128.5120  130.3820   57.6920 C   0  0  0  0  0  0  0  0  0  0  0  0
  128.8220  129.1960   56.9300 C   0  0  0  0  0  0  0  0  0  0  0  0
  129.9210  129.1020   56.1150 N   0  0  0  0  0  0  0  0  0  0  0  0
  124.7418  124.1534   62.9722 H   0  0  0  0  0  0  0  0  0  0  0  0
  125.1635  124.9722   61.4300 H   0  0  0  0  0  0  0  0  0  0  0  0
  124.0079  123.5970   61.4300 H   0  0  0  0  0  0  0  0  0  0  0  0
  127.2589  124.7221   61.9284 H   0  0  0  0  0  0  0  0  0  0  0  0
  127.4294  123.4322   63.1625 H   0  0  0  0  0  0  0  0  0  0  0  0
  129.0563  123.7475   60.9010 H   0  0  0  0  0  0  0  0  0  0  0  0
  128.8995  122.2434   61.8646 H   0  0  0  0  0  0  0  0  0  0  0  0
  126.7080  123.7837   59.1124 H   0  0  0  0  0  0  0  0  0  0  0  0
  128.4904  123.8316   58.9178 H   0  0  0  0  0  0  0  0  0  0  0  0
  128.2839  122.5837   57.0267 H   0  0  0  0  0  0  0  0  0  0  0  0
  127.6199  121.2414   58.0094 H   0  0  0  0  0  0  0  0  0  0  0  0
  124.7205  123.9143   56.9294 H   0  0  0  0  0  0  0  0  0  0  0  0
  125.9239  124.2613   58.2183 H   0  0  0  0  0  0  0  0  0  0  0  0
  127.5893  124.2253   56.0729 H   0  0  0  0  0  0  0  0  0  0  0  0
  126.0505  124.7467   55.2622 H   0  0  0  0  0  0  0  0  0  0  0  0
  126.0110  126.5110   57.1190 H   0  0  0  0  0  0  0  0  0  0  0  0
  124.7343  132.4951   60.0304 H   0  0  0  0  0  0  0  0  0  0  0  0
  123.6670  134.1191   61.5815 H   0  0  0  0  0  0  0  0  0  0  0  0
  125.0588  135.8142   62.7571 H   0  0  0  0  0  0  0  0  0  0  0  0
  127.5208  135.8853   62.3949 H   0  0  0  0  0  0  0  0  0  0  0  0
  128.5945  134.2619   60.8471 H   0  0  0  0  0  0  0  0  0  0  0  0
  129.0266  133.5696   58.8147 H   0  0  0  0  0  0  0  0  0  0  0  0
  130.1230  128.2690   55.5810 H   0  0  0  0  0  0  0  0  0  0  0  0
  130.5690  129.8730   56.0160 H   0  0  0  0  0  0  0  0  0  0  0  0
  1  2  1  0
  2  3  1  0
  3  4  1  0
  4  5  1  0
  5  6  1  0
  6  7  1  0
  7  8  1  0
  8  9  1  0
  9 10  1  0
 10 11  1  0
 11 12  1  0
 12 13  2  0
 12 14  1  0
 14 15  1  0
 15 16  1  0
 16 17  2  0
 17 18  1  0
 18 19  1  0
 19 20  2  0
 20 21  1  0
 21 22  2  0
 22 23  1  0
 23 24  2  0
 18 25  2  0
 25 26  1  0
 26 27  1  0
 27 28  1  0
 27 29  1  0
 27 30  1  0
 26 31  2  0
 31 32  1  0
 32 33  1  0
 32 14  2  0
 31 16  1  0
 24 19  1  0
  1 34  1  0
  1 35  1  0
  1 36  1  0
  3 37  1  0
  3 38  1  0
  4 39  1  0
  4 40  1  0
  6 41  1  0
  6 42  1  0
  7 43  1  0
  7 44  1  0
  9 45  1  0
  9 46  1  0
 10 47  1  0
 10 48  1  0
 11 49  1  0
 20 50  1  0
 21 51  1  0
 22 52  1  0
 23 53  1  0
 24 54  1  0
 25 55  1  0
 33 56  1  0
 33 57  1  0
M  END
>  <Binding energies>  (1) 
[-6.15]

>  <Ligand effiencies>  (1) 
[-0.17083333333333334]

>  <Interactions>  (1) 
["V-B:TYR:539:CD2:9845, V-B:MET:535:CE:9806, V-B:TYR:539:CE2:9847, V-B:TYR:539:C:9838, V-B:PRO:540:N:9855, H-B:TYR:531:OH:9766, V-B:PRO:540:CA:9854, V-B:TYR:539:CZ:9848, V-B:TYR:531:CZ:9765, H-B:ALA:541:N:9862, V-A:PRO:540:N:4884, V-B:LEU:475:CD1:9229, V-A:TYR:539:CD2:4874, V-A:ALA:541:CB:4892, V-A:PRO:540:CA:4883, V-A:TYR:539:C:4867, V-B:GLU:543:CD:9879, V-B:GLU:543:CG:9878, V-B:ILE:369:CG2:8208, V-A:TYR:539:CE2:4876, V-B:TYR:539:CD1:9844, V-B:TYR:539:CG:9843, V-B:TYR:539:CE1:9846, V-B:ALA:541:CB:9863, V-B:ASN:362:CB:8147, H-A:TYR:531:OH:4795, V-A:TYR:531:CZ:4794, V-A:MET:535:CE:4835, V-A:TYR:539:CA:4869, V-A:PRO:540:CD:4887, H-A:MET:535:SD:4834"]

$$$$
4dd_Grossjean_2025
     RDKit          3D

 43 46  0  0  0  0  0  0  0  0999 V2000
  125.6990  129.6830   64.1160 C   0  0  0  0  0  0  0  0  0  0  0  0
  126.0820  130.5020   62.8920 C   0  0  0  0  0  0  0  0  0  0  0  0
  126.0750  131.8970   63.0030 C   0  0  0  0  0  0  0  0  0  0  0  0
  126.4180  132.7070   61.9140 C   0  0  0  0  0  0  0  0  0  0  0  0
  126.4130  134.2050   62.0020 C   0  0  0  0  0  0  0  0  0  0  0  0
  125.2610  134.8980   62.4070 C   0  0  0  0  0  0  0  0  0  0  0  0
  125.2500  136.2880   62.4940 C   0  0  0  0  0  0  0  0  0  0  0  0
  126.3960  137.0070   62.1740 C   0  0  0  0  0  0  0  0  0  0  0  0
  127.5520  136.3470   61.7700 C   0  0  0  0  0  0  0  0  0  0  0  0
  127.5590  134.9570   61.6870 C   0  0  0  0  0  0  0  0  0  0  0  0
  126.7590  132.1810   60.7060 N   0  0  0  0  0  0  0  0  0  0  0  0
  126.7730  130.8530   60.6010 C   0  0  0  0  0  0  0  0  0  0  0  0
  127.2100  130.0440   59.1130 S   0  0  0  0  0  0  0  0  0  0  0  0
  126.9730  128.4580   59.8500 C   0  0  0  0  0  0  0  0  0  0  0  0
  127.2090  127.2380   59.0760 C   0  0  0  0  0  0  0  0  0  0  0  0
  128.3100  127.0200   58.5680 O   0  0  0  0  0  0  0  0  0  0  0  0
  126.1500  126.3970   58.9800 N   0  0  0  0  0  0  0  0  0  0  0  0
  126.0290  125.1850   58.2750 C   0  0  0  0  0  0  0  0  0  0  0  0
  124.7410  124.6470   58.2030 C   0  0  0  0  0  0  0  0  0  0  0  0
  124.5140  123.4580   57.5150 C   0  0  0  0  0  0  0  0  0  0  0  0
  125.5760  122.8090   56.8910 C   0  0  0  0  0  0  0  0  0  0  0  0
  126.8610  123.3410   56.9440 C   0  0  0  0  0  0  0  0  0  0  0  0
  127.0910  124.5290   57.6320 C   0  0  0  0  0  0  0  0  0  0  0  0
  126.5670  128.5780   61.1890 C   0  0  0  0  0  0  0  0  0  0  0  0
  126.3050  127.5080   62.0070 N   0  0  0  0  0  0  0  0  0  0  0  0
  126.4480  129.9390   61.6430 C   0  0  0  0  0  0  0  0  0  0  0  0
  125.9601  130.2413   65.0271 H   0  0  0  0  0  0  0  0  0  0  0  0
  124.6164  129.4883   64.1028 H   0  0  0  0  0  0  0  0  0  0  0  0
  126.2436  128.7274   64.1028 H   0  0  0  0  0  0  0  0  0  0  0  0
  125.7961  132.3636   63.9593 H   0  0  0  0  0  0  0  0  0  0  0  0
  124.3515  134.3334   62.6599 H   0  0  0  0  0  0  0  0  0  0  0  0
  124.3388  136.8144   62.8144 H   0  0  0  0  0  0  0  0  0  0  0  0
  126.3886  138.1050   62.2407 H   0  0  0  0  0  0  0  0  0  0  0  0
  128.4561  136.9203   61.5173 H   0  0  0  0  0  0  0  0  0  0  0  0
  128.4759  134.4386   61.3699 H   0  0  0  0  0  0  0  0  0  0  0  0
  125.3250  126.6620   59.4970 H   0  0  0  0  0  0  0  0  0  0  0  0
  123.9030  125.1652   58.6920 H   0  0  0  0  0  0  0  0  0  0  0  0
  123.5005  123.0334   57.4647 H   0  0  0  0  0  0  0  0  0  0  0  0
  125.3978  121.8672   56.3512 H   0  0  0  0  0  0  0  0  0  0  0  0
  127.6929  122.8239   56.4434 H   0  0  0  0  0  0  0  0  0  0  0  0
  128.1048  124.9539   57.6720 H   0  0  0  0  0  0  0  0  0  0  0  0
  126.7890  127.3750   62.8840 H   0  0  0  0  0  0  0  0  0  0  0  0
  125.6120  126.8160   61.7590 H   0  0  0  0  0  0  0  0  0  0  0  0
  1  2  1  0
  2  3  2  0
  3  4  1  0
  4  5  1  0
  5  6  2  0
  6  7  1  0
  7  8  2  0
  8  9  1  0
  9 10  2  0
  4 11  2  0
 11 12  1  0
 12 13  1  0
 13 14  1  0
 14 15  1  0
 15 16  2  0
 15 17  1  0
 17 18  1  0
 18 19  2  0
 19 20  1  0
 20 21  2  0
 21 22  1  0
 22 23  2  0
 14 24  2  0
 24 25  1  0
 24 26  1  0
 26  2  1  0
 10  5  1  0
 26 12  2  0
 23 18  1  0
  1 27  1  0
  1 28  1  0
  1 29  1  0
  3 30  1  0
  6 31  1  0
  7 32  1  0
  8 33  1  0
  9 34  1  0
 10 35  1  0
 17 36  1  0
 19 37  1  0
 20 38  1  0
 21 39  1  0
 22 40  1  0
 23 41  1  0
 25 42  1  0
 25 43  1  0
M  END
>  <Binding energies>  (1) 
[-7.75]

>  <Ligand effiencies>  (1) 
[-0.2672413793103448]

>  <Interactions>  (1) 
["V-B:ASP:366:CG:8184, V-B:PRO:540:CD:9858, H-B:ASP:366:OD2:8186, V-B:PRO:540:N:9855, V-B:PRO:540:CB:9856, H-B:TYR:531:OH:9766, V-B:PRO:540:CA:9854, V-B:LEU:363:CD1:8160, H-B:GLU:543:OE2:9881, V-B:PRO:482:CB:9297, V-B:LEU:475:CD1:9229, V-B:TRP:381:CH2:8343, V-A:TYR:539:CD2:4874, V-A:ALA:541:CB:4892, V-B:PRO:482:CG:9298, V-B:TRP:381:CZ2:8341, V-B:ARG:545:CZ:9897, V-B:TRP:381:CE2:8338, H-B:ASP:366:OD1:8185, H-B:GLU:543:OE1:9880"]

$$$$
4dg_Grossjean_2025
     RDKit          3D

 46 49  0  0  0  0  0  0  0  0999 V2000
  131.7910  126.2540   63.9310 C   0  0  0  0  0  0  0  0  0  0  0  0
  131.4630  125.6450   62.5760 C   0  0  0  0  0  0  0  0  0  0  0  0
  131.3990  124.2500   62.4770 C   0  0  0  0  0  0  0  0  0  0  0  0
  131.1010  123.6280   61.2580 C   0  0  0  0  0  0  0  0  0  0  0  0
  131.0250  122.1340   61.1210 C   0  0  0  0  0  0  0  0  0  0  0  0
  132.1430  121.3890   60.7110 C   0  0  0  0  0  0  0  0  0  0  0  0
  132.0760  120.0040   60.5780 C   0  0  0  0  0  0  0  0  0  0  0  0
  130.8860  119.3410   60.8560 C   0  0  0  0  0  0  0  0  0  0  0  0
  129.7620  120.0530   61.2600 C   0  0  0  0  0  0  0  0  0  0  0  0
  129.8330  121.4370   61.3900 C   0  0  0  0  0  0  0  0  0  0  0  0
  130.8440  124.3450   60.1310 N   0  0  0  0  0  0  0  0  0  0  0  0
  130.9040  125.6730   60.2230 C   0  0  0  0  0  0  0  0  0  0  0  0
  130.6020  126.7120   58.8500 S   0  0  0  0  0  0  0  0  0  0  0  0
  130.8740  128.1540   59.8260 C   0  0  0  0  0  0  0  0  0  0  0  0
  130.8070  129.4800   59.2130 C   0  0  0  0  0  0  0  0  0  0  0  0
  129.9530  129.7540   58.3680 O   0  0  0  0  0  0  0  0  0  0  0  0
  131.7560  130.3570   59.6010 N   0  0  0  0  0  0  0  0  0  0  0  0
  131.8700  131.7400   59.1390 C   0  0  0  0  0  0  0  0  0  0  0  0
  131.5220  131.9170   57.6650 C   0  0  0  0  0  0  0  0  0  0  0  0
  130.4370  132.7200   57.3000 C   0  0  0  0  0  0  0  0  0  0  0  0
  130.1350  132.9090   55.9550 C   0  0  0  0  0  0  0  0  0  0  0  0
  130.9240  132.3050   54.9790 C   0  0  0  0  0  0  0  0  0  0  0  0
  132.0170  131.5170   55.3350 C   0  0  0  0  0  0  0  0  0  0  0  0
  132.3200  131.3290   56.6810 C   0  0  0  0  0  0  0  0  0  0  0  0
  131.1990  127.8210   61.1500 C   0  0  0  0  0  0  0  0  0  0  0  0
  131.4740  128.7460   62.1250 N   0  0  0  0  0  0  0  0  0  0  0  0
  131.2110  126.4050   61.4050 C   0  0  0  0  0  0  0  0  0  0  0  0
  131.4320  125.5875   64.7291 H   0  0  0  0  0  0  0  0  0  0  0  0
  132.8798  126.3815   64.0218 H   0  0  0  0  0  0  0  0  0  0  0  0
  131.2983  127.2333   64.0218 H   0  0  0  0  0  0  0  0  0  0  0  0
  131.5853  123.6339   63.3690 H   0  0  0  0  0  0  0  0  0  0  0  0
  133.0876  121.9081   60.4912 H   0  0  0  0  0  0  0  0  0  0  0  0
  132.9613  119.4370   60.2542 H   0  0  0  0  0  0  0  0  0  0  0  0
  130.8333  118.2468   60.7558 H   0  0  0  0  0  0  0  0  0  0  0  0
  128.8214  119.5251   61.4758 H   0  0  0  0  0  0  0  0  0  0  0  0
  128.9408  121.9959   61.7089 H   0  0  0  0  0  0  0  0  0  0  0  0
  132.3740  130.0890   60.3530 H   0  0  0  0  0  0  0  0  0  0  0  0
  131.1884  132.3641   59.7355 H   0  0  0  0  0  0  0  0  0  0  0  0
  132.9217  132.0378   59.2622 H   0  0  0  0  0  0  0  0  0  0  0  0
  129.8230  133.2017   58.0752 H   0  0  0  0  0  0  0  0  0  0  0  0
  129.2769  133.5327   55.6638 H   0  0  0  0  0  0  0  0  0  0  0  0
  130.6819  132.4515   53.9160 H   0  0  0  0  0  0  0  0  0  0  0  0
  132.6366  131.0464   54.5574 H   0  0  0  0  0  0  0  0  0  0  0  0
  133.1877  130.7175   56.9693 H   0  0  0  0  0  0  0  0  0  0  0  0
  132.2880  129.3410   62.0820 H   0  0  0  0  0  0  0  0  0  0  0  0
  130.8620  128.8670   62.9200 H   0  0  0  0  0  0  0  0  0  0  0  0
  1  2  1  0
  2  3  2  0
  3  4  1  0
  4  5  1  0
  5  6  2  0
  6  7  1  0
  7  8  2  0
  8  9  1  0
  9 10  2  0
  4 11  2  0
 11 12  1  0
 12 13  1  0
 13 14  1  0
 14 15  1  0
 15 16  2  0
 15 17  1  0
 17 18  1  0
 18 19  1  0
 19 20  2  0
 20 21  1  0
 21 22  2  0
 22 23  1  0
 23 24  2  0
 14 25  2  0
 25 26  1  0
 25 27  1  0
 27  2  1  0
 10  5  1  0
 27 12  2  0
 24 19  1  0
  1 28  1  0
  1 29  1  0
  1 30  1  0
  3 31  1  0
  6 32  1  0
  7 33  1  0
  8 34  1  0
  9 35  1  0
 10 36  1  0
 17 37  1  0
 18 38  1  0
 18 39  1  0
 20 40  1  0
 21 41  1  0
 22 42  1  0
 23 43  1  0
 24 44  1  0
 26 45  1  0
 26 46  1  0
M  END
>  <Binding energies>  (1) 
[-7.74]

>  <Ligand effiencies>  (1) 
[-0.258]

>  <Interactions>  (1) 
["V-B:TYR:539:CD2:9845, V-B:TYR:539:CE2:9847, V-A:ASP:366:CG:3212, V-A:ILE:369:CG2:3236, V-A:PRO:540:N:4884, V-A:GLU:543:CD:4908, H-A:GLU:543:OE1:4909, V-A:PRO:540:CB:4885, H-A:GLU:543:OE2:4910, V-A:PRO:540:CA:4883, V-A:TYR:539:C:4867, V-A:LEU:475:CD2:4258, V-A:ARG:545:CZ:4926, V-B:ALA:541:CB:9863, V-A:TRP:381:CH2:3371, V-A:TRP:381:CZ2:3369, V-B:ALA:541:CA:9861, V-A:TRP:381:CZ3:3370, V-A:PRO:482:CB:4325, V-A:TYR:531:CE2:4793, V-A:LEU:363:CD1:3188, V-A:TYR:531:CZ:4794, V-A:MET:535:CE:4835, V-A:ILE:538:CA:4860, V-A:ILE:538:CB:4862, V-A:ILE:538:CG2:4863, H-A:ASP:366:OD2:3214, H-A:ASP:366:OD1:3213, V-A:MET:535:CG:4833"]

$$$$
4dj_Grossjean_2025
     RDKit          3D

 39 42  0  0  0  0  0  0  0  0999 V2000
  124.6130  131.1220   57.3260 C   0  0  0  0  0  0  0  0  0  0  0  0
  125.8670  131.3820   58.1470 C   0  0  0  0  0  0  0  0  0  0  0  0
  127.0460  131.7040   57.4650 C   0  0  0  0  0  0  0  0  0  0  0  0
  128.2350  131.9540   58.1610 C   0  0  0  0  0  0  0  0  0  0  0  0
  129.5140  132.3070   57.4570 C   0  0  0  0  0  0  0  0  0  0  0  0
  130.7390  132.3060   58.1440 C   0  0  0  0  0  0  0  0  0  0  0  0
  131.9290  132.6330   57.4980 C   0  0  0  0  0  0  0  0  0  0  0  0
  131.9090  132.9700   56.1480 C   0  0  0  0  0  0  0  0  0  0  0  0
  130.7100  132.9830   55.4440 C   0  0  0  0  0  0  0  0  0  0  0  0
  129.5240  132.6550   56.0940 C   0  0  0  0  0  0  0  0  0  0  0  0
  128.2940  131.9120   59.5200 N   0  0  0  0  0  0  0  0  0  0  0  0
  127.1730  131.6040   60.1710 C   0  0  0  0  0  0  0  0  0  0  0  0
  127.1090  131.5080   61.9160 S   0  0  0  0  0  0  0  0  0  0  0  0
  125.3940  131.0890   61.8770 C   0  0  0  0  0  0  0  0  0  0  0  0
  124.6650  130.8420   63.1210 C   0  0  0  0  0  0  0  0  0  0  0  0
  123.4680  131.1280   63.2180 O   0  0  0  0  0  0  0  0  0  0  0  0
  125.3930  130.3000   64.1270 N   0  0  0  0  0  0  0  0  0  0  0  0
  124.9460  129.9720   65.4000 C   0  0  0  0  0  0  0  0  0  0  0  0
  123.7110  130.0000   65.8540 N   0  0  0  0  0  0  0  0  0  0  0  0
  123.6500  129.6230   67.1160 C   0  0  0  0  0  0  0  0  0  0  0  0
  124.8580  129.2750   67.7140 C   0  0  0  0  0  0  0  0  0  0  0  0
  126.1370  129.4570   66.5500 S   0  0  0  0  0  0  0  0  0  0  0  0
  124.9190  131.0300   60.5580 C   0  0  0  0  0  0  0  0  0  0  0  0
  123.6220  130.7240   60.2270 N   0  0  0  0  0  0  0  0  0  0  0  0
  125.9150  131.3230   59.5640 C   0  0  0  0  0  0  0  0  0  0  0  0
  123.7627  130.9457   58.0012 H   0  0  0  0  0  0  0  0  0  0  0  0
  124.4024  131.9956   56.6916 H   0  0  0  0  0  0  0  0  0  0  0  0
  124.7671  130.2367   56.6916 H   0  0  0  0  0  0  0  0  0  0  0  0
  127.0385  131.7615   56.3665 H   0  0  0  0  0  0  0  0  0  0  0  0
  130.7591  132.0422   59.2117 H   0  0  0  0  0  0  0  0  0  0  0  0
  132.8793  132.6249   58.0520 H   0  0  0  0  0  0  0  0  0  0  0  0
  132.8472  133.2276   55.6348 H   0  0  0  0  0  0  0  0  0  0  0  0
  130.6990  133.2515   54.3773 H   0  0  0  0  0  0  0  0  0  0  0  0
  128.5782  132.6681   55.5324 H   0  0  0  0  0  0  0  0  0  0  0  0
  126.3690  130.1130   63.9450 H   0  0  0  0  0  0  0  0  0  0  0  0
  122.6979  129.5856   67.6656 H   0  0  0  0  0  0  0  0  0  0  0  0
  124.9831  128.9394   68.7540 H   0  0  0  0  0  0  0  0  0  0  0  0
  122.9290  130.5100   60.9280 H   0  0  0  0  0  0  0  0  0  0  0  0
  123.3190  130.7020   59.2640 H   0  0  0  0  0  0  0  0  0  0  0  0
  1  2  1  0
  2  3  2  0
  3  4  1  0
  4  5  1  0
  5  6  2  0
  6  7  1  0
  7  8  2  0
  8  9  1  0
  9 10  2  0
  4 11  2  0
 11 12  1  0
 12 13  1  0
 13 14  1  0
 14 15  1  0
 15 16  2  0
 15 17  1  0
 17 18  1  0
 18 19  2  0
 19 20  1  0
 20 21  2  0
 21 22  1  0
 14 23  2  0
 23 24  1  0
 23 25  1  0
 25  2  1  0
 10  5  1  0
 25 12  2  0
 22 18  1  0
  1 26  1  0
  1 27  1  0
  1 28  1  0
  3 29  1  0
  6 30  1  0
  7 31  1  0
  8 32  1  0
  9 33  1  0
 10 34  1  0
 17 35  1  0
 20 36  1  0
 21 37  1  0
 24 38  1  0
 24 39  1  0
M  END
>  <Binding energies>  (1) 
[-7.1]

>  <Ligand effiencies>  (1) 
[-0.25357142857142856]

>  <Interactions>  (1) 
["V-B:ASP:366:CG:8184, H-B:ASP:366:OD2:8186, V-B:ASP:366:CB:8183, V-A:PRO:540:N:4884, V-A:PRO:540:CB:4885, V-A:TYR:539:CD2:4874, V-A:PRO:540:CA:4883, V-A:TYR:539:C:4867, V-B:ILE:369:CD1:8210, H-B:GLY:454:N:9021, V-B:HIS:456:CE1:9041, V-B:GLY:454:CA:9020, H-B:ARG:545:NE:9895, V-A:TYR:539:CE2:4876, V-A:TYR:539:CZ:4877, V-B:ASP:366:CA:8181, V-B:ARG:545:CZ:9897, V-A:LEU:363:CD1:3188, V-A:MET:535:CE:4835, H-B:TYR:484:OH:9319, V-B:ARG:545:CG:9893, V-A:ILE:538:CA:4860, V-A:ILE:538:CB:4862, V-A:PRO:540:CD:4887, V-A:ILE:538:C:4858, V-A:ILE:538:CG2:4863, V-B:ARG:545:CD:9894, H-B:ASP:366:O:8180, H-B:ASP:366:OD1:8185"]

$$$$
4ea_Grossjean_2025
     RDKit          3D

 52 55  0  0  0  0  0  0  0  0999 V2000
  129.0190  123.1430   59.0650 C   0  0  0  0  0  0  0  0  0  0  0  0
  127.9040  122.1110   58.8720 C   0  0  0  0  0  0  0  0  0  0  0  0
  127.7080  121.8820   57.4830 O   0  0  0  0  0  0  0  0  0  0  0  0
  126.7860  122.5880   56.7780 C   0  0  0  0  0  0  0  0  0  0  0  0
  126.1580  122.1210   55.8230 O   0  0  0  0  0  0  0  0  0  0  0  0
  126.6070  123.9930   57.2770 C   0  0  0  0  0  0  0  0  0  0  0  0
  125.5980  124.2630   58.2100 C   0  0  0  0  0  0  0  0  0  0  0  0
  125.4060  125.5550   58.6910 C   0  0  0  0  0  0  0  0  0  0  0  0
  126.2160  126.6020   58.2520 C   0  0  0  0  0  0  0  0  0  0  0  0
  125.9310  127.8640   58.8060 N   0  0  0  0  0  0  0  0  0  0  0  0
  125.9740  129.0990   58.2480 C   0  0  0  0  0  0  0  0  0  0  0  0
  126.2940  129.3220   57.0800 O   0  0  0  0  0  0  0  0  0  0  0  0
  125.6040  130.2010   59.1410 C   0  0  0  0  0  0  0  0  0  0  0  0
  125.0040  131.7240   58.4800 S   0  0  0  0  0  0  0  0  0  0  0  0
  124.8260  132.4050   60.0810 C   0  0  0  0  0  0  0  0  0  0  0  0
  124.3720  133.6440   60.2740 N   0  0  0  0  0  0  0  0  0  0  0  0
  124.2810  134.0520   61.5630 C   0  0  0  0  0  0  0  0  0  0  0  0
  123.7630  135.4650   61.7600 C   0  0  0  0  0  0  0  0  0  0  0  0
  124.6290  133.2570   62.6540 C   0  0  0  0  0  0  0  0  0  0  0  0
  125.1050  131.9580   62.4470 C   0  0  0  0  0  0  0  0  0  0  0  0
  125.4700  131.1260   63.6160 C   0  0  0  0  0  0  0  0  0  0  0  0
  126.8030  131.0470   64.0330 C   0  0  0  0  0  0  0  0  0  0  0  0
  127.1480  130.2660   65.1330 C   0  0  0  0  0  0  0  0  0  0  0  0
  126.1590  129.5620   65.8150 C   0  0  0  0  0  0  0  0  0  0  0  0
  124.8290  129.6300   65.4060 C   0  0  0  0  0  0  0  0  0  0  0  0
  124.4860  130.4110   64.3050 C   0  0  0  0  0  0  0  0  0  0  0  0
  125.2150  131.4920   61.1080 C   0  0  0  0  0  0  0  0  0  0  0  0
  125.6550  130.2420   60.5440 C   0  0  0  0  0  0  0  0  0  0  0  0
  126.0820  129.1980   61.3230 N   0  0  0  0  0  0  0  0  0  0  0  0
  127.2300  126.3400   57.3170 C   0  0  0  0  0  0  0  0  0  0  0  0
  127.4200  125.0480   56.8360 C   0  0  0  0  0  0  0  0  0  0  0  0
  129.1900  123.3013   60.1400 H   0  0  0  0  0  0  0  0  0  0  0  0
  129.9440  122.7753   58.5968 H   0  0  0  0  0  0  0  0  0  0  0  0
  128.7238  124.0936   58.5968 H   0  0  0  0  0  0  0  0  0  0  0  0
  128.1874  121.1683   59.3630 H   0  0  0  0  0  0  0  0  0  0  0  0
  126.9720  122.4894   59.3171 H   0  0  0  0  0  0  0  0  0  0  0  0
  124.9517  123.4471   58.5657 H   0  0  0  0  0  0  0  0  0  0  0  0
  124.6090  125.7518   59.4232 H   0  0  0  0  0  0  0  0  0  0  0  0
  125.6500  127.8310   59.7750 H   0  0  0  0  0  0  0  0  0  0  0  0
  123.6842  135.6800   62.8359 H   0  0  0  0  0  0  0  0  0  0  0  0
  124.4580  136.1787   61.2934 H   0  0  0  0  0  0  0  0  0  0  0  0
  122.7714  135.5604   61.2934 H   0  0  0  0  0  0  0  0  0  0  0  0
  124.5294  133.6507   63.6763 H   0  0  0  0  0  0  0  0  0  0  0  0
  127.5811  131.6036   63.4902 H   0  0  0  0  0  0  0  0  0  0  0  0
  128.1961  130.2055   65.4614 H   0  0  0  0  0  0  0  0  0  0  0  0
  126.4305  128.9462   66.6851 H   0  0  0  0  0  0  0  0  0  0  0  0
  124.0539  129.0699   65.9497 H   0  0  0  0  0  0  0  0  0  0  0  0
  123.4376  130.4654   63.9766 H   0  0  0  0  0  0  0  0  0  0  0  0
  126.9360  129.2480   61.8620 H   0  0  0  0  0  0  0  0  0  0  0  0
  125.5540  128.3380   61.3860 H   0  0  0  0  0  0  0  0  0  0  0  0
  127.8756  127.1576   56.9639 H   0  0  0  0  0  0  0  0  0  0  0  0
  128.2159  124.8519   56.1024 H   0  0  0  0  0  0  0  0  0  0  0  0
  1  2  1  0
  2  3  1  0
  3  4  1  0
  4  5  2  0
  4  6  1  0
  6  7  2  0
  7  8  1  0
  8  9  2  0
  9 10  1  0
 10 11  1  0
 11 12  2  0
 11 13  1  0
 13 14  1  0
 14 15  1  0
 15 16  2  0
 16 17  1  0
 17 18  1  0
 17 19  2  0
 19 20  1  0
 20 21  1  0
 21 22  2  0
 22 23  1  0
 23 24  2  0
 24 25  1  0
 25 26  2  0
 20 27  2  0
 27 28  1  0
 28 29  1  0
  9 30  1  0
 30 31  2  0
 31  6  1  0
 28 13  2  0
 27 15  1  0
 26 21  1  0
  1 32  1  0
  1 33  1  0
  1 34  1  0
  2 35  1  0
  2 36  1  0
  7 37  1  0
  8 38  1  0
 10 39  1  0
 18 40  1  0
 18 41  1  0
 18 42  1  0
 19 43  1  0
 22 44  1  0
 23 45  1  0
 24 46  1  0
 25 47  1  0
 26 48  1  0
 29 49  1  0
 29 50  1  0
 30 51  1  0
 31 52  1  0
M  END
>  <Binding energies>  (1) 
[-8.46]

>  <Ligand effiencies>  (1) 
[-0.24882352941176472]

>  <Interactions>  (1) 
["V-B:TYR:539:CD2:9845, V-B:ASP:366:CG:8184, V-B:TYR:539:CE2:9847, V-B:TYR:539:C:9838, H-B:ASP:366:OD2:8186, V-B:PRO:540:N:9855, H-B:TYR:531:OH:9766, V-B:PRO:540:CA:9854, V-B:TYR:539:CZ:9848, V-B:ASP:366:CB:8183, V-B:LEU:475:CD1:9229, V-B:TRP:381:CH2:8343, V-A:GLU:543:CG:4907, V-B:TRP:381:CZ2:8341, V-B:GLY:454:CA:9020, V-B:ILE:369:CG2:8208, V-A:TYR:539:CE2:4876, V-A:TYR:539:CZ:4877, V-B:TYR:539:CD1:9844, V-B:TYR:539:CG:9843, V-B:TYR:539:CE1:9846, H-B:TYR:539:N:9841, V-B:ARG:545:CZ:9897, H-B:ASP:366:OD1:8185"]

$$$$
4eb_Grossjean_2025
     RDKit          3D

 49 52  0  0  0  0  0  0  0  0999 V2000
  128.0130  122.1550   58.5180 C   0  0  0  0  0  0  0  0  0  0  0  0
  127.5240  121.7460   57.2490 O   0  0  0  0  0  0  0  0  0  0  0  0
  126.6260  122.5050   56.5680 C   0  0  0  0  0  0  0  0  0  0  0  0
  125.9870  122.0940   55.5960 O   0  0  0  0  0  0  0  0  0  0  0  0
  126.4900  123.8970   57.1160 C   0  0  0  0  0  0  0  0  0  0  0  0
  125.4210  124.1910   57.9740 C   0  0  0  0  0  0  0  0  0  0  0  0
  125.2670  125.4710   58.4980 C   0  0  0  0  0  0  0  0  0  0  0  0
  126.1750  126.4820   58.1780 C   0  0  0  0  0  0  0  0  0  0  0  0
  125.9200  127.7360   58.7670 N   0  0  0  0  0  0  0  0  0  0  0  0
  125.9940  128.9830   58.2420 C   0  0  0  0  0  0  0  0  0  0  0  0
  126.3210  129.2290   57.0800 O   0  0  0  0  0  0  0  0  0  0  0  0
  125.6510  130.0700   59.1620 C   0  0  0  0  0  0  0  0  0  0  0  0
  125.0870  131.6230   58.5400 S   0  0  0  0  0  0  0  0  0  0  0  0
  124.9260  132.2670   60.1570 C   0  0  0  0  0  0  0  0  0  0  0  0
  124.5010  133.5120   60.3810 N   0  0  0  0  0  0  0  0  0  0  0  0
  124.4200  133.8900   61.6790 C   0  0  0  0  0  0  0  0  0  0  0  0
  123.9350  135.3100   61.9100 C   0  0  0  0  0  0  0  0  0  0  0  0
  124.7500  133.0620   62.7500 C   0  0  0  0  0  0  0  0  0  0  0  0
  125.1940  131.7560   62.5110 C   0  0  0  0  0  0  0  0  0  0  0  0
  125.5410  130.8870   63.6590 C   0  0  0  0  0  0  0  0  0  0  0  0
  126.8730  130.5340   63.8950 C   0  0  0  0  0  0  0  0  0  0  0  0
  127.2000  129.7180   64.9760 C   0  0  0  0  0  0  0  0  0  0  0  0
  126.1920  129.2530   65.8180 C   0  0  0  0  0  0  0  0  0  0  0  0
  124.8620  129.5980   65.5890 C   0  0  0  0  0  0  0  0  0  0  0  0
  124.5370  130.4130   64.5090 C   0  0  0  0  0  0  0  0  0  0  0  0
  125.2930  131.3210   61.1610 C   0  0  0  0  0  0  0  0  0  0  0  0
  125.7030  130.0770   60.5650 C   0  0  0  0  0  0  0  0  0  0  0  0
  126.1060  129.0020   61.3180 N   0  0  0  0  0  0  0  0  0  0  0  0
  127.2480  126.1960   57.3200 C   0  0  0  0  0  0  0  0  0  0  0  0
  127.4010  124.9150   56.7960 C   0  0  0  0  0  0  0  0  0  0  0  0
  127.4284  121.6660   59.3112 H   0  0  0  0  0  0  0  0  0  0  0  0
  129.0709  121.8689   58.6129 H   0  0  0  0  0  0  0  0  0  0  0  0
  127.9185  123.2468   58.6129 H   0  0  0  0  0  0  0  0  0  0  0  0
  124.6983  123.4038   58.2351 H   0  0  0  0  0  0  0  0  0  0  0  0
  124.4232  125.6878   59.1696 H   0  0  0  0  0  0  0  0  0  0  0  0
  125.6380  127.6840   59.7340 H   0  0  0  0  0  0  0  0  0  0  0  0
  123.8689  135.5036   62.9908 H   0  0  0  0  0  0  0  0  0  0  0  0
  124.6423  136.0179   61.4533 H   0  0  0  0  0  0  0  0  0  0  0  0
  122.9424  135.4373   61.4533 H   0  0  0  0  0  0  0  0  0  0  0  0
  124.6618  133.4339   63.7815 H   0  0  0  0  0  0  0  0  0  0  0  0
  127.6648  130.9014   63.2256 H   0  0  0  0  0  0  0  0  0  0  0  0
  128.2483  129.4424   65.1636 H   0  0  0  0  0  0  0  0  0  0  0  0
  126.4487  128.6078   66.6711 H   0  0  0  0  0  0  0  0  0  0  0  0
  124.0721  129.2278   66.2590 H   0  0  0  0  0  0  0  0  0  0  0  0
  123.4875  130.6851   64.3234 H   0  0  0  0  0  0  0  0  0  0  0  0
  125.5060  128.2020   61.4640 H   0  0  0  0  0  0  0  0  0  0  0  0
  127.0180  128.9750   61.7530 H   0  0  0  0  0  0  0  0  0  0  0  0
  127.9694  126.9850   57.0610 H   0  0  0  0  0  0  0  0  0  0  0  0
  128.2448  124.6989   56.1242 H   0  0  0  0  0  0  0  0  0  0  0  0
  1  2  1  0
  2  3  1  0
  3  4  2  0
  3  5  1  0
  5  6  2  0
  6  7  1  0
  7  8  2  0
  8  9  1  0
  9 10  1  0
 10 11  2  0
 10 12  1  0
 12 13  1  0
 13 14  1  0
 14 15  2  0
 15 16  1  0
 16 17  1  0
 16 18  2  0
 18 19  1  0
 19 20  1  0
 20 21  2  0
 21 22  1  0
 22 23  2  0
 23 24  1  0
 24 25  2  0
 19 26  2  0
 26 27  1  0
 27 28  1  0
  8 29  1  0
 29 30  2  0
 30  5  1  0
 27 12  2  0
 26 14  1  0
 25 20  1  0
  1 31  1  0
  1 32  1  0
  1 33  1  0
  6 34  1  0
  7 35  1  0
  9 36  1  0
 17 37  1  0
 17 38  1  0
 17 39  1  0
 18 40  1  0
 21 41  1  0
 22 42  1  0
 23 43  1  0
 24 44  1  0
 25 45  1  0
 28 46  1  0
 28 47  1  0
 29 48  1  0
 30 49  1  0
M  END
>  <Binding energies>  (1) 
[-8.65]

>  <Ligand effiencies>  (1) 
[-0.26212121212121214]

>  <Interactions>  (1) 
["V-B:TYR:539:CD2:9845, V-B:ASP:366:CG:8184, V-B:TYR:539:CE2:9847, V-B:TYR:539:C:9838, V-B:PRO:540:CD:9858, H-B:ASP:366:OD2:8186, V-B:PRO:540:N:9855, H-B:TYR:531:OH:9766, V-B:PRO:540:CA:9854, V-B:TYR:539:CZ:9848, V-B:ASP:366:CB:8183, V-B:LEU:475:CD1:9229, V-B:TRP:381:CH2:8343, V-B:TRP:381:CZ2:8341, V-B:GLU:543:CD:9879, V-B:GLY:454:CA:9020, V-B:ILE:369:CG2:8208, V-A:TYR:539:CE2:4876, V-A:TYR:539:CZ:4877, V-B:TYR:539:CD1:9844, V-B:TYR:539:CG:9843, V-B:TYR:539:CE1:9846, H-B:TYR:539:N:9841, V-B:ARG:545:CZ:9897, H-B:ASP:366:OD1:8185"]

$$$$
8a_Ghoteimi_2023
     RDKit          3D

 67 71  0  0  0  0  0  0  0  0999 V2000
  127.1190  131.2490   56.4470 C   0  0  0  0  0  0  0  0  0  0  0  0
  125.8960  130.7370   55.6810 C   0  0  0  0  0  0  0  0  0  0  0  0
  124.9890  130.1280   56.5900 O   0  0  0  0  0  0  0  0  0  0  0  0
  124.5810  130.7750   57.7140 C   0  0  0  0  0  0  0  0  0  0  0  0
  123.7550  131.6930   57.7070 O   0  0  0  0  0  0  0  0  0  0  0  0
  125.2400  130.2680   58.9630 C   0  0  0  0  0  0  0  0  0  0  0  0
  124.8180  130.7570   60.2060 C   0  0  0  0  0  0  0  0  0  0  0  0
  125.4100  130.3070   61.3830 C   0  0  0  0  0  0  0  0  0  0  0  0
  126.4350  129.3610   61.3440 C   0  0  0  0  0  0  0  0  0  0  0  0
  126.9610  128.9840   62.5950 N   0  0  0  0  0  0  0  0  0  0  0  0
  127.3260  129.7430   63.6580 C   0  0  0  0  0  0  0  0  0  0  0  0
  127.2490  130.9710   63.6920 O   0  0  0  0  0  0  0  0  0  0  0  0
  127.8310  128.9970   64.8140 C   0  0  0  0  0  0  0  0  0  0  0  0
  127.0880  129.2000   66.4000 S   0  0  0  0  0  0  0  0  0  0  0  0
  128.2070  128.0680   67.1220 C   0  0  0  0  0  0  0  0  0  0  0  0
  128.1730  127.7830   68.4240 N   0  0  0  0  0  0  0  0  0  0  0  0
  129.0920  126.8930   68.8840 C   0  0  0  0  0  0  0  0  0  0  0  0
  129.0490  126.6040   70.3510 C   0  0  0  0  0  0  0  0  0  0  0  0
  129.7660  127.3900   71.2650 C   0  0  0  0  0  0  0  0  0  0  0  0
  129.7310  127.1080   72.6280 C   0  0  0  0  0  0  0  0  0  0  0  0
  128.9780  126.0390   73.1110 C   0  0  0  0  0  0  0  0  0  0  0  0
  129.0050  125.8340   74.4780 O   0  0  0  0  0  0  0  0  0  0  0  0
  130.1530  125.2320   75.0660 C   0  0  0  0  0  0  0  0  0  0  0  0
  128.2530  125.2520   72.2060 C   0  0  0  0  0  0  0  0  0  0  0  0
  128.2920  125.5340   70.8430 C   0  0  0  0  0  0  0  0  0  0  0  0
  130.0320  126.2900   68.0460 C   0  0  0  0  0  0  0  0  0  0  0  0
  130.0600  126.5730   66.6760 C   0  0  0  0  0  0  0  0  0  0  0  0
  131.0590  125.8790   65.8250 C   0  0  0  0  0  0  0  0  0  0  0  0
  130.6480  125.1740   64.6920 C   0  0  0  0  0  0  0  0  0  0  0  0
  131.5830  124.5390   63.8790 C   0  0  0  0  0  0  0  0  0  0  0  0
  132.9440  124.6010   64.1810 C   0  0  0  0  0  0  0  0  0  0  0  0
  133.7980  123.9420   63.3180 O   0  0  0  0  0  0  0  0  0  0  0  0
  133.8610  124.3490   61.9570 C   0  0  0  0  0  0  0  0  0  0  0  0
  133.3600  125.3160   65.3150 C   0  0  0  0  0  0  0  0  0  0  0  0
  132.4220  125.9520   66.1250 C   0  0  0  0  0  0  0  0  0  0  0  0
  129.1220  127.5190   66.1760 C   0  0  0  0  0  0  0  0  0  0  0  0
  128.8950  128.0820   64.8680 C   0  0  0  0  0  0  0  0  0  0  0  0
  129.6690  127.7580   63.7810 N   0  0  0  0  0  0  0  0  0  0  0  0
  126.8610  128.8620   60.1040 C   0  0  0  0  0  0  0  0  0  0  0  0
  126.2680  129.3130   58.9270 C   0  0  0  0  0  0  0  0  0  0  0  0
  126.9333  131.1713   57.5284 H   0  0  0  0  0  0  0  0  0  0  0  0
  127.9980  130.6433   56.1814 H   0  0  0  0  0  0  0  0  0  0  0  0
  127.3043  132.3003   56.1814 H   0  0  0  0  0  0  0  0  0  0  0  0
  125.3998  131.5795   55.1770 H   0  0  0  0  0  0  0  0  0  0  0  0
  126.2156  129.9982   54.9313 H   0  0  0  0  0  0  0  0  0  0  0  0
  124.0114  131.5035   60.2526 H   0  0  0  0  0  0  0  0  0  0  0  0
  125.0670  130.7003   62.3513 H   0  0  0  0  0  0  0  0  0  0  0  0
  127.0700  127.9880   62.7110 H   0  0  0  0  0  0  0  0  0  0  0  0
  130.3629  128.2391   70.9007 H   0  0  0  0  0  0  0  0  0  0  0  0
  130.3022  127.7339   73.3294 H   0  0  0  0  0  0  0  0  0  0  0  0
  130.0693  125.2759   76.1619 H   0  0  0  0  0  0  0  0  0  0  0  0
  130.2213  124.1820   74.7452 H   0  0  0  0  0  0  0  0  0  0  0  0
  131.0555  125.7729   74.7452 H   0  0  0  0  0  0  0  0  0  0  0  0
  127.6508  124.4082   72.5739 H   0  0  0  0  0  0  0  0  0  0  0  0
  127.7200  124.9073   70.1430 H   0  0  0  0  0  0  0  0  0  0  0  0
  130.7607  125.5826   68.4687 H   0  0  0  0  0  0  0  0  0  0  0  0
  129.5786  125.1200   64.4401 H   0  0  0  0  0  0  0  0  0  0  0  0
  131.2461  123.9838   62.9912 H   0  0  0  0  0  0  0  0  0  0  0  0
  134.0291  125.4349   61.9064 H   0  0  0  0  0  0  0  0  0  0  0  0
  134.6889  123.8261   61.4559 H   0  0  0  0  0  0  0  0  0  0  0  0
  132.9137  124.1009   61.4559 H   0  0  0  0  0  0  0  0  0  0  0  0
  134.4297  125.3743   65.5647 H   0  0  0  0  0  0  0  0  0  0  0  0
  132.7568  126.5163   67.0079 H   0  0  0  0  0  0  0  0  0  0  0  0
  129.3540  127.0910   63.0910 H   0  0  0  0  0  0  0  0  0  0  0  0
  130.5760  128.1770   63.6310 H   0  0  0  0  0  0  0  0  0  0  0  0
  127.6653  128.1128   60.0611 H   0  0  0  0  0  0  0  0  0  0  0  0
  126.6089  128.9166   57.9592 H   0  0  0  0  0  0  0  0  0  0  0  0
  1  2  1  0
  2  3  1  0
  3  4  1  0
  4  5  2  0
  4  6  1  0
  6  7  2  0
  7  8  1  0
  8  9  2  0
  9 10  1  0
 10 11  1  0
 11 12  2  0
 11 13  1  0
 13 14  1  0
 14 15  1  0
 15 16  2  0
 16 17  1  0
 17 18  1  0
 18 19  2  0
 19 20  1  0
 20 21  2  0
 21 22  1  0
 22 23  1  0
 21 24  1  0
 24 25  2  0
 17 26  2  0
 26 27  1  0
 27 28  1  0
 28 29  2  0
 29 30  1  0
 30 31  2  0
 31 32  1  0
 32 33  1  0
 31 34  1  0
 34 35  2  0
 27 36  2  0
 36 37  1  0
 37 38  1  0
  9 39  1  0
 39 40  2  0
 40  6  1  0
 37 13  2  0
 36 15  1  0
 25 18  1  0
 35 28  1  0
  1 41  1  0
  1 42  1  0
  1 43  1  0
  2 44  1  0
  2 45  1  0
  7 46  1  0
  8 47  1  0
 10 48  1  0
 19 49  1  0
 20 50  1  0
 23 51  1  0
 23 52  1  0
 23 53  1  0
 24 54  1  0
 25 55  1  0
 26 56  1  0
 29 57  1  0
 30 58  1  0
 33 59  1  0
 33 60  1  0
 33 61  1  0
 34 62  1  0
 35 63  1  0
 38 64  1  0
 38 65  1  0
 39 66  1  0
 40 67  1  0
M  END
>  <Binding energies>  (1) 
[-9.66]

>  <Ligand effiencies>  (1) 
[-0.2246511627906977]

>  <Interactions>  (1) 
["V-B:ASP:366:CG:8184, H-B:TYR:531:OH:9766, V-B:ASP:366:CB:8183, H-B:GLU:543:OE2:9881, V-A:GLU:543:CD:4908, H-A:GLU:543:OE1:4909, V-A:GLU:543:CG:4907, H-A:GLU:543:OE2:4910, V-B:GLU:543:C:9873, V-B:GLU:543:CD:9879, V-B:HIS:456:CE1:9041, V-A:HIS:456:CE1:4069, H-B:LYS:547:NZ:9922, V-A:TYR:539:CE2:4876, V-A:TYR:539:CZ:4877, V-B:ASP:366:CA:8181, V-A:ILE:369:CD1:3238, V-B:ASP:366:C:8179, V-A:ARG:545:CZ:4926, V-A:MET:535:CE:4835, H-A:GLY:454:N:4049, H-A:TYR:539:OH:4878, V-B:TYR:531:CE1:9763, H-B:ASN:370:N:8215, V-A:ARG:545:CD:4923"]

$$$$
8b_Ghoteimi_2023
     RDKit          3D

 54 58  0  0  0  0  0  0  0  0999 V2000
  129.1200  129.3990   75.3700 C   0  0  0  0  0  0  0  0  0  0  0  0
  130.1210  128.8740   74.5040 O   0  0  0  0  0  0  0  0  0  0  0  0
  129.8610  128.7850   73.1490 C   0  0  0  0  0  0  0  0  0  0  0  0
  129.8450  127.5050   72.6010 C   0  0  0  0  0  0  0  0  0  0  0  0
  129.5920  127.3190   71.2450 C   0  0  0  0  0  0  0  0  0  0  0  0
  129.3490  128.4120   70.4010 C   0  0  0  0  0  0  0  0  0  0  0  0
  129.0790  128.2180   68.9430 C   0  0  0  0  0  0  0  0  0  0  0  0
  128.2710  129.1010   68.2190 C   0  0  0  0  0  0  0  0  0  0  0  0
  128.0350  128.8980   66.8560 C   0  0  0  0  0  0  0  0  0  0  0  0
  127.1670  129.8470   66.1210 C   0  0  0  0  0  0  0  0  0  0  0  0
  125.7870  129.6450   66.0740 C   0  0  0  0  0  0  0  0  0  0  0  0
  124.9720  130.5440   65.3900 C   0  0  0  0  0  0  0  0  0  0  0  0
  125.5220  131.6520   64.7440 C   0  0  0  0  0  0  0  0  0  0  0  0
  124.6370  132.4900   64.0930 O   0  0  0  0  0  0  0  0  0  0  0  0
  123.9920  132.0340   62.9090 C   0  0  0  0  0  0  0  0  0  0  0  0
  126.9110  131.8500   64.7900 C   0  0  0  0  0  0  0  0  0  0  0  0
  127.7250  130.9510   65.4750 C   0  0  0  0  0  0  0  0  0  0  0  0
  128.6440  127.7760   66.2320 C   0  0  0  0  0  0  0  0  0  0  0  0
  128.6220  127.2790   64.8810 C   0  0  0  0  0  0  0  0  0  0  0  0
  127.9200  127.9030   63.8810 N   0  0  0  0  0  0  0  0  0  0  0  0
  129.3810  126.1140   64.6920 C   0  0  0  0  0  0  0  0  0  0  0  0
  129.5840  125.3490   63.4590 C   0  0  0  0  0  0  0  0  0  0  0  0
  130.5880  125.5280   62.7650 O   0  0  0  0  0  0  0  0  0  0  0  0
  128.6040  124.4590   63.1590 N   0  0  0  0  0  0  0  0  0  0  0  0
  128.5420  123.6080   62.0640 C   0  0  0  0  0  0  0  0  0  0  0  0
  129.6130  123.4070   61.1940 C   0  0  0  0  0  0  0  0  0  0  0  0
  129.1500  122.5110   60.2580 C   0  0  0  0  0  0  0  0  0  0  0  0
  127.8690  122.1870   60.5490 O   0  0  0  0  0  0  0  0  0  0  0  0
  127.4940  122.8870   61.6980 N   0  0  0  0  0  0  0  0  0  0  0  0
  130.1480  125.6020   66.1960 S   0  0  0  0  0  0  0  0  0  0  0  0
  129.4490  126.9480   67.0650 C   0  0  0  0  0  0  0  0  0  0  0  0
  129.6730  127.1390   68.3650 N   0  0  0  0  0  0  0  0  0  0  0  0
  129.3640  129.6970   70.9590 C   0  0  0  0  0  0  0  0  0  0  0  0
  129.6170  129.8860   72.3160 C   0  0  0  0  0  0  0  0  0  0  0  0
  129.4208  129.2412   76.4162 H   0  0  0  0  0  0  0  0  0  0  0  0
  129.0001  130.4761   75.1814 H   0  0  0  0  0  0  0  0  0  0  0  0
  128.1658  128.8853   75.1814 H   0  0  0  0  0  0  0  0  0  0  0  0
  130.0339  126.6336   73.2451 H   0  0  0  0  0  0  0  0  0  0  0  0
  129.5826  126.3004   70.8297 H   0  0  0  0  0  0  0  0  0  0  0  0
  127.8165  129.9641   68.7274 H   0  0  0  0  0  0  0  0  0  0  0  0
  125.3421  128.7743   66.5780 H   0  0  0  0  0  0  0  0  0  0  0  0
  123.8849  130.3791   65.3588 H   0  0  0  0  0  0  0  0  0  0  0  0
  123.1214  131.4185   63.1796 H   0  0  0  0  0  0  0  0  0  0  0  0
  123.6596  132.8989   62.3162 H   0  0  0  0  0  0  0  0  0  0  0  0
  124.6965  131.4322   62.3162 H   0  0  0  0  0  0  0  0  0  0  0  0
  127.3580  132.7180   64.2834 H   0  0  0  0  0  0  0  0  0  0  0  0
  128.8127  131.1120   65.5069 H   0  0  0  0  0  0  0  0  0  0  0  0
  126.9760  127.6260   63.6500 H   0  0  0  0  0  0  0  0  0  0  0  0
  128.3210  128.6560   63.3400 H   0  0  0  0  0  0  0  0  0  0  0  0
  127.8280  124.3990   63.8010 H   0  0  0  0  0  0  0  0  0  0  0  0
  130.6116  123.8654   61.2449 H   0  0  0  0  0  0  0  0  0  0  0  0
  129.7292  122.1203   59.4083 H   0  0  0  0  0  0  0  0  0  0  0  0
  129.1733  130.5693   70.3165 H   0  0  0  0  0  0  0  0  0  0  0  0
  129.6253  130.9029   72.7354 H   0  0  0  0  0  0  0  0  0  0  0  0
  1  2  1  0
  2  3  1  0
  3  4  2  0
  4  5  1  0
  5  6  2  0
  6  7  1  0
  7  8  2  0
  8  9  1  0
  9 10  1  0
 10 11  2  0
 11 12  1  0
 12 13  2  0
 13 14  1  0
 14 15  1  0
 13 16  1  0
 16 17  2  0
  9 18  2  0
 18 19  1  0
 19 20  1  0
 19 21  2  0
 21 22  1  0
 22 23  2  0
 22 24  1  0
 24 25  1  0
 25 26  1  0
 26 27  2  0
 27 28  1  0
 28 29  1  0
 21 30  1  0
 30 31  1  0
 31 32  2  0
  6 33  1  0
 33 34  2  0
 34  3  1  0
 32  7  1  0
 17 10  1  0
 31 18  1  0
 29 25  2  0
  1 35  1  0
  1 36  1  0
  1 37  1  0
  4 38  1  0
  5 39  1  0
  8 40  1  0
 11 41  1  0
 12 42  1  0
 15 43  1  0
 15 44  1  0
 15 45  1  0
 16 46  1  0
 17 47  1  0
 20 48  1  0
 20 49  1  0
 24 50  1  0
 26 51  1  0
 27 52  1  0
 33 53  1  0
 34 54  1  0
M  END
>  <Binding energies>  (1) 
[-8.53]

>  <Ligand effiencies>  (1) 
[-0.23054054054054052]

>  <Interactions>  (1) 
["V-B:TYR:539:CD2:9845, V-B:TYR:539:CE2:9847, H-B:GLU:543:OE2:9881, H-B:ALA:541:N:9862, V-A:GLU:543:CD:4908, H-A:GLU:543:OE1:4909, V-B:LEU:475:CD1:9229, V-A:GLU:543:CG:4907, V-B:ILE:369:CD1:8210, H-A:LYS:547:NZ:4951, H-B:GLY:454:N:9021, V-B:GLU:543:CD:9879, V-B:HIS:456:CE1:9041, V-B:GLY:454:CA:9020, V-A:GLU:543:CB:4906, V-A:HIS:456:CE1:4069, V-B:GLU:543:CG:9878, V-A:GLU:543:C:4902, V-B:ALA:541:CB:9863, V-A:LYS:547:CE:4950, H-B:GLU:543:OE1:9880"]

$$$$
8c_Ghoteimi_2023
     RDKit          3D

 54 58  0  0  0  0  0  0  0  0999 V2000
  129.1950  129.6680   75.1290 C   0  0  0  0  0  0  0  0  0  0  0  0
  130.1170  128.8800   74.3850 O   0  0  0  0  0  0  0  0  0  0  0  0
  129.8750  128.6450   73.0450 C   0  0  0  0  0  0  0  0  0  0  0  0
  129.6480  129.7650   72.2470 C   0  0  0  0  0  0  0  0  0  0  0  0
  129.3940  129.6230   70.8870 C   0  0  0  0  0  0  0  0  0  0  0  0
  129.3600  128.3560   70.2870 C   0  0  0  0  0  0  0  0  0  0  0  0
  129.0830  128.1980   68.8250 C   0  0  0  0  0  0  0  0  0  0  0  0
  128.2430  129.0760   68.1340 C   0  0  0  0  0  0  0  0  0  0  0  0
  128.0030  128.9070   66.7670 C   0  0  0  0  0  0  0  0  0  0  0  0
  127.1010  129.8500   66.0660 C   0  0  0  0  0  0  0  0  0  0  0  0
  125.7310  129.5870   65.9890 C   0  0  0  0  0  0  0  0  0  0  0  0
  124.8840  130.4790   65.3390 C   0  0  0  0  0  0  0  0  0  0  0  0
  125.3900  131.6410   64.7550 C   0  0  0  0  0  0  0  0  0  0  0  0
  124.4750  132.4690   64.1340 O   0  0  0  0  0  0  0  0  0  0  0  0
  123.8600  132.0410   62.9240 C   0  0  0  0  0  0  0  0  0  0  0  0
  126.7670  131.9020   64.8310 C   0  0  0  0  0  0  0  0  0  0  0  0
  127.6140  131.0090   65.4820 C   0  0  0  0  0  0  0  0  0  0  0  0
  128.6410  127.8240   66.1060 C   0  0  0  0  0  0  0  0  0  0  0  0
  128.6220  127.3660   64.7410 C   0  0  0  0  0  0  0  0  0  0  0  0
  127.8920  127.9950   63.7650 N   0  0  0  0  0  0  0  0  0  0  0  0
  129.4140  126.2300   64.5110 C   0  0  0  0  0  0  0  0  0  0  0  0
  129.6290  125.5070   63.2560 C   0  0  0  0  0  0  0  0  0  0  0  0
  130.7050  125.5870   62.6590 O   0  0  0  0  0  0  0  0  0  0  0  0
  128.5770  124.7690   62.8220 N   0  0  0  0  0  0  0  0  0  0  0  0
  128.5190  123.9930   61.6730 C   0  0  0  0  0  0  0  0  0  0  0  0
  127.8480  122.8780   61.4840 N   0  0  0  0  0  0  0  0  0  0  0  0
  128.0200  122.4100   60.2650 C   0  0  0  0  0  0  0  0  0  0  0  0
  128.8510  123.1520   59.4310 C   0  0  0  0  0  0  0  0  0  0  0  0
  129.4340  124.5380   60.3040 S   0  0  0  0  0  0  0  0  0  0  0  0
  130.2110  125.6990   65.9930 S   0  0  0  0  0  0  0  0  0  0  0  0
  129.4790  126.9960   66.9080 C   0  0  0  0  0  0  0  0  0  0  0  0
  129.7070  127.1560   68.2110 N   0  0  0  0  0  0  0  0  0  0  0  0
  129.5920  127.2350   71.0950 C   0  0  0  0  0  0  0  0  0  0  0  0
  129.8460  127.3730   72.4570 C   0  0  0  0  0  0  0  0  0  0  0  0
  129.3696  129.5187   76.2047 H   0  0  0  0  0  0  0  0  0  0  0  0
  129.3348  130.7300   74.8787 H   0  0  0  0  0  0  0  0  0  0  0  0
  128.1678  129.3645   74.8787 H   0  0  0  0  0  0  0  0  0  0  0  0
  129.6699  130.7688   72.6963 H   0  0  0  0  0  0  0  0  0  0  0  0
  129.2171  130.5182   70.2727 H   0  0  0  0  0  0  0  0  0  0  0  0
  127.7657  129.9087   68.6714 H   0  0  0  0  0  0  0  0  0  0  0  0
  125.3212  128.6728   66.4432 H   0  0  0  0  0  0  0  0  0  0  0  0
  123.8061  130.2665   65.2850 H   0  0  0  0  0  0  0  0  0  0  0  0
  122.9778  131.4271   63.1583 H   0  0  0  0  0  0  0  0  0  0  0  0
  123.5504  132.9198   62.3393 H   0  0  0  0  0  0  0  0  0  0  0  0
  124.5765  131.4454   62.3393 H   0  0  0  0  0  0  0  0  0  0  0  0
  127.1782  132.8147   64.3749 H   0  0  0  0  0  0  0  0  0  0  0  0
  128.6926  131.2180   65.5362 H   0  0  0  0  0  0  0  0  0  0  0  0
  126.9290  127.7460   63.5840 H   0  0  0  0  0  0  0  0  0  0  0  0
  128.2890  128.7260   63.1920 H   0  0  0  0  0  0  0  0  0  0  0  0
  127.7430  124.7730   63.3920 H   0  0  0  0  0  0  0  0  0  0  0  0
  127.5337  121.4838   59.9249 H   0  0  0  0  0  0  0  0  0  0  0  0
  129.0988  122.9022   58.3888 H   0  0  0  0  0  0  0  0  0  0  0  0
  129.5732  126.2308   70.6465 H   0  0  0  0  0  0  0  0  0  0  0  0
  130.0246  126.4801   73.0741 H   0  0  0  0  0  0  0  0  0  0  0  0
  1  2  1  0
  2  3  1  0
  3  4  2  0
  4  5  1  0
  5  6  2  0
  6  7  1  0
  7  8  2  0
  8  9  1  0
  9 10  1  0
 10 11  2  0
 11 12  1  0
 12 13  2  0
 13 14  1  0
 14 15  1  0
 13 16  1  0
 16 17  2  0
  9 18  2  0
 18 19  1  0
 19 20  1  0
 19 21  2  0
 21 22  1  0
 22 23  2  0
 22 24  1  0
 24 25  1  0
 25 26  2  0
 26 27  1  0
 27 28  2  0
 28 29  1  0
 21 30  1  0
 30 31  1  0
 31 32  2  0
  6 33  1  0
 33 34  2  0
 34  3  1  0
 32  7  1  0
 17 10  1  0
 31 18  1  0
 29 25  1  0
  1 35  1  0
  1 36  1  0
  1 37  1  0
  4 38  1  0
  5 39  1  0
  8 40  1  0
 11 41  1  0
 12 42  1  0
 15 43  1  0
 15 44  1  0
 15 45  1  0
 16 46  1  0
 17 47  1  0
 20 48  1  0
 20 49  1  0
 24 50  1  0
 27 51  1  0
 28 52  1  0
 33 53  1  0
 34 54  1  0
M  END
>  <Binding energies>  (1) 
[-8.3]

>  <Ligand effiencies>  (1) 
[-0.22432432432432434]

>  <Interactions>  (1) 
["V-B:TYR:539:CD2:9845, V-B:TYR:539:CE2:9847, V-B:PRO:540:CA:9854, H-B:GLU:543:OE2:9881, H-B:ALA:541:N:9862, V-A:GLU:543:CD:4908, V-B:LEU:475:CD1:9229, V-A:GLU:543:CG:4907, V-B:ILE:369:CD1:8210, H-A:LYS:547:NZ:4951, H-B:GLY:454:N:9021, V-B:GLU:543:CD:9879, V-B:HIS:456:CE1:9041, V-B:GLY:454:CA:9020, V-A:GLU:543:CB:4906, V-A:HIS:456:CE1:4069, V-B:GLU:543:CG:9878, V-A:GLU:543:C:4902, V-B:PRO:540:C:9852, V-A:LYS:547:CE:4950, H-B:GLU:543:OE1:9880"]

$$$$
8d_Ghoteimi_2023
     RDKit          3D

 50 53  0  0  0  0  0  0  0  0999 V2000
  132.4200  132.2230   61.9270 C   0  0  0  0  0  0  0  0  0  0  0  0
  131.0250  132.0150   61.7540 O   0  0  0  0  0  0  0  0  0  0  0  0
  130.5000  131.8060   60.5190 C   0  0  0  0  0  0  0  0  0  0  0  0
  130.2540  132.7070   59.7120 O   0  0  0  0  0  0  0  0  0  0  0  0
  130.2500  130.3760   60.2340 C   0  0  0  0  0  0  0  0  0  0  0  0
  129.1920  129.9170   58.8980 S   0  0  0  0  0  0  0  0  0  0  0  0
  129.4300  128.2190   59.2430 C   0  0  0  0  0  0  0  0  0  0  0  0
  128.8420  127.2660   58.5200 N   0  0  0  0  0  0  0  0  0  0  0  0
  129.0960  125.9770   58.8720 C   0  0  0  0  0  0  0  0  0  0  0  0
  128.4210  124.9270   58.0470 C   0  0  0  0  0  0  0  0  0  0  0  0
  127.7560  123.8490   58.6490 C   0  0  0  0  0  0  0  0  0  0  0  0
  127.1300  122.8740   57.8770 C   0  0  0  0  0  0  0  0  0  0  0  0
  127.1520  122.9500   56.4850 C   0  0  0  0  0  0  0  0  0  0  0  0
  126.5050  121.9400   55.8010 O   0  0  0  0  0  0  0  0  0  0  0  0
  125.1360  122.1090   55.4450 C   0  0  0  0  0  0  0  0  0  0  0  0
  127.8120  124.0250   55.8730 C   0  0  0  0  0  0  0  0  0  0  0  0
  128.4370  124.9990   56.6490 C   0  0  0  0  0  0  0  0  0  0  0  0
  129.9260  125.6470   59.9470 C   0  0  0  0  0  0  0  0  0  0  0  0
  130.5450  126.6470   60.7030 C   0  0  0  0  0  0  0  0  0  0  0  0
  131.4270  126.2650   61.8310 C   0  0  0  0  0  0  0  0  0  0  0  0
  132.6160  125.5740   61.5890 C   0  0  0  0  0  0  0  0  0  0  0  0
  133.4400  125.2070   62.6490 C   0  0  0  0  0  0  0  0  0  0  0  0
  133.0930  125.5280   63.9620 C   0  0  0  0  0  0  0  0  0  0  0  0
  133.9700  125.1230   64.9490 O   0  0  0  0  0  0  0  0  0  0  0  0
  133.7150  125.4920   66.2990 C   0  0  0  0  0  0  0  0  0  0  0  0
  131.8980  126.2270   64.2020 C   0  0  0  0  0  0  0  0  0  0  0  0
  131.0740  126.5920   63.1400 C   0  0  0  0  0  0  0  0  0  0  0  0
  130.2960  128.0000   60.3510 C   0  0  0  0  0  0  0  0  0  0  0  0
  130.7500  129.2490   60.8970 C   0  0  0  0  0  0  0  0  0  0  0  0
  131.5930  129.3220   61.9770 N   0  0  0  0  0  0  0  0  0  0  0  0
  132.6551  132.2581   63.0010 H   0  0  0  0  0  0  0  0  0  0  0  0
  132.9749  131.3977   61.4570 H   0  0  0  0  0  0  0  0  0  0  0  0
  132.7099  133.1743   61.4570 H   0  0  0  0  0  0  0  0  0  0  0  0
  127.7286  123.7727   59.7460 H   0  0  0  0  0  0  0  0  0  0  0  0
  126.6138  122.0367   58.3694 H   0  0  0  0  0  0  0  0  0  0  0  0
  124.5264  122.1842   56.3576 H   0  0  0  0  0  0  0  0  0  0  0  0
  125.0223  123.0280   54.8513 H   0  0  0  0  0  0  0  0  0  0  0  0
  124.8022  121.2452   54.8513 H   0  0  0  0  0  0  0  0  0  0  0  0
  127.8365  124.0998   54.7758 H   0  0  0  0  0  0  0  0  0  0  0  0
  128.9508  125.8372   56.1557 H   0  0  0  0  0  0  0  0  0  0  0  0
  130.0939  124.5899   60.2008 H   0  0  0  0  0  0  0  0  0  0  0  0
  132.9022  125.3190   60.5579 H   0  0  0  0  0  0  0  0  0  0  0  0
  134.3729  124.6591   62.4500 H   0  0  0  0  0  0  0  0  0  0  0  0
  134.2088  124.7774   66.9740 H   0  0  0  0  0  0  0  0  0  0  0  0
  134.1084  126.5026   66.4835 H   0  0  0  0  0  0  0  0  0  0  0  0
  132.6306  125.4813   66.4835 H   0  0  0  0  0  0  0  0  0  0  0  0
  131.6123  126.4868   65.2320 H   0  0  0  0  0  0  0  0  0  0  0  0
  130.1407  127.1406   63.3346 H   0  0  0  0  0  0  0  0  0  0  0  0
  132.3410  128.6560   62.1080 H   0  0  0  0  0  0  0  0  0  0  0  0
  131.4980  130.0450   62.6760 H   0  0  0  0  0  0  0  0  0  0  0  0
  1  2  1  0
  2  3  1  0
  3  4  2  0
  3  5  1  0
  5  6  1  0
  6  7  1  0
  7  8  2  0
  8  9  1  0
  9 10  1  0
 10 11  2  0
 11 12  1  0
 12 13  2  0
 13 14  1  0
 14 15  1  0
 13 16  1  0
 16 17  2  0
  9 18  2  0
 18 19  1  0
 19 20  1  0
 20 21  2  0
 21 22  1  0
 22 23  2  0
 23 24  1  0
 24 25  1  0
 23 26  1  0
 26 27  2  0
 19 28  2  0
 28 29  1  0
 29 30  1  0
 29  5  2  0
 28  7  1  0
 17 10  1  0
 27 20  1  0
  1 31  1  0
  1 32  1  0
  1 33  1  0
 11 34  1  0
 12 35  1  0
 15 36  1  0
 15 37  1  0
 15 38  1  0
 16 39  1  0
 17 40  1  0
 18 41  1  0
 21 42  1  0
 22 43  1  0
 25 44  1  0
 25 45  1  0
 25 46  1  0
 26 47  1  0
 27 48  1  0
 30 49  1  0
 30 50  1  0
M  END
>  <Binding energies>  (1) 
[-7.29]

>  <Ligand effiencies>  (1) 
[-0.2278125]

>  <Interactions>  (1) 
["V-B:MET:535:CE:9806, V-B:TYR:539:C:9838, V-B:PRO:540:CD:9858, V-A:ASP:366:CG:3212, V-B:PRO:540:N:9855, V-B:PRO:540:CA:9854, V-B:LEU:363:CD1:8160, V-B:TYR:539:CZ:9848, V-A:GLU:543:CD:4908, H-A:GLU:543:OE1:4909, V-A:PRO:540:CB:4885, H-A:ALA:541:N:4891, V-A:PRO:540:CA:4883, V-A:HIS:456:CE1:4069, H-A:TYR:484:OH:4347, H-A:ARG:545:NE:4924, V-A:ARG:545:CZ:4926, V-B:TYR:539:CD1:9844, V-B:TYR:539:CE1:9846, H-B:TYR:539:N:9841, H-A:ARG:545:NH1:4927, H-A:GLY:454:N:4049, H-A:ASP:366:OD2:3214, H-A:ASP:366:OD1:3213, V-B:ILE:538:CA:9831, V-B:ILE:538:CD1:9836, V-B:ILE:538:CG2:9834, V-A:PRO:540:C:4881, V-B:ILE:538:CB:9833, V-A:ARG:545:CG:4922, V-A:ARG:545:CD:4923"]

$$$$
9a_Ghoteimi_2023
     RDKit          3D

 85 91  0  0  0  0  0  0  0  0999 V2000
  127.1820  131.1550   56.4980 C   0  0  0  0  0  0  0  0  0  0  0  0
  125.8750  130.6770   55.8580 C   0  0  0  0  0  0  0  0  0  0  0  0
  125.0190  130.1510   56.8660 O   0  0  0  0  0  0  0  0  0  0  0  0
  124.5160  130.9470   57.8440 C   0  0  0  0  0  0  0  0  0  0  0  0
  123.7140  131.8620   57.6310 O   0  0  0  0  0  0  0  0  0  0  0  0
  125.0370  130.6100   59.2110 C   0  0  0  0  0  0  0  0  0  0  0  0
  126.0310  129.6310   59.3430 C   0  0  0  0  0  0  0  0  0  0  0  0
  126.5320  129.2950   60.5970 C   0  0  0  0  0  0  0  0  0  0  0  0
  126.0540  129.9290   61.7440 C   0  0  0  0  0  0  0  0  0  0  0  0
  126.6340  129.5090   62.9570 N   0  0  0  0  0  0  0  0  0  0  0  0
  126.8520  130.1900   64.1090 C   0  0  0  0  0  0  0  0  0  0  0  0
  126.5520  131.3720   64.2820 O   0  0  0  0  0  0  0  0  0  0  0  0
  127.4830  129.4180   65.1830 C   0  0  0  0  0  0  0  0  0  0  0  0
  127.3400  129.9440   66.8610 S   0  0  0  0  0  0  0  0  0  0  0  0
  128.2780  128.5780   67.4170 C   0  0  0  0  0  0  0  0  0  0  0  0
  128.5260  128.3810   68.7110 N   0  0  0  0  0  0  0  0  0  0  0  0
  129.2550  127.2820   69.0400 C   0  0  0  0  0  0  0  0  0  0  0  0
  129.5130  127.0760   70.4970 C   0  0  0  0  0  0  0  0  0  0  0  0
  128.7680  126.1430   71.2260 C   0  0  0  0  0  0  0  0  0  0  0  0
  129.0020  125.9440   72.5840 C   0  0  0  0  0  0  0  0  0  0  0  0
  130.0000  126.6620   73.2610 C   0  0  0  0  0  0  0  0  0  0  0  0
  130.2340  126.4870   74.6290 N   0  0  0  0  0  0  0  0  0  0  0  0
  131.4810  125.8710   75.1270 C   0  0  0  0  0  0  0  0  0  0  0  0
  131.4120  125.4320   76.6040 C   0  0  0  0  0  0  0  0  0  0  0  0
  131.0240  126.5250   77.4200 O   0  0  0  0  0  0  0  0  0  0  0  0
  129.7460  127.0190   77.0520 C   0  0  0  0  0  0  0  0  0  0  0  0
  129.7710  127.5100   75.5900 C   0  0  0  0  0  0  0  0  0  0  0  0
  130.7340  127.6060   72.5290 C   0  0  0  0  0  0  0  0  0  0  0  0
  130.4970  127.8070   71.1730 C   0  0  0  0  0  0  0  0  0  0  0  0
  129.7540  126.4020   68.0760 C   0  0  0  0  0  0  0  0  0  0  0  0
  129.5110  126.6160   66.7140 C   0  0  0  0  0  0  0  0  0  0  0  0
  130.0950  125.6700   65.7290 C   0  0  0  0  0  0  0  0  0  0  0  0
  131.0160  126.1130   64.7760 C   0  0  0  0  0  0  0  0  0  0  0  0
  131.5720  125.2230   63.8630 C   0  0  0  0  0  0  0  0  0  0  0  0
  131.2360  123.8600   63.8890 C   0  0  0  0  0  0  0  0  0  0  0  0
  131.7730  122.9500   62.9750 N   0  0  0  0  0  0  0  0  0  0  0  0
  130.8600  122.1700   62.1160 C   0  0  0  0  0  0  0  0  0  0  0  0
  131.5690  121.5050   60.9170 C   0  0  0  0  0  0  0  0  0  0  0  0
  132.6460  120.7010   61.3730 O   0  0  0  0  0  0  0  0  0  0  0  0
  133.6090  121.4660   62.0810 C   0  0  0  0  0  0  0  0  0  0  0  0
  132.9540  122.1300   63.3110 C   0  0  0  0  0  0  0  0  0  0  0  0
  130.3130  123.4260   64.8510 C   0  0  0  0  0  0  0  0  0  0  0  0
  129.7530  124.3170   65.7610 C   0  0  0  0  0  0  0  0  0  0  0  0
  128.7190  127.7420   66.3500 C   0  0  0  0  0  0  0  0  0  0  0  0
  128.2300  128.2330   65.0850 C   0  0  0  0  0  0  0  0  0  0  0  0
  128.4660  127.5850   63.9000 N   0  0  0  0  0  0  0  0  0  0  0  0
  125.0610  130.9140   61.6210 C   0  0  0  0  0  0  0  0  0  0  0  0
  124.5590  131.2480   60.3660 C   0  0  0  0  0  0  0  0  0  0  0  0
  127.0879  131.1206   57.5934 H   0  0  0  0  0  0  0  0  0  0  0  0
  128.0068  130.5003   56.1801 H   0  0  0  0  0  0  0  0  0  0  0  0
  127.3899  132.1873   56.1801 H   0  0  0  0  0  0  0  0  0  0  0  0
  125.3790  131.5235   55.3606 H   0  0  0  0  0  0  0  0  0  0  0  0
  126.0939  129.8941   55.1170 H   0  0  0  0  0  0  0  0  0  0  0  0
  126.4187  129.1236   58.4473 H   0  0  0  0  0  0  0  0  0  0  0  0
  127.3111  128.5234   60.6845 H   0  0  0  0  0  0  0  0  0  0  0  0
  126.9270  128.5430   62.9580 H   0  0  0  0  0  0  0  0  0  0  0  0
  127.9862  125.5583   70.7191 H   0  0  0  0  0  0  0  0  0  0  0  0
  128.3944  125.2116   73.1357 H   0  0  0  0  0  0  0  0  0  0  0  0
  131.7001  124.9857   74.5120 H   0  0  0  0  0  0  0  0  0  0  0  0
  132.2670  126.6374   75.0570 H   0  0  0  0  0  0  0  0  0  0  0  0
  130.6763  124.6209   76.7084 H   0  0  0  0  0  0  0  0  0  0  0  0
  132.4047  125.0803   76.9217 H   0  0  0  0  0  0  0  0  0  0  0  0
  129.0017  126.2154   77.1537 H   0  0  0  0  0  0  0  0  0  0  0  0
  129.4804  127.8591   77.7105 H   0  0  0  0  0  0  0  0  0  0  0  0
  128.7525  127.8156   75.3085 H   0  0  0  0  0  0  0  0  0  0  0  0
  130.4868  128.3439   75.5425 H   0  0  0  0  0  0  0  0  0  0  0  0
  131.5106  128.1978   73.0356 H   0  0  0  0  0  0  0  0  0  0  0  0
  131.0918  128.5516   70.6237 H   0  0  0  0  0  0  0  0  0  0  0  0
  130.3454  125.5298   68.3914 H   0  0  0  0  0  0  0  0  0  0  0  0
  131.3037  127.1743   64.7476 H   0  0  0  0  0  0  0  0  0  0  0  0
  132.2845  125.5920   63.1105 H   0  0  0  0  0  0  0  0  0  0  0  0
  130.3937  121.3826   62.7264 H   0  0  0  0  0  0  0  0  0  0  0  0
  130.1180  122.8718   61.7075 H   0  0  0  0  0  0  0  0  0  0  0  0
  130.8499  120.8754   60.3724 H   0  0  0  0  0  0  0  0  0  0  0  0
  131.9605  122.2876   60.2505 H   0  0  0  0  0  0  0  0  0  0  0  0
  134.4247  120.8073   62.4137 H   0  0  0  0  0  0  0  0  0  0  0  0
  134.0081  122.2477   61.4179 H   0  0  0  0  0  0  0  0  0  0  0  0
  132.6424  121.3394   64.0095 H   0  0  0  0  0  0  0  0  0  0  0  0
  133.7023  122.8041   63.7533 H   0  0  0  0  0  0  0  0  0  0  0  0
  130.0271  122.3644   64.8868 H   0  0  0  0  0  0  0  0  0  0  0  0
  129.0356  123.9527   66.5111 H   0  0  0  0  0  0  0  0  0  0  0  0
  129.3410  127.6850   63.4040 H   0  0  0  0  0  0  0  0  0  0  0  0
  127.7700  126.9830   63.4820 H   0  0  0  0  0  0  0  0  0  0  0  0
  124.6788  131.4230   62.5182 H   0  0  0  0  0  0  0  0  0  0  0  0
  123.7799  132.0197   60.2789 H   0  0  0  0  0  0  0  0  0  0  0  0
  1  2  1  0
  2  3  1  0
  3  4  1  0
  4  5  2  0
  4  6  1  0
  6  7  2  0
  7  8  1  0
  8  9  2  0
  9 10  1  0
 10 11  1  0
 11 12  2  0
 11 13  1  0
 13 14  1  0
 14 15  1  0
 15 16  2  0
 16 17  1  0
 17 18  1  0
 18 19  2  0
 19 20  1  0
 20 21  2  0
 21 22  1  0
 22 23  1  0
 23 24  1  0
 24 25  1  0
 25 26  1  0
 26 27  1  0
 21 28  1  0
 28 29  2  0
 17 30  2  0
 30 31  1  0
 31 32  1  0
 32 33  2  0
 33 34  1  0
 34 35  2  0
 35 36  1  0
 36 37  1  0
 37 38  1  0
 38 39  1  0
 39 40  1  0
 40 41  1  0
 35 42  1  0
 42 43  2  0
 31 44  2  0
 44 45  1  0
 45 46  1  0
  9 47  1  0
 47 48  2  0
 48  6  1  0
 45 13  2  0
 44 15  1  0
 29 18  1  0
 43 32  1  0
 27 22  1  0
 41 36  1  0
  1 49  1  0
  1 50  1  0
  1 51  1  0
  2 52  1  0
  2 53  1  0
  7 54  1  0
  8 55  1  0
 10 56  1  0
 19 57  1  0
 20 58  1  0
 23 59  1  0
 23 60  1  0
 24 61  1  0
 24 62  1  0
 26 63  1  0
 26 64  1  0
 27 65  1  0
 27 66  1  0
 28 67  1  0
 29 68  1  0
 30 69  1  0
 33 70  1  0
 34 71  1  0
 37 72  1  0
 37 73  1  0
 38 74  1  0
 38 75  1  0
 40 76  1  0
 40 77  1  0
 41 78  1  0
 41 79  1  0
 42 80  1  0
 43 81  1  0
 46 82  1  0
 46 83  1  0
 47 84  1  0
 48 85  1  0
M  END
>  <Binding energies>  (1) 
[-10.12]

>  <Ligand effiencies>  (1) 
[-0.1984313725490196]

>  <Interactions>  (1) 
["V-B:TYR:539:CD2:9845, V-B:ASP:366:CG:8184, V-B:TYR:539:CE2:9847, V-A:ILE:369:CG2:3236, H-B:TYR:531:OH:9766, V-B:ASP:366:CB:8183, H-B:GLU:543:OE2:9881, V-A:GLU:543:CD:4908, H-A:GLU:543:OE1:4909, V-A:GLU:543:CG:4907, V-A:HIS:456:CD2:4067, V-B:GLU:543:CD:9879, V-B:HIS:456:CE1:9041, V-A:GLU:543:CB:4906, V-A:HIS:456:CE1:4069, V-A:LEU:475:CD2:4258, V-B:GLU:543:CG:9878, V-A:TYR:484:CE1:4344, V-B:GLU:543:CB:9877, V-A:TYR:539:CE2:4876, V-A:TYR:539:CZ:4877, V-B:ASP:366:CA:8181, V-A:ILE:369:CD1:3238, V-A:GLY:454:CA:4048, V-B:ASP:366:C:8179, V-A:MET:535:CE:4835, H-A:TYR:539:OH:4878, V-B:TYR:531:CE1:9763, V-A:LYS:547:CE:4950, H-B:ASN:370:N:8215, H-B:GLU:543:OE1:9880"]

$$$$
9b_Ghoteimi_2023
     RDKit          3D

 72 78  0  0  0  0  0  0  0  0999 V2000
  128.7330  125.8350   58.6830 N   0  0  0  0  0  0  0  0  0  0  0  0
  128.6940  125.1490   59.8700 C   0  0  0  0  0  0  0  0  0  0  0  0
  128.3140  123.8010   59.9720 C   0  0  0  0  0  0  0  0  0  0  0  0
  127.9260  122.8780   58.9030 C   0  0  0  0  0  0  0  0  0  0  0  0
  128.2620  121.6920   58.9420 O   0  0  0  0  0  0  0  0  0  0  0  0
  127.1940  123.4240   57.8990 N   0  0  0  0  0  0  0  0  0  0  0  0
  126.7060  122.7880   56.7650 C   0  0  0  0  0  0  0  0  0  0  0  0
  127.1170  123.1150   55.4730 C   0  0  0  0  0  0  0  0  0  0  0  0
  126.4120  122.2680   54.6490 C   0  0  0  0  0  0  0  0  0  0  0  0
  125.6180  121.4730   55.4050 O   0  0  0  0  0  0  0  0  0  0  0  0
  125.8130  121.8120   56.7440 N   0  0  0  0  0  0  0  0  0  0  0  0
  128.3480  123.2540   61.6480 S   0  0  0  0  0  0  0  0  0  0  0  0
  128.8500  124.8340   62.2010 C   0  0  0  0  0  0  0  0  0  0  0  0
  129.0370  125.0940   63.4940 N   0  0  0  0  0  0  0  0  0  0  0  0
  129.4100  126.3590   63.8210 C   0  0  0  0  0  0  0  0  0  0  0  0
  129.5930  126.6300   65.2790 C   0  0  0  0  0  0  0  0  0  0  0  0
  128.8070  127.5800   65.9430 C   0  0  0  0  0  0  0  0  0  0  0  0
  128.9910  127.8380   67.2980 C   0  0  0  0  0  0  0  0  0  0  0  0
  129.9790  127.1670   68.0360 C   0  0  0  0  0  0  0  0  0  0  0  0
  130.1740  127.4140   69.3990 N   0  0  0  0  0  0  0  0  0  0  0  0
  129.0330  127.6290   70.3130 C   0  0  0  0  0  0  0  0  0  0  0  0
  129.4060  127.5400   71.8070 C   0  0  0  0  0  0  0  0  0  0  0  0
  130.4650  128.4370   72.0970 O   0  0  0  0  0  0  0  0  0  0  0  0
  131.6270  128.1310   71.3440 C   0  0  0  0  0  0  0  0  0  0  0  0
  131.3240  128.2340   69.8340 C   0  0  0  0  0  0  0  0  0  0  0  0
  130.7490  126.2030   67.3700 C   0  0  0  0  0  0  0  0  0  0  0  0
  130.5620  125.9410   66.0160 C   0  0  0  0  0  0  0  0  0  0  0  0
  129.6210  127.3480   62.8560 C   0  0  0  0  0  0  0  0  0  0  0  0
  129.4450  127.0730   61.4950 C   0  0  0  0  0  0  0  0  0  0  0  0
  129.7110  128.1500   60.5080 C   0  0  0  0  0  0  0  0  0  0  0  0
  128.9350  129.3100   60.5040 C   0  0  0  0  0  0  0  0  0  0  0  0
  129.1930  130.3290   59.5930 C   0  0  0  0  0  0  0  0  0  0  0  0
  130.2350  130.2160   58.6590 C   0  0  0  0  0  0  0  0  0  0  0  0
  130.5220  131.2340   57.7460 N   0  0  0  0  0  0  0  0  0  0  0  0
  129.4760  132.2200   57.4110 C   0  0  0  0  0  0  0  0  0  0  0  0
  129.7830  133.0190   56.1260 C   0  0  0  0  0  0  0  0  0  0  0  0
  131.0490  133.6490   56.2370 O   0  0  0  0  0  0  0  0  0  0  0  0
  132.0920  132.7050   56.4270 C   0  0  0  0  0  0  0  0  0  0  0  0
  131.8420  131.8940   57.7160 C   0  0  0  0  0  0  0  0  0  0  0  0
  131.0200  129.0540   58.6840 C   0  0  0  0  0  0  0  0  0  0  0  0
  130.7610  128.0340   59.5960 C   0  0  0  0  0  0  0  0  0  0  0  0
  129.0210  125.7640   61.1330 C   0  0  0  0  0  0  0  0  0  0  0  0
  128.0310  126.5210   58.4410 H   0  0  0  0  0  0  0  0  0  0  0  0
  129.4680  125.6780   58.0080 H   0  0  0  0  0  0  0  0  0  0  0  0
  126.9700  124.4050   57.9760 H   0  0  0  0  0  0  0  0  0  0  0  0
  127.8464  123.8833   55.1769 H   0  0  0  0  0  0  0  0  0  0  0  0
  126.4821  122.2410   53.5516 H   0  0  0  0  0  0  0  0  0  0  0  0
  128.0339  128.1296   65.3860 H   0  0  0  0  0  0  0  0  0  0  0  0
  128.3518  128.5799   67.7991 H   0  0  0  0  0  0  0  0  0  0  0  0
  128.6166  128.6284   70.1186 H   0  0  0  0  0  0  0  0  0  0  0  0
  128.3087  126.8250   70.1155 H   0  0  0  0  0  0  0  0  0  0  0  0
  128.5293  127.8020   72.4175 H   0  0  0  0  0  0  0  0  0  0  0  0
  129.7285  126.5140   72.0380 H   0  0  0  0  0  0  0  0  0  0  0  0
  132.4261  128.8409   71.6038 H   0  0  0  0  0  0  0  0  0  0  0  0
  131.9469  127.1048   71.5774 H   0  0  0  0  0  0  0  0  0  0  0  0
  131.1102  129.2860   69.5942 H   0  0  0  0  0  0  0  0  0  0  0  0
  132.2086  127.8524   69.3030 H   0  0  0  0  0  0  0  0  0  0  0  0
  131.5147  125.6437   67.9277 H   0  0  0  0  0  0  0  0  0  0  0  0
  131.1843  125.1823   65.5189 H   0  0  0  0  0  0  0  0  0  0  0  0
  129.9295  128.3559   63.1705 H   0  0  0  0  0  0  0  0  0  0  0  0
  128.1131  129.4193   61.2268 H   0  0  0  0  0  0  0  0  0  0  0  0
  128.5715  131.2366   59.6046 H   0  0  0  0  0  0  0  0  0  0  0  0
  128.5242  131.6865   57.2720 H   0  0  0  0  0  0  0  0  0  0  0  0
  129.4281  132.9407   58.2406 H   0  0  0  0  0  0  0  0  0  0  0  0
  129.7909  132.3347   55.2648 H   0  0  0  0  0  0  0  0  0  0  0  0
  129.0086  133.7874   55.9850 H   0  0  0  0  0  0  0  0  0  0  0  0
  132.1248  132.0204   55.5666 H   0  0  0  0  0  0  0  0  0  0  0  0
  133.0498  133.2385   56.5163 H   0  0  0  0  0  0  0  0  0  0  0  0
  132.6204  131.1211   57.7982 H   0  0  0  0  0  0  0  0  0  0  0  0
  131.8700  132.6030   58.5566 H   0  0  0  0  0  0  0  0  0  0  0  0
  131.8524  128.9468   57.9729 H   0  0  0  0  0  0  0  0  0  0  0  0
  131.3884  127.1305   59.5976 H   0  0  0  0  0  0  0  0  0  0  0  0
  1  2  1  0
  2  3  2  0
  3  4  1  0
  4  5  2  0
  4  6  1  0
  6  7  1  0
  7  8  1  0
  8  9  2  0
  9 10  1  0
 10 11  1  0
  3 12  1  0
 12 13  1  0
 13 14  2  0
 14 15  1  0
 15 16  1  0
 16 17  2  0
 17 18  1  0
 18 19  2  0
 19 20  1  0
 20 21  1  0
 21 22  1  0
 22 23  1  0
 23 24  1  0
 24 25  1  0
 19 26  1  0
 26 27  2  0
 15 28  2  0
 28 29  1  0
 29 30  1  0
 30 31  2  0
 31 32  1  0
 32 33  2  0
 33 34  1  0
 34 35  1  0
 35 36  1  0
 36 37  1  0
 37 38  1  0
 38 39  1  0
 33 40  1  0
 40 41  2  0
 29 42  2  0
 42  2  1  0
 11  7  2  0
 42 13  1  0
 27 16  1  0
 41 30  1  0
 25 20  1  0
 39 34  1  0
  1 43  1  0
  1 44  1  0
  6 45  1  0
  8 46  1  0
  9 47  1  0
 17 48  1  0
 18 49  1  0
 21 50  1  0
 21 51  1  0
 22 52  1  0
 22 53  1  0
 24 54  1  0
 24 55  1  0
 25 56  1  0
 25 57  1  0
 26 58  1  0
 27 59  1  0
 28 60  1  0
 31 61  1  0
 32 62  1  0
 35 63  1  0
 35 64  1  0
 36 65  1  0
 36 66  1  0
 38 67  1  0
 38 68  1  0
 39 69  1  0
 39 70  1  0
 40 71  1  0
 41 72  1  0
M  END
>  <Binding energies>  (1) 
[-10.1]

>  <Ligand effiencies>  (1) 
[-0.22444444444444445]

>  <Interactions>  (1) 
["V-B:TYR:539:CD2:9845, V-B:MET:535:CE:9806, V-B:TYR:539:CE2:9847, V-B:TYR:539:C:9838, V-A:ASP:366:CG:3212, V-B:PRO:540:N:9855, V-B:PRO:540:CA:9854, V-B:TYR:539:CZ:9848, V-A:GLU:543:CD:4908, V-A:GLU:543:CG:4907, V-A:PRO:540:CB:4885, V-A:PRO:540:CA:4883, V-B:GLU:543:CD:9879, V-B:HIS:456:CE1:9041, V-A:GLU:543:CB:4906, V-A:HIS:456:CE1:4069, V-B:TYR:539:CD1:9844, V-B:TYR:539:CE1:9846, V-B:ALA:541:CB:9863, H-B:TYR:539:N:9841, V-A:LEU:363:CD1:3188, V-A:MET:535:CE:4835, H-A:TYR:539:N:4870, V-A:ILE:538:CA:4860, V-A:ARG:545:CA:4919, V-A:GLY:544:C:4912, V-A:TYR:539:CD1:4873, V-A:ILE:538:CB:4862, V-A:PRO:540:CD:4887, V-B:ILE:538:CA:9831, V-B:ILE:538:C:9829, V-B:ILE:538:CD1:9836, V-A:ARG:545:CG:4922"]

$$$$
9c_Ghoteimi_2023
     RDKit          3D

 72 78  0  0  0  0  0  0  0  0999 V2000
  130.2350  124.4870   66.6080 N   0  0  0  0  0  0  0  0  0  0  0  0
  129.9120  125.1160   65.4320 C   0  0  0  0  0  0  0  0  0  0  0  0
  130.0940  124.5340   64.1680 C   0  0  0  0  0  0  0  0  0  0  0  0
  130.6150  123.2030   63.8420 C   0  0  0  0  0  0  0  0  0  0  0  0
  131.1550  122.5080   64.7050 O   0  0  0  0  0  0  0  0  0  0  0  0
  130.4620  122.8190   62.5510 N   0  0  0  0  0  0  0  0  0  0  0  0
  130.8760  121.6240   61.9810 C   0  0  0  0  0  0  0  0  0  0  0  0
  130.1500  120.5570   61.7220 N   0  0  0  0  0  0  0  0  0  0  0  0
  130.8760  119.5970   61.1810 C   0  0  0  0  0  0  0  0  0  0  0  0
  132.2260  119.8780   60.9920 C   0  0  0  0  0  0  0  0  0  0  0  0
  132.5530  121.4900   61.5560 S   0  0  0  0  0  0  0  0  0  0  0  0
  129.6010  125.6350   62.8820 S   0  0  0  0  0  0  0  0  0  0  0  0
  129.1740  126.8710   64.0410 C   0  0  0  0  0  0  0  0  0  0  0  0
  128.7180  128.0620   63.6560 N   0  0  0  0  0  0  0  0  0  0  0  0
  128.4310  128.9580   64.6360 C   0  0  0  0  0  0  0  0  0  0  0  0
  127.9420  130.2930   64.1750 C   0  0  0  0  0  0  0  0  0  0  0  0
  126.8280  130.9000   64.7660 C   0  0  0  0  0  0  0  0  0  0  0  0
  126.3710  132.1390   64.3270 C   0  0  0  0  0  0  0  0  0  0  0  0
  127.0060  132.8120   63.2700 C   0  0  0  0  0  0  0  0  0  0  0  0
  126.5630  134.0620   62.8220 N   0  0  0  0  0  0  0  0  0  0  0  0
  125.1860  134.2560   62.3240 C   0  0  0  0  0  0  0  0  0  0  0  0
  124.7680  135.7380   62.2080 C   0  0  0  0  0  0  0  0  0  0  0  0
  125.7020  136.4410   61.4040 O   0  0  0  0  0  0  0  0  0  0  0  0
  127.0030  136.4030   61.9670 C   0  0  0  0  0  0  0  0  0  0  0  0
  127.4900  134.9420   62.0820 C   0  0  0  0  0  0  0  0  0  0  0  0
  128.1330  132.2080   62.6950 C   0  0  0  0  0  0  0  0  0  0  0  0
  128.5910  130.9710   63.1380 C   0  0  0  0  0  0  0  0  0  0  0  0
  128.5730  128.6530   65.9920 C   0  0  0  0  0  0  0  0  0  0  0  0
  129.0300  127.3960   66.4010 C   0  0  0  0  0  0  0  0  0  0  0  0
  129.1330  127.1090   67.8540 C   0  0  0  0  0  0  0  0  0  0  0  0
  130.0890  127.7620   68.6340 C   0  0  0  0  0  0  0  0  0  0  0  0
  130.1780  127.5090   70.0000 C   0  0  0  0  0  0  0  0  0  0  0  0
  129.3140  126.5940   70.6220 C   0  0  0  0  0  0  0  0  0  0  0  0
  129.3780  126.3330   71.9940 N   0  0  0  0  0  0  0  0  0  0  0  0
  129.0000  127.3950   72.9480 C   0  0  0  0  0  0  0  0  0  0  0  0
  129.4820  127.1190   74.3880 C   0  0  0  0  0  0  0  0  0  0  0  0
  129.0020  125.8570   74.8270 O   0  0  0  0  0  0  0  0  0  0  0  0
  129.4670  124.8030   73.9990 C   0  0  0  0  0  0  0  0  0  0  0  0
  128.9910  125.0200   72.5460 C   0  0  0  0  0  0  0  0  0  0  0  0
  128.3440  125.9600   69.8320 C   0  0  0  0  0  0  0  0  0  0  0  0
  128.2550  126.2130   68.4660 C   0  0  0  0  0  0  0  0  0  0  0  0
  129.3710  126.4520   65.3910 C   0  0  0  0  0  0  0  0  0  0  0  0
  130.8200  123.6630   66.6290 H   0  0  0  0  0  0  0  0  0  0  0  0
  129.8960  124.8270   67.4970 H   0  0  0  0  0  0  0  0  0  0  0  0
  129.9960  123.4630   61.9280 H   0  0  0  0  0  0  0  0  0  0  0  0
  130.4387  118.6289   60.8954 H   0  0  0  0  0  0  0  0  0  0  0  0
  132.9665  119.1912   60.5562 H   0  0  0  0  0  0  0  0  0  0  0  0
  126.3061  130.3904   65.5894 H   0  0  0  0  0  0  0  0  0  0  0  0
  125.4990  132.5985   64.8153 H   0  0  0  0  0  0  0  0  0  0  0  0
  125.1092  133.7951   61.3282 H   0  0  0  0  0  0  0  0  0  0  0  0
  124.5116  133.7894   63.0571 H   0  0  0  0  0  0  0  0  0  0  0  0
  123.7707  135.8009   61.7482 H   0  0  0  0  0  0  0  0  0  0  0  0
  124.7434  136.1873   63.2118 H   0  0  0  0  0  0  0  0  0  0  0  0
  127.6943  136.9672   61.3237 H   0  0  0  0  0  0  0  0  0  0  0  0
  126.9739  136.8524   62.9706 H   0  0  0  0  0  0  0  0  0  0  0  0
  127.6165  134.5375   61.0669 H   0  0  0  0  0  0  0  0  0  0  0  0
  128.4334  134.9619   62.6474 H   0  0  0  0  0  0  0  0  0  0  0  0
  128.6643  132.7208   61.8797 H   0  0  0  0  0  0  0  0  0  0  0  0
  129.4762  130.5199   62.6659 H   0  0  0  0  0  0  0  0  0  0  0  0
  128.3220  129.4116   66.7480 H   0  0  0  0  0  0  0  0  0  0  0  0
  130.7768  128.4816   68.1659 H   0  0  0  0  0  0  0  0  0  0  0  0
  130.9360  128.0334   70.6004 H   0  0  0  0  0  0  0  0  0  0  0  0
  129.4407  128.3436   72.6077 H   0  0  0  0  0  0  0  0  0  0  0  0
  127.9010  127.4353   72.9734 H   0  0  0  0  0  0  0  0  0  0  0  0
  130.5818  127.1183   74.4102 H   0  0  0  0  0  0  0  0  0  0  0  0
  129.0960  127.9041   75.0548 H   0  0  0  0  0  0  0  0  0  0  0  0
  130.5665  124.7803   74.0221 H   0  0  0  0  0  0  0  0  0  0  0  0
  129.0650  123.8490   74.3708 H   0  0  0  0  0  0  0  0  0  0  0  0
  129.4287  124.2331   71.9142 H   0  0  0  0  0  0  0  0  0  0  0  0
  127.8917  124.9818   72.5545 H   0  0  0  0  0  0  0  0  0  0  0  0
  127.6431  125.2523   70.2987 H   0  0  0  0  0  0  0  0  0  0  0  0
  127.4876  125.7034   67.8649 H   0  0  0  0  0  0  0  0  0  0  0  0
  1  2  1  0
  2  3  2  0
  3  4  1  0
  4  5  2  0
  4  6  1  0
  6  7  1  0
  7  8  2  0
  8  9  1  0
  9 10  2  0
 10 11  1  0
  3 12  1  0
 12 13  1  0
 13 14  2  0
 14 15  1  0
 15 16  1  0
 16 17  2  0
 17 18  1  0
 18 19  2  0
 19 20  1  0
 20 21  1  0
 21 22  1  0
 22 23  1  0
 23 24  1  0
 24 25  1  0
 19 26  1  0
 26 27  2  0
 15 28  2  0
 28 29  1  0
 29 30  1  0
 30 31  2  0
 31 32  1  0
 32 33  2  0
 33 34  1  0
 34 35  1  0
 35 36  1  0
 36 37  1  0
 37 38  1  0
 38 39  1  0
 33 40  1  0
 40 41  2  0
 29 42  2  0
 42  2  1  0
 11  7  1  0
 42 13  1  0
 27 16  1  0
 41 30  1  0
 25 20  1  0
 39 34  1  0
  1 43  1  0
  1 44  1  0
  6 45  1  0
  9 46  1  0
 10 47  1  0
 17 48  1  0
 18 49  1  0
 21 50  1  0
 21 51  1  0
 22 52  1  0
 22 53  1  0
 24 54  1  0
 24 55  1  0
 25 56  1  0
 25 57  1  0
 26 58  1  0
 27 59  1  0
 28 60  1  0
 31 61  1  0
 32 62  1  0
 35 63  1  0
 35 64  1  0
 36 65  1  0
 36 66  1  0
 38 67  1  0
 38 68  1  0
 39 69  1  0
 39 70  1  0
 40 71  1  0
 41 72  1  0
M  END
>  <Binding energies>  (1) 
[-9.31]

>  <Ligand effiencies>  (1) 
[-0.2068888888888889]

>  <Interactions>  (1) 
["V-B:TYR:539:CD2:9845, V-A:ILE:369:CG2:3236, V-A:GLU:543:CD:4908, V-B:PRO:482:CB:9297, V-B:LEU:475:CD1:9229, V-B:TRP:381:CH2:8343, V-A:GLU:543:CG:4907, V-A:ALA:541:CB:4892, V-B:PRO:482:CG:9298, V-B:TRP:381:CZ2:8341, V-A:HIS:456:CD2:4067, V-B:GLU:543:C:9873, V-B:GLU:543:CD:9879, V-B:HIS:456:CE1:9041, V-A:GLU:543:CB:4906, V-A:HIS:456:CE1:4069, H-B:LYS:547:NZ:9922, V-A:LEU:475:CD2:4258, V-B:HIS:456:CD2:9039, V-B:GLU:543:CG:9878, V-A:TYR:484:CE1:4344, V-B:GLU:543:CB:9877, H-A:HIS:456:NE2:4070, H-A:TYR:484:OH:4347, V-B:ALA:541:CB:9863, V-A:TRP:381:CH2:3371, V-A:TRP:381:CZ2:3369, V-A:PRO:482:CB:4325, V-A:TYR:484:CZ:4346, V-B:LYS:547:CE:9921"]

$$$$
9d_Ghoteimi_2023
     RDKit          3D

 68 73  0  0  0  0  0  0  0  0999 V2000
  133.5350  125.1180   65.2680 C   0  0  0  0  0  0  0  0  0  0  0  0
  133.0620  123.9650   64.5860 O   0  0  0  0  0  0  0  0  0  0  0  0
  131.7310  123.7560   64.4130 C   0  0  0  0  0  0  0  0  0  0  0  0
  131.2430  122.6830   64.0470 O   0  0  0  0  0  0  0  0  0  0  0  0
  130.9160  124.9550   64.7060 C   0  0  0  0  0  0  0  0  0  0  0  0
  130.4090  126.0160   63.3920 S   0  0  0  0  0  0  0  0  0  0  0  0
  129.5510  127.0530   64.5060 C   0  0  0  0  0  0  0  0  0  0  0  0
  128.8670  128.1150   64.0840 N   0  0  0  0  0  0  0  0  0  0  0  0
  128.2190  128.8470   65.0280 C   0  0  0  0  0  0  0  0  0  0  0  0
  127.4370  130.0200   64.5290 C   0  0  0  0  0  0  0  0  0  0  0  0
  126.0690  129.9010   64.2660 C   0  0  0  0  0  0  0  0  0  0  0  0
  125.3320  130.9860   63.7990 C   0  0  0  0  0  0  0  0  0  0  0  0
  125.9360  132.2360   63.5890 C   0  0  0  0  0  0  0  0  0  0  0  0
  125.2130  133.3300   63.1030 N   0  0  0  0  0  0  0  0  0  0  0  0
  125.8640  134.3860   62.3010 C   0  0  0  0  0  0  0  0  0  0  0  0
  125.0160  135.6670   62.1500 C   0  0  0  0  0  0  0  0  0  0  0  0
  123.7390  135.3450   61.6260 O   0  0  0  0  0  0  0  0  0  0  0  0
  123.0350  134.4600   62.4820 C   0  0  0  0  0  0  0  0  0  0  0  0
  123.8200  133.1410   62.6460 C   0  0  0  0  0  0  0  0  0  0  0  0
  127.3120  132.3450   63.8390 C   0  0  0  0  0  0  0  0  0  0  0  0
  128.0480  131.2590   64.3040 C   0  0  0  0  0  0  0  0  0  0  0  0
  128.2850  128.5350   66.3890 C   0  0  0  0  0  0  0  0  0  0  0  0
  129.0180  127.4310   66.8390 C   0  0  0  0  0  0  0  0  0  0  0  0
  129.0770  127.1600   68.2990 C   0  0  0  0  0  0  0  0  0  0  0  0
  128.2740  126.1730   68.8750 C   0  0  0  0  0  0  0  0  0  0  0  0
  128.3470  125.9100   70.2400 C   0  0  0  0  0  0  0  0  0  0  0  0
  129.2380  126.6180   71.0640 C   0  0  0  0  0  0  0  0  0  0  0  0
  129.3230  126.3790   72.4370 N   0  0  0  0  0  0  0  0  0  0  0  0
  129.0720  125.0170   72.9460 C   0  0  0  0  0  0  0  0  0  0  0  0
  129.5720  124.8050   74.3910 C   0  0  0  0  0  0  0  0  0  0  0  0
  129.0020  125.7800   75.2510 O   0  0  0  0  0  0  0  0  0  0  0  0
  129.3500  127.0980   74.8530 C   0  0  0  0  0  0  0  0  0  0  0  0
  128.8400  127.3670   73.4220 C   0  0  0  0  0  0  0  0  0  0  0  0
  130.0380  127.6080   70.4750 C   0  0  0  0  0  0  0  0  0  0  0  0
  129.9630  127.8710   69.1100 C   0  0  0  0  0  0  0  0  0  0  0  0
  129.6690  126.6270   65.8620 C   0  0  0  0  0  0  0  0  0  0  0  0
  130.4400  125.4130   65.9410 C   0  0  0  0  0  0  0  0  0  0  0  0
  130.6690  124.7520   67.1200 N   0  0  0  0  0  0  0  0  0  0  0  0
  133.4681  124.9550   66.3538 H   0  0  0  0  0  0  0  0  0  0  0  0
  134.5825  125.3050   64.9891 H   0  0  0  0  0  0  0  0  0  0  0  0
  132.9206  125.9868   64.9891 H   0  0  0  0  0  0  0  0  0  0  0  0
  125.5675  128.9359   64.4305 H   0  0  0  0  0  0  0  0  0  0  0  0
  124.2590  130.8619   63.5912 H   0  0  0  0  0  0  0  0  0  0  0  0
  126.8138  134.6543   62.7868 H   0  0  0  0  0  0  0  0  0  0  0  0
  126.0083  133.9769   61.2902 H   0  0  0  0  0  0  0  0  0  0  0  0
  124.8962  136.1425   63.1346 H   0  0  0  0  0  0  0  0  0  0  0  0
  125.5249  136.3574   61.4612 H   0  0  0  0  0  0  0  0  0  0  0  0
  122.9075  134.9320   63.4674 H   0  0  0  0  0  0  0  0  0  0  0  0
  122.0515  134.2402   62.0411 H   0  0  0  0  0  0  0  0  0  0  0  0
  123.2953  132.5141   63.3820 H   0  0  0  0  0  0  0  0  0  0  0  0
  123.8691  132.6712   61.6526 H   0  0  0  0  0  0  0  0  0  0  0  0
  127.8183  133.3058   63.6645 H   0  0  0  0  0  0  0  0  0  0  0  0
  129.1245  131.3761   64.4973 H   0  0  0  0  0  0  0  0  0  0  0  0
  127.7534  129.1660   67.1165 H   0  0  0  0  0  0  0  0  0  0  0  0
  127.5785  125.5990   68.2451 H   0  0  0  0  0  0  0  0  0  0  0  0
  127.6986  125.1377   70.6793 H   0  0  0  0  0  0  0  0  0  0  0  0
  127.9886  124.8284   72.9199 H   0  0  0  0  0  0  0  0  0  0  0  0
  129.6289  124.3202   72.3023 H   0  0  0  0  0  0  0  0  0  0  0  0
  129.2796  123.8015   74.7339 H   0  0  0  0  0  0  0  0  0  0  0  0
  130.6675  124.9023   74.4115 H   0  0  0  0  0  0  0  0  0  0  0  0
  128.8927  127.8206   75.5449 H   0  0  0  0  0  0  0  0  0  0  0  0
  130.4446  127.2050   74.8732 H   0  0  0  0  0  0  0  0  0  0  0  0
  127.7403  127.3416   73.4322 H   0  0  0  0  0  0  0  0  0  0  0  0
  129.2278  128.3499   73.1162 H   0  0  0  0  0  0  0  0  0  0  0  0
  130.7348  128.1850   71.1007 H   0  0  0  0  0  0  0  0  0  0  0  0
  130.6069  128.6451   68.6672 H   0  0  0  0  0  0  0  0  0  0  0  0
  131.5780  124.3810   67.3550 H   0  0  0  0  0  0  0  0  0  0  0  0
  129.9330  124.6160   67.8000 H   0  0  0  0  0  0  0  0  0  0  0  0
  1  2  1  0
  2  3  1  0
  3  4  2  0
  3  5  1  0
  5  6  1  0
  6  7  1  0
  7  8  2  0
  8  9  1  0
  9 10  1  0
 10 11  2  0
 11 12  1  0
 12 13  2  0
 13 14  1  0
 14 15  1  0
 15 16  1  0
 16 17  1  0
 17 18  1  0
 18 19  1  0
 13 20  1  0
 20 21  2  0
  9 22  2  0
 22 23  1  0
 23 24  1  0
 24 25  2  0
 25 26  1  0
 26 27  2  0
 27 28  1  0
 28 29  1  0
 29 30  1  0
 30 31  1  0
 31 32  1  0
 32 33  1  0
 27 34  1  0
 34 35  2  0
 23 36  2  0
 36 37  1  0
 37 38  1  0
 37  5  2  0
 36  7  1  0
 21 10  1  0
 35 24  1  0
 19 14  1  0
 33 28  1  0
  1 39  1  0
  1 40  1  0
  1 41  1  0
 11 42  1  0
 12 43  1  0
 15 44  1  0
 15 45  1  0
 16 46  1  0
 16 47  1  0
 18 48  1  0
 18 49  1  0
 19 50  1  0
 19 51  1  0
 20 52  1  0
 21 53  1  0
 22 54  1  0
 25 55  1  0
 26 56  1  0
 29 57  1  0
 29 58  1  0
 30 59  1  0
 30 60  1  0
 32 61  1  0
 32 62  1  0
 33 63  1  0
 33 64  1  0
 34 65  1  0
 35 66  1  0
 38 67  1  0
 38 68  1  0
M  END
>  <Binding energies>  (1) 
[-8.52]

>  <Ligand effiencies>  (1) 
[-0.213]

>  <Interactions>  (1) 
["V-A:GLU:543:CD:4908, V-B:LEU:475:CD1:9229, V-B:TRP:381:CH2:8343, V-A:GLU:543:CG:4907, V-A:ALA:541:CB:4892, V-B:TRP:381:CZ2:8341, V-B:ILE:369:CD1:8210, V-A:HIS:456:CD2:4067, V-B:GLU:543:C:9873, V-B:GLU:543:CD:9879, V-B:HIS:456:CE1:9041, V-B:GLY:454:CA:9020, V-A:GLU:543:CB:4906, V-A:HIS:456:CE1:4069, H-B:LYS:547:NZ:9922, V-B:HIS:456:CD2:9039, V-B:GLU:543:CG:9878, V-A:TYR:484:CE1:4344, V-B:GLU:543:CB:9877, H-A:HIS:456:NE2:4070, H-A:TYR:484:OH:4347, V-B:ILE:369:CG2:8208, V-A:GLY:454:CA:4048, V-A:ARG:545:CZ:4926, V-A:TYR:484:CZ:4346, H-A:GLY:454:N:4049, V-B:SER:385:C:8376, V-B:LYS:547:CE:9921, V-B:ILE:369:CG1:8209"]

$$$$
RR10_Rahimova_2017
     RDKit          3D

 66 70  0  0  0  0  0  0  0  0999 V2000
  131.7410  120.2850   60.6220 C   0  0  0  0  0  0  0  0  0  0  0  0
  131.3930  121.6160   61.3100 C   0  0  1  0  0  0  0  0  0  0  0  0
  131.1650  122.7530   60.2870 C   0  0  0  0  0  0  0  0  0  0  0  0
  130.8510  124.0870   61.0010 C   0  0  0  0  0  0  0  0  0  0  0  0
  129.6110  123.9780   61.9250 C   0  0  1  0  0  0  0  0  0  0  0  0
  128.3870  123.7930   61.1330 N   0  0  0  0  0  0  0  0  0  0  0  0
  127.1920  123.4140   61.6210 C   0  0  0  0  0  0  0  0  0  0  0  0
  126.9940  123.1970   62.8190 O   0  0  0  0  0  0  0  0  0  0  0  0
  126.0490  123.2390   60.6000 C   0  0  1  0  0  0  0  0  0  0  0  0
  124.9380  124.2830   60.8880 C   0  0  0  0  0  0  0  0  0  0  0  0
  123.8330  124.1720   59.8100 C   0  0  0  0  0  0  0  0  0  0  0  0
  124.3990  124.2360   58.3720 C   0  0  0  0  0  0  0  0  0  0  0  0
  125.5000  123.2510   58.1970 N   0  0  0  0  0  0  0  0  0  0  0  0
  126.0220  123.0250   56.5190 S   0  0  0  0  0  0  0  0  0  0  0  0
  124.8500  123.1940   55.6510 O   0  0  0  0  0  0  0  0  0  0  0  0
  126.8160  121.7920   56.4560 O   0  0  0  0  0  0  0  0  0  0  0  0
  127.1170  124.4040   56.1820 C   0  0  0  0  0  0  0  0  0  0  0  0
  128.2250  124.2110   55.3500 C   0  0  0  0  0  0  0  0  0  0  0  0
  129.1180  125.2430   55.0500 C   0  0  0  0  0  0  0  0  0  0  0  0
  128.8470  126.4880   55.6220 C   0  0  0  0  0  0  0  0  0  0  0  0
  129.4700  127.7130   55.5760 N   0  0  0  0  0  0  0  0  0  0  0  0
  128.7400  128.5900   56.3520 C   0  0  0  0  0  0  0  0  0  0  0  0
  129.1150  130.0300   56.5550 C   0  0  0  0  0  0  0  0  0  0  0  0
  130.4450  130.4460   56.4010 C   0  0  0  0  0  0  0  0  0  0  0  0
  130.7930  131.7810   56.5850 C   0  0  0  0  0  0  0  0  0  0  0  0
  129.8130  132.7090   56.9260 C   0  0  0  0  0  0  0  0  0  0  0  0
  128.4880  132.3130   57.0830 C   0  0  0  0  0  0  0  0  0  0  0  0
  128.1410  130.9770   56.8980 C   0  0  0  0  0  0  0  0  0  0  0  0
  127.6880  128.0130   56.8900 N   0  0  0  0  0  0  0  0  0  0  0  0
  127.7280  126.7130   56.4590 C   0  0  0  0  0  0  0  0  0  0  0  0
  126.8480  125.6590   56.7410 C   0  0  0  0  0  0  0  0  0  0  0  0
  126.6100  123.4250   59.1690 C   0  0  0  0  0  0  0  0  0  0  0  0
  129.8470  122.8230   62.9350 C   0  0  0  0  0  0  0  0  0  0  0  0
  130.1530  121.4850   62.2240 C   0  0  0  0  0  0  0  0  0  0  0  0
  131.9413  119.5189   61.3856 H   0  0  0  0  0  0  0  0  0  0  0  0
  130.8964  119.9649   59.9942 H   0  0  0  0  0  0  0  0  0  0  0  0
  132.6342  120.4193   59.9942 H   0  0  0  0  0  0  0  0  0  0  0  0
  132.2625  121.8742   61.9323 H   0  0  0  0  0  0  0  0  0  0  0  0
  132.0728  122.8761   59.6780 H   0  0  0  0  0  0  0  0  0  0  0  0
  130.3076  122.4857   59.6519 H   0  0  0  0  0  0  0  0  0  0  0  0
  131.7210  124.3773   61.6083 H   0  0  0  0  0  0  0  0  0  0  0  0
  130.6325  124.8401   60.2295 H   0  0  0  0  0  0  0  0  0  0  0  0
  129.4721  124.9113   62.4903 H   0  0  0  0  0  0  0  0  0  0  0  0
  128.4970  123.8480   60.1310 H   0  0  0  0  0  0  0  0  0  0  0  0
  125.6182  122.2305   60.6854 H   0  0  0  0  0  0  0  0  0  0  0  0
  124.5030  124.0912   61.8800 H   0  0  0  0  0  0  0  0  0  0  0  0
  125.3708  125.2941   60.8664 H   0  0  0  0  0  0  0  0  0  0  0  0
  123.3083  123.2140   59.9402 H   0  0  0  0  0  0  0  0  0  0  0  0
  123.1529  125.0268   59.9396 H   0  0  0  0  0  0  0  0  0  0  0  0
  123.5946  124.0096   57.6567 H   0  0  0  0  0  0  0  0  0  0  0  0
  124.7957  125.2461   58.1922 H   0  0  0  0  0  0  0  0  0  0  0  0
  128.3989  123.2145   54.9179 H   0  0  0  0  0  0  0  0  0  0  0  0
  129.9890  125.0832   54.3974 H   0  0  0  0  0  0  0  0  0  0  0  0
  130.3110  127.9760   55.0840 H   0  0  0  0  0  0  0  0  0  0  0  0
  131.2191  129.7119   56.1328 H   0  0  0  0  0  0  0  0  0  0  0  0
  131.8380  132.1014   56.4615 H   0  0  0  0  0  0  0  0  0  0  0  0
  130.0881  133.7639   57.0726 H   0  0  0  0  0  0  0  0  0  0  0  0
  127.7186  133.0517   57.3519 H   0  0  0  0  0  0  0  0  0  0  0  0
  127.0942  130.6628   57.0221 H   0  0  0  0  0  0  0  0  0  0  0  0
  125.9694  125.8139   57.3845 H   0  0  0  0  0  0  0  0  0  0  0  0
  127.3913  122.6748   58.9771 H   0  0  0  0  0  0  0  0  0  0  0  0
  127.0462  124.4294   59.0646 H   0  0  0  0  0  0  0  0  0  0  0  0
  130.6980  123.0846   63.5810 H   0  0  0  0  0  0  0  0  0  0  0  0
  128.9264  122.6925   63.5228 H   0  0  0  0  0  0  0  0  0  0  0  0
  130.3442  120.7104   62.9813 H   0  0  0  0  0  0  0  0  0  0  0  0
  129.2869  121.2110   61.6037 H   0  0  0  0  0  0  0  0  0  0  0  0
  1  2  1  0
  2  3  1  0
  3  4  1  0
  4  5  1  0
  5  6  1  0
  6  7  1  0
  7  8  2  0
  7  9  1  0
  9 10  1  0
 10 11  1  0
 11 12  1  0
 12 13  1  0
 13 14  1  0
 14 15  2  0
 14 16  2  0
 14 17  1  0
 17 18  2  0
 18 19  1  0
 19 20  2  0
 20 21  1  0
 21 22  1  0
 22 23  1  0
 23 24  2  0
 24 25  1  0
 25 26  2  0
 26 27  1  0
 27 28  2  0
 22 29  2  0
 29 30  1  0
 30 31  2  0
 13 32  1  0
  5 33  1  0
 33 34  1  0
 34  2  1  0
 32  9  1  0
 31 17  1  0
 30 20  1  0
 28 23  1  0
  1 35  1  0
  1 36  1  0
  1 37  1  0
  2 38  1  1
  3 39  1  0
  3 40  1  0
  4 41  1  0
  4 42  1  0
  5 43  1  1
  6 44  1  0
  9 45  1  6
 10 46  1  0
 10 47  1  0
 11 48  1  0
 11 49  1  0
 12 50  1  0
 12 51  1  0
 18 52  1  0
 19 53  1  0
 21 54  1  0
 24 55  1  0
 25 56  1  0
 26 57  1  0
 27 58  1  0
 28 59  1  0
 31 60  1  0
 32 61  1  0
 32 62  1  0
 33 63  1  0
 33 64  1  0
 34 65  1  0
 34 66  1  0
M  END
>  <Binding energies>  (1) 
[-11.11]

>  <Ligand effiencies>  (1) 
[-0.3086111111111111]

>  <Interactions>  (1) 
["V-B:TYR:539:CD2:9845, V-B:MET:535:CE:9806, V-B:ASP:366:CG:8184, V-B:TYR:539:CE2:9847, V-A:ILE:369:CG2:3236, V-B:LEU:363:CA:8156, V-B:PRO:540:CB:9856, H-B:TYR:531:OH:9766, V-B:PRO:540:CA:9854, V-B:LEU:363:CD1:8160, V-B:TYR:539:CZ:9848, H-B:ALA:541:N:9862, V-A:TYR:539:CD2:4874, V-A:TYR:539:C:4867, V-A:LEU:475:CD2:4258, V-A:TYR:539:CE2:4876, V-A:TYR:539:CZ:4877, V-B:TYR:539:CE1:9846, V-B:ALA:541:CB:9863, V-A:TRP:381:CH2:3371, H-B:TYR:539:N:9841, V-B:PRO:540:C:9852, H-A:TYR:531:OH:4795, V-A:TYR:531:CZ:4794, V-B:ASN:362:C:8143, V-A:MET:535:CE:4835, V-A:TYR:539:CE1:4875, H-A:MET:535:SD:4834"]

$$$$
RR11_Rahimova_2017
     RDKit          3D

 55 60  0  0  0  0  0  0  0  0999 V2000
  133.9200  121.6050   62.3000 N   0  0  0  0  0  0  0  0  0  0  0  0
  133.1680  122.4670   63.0960 C   0  0  0  0  0  0  0  0  0  0  0  0
  132.0730  121.9770   63.8050 C   0  0  0  0  0  0  0  0  0  0  0  0
  131.3240  122.8380   64.6020 C   0  0  0  0  0  0  0  0  0  0  0  0
  131.6620  124.1950   64.6980 C   0  0  0  0  0  0  0  0  0  0  0  0
  130.8570  125.1200   65.5610 C   0  0  0  0  0  0  0  0  0  0  0  0
  130.2270  126.1880   65.1210 N   0  0  0  0  0  0  0  0  0  0  0  0
  129.6170  126.7280   66.2230 C   0  0  0  0  0  0  0  0  0  0  0  0
  128.8100  127.8690   66.3180 C   0  0  0  0  0  0  0  0  0  0  0  0
  128.2820  128.2090   67.5690 C   0  0  0  0  0  0  0  0  0  0  0  0
  127.4060  129.4480   67.7040 C   0  0  0  0  0  0  0  0  0  0  0  0
  126.4730  129.6470   66.5180 C   0  0  0  0  0  0  0  0  0  0  0  0
  125.0890  129.6540   66.7250 C   0  0  0  0  0  0  0  0  0  0  0  0
  124.1930  129.8430   65.6700 C   0  0  0  0  0  0  0  0  0  0  0  0
  124.7160  130.0330   64.3850 C   0  0  0  0  0  0  0  0  0  0  0  0
  124.0570  130.2280   63.1990 N   0  0  0  0  0  0  0  0  0  0  0  0
  125.0030  130.3460   62.2910 C   0  0  0  0  0  0  0  0  0  0  0  0
  124.7510  130.5600   60.8260 C   0  0  0  0  0  0  0  0  0  0  0  0
  123.6680  131.3370   60.3970 C   0  0  0  0  0  0  0  0  0  0  0  0
  123.4290  131.5270   59.0380 C   0  0  0  0  0  0  0  0  0  0  0  0
  124.2720  130.9390   58.0980 C   0  0  0  0  0  0  0  0  0  0  0  0
  124.0300  131.1240   56.7370 N   0  0  0  0  0  0  0  0  0  0  0  0
  125.3550  130.1670   58.5110 C   0  0  0  0  0  0  0  0  0  0  0  0
  125.5930  129.9780   59.8690 C   0  0  0  0  0  0  0  0  0  0  0  0
  126.2620  130.2420   62.8420 N   0  0  0  0  0  0  0  0  0  0  0  0
  126.1180  130.0350   64.1930 C   0  0  0  0  0  0  0  0  0  0  0  0
  127.0200  129.8530   65.2450 C   0  0  0  0  0  0  0  0  0  0  0  0
  128.5770  127.4400   68.7010 C   0  0  0  0  0  0  0  0  0  0  0  0
  129.3820  126.3000   68.6400 C   0  0  0  0  0  0  0  0  0  0  0  0
  129.8880  125.9630   67.3820 C   0  0  0  0  0  0  0  0  0  0  0  0
  130.6880  124.9440   66.9190 N   0  0  0  0  0  0  0  0  0  0  0  0
  132.7650  124.6740   63.9780 C   0  0  0  0  0  0  0  0  0  0  0  0
  133.5160  123.8140   63.1800 C   0  0  0  0  0  0  0  0  0  0  0  0
  133.6060  121.3910   61.3640 H   0  0  0  0  0  0  0  0  0  0  0  0
  134.7910  121.2360   62.6530 H   0  0  0  0  0  0  0  0  0  0  0  0
  131.8014  120.9133   63.7351 H   0  0  0  0  0  0  0  0  0  0  0  0
  130.4597  122.4503   65.1611 H   0  0  0  0  0  0  0  0  0  0  0  0
  128.5963  128.4831   65.4308 H   0  0  0  0  0  0  0  0  0  0  0  0
  126.7984  129.3504   68.6158 H   0  0  0  0  0  0  0  0  0  0  0  0
  128.0740  130.3208   67.7480 H   0  0  0  0  0  0  0  0  0  0  0  0
  124.6974  129.5072   67.7424 H   0  0  0  0  0  0  0  0  0  0  0  0
  123.1068  129.8426   65.8439 H   0  0  0  0  0  0  0  0  0  0  0  0
  123.0011  131.8008   61.1387 H   0  0  0  0  0  0  0  0  0  0  0  0
  122.5770  132.1396   58.7081 H   0  0  0  0  0  0  0  0  0  0  0  0
  124.7990  131.3490   56.1220 H   0  0  0  0  0  0  0  0  0  0  0  0
  123.0950  130.9960   56.3770 H   0  0  0  0  0  0  0  0  0  0  0  0
  126.0208  129.7077   57.7655 H   0  0  0  0  0  0  0  0  0  0  0  0
  126.4484  129.3673   60.1936 H   0  0  0  0  0  0  0  0  0  0  0  0
  127.1120  130.3070   62.3000 H   0  0  0  0  0  0  0  0  0  0  0  0
  128.1076  129.8707   65.0811 H   0  0  0  0  0  0  0  0  0  0  0  0
  128.1603  127.7441   69.6725 H   0  0  0  0  0  0  0  0  0  0  0  0
  129.6055  125.6998   69.5343 H   0  0  0  0  0  0  0  0  0  0  0  0
  131.0980  124.1800   67.4350 H   0  0  0  0  0  0  0  0  0  0  0  0
  133.0397  125.7371   64.0436 H   0  0  0  0  0  0  0  0  0  0  0  0
  134.3807  124.1967   62.6181 H   0  0  0  0  0  0  0  0  0  0  0  0
  1  2  1  0
  2  3  2  0
  3  4  1  0
  4  5  2  0
  5  6  1  0
  6  7  2  0
  7  8  1  0
  8  9  2  0
  9 10  1  0
 10 11  1  0
 11 12  1  0
 12 13  2  0
 13 14  1  0
 14 15  2  0
 15 16  1  0
 16 17  2  0
 17 18  1  0
 18 19  2  0
 19 20  1  0
 20 21  2  0
 21 22  1  0
 21 23  1  0
 23 24  2  0
 17 25  1  0
 25 26  1  0
 26 27  2  0
 10 28  2  0
 28 29  1  0
 29 30  2  0
 30 31  1  0
  5 32  1  0
 32 33  2  0
 33  2  1  0
 31  6  1  0
 30  8  1  0
 27 12  1  0
 26 15  1  0
 24 18  1  0
  1 34  1  0
  1 35  1  0
  3 36  1  0
  4 37  1  0
  9 38  1  0
 11 39  1  0
 11 40  1  0
 13 41  1  0
 14 42  1  0
 19 43  1  0
 20 44  1  0
 22 45  1  0
 22 46  1  0
 23 47  1  0
 24 48  1  0
 25 49  1  0
 27 50  1  0
 28 51  1  0
 29 52  1  0
 31 53  1  0
 32 54  1  0
 33 55  1  0
M  END
>  <Binding energies>  (1) 
[-8.82]

>  <Ligand effiencies>  (1) 
[-0.22615384615384615]

>  <Interactions>  (1) 
["V-B:ASP:366:CG:8184, V-A:ILE:369:CG2:3236, V-B:TYR:531:CZ:9765, V-B:ASP:366:CB:8183, V-A:GLU:543:CD:4908, V-A:GLU:543:CG:4907, V-B:ILE:369:CD1:8210, H-B:GLY:454:N:9021, V-B:GLU:543:CD:9879, V-B:HIS:456:CE1:9041, V-B:GLY:454:CA:9020, H-B:ARG:545:NH2:9899, V-A:HIS:456:CE1:4069, V-A:LEU:475:CD2:4258, V-A:TYR:484:CE1:4344, V-B:GLU:543:CB:9877, H-A:HIS:456:NE2:4070, H-A:TYR:484:OH:4347, V-B:ILE:369:CG2:8208, V-A:TYR:539:CZ:4877, V-B:ASP:366:CA:8181, V-A:ILE:369:CD1:3238, V-A:GLY:454:CA:4048, V-B:ASP:366:C:8179, V-B:ARG:545:CZ:9897, V-A:TYR:484:CZ:4346, H-A:TYR:539:OH:4878, V-B:ASN:370:CB:8216, V-B:TYR:531:CE1:9763, V-B:ILE:369:CB:8207, V-B:ARG:545:CD:9894, H-B:ASP:366:O:8180, V-B:ASN:370:CA:8214, H-A:SER:385:O:3405"]

$$$$
RR11_Rahimova_2017-again1
     RDKit          3D

 56 61  0  0  0  0  0  0  0  0999 V2000
  128.0660  118.3970   73.9330 N   0  0  0  0  0  0  0  0  0  0  0  0
  128.2640  119.7530   73.6780 C   0  0  0  0  0  0  0  0  0  0  0  0
  127.1810  120.5630   73.3460 C   0  0  0  0  0  0  0  0  0  0  0  0
  127.3820  121.9170   73.0880 C   0  0  0  0  0  0  0  0  0  0  0  0
  128.6660  122.4710   73.1590 C   0  0  0  0  0  0  0  0  0  0  0  0
  128.8830  123.9290   72.8730 C   0  0  0  0  0  0  0  0  0  0  0  0
  128.9780  124.8600   73.7960 N   0  0  0  0  0  0  0  0  0  0  0  0
  129.1490  126.0340   73.1090 C   0  0  0  0  0  0  0  0  0  0  0  0
  129.2980  127.3370   73.6020 C   0  0  0  0  0  0  0  0  0  0  0  0
  129.4440  128.3760   72.6820 C   0  0  0  0  0  0  0  0  0  0  0  0
  129.4400  128.1400   71.3030 C   0  0  0  0  0  0  0  0  0  0  0  0
  129.5980  129.3110   70.3430 C   0  0  0  0  0  0  0  0  0  0  0  0
  128.9950  129.0330   68.9740 C   0  0  0  0  0  0  0  0  0  0  0  0
  129.3760  127.8850   68.2710 C   0  0  0  0  0  0  0  0  0  0  0  0
  128.8580  127.5780   67.0100 C   0  0  0  0  0  0  0  0  0  0  0  0
  127.9280  128.4770   66.4790 C   0  0  0  0  0  0  0  0  0  0  0  0
  127.2370  128.4910   65.2750 N   0  0  0  0  0  0  0  0  0  0  0  0
  126.4300  129.6030   65.2070 C   0  0  0  0  0  0  0  0  0  0  0  0
  125.5380  129.9980   64.0740 C   0  0  0  0  0  0  0  0  0  0  0  0
  124.1530  130.0740   64.2640 C   0  0  0  0  0  0  0  0  0  0  0  0
  123.3190  130.4500   63.2150 C   0  0  0  0  0  0  0  0  0  0  0  0
  123.8660  130.7500   61.9680 C   0  0  0  0  0  0  0  0  0  0  0  0
  123.0300  131.1300   60.9200 N   0  0  0  0  0  0  0  0  0  0  0  0
  125.2440  130.6750   61.7680 C   0  0  0  0  0  0  0  0  0  0  0  0
  126.0770  130.2990   62.8180 C   0  0  0  0  0  0  0  0  0  0  0  0
  126.6120  130.2870   66.3860 N   0  0  0  0  0  0  0  0  0  0  0  0
  127.5300  129.6240   67.1870 C   0  0  0  0  0  0  0  0  0  0  0  0
  128.0470  129.9220   68.4500 C   0  0  0  0  0  0  0  0  0  0  0  0
  129.3170  126.8430   70.7860 C   0  0  0  0  0  0  0  0  0  0  0  0
  129.1630  125.8090   71.7120 C   0  0  0  0  0  0  0  0  0  0  0  0
  128.9970  124.4480   71.6010 N   0  0  0  0  0  0  0  0  0  0  0  0
  129.7470  121.6440   73.4960 C   0  0  0  0  0  0  0  0  0  0  0  0
  129.5470  120.2910   73.7550 C   0  0  0  0  0  0  0  0  0  0  0  0
  128.6150  117.7120   73.4350 H   0  0  0  0  0  0  0  0  0  0  0  0
  127.3460  118.1140   74.5840 H   0  0  0  0  0  0  0  0  0  0  0  0
  126.1695  120.1347   73.2876 H   0  0  0  0  0  0  0  0  0  0  0  0
  126.5256  122.5559   72.8265 H   0  0  0  0  0  0  0  0  0  0  0  0
  129.2998  127.5354   74.6840 H   0  0  0  0  0  0  0  0  0  0  0  0
  129.5652  129.4055   73.0499 H   0  0  0  0  0  0  0  0  0  0  0  0
  129.0987  130.1906   70.7755 H   0  0  0  0  0  0  0  0  0  0  0  0
  130.6754  129.4830   70.2030 H   0  0  0  0  0  0  0  0  0  0  0  0
  130.1077  127.2012   68.7261 H   0  0  0  0  0  0  0  0  0  0  0  0
  129.1662  126.6749   66.4629 H   0  0  0  0  0  0  0  0  0  0  0  0
  127.2900  127.8130   64.5280 H   0  0  0  0  0  0  0  0  0  0  0  0
  123.7217  129.8353   65.2474 H   0  0  0  0  0  0  0  0  0  0  0  0
  122.2315  130.5103   63.3693 H   0  0  0  0  0  0  0  0  0  0  0  0
  123.1580  132.0320   60.4830 H   0  0  0  0  0  0  0  0  0  0  0  0
  122.2880  130.5130   60.6270 H   0  0  0  0  0  0  0  0  0  0  0  0
  125.6718  130.9124   60.7828 H   0  0  0  0  0  0  0  0  0  0  0  0
  127.1639  130.2382   62.6598 H   0  0  0  0  0  0  0  0  0  0  0  0
  126.1290  131.1500   66.5890 H   0  0  0  0  0  0  0  0  0  0  0  0
  127.7247  130.8137   69.0077 H   0  0  0  0  0  0  0  0  0  0  0  0
  129.3406  126.6490   69.7035 H   0  0  0  0  0  0  0  0  0  0  0  0
  128.9490  123.8840   70.7650 H   0  0  0  0  0  0  0  0  0  0  0  0
  130.7604  122.0675   73.5561 H   0  0  0  0  0  0  0  0  0  0  0  0
  130.3995  119.6483   74.0197 H   0  0  0  0  0  0  0  0  0  0  0  0
  1  2  1  0
  2  3  2  0
  3  4  1  0
  4  5  2  0
  5  6  1  0
  6  7  2  0
  7  8  1  0
  8  9  2  0
  9 10  1  0
 10 11  2  0
 11 12  1  0
 12 13  1  0
 13 14  2  0
 14 15  1  0
 15 16  2  0
 16 17  1  0
 17 18  1  0
 18 19  1  0
 19 20  2  0
 20 21  1  0
 21 22  2  0
 22 23  1  0
 22 24  1  0
 24 25  2  0
 18 26  2  0
 26 27  1  0
 27 28  2  0
 11 29  1  0
 29 30  2  0
 30 31  1  0
  5 32  1  0
 32 33  2  0
 33  2  1  0
 31  6  1  0
 30  8  1  0
 28 13  1  0
 27 16  1  0
 25 19  1  0
  1 34  1  0
  1 35  1  0
  3 36  1  0
  4 37  1  0
  9 38  1  0
 10 39  1  0
 12 40  1  0
 12 41  1  0
 14 42  1  0
 15 43  1  0
 17 44  1  0
 20 45  1  0
 21 46  1  0
 23 47  1  0
 23 48  1  0
 24 49  1  0
 25 50  1  0
 26 51  1  0
 28 52  1  0
 29 53  1  0
 31 54  1  0
 32 55  1  0
 33 56  1  0
M  CHG  1  26   1
M  END
>  <Binding energies>  (1) 
[-9.59]

>  <Ligand effiencies>  (1) 
[-0.23975]

>  <Interactions>  (1) 
["V-B:ASP:366:CG:8184, H-B:ASP:366:OD2:8186, V-B:ASP:366:CB:8183, H-B:GLU:543:OE2:9881, V-A:GLU:543:CD:4908, V-A:GLU:543:CG:4907, V-B:ILE:369:CD1:8210, V-A:HIS:456:CD2:4067, V-B:GLU:543:C:9873, V-B:GLY:453:C:9013, V-B:GLU:543:CD:9879, V-B:HIS:456:CE1:9041, H-B:GLU:543:O:9874, V-A:GLU:543:CB:4906, V-A:HIS:456:CE1:4069, H-B:LYS:547:NZ:9922, V-A:GLU:543:C:4902, H-A:HIS:456:NE2:4070, V-B:TYR:484:CE1:9316, V-B:ILE:369:CG2:8208, V-B:ASP:366:CA:8181, V-B:ARG:545:CZ:9897, V-B:TYR:484:CZ:9318, H-B:TYR:484:OH:9319, V-B:ILE:369:CB:8207, H-B:ASP:366:OD1:8185, H-B:GLU:543:OE1:9880, V-B:GLY:453:CA:9015, V-B:LYS:547:CE:9921, V-A:TYR:484:CB:4340, V-B:GLY:544:CA:9885, H-A:TYR:484:O:4337, H-B:CYS:365:O:8177"]

$$$$
RR11_Rahimova_2017-again2
     RDKit          3D

 57 62  0  0  0  0  0  0  0  0999 V2000
  134.1840  121.7440   62.1740 N   0  0  0  0  0  0  0  0  0  0  0  0
  133.4100  122.5950   62.9620 C   0  0  0  0  0  0  0  0  0  0  0  0
  133.6950  123.9580   62.9970 C   0  0  0  0  0  0  0  0  0  0  0  0
  132.9250  124.8060   63.7890 C   0  0  0  0  0  0  0  0  0  0  0  0
  131.8660  124.2960   64.5500 C   0  0  0  0  0  0  0  0  0  0  0  0
  131.0470  125.2040   65.4070 C   0  0  0  0  0  0  0  0  0  0  0  0
  130.2990  126.2800   64.9870 N   0  0  0  0  0  0  0  0  0  0  0  0
  129.6600  126.8680   66.0710 C   0  0  0  0  0  0  0  0  0  0  0  0
  128.7960  127.9630   66.1580 C   0  0  0  0  0  0  0  0  0  0  0  0
  128.3050  128.2850   67.4300 C   0  0  0  0  0  0  0  0  0  0  0  0
  127.3560  129.4650   67.5880 C   0  0  0  0  0  0  0  0  0  0  0  0
  126.4080  129.6210   66.4070 C   0  0  0  0  0  0  0  0  0  0  0  0
  125.0270  129.5070   66.6100 C   0  0  0  0  0  0  0  0  0  0  0  0
  124.1090  129.6400   65.5650 C   0  0  0  0  0  0  0  0  0  0  0  0
  124.6350  129.9000   64.2970 C   0  0  0  0  0  0  0  0  0  0  0  0
  124.0260  130.0750   63.0620 N   0  0  0  0  0  0  0  0  0  0  0  0
  124.9770  130.3060   62.0950 C   0  0  0  0  0  0  0  0  0  0  0  0
  124.7370  130.5270   60.6370 C   0  0  0  0  0  0  0  0  0  0  0  0
  125.5600  129.9150   59.6850 C   0  0  0  0  0  0  0  0  0  0  0  0
  125.3320  130.1130   58.3260 C   0  0  0  0  0  0  0  0  0  0  0  0
  124.2770  130.9240   57.9120 C   0  0  0  0  0  0  0  0  0  0  0  0
  124.0430  131.1180   56.5510 N   0  0  0  0  0  0  0  0  0  0  0  0
  123.4530  131.5420   58.8510 C   0  0  0  0  0  0  0  0  0  0  0  0
  123.6820  131.3440   60.2100 C   0  0  0  0  0  0  0  0  0  0  0  0
  126.1940  130.2830   62.7350 N   0  0  0  0  0  0  0  0  0  0  0  0
  126.0180  130.0300   64.0890 C   0  0  0  0  0  0  0  0  0  0  0  0
  126.9320  129.9020   65.1380 C   0  0  0  0  0  0  0  0  0  0  0  0
  128.6910  127.5550   68.5610 C   0  0  0  0  0  0  0  0  0  0  0  0
  129.5590  126.4640   68.4800 C   0  0  0  0  0  0  0  0  0  0  0  0
  130.0320  126.1330   67.2080 C   0  0  0  0  0  0  0  0  0  0  0  0
  130.8810  125.1240   66.7710 N   0  0  0  0  0  0  0  0  0  0  0  0
  131.5860  122.9250   64.5030 C   0  0  0  0  0  0  0  0  0  0  0  0
  132.3560  122.0760   63.7120 C   0  0  0  0  0  0  0  0  0  0  0  0
  133.7870  121.3450   61.3350 H   0  0  0  0  0  0  0  0  0  0  0  0
  135.1090  121.4820   62.4840 H   0  0  0  0  0  0  0  0  0  0  0  0
  134.5258  124.3633   62.4008 H   0  0  0  0  0  0  0  0  0  0  0  0
  133.1499  125.8824   63.8169 H   0  0  0  0  0  0  0  0  0  0  0  0
  130.2480  126.5580   64.0190 H   0  0  0  0  0  0  0  0  0  0  0  0
  128.5143  128.5454   65.2684 H   0  0  0  0  0  0  0  0  0  0  0  0
  126.7596  129.3169   68.5004 H   0  0  0  0  0  0  0  0  0  0  0  0
  127.9680  130.3773   67.6446 H   0  0  0  0  0  0  0  0  0  0  0  0
  124.6529  129.3063   67.6248 H   0  0  0  0  0  0  0  0  0  0  0  0
  123.0260  129.5447   65.7323 H   0  0  0  0  0  0  0  0  0  0  0  0
  123.0390  130.0420   62.8530 H   0  0  0  0  0  0  0  0  0  0  0  0
  126.3918  129.2739   60.0123 H   0  0  0  0  0  0  0  0  0  0  0  0
  125.9825  129.6309   57.5814 H   0  0  0  0  0  0  0  0  0  0  0  0
  124.7850  131.4690   55.9630 H   0  0  0  0  0  0  0  0  0  0  0  0
  123.1160  130.9670   56.1800 H   0  0  0  0  0  0  0  0  0  0  0  0
  122.6240  132.1844   58.5193 H   0  0  0  0  0  0  0  0  0  0  0  0
  123.0318  131.8311   60.9516 H   0  0  0  0  0  0  0  0  0  0  0  0
  127.0650  130.4270   62.2440 H   0  0  0  0  0  0  0  0  0  0  0  0
  128.0138  130.0166   64.9752 H   0  0  0  0  0  0  0  0  0  0  0  0
  128.2978  127.8505   69.5449 H   0  0  0  0  0  0  0  0  0  0  0  0
  129.8553  125.8940   69.3729 H   0  0  0  0  0  0  0  0  0  0  0  0
  131.3290  124.4130   67.3280 H   0  0  0  0  0  0  0  0  0  0  0  0
  130.7532  122.5162   65.0941 H   0  0  0  0  0  0  0  0  0  0  0  0
  132.1331  120.9993   63.6792 H   0  0  0  0  0  0  0  0  0  0  0  0
  1  2  1  0
  2  3  2  0
  3  4  1  0
  4  5  2  0
  5  6  1  0
  6  7  1  0
  7  8  1  0
  8  9  2  0
  9 10  1  0
 10 11  1  0
 11 12  1  0
 12 13  2  0
 13 14  1  0
 14 15  2  0
 15 16  1  0
 16 17  1  0
 17 18  1  0
 18 19  2  0
 19 20  1  0
 20 21  2  0
 21 22  1  0
 21 23  1  0
 23 24  2  0
 17 25  2  0
 25 26  1  0
 26 27  2  0
 10 28  2  0
 28 29  1  0
 29 30  2  0
 30 31  1  0
  5 32  1  0
 32 33  2  0
 33  2  1  0
 31  6  2  0
 30  8  1  0
 27 12  1  0
 26 15  1  0
 24 18  1  0
  1 34  1  0
  1 35  1  0
  3 36  1  0
  4 37  1  0
  7 38  1  0
  9 39  1  0
 11 40  1  0
 11 41  1  0
 13 42  1  0
 14 43  1  0
 16 44  1  0
 19 45  1  0
 20 46  1  0
 22 47  1  0
 22 48  1  0
 23 49  1  0
 24 50  1  0
 25 51  1  0
 27 52  1  0
 28 53  1  0
 29 54  1  0
 31 55  1  0
 32 56  1  0
 33 57  1  0
M  CHG  2  25   1  31   1
M  END
>  <Binding energies>  (1) 
[-10.18]

>  <Ligand effiencies>  (1) 
[-0.24829268292682927]

>  <Interactions>  (1) 
["V-B:ASP:366:CG:8184, V-A:ILE:369:CG2:3236, V-B:TYR:531:CZ:9765, V-B:ASP:366:CB:8183, V-A:GLU:543:CD:4908, V-A:GLU:543:CG:4907, H-A:GLU:543:OE2:4910, V-B:ILE:369:CD1:8210, V-B:GLU:543:CD:9879, V-B:HIS:456:CE1:9041, V-A:HIS:456:CE1:4069, V-A:LEU:475:CD2:4258, V-A:TYR:484:CE1:4344, H-A:HIS:456:NE2:4070, H-A:TYR:484:OH:4347, V-B:ILE:369:CG2:8208, V-A:TYR:539:CZ:4877, V-B:ASP:366:CA:8181, V-A:ILE:369:CD1:3238, V-A:GLY:454:CA:4048, V-B:ASP:366:C:8179, V-B:ARG:545:CZ:9897, V-A:TYR:484:CZ:4346, H-A:TYR:539:OH:4878, V-A:ILE:369:CG1:3237, V-B:ASN:370:CB:8216, V-B:TYR:531:CE1:9763, V-B:ASN:370:CG:8217, V-B:ARG:545:CG:9893, V-B:ILE:369:CB:8207, V-B:ARG:545:CD:9894, H-B:ASP:366:O:8180, H-B:ASP:366:OD1:8185, V-B:ASN:370:CA:8214, H-A:SER:385:O:3405"]

$$$$
RR12_Rahimova_2017
     RDKit          3D

 51 53  0  0  0  0  0  0  0  0999 V2000
  126.3150  122.8660   55.7850 C   0  0  0  0  0  0  0  0  0  0  0  0
  127.1000  122.1260   56.8760 C   0  0  0  0  0  0  0  0  0  0  0  0
  127.9550  123.0750   57.7370 C   0  0  0  0  0  0  0  0  0  0  0  0
  127.4860  123.0820   59.1210 N   0  0  0  0  0  0  0  0  0  0  0  0
  128.2010  122.7300   60.2550 C   0  0  0  0  0  0  0  0  0  0  0  0
  129.6300  122.2170   60.2310 C   0  0  0  0  0  0  0  0  0  0  0  0
  129.7380  120.7570   60.7100 C   0  0  0  0  0  0  0  0  0  0  0  0
  131.1080  120.4360   61.3370 C   0  0  0  0  0  0  0  0  0  0  0  0
  131.9890  121.5970   61.4580 N   0  0  0  0  0  0  0  0  0  0  0  0
  132.1670  122.3170   62.5800 C   0  0  0  0  0  0  0  0  0  0  0  0
  131.5900  122.0690   63.6410 O   0  0  0  0  0  0  0  0  0  0  0  0
  133.1510  123.4880   62.4680 C   0  0  0  0  0  0  0  0  0  0  0  0
  133.6150  123.5940   61.1210 O   0  0  0  0  0  0  0  0  0  0  0  0
  132.9110  124.3740   60.2220 C   0  0  0  0  0  0  0  0  0  0  0  0
  131.8580  125.1280   60.7470 C   0  0  0  0  0  0  0  0  0  0  0  0
  131.0940  125.9460   59.9190 C   0  0  0  0  0  0  0  0  0  0  0  0
  131.3820  126.0130   58.5590 C   0  0  0  0  0  0  0  0  0  0  0  0
  132.4260  125.2660   58.0190 C   0  0  0  0  0  0  0  0  0  0  0  0
  133.1900  124.4470   58.8470 C   0  0  0  0  0  0  0  0  0  0  0  0
  127.5160  122.8660   61.3640 N   0  0  0  0  0  0  0  0  0  0  0  0
  126.3010  123.3520   60.9680 C   0  0  0  0  0  0  0  0  0  0  0  0
  125.1890  123.6920   61.7530 C   0  0  0  0  0  0  0  0  0  0  0  0
  124.0530  124.1800   61.1060 C   0  0  0  0  0  0  0  0  0  0  0  0
  124.0170  124.3290   59.7190 C   0  0  0  0  0  0  0  0  0  0  0  0
  125.1070  123.9990   58.9110 C   0  0  0  0  0  0  0  0  0  0  0  0
  126.2460  123.5080   59.5610 C   0  0  0  0  0  0  0  0  0  0  0  0
  125.5908  123.5487   56.2535 H   0  0  0  0  0  0  0  0  0  0  0  0
  127.0118  123.4435   55.1597 H   0  0  0  0  0  0  0  0  0  0  0  0
  125.7796  122.1364   55.1597 H   0  0  0  0  0  0  0  0  0  0  0  0
  126.3867  121.6032   57.5301 H   0  0  0  0  0  0  0  0  0  0  0  0
  127.7828  121.4229   56.3766 H   0  0  0  0  0  0  0  0  0  0  0  0
  129.0023  122.7394   57.7125 H   0  0  0  0  0  0  0  0  0  0  0  0
  127.8704  124.0935   57.3303 H   0  0  0  0  0  0  0  0  0  0  0  0
  130.0106  122.2799   59.2009 H   0  0  0  0  0  0  0  0  0  0  0  0
  130.2215  122.8400   60.9180 H   0  0  0  0  0  0  0  0  0  0  0  0
  128.9558  120.5746   61.4616 H   0  0  0  0  0  0  0  0  0  0  0  0
  129.6159  120.1089   59.8296 H   0  0  0  0  0  0  0  0  0  0  0  0
  130.9407  120.0215   62.3421 H   0  0  0  0  0  0  0  0  0  0  0  0
  131.6084  119.7231   60.6651 H   0  0  0  0  0  0  0  0  0  0  0  0
  132.4990  121.8590   60.6270 H   0  0  0  0  0  0  0  0  0  0  0  0
  132.6445  124.4211   62.7557 H   0  0  0  0  0  0  0  0  0  0  0  0
  134.0062  123.3131   63.1373 H   0  0  0  0  0  0  0  0  0  0  0  0
  131.6312  125.0748   61.8220 H   0  0  0  0  0  0  0  0  0  0  0  0
  130.2662  126.5369   60.3380 H   0  0  0  0  0  0  0  0  0  0  0  0
  130.7801  126.6613   57.9053 H   0  0  0  0  0  0  0  0  0  0  0  0
  132.6464  125.3226   56.9428 H   0  0  0  0  0  0  0  0  0  0  0  0
  134.0146  123.8553   58.4229 H   0  0  0  0  0  0  0  0  0  0  0  0
  125.2120  123.5772   62.8468 H   0  0  0  0  0  0  0  0  0  0  0  0
  123.1688  124.4525   61.7009 H   0  0  0  0  0  0  0  0  0  0  0  0
  123.1023  124.7182   59.2479 H   0  0  0  0  0  0  0  0  0  0  0  0
  125.0726  124.1188   57.8181 H   0  0  0  0  0  0  0  0  0  0  0  0
  1  2  1  0
  2  3  1  0
  3  4  1  0
  4  5  1  0
  5  6  1  0
  6  7  1  0
  7  8  1  0
  8  9  1  0
  9 10  1  0
 10 11  2  0
 10 12  1  0
 12 13  1  0
 13 14  1  0
 14 15  2  0
 15 16  1  0
 16 17  2  0
 17 18  1  0
 18 19  2  0
  5 20  2  0
 20 21  1  0
 21 22  2  0
 22 23  1  0
 23 24  2  0
 24 25  1  0
 25 26  2  0
 26  4  1  0
 19 14  1  0
 26 21  1  0
  1 27  1  0
  1 28  1  0
  1 29  1  0
  2 30  1  0
  2 31  1  0
  3 32  1  0
  3 33  1  0
  6 34  1  0
  6 35  1  0
  7 36  1  0
  7 37  1  0
  8 38  1  0
  8 39  1  0
  9 40  1  0
 12 41  1  0
 12 42  1  0
 15 43  1  0
 16 44  1  0
 17 45  1  0
 18 46  1  0
 19 47  1  0
 22 48  1  0
 23 49  1  0
 24 50  1  0
 25 51  1  0
M  END
>  <Binding energies>  (1) 
[-6.81]

>  <Ligand effiencies>  (1) 
[-0.2522222222222222]

>  <Interactions>  (1) 
["V-B:TYR:539:CD2:9845, V-B:MET:535:CE:9806, V-B:ASP:366:CG:8184, V-B:TYR:539:CE2:9847, V-B:TYR:539:C:9838, V-B:PRO:540:CD:9858, V-B:PRO:540:N:9855, V-A:ILE:369:CG2:3236, V-B:LEU:363:CA:8156, V-B:PRO:540:CB:9856, V-A:ASP:366:CB:3211, V-B:PRO:540:CA:9854, V-B:TYR:539:CZ:9848, H-B:ALA:541:N:9862, V-A:ASP:366:CA:3209, V-A:LEU:475:CD2:4258, V-A:ILE:369:CD1:3238, V-B:TYR:539:CA:9840, V-B:TYR:539:CD1:9844, V-B:TYR:539:CG:9843, V-B:TYR:539:CE1:9846, V-B:ALA:541:CB:9863, V-B:PRO:540:C:9852, V-B:ASN:362:CB:8147, V-A:ILE:369:CB:3235, V-A:ASP:366:C:3207, V-B:ASN:362:C:8143, V-B:ASN:362:CA:8145"]

$$$$
RR13_Rahimova_2017
     RDKit          3D

 84 90  0  0  0  0  0  0  0  0999 V2000
  130.9390  125.1600   58.1980 Cl  0  0  0  0  0  0  0  0  0  0  0  0
  130.0040  123.9570   59.0200 C   0  0  0  0  0  0  0  0  0  0  0  0
  130.5530  123.3770   60.1660 C   0  0  0  0  0  0  0  0  0  0  0  0
  129.8600  122.3890   60.8600 C   0  0  0  0  0  0  0  0  0  0  0  0
  128.6110  121.9710   60.4090 C   0  0  0  0  0  0  0  0  0  0  0  0
  128.0560  122.5450   59.2670 C   0  0  0  0  0  0  0  0  0  0  0  0
  128.7350  123.5510   58.5600 C   0  0  0  0  0  0  0  0  0  0  0  0
  128.1090  124.1540   57.2830 C   0  0  1  0  0  0  0  0  0  0  0  0
  126.9510  123.2830   56.7720 C   0  0  0  0  0  0  0  0  0  0  0  0
  127.0520  122.1420   56.1270 N   0  0  0  0  0  0  0  0  0  0  0  0
  125.7470  121.7450   55.8500 N   0  0  0  0  0  0  0  0  0  0  0  0
  124.8540  122.6830   56.3280 N   0  0  0  0  0  0  0  0  0  0  0  0
  125.6220  123.6350   56.8700 N   0  0  0  0  0  0  0  0  0  0  0  0
  125.0150  124.7910   57.5200 C   0  0  0  0  0  0  0  0  0  0  0  0
  123.9780  124.3330   58.5630 C   0  0  0  0  0  0  0  0  0  0  0  0
  124.6060  124.0840   59.9260 C   0  0  0  0  0  0  0  0  0  0  0  0
  125.8630  124.6170   60.2230 C   0  0  0  0  0  0  0  0  0  0  0  0
  126.4400  124.3820   61.4690 C   0  0  0  0  0  0  0  0  0  0  0  0
  125.7580  123.6150   62.4120 C   0  0  0  0  0  0  0  0  0  0  0  0
  124.5050  123.0810   62.1210 C   0  0  0  0  0  0  0  0  0  0  0  0
  123.9270  123.3150   60.8750 C   0  0  0  0  0  0  0  0  0  0  0  0
  127.7240  125.5780   57.4290 N   0  0  0  0  0  0  0  0  0  0  0  0
  128.4400  126.4110   56.4460 C   0  0  0  0  0  0  0  0  0  0  0  0
  127.9450  127.8750   56.5030 C   0  0  0  0  0  0  0  0  0  0  0  0
  128.1940  128.4560   57.8330 N   0  0  0  0  0  0  0  0  0  0  0  0
  127.8100  129.8850   57.9080 C   0  0  1  0  0  0  0  0  0  0  0  0
  128.8090  130.8770   57.2750 C   0  0  0  0  0  0  0  0  0  0  0  0
  128.2740  131.9310   56.5220 C   0  0  0  0  0  0  0  0  0  0  0  0
  129.1000  132.8840   55.9280 C   0  0  0  0  0  0  0  0  0  0  0  0
  130.4820  132.7930   56.0730 C   0  0  0  0  0  0  0  0  0  0  0  0
  131.0340  131.7440   56.8030 C   0  0  0  0  0  0  0  0  0  0  0  0
  130.2150  130.7820   57.3990 C   0  0  0  0  0  0  0  0  0  0  0  0
  131.0010  129.4800   58.2270 Cl  0  0  0  0  0  0  0  0  0  0  0  0
  126.3970  130.1560   57.3870 C   0  0  0  0  0  0  0  0  0  0  0  0
  126.0070  130.0230   56.1400 N   0  0  0  0  0  0  0  0  0  0  0  0
  124.6560  130.3550   56.1250 N   0  0  0  0  0  0  0  0  0  0  0  0
  124.2340  130.6780   57.3980 N   0  0  0  0  0  0  0  0  0  0  0  0
  125.3210  130.5270   58.1640 N   0  0  0  0  0  0  0  0  0  0  0  0
  125.2510  130.8090   59.5940 C   0  0  0  0  0  0  0  0  0  0  0  0
  125.8990  132.1710   59.9050 C   0  0  0  0  0  0  0  0  0  0  0  0
  127.3540  132.0310   60.3250 C   0  0  0  0  0  0  0  0  0  0  0  0
  127.7510  130.9530   61.1200 C   0  0  0  0  0  0  0  0  0  0  0  0
  129.0850  130.8210   61.4980 C   0  0  0  0  0  0  0  0  0  0  0  0
  130.0170  131.7700   61.0800 C   0  0  0  0  0  0  0  0  0  0  0  0
  129.6270  132.8470   60.2860 C   0  0  0  0  0  0  0  0  0  0  0  0
  128.2940  132.9790   59.9070 C   0  0  0  0  0  0  0  0  0  0  0  0
  127.4720  127.6230   58.8120 C   0  0  0  0  0  0  0  0  0  0  0  0
  127.9780  126.1630   58.7570 C   0  0  0  0  0  0  0  0  0  0  0  0
  131.5409  123.7036   60.5230 H   0  0  0  0  0  0  0  0  0  0  0  0
  130.2985  121.9394   61.7631 H   0  0  0  0  0  0  0  0  0  0  0  0
  128.0627  121.1883   60.9537 H   0  0  0  0  0  0  0  0  0  0  0  0
  127.0712  122.2051   58.9138 H   0  0  0  0  0  0  0  0  0  0  0  0
  128.8968  124.1496   56.5153 H   0  0  0  0  0  0  0  0  0  0  0  0
  125.7984  125.3789   58.0207 H   0  0  0  0  0  0  0  0  0  0  0  0
  124.5111  125.4060   56.7598 H   0  0  0  0  0  0  0  0  0  0  0  0
  123.2090  125.1130   58.6643 H   0  0  0  0  0  0  0  0  0  0  0  0
  123.5428  123.3852   58.2132 H   0  0  0  0  0  0  0  0  0  0  0  0
  126.3961  125.2212   59.4742 H   0  0  0  0  0  0  0  0  0  0  0  0
  127.4292  124.7998   61.7075 H   0  0  0  0  0  0  0  0  0  0  0  0
  126.2139  123.4296   63.3958 H   0  0  0  0  0  0  0  0  0  0  0  0
  123.9740  122.4771   62.8716 H   0  0  0  0  0  0  0  0  0  0  0  0
  122.9381  122.8952   60.6387 H   0  0  0  0  0  0  0  0  0  0  0  0
  129.5171  126.3855   56.6681 H   0  0  0  0  0  0  0  0  0  0  0  0
  128.2473  126.0125   55.4390 H   0  0  0  0  0  0  0  0  0  0  0  0
  128.4787  128.4666   55.7446 H   0  0  0  0  0  0  0  0  0  0  0  0
  126.8628  127.8909   56.3065 H   0  0  0  0  0  0  0  0  0  0  0  0
  127.8330  130.0805   58.9902 H   0  0  0  0  0  0  0  0  0  0  0  0
  127.1837  132.0076   56.3976 H   0  0  0  0  0  0  0  0  0  0  0  0
  128.6606  133.7070   55.3453 H   0  0  0  0  0  0  0  0  0  0  0  0
  131.1358  133.5480   55.6119 H   0  0  0  0  0  0  0  0  0  0  0  0
  132.1262  131.6719   56.9116 H   0  0  0  0  0  0  0  0  0  0  0  0
  124.1971  130.8289   59.9083 H   0  0  0  0  0  0  0  0  0  0  0  0
  125.7935  130.0229   60.1397 H   0  0  0  0  0  0  0  0  0  0  0  0
  125.8490  132.8012   59.0048 H   0  0  0  0  0  0  0  0  0  0  0  0
  125.3476  132.6248   60.7417 H   0  0  0  0  0  0  0  0  0  0  0  0
  127.0102  130.2086   61.4473 H   0  0  0  0  0  0  0  0  0  0  0  0
  129.4015  129.9728   62.1228 H   0  0  0  0  0  0  0  0  0  0  0  0
  131.0704  131.6677   61.3798 H   0  0  0  0  0  0  0  0  0  0  0  0
  130.3698  133.5900   59.9600 H   0  0  0  0  0  0  0  0  0  0  0  0
  127.9805  133.8269   59.2802 H   0  0  0  0  0  0  0  0  0  0  0  0
  127.6374  128.0258   59.8221 H   0  0  0  0  0  0  0  0  0  0  0  0
  126.3992  127.6375   58.5695 H   0  0  0  0  0  0  0  0  0  0  0  0
  129.0592  126.1469   58.9588 H   0  0  0  0  0  0  0  0  0  0  0  0
  127.4418  125.5721   59.5142 H   0  0  0  0  0  0  0  0  0  0  0  0
  1  2  1  0
  2  3  2  0
  3  4  1  0
  4  5  2  0
  5  6  1  0
  6  7  2  0
  7  8  1  0
  8  9  1  0
  9 10  2  0
 10 11  1  0
 11 12  2  0
 12 13  1  0
 13 14  1  0
 14 15  1  0
 15 16  1  0
 16 17  2  0
 17 18  1  0
 18 19  2  0
 19 20  1  0
 20 21  2  0
  8 22  1  0
 22 23  1  0
 23 24  1  0
 24 25  1  0
 25 26  1  0
 26 27  1  0
 27 28  2  0
 28 29  1  0
 29 30  2  0
 30 31  1  0
 31 32  2  0
 32 33  1  0
 26 34  1  0
 34 35  2  0
 35 36  1  0
 36 37  2  0
 37 38  1  0
 38 39  1  0
 39 40  1  0
 40 41  1  0
 41 42  2  0
 42 43  1  0
 43 44  2  0
 44 45  1  0
 45 46  2  0
 25 47  1  0
 47 48  1  0
  7  2  1  0
 13  9  1  0
 21 16  1  0
 48 22  1  0
 32 27  1  0
 38 34  1  0
 46 41  1  0
  3 49  1  0
  4 50  1  0
  5 51  1  0
  6 52  1  0
  8 53  1  6
 14 54  1  0
 14 55  1  0
 15 56  1  0
 15 57  1  0
 17 58  1  0
 18 59  1  0
 19 60  1  0
 20 61  1  0
 21 62  1  0
 23 63  1  0
 23 64  1  0
 24 65  1  0
 24 66  1  0
 26 67  1  1
 28 68  1  0
 29 69  1  0
 30 70  1  0
 31 71  1  0
 39 72  1  0
 39 73  1  0
 40 74  1  0
 40 75  1  0
 42 76  1  0
 43 77  1  0
 44 78  1  0
 45 79  1  0
 46 80  1  0
 47 81  1  0
 47 82  1  0
 48 83  1  0
 48 84  1  0
M  END
>  <Binding energies>  (1) 
[-14.06]

>  <Ligand effiencies>  (1) 
[-0.29291666666666666]

>  <Interactions>  (1) 
["V-B:TYR:539:CD2:9845, V-B:MET:535:CE:9806, V-B:ASP:366:CG:8184, V-B:TYR:539:CE2:9847, V-B:TYR:539:C:9838, V-B:PRO:540:N:9855, V-B:LEU:363:CA:8156, V-B:PRO:540:CB:9856, H-B:TYR:531:OH:9766, V-B:PRO:540:CA:9854, V-B:LEU:363:CD1:8160, V-B:TYR:539:CZ:9848, V-B:TYR:531:CZ:9765, V-B:ASP:366:CB:8183, V-B:TYR:531:CE2:9764, V-A:TYR:539:CD2:4874, V-A:PRO:540:CA:4883, V-A:TYR:539:C:4867, V-B:GLU:543:CD:9879, V-B:GLU:543:CG:9878, V-A:TYR:539:CE2:4876, V-A:TYR:539:CZ:4877, V-B:TYR:539:CE1:9846, V-B:ALA:541:CB:9863, H-B:TYR:539:N:9841, V-B:PRO:540:C:9852, V-B:ALA:541:C:9859, V-B:ASN:362:CB:8147, V-B:ASN:362:C:8143, V-B:LEU:363:CB:8158, V-A:MET:535:CE:4835, H-A:TYR:539:OH:4878, V-A:TYR:539:CG:4872, V-A:ILE:538:CA:4860, V-A:TYR:539:CD1:4873, V-A:ILE:538:CB:4862, V-A:TYR:539:CE1:4875, V-B:ASN:362:CA:8145, V-B:ASN:362:CG:8148"]

$$$$
RR14_Rahimova_2017
     RDKit          3D

 76 80  0  0  0  0  0  0  0  0999 V2000
  127.1760  129.2740   56.2040 C   0  0  0  0  0  0  0  0  0  0  0  0
  125.9160  129.9360   56.1810 O   0  0  0  0  0  0  0  0  0  0  0  0
  125.4830  130.5960   57.3150 C   0  0  0  0  0  0  0  0  0  0  0  0
  126.4730  131.0510   58.1870 C   0  0  0  0  0  0  0  0  0  0  0  0
  126.1310  131.7050   59.3660 C   0  0  0  0  0  0  0  0  0  0  0  0
  124.7870  131.9070   59.6890 C   0  0  0  0  0  0  0  0  0  0  0  0
  124.4080  132.5650   61.0100 C   0  0  0  0  0  0  0  0  0  0  0  0
  125.1120  133.8240   61.2530 N   0  0  0  0  0  0  0  0  0  0  0  0
  124.7180  134.9480   60.6440 N   0  0  0  0  0  0  0  0  0  0  0  0
  125.6090  135.9110   61.0740 N   0  0  0  0  0  0  0  0  0  0  0  0
  126.5410  135.3480   61.9390 N   0  0  0  0  0  0  0  0  0  0  0  0
  126.2240  134.0780   62.0280 C   0  0  0  0  0  0  0  0  0  0  0  0
  126.9770  133.0410   62.8480 C   0  0  0  0  0  0  0  0  0  0  0  0
  128.2130  132.5900   62.1870 N   0  0  0  0  0  0  0  0  0  0  0  0
  128.1380  131.1780   61.7870 C   0  0  0  0  0  0  0  0  0  0  0  0
  128.6930  130.2090   62.8540 C   0  0  0  0  0  0  0  0  0  0  0  0
  127.6280  129.2620   63.4440 C   0  0  0  0  0  0  0  0  0  0  0  0
  126.4280  129.9600   63.9160 N   0  0  0  0  0  0  0  0  0  0  0  0
  126.1260  129.5760   65.3010 C   0  0  0  0  0  0  0  0  0  0  0  0
  124.8370  130.2550   65.8120 C   0  0  0  0  0  0  0  0  0  0  0  0
  123.7550  129.9790   64.9270 O   0  0  0  0  0  0  0  0  0  0  0  0
  124.0030  130.4540   63.6090 C   0  0  0  0  0  0  0  0  0  0  0  0
  125.2670  129.7800   63.0310 C   0  0  0  0  0  0  0  0  0  0  0  0
  128.5030  133.4400   61.0230 C   0  0  0  0  0  0  0  0  0  0  0  0
  129.5720  132.9220   60.0640 C   0  0  0  0  0  0  0  0  0  0  0  0
  129.3730  132.9290   58.7230 C   0  0  0  0  0  0  0  0  0  0  0  0
  130.3740  132.3980   57.7760 C   0  0  0  0  0  0  0  0  0  0  0  0
  130.2080  132.4080   56.3810 C   0  0  0  0  0  0  0  0  0  0  0  0
  128.9570  132.9820   55.7300 C   0  0  0  0  0  0  0  0  0  0  0  0
  131.2190  131.8810   55.5730 C   0  0  0  0  0  0  0  0  0  0  0  0
  132.3790  131.3520   56.1370 C   0  0  0  0  0  0  0  0  0  0  0  0
  132.5540  131.3390   57.5240 C   0  0  0  0  0  0  0  0  0  0  0  0
  133.8330  130.7560   58.1100 C   0  0  0  0  0  0  0  0  0  0  0  0
  131.5450  131.8650   58.3450 C   0  0  0  0  0  0  0  0  0  0  0  0
  131.6760  131.8710   59.7500 N   0  0  0  0  0  0  0  0  0  0  0  0
  130.7850  132.3470   60.6550 C   0  0  0  0  0  0  0  0  0  0  0  0
  131.0220  132.2750   61.8610 O   0  0  0  0  0  0  0  0  0  0  0  0
  123.7900  131.4820   58.8090 C   0  0  0  0  0  0  0  0  0  0  0  0
  124.1330  130.8270   57.6300 C   0  0  0  0  0  0  0  0  0  0  0  0
  127.4857  129.1113   57.2469 H   0  0  0  0  0  0  0  0  0  0  0  0
  127.0902  128.3045   55.6914 H   0  0  0  0  0  0  0  0  0  0  0  0
  127.9257  129.8947   55.6914 H   0  0  0  0  0  0  0  0  0  0  0  0
  127.5329  130.8911   57.9398 H   0  0  0  0  0  0  0  0  0  0  0  0
  126.9193  132.0633   60.0444 H   0  0  0  0  0  0  0  0  0  0  0  0
  123.3265  132.7657   61.0023 H   0  0  0  0  0  0  0  0  0  0  0  0
  124.6954  131.8710   61.8136 H   0  0  0  0  0  0  0  0  0  0  0  0
  127.2380  133.4823   63.8212 H   0  0  0  0  0  0  0  0  0  0  0  0
  126.3211  132.1656   62.9643 H   0  0  0  0  0  0  0  0  0  0  0  0
  127.0843  130.9240   61.5994 H   0  0  0  0  0  0  0  0  0  0  0  0
  128.7597  131.0615   60.8871 H   0  0  0  0  0  0  0  0  0  0  0  0
  129.4829  129.5987   62.3918 H   0  0  0  0  0  0  0  0  0  0  0  0
  129.0706  130.8253   63.6832 H   0  0  0  0  0  0  0  0  0  0  0  0
  127.3305  128.5434   62.6661 H   0  0  0  0  0  0  0  0  0  0  0  0
  128.0802  128.7662   64.3156 H   0  0  0  0  0  0  0  0  0  0  0  0
  125.9973  128.4846   65.3487 H   0  0  0  0  0  0  0  0  0  0  0  0
  126.9616  129.9018   65.9379 H   0  0  0  0  0  0  0  0  0  0  0  0
  124.5953  129.8698   66.8136 H   0  0  0  0  0  0  0  0  0  0  0  0
  124.9965  131.3424   65.8579 H   0  0  0  0  0  0  0  0  0  0  0  0
  123.1400  130.2183   62.9689 H   0  0  0  0  0  0  0  0  0  0  0  0
  124.1584  131.5425   63.6418 H   0  0  0  0  0  0  0  0  0  0  0  0
  125.0741  128.7039   62.9093 H   0  0  0  0  0  0  0  0  0  0  0  0
  125.4957  130.2495   62.0629 H   0  0  0  0  0  0  0  0  0  0  0  0
  127.5697  133.5598   60.4533 H   0  0  0  0  0  0  0  0  0  0  0  0
  128.9039  134.3782   61.4342 H   0  0  0  0  0  0  0  0  0  0  0  0
  128.4344  133.3441   58.3271 H   0  0  0  0  0  0  0  0  0  0  0  0
  128.2527  133.3051   56.5107 H   0  0  0  0  0  0  0  0  0  0  0  0
  129.2318  133.8441   55.1045 H   0  0  0  0  0  0  0  0  0  0  0  0
  128.4827  132.2115   55.1045 H   0  0  0  0  0  0  0  0  0  0  0  0
  131.0982  131.8836   54.4797 H   0  0  0  0  0  0  0  0  0  0  0  0
  133.1637  130.9411   55.4848 H   0  0  0  0  0  0  0  0  0  0  0  0
  133.7778  130.7812   59.2083 H   0  0  0  0  0  0  0  0  0  0  0  0
  133.9500  129.7156   57.7725 H   0  0  0  0  0  0  0  0  0  0  0  0
  134.6950  131.3501   57.7725 H   0  0  0  0  0  0  0  0  0  0  0  0
  132.5130  131.4790   60.1520 H   0  0  0  0  0  0  0  0  0  0  0  0
  122.7320  131.6651   59.0478 H   0  0  0  0  0  0  0  0  0  0  0  0
  123.3443  130.4887   56.9419 H   0  0  0  0  0  0  0  0  0  0  0  0
  1  2  1  0
  2  3  1  0
  3  4  2  0
  4  5  1  0
  5  6  2  0
  6  7  1  0
  7  8  1  0
  8  9  1  0
  9 10  2  0
 10 11  1  0
 11 12  2  0
 12 13  1  0
 13 14  1  0
 14 15  1  0
 15 16  1  0
 16 17  1  0
 17 18  1  0
 18 19  1  0
 19 20  1  0
 20 21  1  0
 21 22  1  0
 22 23  1  0
 14 24  1  0
 24 25  1  0
 25 26  2  0
 26 27  1  0
 27 28  2  0
 28 29  1  0
 28 30  1  0
 30 31  2  0
 31 32  1  0
 32 33  1  0
 32 34  2  0
 34 35  1  0
 35 36  1  0
 36 37  2  0
  6 38  1  0
 38 39  2  0
 39  3  1  0
 12  8  1  0
 23 18  1  0
 36 25  1  0
 34 27  1  0
  1 40  1  0
  1 41  1  0
  1 42  1  0
  4 43  1  0
  5 44  1  0
  7 45  1  0
  7 46  1  0
 13 47  1  0
 13 48  1  0
 15 49  1  0
 15 50  1  0
 16 51  1  0
 16 52  1  0
 17 53  1  0
 17 54  1  0
 19 55  1  0
 19 56  1  0
 20 57  1  0
 20 58  1  0
 22 59  1  0
 22 60  1  0
 23 61  1  0
 23 62  1  0
 24 63  1  0
 24 64  1  0
 26 65  1  0
 29 66  1  0
 29 67  1  0
 29 68  1  0
 30 69  1  0
 31 70  1  0
 33 71  1  0
 33 72  1  0
 33 73  1  0
 35 74  1  0
 38 75  1  0
 39 76  1  0
M  END
>  <Binding energies>  (1) 
[-10.83]

>  <Ligand effiencies>  (1) 
[-0.27075]

>  <Interactions>  (1) 
["V-B:ASP:366:CG:8184, V-A:ASP:366:CG:3212, H-B:TYR:531:OH:9766, V-A:ASP:366:CB:3211, V-B:ASP:366:CB:8183, V-A:PRO:540:N:4884, V-A:GLU:543:CD:4908, V-B:LEU:475:CD1:9229, V-A:PRO:540:CB:4885, V-A:TYR:539:CD2:4874, V-A:ALA:541:CB:4892, H-A:ALA:541:N:4891, V-A:PRO:540:CA:4883, V-A:TYR:539:C:4867, H-B:GLY:454:N:9021, V-B:GLY:454:CA:9020, H-B:ARG:545:NH1:9898, H-B:ARG:545:NH2:9899, H-B:ARG:545:NE:9895, V-B:ILE:369:CG2:8208, V-A:TYR:539:CE2:4876, V-A:TYR:539:CZ:4877, V-B:ASP:366:CA:8181, V-B:ASP:366:C:8179, V-B:ARG:545:CZ:9897, V-A:TYR:531:CE2:4793, V-A:LEU:363:CD1:3188, V-A:TYR:531:CZ:4794, V-A:LEU:363:CA:3184, V-A:MET:535:CE:4835, H-A:TYR:539:OH:4878, V-B:ILE:369:CB:8207, V-A:TYR:539:CG:4872, V-A:ILE:538:CA:4860, V-A:TYR:539:CD1:4873, V-A:TYR:539:CE1:4875, V-A:ILE:538:CG2:4863, H-A:ASP:366:OD2:3214, V-A:PRO:540:C:4881, V-A:LEU:363:CB:3186"]

$$$$
RR15_Rahimova_2017
     RDKit          3D

 85 89  0  0  0  0  0  0  0  0999 V2000
  123.7320  129.6720   67.7200 C   0  0  0  0  0  0  0  0  0  0  0  0
  124.0890  130.4540   66.5850 O   0  0  0  0  0  0  0  0  0  0  0  0
  125.1040  130.0180   65.7500 C   0  0  0  0  0  0  0  0  0  0  0  0
  126.3740  129.6330   66.2060 C   0  0  0  0  0  0  0  0  0  0  0  0
  127.3520  129.2050   65.3110 C   0  0  0  0  0  0  0  0  0  0  0  0
  127.0920  129.1540   63.9380 C   0  0  0  0  0  0  0  0  0  0  0  0
  128.1500  128.6990   62.9700 C   0  0  0  0  0  0  0  0  0  0  0  0
  129.3330  128.2440   63.3580 N   0  0  0  0  0  0  0  0  0  0  0  0
  130.0220  127.9380   62.2030 N   0  0  0  0  0  0  0  0  0  0  0  0
  129.1470  128.2110   61.2340 N   0  0  0  0  0  0  0  0  0  0  0  0
  129.5230  128.1820   59.8210 C   0  0  0  0  0  0  0  0  0  0  0  0
  128.9520  129.3480   58.9750 C   0  0  0  0  0  0  0  0  0  0  0  0
  129.7380  130.1990   58.5520 O   0  0  0  0  0  0  0  0  0  0  0  0
  127.6140  129.3880   58.6930 N   0  0  0  0  0  0  0  0  0  0  0  0
  126.7600  128.1940   58.8490 C   0  0  0  0  0  0  0  0  0  0  0  0
  127.1450  127.0320   57.9090 C   0  0  0  0  0  0  0  0  0  0  0  0
  126.9420  125.6190   58.5060 C   0  0  0  0  0  0  0  0  0  0  0  0
  126.8790  124.5560   57.4980 N   0  0  0  0  0  0  0  0  0  0  0  0
  127.5520  123.3150   57.9110 C   0  0  0  0  0  0  0  0  0  0  0  0
  127.3830  122.2020   56.8540 C   0  0  0  0  0  0  0  0  0  0  0  0
  126.0020  121.9990   56.5710 O   0  0  0  0  0  0  0  0  0  0  0  0
  125.3720  123.1740   56.0720 C   0  0  0  0  0  0  0  0  0  0  0  0
  125.4830  124.3120   57.1100 C   0  0  0  0  0  0  0  0  0  0  0  0
  126.8740  130.6540   58.3990 C   0  0  2  0  0  0  0  0  0  0  0  0
  127.1710  131.2530   56.9890 C   0  0  0  0  0  0  0  0  0  0  0  0
  126.3680  131.1280   56.0640 O   0  0  0  0  0  0  0  0  0  0  0  0
  128.3240  131.9350   56.8780 N   0  0  0  0  0  0  0  0  0  0  0  0
  128.7620  132.6640   55.6930 C   0  0  0  0  0  0  0  0  0  0  0  0
  130.2570  133.0220   55.7810 C   0  0  2  0  0  0  0  0  0  0  0  0
  131.2310  131.8680   55.4840 C   0  0  0  0  0  0  0  0  0  0  0  0
  131.6970  131.4070   56.8440 C   0  0  0  0  0  0  0  0  0  0  0  0
  131.6980  132.7130   57.6190 C   0  0  0  0  0  0  0  0  0  0  0  0
  130.5100  133.3460   57.1550 O   0  0  0  0  0  0  0  0  0  0  0  0
  126.9350  131.6020   59.5910 C   0  0  0  0  0  0  0  0  0  0  0  0
  128.1100  132.3360   59.7900 C   0  0  0  0  0  0  0  0  0  0  0  0
  128.2240  133.2170   60.8620 C   0  0  0  0  0  0  0  0  0  0  0  0
  127.1580  133.3710   61.7450 C   0  0  0  0  0  0  0  0  0  0  0  0
  127.2680  134.2260   62.7860 F   0  0  0  0  0  0  0  0  0  0  0  0
  125.9810  132.6500   61.5620 C   0  0  0  0  0  0  0  0  0  0  0  0
  125.8700  131.7690   60.4900 C   0  0  0  0  0  0  0  0  0  0  0  0
  127.9870  128.7230   61.6610 N   0  0  0  0  0  0  0  0  0  0  0  0
  125.8220  129.5370   63.4860 C   0  0  0  0  0  0  0  0  0  0  0  0
  124.8240  129.9670   64.3770 C   0  0  0  0  0  0  0  0  0  0  0  0
  123.5550  130.3520   63.9800 O   0  0  0  0  0  0  0  0  0  0  0  0
  123.3520  130.8520   62.6630 C   0  0  0  0  0  0  0  0  0  0  0  0
  123.9834  130.2227   68.6384 H   0  0  0  0  0  0  0  0  0  0  0  0
  122.6514  129.4676   67.6992 H   0  0  0  0  0  0  0  0  0  0  0  0
  124.2854  128.7216   67.6992 H   0  0  0  0  0  0  0  0  0  0  0  0
  126.5998  129.6696   67.2820 H   0  0  0  0  0  0  0  0  0  0  0  0
  128.3402  128.9037   65.6887 H   0  0  0  0  0  0  0  0  0  0  0  0
  130.6206  128.2182   59.7577 H   0  0  0  0  0  0  0  0  0  0  0  0
  129.0957  127.2578   59.4047 H   0  0  0  0  0  0  0  0  0  0  0  0
  126.8407  127.8421   59.8881 H   0  0  0  0  0  0  0  0  0  0  0  0
  125.7346  128.4943   58.5875 H   0  0  0  0  0  0  0  0  0  0  0  0
  126.5316  127.1103   56.9993 H   0  0  0  0  0  0  0  0  0  0  0  0
  128.2231  127.1344   57.7161 H   0  0  0  0  0  0  0  0  0  0  0  0
  127.7811  125.4049   59.1843 H   0  0  0  0  0  0  0  0  0  0  0  0
  125.9727  125.6263   59.0261 H   0  0  0  0  0  0  0  0  0  0  0  0
  128.6243  123.5183   58.0480 H   0  0  0  0  0  0  0  0  0  0  0  0
  127.0960  122.9709   58.8510 H   0  0  0  0  0  0  0  0  0  0  0  0
  127.9039  122.4955   55.9307 H   0  0  0  0  0  0  0  0  0  0  0  0
  127.8107  121.2671   57.2452 H   0  0  0  0  0  0  0  0  0  0  0  0
  125.8643  123.4831   55.1381 H   0  0  0  0  0  0  0  0  0  0  0  0
  124.3099  122.9615   55.8802 H   0  0  0  0  0  0  0  0  0  0  0  0
  125.0670  125.2331   56.6758 H   0  0  0  0  0  0  0  0  0  0  0  0
  124.9233  124.0137   58.0087 H   0  0  0  0  0  0  0  0  0  0  0  0
  125.8051  130.4191   58.2884 H   0  0  0  0  0  0  0  0  0  0  0  0
  128.9160  132.0160   57.6920 H   0  0  0  0  0  0  0  0  0  0  0  0
  128.5946  132.0379   54.8042 H   0  0  0  0  0  0  0  0  0  0  0  0
  128.1836  133.5972   55.6243 H   0  0  0  0  0  0  0  0  0  0  0  0
  130.4266  133.8155   55.0383 H   0  0  0  0  0  0  0  0  0  0  0  0
  130.7179  131.0533   54.9521 H   0  0  0  0  0  0  0  0  0  0  0  0
  132.0659  132.1807   54.8397 H   0  0  0  0  0  0  0  0  0  0  0  0
  130.9989  130.6791   57.2831 H   0  0  0  0  0  0  0  0  0  0  0  0
  132.6672  130.8887   56.8351 H   0  0  0  0  0  0  0  0  0  0  0  0
  131.6549  132.5322   58.7032 H   0  0  0  0  0  0  0  0  0  0  0  0
  132.6055  133.3149   57.4639 H   0  0  0  0  0  0  0  0  0  0  0  0
  128.9519  132.2156   59.0924 H   0  0  0  0  0  0  0  0  0  0  0  0
  129.1518  133.7889   61.0109 H   0  0  0  0  0  0  0  0  0  0  0  0
  125.1419  132.7761   62.2620 H   0  0  0  0  0  0  0  0  0  0  0  0
  124.9402  131.1991   60.3462 H   0  0  0  0  0  0  0  0  0  0  0  0
  125.6013  129.5002   62.4090 H   0  0  0  0  0  0  0  0  0  0  0  0
  122.9387  131.8700   62.7169 H   0  0  0  0  0  0  0  0  0  0  0  0
  124.3124  130.8741   62.1271 H   0  0  0  0  0  0  0  0  0  0  0  0
  122.6480  130.1984   62.1271 H   0  0  0  0  0  0  0  0  0  0  0  0
  1  2  1  0
  2  3  1  0
  3  4  2  0
  4  5  1  0
  5  6  2  0
  6  7  1  0
  7  8  1  0
  8  9  2  0
  9 10  1  0
 10 11  1  0
 11 12  1  0
 12 13  2  0
 12 14  1  0
 14 15  1  0
 15 16  1  0
 16 17  1  0
 17 18  1  0
 18 19  1  0
 19 20  1  0
 20 21  1  0
 21 22  1  0
 22 23  1  0
 14 24  1  0
 24 25  1  0
 25 26  2  0
 25 27  1  0
 27 28  1  0
 28 29  1  0
 29 30  1  0
 30 31  1  0
 31 32  1  0
 32 33  1  0
 24 34  1  0
 34 35  2  0
 35 36  1  0
 36 37  2  0
 37 38  1  0
 37 39  1  0
 39 40  2  0
 10 41  1  0
  6 42  1  0
 42 43  2  0
 43 44  1  0
 44 45  1  0
 43  3  1  0
 41  7  2  0
 23 18  1  0
 33 29  1  0
 40 34  1  0
  1 46  1  0
  1 47  1  0
  1 48  1  0
  4 49  1  0
  5 50  1  0
 11 51  1  0
 11 52  1  0
 15 53  1  0
 15 54  1  0
 16 55  1  0
 16 56  1  0
 17 57  1  0
 17 58  1  0
 19 59  1  0
 19 60  1  0
 20 61  1  0
 20 62  1  0
 22 63  1  0
 22 64  1  0
 23 65  1  0
 23 66  1  0
 24 67  1  6
 27 68  1  0
 28 69  1  0
 28 70  1  0
 29 71  1  6
 30 72  1  0
 30 73  1  0
 31 74  1  0
 31 75  1  0
 32 76  1  0
 32 77  1  0
 35 78  1  0
 36 79  1  0
 39 80  1  0
 40 81  1  0
 42 82  1  0
 45 83  1  0
 45 84  1  0
 45 85  1  0
M  END
>  <Binding energies>  (1) 
[-8.79]

>  <Ligand effiencies>  (1) 
[-0.1910869565217391]

>  <Interactions>  (1) 
["V-B:TYR:539:CD2:9845, V-B:MET:535:CE:9806, V-B:ASP:366:CG:8184, V-B:TYR:539:CE2:9847, V-B:TYR:539:C:9838, V-B:PRO:540:N:9855, V-B:PRO:540:CA:9854, V-B:LEU:363:CD1:8160, V-B:TYR:539:CZ:9848, V-A:PRO:540:N:4884, V-B:LEU:475:CD1:9229, V-A:PRO:540:CB:4885, V-A:ALA:541:CB:4892, V-A:PRO:540:CA:4883, V-A:TYR:539:C:4867, V-B:ILE:369:CD1:8210, H-B:GLY:454:N:9021, V-B:GLU:543:CD:9879, V-B:HIS:456:CE1:9041, H-B:ARG:545:NH1:9898, H-B:ARG:545:NH2:9899, V-A:TYR:539:CE2:4876, V-A:TYR:539:CZ:4877, V-B:TYR:539:CA:9840, V-B:TYR:539:CD1:9844, V-B:TYR:539:CG:9843, V-B:TYR:539:CE1:9846, H-B:TYR:539:N:9841, V-B:ARG:545:CZ:9897, V-A:TYR:531:CE2:4793, V-A:LEU:363:CD1:3188, V-A:MET:535:CE:4835, H-A:TYR:539:OH:4878, H-B:TYR:484:OH:9319, H-B:ILE:455:N:9026, V-B:ARG:545:CG:9893, H-A:TYR:539:N:4870, V-A:ILE:538:CA:4860, V-A:TYR:539:CD1:4873, V-A:ILE:538:CB:4862, V-A:PRO:540:CD:4887, V-A:TYR:539:CE1:4875, V-A:ILE:538:C:4858, V-A:ILE:538:CG2:4863, V-B:ARG:545:CD:9894, V-B:GLY:453:CA:9015, V-B:ILE:455:C:9023, V-B:ARG:545:CB:9892"]

$$$$
RR16_Rahimova_2017
     RDKit          3D

 80 85  0  0  0  0  0  0  0  0999 V2000
  123.4640  133.2080   62.3780 O   0  0  0  0  0  0  0  0  0  0  0  0
  123.7560  131.7780   62.2240 S   0  0  0  0  0  0  0  0  0  0  0  0
  122.6920  130.7750   62.3470 O   0  0  0  0  0  0  0  0  0  0  0  0
  125.0310  131.3690   63.3730 N   0  0  0  0  0  0  0  0  0  0  0  0
  124.9520  130.1350   64.1910 C   0  0  0  0  0  0  0  0  0  0  0  0
  126.2970  129.3700   64.0900 C   0  0  0  0  0  0  0  0  0  0  0  0
  127.5130  129.9800   64.8150 C   0  0  0  0  0  0  0  0  0  0  0  0
  127.3340  130.1050   66.3380 C   0  0  0  0  0  0  0  0  0  0  0  0
  126.2950  129.1590   66.9690 C   0  0  0  0  0  0  0  0  0  0  0  0
  124.8080  129.4650   66.7000 C   0  0  0  0  0  0  0  0  0  0  0  0
  124.5060  130.5230   65.6200 C   0  0  0  0  0  0  0  0  0  0  0  0
  124.5200  131.5750   60.6190 C   0  0  0  0  0  0  0  0  0  0  0  0
  123.7490  131.2170   59.5110 C   0  0  0  0  0  0  0  0  0  0  0  0
  124.3730  130.9430   58.2980 C   0  0  0  0  0  0  0  0  0  0  0  0
  125.7630  131.0290   58.1970 C   0  0  0  0  0  0  0  0  0  0  0  0
  126.5780  130.5410   56.6780 S   0  0  0  0  0  0  0  0  0  0  0  0
  127.4440  131.6540   56.2670 O   0  0  0  0  0  0  0  0  0  0  0  0
  125.5450  130.0310   55.7680 O   0  0  0  0  0  0  0  0  0  0  0  0
  127.6110  129.1800   57.1580 N   0  0  0  0  0  0  0  0  0  0  0  0
  127.6760  128.0760   56.1660 C   0  0  0  0  0  0  0  0  0  0  0  0
  128.3280  126.8260   56.7910 C   0  0  0  0  0  0  0  0  0  0  0  0
  129.7030  127.1510   57.4250 C   0  0  0  0  0  0  0  0  0  0  0  0
  130.3460  125.9320   58.0920 C   0  0  0  0  0  0  0  0  0  0  0  0
  131.7430  125.8170   58.1320 C   0  0  0  0  0  0  0  0  0  0  0  0
  132.3710  124.7270   58.7360 C   0  0  0  0  0  0  0  0  0  0  0  0
  133.7390  124.6330   58.7700 O   0  0  0  0  0  0  0  0  0  0  0  0
  131.5650  123.7340   59.3140 C   0  0  0  0  0  0  0  0  0  0  0  0
  131.8920  122.5870   59.9770 N   0  0  0  0  0  0  0  0  0  0  0  0
  130.7170  121.9840   60.3670 N   0  0  0  0  0  0  0  0  0  0  0  0
  129.6870  122.7250   59.9130 N   0  0  0  0  0  0  0  0  0  0  0  0
  128.3170  122.3640   60.2560 C   0  0  0  0  0  0  0  0  0  0  0  0
  127.3080  122.8420   59.2220 C   0  0  0  0  0  0  0  0  0  0  0  0
  126.2680  123.6980   59.5990 C   0  0  0  0  0  0  0  0  0  0  0  0
  125.3540  124.1560   58.6490 C   0  0  0  0  0  0  0  0  0  0  0  0
  125.4770  123.7610   57.3160 C   0  0  0  0  0  0  0  0  0  0  0  0
  126.5130  122.9100   56.9320 C   0  0  0  0  0  0  0  0  0  0  0  0
  126.6730  122.4290   55.2830 Cl  0  0  0  0  0  0  0  0  0  0  0  0
  127.4250  122.4480   57.8840 C   0  0  0  0  0  0  0  0  0  0  0  0
  130.1560  123.8540   59.2620 C   0  0  0  0  0  0  0  0  0  0  0  0
  129.5250  124.9430   58.6530 C   0  0  0  0  0  0  0  0  0  0  0  0
  129.6420  128.3860   58.3610 C   0  0  0  0  0  0  0  0  0  0  0  0
  128.9390  129.5830   57.6900 C   0  0  0  0  0  0  0  0  0  0  0  0
  126.5280  131.4280   59.2950 C   0  0  0  0  0  0  0  0  0  0  0  0
  125.9060  131.6980   60.5090 C   0  0  0  0  0  0  0  0  0  0  0  0
  125.9690  131.7250   63.1740 H   0  0  0  0  0  0  0  0  0  0  0  0
  124.1941  129.4279   63.8228 H   0  0  0  0  0  0  0  0  0  0  0  0
  126.1365  128.3633   64.5034 H   0  0  0  0  0  0  0  0  0  0  0  0
  126.5600  129.4006   63.0223 H   0  0  0  0  0  0  0  0  0  0  0  0
  128.3878  129.3421   64.6205 H   0  0  0  0  0  0  0  0  0  0  0  0
  127.6384  131.0005   64.4239 H   0  0  0  0  0  0  0  0  0  0  0  0
  128.3065  129.9020   66.8102 H   0  0  0  0  0  0  0  0  0  0  0  0
  126.9568  131.1234   66.5127 H   0  0  0  0  0  0  0  0  0  0  0  0
  126.4978  128.1458   66.5917 H   0  0  0  0  0  0  0  0  0  0  0  0
  126.4186  129.2860   68.0546 H   0  0  0  0  0  0  0  0  0  0  0  0
  124.3243  128.5262   66.3922 H   0  0  0  0  0  0  0  0  0  0  0  0
  124.4248  129.8911   67.6390 H   0  0  0  0  0  0  0  0  0  0  0  0
  123.4198  130.6961   65.6045 H   0  0  0  0  0  0  0  0  0  0  0  0
  125.0838  131.4184   65.8928 H   0  0  0  0  0  0  0  0  0  0  0  0
  122.6543  131.1520   59.5968 H   0  0  0  0  0  0  0  0  0  0  0  0
  123.7729  130.6594   57.4208 H   0  0  0  0  0  0  0  0  0  0  0  0
  126.6571  127.8259   55.8355 H   0  0  0  0  0  0  0  0  0  0  0  0
  128.2831  128.4031   55.3090 H   0  0  0  0  0  0  0  0  0  0  0  0
  127.6614  126.4288   57.5706 H   0  0  0  0  0  0  0  0  0  0  0  0
  128.4860  126.0869   55.9918 H   0  0  0  0  0  0  0  0  0  0  0  0
  130.3709  127.4271   56.5958 H   0  0  0  0  0  0  0  0  0  0  0  0
  132.3592  126.6058   57.6758 H   0  0  0  0  0  0  0  0  0  0  0  0
  134.1460  124.7250   57.9050 H   0  0  0  0  0  0  0  0  0  0  0  0
  128.2503  121.2687   60.3329 H   0  0  0  0  0  0  0  0  0  0  0  0
  128.0729  122.8540   61.2101 H   0  0  0  0  0  0  0  0  0  0  0  0
  126.1701  124.0115   60.6488 H   0  0  0  0  0  0  0  0  0  0  0  0
  124.5370  124.8280   58.9506 H   0  0  0  0  0  0  0  0  0  0  0  0
  124.7560  124.1213   56.5675 H   0  0  0  0  0  0  0  0  0  0  0  0
  128.2382  121.7720   57.5810 H   0  0  0  0  0  0  0  0  0  0  0  0
  128.4284  125.0209   58.6154 H   0  0  0  0  0  0  0  0  0  0  0  0
  129.0891  128.1143   59.2723 H   0  0  0  0  0  0  0  0  0  0  0  0
  130.6738  128.6857   58.5970 H   0  0  0  0  0  0  0  0  0  0  0  0
  128.8032  130.3842   58.4313 H   0  0  0  0  0  0  0  0  0  0  0  0
  129.5621  129.9374   56.8556 H   0  0  0  0  0  0  0  0  0  0  0  0
  127.6193  131.5284   59.1999 H   0  0  0  0  0  0  0  0  0  0  0  0
  126.5038  132.0072   61.3791 H   0  0  0  0  0  0  0  0  0  0  0  0
  1  2  2  0
  2  3  2  0
  2  4  1  0
  4  5  1  0
  5  6  1  0
  6  7  1  0
  7  8  1  0
  8  9  1  0
  9 10  1  0
 10 11  1  0
  2 12  1  0
 12 13  2  0
 13 14  1  0
 14 15  2  0
 15 16  1  0
 16 17  2  0
 16 18  2  0
 16 19  1  0
 19 20  1  0
 20 21  1  0
 21 22  1  0
 22 23  1  0
 23 24  2  0
 24 25  1  0
 25 26  1  0
 25 27  2  0
 27 28  1  0
 28 29  2  0
 29 30  1  0
 30 31  1  0
 31 32  1  0
 32 33  2  0
 33 34  1  0
 34 35  2  0
 35 36  1  0
 36 37  1  0
 36 38  2  0
 30 39  1  0
 39 40  2  0
 22 41  1  0
 41 42  1  0
 15 43  1  0
 43 44  2  0
 11  5  1  0
 44 12  1  0
 42 19  1  0
 40 23  1  0
 39 27  1  0
 38 32  1  0
  4 45  1  0
  5 46  1  0
  6 47  1  0
  6 48  1  0
  7 49  1  0
  7 50  1  0
  8 51  1  0
  8 52  1  0
  9 53  1  0
  9 54  1  0
 10 55  1  0
 10 56  1  0
 11 57  1  0
 11 58  1  0
 13 59  1  0
 14 60  1  0
 20 61  1  0
 20 62  1  0
 21 63  1  0
 21 64  1  0
 22 65  1  0
 24 66  1  0
 26 67  1  0
 31 68  1  0
 31 69  1  0
 33 70  1  0
 34 71  1  0
 35 72  1  0
 38 73  1  0
 40 74  1  0
 41 75  1  0
 41 76  1  0
 42 77  1  0
 42 78  1  0
 43 79  1  0
 44 80  1  0
M  END
>  <Binding energies>  (1) 
[-10.49]

>  <Ligand effiencies>  (1) 
[-0.21854166666666666]

>  <Interactions>  (1) 
["V-B:TYR:539:CD2:9845, V-B:MET:535:CE:9806, V-B:ASP:366:CG:8184, V-B:TYR:539:CE2:9847, V-B:TYR:539:C:9838, V-B:PRO:540:N:9855, V-A:ILE:369:CG2:3236, V-B:PRO:540:CB:9856, H-B:TYR:531:OH:9766, V-A:ASP:366:CB:3211, V-B:PRO:540:CA:9854, V-B:LEU:363:CD1:8160, V-B:TYR:539:CZ:9848, V-B:ASP:366:CB:8183, V-A:GLU:543:CD:4908, V-A:GLU:543:CG:4907, V-B:ILE:369:CD1:8210, H-B:GLY:454:N:9021, V-B:GLU:543:CD:9879, V-B:HIS:456:CE1:9041, V-B:GLY:454:CA:9020, H-B:TYR:539:OH:9849, V-B:ILE:369:CG2:8208, V-A:TYR:539:CE2:4876, V-A:TYR:539:CZ:4877, V-B:ASP:366:CA:8181, V-B:ASP:366:C:8179, V-B:TYR:539:CD1:9844, V-B:TYR:539:CG:9843, V-B:TYR:539:CE1:9846, V-B:PRO:540:C:9852, V-B:ARG:545:CZ:9897, V-A:MET:535:CE:4835, H-A:TYR:539:OH:4878, V-B:ARG:545:CG:9893, V-B:ILE:369:CB:8207, V-B:ARG:545:CD:9894, V-B:ILE:538:CA:9831, H-A:ASP:366:O:3208"]

$$$$
RR17_Rahimova_2017
     RDKit          3D

 63 66  0  0  0  0  0  0  0  0999 V2000
  128.5840  129.9130   74.1310 C   0  0  0  0  0  0  0  0  0  0  0  0
  129.3880  128.6870   74.5750 C   0  0  0  0  0  0  0  0  0  0  0  0
  130.3710  128.4010   73.5840 O   0  0  0  0  0  0  0  0  0  0  0  0
  129.9680  128.1130   72.2940 C   0  0  0  0  0  0  0  0  0  0  0  0
  130.1550  129.1160   71.3440 C   0  0  0  0  0  0  0  0  0  0  0  0
  129.7790  128.9180   70.0200 C   0  0  0  0  0  0  0  0  0  0  0  0
  129.2030  127.7060   69.6150 C   0  0  0  0  0  0  0  0  0  0  0  0
  128.8080  127.5210   68.1790 C   0  0  0  0  0  0  0  0  0  0  0  0
  129.5230  126.9240   67.3680 O   0  0  0  0  0  0  0  0  0  0  0  0
  127.4580  128.1290   67.7380 C   0  0  0  0  0  0  0  0  0  0  0  0
  127.6390  129.8470   67.1400 S   0  0  0  0  0  0  0  0  0  0  0  0
  126.1870  129.9740   66.1340 C   0  0  0  0  0  0  0  0  0  0  0  0
  124.9710  129.6570   66.5120 N   0  0  0  0  0  0  0  0  0  0  0  0
  124.1150  129.9050   65.4450 N   0  0  0  0  0  0  0  0  0  0  0  0
  124.8470  130.3670   64.4630 C   0  0  0  0  0  0  0  0  0  0  0  0
  124.3060  130.7800   63.1030 C   0  0  0  0  0  0  0  0  0  0  0  0
  123.7540  132.1320   63.0730 N   0  0  0  0  0  0  0  0  0  0  0  0
  124.5050  133.2750   62.7450 C   0  0  0  0  0  0  0  0  0  0  0  0
  125.8040  133.0780   62.2780 C   0  0  0  0  0  0  0  0  0  0  0  0
  126.6040  134.1660   61.9400 C   0  0  0  0  0  0  0  0  0  0  0  0
  126.1100  135.4680   62.0610 C   0  0  0  0  0  0  0  0  0  0  0  0
  127.0030  136.6520   61.6920 C   0  0  0  0  0  0  0  0  0  0  0  0
  126.8590  137.0140   60.4150 F   0  0  0  0  0  0  0  0  0  0  0  0
  126.7150  137.7080   62.4540 F   0  0  0  0  0  0  0  0  0  0  0  0
  128.2780  136.3160   61.8900 F   0  0  0  0  0  0  0  0  0  0  0  0
  124.8040  135.6680   62.5220 C   0  0  0  0  0  0  0  0  0  0  0  0
  124.0050  134.5790   62.8590 C   0  0  0  0  0  0  0  0  0  0  0  0
  126.1760  130.4250   64.8300 N   0  0  0  0  0  0  0  0  0  0  0  0
  127.2620  130.8720   64.0610 C   0  0  0  0  0  0  0  0  0  0  0  0
  127.5560  130.2390   62.8540 C   0  0  0  0  0  0  0  0  0  0  0  0
  128.6350  130.6800   62.0930 C   0  0  0  0  0  0  0  0  0  0  0  0
  129.4220  131.7550   62.5380 C   0  0  0  0  0  0  0  0  0  0  0  0
  130.5090  132.2600   61.8510 O   0  0  0  0  0  0  0  0  0  0  0  0
  131.8030  131.7240   62.1070 C   0  0  0  0  0  0  0  0  0  0  0  0
  129.1140  132.3750   63.7500 C   0  0  0  0  0  0  0  0  0  0  0  0
  128.0350  131.9390   64.5160 C   0  0  0  0  0  0  0  0  0  0  0  0
  129.0160  126.6960   70.5710 C   0  0  0  0  0  0  0  0  0  0  0  0
  129.3940  126.8960   71.8960 C   0  0  0  0  0  0  0  0  0  0  0  0
  128.2267  130.4578   75.0173 H   0  0  0  0  0  0  0  0  0  0  0  0
  129.2250  130.5733   73.5284 H   0  0  0  0  0  0  0  0  0  0  0  0
  127.7229  129.5882   73.5284 H   0  0  0  0  0  0  0  0  0  0  0  0
  129.8811  128.8960   75.5358 H   0  0  0  0  0  0  0  0  0  0  0  0
  128.7174  127.8237   74.6973 H   0  0  0  0  0  0  0  0  0  0  0  0
  130.6046  130.0738   71.6448 H   0  0  0  0  0  0  0  0  0  0  0  0
  129.9350  129.7200   69.2835 H   0  0  0  0  0  0  0  0  0  0  0  0
  127.0399  127.5137   66.9277 H   0  0  0  0  0  0  0  0  0  0  0  0
  126.7916  128.1437   68.6130 H   0  0  0  0  0  0  0  0  0  0  0  0
  125.1262  130.7242   62.3721 H   0  0  0  0  0  0  0  0  0  0  0  0
  123.4813  130.0923   62.8644 H   0  0  0  0  0  0  0  0  0  0  0  0
  122.8530  132.2740   63.5050 H   0  0  0  0  0  0  0  0  0  0  0  0
  126.1991  132.0565   62.1760 H   0  0  0  0  0  0  0  0  0  0  0  0
  127.6288  134.0005   61.5763 H   0  0  0  0  0  0  0  0  0  0  0  0
  124.4073  136.6894   62.6184 H   0  0  0  0  0  0  0  0  0  0  0  0
  122.9775  134.7427   63.2160 H   0  0  0  0  0  0  0  0  0  0  0  0
  126.9397  129.3971   62.5056 H   0  0  0  0  0  0  0  0  0  0  0  0
  128.8721  130.1849   61.1398 H   0  0  0  0  0  0  0  0  0  0  0  0
  131.9640  131.6573   63.1931 H   0  0  0  0  0  0  0  0  0  0  0  0
  131.8787  130.7205   61.6628 H   0  0  0  0  0  0  0  0  0  0  0  0
  132.5661  132.3801   61.6628 H   0  0  0  0  0  0  0  0  0  0  0  0
  129.7289  133.2157   64.1037 H   0  0  0  0  0  0  0  0  0  0  0  0
  127.7956  132.4317   65.4699 H   0  0  0  0  0  0  0  0  0  0  0  0
  128.5668  125.7378   70.2709 H   0  0  0  0  0  0  0  0  0  0  0  0
  129.2418  126.0955   72.6350 H   0  0  0  0  0  0  0  0  0  0  0  0
  1  2  1  0
  2  3  1  0
  3  4  1  0
  4  5  2  0
  5  6  1  0
  6  7  2  0
  7  8  1  0
  8  9  2  0
  8 10  1  0
 10 11  1  0
 11 12  1  0
 12 13  2  0
 13 14  1  0
 14 15  2  0
 15 16  1  0
 16 17  1  0
 17 18  1  0
 18 19  2  0
 19 20  1  0
 20 21  2  0
 21 22  1  0
 22 23  1  0
 22 24  1  0
 22 25  1  0
 21 26  1  0
 26 27  2  0
 15 28  1  0
 28 29  1  0
 29 30  2  0
 30 31  1  0
 31 32  2  0
 32 33  1  0
 33 34  1  0
 32 35  1  0
 35 36  2  0
  7 37  1  0
 37 38  2  0
 38  4  1  0
 28 12  1  0
 36 29  1  0
 27 18  1  0
  1 39  1  0
  1 40  1  0
  1 41  1  0
  2 42  1  0
  2 43  1  0
  5 44  1  0
  6 45  1  0
 10 46  1  0
 10 47  1  0
 16 48  1  0
 16 49  1  0
 17 50  1  0
 19 51  1  0
 20 52  1  0
 26 53  1  0
 27 54  1  0
 30 55  1  0
 31 56  1  0
 34 57  1  0
 34 58  1  0
 34 59  1  0
 35 60  1  0
 36 61  1  0
 37 62  1  0
 38 63  1  0
M  END
>  <Binding energies>  (1) 
[-8.54]

>  <Ligand effiencies>  (1) 
[-0.21897435897435896]

>  <Interactions>  (1) 
["V-A:GLU:543:CD:4908, V-B:PRO:482:CB:9297, V-B:LEU:475:CD1:9229, V-B:TRP:381:CH2:8343, V-A:GLU:543:CG:4907, V-A:TYR:539:CD2:4874, V-A:ALA:541:CB:4892, V-B:PRO:482:CG:9298, V-B:TRP:381:CZ2:8341, H-A:ALA:541:N:4891, V-A:ALA:541:CA:4890, V-A:TYR:539:C:4867, V-B:ILE:369:CD1:8210, H-A:LYS:547:NZ:4951, H-B:GLY:454:N:9021, V-B:GLU:543:CD:9879, V-B:HIS:456:CE1:9041, V-B:GLY:454:CA:9020, H-B:ARG:545:NH2:9899, H-B:ARG:545:NE:9895, V-A:GLU:543:CB:4906, V-A:HIS:456:CE1:4069, V-B:HIS:456:CD2:9039, V-A:GLU:543:C:4902, V-A:TYR:539:CE2:4876, V-B:ARG:545:CZ:9897, H-B:TYR:484:OH:9319, V-A:LYS:547:CE:4950, V-B:TRP:381:CE2:8338, V-A:TYR:539:CG:4872, V-B:TRP:381:CD2:8336, V-B:TRP:381:CZ3:8342, V-A:PRO:540:C:4881, V-B:TRP:381:CE3:8339, V-A:TYR:539:CB:4871"]

$$$$
RR18_Rahimova_2017
     RDKit          3D

 56 61  0  0  0  0  0  0  0  0999 V2000
  129.4210  132.8440   60.7650 C   0  0  0  0  0  0  0  0  0  0  0  0
  128.5840  131.6030   60.9470 C   0  0  0  0  0  0  0  0  0  0  0  0
  128.4950  130.6340   61.9330 C   0  0  0  0  0  0  0  0  0  0  0  0
  127.5190  129.7280   61.5200 C   0  0  0  0  0  0  0  0  0  0  0  0
  127.0460  130.1760   60.2970 C   0  0  0  0  0  0  0  0  0  0  0  0
  125.9890  129.6670   59.3210 C   0  0  1  0  0  0  0  0  0  0  0  0
  125.4670  130.8080   58.3970 C   0  0  0  0  0  0  0  0  0  0  0  0
  124.7280  131.9340   58.9600 C   0  0  0  0  0  0  0  0  0  0  0  0
  123.7660  132.4360   58.3770 O   0  0  0  0  0  0  0  0  0  0  0  0
  125.1840  132.3500   60.1640 N   0  0  0  0  0  0  0  0  0  0  0  0
  124.7440  133.4060   60.9920 C   0  0  0  0  0  0  0  0  0  0  0  0
  125.1260  134.7470   60.8070 C   0  0  0  0  0  0  0  0  0  0  0  0
  124.6600  135.7420   61.6650 C   0  0  0  0  0  0  0  0  0  0  0  0
  123.8150  135.4140   62.7210 C   0  0  0  0  0  0  0  0  0  0  0  0
  123.4370  134.0890   62.9230 C   0  0  0  0  0  0  0  0  0  0  0  0
  123.8960  133.0800   62.0700 C   0  0  0  0  0  0  0  0  0  0  0  0
  123.4570  131.6430   62.3370 C   0  0  0  0  0  0  0  0  0  0  0  0
  125.8050  130.7810   57.0810 C   0  0  0  0  0  0  0  0  0  0  0  0
  126.4730  129.7630   56.4710 N   0  0  0  0  0  0  0  0  0  0  0  0
  126.7510  128.7030   57.1370 C   0  0  0  0  0  0  0  0  0  0  0  0
  127.4650  127.2610   56.4540 S   0  0  0  0  0  0  0  0  0  0  0  0
  127.4150  126.4230   58.0370 C   0  0  0  0  0  0  0  0  0  0  0  0
  127.8390  125.1420   58.3150 C   0  0  0  0  0  0  0  0  0  0  0  0
  128.3300  124.2720   57.2350 C   0  0  0  0  0  0  0  0  0  0  0  0
  128.4660  124.5020   56.0340 O   0  0  0  0  0  0  0  0  0  0  0  0
  128.6170  123.0850   57.7790 N   0  0  0  0  0  0  0  0  0  0  0  0
  128.4100  123.0530   59.1250 C   0  0  0  0  0  0  0  0  0  0  0  0
  128.6210  121.9860   59.9970 C   0  0  0  0  0  0  0  0  0  0  0  0
  128.3750  122.1680   61.3550 C   0  0  0  0  0  0  0  0  0  0  0  0
  127.9360  123.4080   61.8150 C   0  0  0  0  0  0  0  0  0  0  0  0
  127.7310  124.4620   60.9210 C   0  0  0  0  0  0  0  0  0  0  0  0
  127.9510  124.2910   59.5410 C   0  0  0  0  0  0  0  0  0  0  0  0
  126.8230  127.3380   59.0140 C   0  0  0  0  0  0  0  0  0  0  0  0
  126.5810  127.0910   60.1910 O   0  0  0  0  0  0  0  0  0  0  0  0
  126.5250  128.5480   58.4670 N   0  0  0  0  0  0  0  0  0  0  0  0
  127.7010  131.3180   59.9550 O   0  0  0  0  0  0  0  0  0  0  0  0
  129.6945  133.2495   61.7503 H   0  0  0  0  0  0  0  0  0  0  0  0
  130.3341  132.5917   60.2060 H   0  0  0  0  0  0  0  0  0  0  0  0
  128.8449  133.5961   60.2060 H   0  0  0  0  0  0  0  0  0  0  0  0
  129.0813  130.5882   62.8626 H   0  0  0  0  0  0  0  0  0  0  0  0
  127.1878  128.8295   62.0614 H   0  0  0  0  0  0  0  0  0  0  0  0
  125.1543  129.2893   59.9298 H   0  0  0  0  0  0  0  0  0  0  0  0
  125.9250  131.7980   60.5680 H   0  0  0  0  0  0  0  0  0  0  0  0
  125.7984  135.0129   59.9780 H   0  0  0  0  0  0  0  0  0  0  0  0
  124.9607  136.7882   61.5071 H   0  0  0  0  0  0  0  0  0  0  0  0
  123.4460  136.2007   63.3955 H   0  0  0  0  0  0  0  0  0  0  0  0
  122.7715  133.8336   63.7608 H   0  0  0  0  0  0  0  0  0  0  0  0
  123.4045  131.4713   63.4222 H   0  0  0  0  0  0  0  0  0  0  0  0
  122.4661  131.4734   61.8906 H   0  0  0  0  0  0  0  0  0  0  0  0
  124.1840  130.9486   61.8906 H   0  0  0  0  0  0  0  0  0  0  0  0
  125.5180  131.6447   56.4632 H   0  0  0  0  0  0  0  0  0  0  0  0
  128.9710  122.3050   57.2450 H   0  0  0  0  0  0  0  0  0  0  0  0
  128.9760  121.0162   59.6182 H   0  0  0  0  0  0  0  0  0  0  0  0
  128.5262  121.3379   62.0608 H   0  0  0  0  0  0  0  0  0  0  0  0
  127.7497  123.5580   62.8887 H   0  0  0  0  0  0  0  0  0  0  0  0
  127.3934  125.4378   61.3002 H   0  0  0  0  0  0  0  0  0  0  0  0
  1  2  1  0
  2  3  2  0
  3  4  1  0
  4  5  2  0
  5  6  1  0
  6  7  1  0
  7  8  1  0
  8  9  2  0
  8 10  1  0
 10 11  1  0
 11 12  2  0
 12 13  1  0
 13 14  2  0
 14 15  1  0
 15 16  2  0
 16 17  1  0
  7 18  2  0
 18 19  1  0
 19 20  2  0
 20 21  1  0
 21 22  1  0
 22 23  2  0
 23 24  1  0
 24 25  2  0
 24 26  1  0
 26 27  1  0
 27 28  2  0
 28 29  1  0
 29 30  2  0
 30 31  1  0
 31 32  2  0
 22 33  1  0
 33 34  2  0
 33 35  1  0
  5 36  1  0
 36  2  1  0
 35  6  1  0
 16 11  1  0
 35 20  1  0
 32 23  1  0
 32 27  1  0
  1 37  1  0
  1 38  1  0
  1 39  1  0
  3 40  1  0
  4 41  1  0
  6 42  1  1
 10 43  1  0
 12 44  1  0
 13 45  1  0
 14 46  1  0
 15 47  1  0
 17 48  1  0
 17 49  1  0
 17 50  1  0
 18 51  1  0
 26 52  1  0
 28 53  1  0
 29 54  1  0
 30 55  1  0
 31 56  1  0
M  END
>  <Binding energies>  (1) 
[-8.31]

>  <Ligand effiencies>  (1) 
[-0.21868421052631581]

>  <Interactions>  (1) 
["V-B:TYR:539:CD2:9845, V-B:ASP:366:CG:8184, V-B:TYR:539:CE2:9847, V-B:TYR:539:C:9838, V-B:PRO:540:N:9855, H-B:TYR:531:OH:9766, V-B:PRO:540:CA:9854, V-B:TYR:539:CZ:9848, V-B:TYR:531:CZ:9765, V-B:ASP:366:CB:8183, V-B:LEU:475:CD1:9229, V-B:TRP:381:CH2:8343, V-A:TYR:539:CD2:4874, V-B:TRP:381:CZ2:8341, V-A:PRO:540:CA:4883, V-B:ILE:369:CD1:8210, V-B:GLY:454:CA:9020, H-B:TYR:539:OH:9849, V-B:ILE:369:CG2:8208, V-A:TYR:539:CE2:4876, V-A:TYR:539:CZ:4877, V-B:TYR:539:CD1:9844, V-B:TYR:539:CG:9843, V-B:TYR:539:CE1:9846, V-B:ALA:541:CB:9863, V-B:PRO:540:C:9852, V-B:ALA:541:CA:9861, H-A:TYR:539:OH:4878, V-B:SER:385:CA:8378, V-B:SER:385:C:8376"]

$$$$
RR19_Rahimova_2017
     RDKit          3D

 72 77  0  0  0  0  0  0  0  0999 V2000
  126.8130  129.2760   55.7540 O   0  0  0  0  0  0  0  0  0  0  0  0
  127.0210  129.2090   56.9680 C   0  0  0  0  0  0  0  0  0  0  0  0
  126.3680  129.9110   57.9300 N   0  0  0  0  0  0  0  0  0  0  0  0
  125.2260  130.6730   57.9180 C   0  0  0  0  0  0  0  0  0  0  0  0
  124.1130  130.7620   56.6460 S   0  0  0  0  0  0  0  0  0  0  0  0
  125.1390  131.3510   59.1090 N   0  0  0  0  0  0  0  0  0  0  0  0
  124.1660  132.1140   59.6690 C   0  0  0  0  0  0  0  0  0  0  0  0
  123.0040  132.2260   59.2710 O   0  0  0  0  0  0  0  0  0  0  0  0
  124.6320  132.9120   60.9130 C   0  0  2  0  0  0  0  0  0  0  0  0
  125.7280  133.9800   60.6300 C   0  0  0  0  0  0  0  0  0  0  0  0
  125.6520  135.2300   61.4920 C   0  0  0  0  0  0  0  0  0  0  0  0
  124.4770  135.5450   62.2090 C   0  0  0  0  0  0  0  0  0  0  0  0
  124.4530  136.6460   63.0540 C   0  0  0  0  0  0  0  0  0  0  0  0
  125.5880  137.4330   63.2120 C   0  0  0  0  0  0  0  0  0  0  0  0
  126.7600  137.1180   62.5360 C   0  0  0  0  0  0  0  0  0  0  0  0
  126.8050  136.0190   61.6890 C   0  0  0  0  0  0  0  0  0  0  0  0
  125.0290  132.0020   62.0220 N   0  0  0  0  0  0  0  0  0  0  0  0
  124.3900  132.0310   63.2260 C   0  0  0  0  0  0  0  0  0  0  0  0
  123.4720  132.7800   63.5660 O   0  0  0  0  0  0  0  0  0  0  0  0
  125.0280  130.9670   64.0390 C   0  0  0  0  0  0  0  0  0  0  0  0
  124.7870  130.5470   65.3480 C   0  0  0  0  0  0  0  0  0  0  0  0
  125.5500  129.4940   65.8650 C   0  0  0  0  0  0  0  0  0  0  0  0
  126.5320  128.8800   65.0760 C   0  0  0  0  0  0  0  0  0  0  0  0
  126.7580  129.3150   63.7660 C   0  0  0  0  0  0  0  0  0  0  0  0
  125.9880  130.3680   63.2690 C   0  0  0  0  0  0  0  0  0  0  0  0
  125.9880  131.0320   61.9420 C   0  0  0  0  0  0  0  0  0  0  0  0
  126.6980  130.7560   60.9740 O   0  0  0  0  0  0  0  0  0  0  0  0
  128.1300  128.2630   57.5040 C   0  0  2  0  0  0  0  0  0  0  0  0
  129.5640  128.6480   57.0400 C   0  0  0  0  0  0  0  0  0  0  0  0
  129.8390  130.1410   57.0590 C   0  0  0  0  0  0  0  0  0  0  0  0
  129.3930  130.9290   58.1420 C   0  0  0  0  0  0  0  0  0  0  0  0
  129.7330  132.2750   58.2070 C   0  0  0  0  0  0  0  0  0  0  0  0
  130.5330  132.8430   57.2250 C   0  0  0  0  0  0  0  0  0  0  0  0
  131.0120  132.0700   56.1740 C   0  0  0  0  0  0  0  0  0  0  0  0
  130.6830  130.7230   56.0900 C   0  0  0  0  0  0  0  0  0  0  0  0
  127.8450  126.8210   57.2590 N   0  0  0  0  0  0  0  0  0  0  0  0
  127.2970  126.0250   58.2190 C   0  0  0  0  0  0  0  0  0  0  0  0
  126.9890  126.3460   59.3680 O   0  0  0  0  0  0  0  0  0  0  0  0
  127.1490  124.6900   57.5870 C   0  0  0  0  0  0  0  0  0  0  0  0
  126.6530  123.4880   58.0950 C   0  0  0  0  0  0  0  0  0  0  0  0
  126.6290  122.3670   57.2580 C   0  0  0  0  0  0  0  0  0  0  0  0
  127.0930  122.4600   55.9390 C   0  0  0  0  0  0  0  0  0  0  0  0
  127.5850  123.6750   55.4480 C   0  0  0  0  0  0  0  0  0  0  0  0
  127.6020  124.7810   56.3000 C   0  0  0  0  0  0  0  0  0  0  0  0
  128.0520  126.1760   56.0720 C   0  0  0  0  0  0  0  0  0  0  0  0
  128.5140  126.6510   55.0340 O   0  0  0  0  0  0  0  0  0  0  0  0
  126.7450  129.7650   58.8550 H   0  0  0  0  0  0  0  0  0  0  0  0
  126.0020  131.3600   59.6320 H   0  0  0  0  0  0  0  0  0  0  0  0
  123.7509  133.4904   61.2279 H   0  0  0  0  0  0  0  0  0  0  0  0
  126.7097  133.5121   60.7950 H   0  0  0  0  0  0  0  0  0  0  0  0
  125.5687  134.3136   59.5940 H   0  0  0  0  0  0  0  0  0  0  0  0
  123.5803  134.9176   62.0979 H   0  0  0  0  0  0  0  0  0  0  0  0
  123.5321  136.8968   63.6009 H   0  0  0  0  0  0  0  0  0  0  0  0
  125.5579  138.3097   63.8757 H   0  0  0  0  0  0  0  0  0  0  0  0
  127.6558  137.7417   62.6724 H   0  0  0  0  0  0  0  0  0  0  0  0
  127.7409  135.7630   61.1707 H   0  0  0  0  0  0  0  0  0  0  0  0
  124.0135  131.0335   65.9604 H   0  0  0  0  0  0  0  0  0  0  0  0
  125.3783  129.1469   66.8946 H   0  0  0  0  0  0  0  0  0  0  0  0
  127.1276  128.0524   65.4887 H   0  0  0  0  0  0  0  0  0  0  0  0
  127.5264  128.8373   63.1405 H   0  0  0  0  0  0  0  0  0  0  0  0
  128.1077  128.4128   58.5935 H   0  0  0  0  0  0  0  0  0  0  0  0
  130.2872  128.1545   57.7059 H   0  0  0  0  0  0  0  0  0  0  0  0
  129.6590  128.3201   55.9943 H   0  0  0  0  0  0  0  0  0  0  0  0
  128.7768  130.4781   58.9338 H   0  0  0  0  0  0  0  0  0  0  0  0
  129.3666  132.8928   59.0401 H   0  0  0  0  0  0  0  0  0  0  0  0
  130.7894  133.9113   57.2790 H   0  0  0  0  0  0  0  0  0  0  0  0
  131.6538  132.5264   55.4060 H   0  0  0  0  0  0  0  0  0  0  0  0
  131.0807  130.1101   55.2677 H   0  0  0  0  0  0  0  0  0  0  0  0
  126.2889  123.4236   59.1310 H   0  0  0  0  0  0  0  0  0  0  0  0
  126.2443  121.4087   57.6370 H   0  0  0  0  0  0  0  0  0  0  0  0
  127.0705  121.5745   55.2868 H   0  0  0  0  0  0  0  0  0  0  0  0
  127.9502  123.7567   54.4136 H   0  0  0  0  0  0  0  0  0  0  0  0
  1  2  2  0
  2  3  1  0
  3  4  1  0
  4  5  2  0
  4  6  1  0
  6  7  1  0
  7  8  2  0
  7  9  1  0
  9 10  1  0
 10 11  1  0
 11 12  2  0
 12 13  1  0
 13 14  2  0
 14 15  1  0
 15 16  2  0
  9 17  1  0
 17 18  1  0
 18 19  2  0
 18 20  1  0
 20 21  2  0
 21 22  1  0
 22 23  2  0
 23 24  1  0
 24 25  2  0
 25 26  1  0
 26 27  2  0
  2 28  1  0
 28 29  1  0
 29 30  1  0
 30 31  2  0
 31 32  1  0
 32 33  2  0
 33 34  1  0
 34 35  2  0
 28 36  1  0
 36 37  1  0
 37 38  2  0
 37 39  1  0
 39 40  2  0
 40 41  1  0
 41 42  2  0
 42 43  1  0
 43 44  2  0
 44 45  1  0
 45 46  2  0
 16 11  1  0
 26 17  1  0
 35 30  1  0
 45 36  1  0
 25 20  1  0
 44 39  1  0
  3 47  1  0
  6 48  1  0
  9 49  1  1
 10 50  1  0
 10 51  1  0
 12 52  1  0
 13 53  1  0
 14 54  1  0
 15 55  1  0
 16 56  1  0
 21 57  1  0
 22 58  1  0
 23 59  1  0
 24 60  1  0
 28 61  1  1
 29 62  1  0
 29 63  1  0
 31 64  1  0
 32 65  1  0
 33 66  1  0
 34 67  1  0
 35 68  1  0
 40 69  1  0
 41 70  1  0
 42 71  1  0
 43 72  1  0
M  END
>  <Binding energies>  (1) 
[-11.59]

>  <Ligand effiencies>  (1) 
[-0.24145833333333333]

>  <Interactions>  (1) 
["V-B:MET:535:CE:9806, V-B:TYR:539:C:9838, V-B:PRO:540:CD:9858, V-B:PRO:540:N:9855, V-B:PRO:540:CB:9856, H-B:TYR:531:OH:9766, V-B:PRO:540:CA:9854, V-B:TYR:539:CZ:9848, V-B:TYR:531:CZ:9765, V-B:ASP:366:CB:8183, V-A:PRO:540:N:4884, V-B:PRO:482:CB:9297, V-B:LEU:475:CD1:9229, V-B:TRP:381:CH2:8343, V-A:TYR:539:CD2:4874, V-B:PRO:482:CG:9298, V-B:TRP:381:CZ2:8341, V-A:PRO:540:CA:4883, V-A:TYR:539:C:4867, H-B:GLY:454:N:9021, V-B:GLU:543:CD:9879, V-B:GLY:454:CA:9020, V-B:ILE:369:CG2:8208, V-A:TYR:539:CE2:4876, V-B:ASP:366:C:8179, V-B:TYR:539:CD1:9844, V-B:TYR:539:CG:9843, V-B:TYR:539:CE1:9846, V-B:ARG:545:CZ:9897, V-A:TYR:531:CZ:4794, V-A:MET:535:CE:4835, V-B:ASN:370:CB:8216, V-B:TYR:531:CE1:9763, V-B:ILE:369:CB:8207, V-B:SER:385:CB:8380, V-B:LEU:475:CB:9227, V-B:SER:385:CA:8378, V-B:TRP:381:CE2:8338"]

$$$$
RR19_Rahimova_2017-again1
     RDKit          3D

 71 76  0  0  0  0  0  0  0  0999 V2000
  123.6510  132.2400   58.9470 O   0  0  0  0  0  0  0  0  0  0  0  0
  124.5860  131.5630   59.3820 C   0  0  0  0  0  0  0  0  0  0  0  0
  125.2680  130.6180   58.6910 N   0  0  0  0  0  0  0  0  0  0  0  0
  125.2590  130.2410   57.3780 C   0  0  0  0  0  0  0  0  0  0  0  0
  124.2820  130.7510   56.1090 S   0  0  0  0  0  0  0  0  0  0  0  0
  126.3110  129.3580   57.2120 N   0  0  0  0  0  0  0  0  0  0  0  0
  127.3220  129.1360   57.9880 C   0  0  0  0  0  0  0  0  0  0  0  0
  127.5850  129.5870   59.1210 O   0  0  0  0  0  0  0  0  0  0  0  0
  128.4050  128.1600   57.4170 C   0  0  2  0  0  0  0  0  0  0  0  0
  129.2600  128.8460   56.3010 C   0  0  0  0  0  0  0  0  0  0  0  0
  129.7480  130.2510   56.6490 C   0  0  0  0  0  0  0  0  0  0  0  0
  131.0580  130.4430   57.0950 C   0  0  0  0  0  0  0  0  0  0  0  0
  131.5080  131.7250   57.3980 C   0  0  0  0  0  0  0  0  0  0  0  0
  130.6450  132.8110   57.2570 C   0  0  0  0  0  0  0  0  0  0  0  0
  129.3360  132.6260   56.8170 C   0  0  0  0  0  0  0  0  0  0  0  0
  128.8860  131.3430   56.5150 C   0  0  0  0  0  0  0  0  0  0  0  0
  127.8620  126.8120   57.0470 N   0  0  0  0  0  0  0  0  0  0  0  0
  128.4770  126.0230   56.1200 C   0  0  0  0  0  0  0  0  0  0  0  0
  129.4950  126.2810   55.4770 O   0  0  0  0  0  0  0  0  0  0  0  0
  127.6580  124.7870   56.0480 C   0  0  0  0  0  0  0  0  0  0  0  0
  127.8050  123.6370   55.2700 C   0  0  0  0  0  0  0  0  0  0  0  0
  126.8660  122.6100   55.4120 C   0  0  0  0  0  0  0  0  0  0  0  0
  125.8050  122.7400   56.3180 C   0  0  0  0  0  0  0  0  0  0  0  0
  125.6760  123.9010   57.0880 C   0  0  0  0  0  0  0  0  0  0  0  0
  126.6220  124.9150   56.9310 C   0  0  0  0  0  0  0  0  0  0  0  0
  126.7480  126.2350   57.5950 C   0  0  0  0  0  0  0  0  0  0  0  0
  126.0070  126.7060   58.4550 O   0  0  0  0  0  0  0  0  0  0  0  0
  125.0670  131.7660   60.8490 C   0  0  2  0  0  0  0  0  0  0  0  0
  124.1860  131.0370   61.9040 C   0  0  0  0  0  0  0  0  0  0  0  0
  124.8970  130.7590   63.2160 C   0  0  0  0  0  0  0  0  0  0  0  0
  126.1860  131.2850   63.4470 C   0  0  0  0  0  0  0  0  0  0  0  0
  126.7950  131.1140   64.6840 C   0  0  0  0  0  0  0  0  0  0  0  0
  126.1290  130.4510   65.7070 C   0  0  0  0  0  0  0  0  0  0  0  0
  124.8440  129.9610   65.5050 C   0  0  0  0  0  0  0  0  0  0  0  0
  124.2180  130.1220   64.2760 C   0  0  0  0  0  0  0  0  0  0  0  0
  125.3150  133.1940   61.2160 N   0  0  0  0  0  0  0  0  0  0  0  0
  124.4030  133.9180   61.9250 C   0  0  0  0  0  0  0  0  0  0  0  0
  123.2780  133.5630   62.2770 O   0  0  0  0  0  0  0  0  0  0  0  0
  125.0570  135.2230   62.1920 C   0  0  0  0  0  0  0  0  0  0  0  0
  124.6040  136.3480   62.8840 C   0  0  0  0  0  0  0  0  0  0  0  0
  125.4580  137.4510   63.0000 C   0  0  0  0  0  0  0  0  0  0  0  0
  126.7360  137.4170   62.4280 C   0  0  0  0  0  0  0  0  0  0  0  0
  127.1710  136.2820   61.7360 C   0  0  0  0  0  0  0  0  0  0  0  0
  126.3060  135.1910   61.6340 C   0  0  0  0  0  0  0  0  0  0  0  0
  126.4880  133.8620   61.0010 C   0  0  0  0  0  0  0  0  0  0  0  0
  127.4890  133.4460   60.4170 O   0  0  0  0  0  0  0  0  0  0  0  0
  125.9850  130.1580   59.2310 H   0  0  0  0  0  0  0  0  0  0  0  0
  129.1033  127.9356   58.2368 H   0  0  0  0  0  0  0  0  0  0  0  0
  130.1400  128.2153   56.1062 H   0  0  0  0  0  0  0  0  0  0  0  0
  128.6032  128.9516   55.4249 H   0  0  0  0  0  0  0  0  0  0  0  0
  131.7333  129.5819   57.2066 H   0  0  0  0  0  0  0  0  0  0  0  0
  132.5395  131.8805   57.7470 H   0  0  0  0  0  0  0  0  0  0  0  0
  131.0012  133.8240   57.4955 H   0  0  0  0  0  0  0  0  0  0  0  0
  128.6618  133.4884   56.7088 H   0  0  0  0  0  0  0  0  0  0  0  0
  127.8525  131.1892   56.1711 H   0  0  0  0  0  0  0  0  0  0  0  0
  128.6406  123.5407   54.5612 H   0  0  0  0  0  0  0  0  0  0  0  0
  126.9610  121.6950   54.8089 H   0  0  0  0  0  0  0  0  0  0  0  0
  125.0716  121.9271   56.4241 H   0  0  0  0  0  0  0  0  0  0  0  0
  124.8466  124.0122   57.8020 H   0  0  0  0  0  0  0  0  0  0  0  0
  126.0497  131.2725   60.8747 H   0  0  0  0  0  0  0  0  0  0  0  0
  123.3067  131.6640   62.1131 H   0  0  0  0  0  0  0  0  0  0  0  0
  123.9174  130.0606   61.4744 H   0  0  0  0  0  0  0  0  0  0  0  0
  126.7087  131.8305   62.6475 H   0  0  0  0  0  0  0  0  0  0  0  0
  127.8089  131.5053   64.8540 H   0  0  0  0  0  0  0  0  0  0  0  0
  126.6207  130.3131   66.6813 H   0  0  0  0  0  0  0  0  0  0  0  0
  124.3206  129.4434   66.3224 H   0  0  0  0  0  0  0  0  0  0  0  0
  123.1923  129.7527   64.1289 H   0  0  0  0  0  0  0  0  0  0  0  0
  123.5979  136.3671   63.3283 H   0  0  0  0  0  0  0  0  0  0  0  0
  125.1241  138.3478   63.5424 H   0  0  0  0  0  0  0  0  0  0  0  0
  127.4013  138.2878   62.5235 H   0  0  0  0  0  0  0  0  0  0  0  0
  128.1725  136.2497   61.2822 H   0  0  0  0  0  0  0  0  0  0  0  0
  1  2  2  0
  2  3  1  0
  3  4  1  0
  4  5  2  0
  4  6  1  0
  6  7  2  0
  7  8  1  0
  7  9  1  0
  9 10  1  0
 10 11  1  0
 11 12  2  0
 12 13  1  0
 13 14  2  0
 14 15  1  0
 15 16  2  0
  9 17  1  0
 17 18  1  0
 18 19  2  0
 18 20  1  0
 20 21  2  0
 21 22  1  0
 22 23  2  0
 23 24  1  0
 24 25  2  0
 25 26  1  0
 26 27  2  0
  2 28  1  0
 28 29  1  0
 29 30  1  0
 30 31  2  0
 31 32  1  0
 32 33  2  0
 33 34  1  0
 34 35  2  0
 28 36  1  0
 36 37  1  0
 37 38  2  0
 37 39  1  0
 39 40  2  0
 40 41  1  0
 41 42  2  0
 42 43  1  0
 43 44  2  0
 44 45  1  0
 45 46  2  0
 16 11  1  0
 26 17  1  0
 35 30  1  0
 45 36  1  0
 25 20  1  0
 44 39  1  0
  3 47  1  0
  9 48  1  1
 10 49  1  0
 10 50  1  0
 12 51  1  0
 13 52  1  0
 14 53  1  0
 15 54  1  0
 16 55  1  0
 21 56  1  0
 22 57  1  0
 23 58  1  0
 24 59  1  0
 28 60  1  6
 29 61  1  0
 29 62  1  0
 31 63  1  0
 32 64  1  0
 33 65  1  0
 34 66  1  0
 35 67  1  0
 40 68  1  0
 41 69  1  0
 42 70  1  0
 43 71  1  0
M  CHG  1   8  -1
M  END
>  <Binding energies>  (1) 
[-11.25]

>  <Ligand effiencies>  (1) 
[-0.2393617021276596]

>  <Interactions>  (1) 
["V-B:MET:535:CE:9806, V-B:ASP:366:CG:8184, V-B:PRO:540:CD:9858, V-B:PRO:540:N:9855, H-B:TYR:531:OH:9766, V-B:LEU:363:CD1:8160, V-B:TYR:539:CZ:9848, V-B:TYR:531:CZ:9765, V-B:ASP:366:CB:8183, V-A:PRO:540:N:4884, V-B:PRO:482:CB:9297, V-B:LEU:475:CD1:9229, V-B:TRP:381:CH2:8343, V-A:TYR:539:CD2:4874, V-A:ALA:541:CB:4892, V-B:PRO:482:CG:9298, V-B:TRP:381:CZ2:8341, V-A:PRO:540:CA:4883, V-A:TYR:539:C:4867, H-B:TYR:539:OH:9849, V-B:ILE:369:CG2:8208, V-A:TYR:539:CE2:4876, V-A:TYR:539:CZ:4877, V-B:ASP:366:C:8179, V-B:TYR:539:CD1:9844, V-B:TYR:539:CE1:9846, H-A:TYR:531:OH:4795, V-B:ARG:545:CZ:9897, V-A:MET:535:CE:4835, H-A:TYR:539:OH:4878, V-B:ASN:370:CB:8216, V-B:TYR:531:CE1:9763, V-B:ASN:370:CG:8217, V-B:SER:385:CB:8380, V-B:LEU:475:CB:9227, V-B:TRP:381:CE2:8338"]

$$$$
RR1_Rahimova_2017
     RDKit          3D

 68 71  0  0  0  0  0  0  0  0999 V2000
  126.6120  122.4700   54.9010 C   0  0  0  0  0  0  0  0  0  0  0  0
  126.0510  121.9940   56.1200 O   0  0  0  0  0  0  0  0  0  0  0  0
  126.4820  122.5330   57.3160 C   0  0  0  0  0  0  0  0  0  0  0  0
  127.7510  122.3090   57.8740 C   0  0  0  0  0  0  0  0  0  0  0  0
  128.0950  122.8900   59.0910 C   0  0  0  0  0  0  0  0  0  0  0  0
  127.1850  123.7060   59.7670 C   0  0  0  0  0  0  0  0  0  0  0  0
  127.6100  124.2090   61.0110 N   0  0  0  0  0  0  0  0  0  0  0  0
  128.5410  125.1480   61.2810 C   0  0  0  0  0  0  0  0  0  0  0  0
  129.2520  125.6940   60.4380 O   0  0  0  0  0  0  0  0  0  0  0  0
  128.6720  125.5100   62.7700 C   0  0  0  0  0  0  0  0  0  0  0  0
  129.9520  126.7520   63.1650 S   0  0  0  0  0  0  0  0  0  0  0  0
  129.3210  127.2580   64.7300 C   0  0  0  0  0  0  0  0  0  0  0  0
  129.7380  126.7880   65.8780 N   0  0  0  0  0  0  0  0  0  0  0  0
  129.0100  127.4460   66.7740 C   0  0  0  0  0  0  0  0  0  0  0  0
  129.1670  127.2300   68.2530 C   0  0  0  0  0  0  0  0  0  0  0  0
  130.0630  127.9950   69.0160 C   0  0  0  0  0  0  0  0  0  0  0  0
  130.1900  127.7700   70.3880 C   0  0  0  0  0  0  0  0  0  0  0  0
  129.4090  126.7740   70.9720 C   0  0  0  0  0  0  0  0  0  0  0  0
  128.5340  126.0150   70.2650 N   0  0  0  0  0  0  0  0  0  0  0  0
  128.4250  126.2510   68.9330 C   0  0  0  0  0  0  0  0  0  0  0  0
  128.1420  128.3070   66.2760 N   0  0  0  0  0  0  0  0  0  0  0  0
  128.3400  128.1870   64.9600 N   0  0  0  0  0  0  0  0  0  0  0  0
  127.5770  129.0040   64.0160 C   0  0  0  0  0  0  0  0  0  0  0  0
  128.2350  129.1900   62.6380 C   0  0  0  0  0  0  0  0  0  0  0  0
  127.7360  128.6860   61.6260 O   0  0  0  0  0  0  0  0  0  0  0  0
  129.3650  129.9230   62.6420 N   0  0  0  0  0  0  0  0  0  0  0  0
  129.9320  130.2560   61.4200 N   0  0  0  0  0  0  0  0  0  0  0  0
  130.4250  131.5050   61.2730 C   0  0  0  0  0  0  0  0  0  0  0  0
  130.4950  132.3340   62.1870 O   0  0  0  0  0  0  0  0  0  0  0  0
  130.9330  131.8510   59.8880 C   0  0  0  0  0  0  0  0  0  0  0  0
  132.2240  131.4710   59.5030 C   0  0  0  0  0  0  0  0  0  0  0  0
  132.7150  131.7890   58.2410 C   0  0  0  0  0  0  0  0  0  0  0  0
  131.9300  132.5060   57.3240 C   0  0  0  0  0  0  0  0  0  0  0  0
  132.3630  132.8650   56.0600 O   0  0  0  0  0  0  0  0  0  0  0  0
  132.3260  131.9080   55.0080 C   0  0  0  0  0  0  0  0  0  0  0  0
  130.6370  132.9020   57.6930 C   0  0  0  0  0  0  0  0  0  0  0  0
  129.9120  133.6240   56.7600 O   0  0  0  0  0  0  0  0  0  0  0  0
  129.0690  132.9390   55.8410 C   0  0  0  0  0  0  0  0  0  0  0  0
  130.1500  132.5680   58.9700 C   0  0  0  0  0  0  0  0  0  0  0  0
  125.9160  123.9320   59.2120 C   0  0  0  0  0  0  0  0  0  0  0  0
  125.5770  123.3500   57.9940 C   0  0  0  0  0  0  0  0  0  0  0  0
  127.4335  123.1670   55.1230 H   0  0  0  0  0  0  0  0  0  0  0  0
  126.9990  121.6205   54.3191 H   0  0  0  0  0  0  0  0  0  0  0  0
  125.8369  122.9902   54.3191 H   0  0  0  0  0  0  0  0  0  0  0  0
  128.4763  121.6716   57.3470 H   0  0  0  0  0  0  0  0  0  0  0  0
  129.0896  122.7055   59.5231 H   0  0  0  0  0  0  0  0  0  0  0  0
  127.1690  123.7730   61.8090 H   0  0  0  0  0  0  0  0  0  0  0  0
  127.7023  125.9020   63.1105 H   0  0  0  0  0  0  0  0  0  0  0  0
  128.9791  124.5854   63.2807 H   0  0  0  0  0  0  0  0  0  0  0  0
  130.6678  128.7753   68.5308 H   0  0  0  0  0  0  0  0  0  0  0  0
  130.8897  128.3645   70.9937 H   0  0  0  0  0  0  0  0  0  0  0  0
  129.5062  126.5955   72.0531 H   0  0  0  0  0  0  0  0  0  0  0  0
  127.7158  125.6413   68.3538 H   0  0  0  0  0  0  0  0  0  0  0  0
  126.5978  128.5262   63.8649 H   0  0  0  0  0  0  0  0  0  0  0  0
  127.5091  130.0071   64.4623 H   0  0  0  0  0  0  0  0  0  0  0  0
  129.6710  130.5090   63.4060 H   0  0  0  0  0  0  0  0  0  0  0  0
  129.4710  129.7810   60.6570 H   0  0  0  0  0  0  0  0  0  0  0  0
  132.8586  130.9136   60.2077 H   0  0  0  0  0  0  0  0  0  0  0  0
  133.7305  131.4749   57.9581 H   0  0  0  0  0  0  0  0  0  0  0  0
  132.2868  130.8950   55.4350 H   0  0  0  0  0  0  0  0  0  0  0  0
  131.4338  132.0792   54.3878 H   0  0  0  0  0  0  0  0  0  0  0  0
  133.2288  132.0098   54.3878 H   0  0  0  0  0  0  0  0  0  0  0  0
  128.3319  132.3400   56.3959 H   0  0  0  0  0  0  0  0  0  0  0  0
  128.5453  133.6707   55.2083 H   0  0  0  0  0  0  0  0  0  0  0  0
  129.6781  132.2766   55.2083 H   0  0  0  0  0  0  0  0  0  0  0  0
  129.1331  132.8756   59.2552 H   0  0  0  0  0  0  0  0  0  0  0  0
  125.1900  124.5685   59.7391 H   0  0  0  0  0  0  0  0  0  0  0  0
  124.5833  123.5365   57.5607 H   0  0  0  0  0  0  0  0  0  0  0  0
  1  2  1  0
  2  3  1  0
  3  4  2  0
  4  5  1  0
  5  6  2  0
  6  7  1  0
  7  8  1  0
  8  9  2  0
  8 10  1  0
 10 11  1  0
 11 12  1  0
 12 13  2  0
 13 14  1  0
 14 15  1  0
 15 16  2  0
 16 17  1  0
 17 18  2  0
 18 19  1  0
 19 20  2  0
 14 21  2  0
 21 22  1  0
 22 23  1  0
 23 24  1  0
 24 25  2  0
 24 26  1  0
 26 27  1  0
 27 28  1  0
 28 29  2  0
 28 30  1  0
 30 31  2  0
 31 32  1  0
 32 33  2  0
 33 34  1  0
 34 35  1  0
 33 36  1  0
 36 37  1  0
 37 38  1  0
 36 39  2  0
  6 40  1  0
 40 41  2  0
 41  3  1  0
 22 12  1  0
 39 30  1  0
 20 15  1  0
  1 42  1  0
  1 43  1  0
  1 44  1  0
  4 45  1  0
  5 46  1  0
  7 47  1  0
 10 48  1  0
 10 49  1  0
 16 50  1  0
 17 51  1  0
 18 52  1  0
 20 53  1  0
 23 54  1  0
 23 55  1  0
 26 56  1  0
 27 57  1  0
 31 58  1  0
 32 59  1  0
 35 60  1  0
 35 61  1  0
 35 62  1  0
 38 63  1  0
 38 64  1  0
 38 65  1  0
 39 66  1  0
 40 67  1  0
 41 68  1  0
M  END
>  <Binding energies>  (1) 
[-9.52]

>  <Ligand effiencies>  (1) 
[-0.21636363636363634]

>  <Interactions>  (1) 
["V-B:TYR:539:CD2:9845, V-B:MET:535:CE:9806, V-B:TYR:539:CE2:9847, V-B:TYR:539:C:9838, V-B:PRO:540:CD:9858, V-B:PRO:540:N:9855, V-B:PRO:540:CB:9856, V-B:PRO:540:CA:9854, V-B:TYR:539:CZ:9848, H-B:GLU:543:OE2:9881, V-A:PRO:540:N:4884, V-A:GLU:543:CD:4908, H-A:GLU:543:OE1:4909, V-A:GLU:543:CG:4907, V-A:PRO:540:CB:4885, H-A:ALA:541:N:4891, V-A:PRO:540:CA:4883, V-A:TYR:539:C:4867, V-B:GLU:543:CD:9879, V-B:HIS:456:CE1:9041, V-A:GLU:543:CB:4906, V-A:HIS:456:CE1:4069, V-B:GLU:543:CB:9877, V-A:TYR:539:CZ:4877, V-B:TYR:539:CD1:9844, V-B:TYR:539:CG:9843, V-B:TYR:539:CE1:9846, H-B:TYR:539:N:9841, V-A:TYR:531:CE2:4793, V-A:LEU:363:CD1:3188, V-A:MET:535:CE:4835, H-A:TYR:539:N:4870, V-A:TYR:539:CG:4872, V-A:ILE:538:CA:4860, V-A:TYR:539:CD1:4873, V-A:ILE:538:CB:4862, V-A:PRO:540:CD:4887, V-A:TYR:539:CE1:4875, V-A:ILE:538:CG2:4863, V-B:ILE:538:CA:9831, V-B:ILE:538:CD1:9836, V-A:MET:535:CG:4833"]

$$$$
RR20_Rahimova_2017
     RDKit          3D

 68 73  0  0  0  0  0  0  0  0999 V2000
  135.3730  123.7240   76.9650 C   0  0  0  0  0  0  0  0  0  0  0  0
  134.2010  124.4440   76.3220 C   0  0  0  0  0  0  0  0  0  0  0  0
  132.9030  123.9770   76.5260 C   0  0  0  0  0  0  0  0  0  0  0  0
  131.8260  124.6400   75.9450 C   0  0  0  0  0  0  0  0  0  0  0  0
  132.0390  125.7690   75.1440 C   0  0  0  0  0  0  0  0  0  0  0  0
  130.8540  126.4880   74.5390 C   0  0  0  0  0  0  0  0  0  0  0  0
  130.5160  127.5600   75.0470 O   0  0  0  0  0  0  0  0  0  0  0  0
  130.2200  125.9420   73.4600 N   0  0  0  0  0  0  0  0  0  0  0  0
  129.3110  124.7930   73.6000 C   0  0  0  0  0  0  0  0  0  0  0  0
  128.6870  124.5710   72.2330 C   0  0  0  0  0  0  0  0  0  0  0  0
  129.0030  125.8460   71.5110 C   0  0  0  0  0  0  0  0  0  0  0  0
  128.6080  126.2560   70.2370 C   0  0  0  0  0  0  0  0  0  0  0  0
  129.1410  127.4180   69.6650 C   0  0  0  0  0  0  0  0  0  0  0  0
  128.7090  127.8660   68.2970 C   0  0  0  0  0  0  0  0  0  0  0  0
  127.8880  128.9000   68.2030 N   0  0  0  0  0  0  0  0  0  0  0  0
  127.5950  129.2140   66.9670 C   0  0  0  0  0  0  0  0  0  0  0  0
  126.7760  130.2380   66.5170 N   0  0  0  0  0  0  0  0  0  0  0  0
  125.8540  130.1670   65.5250 C   0  0  0  0  0  0  0  0  0  0  0  0
  125.6040  129.1420   64.8890 O   0  0  0  0  0  0  0  0  0  0  0  0
  125.0490  131.4450   65.1890 C   0  0  0  0  0  0  0  0  0  0  0  0
  125.1400  131.8260   63.7680 N   0  0  0  0  0  0  0  0  0  0  0  0
  126.4770  131.5810   63.2050 C   0  0  0  0  0  0  0  0  0  0  0  0
  126.5960  132.2370   61.8100 C   0  0  0  0  0  0  0  0  0  0  0  0
  125.3850  131.9650   60.9170 C   0  0  0  0  0  0  0  0  0  0  0  0
  125.4240  132.2430   59.5460 C   0  0  0  0  0  0  0  0  0  0  0  0
  124.3090  132.0320   58.7390 C   0  0  0  0  0  0  0  0  0  0  0  0
  123.1350  131.5350   59.2980 C   0  0  0  0  0  0  0  0  0  0  0  0
  123.0860  131.2460   60.6600 C   0  0  0  0  0  0  0  0  0  0  0  0
  124.1990  131.4550   61.4820 C   0  0  0  0  0  0  0  0  0  0  0  0
  124.1620  131.0830   62.9640 C   0  0  0  0  0  0  0  0  0  0  0  0
  128.3330  128.2070   65.7830 S   0  0  0  0  0  0  0  0  0  0  0  0
  129.0870  127.2890   67.0650 C   0  0  0  0  0  0  0  0  0  0  0  0
  129.9480  126.0870   66.7430 C   0  0  0  0  0  0  0  0  0  0  0  0
  130.1200  128.1270   70.3780 C   0  0  0  0  0  0  0  0  0  0  0  0
  130.5310  127.7080   71.6440 C   0  0  0  0  0  0  0  0  0  0  0  0
  129.9280  126.5930   72.2400 C   0  0  0  0  0  0  0  0  0  0  0  0
  133.3430  126.2490   74.9680 C   0  0  0  0  0  0  0  0  0  0  0  0
  134.4210  125.5860   75.5500 C   0  0  0  0  0  0  0  0  0  0  0  0
  135.2818  123.7800   78.0598 H   0  0  0  0  0  0  0  0  0  0  0  0
  135.3730  122.6699   76.6505 H   0  0  0  0  0  0  0  0  0  0  0  0
  136.3133  124.2005   76.6505 H   0  0  0  0  0  0  0  0  0  0  0  0
  132.7304  123.0849   77.1459 H   0  0  0  0  0  0  0  0  0  0  0  0
  130.8023  124.2754   76.1158 H   0  0  0  0  0  0  0  0  0  0  0  0
  129.8721  123.8997   73.9117 H   0  0  0  0  0  0  0  0  0  0  0  0
  128.5421  124.9834   74.3633 H   0  0  0  0  0  0  0  0  0  0  0  0
  129.1405  123.7063   71.7264 H   0  0  0  0  0  0  0  0  0  0  0  0
  127.6100  124.3516   72.2770 H   0  0  0  0  0  0  0  0  0  0  0  0
  127.8714  125.6612   69.6770 H   0  0  0  0  0  0  0  0  0  0  0  0
  126.8880  131.1300   66.9760 H   0  0  0  0  0  0  0  0  0  0  0  0
  123.9920  131.2690   65.4377 H   0  0  0  0  0  0  0  0  0  0  0  0
  125.4780  132.2686   65.7786 H   0  0  0  0  0  0  0  0  0  0  0  0
  127.2375  132.0096   63.8744 H   0  0  0  0  0  0  0  0  0  0  0  0
  126.6324  130.4965   63.1066 H   0  0  0  0  0  0  0  0  0  0  0  0
  126.6975  133.3244   61.9414 H   0  0  0  0  0  0  0  0  0  0  0  0
  127.4753  131.7996   61.3145 H   0  0  0  0  0  0  0  0  0  0  0  0
  126.3498  132.6342   59.0989 H   0  0  0  0  0  0  0  0  0  0  0  0
  124.3557  132.2573   57.6633 H   0  0  0  0  0  0  0  0  0  0  0  0
  122.2492  131.3711   58.6667 H   0  0  0  0  0  0  0  0  0  0  0  0
  122.1581  130.8474   61.0959 H   0  0  0  0  0  0  0  0  0  0  0  0
  123.1553  131.2950   63.3533 H   0  0  0  0  0  0  0  0  0  0  0  0
  124.4166  130.0157   63.0411 H   0  0  0  0  0  0  0  0  0  0  0  0
  130.2851  125.6163   67.6783 H   0  0  0  0  0  0  0  0  0  0  0  0
  129.3622  125.3624   66.1583 H   0  0  0  0  0  0  0  0  0  0  0  0
  130.8225  126.4085   66.1583 H   0  0  0  0  0  0  0  0  0  0  0  0
  130.5700  129.0263   69.9323 H   0  0  0  0  0  0  0  0  0  0  0  0
  131.3271  128.2524   72.1730 H   0  0  0  0  0  0  0  0  0  0  0  0
  133.5167  127.1539   74.3672 H   0  0  0  0  0  0  0  0  0  0  0  0
  135.4441  125.9618   75.4015 H   0  0  0  0  0  0  0  0  0  0  0  0
  1  2  1  0
  2  3  2  0
  3  4  1  0
  4  5  2  0
  5  6  1  0
  6  7  2  0
  6  8  1  0
  8  9  1  0
  9 10  1  0
 10 11  1  0
 11 12  2  0
 12 13  1  0
 13 14  1  0
 14 15  1  0
 15 16  2  0
 16 17  1  0
 17 18  1  0
 18 19  2  0
 18 20  1  0
 20 21  1  0
 21 22  1  0
 22 23  1  0
 23 24  1  0
 24 25  2  0
 25 26  1  0
 26 27  2  0
 27 28  1  0
 28 29  2  0
 29 30  1  0
 16 31  1  0
 31 32  1  0
 32 33  1  0
 13 34  2  0
 34 35  1  0
 35 36  2  0
  5 37  1  0
 37 38  2  0
 38  2  1  0
 36  8  1  0
 36 11  1  0
 32 14  2  0
 30 21  1  0
 29 24  1  0
  1 39  1  0
  1 40  1  0
  1 41  1  0
  3 42  1  0
  4 43  1  0
  9 44  1  0
  9 45  1  0
 10 46  1  0
 10 47  1  0
 12 48  1  0
 17 49  1  0
 20 50  1  0
 20 51  1  0
 22 52  1  0
 22 53  1  0
 23 54  1  0
 23 55  1  0
 25 56  1  0
 26 57  1  0
 27 58  1  0
 28 59  1  0
 30 60  1  0
 30 61  1  0
 33 62  1  0
 33 63  1  0
 33 64  1  0
 34 65  1  0
 35 66  1  0
 37 67  1  0
 38 68  1  0
M  END
>  <Binding energies>  (1) 
[-10.19]

>  <Ligand effiencies>  (1) 
[-0.2612820512820513]

>  <Interactions>  (1) 
["V-B:ASP:366:CG:8184, V-B:ASP:366:CB:8183, V-A:GLU:543:CD:4908, V-B:LEU:475:CD1:9229, V-A:GLU:543:CG:4907, V-A:LYS:471:CB:4216, V-A:HIS:456:C:4060, V-B:ILE:369:CD1:8210, V-A:HIS:456:CD2:4067, V-A:VAL:458:CG2:4086, H-A:LYS:547:NZ:4951, V-A:HIS:456:CB:4064, V-A:ASP:473:CG:4239, V-A:HIS:456:CG:4065, V-A:LYS:471:CD:4218, V-B:GLU:543:CD:9879, V-B:HIS:456:CE1:9041, V-B:GLY:454:CA:9020, H-B:ARG:545:NH2:9899, H-B:ARG:545:NE:9895, V-A:GLU:543:CB:4906, V-A:HIS:456:CE1:4069, V-B:ILE:369:CG2:8208, V-A:TYR:539:CE2:4876, V-A:TYR:539:CZ:4877, V-B:ASP:366:CA:8181, V-B:ASP:366:C:8179, V-B:TYR:484:CZ:9318, H-B:TYR:484:OH:9319, V-B:ILE:369:CB:8207, V-A:LYS:547:CE:4950, V-B:LYS:547:CE:9921, V-B:ILE:369:CG1:8209, V-A:HIS:456:CA:4062, V-A:LYS:471:C:4212, V-A:LYS:471:CG:4217"]

$$$$
RR20_Rahimova_2017-again1
     RDKit          3D

 68 73  0  0  0  0  0  0  0  0999 V2000
  124.5150  135.0500   60.6460 C   0  0  0  0  0  0  0  0  0  0  0  0
  124.4670  133.7660   61.4550 C   0  0  0  0  0  0  0  0  0  0  0  0
  124.6200  133.8110   62.8420 C   0  0  0  0  0  0  0  0  0  0  0  0
  124.5700  132.6360   63.5850 C   0  0  0  0  0  0  0  0  0  0  0  0
  124.3760  131.4040   62.9490 C   0  0  0  0  0  0  0  0  0  0  0  0
  124.3060  130.1390   63.7750 C   0  0  0  0  0  0  0  0  0  0  0  0
  123.1920  129.7440   64.1250 O   0  0  0  0  0  0  0  0  0  0  0  0
  125.4610  129.4750   64.0770 N   0  0  0  0  0  0  0  0  0  0  0  0
  126.4240  129.0960   63.0300 C   0  0  0  0  0  0  0  0  0  0  0  0
  127.6340  128.5210   63.7480 C   0  0  0  0  0  0  0  0  0  0  0  0
  127.4200  128.9640   65.1650 C   0  0  0  0  0  0  0  0  0  0  0  0
  128.2540  128.7990   66.2710 C   0  0  0  0  0  0  0  0  0  0  0  0
  127.8070  129.1350   67.5590 C   0  0  0  0  0  0  0  0  0  0  0  0
  128.7020  128.9520   68.7510 C   0  0  0  0  0  0  0  0  0  0  0  0
  128.6300  129.8410   69.7300 N   0  0  0  0  0  0  0  0  0  0  0  0
  129.4510  129.6080   70.7250 C   0  0  0  0  0  0  0  0  0  0  0  0
  129.6610  130.3460   71.8600 N   0  0  0  0  0  0  0  0  0  0  0  0
  129.9300  129.8540   73.0230 C   0  0  0  0  0  0  0  0  0  0  0  0
  130.1370  128.6840   73.3980 O   0  0  0  0  0  0  0  0  0  0  0  0
  130.0210  130.9110   74.1430 C   0  0  0  0  0  0  0  0  0  0  0  0
  130.5930  132.2410   73.5720 N   0  0  2  0  0  0  0  0  0  0  0  0
  131.8220  132.7430   74.3580 C   0  0  0  0  0  0  0  0  0  0  0  0
  131.4070  133.1280   75.7910 C   0  0  0  0  0  0  0  0  0  0  0  0
  130.1780  134.0300   75.8390 C   0  0  0  0  0  0  0  0  0  0  0  0
  129.9220  134.7940   76.9840 C   0  0  0  0  0  0  0  0  0  0  0  0
  128.7850  135.5920   77.0820 C   0  0  0  0  0  0  0  0  0  0  0  0
  127.8840  135.6370   76.0260 C   0  0  0  0  0  0  0  0  0  0  0  0
  128.1300  134.8930   74.8750 C   0  0  0  0  0  0  0  0  0  0  0  0
  129.2720  134.0910   74.7540 C   0  0  0  0  0  0  0  0  0  0  0  0
  129.5110  133.3390   73.4390 C   0  0  0  0  0  0  0  0  0  0  0  0
  130.4330  128.2120   70.4840 S   0  0  0  0  0  0  0  0  0  0  0  0
  129.6350  127.9160   68.9590 C   0  0  0  0  0  0  0  0  0  0  0  0
  129.9860  126.6980   68.1310 C   0  0  0  0  0  0  0  0  0  0  0  0
  126.4920  129.5940   67.7100 C   0  0  0  0  0  0  0  0  0  0  0  0
  125.6500  129.7430   66.6070 C   0  0  0  0  0  0  0  0  0  0  0  0
  126.1330  129.4790   65.3190 C   0  0  0  0  0  0  0  0  0  0  0  0
  124.1930  131.3710   61.5600 C   0  0  0  0  0  0  0  0  0  0  0  0
  124.2440  132.5460   60.8160 C   0  0  0  0  0  0  0  0  0  0  0  0
  124.5472  135.9123   61.3283 H   0  0  0  0  0  0  0  0  0  0  0  0
  125.4138  135.0504   60.0118 H   0  0  0  0  0  0  0  0  0  0  0  0
  123.6188  135.1175   60.0118 H   0  0  0  0  0  0  0  0  0  0  0  0
  124.7800  134.7750   63.3470 H   0  0  0  0  0  0  0  0  0  0  0  0
  124.6835  132.6751   64.6784 H   0  0  0  0  0  0  0  0  0  0  0  0
  125.9830  128.3407   62.3628 H   0  0  0  0  0  0  0  0  0  0  0  0
  126.7017  129.9620   62.4111 H   0  0  0  0  0  0  0  0  0  0  0  0
  127.6540  127.4236   63.6745 H   0  0  0  0  0  0  0  0  0  0  0  0
  128.5922  128.8582   63.3259 H   0  0  0  0  0  0  0  0  0  0  0  0
  129.2706  128.4022   66.1329 H   0  0  0  0  0  0  0  0  0  0  0  0
  129.0175  131.0929   74.5551 H   0  0  0  0  0  0  0  0  0  0  0  0
  130.6876  130.5414   74.9361 H   0  0  0  0  0  0  0  0  0  0  0  0
  130.9200  132.0240   72.6380 H   0  0  0  0  0  0  0  0  0  0  0  0
  132.5790  131.9459   74.3993 H   0  0  0  0  0  0  0  0  0  0  0  0
  132.2391  133.6263   73.8522 H   0  0  0  0  0  0  0  0  0  0  0  0
  131.1867  132.2069   76.3505 H   0  0  0  0  0  0  0  0  0  0  0  0
  132.2426  133.6904   76.2333 H   0  0  0  0  0  0  0  0  0  0  0  0
  130.6330  134.7633   77.8227 H   0  0  0  0  0  0  0  0  0  0  0  0
  128.6014  136.1836   77.9910 H   0  0  0  0  0  0  0  0  0  0  0  0
  126.9792  136.2583   76.0987 H   0  0  0  0  0  0  0  0  0  0  0  0
  127.4120  134.9360   74.0428 H   0  0  0  0  0  0  0  0  0  0  0  0
  128.5676  132.8683   73.1254 H   0  0  0  0  0  0  0  0  0  0  0  0
  129.8654  134.0690   72.6964 H   0  0  0  0  0  0  0  0  0  0  0  0
  130.2281  125.8580   68.7987 H   0  0  0  0  0  0  0  0  0  0  0  0
  129.1295  126.4268   67.4963 H   0  0  0  0  0  0  0  0  0  0  0  0
  130.8555  126.9242   67.4963 H   0  0  0  0  0  0  0  0  0  0  0  0
  126.1171  129.8410   68.7142 H   0  0  0  0  0  0  0  0  0  0  0  0
  124.6085  130.0673   66.7489 H   0  0  0  0  0  0  0  0  0  0  0  0
  124.0081  130.4113   61.0552 H   0  0  0  0  0  0  0  0  0  0  0  0
  124.1086  132.5129   59.7249 H   0  0  0  0  0  0  0  0  0  0  0  0
  1  2  1  0
  2  3  2  0
  3  4  1  0
  4  5  2  0
  5  6  1  0
  6  7  2  0
  6  8  1  0
  8  9  1  0
  9 10  1  0
 10 11  1  0
 11 12  2  0
 12 13  1  0
 13 14  1  0
 14 15  1  0
 15 16  2  0
 16 17  1  0
 17 18  2  0
 18 19  1  0
 18 20  1  0
 20 21  1  0
 21 22  1  0
 22 23  1  0
 23 24  1  0
 24 25  2  0
 25 26  1  0
 26 27  2  0
 27 28  1  0
 28 29  2  0
 29 30  1  0
 16 31  1  0
 31 32  1  0
 32 33  1  0
 13 34  2  0
 34 35  1  0
 35 36  2  0
  5 37  1  0
 37 38  2  0
 38  2  1  0
 36  8  1  0
 36 11  1  0
 32 14  2  0
 30 21  1  0
 29 24  1  0
  1 39  1  0
  1 40  1  0
  1 41  1  0
  3 42  1  0
  4 43  1  0
  9 44  1  0
  9 45  1  0
 10 46  1  0
 10 47  1  0
 12 48  1  0
 20 49  1  0
 20 50  1  0
 21 51  1  6
 22 52  1  0
 22 53  1  0
 23 54  1  0
 23 55  1  0
 25 56  1  0
 26 57  1  0
 27 58  1  0
 28 59  1  0
 30 60  1  0
 30 61  1  0
 33 62  1  0
 33 63  1  0
 33 64  1  0
 34 65  1  0
 35 66  1  0
 37 67  1  0
 38 68  1  0
M  CHG  2  19  -1  21   1
M  END
>  <Binding energies>  (1) 
[-10.04]

>  <Ligand effiencies>  (1) 
[-0.2574358974358974]

>  <Interactions>  (1) 
["V-B:ASP:366:CG:8184, V-A:GLU:543:CD:4908, V-B:LEU:475:CD1:9229, V-B:TRP:381:CH2:8343, V-A:GLU:543:CG:4907, V-A:TYR:539:CD2:4874, V-B:ILE:369:CD1:8210, H-A:LYS:547:NZ:4951, H-B:GLY:454:N:9021, V-B:GLU:543:CD:9879, V-B:HIS:456:CE1:9041, V-B:GLY:454:CA:9020, H-B:ARG:545:NH1:9898, H-B:ARG:545:NH2:9899, H-B:ARG:545:NE:9895, V-A:GLU:543:CB:4906, V-A:HIS:456:CE1:4069, V-A:GLU:543:C:4902, V-B:TYR:484:CD1:9314, V-B:TYR:484:CG:9313, V-B:TYR:484:CB:9312, V-B:ASP:473:CB:9210, V-B:ILE:369:CG2:8208, V-A:TYR:539:CE2:4876, V-B:ARG:545:CZ:9897, V-B:TYR:484:CZ:9318, V-A:LYS:547:CE:4950, V-A:GLY:544:C:4912, V-A:GLY:544:CA:4914, H-B:HIS:456:ND1:9038, V-B:ASP:473:CG:9211, H-A:GLU:543:O:4903, H-A:GLY:544:O:4913"]

$$$$
RR21_Rahimova_2017
     RDKit          3D

 62 67  0  0  0  0  0  0  0  0999 V2000
  133.8770  124.1370   62.1920 C   0  0  0  0  0  0  0  0  0  0  0  0
  133.8370  123.9020   63.5970 O   0  0  0  0  0  0  0  0  0  0  0  0
  132.8900  124.5540   64.3640 C   0  0  0  0  0  0  0  0  0  0  0  0
  131.5200  124.6040   64.0540 C   0  0  0  0  0  0  0  0  0  0  0  0
  130.6280  125.2820   64.8840 C   0  0  0  0  0  0  0  0  0  0  0  0
  131.0790  125.9220   66.0440 C   0  0  0  0  0  0  0  0  0  0  0  0
  130.1180  126.6460   66.9380 C   0  0  0  0  0  0  0  0  0  0  0  0
  130.2820  126.6060   68.2460 N   0  0  0  0  0  0  0  0  0  0  0  0
  129.2890  127.3330   68.7800 N   0  0  0  0  0  0  0  0  0  0  0  0
  129.1770  127.5160   70.1830 C   0  0  0  0  0  0  0  0  0  0  0  0
  128.8080  126.4510   71.0190 C   0  0  0  0  0  0  0  0  0  0  0  0
  128.7070  126.6420   72.3940 C   0  0  0  0  0  0  0  0  0  0  0  0
  128.9730  127.8970   72.9390 C   0  0  0  0  0  0  0  0  0  0  0  0
  129.3370  128.9620   72.1200 C   0  0  0  0  0  0  0  0  0  0  0  0
  129.4390  128.7740   70.7440 C   0  0  0  0  0  0  0  0  0  0  0  0
  128.4960  127.8530   67.7890 C   0  0  0  0  0  0  0  0  0  0  0  0
  128.9930  127.4170   66.5690 C   0  0  0  0  0  0  0  0  0  0  0  0
  128.5140  127.7450   65.2350 C   0  0  0  0  0  0  0  0  0  0  0  0
  127.4640  128.5260   64.8900 C   0  0  0  0  0  0  0  0  0  0  0  0
  126.3410  129.3840   65.9680 S   0  0  0  0  0  0  0  0  0  0  0  0
  125.5050  130.0280   64.5630 C   0  0  0  0  0  0  0  0  0  0  0  0
  124.4870  130.8320   64.5410 N   0  0  0  0  0  0  0  0  0  0  0  0
  123.9090  131.2900   63.3250 C   0  0  0  0  0  0  0  0  0  0  0  0
  122.9600  132.0660   63.2200 O   0  0  0  0  0  0  0  0  0  0  0  0
  124.5740  130.7430   62.0920 C   0  0  0  0  0  0  0  0  0  0  0  0
  124.0230  131.1520   60.7200 C   0  0  0  0  0  0  0  0  0  0  0  0
  125.0820  131.2700   59.6260 C   0  0  0  0  0  0  0  0  0  0  0  0
  126.3180  131.8570   59.9090 C   0  0  0  0  0  0  0  0  0  0  0  0
  127.2900  131.9500   58.9160 C   0  0  0  0  0  0  0  0  0  0  0  0
  127.0300  131.4520   57.6380 C   0  0  0  0  0  0  0  0  0  0  0  0
  128.0970  131.5440   56.5620 C   0  0  0  0  0  0  0  0  0  0  0  0
  125.7990  130.8540   57.3550 C   0  0  0  0  0  0  0  0  0  0  0  0
  124.8280  130.7630   58.3480 C   0  0  0  0  0  0  0  0  0  0  0  0
  125.5850  129.9370   62.1290 N   0  0  0  0  0  0  0  0  0  0  0  0
  126.0620  129.5760   63.3950 N   0  0  0  0  0  0  0  0  0  0  0  0
  127.1310  128.7480   63.4900 C   0  0  0  0  0  0  0  0  0  0  0  0
  127.7340  128.2620   62.5260 O   0  0  0  0  0  0  0  0  0  0  0  0
  132.4430  125.8780   66.3500 C   0  0  0  0  0  0  0  0  0  0  0  0
  133.3370  125.2010   65.5210 C   0  0  0  0  0  0  0  0  0  0  0  0
  134.6510  125.1770   65.8450 F   0  0  0  0  0  0  0  0  0  0  0  0
  134.0589  125.2054   62.0040 H   0  0  0  0  0  0  0  0  0  0  0  0
  134.6869  123.5428   61.7438 H   0  0  0  0  0  0  0  0  0  0  0  0
  132.9161  123.8442   61.7438 H   0  0  0  0  0  0  0  0  0  0  0  0
  131.1479  124.1035   63.1479 H   0  0  0  0  0  0  0  0  0  0  0  0
  129.5595  125.3141   64.6245 H   0  0  0  0  0  0  0  0  0  0  0  0
  128.5978  125.4618   70.5861 H   0  0  0  0  0  0  0  0  0  0  0  0
  128.4184  125.8059   73.0479 H   0  0  0  0  0  0  0  0  0  0  0  0
  128.8946  128.0471   74.0259 H   0  0  0  0  0  0  0  0  0  0  0  0
  129.5435  129.9494   72.5585 H   0  0  0  0  0  0  0  0  0  0  0  0
  129.7259  129.6148   70.0954 H   0  0  0  0  0  0  0  0  0  0  0  0
  127.6199  128.5018   67.9356 H   0  0  0  0  0  0  0  0  0  0  0  0
  129.0770  127.3017   64.4004 H   0  0  0  0  0  0  0  0  0  0  0  0
  123.2863  130.3979   60.4061 H   0  0  0  0  0  0  0  0  0  0  0  0
  123.5848  132.1534   60.8429 H   0  0  0  0  0  0  0  0  0  0  0  0
  126.5235  132.2461   60.9172 H   0  0  0  0  0  0  0  0  0  0  0  0
  128.2616  132.4154   59.1384 H   0  0  0  0  0  0  0  0  0  0  0  0
  129.0870  131.6294   57.0337 H   0  0  0  0  0  0  0  0  0  0  0  0
  128.0657  130.6398   55.9363 H   0  0  0  0  0  0  0  0  0  0  0  0
  127.9114  132.4295   55.9363 H   0  0  0  0  0  0  0  0  0  0  0  0
  125.5979  130.4560   56.3494 H   0  0  0  0  0  0  0  0  0  0  0  0
  123.8591  130.2914   58.1270 H   0  0  0  0  0  0  0  0  0  0  0  0
  132.8145  126.3827   67.2540 H   0  0  0  0  0  0  0  0  0  0  0  0
  1  2  1  0
  2  3  1  0
  3  4  2  0
  4  5  1  0
  5  6  2  0
  6  7  1  0
  7  8  2  0
  8  9  1  0
  9 10  1  0
 10 11  2  0
 11 12  1  0
 12 13  2  0
 13 14  1  0
 14 15  2  0
  9 16  1  0
 16 17  2  0
 17 18  1  0
 18 19  2  0
 19 20  1  0
 20 21  1  0
 21 22  2  0
 22 23  1  0
 23 24  2  0
 23 25  1  0
 25 26  1  0
 26 27  1  0
 27 28  2  0
 28 29  1  0
 29 30  2  0
 30 31  1  0
 30 32  1  0
 32 33  2  0
 25 34  2  0
 34 35  1  0
 35 36  1  0
 36 37  2  0
  6 38  1  0
 38 39  2  0
 39 40  1  0
 39  3  1  0
 17  7  1  0
 36 19  1  0
 15 10  1  0
 35 21  1  0
 33 27  1  0
  1 41  1  0
  1 42  1  0
  1 43  1  0
  4 44  1  0
  5 45  1  0
 11 46  1  0
 12 47  1  0
 13 48  1  0
 14 49  1  0
 15 50  1  0
 16 51  1  0
 18 52  1  0
 26 53  1  0
 26 54  1  0
 28 55  1  0
 29 56  1  0
 31 57  1  0
 31 58  1  0
 31 59  1  0
 32 60  1  0
 33 61  1  0
 38 62  1  0
M  END
>  <Binding energies>  (1) 
[-9.8]

>  <Ligand effiencies>  (1) 
[-0.24500000000000002]

>  <Interactions>  (1) 
["V-B:ASP:366:CG:8184, V-B:ASP:366:CB:8183, V-A:GLU:543:CD:4908, V-A:GLU:543:CG:4907, V-A:TYR:539:CD2:4874, V-B:ILE:369:CD1:8210, H-B:GLY:454:N:9021, V-B:GLU:543:CD:9879, V-B:HIS:456:CE1:9041, V-B:GLY:454:CA:9020, H-B:ARG:545:NH2:9899, V-A:GLU:543:CB:4906, V-A:HIS:456:CE1:4069, V-B:HIS:456:CD2:9039, V-A:TYR:539:CE2:4876, V-A:TYR:539:CZ:4877, V-A:ILE:369:CD1:3238, V-A:GLY:454:CA:4048, V-A:ARG:545:CZ:4926, V-B:ARG:545:CZ:9897, V-A:MET:535:CE:4835, H-A:GLY:454:N:4049, V-A:ARG:545:CD:4923, V-A:GLY:453:CA:4043, V-A:GLY:453:C:4041"]

$$$$
RR22_Rahimova_2017
     RDKit          3D

 49 54  0  0  0  0  0  0  0  0999 V2000
  129.2710  133.7520   55.3570 O   0  0  0  0  0  0  0  0  0  0  0  0
  129.2980  133.0000   56.3280 C   0  0  0  0  0  0  0  0  0  0  0  0
  130.0700  133.1250   57.4700 N   0  0  0  0  0  0  0  0  0  0  0  0
  129.9370  132.1880   58.5450 C   0  0  1  0  0  0  0  0  0  0  0  0
  131.2550  131.6720   58.7570 O   0  0  0  0  0  0  0  0  0  0  0  0
  131.8410  131.8480   60.0110 C   0  0  0  0  0  0  0  0  0  0  0  0
  133.2240  131.6760   60.0800 C   0  0  0  0  0  0  0  0  0  0  0  0
  133.8760  131.7950   61.3070 C   0  0  0  0  0  0  0  0  0  0  0  0
  133.1460  132.0770   62.4620 C   0  0  0  0  0  0  0  0  0  0  0  0
  131.7620  132.2480   62.3930 C   0  0  0  0  0  0  0  0  0  0  0  0
  131.0980  132.1560   61.1660 C   0  0  0  0  0  0  0  0  0  0  0  0
  129.6010  132.2820   60.9910 C   0  0  1  0  0  0  0  0  0  0  0  0
  128.7510  133.1750   61.8710 C   0  0  0  0  0  0  0  0  0  0  0  0
  127.6410  133.5400   60.8800 C   0  0  0  0  0  0  0  0  0  0  0  0
  126.3360  134.0810   61.3070 C   0  0  0  0  0  0  0  0  0  0  0  0
  125.2050  133.2540   61.3640 C   0  0  0  0  0  0  0  0  0  0  0  0
  123.9760  133.7690   61.7690 C   0  0  0  0  0  0  0  0  0  0  0  0
  123.8710  135.1120   62.1180 C   0  0  0  0  0  0  0  0  0  0  0  0
  124.9840  135.9470   62.0670 C   0  0  0  0  0  0  0  0  0  0  0  0
  126.2140  135.4330   61.6640 C   0  0  0  0  0  0  0  0  0  0  0  0
  128.0150  133.3350   59.6730 N   0  0  0  0  0  0  0  0  0  0  0  0
  129.3360  132.8580   59.7080 N   0  0  0  0  0  0  0  0  0  0  0  0
  129.0880  131.0410   58.0190 C   0  0  0  0  0  0  0  0  0  0  0  0
  129.0320  129.8290   58.6200 C   0  0  0  0  0  0  0  0  0  0  0  0
  128.2410  128.6450   58.2320 C   0  0  0  0  0  0  0  0  0  0  0  0
  127.1410  128.1830   58.9680 C   0  0  0  0  0  0  0  0  0  0  0  0
  126.4400  127.0540   58.5390 C   0  0  0  0  0  0  0  0  0  0  0  0
  126.8660  126.4080   57.3790 C   0  0  0  0  0  0  0  0  0  0  0  0
  127.9310  126.8280   56.6520 N   0  0  0  0  0  0  0  0  0  0  0  0
  128.5990  127.9280   57.0840 C   0  0  0  0  0  0  0  0  0  0  0  0
  128.2980  131.4920   56.5010 S   0  0  0  0  0  0  0  0  0  0  0  0
  130.7670  133.8490   57.5470 H   0  0  0  0  0  0  0  0  0  0  0  0
  133.7979  131.4474   59.1699 H   0  0  0  0  0  0  0  0  0  0  0  0
  134.9670  131.6664   61.3642 H   0  0  0  0  0  0  0  0  0  0  0  0
  133.6621  132.1648   63.4294 H   0  0  0  0  0  0  0  0  0  0  0  0
  131.1906  132.4564   63.3095 H   0  0  0  0  0  0  0  0  0  0  0  0
  129.3226  131.2427   61.2196 H   0  0  0  0  0  0  0  0  0  0  0  0
  128.3578  132.6337   62.7441 H   0  0  0  0  0  0  0  0  0  0  0  0
  129.2804  134.0324   62.3122 H   0  0  0  0  0  0  0  0  0  0  0  0
  125.2889  132.1927   61.0873 H   0  0  0  0  0  0  0  0  0  0  0  0
  123.0915  133.1165   61.8128 H   0  0  0  0  0  0  0  0  0  0  0  0
  122.8996  135.5177   62.4371 H   0  0  0  0  0  0  0  0  0  0  0  0
  124.8922  137.0077   62.3437 H   0  0  0  0  0  0  0  0  0  0  0  0
  127.0951  136.0904   61.6252 H   0  0  0  0  0  0  0  0  0  0  0  0
  129.6591  129.7113   59.5161 H   0  0  0  0  0  0  0  0  0  0  0  0
  126.8303  128.7093   59.8826 H   0  0  0  0  0  0  0  0  0  0  0  0
  125.5717  126.6828   59.1032 H   0  0  0  0  0  0  0  0  0  0  0  0
  126.3143  125.5192   57.0389 H   0  0  0  0  0  0  0  0  0  0  0  0
  129.4661  128.2738   56.5022 H   0  0  0  0  0  0  0  0  0  0  0  0
  1  2  2  0
  2  3  1  0
  3  4  1  0
  4  5  1  1
  5  6  1  0
  6  7  2  0
  7  8  1  0
  8  9  2  0
  9 10  1  0
 10 11  2  0
 11 12  1  0
 12 13  1  0
 13 14  1  0
 14 15  1  0
 15 16  2  0
 16 17  1  0
 17 18  2  0
 18 19  1  0
 19 20  2  0
 14 21  2  0
 21 22  1  0
  4 23  1  0
 23 24  2  0
 24 25  1  0
 25 26  2  0
 26 27  1  0
 27 28  2  0
 28 29  1  0
 29 30  2  0
 23 31  1  0
 31  2  1  0
 22  4  1  0
 30 25  1  0
 11  6  1  0
 22 12  1  0
 20 15  1  0
  3 32  1  0
  7 33  1  0
  8 34  1  0
  9 35  1  0
 10 36  1  0
 12 37  1  6
 13 38  1  0
 13 39  1  0
 16 40  1  0
 17 41  1  0
 18 42  1  0
 19 43  1  0
 20 44  1  0
 24 45  1  0
 26 46  1  0
 27 47  1  0
 28 48  1  0
 30 49  1  0
M  END
>  <Binding energies>  (1) 
[-8.98]

>  <Ligand effiencies>  (1) 
[-0.280625]

>  <Interactions>  (1) 
["V-A:ASP:366:CG:3212, H-B:TYR:531:OH:9766, V-A:PRO:540:N:4884, V-B:LEU:475:CD1:9229, V-B:TRP:381:CH2:8343, V-A:PRO:540:CB:4885, V-A:TYR:539:CD2:4874, V-A:ALA:541:CB:4892, V-B:TRP:381:CZ2:8341, V-A:ALA:541:CA:4890, V-A:PRO:540:CA:4883, V-A:TYR:539:C:4867, V-B:ILE:369:CD1:8210, V-B:ILE:369:CG2:8208, V-A:TYR:539:CE2:4876, V-A:TYR:539:CZ:4877, V-A:MET:535:CE:4835, H-A:TYR:539:O:4868, H-A:TYR:539:N:4870, V-A:TYR:539:CA:4869, V-A:TYR:539:CG:4872, V-A:TYR:539:CD1:4873, V-A:TYR:539:CE1:4875, V-A:PRO:540:C:4881, V-A:ALA:541:C:4888, V-A:ASN:362:CA:3173, V-A:ASN:362:C:3171, V-A:ASN:362:CB:3175"]

$$$$
RR23_Rahimova_2017
     RDKit          3D

 65 70  0  0  0  0  0  0  0  0999 V2000
  133.2860  131.5040   62.1690 C   0  0  0  0  0  0  0  0  0  0  0  0
  132.5440  131.7680   60.8710 C   0  0  0  0  0  0  0  0  0  0  0  0
  131.2040  132.1590   60.9000 C   0  0  0  0  0  0  0  0  0  0  0  0
  130.5270  132.4100   59.7090 C   0  0  0  0  0  0  0  0  0  0  0  0
  131.1800  132.2620   58.4810 C   0  0  0  0  0  0  0  0  0  0  0  0
  130.4330  132.5600   57.2000 C   0  0  0  0  0  0  0  0  0  0  0  0
  130.9500  133.3510   56.4080 O   0  0  0  0  0  0  0  0  0  0  0  0
  129.2380  131.9420   56.9620 N   0  0  0  0  0  0  0  0  0  0  0  0
  128.2440  132.5170   56.0420 C   0  0  0  0  0  0  0  0  0  0  0  0
  127.1290  131.4910   55.9210 C   0  0  0  0  0  0  0  0  0  0  0  0
  127.7540  130.2510   56.4870 C   0  0  0  0  0  0  0  0  0  0  0  0
  127.2340  128.9590   56.5580 C   0  0  0  0  0  0  0  0  0  0  0  0
  127.9110  127.9600   57.2730 C   0  0  0  0  0  0  0  0  0  0  0  0
  127.3740  126.5240   57.3770 C   0  0  2  0  0  0  0  0  0  0  0  0
  127.3510  126.0470   58.7430 N   0  0  0  0  0  0  0  0  0  0  0  0
  127.5530  124.7930   58.8110 C   0  0  0  0  0  0  0  0  0  0  0  0
  127.6260  124.0140   59.9230 N   0  0  0  0  0  0  0  0  0  0  0  0
  127.6400  124.4000   61.2220 C   0  0  0  0  0  0  0  0  0  0  0  0
  127.5460  125.5610   61.6250 O   0  0  0  0  0  0  0  0  0  0  0  0
  127.7930  123.2650   62.2480 C   0  0  0  0  0  0  0  0  0  0  0  0
  128.9470  122.4200   61.8690 N   0  0  0  0  0  0  0  0  0  0  0  0
  128.6690  121.3990   60.9690 N   0  0  0  0  0  0  0  0  0  0  0  0
  129.5920  120.5900   60.5580 N   0  0  0  0  0  0  0  0  0  0  0  0
  130.9010  120.7370   61.0220 C   0  0  0  0  0  0  0  0  0  0  0  0
  131.8730  119.8460   60.5600 C   0  0  0  0  0  0  0  0  0  0  0  0
  133.1900  119.9670   61.0060 C   0  0  0  0  0  0  0  0  0  0  0  0
  133.5370  120.9740   61.9090 C   0  0  0  0  0  0  0  0  0  0  0  0
  132.5670  121.8660   62.3720 C   0  0  0  0  0  0  0  0  0  0  0  0
  131.2460  121.7450   61.9240 C   0  0  0  0  0  0  0  0  0  0  0  0
  130.1810  122.6970   62.4150 C   0  0  0  0  0  0  0  0  0  0  0  0
  130.3930  123.6080   63.2220 O   0  0  0  0  0  0  0  0  0  0  0  0
  127.7900  123.9260   57.2650 S   0  0  0  0  0  0  0  0  0  0  0  0
  128.0910  125.5080   56.4580 C   0  0  2  0  0  0  0  0  0  0  0  0
  129.6110  125.6960   56.2700 C   0  0  0  0  0  0  0  0  0  0  0  0
  129.0890  128.2960   57.9520 C   0  0  0  0  0  0  0  0  0  0  0  0
  129.5980  129.5940   57.8980 C   0  0  0  0  0  0  0  0  0  0  0  0
  128.9600  130.5650   57.1160 C   0  0  0  0  0  0  0  0  0  0  0  0
  132.5330  131.8970   58.4610 C   0  0  0  0  0  0  0  0  0  0  0  0
  133.2100  131.6470   59.6510 C   0  0  0  0  0  0  0  0  0  0  0  0
  132.6298  131.7375   63.0204 H   0  0  0  0  0  0  0  0  0  0  0  0
  133.5818  130.4455   62.2135 H   0  0  0  0  0  0  0  0  0  0  0  0
  134.1839  132.1378   62.2135 H   0  0  0  0  0  0  0  0  0  0  0  0
  130.6834  132.2687   61.8627 H   0  0  0  0  0  0  0  0  0  0  0  0
  129.4737  132.7261   59.7342 H   0  0  0  0  0  0  0  0  0  0  0  0
  127.8506  133.4606   56.4480 H   0  0  0  0  0  0  0  0  0  0  0  0
  128.6896  132.7399   55.0613 H   0  0  0  0  0  0  0  0  0  0  0  0
  126.2479  131.7929   56.5062 H   0  0  0  0  0  0  0  0  0  0  0  0
  126.7652  131.3634   54.8908 H   0  0  0  0  0  0  0  0  0  0  0  0
  126.2874  128.7219   56.0503 H   0  0  0  0  0  0  0  0  0  0  0  0
  126.3389  126.5918   57.0109 H   0  0  0  0  0  0  0  0  0  0  0  0
  127.7280  123.0230   59.7620 H   0  0  0  0  0  0  0  0  0  0  0  0
  127.9623  123.6925   63.2473 H   0  0  0  0  0  0  0  0  0  0  0  0
  126.8776  122.6553   62.2644 H   0  0  0  0  0  0  0  0  0  0  0  0
  131.6015  119.0527   59.8480 H   0  0  0  0  0  0  0  0  0  0  0  0
  133.9574  119.2665   60.6448 H   0  0  0  0  0  0  0  0  0  0  0  0
  134.5767  121.0650   62.2565 H   0  0  0  0  0  0  0  0  0  0  0  0
  132.8393  122.6588   63.0843 H   0  0  0  0  0  0  0  0  0  0  0  0
  127.6979  125.6183   55.4366 H   0  0  0  0  0  0  0  0  0  0  0  0
  130.0976  125.7562   57.2547 H   0  0  0  0  0  0  0  0  0  0  0  0
  130.0197  124.8416   55.7106 H   0  0  0  0  0  0  0  0  0  0  0  0
  129.7992  126.6243   55.7106 H   0  0  0  0  0  0  0  0  0  0  0  0
  129.6189  127.5279   58.5344 H   0  0  0  0  0  0  0  0  0  0  0  0
  130.5008  129.8548   58.4699 H   0  0  0  0  0  0  0  0  0  0  0  0
  133.0621  131.8077   57.5007 H   0  0  0  0  0  0  0  0  0  0  0  0
  134.2701  131.3540   59.6297 H   0  0  0  0  0  0  0  0  0  0  0  0
  1  2  1  0
  2  3  2  0
  3  4  1  0
  4  5  2  0
  5  6  1  0
  6  7  2  0
  6  8  1  0
  8  9  1  0
  9 10  1  0
 10 11  1  0
 11 12  2  0
 12 13  1  0
 13 14  1  0
 14 15  1  0
 15 16  2  0
 16 17  1  0
 17 18  1  0
 18 19  2  0
 18 20  1  0
 20 21  1  0
 21 22  1  0
 22 23  2  0
 23 24  1  0
 24 25  2  0
 25 26  1  0
 26 27  2  0
 27 28  1  0
 28 29  2  0
 29 30  1  0
 30 31  2  0
 16 32  1  0
 32 33  1  0
 33 34  1  0
 13 35  2  0
 35 36  1  0
 36 37  2  0
  5 38  1  0
 38 39  2  0
 39  2  1  0
 37  8  1  0
 37 11  1  0
 33 14  1  0
 30 21  1  0
 29 24  1  0
  1 40  1  0
  1 41  1  0
  1 42  1  0
  3 43  1  0
  4 44  1  0
  9 45  1  0
  9 46  1  0
 10 47  1  0
 10 48  1  0
 12 49  1  0
 14 50  1  6
 17 51  1  0
 20 52  1  0
 20 53  1  0
 25 54  1  0
 26 55  1  0
 27 56  1  0
 28 57  1  0
 33 58  1  6
 34 59  1  0
 34 60  1  0
 34 61  1  0
 35 62  1  0
 36 63  1  0
 38 64  1  0
 39 65  1  0
M  END
>  <Binding energies>  (1) 
[-9.74]

>  <Ligand effiencies>  (1) 
[-0.2435]

>  <Interactions>  (1) 
["V-B:TYR:539:CD2:9845, V-B:TYR:539:CE2:9847, V-A:ASP:366:CG:3212, V-A:ILE:369:CG2:3236, V-B:TYR:539:CZ:9848, H-B:ALA:541:N:9862, V-A:PRO:540:N:4884, V-A:PRO:540:CB:4885, V-A:TYR:539:CD2:4874, V-A:PRO:540:CA:4883, V-A:TYR:539:C:4867, V-A:LEU:475:CD2:4258, V-A:TYR:539:CE2:4876, V-A:TYR:539:CZ:4877, V-A:ILE:369:CD1:3238, V-B:ALA:541:CB:9863, V-A:TRP:381:CH2:3371, V-A:TRP:381:CZ2:3369, V-B:ALA:541:CA:9861, V-A:LEU:363:CD1:3188, V-A:LEU:363:CA:3184, V-A:MET:535:CE:4835, H-A:TYR:539:N:4870, V-A:TYR:539:CD1:4873, V-A:TYR:539:CE1:4875, V-A:PRO:540:C:4881, V-A:ASN:362:CB:3175"]

$$$$
RR24_Rahimova_2017
     RDKit          3D

 65 71  0  0  0  0  0  0  0  0999 V2000
  133.6250  122.4840   62.8800 C   0  0  0  0  0  0  0  0  0  0  0  0
  133.1860  123.7590   62.1470 C   0  0  2  0  0  0  0  0  0  0  0  0
  133.2640  125.0360   63.0340 C   0  0  0  0  0  0  0  0  0  0  0  0
  134.0060  125.1060   64.0190 O   0  0  0  0  0  0  0  0  0  0  0  0
  132.4150  126.0190   62.6120 O   0  0  0  0  0  0  0  0  0  0  0  0
  131.3930  126.4350   63.4360 C   0  0  0  0  0  0  0  0  0  0  0  0
  130.6500  127.5650   63.0870 C   0  0  0  0  0  0  0  0  0  0  0  0
  129.6080  127.9890   63.9070 C   0  0  0  0  0  0  0  0  0  0  0  0
  129.2990  127.2820   65.0730 C   0  0  0  0  0  0  0  0  0  0  0  0
  128.1630  127.7650   65.9820 C   0  0  1  0  0  0  0  0  0  0  0  0
  128.6440  127.9980   67.4330 C   0  0  0  0  0  0  0  0  0  0  0  0
  128.4080  129.1410   68.1040 C   0  0  0  0  0  0  0  0  0  0  0  0
  127.7210  130.1900   67.5440 N   0  0  0  0  0  0  0  0  0  0  0  0
  127.2380  130.1230   66.2590 C   0  0  0  0  0  0  0  0  0  0  0  0
  126.5750  131.2380   65.8590 N   0  0  0  0  0  0  0  0  0  0  0  0
  126.0950  131.3860   64.5940 C   0  0  0  0  0  0  0  0  0  0  0  0
  125.7940  132.5110   64.1920 O   0  0  0  0  0  0  0  0  0  0  0  0
  126.1570  130.2330   63.8280 N   0  0  0  0  0  0  0  0  0  0  0  0
  125.5660  130.3130   62.4760 C   0  0  0  0  0  0  0  0  0  0  0  0
  126.8060  129.0490   64.1340 C   0  0  0  0  0  0  0  0  0  0  0  0
  126.8650  128.0750   63.3770 O   0  0  0  0  0  0  0  0  0  0  0  0
  127.4120  129.0300   65.4700 C   0  0  0  0  0  0  0  0  0  0  0  0
  128.9730  129.0810   69.4420 C   0  0  0  0  0  0  0  0  0  0  0  0
  129.0040  129.9880   70.5020 C   0  0  0  0  0  0  0  0  0  0  0  0
  129.6430  129.6250   71.6910 C   0  0  0  0  0  0  0  0  0  0  0  0
  130.2400  128.3660   71.8130 C   0  0  0  0  0  0  0  0  0  0  0  0
  130.2050  127.4630   70.7470 C   0  0  0  0  0  0  0  0  0  0  0  0
  129.5680  127.8320   69.5620 C   0  0  0  0  0  0  0  0  0  0  0  0
  129.3820  127.0850   68.3000 C   0  0  0  0  0  0  0  0  0  0  0  0
  129.7470  125.9510   67.9960 O   0  0  0  0  0  0  0  0  0  0  0  0
  130.0340  126.1390   65.4090 C   0  0  0  0  0  0  0  0  0  0  0  0
  131.0750  125.7140   64.5890 C   0  0  0  0  0  0  0  0  0  0  0  0
  131.8510  123.6010   61.4960 N   0  0  0  0  0  0  0  0  0  0  0  0
  130.7630  123.1710   62.1950 C   0  0  0  0  0  0  0  0  0  0  0  0
  130.7150  122.8610   63.3870 O   0  0  0  0  0  0  0  0  0  0  0  0
  129.6470  123.1560   61.2180 C   0  0  0  0  0  0  0  0  0  0  0  0
  128.3050  122.8030   61.3700 C   0  0  0  0  0  0  0  0  0  0  0  0
  127.4610  122.8900   60.2570 C   0  0  0  0  0  0  0  0  0  0  0  0
  127.9610  123.3240   59.0230 C   0  0  0  0  0  0  0  0  0  0  0  0
  129.3090  123.6740   58.8910 C   0  0  0  0  0  0  0  0  0  0  0  0
  130.1350  123.5800   60.0120 C   0  0  0  0  0  0  0  0  0  0  0  0
  131.5790  123.8780   60.1840 C   0  0  0  0  0  0  0  0  0  0  0  0
  132.3620  124.2910   59.3280 O   0  0  0  0  0  0  0  0  0  0  0  0
  133.5686  122.6477   63.9663 H   0  0  0  0  0  0  0  0  0  0  0  0
  132.9613  121.6528   62.5995 H   0  0  0  0  0  0  0  0  0  0  0  0
  134.6597  122.2376   62.5995 H   0  0  0  0  0  0  0  0  0  0  0  0
  133.9200  123.9120   61.3421 H   0  0  0  0  0  0  0  0  0  0  0  0
  130.8876  128.1185   62.1666 H   0  0  0  0  0  0  0  0  0  0  0  0
  129.0262  128.8826   63.6369 H   0  0  0  0  0  0  0  0  0  0  0  0
  127.4365  126.9394   65.9607 H   0  0  0  0  0  0  0  0  0  0  0  0
  127.5640  131.0290   68.0850 H   0  0  0  0  0  0  0  0  0  0  0  0
  126.4400  132.0140   66.4910 H   0  0  0  0  0  0  0  0  0  0  0  0
  124.4791  130.4601   62.5591 H   0  0  0  0  0  0  0  0  0  0  0  0
  126.0100  131.1592   61.9312 H   0  0  0  0  0  0  0  0  0  0  0  0
  125.7690  129.3792   61.9312 H   0  0  0  0  0  0  0  0  0  0  0  0
  128.5314  130.9764   70.4031 H   0  0  0  0  0  0  0  0  0  0  0  0
  129.6765  130.3316   72.5333 H   0  0  0  0  0  0  0  0  0  0  0  0
  130.7393  128.0854   72.7522 H   0  0  0  0  0  0  0  0  0  0  0  0
  130.6743  126.4726   70.8412 H   0  0  0  0  0  0  0  0  0  0  0  0
  129.7886  125.5764   66.3218 H   0  0  0  0  0  0  0  0  0  0  0  0
  131.6469  124.8110   64.8488 H   0  0  0  0  0  0  0  0  0  0  0  0
  127.9195  122.4640   62.3429 H   0  0  0  0  0  0  0  0  0  0  0  0
  126.3999  122.6162   60.3519 H   0  0  0  0  0  0  0  0  0  0  0  0
  127.2906  123.3900   58.1534 H   0  0  0  0  0  0  0  0  0  0  0  0
  129.7091  124.0157   57.9250 H   0  0  0  0  0  0  0  0  0  0  0  0
  1  2  1  0
  2  3  1  0
  3  4  2  0
  3  5  1  0
  5  6  1  0
  6  7  2  0
  7  8  1  0
  8  9  2  0
  9 10  1  0
 10 11  1  0
 11 12  2  0
 12 13  1  0
 13 14  1  0
 14 15  1  0
 15 16  1  0
 16 17  2  0
 16 18  1  0
 18 19  1  0
 18 20  1  0
 20 21  2  0
 20 22  1  0
 12 23  1  0
 23 24  2  0
 24 25  1  0
 25 26  2  0
 26 27  1  0
 27 28  2  0
 28 29  1  0
 29 30  2  0
  9 31  1  0
 31 32  2  0
  2 33  1  0
 33 34  1  0
 34 35  2  0
 34 36  1  0
 36 37  2  0
 37 38  1  0
 38 39  2  0
 39 40  1  0
 40 41  2  0
 41 42  1  0
 42 43  2  0
 32  6  1  0
 42 33  1  0
 22 10  1  0
 28 23  1  0
 41 36  1  0
 29 11  1  0
 22 14  2  0
  1 44  1  0
  1 45  1  0
  1 46  1  0
  2 47  1  6
  7 48  1  0
  8 49  1  0
 10 50  1  1
 13 51  1  0
 15 52  1  0
 19 53  1  0
 19 54  1  0
 19 55  1  0
 24 56  1  0
 25 57  1  0
 26 58  1  0
 27 59  1  0
 31 60  1  0
 32 61  1  0
 37 62  1  0
 38 63  1  0
 39 64  1  0
 40 65  1  0
M  END
>  <Binding energies>  (1) 
[-10.1]

>  <Ligand effiencies>  (1) 
[-0.22444444444444445]

>  <Interactions>  (1) 
["V-B:TYR:539:CD2:9845, V-B:TYR:539:CE2:9847, V-B:PRO:540:CA:9854, V-B:TYR:539:CZ:9848, V-A:GLU:543:CD:4908, V-B:LEU:475:CD1:9229, V-A:GLU:543:CG:4907, V-B:GLU:543:CD:9879, V-B:HIS:456:CE1:9041, H-B:ARG:545:NH2:9899, V-A:GLU:543:CB:4906, V-A:HIS:456:CE1:4069, V-A:LEU:475:CD2:4258, H-B:TYR:539:OH:9849, V-A:GLU:543:C:4902, V-B:TYR:484:CE1:9316, H-A:ARG:545:NH2:4928, V-A:ILE:369:CD1:3238, V-A:GLY:454:CA:4048, V-A:ARG:545:CZ:4926, V-B:ALA:541:CB:9863, V-B:PRO:540:C:9852, V-B:TYR:484:CZ:9318, H-A:ARG:545:NH1:4927, H-A:GLY:454:N:4049, H-B:TYR:484:OH:9319, V-A:GLU:543:CA:4904"]

$$$$
RR24_Rahimova_2017-again1
     RDKit          3D

 63 69  0  0  0  0  0  0  0  0999 V2000
  129.3440  121.9970   60.8310 C   0  0  0  0  0  0  0  0  0  0  0  0
  129.2130  122.7740   59.5140 C   0  0  2  0  0  0  0  0  0  0  0  0
  130.2670  123.9090   59.3590 C   0  0  0  0  0  0  0  0  0  0  0  0
  131.0550  124.1990   60.2670 O   0  0  0  0  0  0  0  0  0  0  0  0
  130.1930  124.5350   58.1480 O   0  0  0  0  0  0  0  0  0  0  0  0
  130.0210  125.8990   58.0970 C   0  0  0  0  0  0  0  0  0  0  0  0
  129.2010  126.4530   57.1130 C   0  0  0  0  0  0  0  0  0  0  0  0
  129.0070  127.8310   57.0660 C   0  0  0  0  0  0  0  0  0  0  0  0
  129.6250  128.6610   58.0070 C   0  0  0  0  0  0  0  0  0  0  0  0
  129.4130  130.1810   57.9600 C   0  0  1  0  0  0  0  0  0  0  0  0
  127.9330  130.5510   58.2090 C   0  0  0  0  0  0  0  0  0  0  0  0
  126.8020  130.2930   57.5130 C   0  0  0  0  0  0  0  0  0  0  0  0
  126.7540  129.6610   56.3900 O   0  0  0  0  0  0  0  0  0  0  0  0
  125.6370  130.8090   58.2310 C   0  0  0  0  0  0  0  0  0  0  0  0
  124.2660  130.7870   57.9450 C   0  0  0  0  0  0  0  0  0  0  0  0
  123.3660  131.3670   58.8410 C   0  0  0  0  0  0  0  0  0  0  0  0
  123.8320  131.9660   60.0120 C   0  0  0  0  0  0  0  0  0  0  0  0
  125.2000  131.9870   60.2920 C   0  0  0  0  0  0  0  0  0  0  0  0
  126.0990  131.4030   59.3960 C   0  0  0  0  0  0  0  0  0  0  0  0
  127.5460  131.2840   59.4020 C   0  0  0  0  0  0  0  0  0  0  0  0
  128.4030  131.7200   60.2470 N   0  0  0  0  0  0  0  0  0  0  0  0
  129.7440  131.6190   60.0230 C   0  0  0  0  0  0  0  0  0  0  0  0
  130.4940  132.2820   60.9520 N   0  0  0  0  0  0  0  0  0  0  0  0
  131.7760  132.2510   60.8650 C   0  0  0  0  0  0  0  0  0  0  0  0
  132.3540  132.8840   61.7650 O   0  0  0  0  0  0  0  0  0  0  0  0
  132.4390  131.5680   59.8460 N   0  0  0  0  0  0  0  0  0  0  0  0
  133.9150  131.5130   59.7210 C   0  0  0  0  0  0  0  0  0  0  0  0
  131.7630  130.8850   58.8540 C   0  0  0  0  0  0  0  0  0  0  0  0
  132.3100  130.2880   57.9210 O   0  0  0  0  0  0  0  0  0  0  0  0
  130.3030  130.9250   58.9830 C   0  0  0  0  0  0  0  0  0  0  0  0
  130.4360  128.1010   58.9990 C   0  0  0  0  0  0  0  0  0  0  0  0
  130.6290  126.7230   59.0480 C   0  0  0  0  0  0  0  0  0  0  0  0
  127.8200  123.2600   59.2870 N   0  0  0  0  0  0  0  0  0  0  0  0
  127.3610  123.5490   58.0360 C   0  0  0  0  0  0  0  0  0  0  0  0
  127.9790  123.4660   56.9730 O   0  0  0  0  0  0  0  0  0  0  0  0
  125.9550  123.9890   58.2250 C   0  0  0  0  0  0  0  0  0  0  0  0
  124.9980  124.4110   57.3000 C   0  0  0  0  0  0  0  0  0  0  0  0
  123.7300  124.7730   57.7680 C   0  0  0  0  0  0  0  0  0  0  0  0
  123.4370  124.7090   59.1370 C   0  0  0  0  0  0  0  0  0  0  0  0
  124.4100  124.2830   60.0470 C   0  0  0  0  0  0  0  0  0  0  0  0
  125.6690  123.9270   59.5610 C   0  0  0  0  0  0  0  0  0  0  0  0
  126.8830  123.4440   60.2660 C   0  0  0  0  0  0  0  0  0  0  0  0
  127.0150  123.2490   61.4740 O   0  0  0  0  0  0  0  0  0  0  0  0
  129.2273  122.6889   61.6781 H   0  0  0  0  0  0  0  0  0  0  0  0
  128.5636  121.2233   60.8794 H   0  0  0  0  0  0  0  0  0  0  0  0
  130.3349  121.5219   60.8794 H   0  0  0  0  0  0  0  0  0  0  0  0
  129.4379  122.0518   58.7153 H   0  0  0  0  0  0  0  0  0  0  0  0
  128.7086  125.8020   56.3756 H   0  0  0  0  0  0  0  0  0  0  0  0
  128.3658  128.2682   56.2865 H   0  0  0  0  0  0  0  0  0  0  0  0
  129.7024  130.5007   56.9481 H   0  0  0  0  0  0  0  0  0  0  0  0
  123.9008  130.3158   57.0205 H   0  0  0  0  0  0  0  0  0  0  0  0
  122.2878  131.3518   58.6235 H   0  0  0  0  0  0  0  0  0  0  0  0
  123.1205  132.4225   60.7158 H   0  0  0  0  0  0  0  0  0  0  0  0
  125.5681  132.4612   61.2138 H   0  0  0  0  0  0  0  0  0  0  0  0
  134.3675  131.4961   60.7235 H   0  0  0  0  0  0  0  0  0  0  0  0
  134.2030  130.6035   59.1734 H   0  0  0  0  0  0  0  0  0  0  0  0
  134.2699  132.3985   59.1734 H   0  0  0  0  0  0  0  0  0  0  0  0
  130.9223  128.7503   59.7419 H   0  0  0  0  0  0  0  0  0  0  0  0
  131.2596  126.2832   59.8347 H   0  0  0  0  0  0  0  0  0  0  0  0
  125.2356  124.4578   56.2270 H   0  0  0  0  0  0  0  0  0  0  0  0
  122.9598  125.1093   57.0583 H   0  0  0  0  0  0  0  0  0  0  0  0
  122.4378  124.9949   59.4973 H   0  0  0  0  0  0  0  0  0  0  0  0
  124.1877  124.2297   61.1230 H   0  0  0  0  0  0  0  0  0  0  0  0
  1  2  1  0
  2  3  1  0
  3  4  2  0
  3  5  1  0
  5  6  1  0
  6  7  2  0
  7  8  1  0
  8  9  2  0
  9 10  1  0
 10 11  1  0
 11 12  2  0
 12 13  1  0
 12 14  1  0
 14 15  2  0
 15 16  1  0
 16 17  2  0
 17 18  1  0
 18 19  2  0
 19 20  1  0
 20 21  2  0
 21 22  1  0
 22 23  1  0
 23 24  2  0
 24 25  1  0
 24 26  1  0
 26 27  1  0
 26 28  1  0
 28 29  2  0
 28 30  1  0
  9 31  1  0
 31 32  2  0
  2 33  1  0
 33 34  1  0
 34 35  2  0
 34 36  1  0
 36 37  2  0
 37 38  1  0
 38 39  2  0
 39 40  1  0
 40 41  2  0
 41 42  1  0
 42 43  2  0
 32  6  1  0
 42 33  1  0
 30 10  1  0
 41 36  1  0
 20 11  1  0
 30 22  2  0
 19 14  1  0
  1 44  1  0
  1 45  1  0
  1 46  1  0
  2 47  1  6
  7 48  1  0
  8 49  1  0
 10 50  1  6
 15 51  1  0
 16 52  1  0
 17 53  1  0
 18 54  1  0
 27 55  1  0
 27 56  1  0
 27 57  1  0
 31 58  1  0
 32 59  1  0
 37 60  1  0
 38 61  1  0
 39 62  1  0
 40 63  1  0
M  CHG  2  13  -1  25  -1
M  END
>  <Binding energies>  (1) 
[-9.21]

>  <Ligand effiencies>  (1) 
[-0.21418604651162793]

>  <Interactions>  (1) 
["V-B:TYR:539:CD2:9845, V-B:ASP:366:CG:8184, V-B:TYR:539:CE2:9847, V-A:ASP:366:CG:3212, V-B:LEU:363:CA:8156, V-B:PRO:540:CB:9856, H-B:TYR:531:OH:9766, V-A:ASP:366:CB:3211, V-B:PRO:540:CA:9854, V-B:LEU:363:CD1:8160, V-B:TYR:539:CZ:9848, V-B:TYR:531:CZ:9765, V-B:ASP:366:CB:8183, V-B:TYR:531:CE2:9764, H-B:ALA:541:N:9862, V-A:PRO:540:CB:4885, H-A:ALA:541:N:4891, V-A:PRO:540:CA:4883, V-B:ILE:369:CD1:8210, H-B:TYR:539:OH:9849, V-B:ILE:369:CG2:8208, V-A:TYR:539:CE2:4876, V-B:ASP:366:CA:8181, V-B:ASP:366:C:8179, V-B:ALA:541:CB:9863, H-A:TYR:531:OH:4795, V-A:LEU:363:CA:3184, V-B:ASN:362:C:8143, V-B:LEU:363:CB:8158, V-B:LEU:363:C:8154, V-B:ILE:369:CB:8207, V-A:PRO:540:C:4881, V-A:LEU:363:CB:3186, V-A:ASN:362:C:3171"]

$$$$
RR25_Rahimova_2017
     RDKit          3D

 63 68  0  0  0  0  0  0  0  0999 V2000
  124.8510  129.6120   67.6850 O   0  0  0  0  0  0  0  0  0  0  0  0
  125.8090  129.2020   67.0280 C   0  0  0  0  0  0  0  0  0  0  0  0
  126.9090  128.8000   67.7450 O   0  0  0  0  0  0  0  0  0  0  0  0
  127.9400  128.0950   67.1510 C   0  0  0  0  0  0  0  0  0  0  0  0
  128.6990  127.2730   67.9830 C   0  0  0  0  0  0  0  0  0  0  0  0
  129.7580  126.5410   67.4520 C   0  0  0  0  0  0  0  0  0  0  0  0
  130.0770  126.6220   66.0890 C   0  0  0  0  0  0  0  0  0  0  0  0
  131.2010  125.8350   65.5250 N   0  0  0  0  0  0  0  0  0  0  0  0
  131.0310  125.2480   64.4590 O   0  0  0  0  0  0  0  0  0  0  0  0
  132.2610  125.7990   66.1430 O   0  0  0  0  0  0  0  0  0  0  0  0
  129.3080  127.4660   65.2710 C   0  0  0  0  0  0  0  0  0  0  0  0
  128.2470  128.2130   65.7880 C   0  0  0  0  0  0  0  0  0  0  0  0
  127.3810  129.1300   64.9440 C   0  0  0  0  0  0  0  0  0  0  0  0
  125.9200  129.1090   65.4780 C   0  0  2  0  0  0  0  0  0  0  0  0
  125.0230  130.1130   64.6980 C   0  0  0  0  0  0  0  0  0  0  0  0
  124.2370  130.7790   65.3780 O   0  0  0  0  0  0  0  0  0  0  0  0
  125.1810  130.3420   63.3600 N   0  0  0  0  0  0  0  0  0  0  0  0
  125.8600  129.3860   62.4590 C   0  0  0  0  0  0  0  0  0  0  0  0
  126.6620  130.1760   61.4030 C   0  0  0  0  0  0  0  0  0  0  0  0
  125.8080  131.1270   60.6840 N   0  0  0  0  0  0  0  0  0  0  0  0
  126.5370  131.7830   59.5900 C   0  0  0  0  0  0  0  0  0  0  0  0
  127.5450  132.8500   60.0930 C   0  0  0  0  0  0  0  0  0  0  0  0
  128.9890  132.5430   59.8750 N   0  0  0  0  0  0  0  0  0  0  0  0
  129.7810  132.6010   61.0020 C   0  0  0  0  0  0  0  0  0  0  0  0
  129.3490  132.9200   62.1160 O   0  0  0  0  0  0  0  0  0  0  0  0
  131.2320  132.2220   60.7750 C   0  0  0  0  0  0  0  0  0  0  0  0
  132.1200  132.2220   61.8590 C   0  0  0  0  0  0  0  0  0  0  0  0
  133.4580  131.8720   61.6880 C   0  0  0  0  0  0  0  0  0  0  0  0
  133.9490  131.5080   60.4350 C   0  0  0  0  0  0  0  0  0  0  0  0
  133.0890  131.4940   59.3110 C   0  0  0  0  0  0  0  0  0  0  0  0
  133.5200  131.1330   58.0130 C   0  0  0  0  0  0  0  0  0  0  0  0
  132.6190  131.1370   56.9490 C   0  0  0  0  0  0  0  0  0  0  0  0
  131.2860  131.4940   57.1420 C   0  0  0  0  0  0  0  0  0  0  0  0
  130.8140  131.8580   58.4100 C   0  0  0  0  0  0  0  0  0  0  0  0
  131.7250  131.8550   59.4970 C   0  0  0  0  0  0  0  0  0  0  0  0
  129.3540  132.2320   58.5810 C   0  0  0  0  0  0  0  0  0  0  0  0
  128.5630  132.2360   57.6320 O   0  0  0  0  0  0  0  0  0  0  0  0
  125.2500  132.1010   61.6230 C   0  0  0  0  0  0  0  0  0  0  0  0
  124.3930  131.4170   62.7150 C   0  0  0  0  0  0  0  0  0  0  0  0
  128.4622  127.2030   69.0549 H   0  0  0  0  0  0  0  0  0  0  0  0
  130.3522  125.8905   68.1106 H   0  0  0  0  0  0  0  0  0  0  0  0
  129.5465  127.5403   64.1998 H   0  0  0  0  0  0  0  0  0  0  0  0
  127.7749  130.1557   64.9967 H   0  0  0  0  0  0  0  0  0  0  0  0
  127.3925  128.7832   63.9002 H   0  0  0  0  0  0  0  0  0  0  0  0
  125.5143  128.1084   65.2676 H   0  0  0  0  0  0  0  0  0  0  0  0
  126.5431  128.7508   63.0420 H   0  0  0  0  0  0  0  0  0  0  0  0
  125.1137  128.7499   61.9605 H   0  0  0  0  0  0  0  0  0  0  0  0
  127.4688  130.7290   61.9063 H   0  0  0  0  0  0  0  0  0  0  0  0
  127.0738  129.4615   60.6751 H   0  0  0  0  0  0  0  0  0  0  0  0
  127.0889  131.0164   59.0263 H   0  0  0  0  0  0  0  0  0  0  0  0
  125.7962  132.2983   58.9610 H   0  0  0  0  0  0  0  0  0  0  0  0
  127.3204  133.7946   59.5760 H   0  0  0  0  0  0  0  0  0  0  0  0
  127.4129  132.8902   61.1843 H   0  0  0  0  0  0  0  0  0  0  0  0
  131.7560  132.5021   62.8585 H   0  0  0  0  0  0  0  0  0  0  0  0
  134.1363  131.8831   62.5539 H   0  0  0  0  0  0  0  0  0  0  0  0
  135.0073  131.2310   60.3197 H   0  0  0  0  0  0  0  0  0  0  0  0
  134.5688  130.8484   57.8426 H   0  0  0  0  0  0  0  0  0  0  0  0
  132.9651  130.8546   55.9438 H   0  0  0  0  0  0  0  0  0  0  0  0
  130.5944  131.4900   56.2866 H   0  0  0  0  0  0  0  0  0  0  0  0
  126.0757  132.6441   62.1060 H   0  0  0  0  0  0  0  0  0  0  0  0
  124.6023  132.7887   61.0594 H   0  0  0  0  0  0  0  0  0  0  0  0
  124.1003  132.1608   63.4707 H   0  0  0  0  0  0  0  0  0  0  0  0
  123.4911  130.9855   62.2563 H   0  0  0  0  0  0  0  0  0  0  0  0
  1  2  2  0
  2  3  1  0
  3  4  1  0
  4  5  2  0
  5  6  1  0
  6  7  2  0
  7  8  1  0
  8  9  2  0
  8 10  1  0
  7 11  1  0
 11 12  2  0
 12 13  1  0
 13 14  1  0
 14 15  1  0
 15 16  2  0
 15 17  1  0
 17 18  1  0
 18 19  1  0
 19 20  1  0
 20 21  1  0
 21 22  1  0
 22 23  1  0
 23 24  1  0
 24 25  2  0
 24 26  1  0
 26 27  2  0
 27 28  1  0
 28 29  2  0
 29 30  1  0
 30 31  2  0
 31 32  1  0
 32 33  2  0
 33 34  1  0
 34 35  2  0
 34 36  1  0
 36 37  2  0
 20 38  1  0
 38 39  1  0
 14  2  1  0
 39 17  1  0
 12  4  1  0
 36 23  1  0
 35 26  1  0
 35 30  1  0
  5 40  1  0
  6 41  1  0
 11 42  1  0
 13 43  1  0
 13 44  1  0
 14 45  1  6
 18 46  1  0
 18 47  1  0
 19 48  1  0
 19 49  1  0
 21 50  1  0
 21 51  1  0
 22 52  1  0
 22 53  1  0
 27 54  1  0
 28 55  1  0
 29 56  1  0
 31 57  1  0
 32 58  1  0
 33 59  1  0
 38 60  1  0
 38 61  1  0
 39 62  1  0
 39 63  1  0
M  CHG  2   8   1  10  -1
M  END
>  <Binding energies>  (1) 
[-10.67]

>  <Ligand effiencies>  (1) 
[-0.2735897435897436]

>  <Interactions>  (1) 
["V-B:ASP:366:CG:8184, V-A:ASP:366:CG:3212, V-A:ASP:366:CB:3211, V-A:GLU:543:CD:4908, V-A:GLU:543:CG:4907, V-A:PRO:540:CB:4885, V-A:TYR:539:CD2:4874, H-A:ALA:541:N:4891, V-A:ALA:541:CA:4890, V-A:PRO:540:CA:4883, H-B:GLY:454:N:9021, V-B:GLU:543:CD:9879, V-B:HIS:456:CE1:9041, V-A:HIS:456:CE1:4069, H-A:TYR:484:OH:4347, V-A:TYR:539:CE2:4876, H-A:ARG:545:NE:4924, V-B:ARG:545:CZ:9897, V-A:TYR:531:CE2:4793, V-A:LEU:363:CD1:3188, V-A:TYR:531:CZ:4794, V-A:LEU:363:CA:3184, H-B:TYR:484:OH:9319, H-B:HIS:456:ND1:9038, V-A:PRO:540:C:4881, V-A:ASN:362:C:3171, V-A:ASN:362:CB:3175"]

$$$$
RR26_Rahimova_2017
     RDKit          3D

 59 65  0  0  0  0  0  0  0  0999 V2000
  123.8760  124.7770   58.2680 C   0  0  0  0  0  0  0  0  0  0  0  0
  125.1290  124.1350   57.6850 C   0  0  0  0  0  0  0  0  0  0  0  0
  124.9960  122.9180   57.0080 C   0  0  0  0  0  0  0  0  0  0  0  0
  126.1010  122.3060   56.4210 C   0  0  0  0  0  0  0  0  0  0  0  0
  127.3520  122.9110   56.5000 C   0  0  0  0  0  0  0  0  0  0  0  0
  127.4970  124.1240   57.1710 C   0  0  0  0  0  0  0  0  0  0  0  0
  126.3970  124.7500   57.7760 C   0  0  0  0  0  0  0  0  0  0  0  0
  126.6430  126.0470   58.4920 C   0  0  0  0  0  0  0  0  0  0  0  0
  126.2430  127.2170   58.0030 N   0  0  0  0  0  0  0  0  0  0  0  0
  126.6420  128.0480   58.9280 C   0  0  0  0  0  0  0  0  0  0  0  0
  126.5790  129.7550   59.1690 S   0  0  0  0  0  0  0  0  0  0  0  0
  127.4330  129.5410   60.7430 C   0  0  0  0  0  0  0  0  0  0  0  0
  127.7980  130.5000   61.6230 C   0  0  0  0  0  0  0  0  0  0  0  0
  127.5880  131.9350   61.5230 C   0  0  0  0  0  0  0  0  0  0  0  0
  126.7180  132.7270   62.2570 C   0  0  0  0  0  0  0  0  0  0  0  0
  126.8880  134.0270   61.8530 N   0  0  0  0  0  0  0  0  0  0  0  0
  126.2210  135.1870   62.3260 C   0  0  0  0  0  0  0  0  0  0  0  0
  126.9460  136.3190   62.7270 C   0  0  0  0  0  0  0  0  0  0  0  0
  126.2790  137.4490   63.1920 C   0  0  0  0  0  0  0  0  0  0  0  0
  124.8880  137.4540   63.2540 C   0  0  0  0  0  0  0  0  0  0  0  0
  124.1560  136.3370   62.8550 C   0  0  0  0  0  0  0  0  0  0  0  0
  124.8200  135.2040   62.3930 C   0  0  0  0  0  0  0  0  0  0  0  0
  127.8460  134.1020   60.9170 N   0  0  0  0  0  0  0  0  0  0  0  0
  128.2660  132.8700   60.7070 C   0  0  0  0  0  0  0  0  0  0  0  0
  129.3400  132.6100   59.6970 C   0  0  0  0  0  0  0  0  0  0  0  0
  130.5280  131.9650   60.0750 C   0  0  0  0  0  0  0  0  0  0  0  0
  131.5380  131.7210   59.1420 C   0  0  0  0  0  0  0  0  0  0  0  0
  131.3660  132.1240   57.8190 C   0  0  0  0  0  0  0  0  0  0  0  0
  130.1750  132.7530   57.4250 C   0  0  0  0  0  0  0  0  0  0  0  0
  129.1720  133.0000   58.3610 C   0  0  0  0  0  0  0  0  0  0  0  0
  129.9790  133.2080   56.1360 O   0  0  0  0  0  0  0  0  0  0  0  0
  130.8500  132.6150   55.1680 C   0  0  0  0  0  0  0  0  0  0  0  0
  132.3030  132.5680   55.7000 C   0  0  0  0  0  0  0  0  0  0  0  0
  132.3680  131.8200   56.9190 O   0  0  0  0  0  0  0  0  0  0  0  0
  127.7430  128.1420   61.0210 C   0  0  0  0  0  0  0  0  0  0  0  0
  128.3180  127.6510   61.9940 O   0  0  0  0  0  0  0  0  0  0  0  0
  127.2510  127.3990   59.9360 N   0  0  0  0  0  0  0  0  0  0  0  0
  127.2540  126.0900   59.6670 N   0  0  0  0  0  0  0  0  0  0  0  0
  123.9276  124.7505   59.3665 H   0  0  0  0  0  0  0  0  0  0  0  0
  123.8075  125.8213   57.9292 H   0  0  0  0  0  0  0  0  0  0  0  0
  122.9884  124.2226   57.9292 H   0  0  0  0  0  0  0  0  0  0  0  0
  124.0081  122.4392   56.9385 H   0  0  0  0  0  0  0  0  0  0  0  0
  125.9852  121.3463   55.8960 H   0  0  0  0  0  0  0  0  0  0  0  0
  128.2255  122.4322   56.0333 H   0  0  0  0  0  0  0  0  0  0  0  0
  128.4884  124.5973   57.2270 H   0  0  0  0  0  0  0  0  0  0  0  0
  128.3186  130.1512   62.5271 H   0  0  0  0  0  0  0  0  0  0  0  0
  126.0157  132.3751   63.0270 H   0  0  0  0  0  0  0  0  0  0  0  0
  128.0447  136.3138   62.6739 H   0  0  0  0  0  0  0  0  0  0  0  0
  126.8488  138.3348   63.5093 H   0  0  0  0  0  0  0  0  0  0  0  0
  124.3620  138.3476   63.6212 H   0  0  0  0  0  0  0  0  0  0  0  0
  123.0572  136.3507   62.9050 H   0  0  0  0  0  0  0  0  0  0  0  0
  124.2448  134.3202   62.0798 H   0  0  0  0  0  0  0  0  0  0  0  0
  130.6651  131.6477   61.1193 H   0  0  0  0  0  0  0  0  0  0  0  0
  132.4642  131.2135   59.4496 H   0  0  0  0  0  0  0  0  0  0  0  0
  128.2446  133.5032   58.0499 H   0  0  0  0  0  0  0  0  0  0  0  0
  130.5097  131.5910   54.9546 H   0  0  0  0  0  0  0  0  0  0  0  0
  130.8272  133.2220   54.2509 H   0  0  0  0  0  0  0  0  0  0  0  0
  132.9484  132.0907   54.9479 H   0  0  0  0  0  0  0  0  0  0  0  0
  132.6432  133.5957   55.8953 H   0  0  0  0  0  0  0  0  0  0  0  0
  1  2  1  0
  2  3  2  0
  3  4  1  0
  4  5  2  0
  5  6  1  0
  6  7  2  0
  7  8  1  0
  8  9  1  0
  9 10  2  0
 10 11  1  0
 11 12  1  0
 12 13  2  0
 13 14  1  0
 14 15  2  0
 15 16  1  0
 16 17  1  0
 17 18  2  0
 18 19  1  0
 19 20  2  0
 20 21  1  0
 21 22  2  0
 16 23  1  0
 23 24  2  0
 24 25  1  0
 25 26  2  0
 26 27  1  0
 27 28  2  0
 28 29  1  0
 29 30  2  0
 29 31  1  0
 31 32  1  0
 32 33  1  0
 33 34  1  0
 12 35  1  0
 35 36  2  0
 35 37  1  0
 37 38  1  0
  7  2  1  0
 38  8  2  0
 37 10  1  0
 24 14  1  0
 30 25  1  0
 22 17  1  0
 34 28  1  0
  1 39  1  0
  1 40  1  0
  1 41  1  0
  3 42  1  0
  4 43  1  0
  5 44  1  0
  6 45  1  0
 13 46  1  0
 15 47  1  0
 18 48  1  0
 19 49  1  0
 20 50  1  0
 21 51  1  0
 22 52  1  0
 26 53  1  0
 27 54  1  0
 30 55  1  0
 32 56  1  0
 32 57  1  0
 33 58  1  0
 33 59  1  0
M  END
>  <Binding energies>  (1) 
[-10.57]

>  <Ligand effiencies>  (1) 
[-0.2781578947368421]

>  <Interactions>  (1) 
["V-B:ASP:366:CG:8184, V-B:TYR:539:C:9838, V-B:PRO:540:CD:9858, V-B:PRO:540:N:9855, V-B:LEU:363:CA:8156, V-B:PRO:540:CB:9856, H-B:TYR:531:OH:9766, V-B:PRO:540:CA:9854, V-B:LEU:363:CD1:8160, V-B:TYR:539:CZ:9848, V-B:ASP:366:CB:8183, V-B:TYR:531:CE2:9764, V-A:PRO:540:N:4884, V-B:PRO:482:CB:9297, V-B:LEU:475:CD1:9229, V-B:TRP:381:CH2:8343, V-A:PRO:540:CB:4885, V-A:TYR:539:CD2:4874, V-A:ALA:541:CB:4892, V-B:PRO:482:CG:9298, V-B:TRP:381:CZ2:8341, V-A:PRO:540:CA:4883, V-A:TYR:539:C:4867, V-A:TYR:539:CE2:4876, V-B:TYR:539:CD1:9844, V-B:TYR:539:CG:9843, V-B:TYR:539:CE1:9846, V-A:LEU:363:CD1:3188, V-A:MET:535:CE:4835, H-A:TYR:539:N:4870, V-B:SER:385:CB:8380, V-B:LEU:475:CB:9227, V-B:SER:385:CA:8378, V-B:TRP:381:CE2:8338, V-A:TYR:539:CG:4872, V-B:SER:385:C:8376, V-A:ILE:538:CA:4860, V-A:ILE:538:CB:4862, V-A:ILE:538:CG2:4863"]

$$$$
RR27_Rahimova_2017
     RDKit          3D

 66 71  0  0  0  0  0  0  0  0999 V2000
  129.5770  124.9760   57.4350 O   0  0  0  0  0  0  0  0  0  0  0  0
  129.1420  125.1610   58.5760 C   0  0  0  0  0  0  0  0  0  0  0  0
  128.3090  124.0260   59.2410 C   0  0  0  0  0  0  0  0  0  0  0  0
  129.1810  122.9520   59.9170 C   0  0  0  0  0  0  0  0  0  0  0  0
  128.6370  121.7510   60.3990 C   0  0  0  0  0  0  0  0  0  0  0  0
  129.4550  120.8010   61.0020 C   0  0  0  0  0  0  0  0  0  0  0  0
  130.8190  121.0450   61.1270 C   0  0  0  0  0  0  0  0  0  0  0  0
  131.3730  122.2320   60.6570 C   0  0  0  0  0  0  0  0  0  0  0  0
  130.5550  123.1830   60.0530 C   0  0  0  0  0  0  0  0  0  0  0  0
  127.2260  123.4800   58.2920 C   0  0  0  0  0  0  0  0  0  0  0  0
  127.5430  122.6330   57.2220 C   0  0  0  0  0  0  0  0  0  0  0  0
  126.5400  122.1660   56.3750 C   0  0  0  0  0  0  0  0  0  0  0  0
  125.2200  122.5490   56.5910 C   0  0  0  0  0  0  0  0  0  0  0  0
  124.8920  123.4000   57.6440 C   0  0  0  0  0  0  0  0  0  0  0  0
  125.8940  123.8660   58.4880 C   0  0  0  0  0  0  0  0  0  0  0  0
  129.4980  126.2540   59.3080 N   0  0  0  0  0  0  0  0  0  0  0  0
  128.8230  126.6520   60.5530 C   0  0  0  0  0  0  0  0  0  0  0  0
  127.6300  127.5460   60.1490 C   0  0  0  0  0  0  0  0  0  0  0  0
  128.0580  128.7610   59.2660 C   0  0  0  0  0  0  0  0  0  0  0  0
  126.8930  129.6210   58.7430 C   0  0  0  0  0  0  0  0  0  0  0  0
  126.7310  129.6650   57.3880 N   0  0  0  0  0  0  0  0  0  0  0  0
  125.6990  130.3900   56.8740 C   0  0  0  0  0  0  0  0  0  0  0  0
  125.4330  130.5070   55.5350 O   0  0  0  0  0  0  0  0  0  0  0  0
  124.8410  131.0670   57.7620 C   0  0  0  0  0  0  0  0  0  0  0  0
  123.7400  131.8540   57.5910 N   0  0  0  0  0  0  0  0  0  0  0  0
  123.3170  132.2470   58.8460 N   0  0  0  0  0  0  0  0  0  0  0  0
  124.1360  131.7050   59.7720 N   0  0  0  0  0  0  0  0  0  0  0  0
  123.9330  131.9770   61.1930 C   0  0  0  0  0  0  0  0  0  0  0  0
  125.0650  132.7710   61.8320 C   0  0  0  0  0  0  0  0  0  0  0  0
  125.8290  132.2050   62.8570 C   0  0  0  0  0  0  0  0  0  0  0  0
  126.8740  132.9280   63.4350 C   0  0  0  0  0  0  0  0  0  0  0  0
  127.1620  134.2170   62.9880 C   0  0  0  0  0  0  0  0  0  0  0  0
  126.4090  134.7840   61.9590 C   0  0  0  0  0  0  0  0  0  0  0  0
  126.7810  136.3700   61.3860 Cl  0  0  0  0  0  0  0  0  0  0  0  0
  125.3600  134.0640   61.3860 C   0  0  0  0  0  0  0  0  0  0  0  0
  125.1160  130.9560   59.1420 C   0  0  0  0  0  0  0  0  0  0  0  0
  126.1250  130.2590   59.6720 N   0  0  0  0  0  0  0  0  0  0  0  0
  129.0670  128.3440   58.1520 C   0  0  0  0  0  0  0  0  0  0  0  0
  130.1760  127.3880   58.6610 C   0  0  0  0  0  0  0  0  0  0  0  0
  127.7565  124.4745   60.0798 H   0  0  0  0  0  0  0  0  0  0  0  0
  127.5583  121.5601   60.2994 H   0  0  0  0  0  0  0  0  0  0  0  0
  129.0252  119.8610   61.3783 H   0  0  0  0  0  0  0  0  0  0  0  0
  131.4657  120.2925   61.6019 H   0  0  0  0  0  0  0  0  0  0  0  0
  132.4521  122.4180   60.7622 H   0  0  0  0  0  0  0  0  0  0  0  0
  130.9910  124.1216   59.6804 H   0  0  0  0  0  0  0  0  0  0  0  0
  128.5879  122.3355   57.0499 H   0  0  0  0  0  0  0  0  0  0  0  0
  126.7909  121.4970   55.5386 H   0  0  0  0  0  0  0  0  0  0  0  0
  124.4283  122.1765   55.9243 H   0  0  0  0  0  0  0  0  0  0  0  0
  123.8467  123.7015   57.8068 H   0  0  0  0  0  0  0  0  0  0  0  0
  125.6385  124.5433   59.3163 H   0  0  0  0  0  0  0  0  0  0  0  0
  128.4640  125.7617   61.0902 H   0  0  0  0  0  0  0  0  0  0  0  0
  129.5118  127.1913   61.2199 H   0  0  0  0  0  0  0  0  0  0  0  0
  126.9095  126.9367   59.5836 H   0  0  0  0  0  0  0  0  0  0  0  0
  127.1877  127.9467   61.0730 H   0  0  0  0  0  0  0  0  0  0  0  0
  128.5930  129.4394   59.9469 H   0  0  0  0  0  0  0  0  0  0  0  0
  125.2030  131.4020   55.2790 H   0  0  0  0  0  0  0  0  0  0  0  0
  123.0001  132.5486   61.3074 H   0  0  0  0  0  0  0  0  0  0  0  0
  123.8942  131.0039   61.7044 H   0  0  0  0  0  0  0  0  0  0  0  0
  125.6060  131.1870   63.2090 H   0  0  0  0  0  0  0  0  0  0  0  0
  127.4706  132.4805   64.2436 H   0  0  0  0  0  0  0  0  0  0  0  0
  127.9832  134.7872   63.4467 H   0  0  0  0  0  0  0  0  0  0  0  0
  124.7623  134.5149   60.5801 H   0  0  0  0  0  0  0  0  0  0  0  0
  128.5115  127.8388   57.3481 H   0  0  0  0  0  0  0  0  0  0  0  0
  129.5618  129.2607   57.7986 H   0  0  0  0  0  0  0  0  0  0  0  0
  130.7859  127.0328   57.8173 H   0  0  0  0  0  0  0  0  0  0  0  0
  130.8454  127.9015   59.3668 H   0  0  0  0  0  0  0  0  0  0  0  0
  1  2  2  0
  2  3  1  0
  3  4  1  0
  4  5  2  0
  5  6  1  0
  6  7  2  0
  7  8  1  0
  8  9  2  0
  3 10  1  0
 10 11  2  0
 11 12  1  0
 12 13  2  0
 13 14  1  0
 14 15  2  0
  2 16  1  0
 16 17  1  0
 17 18  1  0
 18 19  1  0
 19 20  1  0
 20 21  2  0
 21 22  1  0
 22 23  1  0
 22 24  2  0
 24 25  1  0
 25 26  2  0
 26 27  1  0
 27 28  1  0
 28 29  1  0
 29 30  2  0
 30 31  1  0
 31 32  2  0
 32 33  1  0
 33 34  1  0
 33 35  2  0
 27 36  1  0
 36 37  2  0
 19 38  1  0
 38 39  1  0
  9  4  1  0
 15 10  1  0
 39 16  1  0
 37 20  1  0
 36 24  1  0
 35 29  1  0
  3 40  1  0
  5 41  1  0
  6 42  1  0
  7 43  1  0
  8 44  1  0
  9 45  1  0
 11 46  1  0
 12 47  1  0
 13 48  1  0
 14 49  1  0
 15 50  1  0
 17 51  1  0
 17 52  1  0
 18 53  1  0
 18 54  1  0
 19 55  1  0
 23 56  1  0
 28 57  1  0
 28 58  1  0
 30 59  1  0
 31 60  1  0
 32 61  1  0
 35 62  1  0
 38 63  1  0
 38 64  1  0
 39 65  1  0
 39 66  1  0
M  END
>  <Binding energies>  (1) 
[-10.78]

>  <Ligand effiencies>  (1) 
[-0.26949999999999996]

>  <Interactions>  (1) 
["V-B:TYR:539:CD2:9845, V-B:ASP:366:CG:8184, V-B:TYR:539:CE2:9847, V-B:TYR:539:C:9838, V-B:PRO:540:CD:9858, V-B:PRO:540:N:9855, V-A:ILE:369:CG2:3236, V-B:PRO:540:CB:9856, H-B:TYR:531:OH:9766, V-B:PRO:540:CA:9854, V-B:LEU:363:CD1:8160, V-B:TYR:539:CZ:9848, V-B:ASP:366:CB:8183, V-B:LEU:475:CD1:9229, V-B:TRP:381:CH2:8343, V-A:TYR:539:CD2:4874, V-A:ALA:541:CB:4892, V-B:TRP:381:CZ2:8341, V-B:ILE:369:CD1:8210, V-A:LEU:475:CD2:4258, H-B:TYR:539:OH:9849, V-B:ILE:369:CG2:8208, V-A:TYR:539:CE2:4876, V-A:TYR:539:CZ:4877, V-B:TYR:539:CA:9840, V-B:TYR:539:CD1:9844, V-B:TYR:539:CG:9843, V-B:TYR:539:CE1:9846, V-B:ALA:541:CB:9863, V-B:PRO:540:C:9852, V-B:ALA:541:CA:9861, H-A:TYR:539:OH:4878, V-B:TYR:531:CE1:9763, V-B:TRP:381:CZ3:8342, H-B:ASN:370:N:8215, H-B:ASN:370:ND2:8219"]

$$$$
RR27_Rahimova_2017-again1
     RDKit          3D

 66 71  0  0  0  0  0  0  0  0999 V2000
  129.1750  125.3480   57.0780 O   0  0  0  0  0  0  0  0  0  0  0  0
  128.9780  125.4040   58.2960 C   0  0  0  0  0  0  0  0  0  0  0  0
  128.0670  124.3190   58.9450 C   0  0  0  0  0  0  0  0  0  0  0  0
  128.8710  123.2640   59.7270 C   0  0  0  0  0  0  0  0  0  0  0  0
  128.2650  122.1270   60.2850 C   0  0  0  0  0  0  0  0  0  0  0  0
  129.0260  121.1950   60.9830 C   0  0  0  0  0  0  0  0  0  0  0  0
  130.3960  121.3920   61.1300 C   0  0  0  0  0  0  0  0  0  0  0  0
  131.0120  122.5130   60.5820 C   0  0  0  0  0  0  0  0  0  0  0  0
  130.2510  123.4460   59.8830 C   0  0  0  0  0  0  0  0  0  0  0  0
  127.0740  123.7170   57.9330 C   0  0  0  0  0  0  0  0  0  0  0  0
  125.7390  124.1430   57.8740 C   0  0  0  0  0  0  0  0  0  0  0  0
  124.8550  123.5690   56.9640 C   0  0  0  0  0  0  0  0  0  0  0  0
  125.3020  122.5670   56.1060 C   0  0  0  0  0  0  0  0  0  0  0  0
  126.6230  122.1320   56.1540 C   0  0  0  0  0  0  0  0  0  0  0  0
  127.5060  122.7010   57.0690 C   0  0  0  0  0  0  0  0  0  0  0  0
  129.6630  126.2840   59.0830 N   0  0  0  0  0  0  0  0  0  0  0  0
  129.2910  126.5990   60.4690 C   0  0  0  0  0  0  0  0  0  0  0  0
  128.2200  127.7150   60.4260 C   0  0  0  0  0  0  0  0  0  0  0  0
  128.5020  128.8870   59.4290 C   0  0  0  0  0  0  0  0  0  0  0  0
  127.2330  129.6040   58.9560 C   0  0  0  0  0  0  0  0  0  0  0  0
  126.4780  130.2340   59.8010 N   0  0  0  0  0  0  0  0  0  0  0  0
  125.3740  130.8290   59.2700 C   0  0  0  0  0  0  0  0  0  0  0  0
  124.9940  130.8160   57.9370 C   0  0  0  0  0  0  0  0  0  0  0  0
  123.8650  131.4820   57.7730 N   0  0  0  0  0  0  0  0  0  0  0  0
  123.4760  131.9570   59.0220 N   0  0  0  0  0  0  0  0  0  0  0  0
  124.4090  131.5660   59.9060 N   0  0  0  0  0  0  0  0  0  0  0  0
  124.2820  131.8890   61.3220 C   0  0  0  0  0  0  0  0  0  0  0  0
  124.5020  133.3630   61.6260 C   0  0  0  0  0  0  0  0  0  0  0  0
  123.4560  134.1380   62.1380 C   0  0  0  0  0  0  0  0  0  0  0  0
  123.6520  135.4930   62.4090 C   0  0  0  0  0  0  0  0  0  0  0  0
  124.8950  136.0790   62.1730 C   0  0  0  0  0  0  0  0  0  0  0  0
  125.9440  135.3100   61.6670 C   0  0  0  0  0  0  0  0  0  0  0  0
  127.4810  136.0370   61.3710 Cl  0  0  0  0  0  0  0  0  0  0  0  0
  125.7490  133.9550   61.3970 C   0  0  0  0  0  0  0  0  0  0  0  0
  125.8320  130.1170   56.9620 C   0  0  0  0  0  0  0  0  0  0  0  0
  125.6640  130.0000   55.7500 O   0  0  0  0  0  0  0  0  0  0  0  0
  126.9190  129.5580   57.6010 N   0  0  0  0  0  0  0  0  0  0  0  0
  129.4730  128.5650   58.2500 C   0  0  0  0  0  0  0  0  0  0  0  0
  130.4360  127.3720   58.4660 C   0  0  0  0  0  0  0  0  0  0  0  0
  127.4495  124.8264   59.7008 H   0  0  0  0  0  0  0  0  0  0  0  0
  127.1821  121.9723   60.1695 H   0  0  0  0  0  0  0  0  0  0  0  0
  128.5467  120.3053   61.4173 H   0  0  0  0  0  0  0  0  0  0  0  0
  130.9967  120.6555   61.6839 H   0  0  0  0  0  0  0  0  0  0  0  0
  132.0955  122.6613   60.7006 H   0  0  0  0  0  0  0  0  0  0  0  0
  130.7371  124.3327   59.4500 H   0  0  0  0  0  0  0  0  0  0  0  0
  125.3880  124.9357   58.5510 H   0  0  0  0  0  0  0  0  0  0  0  0
  123.8085  123.9054   56.9229 H   0  0  0  0  0  0  0  0  0  0  0  0
  124.6050  122.1158   55.3845 H   0  0  0  0  0  0  0  0  0  0  0  0
  126.9688  121.3415   55.4717 H   0  0  0  0  0  0  0  0  0  0  0  0
  128.5479  122.3512   57.1138 H   0  0  0  0  0  0  0  0  0  0  0  0
  128.8802  125.7041   60.9594 H   0  0  0  0  0  0  0  0  0  0  0  0
  130.1715  126.9314   61.0384 H   0  0  0  0  0  0  0  0  0  0  0  0
  127.2622  127.2537   60.1433 H   0  0  0  0  0  0  0  0  0  0  0  0
  128.2180  128.1678   61.4285 H   0  0  0  0  0  0  0  0  0  0  0  0
  129.0654  129.5980   60.0511 H   0  0  0  0  0  0  0  0  0  0  0  0
  123.2707  131.6114   61.6539 H   0  0  0  0  0  0  0  0  0  0  0  0
  125.0627  131.3268   61.8552 H   0  0  0  0  0  0  0  0  0  0  0  0
  122.4751  133.6777   62.3278 H   0  0  0  0  0  0  0  0  0  0  0  0
  122.8256  136.0989   62.8089 H   0  0  0  0  0  0  0  0  0  0  0  0
  125.0488  137.1472   62.3856 H   0  0  0  0  0  0  0  0  0  0  0  0
  126.5787  133.3499   61.0026 H   0  0  0  0  0  0  0  0  0  0  0  0
  127.5510  129.0530   56.9970 H   0  0  0  0  0  0  0  0  0  0  0  0
  128.8620  128.3469   57.3616 H   0  0  0  0  0  0  0  0  0  0  0  0
  130.1180  129.4503   58.1487 H   0  0  0  0  0  0  0  0  0  0  0  0
  130.8454  127.0406   57.5003 H   0  0  0  0  0  0  0  0  0  0  0  0
  131.2757  127.6651   59.1133 H   0  0  0  0  0  0  0  0  0  0  0  0
  1  2  2  0
  2  3  1  0
  3  4  1  0
  4  5  2  0
  5  6  1  0
  6  7  2  0
  7  8  1  0
  8  9  2  0
  3 10  1  0
 10 11  2  0
 11 12  1  0
 12 13  2  0
 13 14  1  0
 14 15  2  0
  2 16  1  0
 16 17  1  0
 17 18  1  0
 18 19  1  0
 19 20  1  0
 20 21  2  0
 21 22  1  0
 22 23  2  0
 23 24  1  0
 24 25  2  0
 25 26  1  0
 26 27  1  0
 27 28  1  0
 28 29  2  0
 29 30  1  0
 30 31  2  0
 31 32  1  0
 32 33  1  0
 32 34  2  0
 23 35  1  0
 35 36  2  0
 35 37  1  0
 19 38  1  0
 38 39  1  0
  9  4  1  0
 15 10  1  0
 39 16  1  0
 37 20  1  0
 26 22  1  0
 34 28  1  0
  3 40  1  0
  5 41  1  0
  6 42  1  0
  7 43  1  0
  8 44  1  0
  9 45  1  0
 11 46  1  0
 12 47  1  0
 13 48  1  0
 14 49  1  0
 15 50  1  0
 17 51  1  0
 17 52  1  0
 18 53  1  0
 18 54  1  0
 19 55  1  0
 27 56  1  0
 27 57  1  0
 29 58  1  0
 30 59  1  0
 31 60  1  0
 34 61  1  0
 37 62  1  0
 38 63  1  0
 38 64  1  0
 39 65  1  0
 39 66  1  0
M  END
>  <Binding energies>  (1) 
[-11.29]

>  <Ligand effiencies>  (1) 
[-0.28225]

>  <Interactions>  (1) 
["V-B:TYR:539:CD2:9845, V-B:MET:535:CE:9806, V-B:ASP:366:CG:8184, V-B:TYR:539:CE2:9847, V-B:TYR:539:C:9838, V-B:PRO:540:CD:9858, V-B:PRO:540:N:9855, V-B:PRO:540:CB:9856, H-B:TYR:531:OH:9766, V-B:PRO:540:CA:9854, V-B:LEU:363:CD1:8160, V-B:TYR:539:CZ:9848, V-B:TYR:531:CZ:9765, V-B:ASP:366:CB:8183, V-B:LEU:475:CD1:9229, V-B:TRP:381:CH2:8343, V-A:TYR:539:CD2:4874, V-A:ALA:541:CB:4892, V-B:PRO:482:CG:9298, V-B:TRP:381:CZ2:8341, V-B:ILE:369:CD1:8210, H-B:TYR:539:OH:9849, V-B:ILE:369:CG2:8208, V-A:TYR:539:CE2:4876, V-B:TYR:539:CA:9840, V-B:TYR:539:CD1:9844, V-B:TYR:539:CG:9843, V-B:TYR:539:CE1:9846, V-B:ALA:541:CB:9863, V-B:PRO:540:C:9852, V-B:ALA:541:CA:9861, H-A:TYR:539:OH:4878, V-B:TYR:531:CE1:9763, V-B:SER:385:CA:8378, V-B:SER:385:C:8376"]

$$$$
RR28_Rahimova_2017
     RDKit          3D

 82 85  0  0  0  0  0  0  0  0999 V2000
  133.2570  132.3680   61.7780 C   0  0  0  0  0  0  0  0  0  0  0  0
  131.8470  131.7940   61.6980 C   0  0  0  0  0  0  0  0  0  0  0  0
  130.9430  132.3110   62.3510 O   0  0  0  0  0  0  0  0  0  0  0  0
  131.6820  130.7250   60.8930 N   0  0  0  0  0  0  0  0  0  0  0  0
  130.4420  129.9610   60.6280 C   0  0  0  0  0  0  0  0  0  0  0  0
  130.1670  129.0390   61.8510 C   0  0  0  0  0  0  0  0  0  0  0  0
  131.0240  127.9570   62.1030 C   0  0  0  0  0  0  0  0  0  0  0  0
  130.8070  127.1090   63.1850 C   0  0  0  0  0  0  0  0  0  0  0  0
  129.7250  127.3240   64.0410 C   0  0  0  0  0  0  0  0  0  0  0  0
  129.5000  126.3800   65.2210 C   0  0  0  0  0  0  0  0  0  0  0  0
  129.0040  125.2010   64.8390 F   0  0  0  0  0  0  0  0  0  0  0  0
  130.6480  126.1560   65.8610 F   0  0  0  0  0  0  0  0  0  0  0  0
  128.6370  126.9390   66.0700 F   0  0  0  0  0  0  0  0  0  0  0  0
  128.8640  128.3970   63.8000 C   0  0  0  0  0  0  0  0  0  0  0  0
  129.0820  129.2450   62.7170 C   0  0  0  0  0  0  0  0  0  0  0  0
  130.5530  129.1870   59.2660 C   0  0  0  0  0  0  0  0  0  0  0  0
  130.6370  130.1230   58.0340 C   0  0  0  0  0  0  0  0  0  0  0  0
  129.4190  130.9490   58.0540 N   0  0  0  0  0  0  0  0  0  0  0  0
  128.3160  130.5650   57.3530 C   0  0  0  0  0  0  0  0  0  0  0  0
  128.3430  129.6260   56.5550 O   0  0  0  0  0  0  0  0  0  0  0  0
  127.0380  131.4330   57.4370 C   0  0  0  0  0  0  0  0  0  0  0  0
  125.6910  130.6770   57.2680 C   0  0  0  0  0  0  0  0  0  0  0  0
  124.5380  131.1820   58.1670 C   0  0  0  0  0  0  0  0  0  0  0  0
  123.6620  131.8790   57.6470 O   0  0  0  0  0  0  0  0  0  0  0  0
  124.4410  130.7410   59.4530 N   0  0  0  0  0  0  0  0  0  0  0  0
  125.5750  130.1910   60.2060 C   0  0  0  0  0  0  0  0  0  0  0  0
  126.3200  131.3950   60.8240 C   0  0  0  0  0  0  0  0  0  0  0  0
  125.4340  132.3190   61.7310 C   0  0  0  0  0  0  0  0  0  0  0  0
  126.1240  133.6120   61.9250 N   0  0  0  0  0  0  0  0  0  0  0  0
  127.0180  134.2080   61.1100 C   0  0  0  0  0  0  0  0  0  0  0  0
  127.5800  135.5440   61.5860 C   0  0  0  0  0  0  0  0  0  0  0  0
  127.3910  133.7400   60.0350 O   0  0  0  0  0  0  0  0  0  0  0  0
  125.3200  131.6310   63.1300 C   0  0  0  0  0  0  0  0  0  0  0  0
  126.1700  131.9440   64.2040 C   0  0  0  0  0  0  0  0  0  0  0  0
  126.0340  131.3080   65.4350 C   0  0  0  0  0  0  0  0  0  0  0  0
  125.0450  130.3400   65.6230 C   0  0  0  0  0  0  0  0  0  0  0  0
  124.8810  129.6360   66.9700 C   0  0  0  0  0  0  0  0  0  0  0  0
  123.9520  130.2460   67.7090 F   0  0  0  0  0  0  0  0  0  0  0  0
  124.4990  128.3770   66.7610 F   0  0  0  0  0  0  0  0  0  0  0  0
  126.0160  129.6190   67.6710 F   0  0  0  0  0  0  0  0  0  0  0  0
  124.1990  130.0120   64.5640 C   0  0  0  0  0  0  0  0  0  0  0  0
  124.3370  130.6490   63.3350 C   0  0  0  0  0  0  0  0  0  0  0  0
  124.0380  132.5390   61.0310 C   0  0  0  0  0  0  0  0  0  0  0  0
  123.4140  131.2930   60.3460 C   0  0  0  0  0  0  0  0  0  0  0  0
  129.3480  131.8540   59.2090 C   0  0  0  0  0  0  0  0  0  0  0  0
  129.2540  130.9670   60.4780 C   0  0  0  0  0  0  0  0  0  0  0  0
  133.5457  132.4855   62.8329 H   0  0  0  0  0  0  0  0  0  0  0  0
  133.9600  131.6845   61.2794 H   0  0  0  0  0  0  0  0  0  0  0  0
  133.2827  133.3482   61.2794 H   0  0  0  0  0  0  0  0  0  0  0  0
  132.5030  130.3740   60.4230 H   0  0  0  0  0  0  0  0  0  0  0  0
  131.8797  127.7764   61.4358 H   0  0  0  0  0  0  0  0  0  0  0  0
  131.4903  126.2663   63.3665 H   0  0  0  0  0  0  0  0  0  0  0  0
  128.0090  128.5732   64.4693 H   0  0  0  0  0  0  0  0  0  0  0  0
  128.3958  130.0860   62.5383 H   0  0  0  0  0  0  0  0  0  0  0  0
  131.4580  128.5623   59.2922 H   0  0  0  0  0  0  0  0  0  0  0  0
  129.6378  128.5865   59.1571 H   0  0  0  0  0  0  0  0  0  0  0  0
  131.5303  130.7613   58.1017 H   0  0  0  0  0  0  0  0  0  0  0  0
  130.7117  129.5464   57.1002 H   0  0  0  0  0  0  0  0  0  0  0  0
  127.0279  131.9233   58.4216 H   0  0  0  0  0  0  0  0  0  0  0  0
  127.0960  132.1306   56.5884 H   0  0  0  0  0  0  0  0  0  0  0  0
  125.3739  130.7760   56.2194 H   0  0  0  0  0  0  0  0  0  0  0  0
  125.8831  129.6372   57.5713 H   0  0  0  0  0  0  0  0  0  0  0  0
  125.2141  129.5201   60.9995 H   0  0  0  0  0  0  0  0  0  0  0  0
  126.2392  129.6066   59.5523 H   0  0  0  0  0  0  0  0  0  0  0  0
  127.1488  131.0081   61.4351 H   0  0  0  0  0  0  0  0  0  0  0  0
  126.6570  132.0173   59.9819 H   0  0  0  0  0  0  0  0  0  0  0  0
  125.9180  134.0750   62.7970 H   0  0  0  0  0  0  0  0  0  0  0  0
  127.5896  135.5668   62.6857 H   0  0  0  0  0  0  0  0  0  0  0  0
  128.6057  135.6660   61.2077 H   0  0  0  0  0  0  0  0  0  0  0  0
  126.9499  136.3625   61.2077 H   0  0  0  0  0  0  0  0  0  0  0  0
  126.9548  132.7030   64.0702 H   0  0  0  0  0  0  0  0  0  0  0  0
  126.7088  131.5692   66.2635 H   0  0  0  0  0  0  0  0  0  0  0  0
  123.4202  129.2473   64.7009 H   0  0  0  0  0  0  0  0  0  0  0  0
  123.6636  130.3785   62.5083 H   0  0  0  0  0  0  0  0  0  0  0  0
  123.3304  132.8919   61.7957 H   0  0  0  0  0  0  0  0  0  0  0  0
  124.2236  133.2598   60.2211 H   0  0  0  0  0  0  0  0  0  0  0  0
  123.1298  130.5472   61.1030 H   0  0  0  0  0  0  0  0  0  0  0  0
  122.5072  131.5635   59.7851 H   0  0  0  0  0  0  0  0  0  0  0  0
  130.2506  132.4812   59.2530 H   0  0  0  0  0  0  0  0  0  0  0  0
  128.4762  132.5203   59.1314 H   0  0  0  0  0  0  0  0  0  0  0  0
  129.2404  131.6232   61.3607 H   0  0  0  0  0  0  0  0  0  0  0  0
  128.3349  130.3696   60.3867 H   0  0  0  0  0  0  0  0  0  0  0  0
  1  2  1  0
  2  3  2  0
  2  4  1  0
  4  5  1  0
  5  6  1  0
  6  7  2  0
  7  8  1  0
  8  9  2  0
  9 10  1  0
 10 11  1  0
 10 12  1  0
 10 13  1  0
  9 14  1  0
 14 15  2  0
  5 16  1  0
 16 17  1  0
 17 18  1  0
 18 19  1  0
 19 20  2  0
 19 21  1  0
 21 22  1  0
 22 23  1  0
 23 24  2  0
 23 25  1  0
 25 26  1  0
 26 27  1  0
 27 28  1  0
 28 29  1  0
 29 30  1  0
 30 31  1  0
 30 32  2  0
 28 33  1  0
 33 34  2  0
 34 35  1  0
 35 36  2  0
 36 37  1  0
 37 38  1  0
 37 39  1  0
 37 40  1  0
 36 41  1  0
 41 42  2  0
 28 43  1  0
 43 44  1  0
 18 45  1  0
 45 46  1  0
 46  5  1  0
 15  6  1  0
 44 25  1  0
 42 33  1  0
  1 47  1  0
  1 48  1  0
  1 49  1  0
  4 50  1  0
  7 51  1  0
  8 52  1  0
 14 53  1  0
 15 54  1  0
 16 55  1  0
 16 56  1  0
 17 57  1  0
 17 58  1  0
 21 59  1  0
 21 60  1  0
 22 61  1  0
 22 62  1  0
 26 63  1  0
 26 64  1  0
 27 65  1  0
 27 66  1  0
 29 67  1  0
 31 68  1  0
 31 69  1  0
 31 70  1  0
 34 71  1  0
 35 72  1  0
 41 73  1  0
 42 74  1  0
 43 75  1  0
 43 76  1  0
 44 77  1  0
 44 78  1  0
 45 79  1  0
 45 80  1  0
 46 81  1  0
 46 82  1  0
M  END
>  <Binding energies>  (1) 
[-9.12]

>  <Ligand effiencies>  (1) 
[-0.18999999999999997]

>  <Interactions>  (1) 
["V-B:ASP:366:CG:8184, V-A:ASP:366:CG:3212, V-B:ASP:366:CB:8183, V-A:GLU:543:CD:4908, V-B:LEU:475:CD1:9229, V-A:PRO:540:CB:4885, V-A:TYR:539:CD2:4874, V-A:ALA:541:CB:4892, H-A:ALA:541:N:4891, V-A:PRO:540:CA:4883, V-B:ILE:369:CD1:8210, V-B:GLU:543:CD:9879, V-B:HIS:456:CE1:9041, V-B:GLY:454:CA:9020, V-B:GLU:543:CG:9878, V-B:GLU:543:CB:9877, V-B:ILE:369:CG2:8208, V-A:TYR:539:CE2:4876, V-A:TYR:539:CZ:4877, V-B:ASP:366:CA:8181, V-B:ARG:545:CZ:9897, V-B:TYR:484:CZ:9318, V-A:MET:535:CE:4835, H-A:TYR:539:OH:4878, V-B:ARG:545:CG:9893, V-B:ILE:369:CB:8207, V-B:ARG:545:CD:9894, H-A:ASP:366:OD2:3214, V-A:PRO:540:C:4881, H-B:ASN:370:N:8215, V-A:ASN:362:CB:3175, V-B:ILE:455:C:9023, V-B:ARG:545:CB:9892, V-B:GLY:454:C:9018, V-B:ILE:455:CA:9025"]

$$$$
RR29_Rahimova_2017
     RDKit          3D

 35 36  0  0  0  0  0  0  0  0999 V2000
  128.5630  121.4560   60.6310 C   0  0  0  0  0  0  0  0  0  0  0  0
  128.2960  122.9090   60.9940 C   0  0  0  0  0  0  0  0  0  0  0  0
  129.4410  123.8560   60.5720 C   0  0  0  0  0  0  0  0  0  0  0  0
  129.7880  123.7020   59.0770 C   0  0  0  0  0  0  0  0  0  0  0  0
  128.5550  123.7730   58.1880 C   0  0  0  0  0  0  0  0  0  0  0  0
  128.0640  125.0250   57.7660 C   0  0  0  0  0  0  0  0  0  0  0  0
  126.9300  125.1130   56.9460 C   0  0  0  0  0  0  0  0  0  0  0  0
  126.3080  123.9260   56.5790 C   0  0  0  0  0  0  0  0  0  0  0  0
  126.7780  122.7100   56.9880 C   0  0  0  0  0  0  0  0  0  0  0  0
  127.9060  122.5910   57.7920 C   0  0  0  0  0  0  0  0  0  0  0  0
  126.0030  121.7270   56.4580 O   0  0  0  0  0  0  0  0  0  0  0  0
  124.9050  122.3810   55.8790 C   0  0  0  0  0  0  0  0  0  0  0  0
  125.2240  123.7430   55.7800 O   0  0  0  0  0  0  0  0  0  0  0  0
  127.2030  123.2000   61.5970 N   0  0  0  0  0  0  0  0  0  0  0  0
  126.9970  124.5000   62.0030 N   0  0  0  0  0  0  0  0  0  0  0  0
  126.4260  125.4450   61.2390 C   0  0  0  0  0  0  0  0  0  0  0  0
  125.9680  125.2500   60.0010 N   0  0  0  0  0  0  0  0  0  0  0  0
  126.3070  126.6620   61.7490 N   0  0  0  0  0  0  0  0  0  0  0  0
  128.6721  120.8624   61.5506 H   0  0  0  0  0  0  0  0  0  0  0  0
  127.7216  121.0652   60.0399 H   0  0  0  0  0  0  0  0  0  0  0  0
  129.4883  121.3898   60.0399 H   0  0  0  0  0  0  0  0  0  0  0  0
  129.1323  124.8947   60.7610 H   0  0  0  0  0  0  0  0  0  0  0  0
  130.3341  123.5967   61.1595 H   0  0  0  0  0  0  0  0  0  0  0  0
  130.4786  124.5084   58.7892 H   0  0  0  0  0  0  0  0  0  0  0  0
  130.2466  122.7119   58.9381 H   0  0  0  0  0  0  0  0  0  0  0  0
  128.5769  125.9447   58.0840 H   0  0  0  0  0  0  0  0  0  0  0  0
  126.5468  126.0863   56.6057 H   0  0  0  0  0  0  0  0  0  0  0  0
  128.2779  121.6050   58.1075 H   0  0  0  0  0  0  0  0  0  0  0  0
  124.7082  121.9686   54.8784 H   0  0  0  0  0  0  0  0  0  0  0  0
  124.0041  122.2399   56.4942 H   0  0  0  0  0  0  0  0  0  0  0  0
  127.3280  124.7450   62.9260 H   0  0  0  0  0  0  0  0  0  0  0  0
  125.2870  125.8830   59.6060 H   0  0  0  0  0  0  0  0  0  0  0  0
  126.2990  124.4600   59.4680 H   0  0  0  0  0  0  0  0  0  0  0  0
  126.8990  126.9490   62.5150 H   0  0  0  0  0  0  0  0  0  0  0  0
  125.6280  127.3040   61.3660 H   0  0  0  0  0  0  0  0  0  0  0  0
  1  2  1  0
  2  3  1  0
  3  4  1  0
  4  5  1  0
  5  6  2  0
  6  7  1  0
  7  8  2  0
  8  9  1  0
  9 10  2  0
  9 11  1  0
 11 12  1  0
 12 13  1  0
  2 14  2  0
 14 15  1  0
 15 16  1  0
 16 17  1  0
 16 18  2  0
 10  5  1  0
 13  8  1  0
  1 19  1  0
  1 20  1  0
  1 21  1  0
  3 22  1  0
  3 23  1  0
  4 24  1  0
  4 25  1  0
  6 26  1  0
  7 27  1  0
 10 28  1  0
 12 29  1  0
 12 30  1  0
 15 31  1  0
 17 32  1  0
 17 33  1  0
 18 34  1  0
 18 35  1  0
M  CHG  1  18   1
M  END
>  <Binding energies>  (1) 
[-7.65]

>  <Ligand effiencies>  (1) 
[-0.33260869565217394]

>  <Interactions>  (1) 
["V-B:TYR:539:CD2:9845, V-B:MET:535:CE:9806, V-B:ASP:366:CG:8184, V-B:TYR:539:CE2:9847, V-B:TYR:539:C:9838, V-B:PRO:540:CD:9858, H-B:ASP:366:OD2:8186, V-B:PRO:540:N:9855, V-B:PRO:540:CA:9854, V-B:LEU:363:CD1:8160, V-B:TYR:539:CZ:9848, H-B:GLU:543:OE2:9881, H-B:ALA:541:N:9862, V-B:GLU:543:CD:9879, V-B:TYR:539:CD1:9844, V-B:TYR:539:CG:9843, V-B:TYR:539:CE1:9846, V-B:ALA:541:CB:9863, H-B:TYR:539:N:9841, V-B:PRO:540:C:9852, V-B:ALA:541:CA:9861, V-B:ILE:538:CD1:9836, V-B:ILE:538:CG2:9834, H-B:ASP:366:OD1:8185"]

$$$$
RR29_Rahimova_2017-again1
     RDKit          3D

 34 35  0  0  0  0  0  0  0  0999 V2000
  129.4610  122.8470   62.8980 C   0  0  0  0  0  0  0  0  0  0  0  0
  128.3870  122.8830   61.8210 C   0  0  0  0  0  0  0  0  0  0  0  0
  128.9150  122.5340   60.4160 C   0  0  0  0  0  0  0  0  0  0  0  0
  129.0290  123.7900   59.5260 C   0  0  0  0  0  0  0  0  0  0  0  0
  128.3230  123.6150   58.1900 C   0  0  0  0  0  0  0  0  0  0  0  0
  128.7050  124.4020   57.0860 C   0  0  0  0  0  0  0  0  0  0  0  0
  128.0690  124.2570   55.8440 C   0  0  0  0  0  0  0  0  0  0  0  0
  127.0470  123.3190   55.7510 C   0  0  0  0  0  0  0  0  0  0  0  0
  126.6700  122.5550   56.8200 C   0  0  0  0  0  0  0  0  0  0  0  0
  127.2900  122.6710   58.0590 C   0  0  0  0  0  0  0  0  0  0  0  0
  125.6790  121.7070   56.4390 O   0  0  0  0  0  0  0  0  0  0  0  0
  125.3020  122.1200   55.1530 C   0  0  0  0  0  0  0  0  0  0  0  0
  126.3040  122.9730   54.6680 O   0  0  0  0  0  0  0  0  0  0  0  0
  127.1850  123.2050   62.1450 N   0  0  0  0  0  0  0  0  0  0  0  0
  126.3070  123.2520   61.1950 N   0  0  0  0  0  0  0  0  0  0  0  0
  125.7600  124.3870   60.9530 C   0  0  0  0  0  0  0  0  0  0  0  0
  125.9910  125.6290   61.6080 N   0  0  0  0  0  0  0  0  0  0  0  0
  124.7970  124.5330   59.9320 N   0  0  0  0  0  0  0  0  0  0  0  0
  128.9861  122.8629   63.8901 H   0  0  0  0  0  0  0  0  0  0  0  0
  130.0566  121.9284   62.7913 H   0  0  0  0  0  0  0  0  0  0  0  0
  130.1168  123.7237   62.7913 H   0  0  0  0  0  0  0  0  0  0  0  0
  129.9090  122.0727   60.5122 H   0  0  0  0  0  0  0  0  0  0  0  0
  128.2049  121.8395   59.9433 H   0  0  0  0  0  0  0  0  0  0  0  0
  128.5776  124.6417   60.0561 H   0  0  0  0  0  0  0  0  0  0  0  0
  130.0961  123.9639   59.3232 H   0  0  0  0  0  0  0  0  0  0  0  0
  129.5127  125.1401   57.1992 H   0  0  0  0  0  0  0  0  0  0  0  0
  128.3678  124.8630   54.9759 H   0  0  0  0  0  0  0  0  0  0  0  0
  126.9821  122.0444   58.9090 H   0  0  0  0  0  0  0  0  0  0  0  0
  125.2025  121.2457   54.4929 H   0  0  0  0  0  0  0  0  0  0  0  0
  124.3340  122.6416   55.1843 H   0  0  0  0  0  0  0  0  0  0  0  0
  126.6460  125.7180   62.3730 H   0  0  0  0  0  0  0  0  0  0  0  0
  125.5070  126.4760   61.3520 H   0  0  0  0  0  0  0  0  0  0  0  0
  124.5000  123.7560   59.3600 H   0  0  0  0  0  0  0  0  0  0  0  0
  124.3510  125.4150   59.7290 H   0  0  0  0  0  0  0  0  0  0  0  0
  1  2  1  0
  2  3  1  0
  3  4  1  0
  4  5  1  0
  5  6  2  0
  6  7  1  0
  7  8  2  0
  8  9  1  0
  9 10  2  0
  9 11  1  0
 11 12  1  0
 12 13  1  0
  2 14  2  0
 14 15  1  0
 15 16  2  0
 16 17  1  0
 16 18  1  0
 10  5  1  0
 13  8  1  0
  1 19  1  0
  1 20  1  0
  1 21  1  0
  3 22  1  0
  3 23  1  0
  4 24  1  0
  4 25  1  0
  6 26  1  0
  7 27  1  0
 10 28  1  0
 12 29  1  0
 12 30  1  0
 17 31  1  0
 17 32  1  0
 18 33  1  0
 18 34  1  0
M  END
>  <Binding energies>  (1) 
[-7.3]

>  <Ligand effiencies>  (1) 
[-0.3318181818181818]

>  <Interactions>  (1) 
["V-B:MET:535:CE:9806, V-B:ASP:366:CG:8184, V-B:TYR:539:CE2:9847, V-B:TYR:539:C:9838, V-B:PRO:540:CD:9858, H-B:ASP:366:OD2:8186, V-B:PRO:540:N:9855, V-B:PRO:540:CB:9856, V-B:PRO:540:CA:9854, V-B:LEU:363:CD1:8160, V-B:TYR:539:CZ:9848, H-B:GLU:543:OE2:9881, H-B:ALA:541:N:9862, V-B:GLU:543:CD:9879, V-B:TYR:539:CD1:9844, V-B:TYR:539:CE1:9846, V-B:ALA:541:CB:9863, H-B:TYR:539:N:9841, V-B:ILE:538:CA:9831, V-B:ILE:538:C:9829, V-B:ILE:538:CD1:9836, V-B:ILE:538:CG2:9834, V-B:ILE:538:CB:9833, H-B:ASN:362:O:8144"]

$$$$
RR2_Rahimova_2017
     RDKit          3D

 76 80  0  0  0  0  0  0  0  0999 V2000
  123.6020  130.4590   63.2360 C   0  0  0  0  0  0  0  0  0  0  0  0
  123.0670  131.0520   62.0580 O   0  0  0  0  0  0  0  0  0  0  0  0
  123.8330  131.0740   60.9070 C   0  0  0  0  0  0  0  0  0  0  0  0
  123.3710  131.5120   59.6580 C   0  0  0  0  0  0  0  0  0  0  0  0
  124.2150  131.4950   58.5520 C   0  0  0  0  0  0  0  0  0  0  0  0
  125.5360  131.0390   58.6650 C   0  0  0  0  0  0  0  0  0  0  0  0
  126.4330  131.0240   57.4420 C   0  0  0  0  0  0  0  0  0  0  0  0
  126.3620  130.0960   56.6290 O   0  0  0  0  0  0  0  0  0  0  0  0
  127.2920  132.0640   57.3280 N   0  0  0  0  0  0  0  0  0  0  0  0
  128.2010  132.0520   56.2750 N   0  0  0  0  0  0  0  0  0  0  0  0
  129.2750  132.8630   56.3510 C   0  0  0  0  0  0  0  0  0  0  0  0
  129.4310  133.7490   57.1960 O   0  0  0  0  0  0  0  0  0  0  0  0
  130.3670  132.6130   55.3030 C   0  0  0  0  0  0  0  0  0  0  0  0
  131.6200  131.3630   55.7720 S   0  0  0  0  0  0  0  0  0  0  0  0
  130.5780  130.0060   56.2120 C   0  0  0  0  0  0  0  0  0  0  0  0
  130.1020  129.1590   55.3350 N   0  0  0  0  0  0  0  0  0  0  0  0
  129.2730  128.2770   56.0140 N   0  0  0  0  0  0  0  0  0  0  0  0
  129.3020  128.6070   57.2830 C   0  0  0  0  0  0  0  0  0  0  0  0
  128.5430  127.8720   58.3410 C   0  0  0  0  0  0  0  0  0  0  0  0
  127.1670  127.6760   58.1980 C   0  0  0  0  0  0  0  0  0  0  0  0
  126.4500  127.0000   59.1800 C   0  0  0  0  0  0  0  0  0  0  0  0
  127.1070  126.4990   60.3100 C   0  0  0  0  0  0  0  0  0  0  0  0
  126.4340  125.8200   61.3370 N   0  0  0  0  0  0  0  0  0  0  0  0
  125.6950  124.2110   61.1710 S   0  0  0  0  0  0  0  0  0  0  0  0
  124.2580  124.4020   61.4020 O   0  0  0  0  0  0  0  0  0  0  0  0
  126.4690  123.2680   61.9870 O   0  0  0  0  0  0  0  0  0  0  0  0
  125.8880  123.7820   59.4430 C   0  0  0  0  0  0  0  0  0  0  0  0
  124.8410  123.9790   58.5400 C   0  0  0  0  0  0  0  0  0  0  0  0
  125.0070  123.6240   57.2040 C   0  0  0  0  0  0  0  0  0  0  0  0
  126.2170  123.0790   56.7710 C   0  0  0  0  0  0  0  0  0  0  0  0
  126.3900  122.6790   55.3170 C   0  0  0  0  0  0  0  0  0  0  0  0
  127.2610  122.8790   57.6780 C   0  0  0  0  0  0  0  0  0  0  0  0
  127.0970  123.2320   59.0140 C   0  0  0  0  0  0  0  0  0  0  0  0
  128.4810  126.6930   60.4500 C   0  0  0  0  0  0  0  0  0  0  0  0
  129.1980  127.3740   59.4710 C   0  0  0  0  0  0  0  0  0  0  0  0
  130.1160  129.7100   57.4810 N   0  0  0  0  0  0  0  0  0  0  0  0
  130.3800  130.4000   58.6820 C   0  0  0  0  0  0  0  0  0  0  0  0
  129.3280  130.7580   59.5260 C   0  0  0  0  0  0  0  0  0  0  0  0
  129.5960  131.4350   60.7120 C   0  0  0  0  0  0  0  0  0  0  0  0
  130.9070  131.7610   61.0640 C   0  0  0  0  0  0  0  0  0  0  0  0
  131.0720  132.4350   62.2590 O   0  0  0  0  0  0  0  0  0  0  0  0
  132.2750  132.2500   63.0000 C   0  0  0  0  0  0  0  0  0  0  0  0
  131.9590  131.3980   60.2080 C   0  0  0  0  0  0  0  0  0  0  0  0
  131.6970  130.7190   59.0220 C   0  0  0  0  0  0  0  0  0  0  0  0
  125.9930  130.6080   59.9200 C   0  0  0  0  0  0  0  0  0  0  0  0
  125.1470  130.6270   61.0250 C   0  0  0  0  0  0  0  0  0  0  0  0
  123.1648  130.9436   64.1215 H   0  0  0  0  0  0  0  0  0  0  0  0
  123.3605  129.3859   63.2485 H   0  0  0  0  0  0  0  0  0  0  0  0
  124.6942  130.5892   63.2485 H   0  0  0  0  0  0  0  0  0  0  0  0
  122.3366  131.8707   59.5519 H   0  0  0  0  0  0  0  0  0  0  0  0
  123.8416  131.8433   57.5777 H   0  0  0  0  0  0  0  0  0  0  0  0
  127.6690  132.5290   58.1420 H   0  0  0  0  0  0  0  0  0  0  0  0
  128.1900  131.1900   55.7480 H   0  0  0  0  0  0  0  0  0  0  0  0
  129.8795  132.2761   54.3763 H   0  0  0  0  0  0  0  0  0  0  0  0
  130.9088  133.5638   55.1916 H   0  0  0  0  0  0  0  0  0  0  0  0
  126.6488  128.0575   57.3058 H   0  0  0  0  0  0  0  0  0  0  0  0
  125.3648  126.8589   59.0683 H   0  0  0  0  0  0  0  0  0  0  0  0
  126.3880  126.2650   62.2420 H   0  0  0  0  0  0  0  0  0  0  0  0
  123.8899  124.4125   58.8826 H   0  0  0  0  0  0  0  0  0  0  0  0
  124.1842  123.7731   56.4893 H   0  0  0  0  0  0  0  0  0  0  0  0
  126.8261  121.6706   55.2635 H   0  0  0  0  0  0  0  0  0  0  0  0
  125.4103  122.6817   54.8169 H   0  0  0  0  0  0  0  0  0  0  0  0
  127.0590  123.3948   54.8169 H   0  0  0  0  0  0  0  0  0  0  0  0
  128.2114  122.4430   57.3363 H   0  0  0  0  0  0  0  0  0  0  0  0
  127.9178  123.0780   59.7299 H   0  0  0  0  0  0  0  0  0  0  0  0
  129.0005  126.3057   61.3389 H   0  0  0  0  0  0  0  0  0  0  0  0
  130.2820  127.5207   59.5865 H   0  0  0  0  0  0  0  0  0  0  0  0
  128.2920  130.5063   59.2552 H   0  0  0  0  0  0  0  0  0  0  0  0
  128.7671  131.7159   61.3783 H   0  0  0  0  0  0  0  0  0  0  0  0
  132.0515  132.2844   64.0765 H   0  0  0  0  0  0  0  0  0  0  0  0
  132.7146  131.2737   62.7478 H   0  0  0  0  0  0  0  0  0  0  0  0
  132.9876  133.0491   62.7478 H   0  0  0  0  0  0  0  0  0  0  0  0
  132.9952  131.6516   60.4762 H   0  0  0  0  0  0  0  0  0  0  0  0
  132.5238  130.4344   58.3546 H   0  0  0  0  0  0  0  0  0  0  0  0
  127.0280  130.2524   60.0312 H   0  0  0  0  0  0  0  0  0  0  0  0
  125.5200  130.2854   62.0018 H   0  0  0  0  0  0  0  0  0  0  0  0
  1  2  1  0
  2  3  1  0
  3  4  2  0
  4  5  1  0
  5  6  2  0
  6  7  1  0
  7  8  2  0
  7  9  1  0
  9 10  1  0
 10 11  1  0
 11 12  2  0
 11 13  1  0
 13 14  1  0
 14 15  1  0
 15 16  2  0
 16 17  1  0
 17 18  2  0
 18 19  1  0
 19 20  2  0
 20 21  1  0
 21 22  2  0
 22 23  1  0
 23 24  1  0
 24 25  2  0
 24 26  2  0
 24 27  1  0
 27 28  2  0
 28 29  1  0
 29 30  2  0
 30 31  1  0
 30 32  1  0
 32 33  2  0
 22 34  1  0
 34 35  2  0
 18 36  1  0
 36 37  1  0
 37 38  2  0
 38 39  1  0
 39 40  2  0
 40 41  1  0
 41 42  1  0
 40 43  1  0
 43 44  2  0
  6 45  1  0
 45 46  2  0
 46  3  1  0
 36 15  1  0
 44 37  1  0
 35 19  1  0
 33 27  1  0
  1 47  1  0
  1 48  1  0
  1 49  1  0
  4 50  1  0
  5 51  1  0
  9 52  1  0
 10 53  1  0
 13 54  1  0
 13 55  1  0
 20 56  1  0
 21 57  1  0
 23 58  1  0
 28 59  1  0
 29 60  1  0
 31 61  1  0
 31 62  1  0
 31 63  1  0
 32 64  1  0
 33 65  1  0
 34 66  1  0
 35 67  1  0
 38 68  1  0
 39 69  1  0
 42 70  1  0
 42 71  1  0
 42 72  1  0
 43 73  1  0
 44 74  1  0
 45 75  1  0
 46 76  1  0
M  END
>  <Binding energies>  (1) 
[-10.86]

>  <Ligand effiencies>  (1) 
[-0.22163265306122448]

>  <Interactions>  (1) 
["V-B:MET:535:CE:9806, V-B:ASP:366:CG:8184, V-B:TYR:539:C:9838, H-B:ASP:366:OD2:8186, V-B:PRO:540:N:9855, V-B:PRO:540:CB:9856, H-B:TYR:531:OH:9766, V-B:PRO:540:CA:9854, V-B:LEU:363:CD1:8160, V-B:ASP:366:CB:8183, H-B:GLU:543:OE2:9881, H-B:ALA:541:N:9862, V-A:GLU:543:CD:4908, V-A:PRO:540:CB:4885, V-A:TYR:539:CD2:4874, V-A:ALA:541:CB:4892, H-A:ALA:541:N:4891, V-A:ALA:541:CA:4890, V-A:PRO:540:CA:4883, V-B:ILE:369:CD1:8210, V-B:GLY:453:C:9013, H-B:ARG:545:NH2:9899, V-B:ILE:369:CG2:8208, V-A:TYR:539:CE2:4876, V-A:TYR:539:CZ:4877, V-B:ASP:366:CA:8181, V-B:ASP:366:C:8179, V-B:TYR:539:CD1:9844, V-B:TYR:539:CE1:9846, H-A:TYR:531:OH:4795, V-B:ARG:545:CZ:9897, V-A:TYR:531:CE2:4793, V-A:TYR:531:CZ:4794, V-A:MET:535:CE:4835, V-B:ILE:369:CB:8207, H-A:TYR:539:N:4870, V-A:TYR:539:CG:4872, V-A:ILE:538:CA:4860, V-A:TYR:539:CD1:4873, V-A:ILE:538:CB:4862, V-A:TYR:539:CE1:4875, V-A:ILE:538:CG2:4863, V-A:PRO:540:C:4881, V-A:ALA:541:C:4888, V-B:GLY:453:CA:9015"]

$$$$
RR30_Rahimova_2017
     RDKit          3D

 29 30  0  0  0  0  0  0  0  0999 V2000
  133.8020  131.9620   61.3590 C   0  0  0  0  0  0  0  0  0  0  0  0
  132.5290  131.8340   60.5090 C   0  0  0  0  0  0  0  0  0  0  0  0
  131.2880  132.2420   61.2720 C   0  0  0  0  0  0  0  0  0  0  0  0
  131.0390  132.0980   62.5500 N   0  0  0  0  0  0  0  0  0  0  0  0
  129.7650  132.6220   62.7520 N   0  0  0  0  0  0  0  0  0  0  0  0
  129.3510  133.0290   61.5790 C   0  0  0  0  0  0  0  0  0  0  0  0
  127.8130  133.7990   61.1890 S   0  0  0  0  0  0  0  0  0  0  0  0
  127.0200  132.4560   60.2490 C   0  0  0  0  0  0  0  0  0  0  0  0
  127.7370  132.1750   58.9250 C   0  0  0  0  0  0  0  0  0  0  0  0
  127.4140  131.1870   58.2630 O   0  0  0  0  0  0  0  0  0  0  0  0
  128.7210  133.0400   58.5920 N   0  0  0  0  0  0  0  0  0  0  0  0
  129.5090  132.9920   57.4510 C   0  0  0  0  0  0  0  0  0  0  0  0
  129.3690  133.6730   56.3360 N   0  0  0  0  0  0  0  0  0  0  0  0
  130.3500  133.3630   55.4020 N   0  0  0  0  0  0  0  0  0  0  0  0
  131.2050  132.4610   55.8240 C   0  0  0  0  0  0  0  0  0  0  0  0
  132.3590  131.9570   54.9870 C   0  0  0  0  0  0  0  0  0  0  0  0
  130.8670  131.9100   57.4430 S   0  0  0  0  0  0  0  0  0  0  0  0
  130.2650  132.8240   60.5970 O   0  0  0  0  0  0  0  0  0  0  0  0
  133.5349  131.9351   62.4257 H   0  0  0  0  0  0  0  0  0  0  0  0
  134.4812  131.1276   61.1300 H   0  0  0  0  0  0  0  0  0  0  0  0
  134.3015  132.9149   61.1300 H   0  0  0  0  0  0  0  0  0  0  0  0
  132.6282  132.4789   59.6234 H   0  0  0  0  0  0  0  0  0  0  0  0
  132.4180  130.7772   60.2247 H   0  0  0  0  0  0  0  0  0  0  0  0
  127.0321  131.5411   60.8596 H   0  0  0  0  0  0  0  0  0  0  0  0
  125.9913  132.7683   60.0163 H   0  0  0  0  0  0  0  0  0  0  0  0
  128.9160  133.7980   59.2300 H   0  0  0  0  0  0  0  0  0  0  0  0
  133.1649  131.6050   55.6477 H   0  0  0  0  0  0  0  0  0  0  0  0
  132.0163  131.1266   54.3522 H   0  0  0  0  0  0  0  0  0  0  0  0
  132.7353  132.7727   54.3522 H   0  0  0  0  0  0  0  0  0  0  0  0
  1  2  1  0
  2  3  1  0
  3  4  2  0
  4  5  1  0
  5  6  2  0
  6  7  1  0
  7  8  1  0
  8  9  1  0
  9 10  2  0
  9 11  1  0
 11 12  1  0
 12 13  2  0
 13 14  1  0
 14 15  2  0
 15 16  1  0
 15 17  1  0
  6 18  1  0
 18  3  1  0
 17 12  1  0
  1 19  1  0
  1 20  1  0
  1 21  1  0
  2 22  1  0
  2 23  1  0
  8 24  1  0
  8 25  1  0
 11 26  1  0
 16 27  1  0
 16 28  1  0
 16 29  1  0
M  END
>  <Binding energies>  (1) 
[-6.94]

>  <Ligand effiencies>  (1) 
[-0.36526315789473685]

>  <Interactions>  (1) 
["V-A:PRO:540:N:4884, V-A:PRO:540:CB:4885, V-A:TYR:539:CD2:4874, V-A:ALA:541:CB:4892, H-A:ALA:541:N:4891, V-A:ALA:541:CA:4890, V-A:PRO:540:CA:4883, V-A:TYR:539:C:4867, V-A:TYR:539:CE2:4876, V-A:TYR:531:CE2:4793, V-A:LEU:363:CD1:3188, V-A:MET:535:CE:4835, H-A:TYR:539:O:4868, H-A:TYR:539:N:4870, V-A:TYR:539:CG:4872, V-A:ILE:538:CA:4860, V-A:ILE:538:CB:4862, V-A:ILE:538:CG2:4863, V-A:PRO:540:C:4881, V-A:ASN:362:CA:3173, V-A:ASN:362:C:3171, V-A:ASN:362:CB:3175"]

$$$$
RR31_Rahimova_2017
     RDKit          3D

 44 45  0  0  0  0  0  0  0  0999 V2000
  132.2610  132.2520   55.2340 C   0  0  0  0  0  0  0  0  0  0  0  0
  131.5950  132.2310   56.6030 C   0  0  0  0  0  0  0  0  0  0  0  0
  132.3390  131.8360   57.7160 C   0  0  0  0  0  0  0  0  0  0  0  0
  131.7590  131.8090   58.9830 C   0  0  0  0  0  0  0  0  0  0  0  0
  130.4200  132.1850   59.1770 C   0  0  0  0  0  0  0  0  0  0  0  0
  129.8220  132.1540   60.4390 N   0  0  0  0  0  0  0  0  0  0  0  0
  130.6010  131.9040   61.6670 C   0  0  0  0  0  0  0  0  0  0  0  0
  129.7410  131.5000   62.8880 C   0  0  0  0  0  0  0  0  0  0  0  0
  128.7100  132.5060   63.1570 N   0  0  0  0  0  0  0  0  0  0  0  0
  127.9000  132.1690   64.3320 C   0  0  0  0  0  0  0  0  0  0  0  0
  127.0090  130.9300   64.1140 C   0  0  0  0  0  0  0  0  0  0  0  0
  127.5930  129.6680   64.7700 C   0  0  0  0  0  0  0  0  0  0  0  0
  126.6200  128.4950   64.6090 N   0  0  0  0  0  0  0  0  0  0  0  0
  127.8540  132.5830   61.9740 C   0  0  0  0  0  0  0  0  0  0  0  0
  128.6670  133.0240   60.7360 C   0  0  0  0  0  0  0  0  0  0  0  0
  129.6820  132.5710   58.0480 C   0  0  0  0  0  0  0  0  0  0  0  0
  130.2520  132.6010   56.7700 C   0  0  0  0  0  0  0  0  0  0  0  0
  129.3950  133.0280   55.5850 C   0  0  0  0  0  0  0  0  0  0  0  0
  133.3534  132.2864   55.3582 H   0  0  0  0  0  0  0  0  0  0  0  0
  131.9837  131.3447   54.6774 H   0  0  0  0  0  0  0  0  0  0  0  0
  131.9271  133.1401   54.6774 H   0  0  0  0  0  0  0  0  0  0  0  0
  133.3921  131.5435   57.5921 H   0  0  0  0  0  0  0  0  0  0  0  0
  132.3606  131.4876   59.8460 H   0  0  0  0  0  0  0  0  0  0  0  0
  131.3156  131.0927   61.4639 H   0  0  0  0  0  0  0  0  0  0  0  0
  131.0968  132.8509   61.9270 H   0  0  0  0  0  0  0  0  0  0  0  0
  129.2567  130.5337   62.6836 H   0  0  0  0  0  0  0  0  0  0  0  0
  130.3953  131.4230   63.7689 H   0  0  0  0  0  0  0  0  0  0  0  0
  128.5748  131.9711   65.1779 H   0  0  0  0  0  0  0  0  0  0  0  0
  127.2345  133.0225   64.5287 H   0  0  0  0  0  0  0  0  0  0  0  0
  126.0172  131.1270   64.5470 H   0  0  0  0  0  0  0  0  0  0  0  0
  126.9458  130.7476   63.0311 H   0  0  0  0  0  0  0  0  0  0  0  0
  128.5495  129.4165   64.2884 H   0  0  0  0  0  0  0  0  0  0  0  0
  127.7535  129.8594   65.8413 H   0  0  0  0  0  0  0  0  0  0  0  0
  126.3440  128.1460   65.5160 H   0  0  0  0  0  0  0  0  0  0  0  0
  127.0590  127.7470   64.0930 H   0  0  0  0  0  0  0  0  0  0  0  0
  125.7930  128.7930   64.1110 H   0  0  0  0  0  0  0  0  0  0  0  0
  127.4137  131.5933   61.7824 H   0  0  0  0  0  0  0  0  0  0  0  0
  127.0630  133.3248   62.1589 H   0  0  0  0  0  0  0  0  0  0  0  0
  127.9977  133.0214   59.8630 H   0  0  0  0  0  0  0  0  0  0  0  0
  129.0685  134.0240   60.9568 H   0  0  0  0  0  0  0  0  0  0  0  0
  128.6271  132.8578   58.1705 H   0  0  0  0  0  0  0  0  0  0  0  0
  128.4667  133.4905   55.9516 H   0  0  0  0  0  0  0  0  0  0  0  0
  129.9503  133.7548   54.9739 H   0  0  0  0  0  0  0  0  0  0  0  0
  129.1492  132.1470   54.9739 H   0  0  0  0  0  0  0  0  0  0  0  0
  1  2  1  0
  2  3  2  0
  3  4  1  0
  4  5  2  0
  5  6  1  0
  6  7  1  0
  7  8  1  0
  8  9  1  0
  9 10  1  0
 10 11  1  0
 11 12  1  0
 12 13  1  0
  9 14  1  0
 14 15  1  0
  5 16  1  0
 16 17  2  0
 17 18  1  0
 17  2  1  0
 15  6  1  0
  1 19  1  0
  1 20  1  0
  1 21  1  0
  3 22  1  0
  4 23  1  0
  7 24  1  0
  7 25  1  0
  8 26  1  0
  8 27  1  0
 10 28  1  0
 10 29  1  0
 11 30  1  0
 11 31  1  0
 12 32  1  0
 12 33  1  0
 13 34  1  0
 13 35  1  0
 13 36  1  0
 14 37  1  0
 14 38  1  0
 15 39  1  0
 15 40  1  0
 16 41  1  0
 18 42  1  0
 18 43  1  0
 18 44  1  0
M  CHG  1  13   1
M  END
>  <Binding energies>  (1) 
[-6.56]

>  <Ligand effiencies>  (1) 
[-0.31238095238095237]

>  <Interactions>  (1) 
["H-B:GLU:543:OE2:9881, V-A:PRO:540:N:4884, V-A:GLU:543:CD:4908, V-B:LEU:475:CD1:9229, V-A:GLU:543:CG:4907, V-A:PRO:540:CB:4885, V-A:ALA:541:CB:4892, V-A:PRO:540:CA:4883, V-A:TYR:539:C:4867, V-B:GLU:543:CD:9879, V-A:TYR:539:CZ:4877, V-B:ARG:545:CZ:9897, V-A:TYR:531:CE2:4793, V-A:LEU:363:CD1:3188, V-A:MET:535:CE:4835, V-A:ILE:538:CA:4860, V-A:TYR:539:CD1:4873, V-A:ILE:538:CB:4862, V-A:TYR:539:CE1:4875, V-A:ILE:538:CG2:4863, H-B:GLU:543:OE1:9880"]

$$$$
RR32_Rahimova_2017
     RDKit          3D

 37 39  0  0  0  0  0  0  0  0999 V2000
  126.7180  123.0220   56.8860 C   0  0  0  0  0  0  0  0  0  0  0  0
  126.9420  122.9860   58.3940 C   0  0  0  0  0  0  0  0  0  0  0  0
  128.1580  122.4910   58.8690 C   0  0  0  0  0  0  0  0  0  0  0  0
  128.3990  122.4460   60.2390 C   0  0  0  0  0  0  0  0  0  0  0  0
  129.6050  121.9560   60.7060 N   0  0  0  0  0  0  0  0  0  0  0  0
  129.8210  120.5000   60.6220 C   0  0  0  0  0  0  0  0  0  0  0  0
  131.1140  120.0320   61.3310 C   0  0  0  0  0  0  0  0  0  0  0  0
  132.2770  120.7090   60.7590 N   0  0  0  0  0  0  0  0  0  0  0  0
  133.4990  120.2440   61.4050 C   0  0  0  0  0  0  0  0  0  0  0  0
  132.1090  122.1460   60.9660 C   0  0  0  0  0  0  0  0  0  0  0  0
  130.8300  122.6450   60.2550 C   0  0  0  0  0  0  0  0  0  0  0  0
  127.4890  122.8660   61.1560 N   0  0  0  0  0  0  0  0  0  0  0  0
  126.2930  123.3500   60.7240 C   0  0  0  0  0  0  0  0  0  0  0  0
  125.3630  123.7780   61.7030 C   0  0  0  0  0  0  0  0  0  0  0  0
  124.1250  124.2820   61.3200 C   0  0  0  0  0  0  0  0  0  0  0  0
  123.7870  124.3720   59.9750 C   0  0  0  0  0  0  0  0  0  0  0  0
  124.6770  123.9600   58.9880 C   0  0  0  0  0  0  0  0  0  0  0  0
  125.9570  123.4360   59.3340 C   0  0  0  0  0  0  0  0  0  0  0  0
  125.6516  123.1934   56.6777 H   0  0  0  0  0  0  0  0  0  0  0  0
  127.3129  123.8361   56.4463 H   0  0  0  0  0  0  0  0  0  0  0  0
  127.0279  122.0625   56.4463 H   0  0  0  0  0  0  0  0  0  0  0  0
  128.9234  122.1376   58.1624 H   0  0  0  0  0  0  0  0  0  0  0  0
  128.9637  119.9923   61.0881 H   0  0  0  0  0  0  0  0  0  0  0  0
  129.9232  120.2464   59.5565 H   0  0  0  0  0  0  0  0  0  0  0  0
  131.0466  120.2688   62.4031 H   0  0  0  0  0  0  0  0  0  0  0  0
  131.2265  118.9466   61.1925 H   0  0  0  0  0  0  0  0  0  0  0  0
  133.3769  120.2905   62.4972 H   0  0  0  0  0  0  0  0  0  0  0  0
  133.7015  119.2060   61.1025 H   0  0  0  0  0  0  0  0  0  0  0  0
  134.3403  120.8848   61.1025 H   0  0  0  0  0  0  0  0  0  0  0  0
  132.0281  122.3503   62.0438 H   0  0  0  0  0  0  0  0  0  0  0  0
  132.9795  122.6719   60.5469 H   0  0  0  0  0  0  0  0  0  0  0  0
  130.7181  123.7213   60.4524 H   0  0  0  0  0  0  0  0  0  0  0  0
  130.9485  122.4306   59.1826 H   0  0  0  0  0  0  0  0  0  0  0  0
  125.6212  123.7114   62.7702 H   0  0  0  0  0  0  0  0  0  0  0  0
  123.4084  124.6117   62.0867 H   0  0  0  0  0  0  0  0  0  0  0  0
  122.8042  124.7737   59.6873 H   0  0  0  0  0  0  0  0  0  0  0  0
  124.3899  124.0394   57.9291 H   0  0  0  0  0  0  0  0  0  0  0  0
  1  2  1  0
  2  3  2  0
  3  4  1  0
  4  5  1  0
  5  6  1  0
  6  7  1  0
  7  8  1  0
  8  9  1  0
  8 10  1  0
 10 11  1  0
  4 12  2  0
 12 13  1  0
 13 14  2  0
 14 15  1  0
 15 16  2  0
 16 17  1  0
 17 18  2  0
 18  2  1  0
 11  5  1  0
 18 13  1  0
  1 19  1  0
  1 20  1  0
  1 21  1  0
  3 22  1  0
  6 23  1  0
  6 24  1  0
  7 25  1  0
  7 26  1  0
  9 27  1  0
  9 28  1  0
  9 29  1  0
 10 30  1  0
 10 31  1  0
 11 32  1  0
 11 33  1  0
 14 34  1  0
 15 35  1  0
 16 36  1  0
 17 37  1  0
M  END
>  <Binding energies>  (1) 
[-6.86]

>  <Ligand effiencies>  (1) 
[-0.3811111111111111]

>  <Interactions>  (1) 
["V-B:TYR:539:CD2:9845, V-B:ASP:366:CG:8184, V-B:TYR:539:CE2:9847, V-B:TYR:539:C:9838, V-B:PRO:540:N:9855, V-A:ILE:369:CG2:3236, V-B:LEU:363:CA:8156, V-B:PRO:540:CB:9856, V-B:PRO:540:CA:9854, V-B:TYR:539:CZ:9848, H-B:ALA:541:N:9862, V-A:LEU:475:CD2:4258, V-B:ALA:541:CB:9863, V-A:TRP:381:CH2:3371, V-B:PRO:540:C:9852, V-B:ASN:362:CB:8147, V-B:ASN:362:C:8143, V-B:ASN:362:CA:8145"]

$$$$
RR32_Rahimova_2017-again1
     RDKit          3D

 38 40  0  0  0  0  0  0  0  0999 V2000
  125.5940  131.9560   59.8340 C   0  0  0  0  0  0  0  0  0  0  0  0
  126.7840  132.7340   60.3790 C   0  0  0  0  0  0  0  0  0  0  0  0
  128.0720  132.2080   60.2800 C   0  0  0  0  0  0  0  0  0  0  0  0
  129.1650  132.9260   60.7770 C   0  0  0  0  0  0  0  0  0  0  0  0
  130.4640  132.4140   60.6980 N   0  0  0  0  0  0  0  0  0  0  0  0
  131.0260  131.6280   61.8150 C   0  0  0  0  0  0  0  0  0  0  0  0
  130.6650  130.1260   61.7240 C   0  0  0  0  0  0  0  0  0  0  0  0
  131.2480  129.5590   60.4150 N   0  0  0  0  0  0  0  0  0  0  0  0
  130.9040  128.0650   60.2650 C   0  0  0  0  0  0  0  0  0  0  0  0
  130.6850  130.3710   59.2310 C   0  0  0  0  0  0  0  0  0  0  0  0
  131.0300  131.8630   59.4480 C   0  0  0  0  0  0  0  0  0  0  0  0
  129.0010  134.1320   61.3890 N   0  0  0  0  0  0  0  0  0  0  0  0
  127.7570  134.6710   61.4970 C   0  0  0  0  0  0  0  0  0  0  0  0
  127.6250  135.9330   62.1250 C   0  0  0  0  0  0  0  0  0  0  0  0
  126.3710  136.5240   62.2550 C   0  0  0  0  0  0  0  0  0  0  0  0
  125.2350  135.8830   61.7720 C   0  0  0  0  0  0  0  0  0  0  0  0
  125.3320  134.6390   61.1520 C   0  0  0  0  0  0  0  0  0  0  0  0
  126.5960  134.0050   60.9990 C   0  0  0  0  0  0  0  0  0  0  0  0
  124.9967  131.5655   60.6711 H   0  0  0  0  0  0  0  0  0  0  0  0
  124.9713  132.6220   59.2186 H   0  0  0  0  0  0  0  0  0  0  0  0
  125.9543  131.1185   59.2186 H   0  0  0  0  0  0  0  0  0  0  0  0
  128.2288  131.2260   59.8099 H   0  0  0  0  0  0  0  0  0  0  0  0
  132.1213  131.7289   61.8012 H   0  0  0  0  0  0  0  0  0  0  0  0
  130.5952  132.0191   62.7485 H   0  0  0  0  0  0  0  0  0  0  0  0
  131.0930  129.5892   62.5835 H   0  0  0  0  0  0  0  0  0  0  0  0
  129.5722  130.0007   61.7341 H   0  0  0  0  0  0  0  0  0  0  0  0
  132.2520  129.6750   60.4350 H   0  0  0  0  0  0  0  0  0  0  0  0
  130.7995  127.6110   61.2615 H   0  0  0  0  0  0  0  0  0  0  0  0
  129.9582  127.9601   59.7132 H   0  0  0  0  0  0  0  0  0  0  0  0
  131.7087  127.5571   59.7132 H   0  0  0  0  0  0  0  0  0  0  0  0
  131.1368  130.0189   58.2919 H   0  0  0  0  0  0  0  0  0  0  0  0
  129.5942  130.2421   59.1716 H   0  0  0  0  0  0  0  0  0  0  0  0
  132.1244  131.9676   59.4835 H   0  0  0  0  0  0  0  0  0  0  0  0
  130.5890  132.4262   58.6124 H   0  0  0  0  0  0  0  0  0  0  0  0
  128.5165  136.4485   62.5117 H   0  0  0  0  0  0  0  0  0  0  0  0
  126.2780  137.5052   62.7434 H   0  0  0  0  0  0  0  0  0  0  0  0
  124.2510  136.3626   61.8805 H   0  0  0  0  0  0  0  0  0  0  0  0
  124.4240  134.1434   60.7780 H   0  0  0  0  0  0  0  0  0  0  0  0
  1  2  1  0
  2  3  2  0
  3  4  1  0
  4  5  1  0
  5  6  1  0
  6  7  1  0
  7  8  1  0
  8  9  1  0
  8 10  1  0
 10 11  1  0
  4 12  2  0
 12 13  1  0
 13 14  2  0
 14 15  1  0
 15 16  2  0
 16 17  1  0
 17 18  2  0
 18  2  1  0
 11  5  1  0
 18 13  1  0
  1 19  1  0
  1 20  1  0
  1 21  1  0
  3 22  1  0
  6 23  1  0
  6 24  1  0
  7 25  1  0
  7 26  1  0
  8 27  1  0
  9 28  1  0
  9 29  1  0
  9 30  1  0
 10 31  1  0
 10 32  1  0
 11 33  1  0
 11 34  1  0
 14 35  1  0
 15 36  1  0
 16 37  1  0
 17 38  1  0
M  CHG  1   8   1
M  END
>  <Binding energies>  (1) 
[-6.55]

>  <Ligand effiencies>  (1) 
[-0.3447368421052632]

>  <Interactions>  (1) 
["V-A:ASP:366:CG:3212, V-B:PRO:482:CB:9297, V-B:LEU:475:CD1:9229, V-B:TRP:381:CH2:8343, V-A:PRO:540:CB:4885, V-A:TYR:539:CD2:4874, V-A:ALA:541:CB:4892, V-B:PRO:482:CG:9298, V-B:TRP:381:CZ2:8341, H-A:ALA:541:N:4891, V-A:PRO:540:CA:4883, V-A:TYR:539:CE2:4876, H-A:ASP:366:OD2:3214, V-A:PRO:540:C:4881"]

$$$$
RR32_Rahimova_2017-again2
     RDKit          3D

 39 41  0  0  0  0  0  0  0  0999 V2000
  125.4930  131.5680   61.3420 C   0  0  0  0  0  0  0  0  0  0  0  0
  126.6800  132.5230   61.3560 C   0  0  0  0  0  0  0  0  0  0  0  0
  127.9690  132.0440   61.1070 C   0  0  0  0  0  0  0  0  0  0  0  0
  129.0740  132.9070   61.1220 C   0  0  0  0  0  0  0  0  0  0  0  0
  130.4210  132.4670   60.8580 N   0  0  0  0  0  0  0  0  0  0  0  0
  131.1810  131.6880   61.8710 C   0  0  0  0  0  0  0  0  0  0  0  0
  130.8550  130.1740   61.7570 C   0  0  0  0  0  0  0  0  0  0  0  0
  131.2240  129.6720   60.3410 N   0  0  0  0  0  0  0  0  0  0  0  0
  130.8620  128.1840   60.1710 C   0  0  0  0  0  0  0  0  0  0  0  0
  130.5240  130.5390   59.2680 C   0  0  0  0  0  0  0  0  0  0  0  0
  130.8700  132.0320   59.5100 C   0  0  0  0  0  0  0  0  0  0  0  0
  128.8510  134.2130   61.3750 N   0  0  0  0  0  0  0  0  0  0  0  0
  127.6210  134.7730   61.6300 C   0  0  0  0  0  0  0  0  0  0  0  0
  127.4990  136.1570   61.8850 C   0  0  0  0  0  0  0  0  0  0  0  0
  126.2370  136.6910   62.1340 C   0  0  0  0  0  0  0  0  0  0  0  0
  125.1080  135.8750   62.1340 C   0  0  0  0  0  0  0  0  0  0  0  0
  125.2140  134.5060   61.8840 C   0  0  0  0  0  0  0  0  0  0  0  0
  126.4820  133.9140   61.6230 C   0  0  0  0  0  0  0  0  0  0  0  0
  125.1999  131.3322   62.3757 H   0  0  0  0  0  0  0  0  0  0  0  0
  124.6480  132.0409   60.8201 H   0  0  0  0  0  0  0  0  0  0  0  0
  125.7740  130.6414   60.8201 H   0  0  0  0  0  0  0  0  0  0  0  0
  128.1188  130.9748   60.8963 H   0  0  0  0  0  0  0  0  0  0  0  0
  132.2584  131.8386   61.7084 H   0  0  0  0  0  0  0  0  0  0  0  0
  130.8939  132.0370   62.8739 H   0  0  0  0  0  0  0  0  0  0  0  0
  131.4358  129.6165   62.5066 H   0  0  0  0  0  0  0  0  0  0  0  0
  129.7808  130.0160   61.9336 H   0  0  0  0  0  0  0  0  0  0  0  0
  132.2230  129.7850   60.2240 H   0  0  0  0  0  0  0  0  0  0  0  0
  130.7488  127.7187   61.1613 H   0  0  0  0  0  0  0  0  0  0  0  0
  129.9167  128.0978   59.6152 H   0  0  0  0  0  0  0  0  0  0  0  0
  131.6621  127.6732   59.6152 H   0  0  0  0  0  0  0  0  0  0  0  0
  130.8716  130.2385   58.2686 H   0  0  0  0  0  0  0  0  0  0  0  0
  129.4350  130.3977   59.3328 H   0  0  0  0  0  0  0  0  0  0  0  0
  131.9589  132.1669   59.4319 H   0  0  0  0  0  0  0  0  0  0  0  0
  130.3530  132.6404   58.7533 H   0  0  0  0  0  0  0  0  0  0  0  0
  129.6510  134.8280   61.3720 H   0  0  0  0  0  0  0  0  0  0  0  0
  128.3885  136.8041   61.8869 H   0  0  0  0  0  0  0  0  0  0  0  0
  126.1308  137.7677   62.3326 H   0  0  0  0  0  0  0  0  0  0  0  0
  124.1200  136.3154   62.3337 H   0  0  0  0  0  0  0  0  0  0  0  0
  124.3101  133.8792   61.8887 H   0  0  0  0  0  0  0  0  0  0  0  0
  1  2  1  0
  2  3  2  0
  3  4  1  0
  4  5  1  0
  5  6  1  0
  6  7  1  0
  7  8  1  0
  8  9  1  0
  8 10  1  0
 10 11  1  0
  4 12  2  0
 12 13  1  0
 13 14  2  0
 14 15  1  0
 15 16  2  0
 16 17  1  0
 17 18  2  0
 18  2  1  0
 11  5  1  0
 18 13  1  0
  1 19  1  0
  1 20  1  0
  1 21  1  0
  3 22  1  0
  6 23  1  0
  6 24  1  0
  7 25  1  0
  7 26  1  0
  8 27  1  0
  9 28  1  0
  9 29  1  0
  9 30  1  0
 10 31  1  0
 10 32  1  0
 11 33  1  0
 11 34  1  0
 12 35  1  0
 14 36  1  0
 15 37  1  0
 16 38  1  0
 17 39  1  0
M  CHG  2   8   1  12   1
M  END
>  <Binding energies>  (1) 
[-6.86]

>  <Ligand effiencies>  (1) 
[-0.343]

>  <Interactions>  (1) 
["V-A:ASP:366:CG:3212, V-B:PRO:482:CB:9297, V-B:LEU:475:CD1:9229, V-B:TRP:381:CH2:8343, V-A:PRO:540:CB:4885, V-A:TYR:539:CD2:4874, V-A:ALA:541:CB:4892, V-B:PRO:482:CG:9298, V-B:TRP:381:CZ2:8341, V-A:ALA:541:CA:4890, V-A:PRO:540:CA:4883, V-A:TYR:539:C:4867, H-A:TYR:539:O:4868, V-B:TRP:381:CE2:8338, H-A:ASP:366:OD2:3214, V-A:PRO:540:C:4881, H-A:PRO:540:O:4882"]

$$$$
RR33_Rahimova_2017
     RDKit          3D

 36 37  0  0  0  0  0  0  0  0999 V2000
  132.9760  122.0910   63.4880 C   0  0  0  0  0  0  0  0  0  0  0  0
  133.9060  121.4880   62.4310 C   0  0  0  0  0  0  0  0  0  0  0  0
  133.1340  120.6710   61.5540 O   0  0  0  0  0  0  0  0  0  0  0  0
  131.8580  121.0700   61.2040 C   0  0  0  0  0  0  0  0  0  0  0  0
  131.7380  122.3330   60.6280 C   0  0  0  0  0  0  0  0  0  0  0  0
  130.4920  122.8220   60.2450 C   0  0  0  0  0  0  0  0  0  0  0  0
  129.3430  122.0490   60.4350 C   0  0  0  0  0  0  0  0  0  0  0  0
  128.0040  122.5750   60.0240 C   0  0  0  0  0  0  0  0  0  0  0  0
  127.5640  122.7840   58.8040 N   0  0  0  0  0  0  0  0  0  0  0  0
  126.3330  123.2490   58.9510 C   0  0  0  0  0  0  0  0  0  0  0  0
  125.4850  123.6000   57.7470 C   0  0  0  0  0  0  0  0  0  0  0  0
  126.1190  123.1380   56.5210 N   0  0  0  0  0  0  0  0  0  0  0  0
  125.2820  122.1570   55.8500 C   0  0  0  0  0  0  0  0  0  0  0  0
  126.0210  123.3240   60.3030 C   0  0  0  0  0  0  0  0  0  0  0  0
  124.8160  123.7520   61.1040 C   0  0  0  0  0  0  0  0  0  0  0  0
  127.1020  122.8890   60.9900 O   0  0  0  0  0  0  0  0  0  0  0  0
  129.4590  120.7790   61.0090 C   0  0  0  0  0  0  0  0  0  0  0  0
  130.7060  120.2910   61.3920 C   0  0  0  0  0  0  0  0  0  0  0  0
  133.3539  121.8460   64.4916 H   0  0  0  0  0  0  0  0  0  0  0  0
  132.9417  123.1837   63.3658 H   0  0  0  0  0  0  0  0  0  0  0  0
  131.9645  121.6765   63.3658 H   0  0  0  0  0  0  0  0  0  0  0  0
  134.3868  122.2945   61.8579 H   0  0  0  0  0  0  0  0  0  0  0  0
  134.6841  120.8824   62.9187 H   0  0  0  0  0  0  0  0  0  0  0  0
  132.6360  122.9494   60.4744 H   0  0  0  0  0  0  0  0  0  0  0  0
  130.4114  123.8207   59.7910 H   0  0  0  0  0  0  0  0  0  0  0  0
  124.4997  123.1212   57.8470 H   0  0  0  0  0  0  0  0  0  0  0  0
  125.3739  124.6933   57.6983 H   0  0  0  0  0  0  0  0  0  0  0  0
  127.0070  122.7130   56.7450 H   0  0  0  0  0  0  0  0  0  0  0  0
  124.7602  121.5454   56.6008 H   0  0  0  0  0  0  0  0  0  0  0  0
  124.5430  122.6746   55.2208 H   0  0  0  0  0  0  0  0  0  0  0  0
  125.9095  121.5087   55.2208 H   0  0  0  0  0  0  0  0  0  0  0  0
  125.0420  123.6717   62.1775 H   0  0  0  0  0  0  0  0  0  0  0  0
  124.5644  124.7945   60.8592 H   0  0  0  0  0  0  0  0  0  0  0  0
  123.9632  123.1018   60.8592 H   0  0  0  0  0  0  0  0  0  0  0  0
  128.5606  120.1622   61.1588 H   0  0  0  0  0  0  0  0  0  0  0  0
  130.7882  119.2913   61.8435 H   0  0  0  0  0  0  0  0  0  0  0  0
  1  2  1  0
  2  3  1  0
  3  4  1  0
  4  5  2  0
  5  6  1  0
  6  7  2  0
  7  8  1  0
  8  9  2  0
  9 10  1  0
 10 11  1  0
 11 12  1  0
 12 13  1  0
 10 14  2  0
 14 15  1  0
 14 16  1  0
  7 17  1  0
 17 18  2  0
 18  4  1  0
 16  8  1  0
  1 19  1  0
  1 20  1  0
  1 21  1  0
  2 22  1  0
  2 23  1  0
  5 24  1  0
  6 25  1  0
 11 26  1  0
 11 27  1  0
 12 28  1  0
 13 29  1  0
 13 30  1  0
 13 31  1  0
 15 32  1  0
 15 33  1  0
 15 34  1  0
 17 35  1  0
 18 36  1  0
M  END
>  <Binding energies>  (1) 
[-5.16]

>  <Ligand effiencies>  (1) 
[-0.2715789473684211]

>  <Interactions>  (1) 
["V-B:TYR:539:CD2:9845, V-B:MET:535:CE:9806, V-B:TYR:539:CE2:9847, V-B:PRO:540:CD:9858, V-B:PRO:540:N:9855, V-A:ILE:369:CG2:3236, V-B:PRO:540:CB:9856, V-B:PRO:540:CA:9854, V-B:LEU:363:CD1:8160, H-B:ALA:541:N:9862, V-A:LEU:475:CD2:4258, V-A:ILE:369:CD1:3238, V-A:GLY:454:CA:4048, V-B:ALA:541:CB:9863, V-B:PRO:540:C:9852, V-B:ALA:541:CA:9861, V-B:ASN:362:CB:8147, V-B:ILE:538:CA:9831, V-B:ILE:538:CD1:9836, V-B:ILE:538:CG2:9834"]

$$$$
RR33_Rahimova_2017-again1
     RDKit          3D

 37 38  0  0  0  0  0  0  0  0999 V2000
  125.5330  130.7470   56.8210 C   0  0  0  0  0  0  0  0  0  0  0  0
  124.1240  130.8850   57.4050 C   0  0  0  0  0  0  0  0  0  0  0  0
  124.1450  131.8800   58.4240 O   0  0  0  0  0  0  0  0  0  0  0  0
  124.4300  131.5120   59.7260 C   0  0  0  0  0  0  0  0  0  0  0  0
  123.3420  131.3790   60.5880 C   0  0  0  0  0  0  0  0  0  0  0  0
  123.5300  131.0120   61.9170 C   0  0  0  0  0  0  0  0  0  0  0  0
  124.8180  130.7720   62.4060 C   0  0  0  0  0  0  0  0  0  0  0  0
  125.0250  130.3770   63.8330 C   0  0  0  0  0  0  0  0  0  0  0  0
  126.1460  130.0000   64.4070 N   0  0  0  0  0  0  0  0  0  0  0  0
  125.8310  129.7560   65.6710 C   0  0  0  0  0  0  0  0  0  0  0  0
  126.8760  129.2810   66.6620 C   0  0  0  0  0  0  0  0  0  0  0  0
  127.7740  128.2340   65.9830 N   0  0  0  0  0  0  0  0  0  0  0  0
  128.9570  127.7840   66.8510 C   0  0  0  0  0  0  0  0  0  0  0  0
  124.4740  129.9860   65.8620 C   0  0  0  0  0  0  0  0  0  0  0  0
  123.5220  129.8900   67.0290 C   0  0  0  0  0  0  0  0  0  0  0  0
  123.9610  130.3880   64.6760 O   0  0  0  0  0  0  0  0  0  0  0  0
  125.9130  130.9050   61.5450 C   0  0  0  0  0  0  0  0  0  0  0  0
  125.7230  131.2710   60.2150 C   0  0  0  0  0  0  0  0  0  0  0  0
  126.2639  130.6754   57.6399 H   0  0  0  0  0  0  0  0  0  0  0  0
  125.5860  129.8394   56.2018 H   0  0  0  0  0  0  0  0  0  0  0  0
  125.7611  131.6271   56.2018 H   0  0  0  0  0  0  0  0  0  0  0  0
  123.4225  131.1829   56.6118 H   0  0  0  0  0  0  0  0  0  0  0  0
  123.7990  129.9232   57.8284 H   0  0  0  0  0  0  0  0  0  0  0  0
  122.3248  131.5661   60.2136 H   0  0  0  0  0  0  0  0  0  0  0  0
  122.6623  130.9103   62.5854 H   0  0  0  0  0  0  0  0  0  0  0  0
  127.4880  130.1344   66.9894 H   0  0  0  0  0  0  0  0  0  0  0  0
  126.3811  128.8335   67.5365 H   0  0  0  0  0  0  0  0  0  0  0  0
  127.2150  127.4280   65.7460 H   0  0  0  0  0  0  0  0  0  0  0  0
  128.1320  128.6270   65.1220 H   0  0  0  0  0  0  0  0  0  0  0  0
  128.6914  127.8850   67.9137 H   0  0  0  0  0  0  0  0  0  0  0  0
  129.1944  126.7328   66.6307 H   0  0  0  0  0  0  0  0  0  0  0  0
  129.8331  128.4117   66.6307 H   0  0  0  0  0  0  0  0  0  0  0  0
  124.0886  129.9471   67.9701 H   0  0  0  0  0  0  0  0  0  0  0  0
  122.8016  130.7201   66.9838 H   0  0  0  0  0  0  0  0  0  0  0  0
  122.9818  128.9328   66.9838 H   0  0  0  0  0  0  0  0  0  0  0  0
  126.9299  130.7193   61.9210 H   0  0  0  0  0  0  0  0  0  0  0  0
  126.5897  131.3716   59.5452 H   0  0  0  0  0  0  0  0  0  0  0  0
  1  2  1  0
  2  3  1  0
  3  4  1  0
  4  5  2  0
  5  6  1  0
  6  7  2  0
  7  8  1  0
  8  9  2  0
  9 10  1  0
 10 11  1  0
 11 12  1  0
 12 13  1  0
 10 14  2  0
 14 15  1  0
 14 16  1  0
  7 17  1  0
 17 18  2  0
 18  4  1  0
 16  8  1  0
  1 19  1  0
  1 20  1  0
  1 21  1  0
  2 22  1  0
  2 23  1  0
  5 24  1  0
  6 25  1  0
 11 26  1  0
 11 27  1  0
 12 28  1  0
 12 29  1  0
 13 30  1  0
 13 31  1  0
 13 32  1  0
 15 33  1  0
 15 34  1  0
 15 35  1  0
 17 36  1  0
 18 37  1  0
M  CHG  1  12   1
M  END
>  <Binding energies>  (1) 
[-6.33]

>  <Ligand effiencies>  (1) 
[-0.3165]

>  <Interactions>  (1) 
["V-B:ASP:366:CG:8184, V-B:ASP:366:CB:8183, H-B:GLU:543:OE2:9881, V-A:GLU:543:CD:4908, V-A:GLU:543:CG:4907, V-B:ILE:369:CD1:8210, V-B:GLY:453:C:9013, H-B:GLY:454:N:9021, V-B:GLU:543:CD:9879, V-B:HIS:456:CE1:9041, V-B:GLY:454:CA:9020, H-B:ARG:545:NH2:9899, V-B:ILE:369:CG2:8208, V-A:TYR:539:CZ:4877, V-B:ASP:366:CA:8181, V-B:ASP:366:C:8179, V-B:ARG:545:CZ:9897, H-A:TYR:539:OH:4878, V-B:ASN:370:CB:8216, V-B:TYR:531:CE1:9763, V-B:ARG:545:CG:9893, V-B:ILE:369:CB:8207, V-B:ARG:545:CD:9894, H-B:GLU:543:OE1:9880, V-B:GLY:454:C:9018"]

$$$$
RR3_Rahimova_2017
     RDKit          3D

 63 69  0  0  0  0  0  0  0  0999 V2000
  125.5880  122.0770   54.9650 C   0  0  0  0  0  0  0  0  0  0  0  0
  126.8700  122.6030   54.8470 C   0  0  0  0  0  0  0  0  0  0  0  0
  127.4630  123.2280   55.9410 C   0  0  0  0  0  0  0  0  0  0  0  0
  126.7840  123.3340   57.1640 C   0  0  0  0  0  0  0  0  0  0  0  0
  127.4230  124.0050   58.3400 C   0  0  0  0  0  0  0  0  0  0  0  0
  126.6460  124.5110   59.3910 C   0  0  0  0  0  0  0  0  0  0  0  0
  127.2400  125.1390   60.4820 C   0  0  0  0  0  0  0  0  0  0  0  0
  128.6290  125.2810   60.5440 C   0  0  0  0  0  0  0  0  0  0  0  0
  129.2740  125.9580   61.7120 C   0  0  0  0  0  0  0  0  0  0  0  0
  129.1810  125.4250   62.9250 N   0  0  0  0  0  0  0  0  0  0  0  0
  129.8690  126.1990   63.7290 C   0  0  0  0  0  0  0  0  0  0  0  0
  130.0360  125.9850   65.1640 C   0  0  0  0  0  0  0  0  0  0  0  0
  130.8020  124.9920   65.7520 C   0  0  0  0  0  0  0  0  0  0  0  0
  130.7390  125.0920   67.1170 N   0  0  0  0  0  0  0  0  0  0  0  0
  129.9300  126.1490   67.4730 C   0  0  0  0  0  0  0  0  0  0  0  0
  129.5670  126.6370   68.7330 C   0  0  0  0  0  0  0  0  0  0  0  0
  128.7170  127.7420   68.7630 C   0  0  0  0  0  0  0  0  0  0  0  0
  128.2460  128.3370   67.5970 C   0  0  0  0  0  0  0  0  0  0  0  0
  128.6090  127.8520   66.3420 C   0  0  0  0  0  0  0  0  0  0  0  0
  129.4640  126.7380   66.2560 C   0  0  0  0  0  0  0  0  0  0  0  0
  130.4130  127.2520   63.0470 N   0  0  0  0  0  0  0  0  0  0  0  0
  130.0300  127.1430   61.7350 C   0  0  0  0  0  0  0  0  0  0  0  0
  130.3900  128.1570   60.6990 C   0  0  0  0  0  0  0  0  0  0  0  0
  130.3390  129.5180   61.0030 C   0  0  0  0  0  0  0  0  0  0  0  0
  130.6610  130.4650   60.0360 C   0  0  0  0  0  0  0  0  0  0  0  0
  131.0460  130.0750   58.7450 C   0  0  0  0  0  0  0  0  0  0  0  0
  131.3730  131.0970   57.7030 C   0  0  0  0  0  0  0  0  0  0  0  0
  131.3510  130.7660   56.3390 C   0  0  0  0  0  0  0  0  0  0  0  0
  131.6510  131.7190   55.3680 C   0  0  0  0  0  0  0  0  0  0  0  0
  131.9770  133.0160   55.7520 C   0  0  0  0  0  0  0  0  0  0  0  0
  132.0040  133.3660   57.0980 C   0  0  0  0  0  0  0  0  0  0  0  0
  131.7050  132.4110   58.0660 C   0  0  0  0  0  0  0  0  0  0  0  0
  131.1100  128.7040   58.4580 C   0  0  0  0  0  0  0  0  0  0  0  0
  130.7880  127.7540   59.4230 C   0  0  0  0  0  0  0  0  0  0  0  0
  129.4130  124.7680   59.5090 C   0  0  0  0  0  0  0  0  0  0  0  0
  128.8160  124.1410   58.4180 C   0  0  0  0  0  0  0  0  0  0  0  0
  125.4920  122.7970   57.2600 C   0  0  0  0  0  0  0  0  0  0  0  0
  124.8960  122.1710   56.1680 C   0  0  0  0  0  0  0  0  0  0  0  0
  125.1182  121.5835   54.1015 H   0  0  0  0  0  0  0  0  0  0  0  0
  127.4132  122.5257   53.8936 H   0  0  0  0  0  0  0  0  0  0  0  0
  128.4768  123.6439   55.8450 H   0  0  0  0  0  0  0  0  0  0  0  0
  125.5513  124.4104   59.3532 H   0  0  0  0  0  0  0  0  0  0  0  0
  126.6132  125.5254   61.2992 H   0  0  0  0  0  0  0  0  0  0  0  0
  131.3778  124.2328   65.2024 H   0  0  0  0  0  0  0  0  0  0  0  0
  131.2320  124.4600   67.7300 H   0  0  0  0  0  0  0  0  0  0  0  0
  129.9355  126.1700   69.6583 H   0  0  0  0  0  0  0  0  0  0  0  0
  128.4104  128.1546   69.7355 H   0  0  0  0  0  0  0  0  0  0  0  0
  127.5750  129.2059   67.6669 H   0  0  0  0  0  0  0  0  0  0  0  0
  128.2312  128.3348   65.4287 H   0  0  0  0  0  0  0  0  0  0  0  0
  130.9730  127.9930   63.4440 H   0  0  0  0  0  0  0  0  0  0  0  0
  130.0430  129.8434   62.0112 H   0  0  0  0  0  0  0  0  0  0  0  0
  130.6129  131.5348   60.2875 H   0  0  0  0  0  0  0  0  0  0  0  0
  131.0937  129.7413   56.0329 H   0  0  0  0  0  0  0  0  0  0  0  0
  131.6302  131.4472   54.3023 H   0  0  0  0  0  0  0  0  0  0  0  0
  132.2148  133.7693   54.9865 H   0  0  0  0  0  0  0  0  0  0  0  0
  132.2606  134.3932   57.3964 H   0  0  0  0  0  0  0  0  0  0  0  0
  131.7294  132.6904   59.1296 H   0  0  0  0  0  0  0  0  0  0  0  0
  131.4193  128.3743   57.4552 H   0  0  0  0  0  0  0  0  0  0  0  0
  130.8473  126.6829   59.1796 H   0  0  0  0  0  0  0  0  0  0  0  0
  130.5082  124.8595   59.5554 H   0  0  0  0  0  0  0  0  0  0  0  0
  129.4460  123.7473   57.6068 H   0  0  0  0  0  0  0  0  0  0  0  0
  124.9424  122.8712   58.2099 H   0  0  0  0  0  0  0  0  0  0  0  0
  123.8825  121.7527   56.2564 H   0  0  0  0  0  0  0  0  0  0  0  0
  1  2  2  0
  2  3  1  0
  3  4  2  0
  4  5  1  0
  5  6  2  0
  6  7  1  0
  7  8  2  0
  8  9  1  0
  9 10  1  0
 10 11  2  0
 11 12  1  0
 12 13  2  0
 13 14  1  0
 14 15  1  0
 15 16  2  0
 16 17  1  0
 17 18  2  0
 18 19  1  0
 19 20  2  0
 11 21  1  0
 21 22  1  0
 22 23  1  0
 23 24  2  0
 24 25  1  0
 25 26  2  0
 26 27  1  0
 27 28  2  0
 28 29  1  0
 29 30  2  0
 30 31  1  0
 31 32  2  0
 26 33  1  0
 33 34  2  0
  8 35  1  0
 35 36  2  0
  4 37  1  0
 37 38  2  0
 38  1  1  0
 36  5  1  0
 22  9  2  0
 34 23  1  0
 20 12  1  0
 32 27  1  0
 20 15  1  0
  1 39  1  0
  2 40  1  0
  3 41  1  0
  6 42  1  0
  7 43  1  0
 13 44  1  0
 14 45  1  0
 16 46  1  0
 17 47  1  0
 18 48  1  0
 19 49  1  0
 21 50  1  0
 24 51  1  0
 25 52  1  0
 28 53  1  0
 29 54  1  0
 30 55  1  0
 31 56  1  0
 32 57  1  0
 33 58  1  0
 34 59  1  0
 35 60  1  0
 36 61  1  0
 37 62  1  0
 38 63  1  0
M  END
>  <Binding energies>  (1) 
[-10.48]

>  <Ligand effiencies>  (1) 
[-0.262]

>  <Interactions>  (1) 
["V-B:MET:535:CE:9806, V-B:TYR:539:CE2:9847, V-B:PRO:540:CD:9858, V-A:ASP:366:CG:3212, V-B:PRO:540:N:9855, V-B:PRO:540:CB:9856, V-A:ASP:366:CB:3211, V-B:PRO:540:CA:9854, V-B:LEU:363:CD1:8160, V-B:TYR:539:CZ:9848, V-A:PRO:540:N:4884, V-A:GLU:543:CD:4908, H-A:GLU:543:OE1:4909, V-A:GLU:543:CG:4907, V-A:PRO:540:CB:4885, H-A:GLU:543:OE2:4910, V-A:PRO:540:CA:4883, V-A:TYR:539:C:4867, V-B:GLU:543:CD:9879, V-B:HIS:456:CE1:9041, V-A:HIS:456:CE1:4069, V-B:GLU:543:CG:9878, V-A:TYR:484:CE1:4344, H-A:HIS:456:NE2:4070, H-A:TYR:484:OH:4347, V-B:TYR:539:CD1:9844, V-B:TYR:539:CE1:9846, V-A:TYR:531:CE2:4793, V-A:LEU:363:CD1:3188, V-A:TYR:531:CZ:4794, V-A:TYR:484:CZ:4346, V-A:MET:535:CE:4835, V-A:ILE:538:CA:4860, V-A:ILE:538:CB:4862, V-A:PRO:540:CD:4887, V-A:ILE:538:CG2:4863, V-B:PRO:540:CG:9857, V-B:ILE:538:CA:9831, V-B:ILE:538:C:9829, V-B:ILE:538:CD1:9836, V-B:ILE:538:CG2:9834, V-B:ILE:538:CB:9833, V-B:ILE:538:CG1:9835, V-A:PRO:540:CG:4886"]

$$$$
RR4_Rahimova_2017
     RDKit          3D

 66 70  0  0  0  0  0  0  0  0999 V2000
  130.0460  125.5340   74.2860 C   0  0  0  0  0  0  0  0  0  0  0  0
  128.8720  126.1370   73.7520 O   0  0  0  0  0  0  0  0  0  0  0  0
  128.7810  126.3440   72.3890 C   0  0  0  0  0  0  0  0  0  0  0  0
  129.4480  127.4550   71.8790 C   0  0  0  0  0  0  0  0  0  0  0  0
  129.4120  127.7410   70.5180 C   0  0  0  0  0  0  0  0  0  0  0  0
  128.7040  126.9240   69.6240 C   0  0  0  0  0  0  0  0  0  0  0  0
  128.6670  127.2360   68.1560 C   0  0  0  0  0  0  0  0  0  0  0  0
  127.8670  128.2480   67.6160 C   0  0  0  0  0  0  0  0  0  0  0  0
  127.8710  128.5040   66.2390 C   0  0  0  0  0  0  0  0  0  0  0  0
  127.0130  129.6200   65.7390 C   0  0  0  0  0  0  0  0  0  0  0  0
  125.6590  129.3970   65.4680 C   0  0  0  0  0  0  0  0  0  0  0  0
  124.8490  130.4350   65.0130 C   0  0  0  0  0  0  0  0  0  0  0  0
  125.3740  131.7140   64.8270 C   0  0  0  0  0  0  0  0  0  0  0  0
  124.4960  132.6800   64.3740 O   0  0  0  0  0  0  0  0  0  0  0  0
  124.0340  132.6220   63.0280 C   0  0  0  0  0  0  0  0  0  0  0  0
  126.7300  131.9430   65.1030 C   0  0  0  0  0  0  0  0  0  0  0  0
  127.5380  130.9040   65.5580 C   0  0  0  0  0  0  0  0  0  0  0  0
  128.6800  127.6940   65.4040 C   0  0  0  0  0  0  0  0  0  0  0  0
  128.7220  127.9190   63.9560 C   0  0  0  0  0  0  0  0  0  0  0  0
  128.7540  128.0970   62.8130 N   0  0  0  0  0  0  0  0  0  0  0  0
  129.4400  126.6690   66.0130 C   0  0  0  0  0  0  0  0  0  0  0  0
  130.5000  125.5520   65.1200 S   0  0  0  0  0  0  0  0  0  0  0  0
  129.4910  124.1250   64.5990 C   0  0  0  0  0  0  0  0  0  0  0  0
  129.2040  124.0640   63.0920 C   0  0  0  0  0  0  0  0  0  0  0  0
  130.1290  124.0810   62.2770 O   0  0  0  0  0  0  0  0  0  0  0  0
  127.8910  124.0080   62.7680 N   0  0  0  0  0  0  0  0  0  0  0  0
  127.3130  123.9420   61.4980 C   0  0  0  0  0  0  0  0  0  0  0  0
  125.9570  124.9290   61.0210 S   0  0  0  0  0  0  0  0  0  0  0  0
  125.9270  124.2210   59.4360 C   0  0  0  0  0  0  0  0  0  0  0  0
  126.9300  123.2510   59.2850 C   0  0  0  0  0  0  0  0  0  0  0  0
  127.7240  123.1060   60.4490 C   0  0  0  0  0  0  0  0  0  0  0  0
  128.8460  122.1780   60.5460 C   0  0  0  0  0  0  0  0  0  0  0  0
  129.7350  121.4410   60.6230 N   0  0  0  0  0  0  0  0  0  0  0  0
  127.1350  122.5080   57.9590 C   0  0  0  0  0  0  0  0  0  0  0  0
  126.4100  123.2390   56.8070 C   0  0  0  0  0  0  0  0  0  0  0  0
  124.9790  123.6520   57.1910 C   0  0  0  0  0  0  0  0  0  0  0  0
  124.9620  124.6740   58.3480 C   0  0  0  0  0  0  0  0  0  0  0  0
  129.4430  126.4650   67.3510 N   0  0  0  0  0  0  0  0  0  0  0  0
  128.0390  125.8030   70.1470 C   0  0  0  0  0  0  0  0  0  0  0  0
  128.0720  125.5150   71.5090 C   0  0  0  0  0  0  0  0  0  0  0  0
  130.0023  125.5564   75.3849 H   0  0  0  0  0  0  0  0  0  0  0  0
  130.1110  124.4909   73.9428 H   0  0  0  0  0  0  0  0  0  0  0  0
  130.9317  126.0888   73.9428 H   0  0  0  0  0  0  0  0  0  0  0  0
  130.0089  128.1130   72.5590 H   0  0  0  0  0  0  0  0  0  0  0  0
  129.9478  128.6227   70.1364 H   0  0  0  0  0  0  0  0  0  0  0  0
  127.2280  128.8492   68.2796 H   0  0  0  0  0  0  0  0  0  0  0  0
  125.2306  128.3946   65.6153 H   0  0  0  0  0  0  0  0  0  0  0  0
  123.7870  130.2446   64.7987 H   0  0  0  0  0  0  0  0  0  0  0  0
  122.9426  132.4850   63.0205 H   0  0  0  0  0  0  0  0  0  0  0  0
  124.2894  133.5593   62.5120 H   0  0  0  0  0  0  0  0  0  0  0  0
  124.5132  131.7770   62.5120 H   0  0  0  0  0  0  0  0  0  0  0  0
  127.1567  132.9467   64.9596 H   0  0  0  0  0  0  0  0  0  0  0  0
  128.5989  131.0947   65.7771 H   0  0  0  0  0  0  0  0  0  0  0  0
  130.0229  123.2056   64.8849 H   0  0  0  0  0  0  0  0  0  0  0  0
  128.5169  124.2317   65.0987 H   0  0  0  0  0  0  0  0  0  0  0  0
  127.2360  124.0000   63.5350 H   0  0  0  0  0  0  0  0  0  0  0  0
  128.2108  122.4586   57.7351 H   0  0  0  0  0  0  0  0  0  0  0  0
  126.7183  121.4943   58.0530 H   0  0  0  0  0  0  0  0  0  0  0  0
  126.9812  124.1419   56.5453 H   0  0  0  0  0  0  0  0  0  0  0  0
  126.3446  122.5460   55.9553 H   0  0  0  0  0  0  0  0  0  0  0  0
  124.4916  124.1014   56.3132 H   0  0  0  0  0  0  0  0  0  0  0  0
  124.4440  122.7511   57.5260 H   0  0  0  0  0  0  0  0  0  0  0  0
  125.2703  125.6604   57.9712 H   0  0  0  0  0  0  0  0  0  0  0  0
  123.9457  124.7429   58.7631 H   0  0  0  0  0  0  0  0  0  0  0  0
  127.4819  125.1404   69.4683 H   0  0  0  0  0  0  0  0  0  0  0  0
  127.5396  124.6335   71.8957 H   0  0  0  0  0  0  0  0  0  0  0  0
  1  2  1  0
  2  3  1  0
  3  4  2  0
  4  5  1  0
  5  6  2  0
  6  7  1  0
  7  8  2  0
  8  9  1  0
  9 10  1  0
 10 11  2  0
 11 12  1  0
 12 13  2  0
 13 14  1  0
 14 15  1  0
 13 16  1  0
 16 17  2  0
  9 18  2  0
 18 19  1  0
 19 20  3  0
 18 21  1  0
 21 22  1  0
 22 23  1  0
 23 24  1  0
 24 25  2  0
 24 26  1  0
 26 27  1  0
 27 28  1  0
 28 29  1  0
 29 30  2  0
 30 31  1  0
 31 32  1  0
 32 33  3  0
 30 34  1  0
 34 35  1  0
 35 36  1  0
 36 37  1  0
 21 38  2  0
  6 39  1  0
 39 40  2  0
 40  3  1  0
 38  7  1  0
 17 10  1  0
 31 27  2  0
 37 29  1  0
  1 41  1  0
  1 42  1  0
  1 43  1  0
  4 44  1  0
  5 45  1  0
  8 46  1  0
 11 47  1  0
 12 48  1  0
 15 49  1  0
 15 50  1  0
 15 51  1  0
 16 52  1  0
 17 53  1  0
 23 54  1  0
 23 55  1  0
 26 56  1  0
 34 57  1  0
 34 58  1  0
 35 59  1  0
 35 60  1  0
 36 61  1  0
 36 62  1  0
 37 63  1  0
 37 64  1  0
 39 65  1  0
 40 66  1  0
M  END
>  <Binding energies>  (1) 
[-11.14]

>  <Ligand effiencies>  (1) 
[-0.27170731707317075]

>  <Interactions>  (1) 
["V-B:TYR:539:CD2:9845, V-B:TYR:539:CE2:9847, V-B:TYR:539:C:9838, V-B:PRO:540:N:9855, V-B:PRO:540:CB:9856, V-B:PRO:540:CA:9854, V-B:LEU:363:CD1:8160, H-B:GLU:543:OE2:9881, V-A:GLU:543:CD:4908, V-B:LEU:475:CD1:9229, V-A:GLU:543:CG:4907, V-B:ILE:369:CD1:8210, V-A:HIS:456:CD2:4067, V-B:GLU:543:C:9873, H-B:GLY:454:N:9021, V-B:GLU:543:CD:9879, V-B:HIS:456:CE1:9041, V-B:GLY:454:CA:9020, V-A:HIS:456:CE1:4069, H-B:LYS:547:NZ:9922, V-B:HIS:456:CD2:9039, V-B:GLU:543:CG:9878, V-B:GLU:543:CB:9877, V-B:ALA:541:CB:9863, V-B:ARG:545:CZ:9897, V-B:GLY:544:C:9883"]

$$$$
RR5_Rahimova_2017
     RDKit          3D

 77 82  0  0  0  0  0  0  0  0999 V2000
  128.4160  126.1370   61.1040 O   0  0  0  0  0  0  0  0  0  0  0  0
  128.4270  126.2750   59.8810 C   0  0  0  0  0  0  0  0  0  0  0  0
  128.8290  127.6300   59.2690 C   0  0  0  0  0  0  0  0  0  0  0  0
  129.2100  127.5550   57.7470 C   0  0  2  0  0  0  0  0  0  0  0  0
  130.3440  128.4120   57.3460 N   0  0  0  0  0  0  0  0  0  0  0  0
  131.3250  128.7920   58.2520 C   0  0  0  0  0  0  0  0  0  0  0  0
  131.4080  128.4500   59.4340 O   0  0  0  0  0  0  0  0  0  0  0  0
  132.1790  129.6220   57.6280 O   0  0  0  0  0  0  0  0  0  0  0  0
  133.0610  130.4680   58.3590 C   0  0  0  0  0  0  0  0  0  0  0  0
  132.4260  131.8570   58.5870 C   0  0  0  0  0  0  0  0  0  0  0  0
  131.4380  132.2600   57.5060 C   0  0  0  0  0  0  0  0  0  0  0  0
  131.6310  132.3890   56.1280 C   0  0  0  0  0  0  0  0  0  0  0  0
  130.5630  132.7540   55.3070 C   0  0  0  0  0  0  0  0  0  0  0  0
  129.3030  132.9910   55.8600 C   0  0  0  0  0  0  0  0  0  0  0  0
  129.1080  132.8660   57.2370 C   0  0  0  0  0  0  0  0  0  0  0  0
  130.1780  132.5010   58.0560 C   0  0  0  0  0  0  0  0  0  0  0  0
  130.2600  132.3060   59.5120 C   0  0  0  0  0  0  0  0  0  0  0  0
  129.2940  132.4360   60.5130 C   0  0  0  0  0  0  0  0  0  0  0  0
  129.6460  132.2110   61.8440 C   0  0  0  0  0  0  0  0  0  0  0  0
  130.9560  131.8560   62.1730 C   0  0  0  0  0  0  0  0  0  0  0  0
  131.9170  131.7240   61.1700 C   0  0  0  0  0  0  0  0  0  0  0  0
  131.5690  131.9450   59.8350 C   0  0  0  0  0  0  0  0  0  0  0  0
  127.9810  127.8670   56.8570 C   0  0  0  0  0  0  0  0  0  0  0  0
  127.9630  128.6920   55.9670 O   0  0  0  0  0  0  0  0  0  0  0  0
  126.9390  127.0600   57.2160 O   0  0  0  0  0  0  0  0  0  0  0  0
  128.1350  125.2990   58.9930 N   0  0  0  0  0  0  0  0  0  0  0  0
  127.7120  123.8730   59.1350 C   0  0  0  0  0  0  0  0  0  0  0  0
  127.4050  123.4740   57.6520 C   0  0  0  0  0  0  0  0  0  0  0  0
  126.4250  122.5170   57.3390 C   0  0  0  0  0  0  0  0  0  0  0  0
  126.1590  122.1710   56.0170 C   0  0  0  0  0  0  0  0  0  0  0  0
  126.8760  122.7690   54.9860 C   0  0  0  0  0  0  0  0  0  0  0  0
  127.8500  123.7200   55.2670 C   0  0  0  0  0  0  0  0  0  0  0  0
  128.1080  124.0730   56.5880 C   0  0  0  0  0  0  0  0  0  0  0  0
  128.9250  123.0830   59.7310 C   0  0  0  0  0  0  0  0  0  0  0  0
  130.2110  123.6430   59.7940 C   0  0  0  0  0  0  0  0  0  0  0  0
  131.2800  122.9150   60.3110 C   0  0  0  0  0  0  0  0  0  0  0  0
  131.0770  121.6170   60.7690 C   0  0  0  0  0  0  0  0  0  0  0  0
  129.8120  121.0420   60.7210 C   0  0  0  0  0  0  0  0  0  0  0  0
  128.7440  121.7740   60.2120 C   0  0  0  0  0  0  0  0  0  0  0  0
  126.4340  123.8860   60.0390 C   0  0  0  0  0  0  0  0  0  0  0  0
  126.5170  123.6060   61.4150 C   0  0  0  0  0  0  0  0  0  0  0  0
  125.3830  123.6080   62.2220 C   0  0  0  0  0  0  0  0  0  0  0  0
  124.1420  123.8990   61.6680 C   0  0  0  0  0  0  0  0  0  0  0  0
  124.0300  124.1940   60.3150 C   0  0  0  0  0  0  0  0  0  0  0  0
  125.1660  124.1910   59.5110 C   0  0  0  0  0  0  0  0  0  0  0  0
  127.9832  128.3244   59.3801 H   0  0  0  0  0  0  0  0  0  0  0  0
  129.7275  127.9680   59.8060 H   0  0  0  0  0  0  0  0  0  0  0  0
  129.5450  126.5186   57.5934 H   0  0  0  0  0  0  0  0  0  0  0  0
  130.3060  128.8630   56.4430 H   0  0  0  0  0  0  0  0  0  0  0  0
  133.2781  130.0064   59.3336 H   0  0  0  0  0  0  0  0  0  0  0  0
  133.9878  130.5950   57.7802 H   0  0  0  0  0  0  0  0  0  0  0  0
  133.3197  132.4971   58.6274 H   0  0  0  0  0  0  0  0  0  0  0  0
  132.6232  132.2031   55.6910 H   0  0  0  0  0  0  0  0  0  0  0  0
  130.7142  132.8552   54.2221 H   0  0  0  0  0  0  0  0  0  0  0  0
  128.4628  133.2766   55.2100 H   0  0  0  0  0  0  0  0  0  0  0  0
  128.1163  133.0542   57.6742 H   0  0  0  0  0  0  0  0  0  0  0  0
  128.2620  132.7141   60.2531 H   0  0  0  0  0  0  0  0  0  0  0  0
  128.8899  132.3135   62.6363 H   0  0  0  0  0  0  0  0  0  0  0  0
  131.2304  131.6803   63.2236 H   0  0  0  0  0  0  0  0  0  0  0  0
  132.9489  131.4459   61.4304 H   0  0  0  0  0  0  0  0  0  0  0  0
  126.3450  126.8870   56.4830 H   0  0  0  0  0  0  0  0  0  0  0  0
  128.0970  125.6120   58.0340 H   0  0  0  0  0  0  0  0  0  0  0  0
  125.8599  122.0343   58.1500 H   0  0  0  0  0  0  0  0  0  0  0  0
  125.3829  121.4258   55.7881 H   0  0  0  0  0  0  0  0  0  0  0  0
  126.6711  122.4878   53.9425 H   0  0  0  0  0  0  0  0  0  0  0  0
  128.4143  124.1914   54.4488 H   0  0  0  0  0  0  0  0  0  0  0  0
  128.8736  124.8324   56.8052 H   0  0  0  0  0  0  0  0  0  0  0  0
  130.3761  124.6682   59.4310 H   0  0  0  0  0  0  0  0  0  0  0  0
  132.2825  123.3653   60.3571 H   0  0  0  0  0  0  0  0  0  0  0  0
  131.9234  121.0415   61.1720 H   0  0  0  0  0  0  0  0  0  0  0  0
  129.6566  120.0150   61.0831 H   0  0  0  0  0  0  0  0  0  0  0  0
  127.7417  121.3215   60.1854 H   0  0  0  0  0  0  0  0  0  0  0  0
  127.4967  123.3812   61.8617 H   0  0  0  0  0  0  0  0  0  0  0  0
  125.4687  123.3800   63.2947 H   0  0  0  0  0  0  0  0  0  0  0  0
  123.2443  123.8957   62.3037 H   0  0  0  0  0  0  0  0  0  0  0  0
  123.0470  124.4291   59.8808 H   0  0  0  0  0  0  0  0  0  0  0  0
  125.0707  124.4318   58.4419 H   0  0  0  0  0  0  0  0  0  0  0  0
  1  2  2  0
  2  3  1  0
  3  4  1  0
  4  5  1  0
  5  6  1  0
  6  7  2  0
  6  8  1  0
  8  9  1  0
  9 10  1  0
 10 11  1  0
 11 12  2  0
 12 13  1  0
 13 14  2  0
 14 15  1  0
 15 16  2  0
 16 17  1  0
 17 18  2  0
 18 19  1  0
 19 20  2  0
 20 21  1  0
 21 22  2  0
  4 23  1  0
 23 24  2  0
 23 25  1  0
  2 26  1  0
 26 27  1  0
 27 28  1  0
 28 29  2  0
 29 30  1  0
 30 31  2  0
 31 32  1  0
 32 33  2  0
 27 34  1  0
 34 35  2  0
 35 36  1  0
 36 37  2  0
 37 38  1  0
 38 39  2  0
 27 40  1  0
 40 41  2  0
 41 42  1  0
 42 43  2  0
 43 44  1  0
 44 45  2  0
 22 10  1  0
 33 28  1  0
 39 34  1  0
 45 40  1  0
 16 11  1  0
 22 17  1  0
  3 46  1  0
  3 47  1  0
  4 48  1  6
  5 49  1  0
  9 50  1  0
  9 51  1  0
 10 52  1  0
 12 53  1  0
 13 54  1  0
 14 55  1  0
 15 56  1  0
 18 57  1  0
 19 58  1  0
 20 59  1  0
 21 60  1  0
 25 61  1  0
 26 62  1  0
 29 63  1  0
 30 64  1  0
 31 65  1  0
 32 66  1  0
 33 67  1  0
 35 68  1  0
 36 69  1  0
 37 70  1  0
 38 71  1  0
 39 72  1  0
 41 73  1  0
 42 74  1  0
 43 75  1  0
 44 76  1  0
 45 77  1  0
M  END
>  <Binding energies>  (1) 
[-11.43]

>  <Ligand effiencies>  (1) 
[-0.238125]

>  <Interactions>  (1) 
["V-B:TYR:539:CD2:9845, V-B:MET:535:CE:9806, V-B:ASP:366:CG:8184, V-B:TYR:539:CE2:9847, V-B:TYR:539:C:9838, V-B:PRO:540:CD:9858, V-A:ASP:366:CG:3212, V-B:PRO:540:N:9855, V-B:LEU:363:CA:8156, V-B:PRO:540:CB:9856, H-B:TYR:531:OH:9766, V-A:ASP:366:CB:3211, V-B:PRO:540:CA:9854, V-B:TYR:539:CZ:9848, V-A:PRO:540:N:4884, V-A:PRO:540:CB:4885, V-A:TYR:539:CD2:4874, V-A:ALA:541:CB:4892, V-A:PRO:540:CA:4883, V-A:TYR:539:C:4867, V-B:GLU:543:CD:9879, V-B:GLU:543:CG:9878, V-A:TYR:539:CE2:4876, V-A:TYR:539:CZ:4877, V-B:TYR:539:CD1:9844, V-B:TYR:539:CE1:9846, V-B:ALA:541:CB:9863, V-B:PRO:540:C:9852, V-B:ASN:362:CB:8147, H-A:TYR:531:OH:4795, V-A:LEU:363:CD1:3188, V-A:TYR:531:CZ:4794, V-B:ASN:362:C:8143, V-A:MET:535:CE:4835, V-A:TYR:539:CG:4872, V-A:ILE:538:CA:4860, V-A:TYR:539:CD1:4873, V-A:ILE:538:CB:4862, V-A:TYR:539:CE1:4875, V-A:ILE:538:CG2:4863, V-B:ILE:538:CA:9831, V-B:ASN:362:CA:8145, H-B:MET:535:SD:9805"]

$$$$
RR5_Rahimova_2017-again1
     RDKit          3D

 76 81  0  0  0  0  0  0  0  0999 V2000
  125.9130  126.3270   58.2340 O   0  0  0  0  0  0  0  0  0  0  0  0
  126.9890  126.6680   58.7230 C   0  0  0  0  0  0  0  0  0  0  0  0
  127.3060  128.1730   58.8450 C   0  0  0  0  0  0  0  0  0  0  0  0
  128.1110  128.8190   57.6700 C   0  0  2  0  0  0  0  0  0  0  0  0
  129.4120  129.3010   58.1820 N   0  0  0  0  0  0  0  0  0  0  0  0
  130.4140  128.4200   58.5740 C   0  0  0  0  0  0  0  0  0  0  0  0
  130.3500  127.1870   58.5710 O   0  0  0  0  0  0  0  0  0  0  0  0
  131.4860  129.1330   58.9670 O   0  0  0  0  0  0  0  0  0  0  0  0
  132.2980  129.8150   58.0170 C   0  0  0  0  0  0  0  0  0  0  0  0
  132.1710  131.3380   58.2080 C   0  0  0  0  0  0  0  0  0  0  0  0
  131.3180  132.0130   57.1480 C   0  0  0  0  0  0  0  0  0  0  0  0
  131.4890  132.0570   55.7620 C   0  0  0  0  0  0  0  0  0  0  0  0
  130.5610  132.7320   54.9660 C   0  0  0  0  0  0  0  0  0  0  0  0
  129.4650  133.3680   55.5540 C   0  0  0  0  0  0  0  0  0  0  0  0
  129.2950  133.3300   56.9380 C   0  0  0  0  0  0  0  0  0  0  0  0
  130.2240  132.6530   57.7310 C   0  0  0  0  0  0  0  0  0  0  0  0
  130.2970  132.4660   59.1890 C   0  0  0  0  0  0  0  0  0  0  0  0
  129.4620  132.9100   60.2150 C   0  0  0  0  0  0  0  0  0  0  0  0
  129.7710  132.6000   61.5410 C   0  0  0  0  0  0  0  0  0  0  0  0
  130.9100  131.8490   61.8370 C   0  0  0  0  0  0  0  0  0  0  0  0
  131.7430  131.4040   60.8080 C   0  0  0  0  0  0  0  0  0  0  0  0
  131.4340  131.7100   59.4790 C   0  0  0  0  0  0  0  0  0  0  0  0
  127.2970  129.9720   56.9560 C   0  0  0  0  0  0  0  0  0  0  0  0
  127.6830  131.1300   57.2400 O   0  0  0  0  0  0  0  0  0  0  0  0
  126.3910  129.6170   56.1630 O   0  0  0  0  0  0  0  0  0  0  0  0
  127.8570  125.7910   59.2710 N   0  0  0  0  0  0  0  0  0  0  0  0
  127.8000  124.3080   59.3170 C   0  0  0  0  0  0  0  0  0  0  0  0
  127.4820  123.7390   57.8980 C   0  0  0  0  0  0  0  0  0  0  0  0
  128.0630  124.3020   56.7480 C   0  0  0  0  0  0  0  0  0  0  0  0
  127.7910  123.7890   55.4830 C   0  0  0  0  0  0  0  0  0  0  0  0
  126.9370  122.7000   55.3500 C   0  0  0  0  0  0  0  0  0  0  0  0
  126.3520  122.1210   56.4710 C   0  0  0  0  0  0  0  0  0  0  0  0
  126.6240  122.6360   57.7360 C   0  0  0  0  0  0  0  0  0  0  0  0
  129.1380  123.6010   59.7050 C   0  0  0  0  0  0  0  0  0  0  0  0
  130.3710  124.2580   59.5510 C   0  0  0  0  0  0  0  0  0  0  0  0
  131.5660  123.6310   59.8950 C   0  0  0  0  0  0  0  0  0  0  0  0
  131.5440  122.3370   60.4040 C   0  0  0  0  0  0  0  0  0  0  0  0
  130.3350  121.6690   60.5760 C   0  0  0  0  0  0  0  0  0  0  0  0
  129.1430  122.2990   60.2310 C   0  0  0  0  0  0  0  0  0  0  0  0
  126.6260  123.9990   60.3110 C   0  0  0  0  0  0  0  0  0  0  0  0
  126.8650  123.6560   61.6530 C   0  0  0  0  0  0  0  0  0  0  0  0
  125.8130  123.4030   62.5270 C   0  0  0  0  0  0  0  0  0  0  0  0
  124.5010  123.5040   62.0750 C   0  0  0  0  0  0  0  0  0  0  0  0
  124.2360  123.8640   60.7590 C   0  0  0  0  0  0  0  0  0  0  0  0
  125.2910  124.1150   59.8860 C   0  0  0  0  0  0  0  0  0  0  0  0
  126.3493  128.7094   58.9280 H   0  0  0  0  0  0  0  0  0  0  0  0
  127.9597  128.2602   59.7254 H   0  0  0  0  0  0  0  0  0  0  0  0
  128.2893  128.0540   56.8999 H   0  0  0  0  0  0  0  0  0  0  0  0
  129.5940  130.2940   58.1830 H   0  0  0  0  0  0  0  0  0  0  0  0
  133.3479  129.5173   58.1555 H   0  0  0  0  0  0  0  0  0  0  0  0
  131.9645  129.5505   57.0027 H   0  0  0  0  0  0  0  0  0  0  0  0
  133.2216  131.6634   58.1898 H   0  0  0  0  0  0  0  0  0  0  0  0
  132.3539  131.5603   55.2981 H   0  0  0  0  0  0  0  0  0  0  0  0
  130.6933  132.7629   53.8744 H   0  0  0  0  0  0  0  0  0  0  0  0
  128.7354  133.8992   54.9251 H   0  0  0  0  0  0  0  0  0  0  0  0
  128.4330  133.8311   57.4027 H   0  0  0  0  0  0  0  0  0  0  0  0
  128.5647  133.5014   59.9804 H   0  0  0  0  0  0  0  0  0  0  0  0
  129.1161  132.9480   62.3534 H   0  0  0  0  0  0  0  0  0  0  0  0
  131.1518  131.6073   62.8825 H   0  0  0  0  0  0  0  0  0  0  0  0
  132.6409  130.8136   61.0427 H   0  0  0  0  0  0  0  0  0  0  0  0
  128.7350  126.1760   59.5850 H   0  0  0  0  0  0  0  0  0  0  0  0
  128.7428  125.1608   56.8496 H   0  0  0  0  0  0  0  0  0  0  0  0
  128.2497  124.2432   54.5924 H   0  0  0  0  0  0  0  0  0  0  0  0
  126.7224  122.2933   54.3507 H   0  0  0  0  0  0  0  0  0  0  0  0
  125.6771  121.2596   56.3589 H   0  0  0  0  0  0  0  0  0  0  0  0
  126.1616  122.1740   58.6207 H   0  0  0  0  0  0  0  0  0  0  0  0
  130.3924  125.2831   59.1527 H   0  0  0  0  0  0  0  0  0  0  0  0
  132.5232  124.1571   59.7647 H   0  0  0  0  0  0  0  0  0  0  0  0
  132.4872  121.8386   60.6722 H   0  0  0  0  0  0  0  0  0  0  0  0
  130.3218  120.6472   60.9830 H   0  0  0  0  0  0  0  0  0  0  0  0
  128.1897  121.7687   60.3726 H   0  0  0  0  0  0  0  0  0  0  0  0
  127.9004  123.5866   62.0178 H   0  0  0  0  0  0  0  0  0  0  0  0
  126.0174  123.1242   63.5713 H   0  0  0  0  0  0  0  0  0  0  0  0
  123.6683  123.2976   62.7635 H   0  0  0  0  0  0  0  0  0  0  0  0
  123.1969  123.9503   60.4086 H   0  0  0  0  0  0  0  0  0  0  0  0
  125.0767  124.4086   58.8478 H   0  0  0  0  0  0  0  0  0  0  0  0
  1  2  2  0
  2  3  1  0
  3  4  1  0
  4  5  1  0
  5  6  1  0
  6  7  2  0
  6  8  1  0
  8  9  1  0
  9 10  1  0
 10 11  1  0
 11 12  2  0
 12 13  1  0
 13 14  2  0
 14 15  1  0
 15 16  2  0
 16 17  1  0
 17 18  2  0
 18 19  1  0
 19 20  2  0
 20 21  1  0
 21 22  2  0
  4 23  1  0
 23 24  2  0
 23 25  1  0
  2 26  1  0
 26 27  1  0
 27 28  1  0
 28 29  2  0
 29 30  1  0
 30 31  2  0
 31 32  1  0
 32 33  2  0
 27 34  1  0
 34 35  2  0
 35 36  1  0
 36 37  2  0
 37 38  1  0
 38 39  2  0
 27 40  1  0
 40 41  2  0
 41 42  1  0
 42 43  2  0
 43 44  1  0
 44 45  2  0
 22 10  1  0
 33 28  1  0
 39 34  1  0
 45 40  1  0
 16 11  1  0
 22 17  1  0
  3 46  1  0
  3 47  1  0
  4 48  1  6
  5 49  1  0
  9 50  1  0
  9 51  1  0
 10 52  1  0
 12 53  1  0
 13 54  1  0
 14 55  1  0
 15 56  1  0
 18 57  1  0
 19 58  1  0
 20 59  1  0
 21 60  1  0
 26 61  1  0
 29 62  1  0
 30 63  1  0
 31 64  1  0
 32 65  1  0
 33 66  1  0
 35 67  1  0
 36 68  1  0
 37 69  1  0
 38 70  1  0
 39 71  1  0
 41 72  1  0
 42 73  1  0
 43 74  1  0
 44 75  1  0
 45 76  1  0
M  CHG  1  25  -1
M  END
>  <Binding energies>  (1) 
[-10.93]

>  <Ligand effiencies>  (1) 
[-0.23255319148936168]

>  <Interactions>  (1) 
["V-B:TYR:539:CD2:9845, V-B:MET:535:CE:9806, V-B:TYR:539:CE2:9847, V-B:TYR:539:C:9838, V-B:PRO:540:CD:9858, V-A:ASP:366:CG:3212, V-B:PRO:540:N:9855, V-A:ILE:369:CG2:3236, V-B:PRO:540:CB:9856, H-B:TYR:531:OH:9766, V-A:ASP:366:CB:3211, V-B:PRO:540:CA:9854, V-B:TYR:539:CZ:9848, V-A:PRO:540:N:4884, V-A:PRO:540:CB:4885, V-A:TYR:539:CD2:4874, V-A:ALA:541:CB:4892, V-A:PRO:540:CA:4883, V-A:TYR:539:C:4867, V-B:GLU:543:CD:9879, V-B:GLU:543:CG:9878, V-A:TYR:539:CE2:4876, V-A:TYR:539:CZ:4877, V-B:TYR:539:CA:9840, V-B:TYR:539:CD1:9844, V-B:TYR:539:CE1:9846, V-B:ALA:541:CB:9863, V-B:ALA:541:CA:9861, V-B:ALA:541:C:9859, V-B:ASN:362:CB:8147, H-A:TYR:531:OH:4795, V-A:TYR:531:CE2:4793, V-A:LEU:363:CD1:3188, V-A:TYR:531:CZ:4794, V-B:ASN:362:C:8143, V-A:MET:535:CE:4835, V-A:TYR:539:CA:4869, V-A:TYR:539:CG:4872, V-A:ILE:538:CA:4860, V-A:TYR:539:CD1:4873, V-A:ILE:538:CB:4862, V-A:TYR:539:CE1:4875, V-A:ILE:538:C:4858, V-A:ILE:538:CG2:4863, V-B:ASN:362:CG:8148"]

$$$$
RR6_Rahimova_2017
     RDKit          3D

 63 66  0  0  0  0  0  0  0  0999 V2000
  125.9850  130.7350   56.6120 C   0  0  0  0  0  0  0  0  0  0  0  0
  124.8410  130.4030   57.3860 O   0  0  0  0  0  0  0  0  0  0  0  0
  124.4020  131.2270   58.3720 C   0  0  0  0  0  0  0  0  0  0  0  0
  123.7380  132.2470   58.1600 O   0  0  0  0  0  0  0  0  0  0  0  0
  124.8030  130.7750   59.7470 C   0  0  0  0  0  0  0  0  0  0  0  0
  125.8890  129.9140   59.9590 C   0  0  0  0  0  0  0  0  0  0  0  0
  126.2310  129.5060   61.2470 C   0  0  0  0  0  0  0  0  0  0  0  0
  125.4850  129.9530   62.3470 C   0  0  0  0  0  0  0  0  0  0  0  0
  125.7250  129.5810   63.6830 N   0  0  0  0  0  0  0  0  0  0  0  0
  124.9130  129.6820   64.7590 C   0  0  0  0  0  0  0  0  0  0  0  0
  123.7650  130.1270   64.7480 O   0  0  0  0  0  0  0  0  0  0  0  0
  125.5290  129.2520   66.0950 C   0  0  0  0  0  0  0  0  0  0  0  0
  127.1860  129.9510   66.3970 S   0  0  0  0  0  0  0  0  0  0  0  0
  128.2450  128.5890   66.8380 C   0  0  0  0  0  0  0  0  0  0  0  0
  128.4480  128.4490   68.1700 N   0  0  0  0  0  0  0  0  0  0  0  0
  129.2140  127.4290   68.6310 C   0  0  0  0  0  0  0  0  0  0  0  0
  129.3390  127.3080   70.1220 C   0  0  0  0  0  0  0  0  0  0  0  0
  130.1390  128.1980   70.8540 C   0  0  0  0  0  0  0  0  0  0  0  0
  130.2650  128.0780   72.2360 C   0  0  0  0  0  0  0  0  0  0  0  0
  129.5860  127.0650   72.9130 C   0  0  0  0  0  0  0  0  0  0  0  0
  129.7340  126.9320   74.4170 C   0  0  0  0  0  0  0  0  0  0  0  0
  128.7850  126.1730   72.2040 C   0  0  0  0  0  0  0  0  0  0  0  0
  128.6620  126.2980   70.8240 C   0  0  0  0  0  0  0  0  0  0  0  0
  129.8100  126.5250   67.7450 C   0  0  0  0  0  0  0  0  0  0  0  0
  129.6190  126.6520   66.3620 C   0  0  0  0  0  0  0  0  0  0  0  0
  130.2680  125.6420   65.4740 C   0  0  0  0  0  0  0  0  0  0  0  0
  131.4150  125.9780   64.7490 C   0  0  0  0  0  0  0  0  0  0  0  0
  132.0370  125.0380   63.9310 C   0  0  0  0  0  0  0  0  0  0  0  0
  131.5290  123.7440   63.8270 C   0  0  0  0  0  0  0  0  0  0  0  0
  132.2110  122.8780   62.9950 O   0  0  0  0  0  0  0  0  0  0  0  0
  133.4380  123.3010   62.4090 C   0  0  0  0  0  0  0  0  0  0  0  0
  130.3810  123.3990   64.5580 C   0  0  0  0  0  0  0  0  0  0  0  0
  129.7620  124.3420   65.3740 C   0  0  0  0  0  0  0  0  0  0  0  0
  128.8170  127.7190   65.8880 C   0  0  0  0  0  0  0  0  0  0  0  0
  128.5990  127.9260   64.4520 C   0  0  0  0  0  0  0  0  0  0  0  0
  128.4270  128.0890   63.3200 N   0  0  0  0  0  0  0  0  0  0  0  0
  124.4140  130.8230   62.1420 C   0  0  0  0  0  0  0  0  0  0  0  0
  124.0720  131.2270   60.8540 C   0  0  0  0  0  0  0  0  0  0  0  0
  126.8229  130.9782   57.2819 H   0  0  0  0  0  0  0  0  0  0  0  0
  126.2593  129.8794   55.9774 H   0  0  0  0  0  0  0  0  0  0  0  0
  125.7586  131.6045   55.9774 H   0  0  0  0  0  0  0  0  0  0  0  0
  126.4768  129.5571   59.1005 H   0  0  0  0  0  0  0  0  0  0  0  0
  127.0871  128.8326   61.4009 H   0  0  0  0  0  0  0  0  0  0  0  0
  126.6690  129.2750   63.8660 H   0  0  0  0  0  0  0  0  0  0  0  0
  124.8614  129.5781   66.9062 H   0  0  0  0  0  0  0  0  0  0  0  0
  125.6430  128.1585   66.0593 H   0  0  0  0  0  0  0  0  0  0  0  0
  130.6747  129.0025   70.3289 H   0  0  0  0  0  0  0  0  0  0  0  0
  130.9000  128.7822   72.7935 H   0  0  0  0  0  0  0  0  0  0  0  0
  129.0051  127.5871   74.9165 H   0  0  0  0  0  0  0  0  0  0  0  0
  129.5518  125.8882   74.7125 H   0  0  0  0  0  0  0  0  0  0  0  0
  130.7525  127.2243   74.7125 H   0  0  0  0  0  0  0  0  0  0  0  0
  128.2506  125.3711   72.7344 H   0  0  0  0  0  0  0  0  0  0  0  0
  128.0227  125.5927   70.2728 H   0  0  0  0  0  0  0  0  0  0  0  0
  130.4336  125.7079   68.1368 H   0  0  0  0  0  0  0  0  0  0  0  0
  131.8300  126.9939   64.8253 H   0  0  0  0  0  0  0  0  0  0  0  0
  132.9360  125.3188   63.3627 H   0  0  0  0  0  0  0  0  0  0  0  0
  134.1574  123.5490   63.2033 H   0  0  0  0  0  0  0  0  0  0  0  0
  133.8449  122.4913   61.7855 H   0  0  0  0  0  0  0  0  0  0  0  0
  133.2595  124.1895   61.7855 H   0  0  0  0  0  0  0  0  0  0  0  0
  129.9697  122.3813   64.4858 H   0  0  0  0  0  0  0  0  0  0  0  0
  128.8654  124.0616   65.9462 H   0  0  0  0  0  0  0  0  0  0  0  0
  123.8365  131.1919   63.0025 H   0  0  0  0  0  0  0  0  0  0  0  0
  123.2205  131.9070   60.7041 H   0  0  0  0  0  0  0  0  0  0  0  0
  1  2  1  0
  2  3  1  0
  3  4  2  0
  3  5  1  0
  5  6  2  0
  6  7  1  0
  7  8  2  0
  8  9  1  0
  9 10  1  0
 10 11  2  0
 10 12  1  0
 12 13  1  0
 13 14  1  0
 14 15  2  0
 15 16  1  0
 16 17  1  0
 17 18  2  0
 18 19  1  0
 19 20  2  0
 20 21  1  0
 20 22  1  0
 22 23  2  0
 16 24  2  0
 24 25  1  0
 25 26  1  0
 26 27  2  0
 27 28  1  0
 28 29  2  0
 29 30  1  0
 30 31  1  0
 29 32  1  0
 32 33  2  0
 25 34  2  0
 34 35  1  0
 35 36  3  0
  8 37  1  0
 37 38  2  0
 38  5  1  0
 34 14  1  0
 23 17  1  0
 33 26  1  0
  1 39  1  0
  1 40  1  0
  1 41  1  0
  6 42  1  0
  7 43  1  0
  9 44  1  0
 12 45  1  0
 12 46  1  0
 18 47  1  0
 19 48  1  0
 21 49  1  0
 21 50  1  0
 21 51  1  0
 22 52  1  0
 23 53  1  0
 24 54  1  0
 27 55  1  0
 28 56  1  0
 31 57  1  0
 31 58  1  0
 31 59  1  0
 32 60  1  0
 33 61  1  0
 37 62  1  0
 38 63  1  0
M  END
>  <Binding energies>  (1) 
[-9.44]

>  <Ligand effiencies>  (1) 
[-0.24205128205128204]

>  <Interactions>  (1) 
["V-B:ASP:366:CG:8184, H-B:TYR:531:OH:9766, V-B:ASP:366:CB:8183, H-B:GLU:543:OE2:9881, V-A:GLU:543:CD:4908, V-A:GLU:543:CG:4907, V-B:ILE:369:CD1:8210, H-B:GLY:454:N:9021, V-B:GLU:543:CD:9879, V-B:HIS:456:CE1:9041, H-B:ARG:545:NH1:9898, H-B:ARG:545:NH2:9899, H-B:ARG:545:NE:9895, V-A:HIS:456:CE1:4069, V-B:GLU:543:CG:9878, V-B:GLU:543:CB:9877, V-A:TYR:539:CE2:4876, V-A:TYR:539:CZ:4877, V-B:ASP:366:CA:8181, V-A:ILE:369:CD1:3238, V-B:ARG:545:CZ:9897, H-A:TYR:539:OH:4878, H-B:TYR:484:OH:9319"]

$$$$
RR7_Rahimova_2017
     RDKit          3D

 80 86  0  0  0  0  0  0  0  0999 V2000
  124.3750  129.5730   67.2600 C   0  0  0  0  0  0  0  0  0  0  0  0
  123.5630  129.8380   66.1190 O   0  0  0  0  0  0  0  0  0  0  0  0
  124.1530  130.3370   64.9750 C   0  0  0  0  0  0  0  0  0  0  0  0
  125.1150  131.3300   65.1520 C   0  0  0  0  0  0  0  0  0  0  0  0
  125.7670  131.8900   64.0580 C   0  0  0  0  0  0  0  0  0  0  0  0
  125.4630  131.4750   62.7530 C   0  0  0  0  0  0  0  0  0  0  0  0
  126.2020  132.0610   61.5100 C   0  0  0  0  0  0  0  0  0  0  0  0
  127.4870  131.4010   61.4510 O   0  0  0  0  0  0  0  0  0  0  0  0
  128.2340  131.1780   62.6520 C   0  0  0  0  0  0  0  0  0  0  0  0
  128.4530  129.6670   62.8320 C   0  0  1  0  0  0  0  0  0  0  0  0
  128.9640  129.4790   64.1490 O   0  0  0  0  0  0  0  0  0  0  0  0
  128.1440  128.6440   64.9140 C   0  0  1  0  0  0  0  0  0  0  0  0
  128.1790  129.0480   66.3070 N   0  0  0  0  0  0  0  0  0  0  0  0
  127.6380  130.1860   66.8780 C   0  0  0  0  0  0  0  0  0  0  0  0
  127.8570  130.3290   68.1620 N   0  0  0  0  0  0  0  0  0  0  0  0
  128.6340  129.2490   68.4820 C   0  0  0  0  0  0  0  0  0  0  0  0
  129.2150  128.8320   69.6950 C   0  0  0  0  0  0  0  0  0  0  0  0
  128.9970  129.6070   70.8500 N   0  0  0  0  0  0  0  0  0  0  0  0
  129.6370  129.5590   72.0420 C   0  0  0  0  0  0  0  0  0  0  0  0
  130.5470  128.7710   72.3110 O   0  0  0  0  0  0  0  0  0  0  0  0
  129.1460  130.5370   73.0890 C   0  0  0  0  0  0  0  0  0  0  0  0
  129.5450  130.3810   74.4250 C   0  0  0  0  0  0  0  0  0  0  0  0
  129.1100  131.2710   75.4030 C   0  0  0  0  0  0  0  0  0  0  0  0
  128.2760  132.3280   75.0520 C   0  0  0  0  0  0  0  0  0  0  0  0
  127.8730  132.5030   73.7310 C   0  0  0  0  0  0  0  0  0  0  0  0
  128.3070  131.6120   72.7520 C   0  0  0  0  0  0  0  0  0  0  0  0
  129.9740  127.6950   69.7170 N   0  0  0  0  0  0  0  0  0  0  0  0
  130.1320  127.0160   68.5500 C   0  0  0  0  0  0  0  0  0  0  0  0
  129.6160  127.3250   67.3300 N   0  0  0  0  0  0  0  0  0  0  0  0
  128.8730  128.4390   67.3420 C   0  0  0  0  0  0  0  0  0  0  0  0
  126.7710  128.7190   64.2570 C   0  0  0  0  0  0  0  0  0  0  0  0
  127.1750  128.8170   62.7960 C   0  0  2  0  0  0  0  0  0  0  0  0
  127.3900  127.5420   62.2170 O   0  0  0  0  0  0  0  0  0  0  0  0
  125.4680  131.7410   60.1810 C   0  0  0  0  0  0  0  0  0  0  0  0
  124.1350  132.1430   59.9940 C   0  0  0  0  0  0  0  0  0  0  0  0
  123.4620  131.8500   58.8120 C   0  0  0  0  0  0  0  0  0  0  0  0
  124.1160  131.1490   57.8030 C   0  0  0  0  0  0  0  0  0  0  0  0
  125.4360  130.7400   57.9670 C   0  0  0  0  0  0  0  0  0  0  0  0
  126.1080  131.0340   59.1500 C   0  0  0  0  0  0  0  0  0  0  0  0
  126.4110  133.6020   61.5110 C   0  0  0  0  0  0  0  0  0  0  0  0
  125.3080  134.4690   61.5740 C   0  0  0  0  0  0  0  0  0  0  0  0
  125.4840  135.8490   61.5660 C   0  0  0  0  0  0  0  0  0  0  0  0
  126.7690  136.3790   61.4850 C   0  0  0  0  0  0  0  0  0  0  0  0
  127.8750  135.5390   61.4090 C   0  0  0  0  0  0  0  0  0  0  0  0
  127.6970  134.1590   61.4170 C   0  0  0  0  0  0  0  0  0  0  0  0
  124.5050  130.4650   62.5810 C   0  0  0  0  0  0  0  0  0  0  0  0
  123.8530  129.9040   63.6750 C   0  0  0  0  0  0  0  0  0  0  0  0
  123.7946  129.7624   68.1750 H   0  0  0  0  0  0  0  0  0  0  0  0
  124.6999  128.5222   67.2428 H   0  0  0  0  0  0  0  0  0  0  0  0
  125.2572  130.2299   67.2428 H   0  0  0  0  0  0  0  0  0  0  0  0
  125.3612  131.6745   66.1672 H   0  0  0  0  0  0  0  0  0  0  0  0
  126.5293  132.6667   64.2181 H   0  0  0  0  0  0  0  0  0  0  0  0
  129.2072  131.6858   62.5807 H   0  0  0  0  0  0  0  0  0  0  0  0
  127.6801  131.5785   63.5139 H   0  0  0  0  0  0  0  0  0  0  0  0
  129.1047  129.3527   62.0034 H   0  0  0  0  0  0  0  0  0  0  0  0
  128.4734  127.5947   64.9346 H   0  0  0  0  0  0  0  0  0  0  0  0
  127.0635  130.9203   66.2943 H   0  0  0  0  0  0  0  0  0  0  0  0
  128.2540  130.2860   70.7630 H   0  0  0  0  0  0  0  0  0  0  0  0
  130.2076  129.5478   74.7022 H   0  0  0  0  0  0  0  0  0  0  0  0
  129.4243  131.1392   76.4489 H   0  0  0  0  0  0  0  0  0  0  0  0
  127.9322  133.0313   75.8248 H   0  0  0  0  0  0  0  0  0  0  0  0
  127.2143  133.3417   73.4613 H   0  0  0  0  0  0  0  0  0  0  0  0
  127.9905  131.7513   71.7078 H   0  0  0  0  0  0  0  0  0  0  0  0
  130.7512  126.1081   68.5980 H   0  0  0  0  0  0  0  0  0  0  0  0
  126.1751  127.8158   64.4549 H   0  0  0  0  0  0  0  0  0  0  0  0
  126.1333  129.5408   64.6148 H   0  0  0  0  0  0  0  0  0  0  0  0
  126.3916  129.2651   62.1671 H   0  0  0  0  0  0  0  0  0  0  0  0
  127.0510  126.8720   62.8160 H   0  0  0  0  0  0  0  0  0  0  0  0
  123.6171  132.6960   60.7915 H   0  0  0  0  0  0  0  0  0  0  0  0
  122.4186  132.1707   58.6757 H   0  0  0  0  0  0  0  0  0  0  0  0
  123.5851  130.9163   56.8681 H   0  0  0  0  0  0  0  0  0  0  0  0
  125.9463  130.1866   57.1649 H   0  0  0  0  0  0  0  0  0  0  0  0
  127.1511  130.7092   59.2787 H   0  0  0  0  0  0  0  0  0  0  0  0
  124.2918  134.0516   61.6304 H   0  0  0  0  0  0  0  0  0  0  0  0
  124.6126  136.5179   61.6234 H   0  0  0  0  0  0  0  0  0  0  0  0
  126.9105  137.4699   61.4811 H   0  0  0  0  0  0  0  0  0  0  0  0
  128.8873  135.9643   61.3428 H   0  0  0  0  0  0  0  0  0  0  0  0
  128.5729  133.4971   61.3490 H   0  0  0  0  0  0  0  0  0  0  0  0
  124.2657  130.1114   61.5672 H   0  0  0  0  0  0  0  0  0  0  0  0
  123.0994  129.1179   63.5196 H   0  0  0  0  0  0  0  0  0  0  0  0
  1  2  1  0
  2  3  1  0
  3  4  2  0
  4  5  1  0
  5  6  2  0
  6  7  1  0
  7  8  1  0
  8  9  1  0
  9 10  1  0
 10 11  1  0
 11 12  1  0
 12 13  1  0
 13 14  1  0
 14 15  2  0
 15 16  1  0
 16 17  2  0
 17 18  1  0
 18 19  1  0
 19 20  2  0
 19 21  1  0
 21 22  2  0
 22 23  1  0
 23 24  2  0
 24 25  1  0
 25 26  2  0
 17 27  1  0
 27 28  2  0
 28 29  1  0
 29 30  2  0
 12 31  1  0
 31 32  1  0
 32 33  1  0
  7 34  1  0
 34 35  2  0
 35 36  1  0
 36 37  2  0
 37 38  1  0
 38 39  2  0
  7 40  1  0
 40 41  2  0
 41 42  1  0
 42 43  2  0
 43 44  1  0
 44 45  2  0
  6 46  1  0
 46 47  2  0
 47  3  1  0
 32 10  1  0
 39 34  1  0
 45 40  1  0
 30 13  1  0
 30 16  1  0
 26 21  1  0
  1 48  1  0
  1 49  1  0
  1 50  1  0
  4 51  1  0
  5 52  1  0
  9 53  1  0
  9 54  1  0
 10 55  1  6
 12 56  1  1
 14 57  1  0
 18 58  1  0
 22 59  1  0
 23 60  1  0
 24 61  1  0
 25 62  1  0
 26 63  1  0
 28 64  1  0
 31 65  1  0
 31 66  1  0
 32 67  1  6
 33 68  1  0
 35 69  1  0
 36 70  1  0
 37 71  1  0
 38 72  1  0
 39 73  1  0
 41 74  1  0
 42 75  1  0
 43 76  1  0
 44 77  1  0
 45 78  1  0
 46 79  1  0
 47 80  1  0
M  END
>  <Binding energies>  (1) 
[-9.9]

>  <Ligand effiencies>  (1) 
[-0.20204081632653062]

>  <Interactions>  (1) 
["V-B:ASP:366:CG:8184, V-B:ASP:366:CB:8183, H-B:GLU:543:OE2:9881, V-A:GLU:543:CD:4908, V-B:LEU:475:CD1:9229, V-B:TRP:381:CH2:8343, V-A:GLU:543:CG:4907, V-A:TYR:539:CD2:4874, V-A:ALA:541:CB:4892, V-B:TRP:381:CZ2:8341, V-A:TYR:539:C:4867, H-A:LYS:547:NZ:4951, V-B:GLY:453:C:9013, H-B:GLY:454:N:9021, V-B:GLU:543:CD:9879, V-B:HIS:456:CE1:9041, V-B:GLY:454:CA:9020, H-B:ARG:545:NH2:9899, H-B:ARG:545:NE:9895, V-A:GLU:543:CB:4906, V-A:HIS:456:CE1:4069, V-B:HIS:456:CG:9037, V-B:TYR:484:CD1:9314, V-B:TYR:484:CG:9313, V-B:TYR:484:CB:9312, V-B:TYR:484:CE1:9316, V-B:ILE:369:CG2:8208, V-A:TYR:539:CE2:4876, V-A:TYR:539:CZ:4877, V-B:ASP:366:CA:8181, V-B:ASP:366:C:8179, V-B:ARG:545:CZ:9897, V-B:TYR:484:CZ:9318, H-B:TYR:484:OH:9319, V-B:ARG:545:CG:9893, V-B:ILE:369:CB:8207, V-A:LYS:547:CE:4950, H-B:HIS:456:NE2:9042, V-B:ARG:545:CD:9894, H-B:HIS:456:ND1:9038, V-B:TRP:381:CZ3:8342, V-B:GLY:453:CA:9015, H-A:GLU:543:O:4903"]

$$$$
RR8_A_Rahimova_2017
     RDKit          3D

 73 77  0  0  0  0  0  0  0  0999 V2000
  126.8590  128.7560   63.3950 O   0  0  0  0  0  0  0  0  0  0  0  0
  127.3280  128.9560   62.2690 C   0  0  0  0  0  0  0  0  0  0  0  0
  128.5980  128.6110   61.8890 O   0  0  0  0  0  0  0  0  0  0  0  0
  129.6080  129.5660   62.0610 C   0  0  1  0  0  0  0  0  0  0  0  0
  130.1940  129.9220   60.8430 O   0  0  0  0  0  0  0  0  0  0  0  0
  130.5010  131.3130   60.7900 C   0  0  2  0  0  0  0  0  0  0  0  0
  131.9980  131.4730   60.4720 C   0  0  0  0  0  0  0  0  0  0  0  0
  132.2310  131.0430   59.1380 O   0  0  0  0  0  0  0  0  0  0  0  0
  132.5590  132.0960   58.2400 C   0  0  0  0  0  0  0  0  0  0  0  0
  131.3400  132.4610   57.4060 C   0  0  0  0  0  0  0  0  0  0  0  0
  131.4670  132.6330   56.0250 C   0  0  0  0  0  0  0  0  0  0  0  0
  130.3510  132.9610   55.2590 C   0  0  0  0  0  0  0  0  0  0  0  0
  129.1100  133.1130   55.8750 C   0  0  0  0  0  0  0  0  0  0  0  0
  128.9740  132.9370   57.2500 C   0  0  0  0  0  0  0  0  0  0  0  0
  130.0890  132.6070   58.0160 C   0  0  0  0  0  0  0  0  0  0  0  0
  130.0580  131.8370   62.1620 C   0  0  1  0  0  0  0  0  0  0  0  0
  129.4520  133.1260   62.1010 O   0  0  0  0  0  0  0  0  0  0  0  0
  128.5890  133.3500   60.9920 C   0  0  0  0  0  0  0  0  0  0  0  0
  127.4530  134.2780   61.3970 C   0  0  0  0  0  0  0  0  0  0  0  0
  126.1380  133.8020   61.4050 C   0  0  0  0  0  0  0  0  0  0  0  0
  125.0930  134.6480   61.7650 C   0  0  0  0  0  0  0  0  0  0  0  0
  125.3630  135.9700   62.1140 C   0  0  0  0  0  0  0  0  0  0  0  0
  126.6690  136.4550   62.1020 C   0  0  0  0  0  0  0  0  0  0  0  0
  127.7150  135.6090   61.7400 C   0  0  0  0  0  0  0  0  0  0  0  0
  128.9830  130.8520   62.5830 C   0  0  2  0  0  0  0  0  0  0  0  0
  128.8090  130.8720   63.9970 O   0  0  0  0  0  0  0  0  0  0  0  0
  127.7660  131.7130   64.4780 C   0  0  0  0  0  0  0  0  0  0  0  0
  126.7780  130.8970   65.2970 C   0  0  0  0  0  0  0  0  0  0  0  0
  127.2380  130.0160   66.2810 C   0  0  0  0  0  0  0  0  0  0  0  0
  126.3280  129.2780   67.0350 C   0  0  0  0  0  0  0  0  0  0  0  0
  124.9620  129.4250   66.8050 C   0  0  0  0  0  0  0  0  0  0  0  0
  124.4960  130.3040   65.8310 C   0  0  0  0  0  0  0  0  0  0  0  0
  125.4050  131.0430   65.0760 C   0  0  0  0  0  0  0  0  0  0  0  0
  126.5470  129.6000   61.1610 C   0  0  0  0  0  0  0  0  0  0  0  0
  126.9450  129.5010   59.8180 C   0  0  0  0  0  0  0  0  0  0  0  0
  126.1990  130.1110   58.8130 C   0  0  0  0  0  0  0  0  0  0  0  0
  125.0410  130.8360   59.1220 C   0  0  0  0  0  0  0  0  0  0  0  0
  124.2470  131.4840   58.0500 N   0  0  0  0  0  0  0  0  0  0  0  0
  123.7220  132.5690   58.2810 O   0  0  0  0  0  0  0  0  0  0  0  0
  124.1440  130.9130   56.9680 O   0  0  0  0  0  0  0  0  0  0  0  0
  124.6470  130.9360   60.4620 C   0  0  0  0  0  0  0  0  0  0  0  0
  125.3900  130.3270   61.4690 C   0  0  0  0  0  0  0  0  0  0  0  0
  130.3531  129.1291   62.7421 H   0  0  0  0  0  0  0  0  0  0  0  0
  129.9921  131.8887   60.0029 H   0  0  0  0  0  0  0  0  0  0  0  0
  132.2872  132.5292   60.5759 H   0  0  0  0  0  0  0  0  0  0  0  0
  132.5952  130.8675   61.1697 H   0  0  0  0  0  0  0  0  0  0  0  0
  132.8861  132.9761   58.8132 H   0  0  0  0  0  0  0  0  0  0  0  0
  133.3692  131.7655   57.5734 H   0  0  0  0  0  0  0  0  0  0  0  0
  132.4481  132.5094   55.5431 H   0  0  0  0  0  0  0  0  0  0  0  0
  130.4486  133.0995   54.1721 H   0  0  0  0  0  0  0  0  0  0  0  0
  128.2296  133.3744   55.2695 H   0  0  0  0  0  0  0  0  0  0  0  0
  127.9908  133.0581   57.7283 H   0  0  0  0  0  0  0  0  0  0  0  0
  129.9864  132.4610   59.1014 H   0  0  0  0  0  0  0  0  0  0  0  0
  130.9221  131.9255   62.8369 H   0  0  0  0  0  0  0  0  0  0  0  0
  129.1607  133.8098   60.1724 H   0  0  0  0  0  0  0  0  0  0  0  0
  128.1697  132.3887   60.6602 H   0  0  0  0  0  0  0  0  0  0  0  0
  125.9294  132.7584   61.1266 H   0  0  0  0  0  0  0  0  0  0  0  0
  124.0583  134.2747   61.7740 H   0  0  0  0  0  0  0  0  0  0  0  0
  124.5369  136.6370   62.4017 H   0  0  0  0  0  0  0  0  0  0  0  0
  126.8732  137.5003   62.3769 H   0  0  0  0  0  0  0  0  0  0  0  0
  128.7476  135.9877   61.7238 H   0  0  0  0  0  0  0  0  0  0  0  0
  127.9672  131.0372   62.2038 H   0  0  0  0  0  0  0  0  0  0  0  0
  128.1973  132.5039   65.1093 H   0  0  0  0  0  0  0  0  0  0  0  0
  127.2414  132.1639   63.6227 H   0  0  0  0  0  0  0  0  0  0  0  0
  128.3178  129.9058   66.4596 H   0  0  0  0  0  0  0  0  0  0  0  0
  126.6865  128.5826   67.8082 H   0  0  0  0  0  0  0  0  0  0  0  0
  124.2440  128.8405   67.3991 H   0  0  0  0  0  0  0  0  0  0  0  0
  123.4153  130.4147   65.6582 H   0  0  0  0  0  0  0  0  0  0  0  0
  125.0426  131.7407   64.3067 H   0  0  0  0  0  0  0  0  0  0  0  0
  127.8530  128.9372   59.5580 H   0  0  0  0  0  0  0  0  0  0  0  0
  126.5224  130.0226   57.7653 H   0  0  0  0  0  0  0  0  0  0  0  0
  123.7403  131.5021   60.7216 H   0  0  0  0  0  0  0  0  0  0  0  0
  125.0657  130.4174   62.5162 H   0  0  0  0  0  0  0  0  0  0  0  0
  1  2  2  0
  2  3  1  0
  3  4  1  0
  4  5  1  0
  5  6  1  0
  6  7  1  0
  7  8  1  0
  8  9  1  0
  9 10  1  0
 10 11  2  0
 11 12  1  0
 12 13  2  0
 13 14  1  0
 14 15  2  0
  6 16  1  0
 16 17  1  0
 17 18  1  0
 18 19  1  0
 19 20  2  0
 20 21  1  0
 21 22  2  0
 22 23  1  0
 23 24  2  0
 16 25  1  0
 25 26  1  0
 26 27  1  0
 27 28  1  0
 28 29  2  0
 29 30  1  0
 30 31  2  0
 31 32  1  0
 32 33  2  0
  2 34  1  0
 34 35  2  0
 35 36  1  0
 36 37  2  0
 37 38  1  0
 38 39  2  0
 38 40  1  0
 37 41  1  0
 41 42  2  0
 25  4  1  0
 33 28  1  0
 42 34  1  0
 15 10  1  0
 24 19  1  0
  4 43  1  1
  6 44  1  6
  7 45  1  0
  7 46  1  0
  9 47  1  0
  9 48  1  0
 11 49  1  0
 12 50  1  0
 13 51  1  0
 14 52  1  0
 15 53  1  0
 16 54  1  1
 18 55  1  0
 18 56  1  0
 20 57  1  0
 21 58  1  0
 22 59  1  0
 23 60  1  0
 24 61  1  0
 25 62  1  6
 27 63  1  0
 27 64  1  0
 29 65  1  0
 30 66  1  0
 31 67  1  0
 32 68  1  0
 33 69  1  0
 35 70  1  0
 36 71  1  0
 41 72  1  0
 42 73  1  0
M  CHG  2  38   1  40  -1
M  END
>  <Binding energies>  (1) 
[-10.41]

>  <Ligand effiencies>  (1) 
[-0.24785714285714286]

>  <Interactions>  (1) 
["V-B:ASP:366:CG:8184, H-B:TYR:531:OH:9766, V-B:ASP:366:CB:8183, V-A:PRO:540:N:4884, V-B:PRO:482:CB:9297, V-B:LEU:475:CD1:9229, V-B:TRP:381:CH2:8343, V-A:GLU:543:CG:4907, V-A:PRO:540:CB:4885, V-A:TYR:539:CD2:4874, V-A:ALA:541:CB:4892, V-B:PRO:482:CG:9298, V-B:TRP:381:CZ2:8341, H-A:ALA:541:N:4891, V-A:PRO:540:CA:4883, V-A:TYR:539:C:4867, V-B:HIS:456:CE1:9041, V-B:GLY:454:CA:9020, H-B:ARG:545:NH2:9899, V-A:TYR:539:CE2:4876, V-A:TYR:539:CZ:4877, V-B:ARG:545:CZ:9897, V-A:LEU:363:CD1:3188, V-A:MET:535:CE:4835, H-A:TYR:539:OH:4878, V-B:ARG:545:CG:9893, V-A:TYR:539:CG:4872, V-A:ILE:538:CA:4860, V-A:TYR:539:CD1:4873, V-A:ILE:538:CB:4862, V-A:TYR:539:CE1:4875, V-A:ILE:538:C:4858, V-A:ILE:538:CG2:4863, V-B:ARG:545:CD:9894, H-B:ASN:370:N:8215"]

$$$$
RR8_B_Rahimova_2017
     RDKit          3D

 73 77  0  0  0  0  0  0  0  0999 V2000
  123.9420  131.7820   57.6480 O   0  0  0  0  0  0  0  0  0  0  0  0
  124.5710  130.9450   58.3050 C   0  0  0  0  0  0  0  0  0  0  0  0
  125.3590  129.9690   57.7600 O   0  0  0  0  0  0  0  0  0  0  0  0
  126.2050  130.3170   56.6920 C   0  0  2  0  0  0  0  0  0  0  0  0
  126.4140  129.2420   55.8200 O   0  0  0  0  0  0  0  0  0  0  0  0
  127.5690  128.4900   56.1890 C   0  0  2  0  0  0  0  0  0  0  0  0
  127.1670  127.0270   56.4500 C   0  0  0  0  0  0  0  0  0  0  0  0
  128.1820  126.1660   55.9490 O   0  0  0  0  0  0  0  0  0  0  0  0
  128.3940  124.9850   56.7080 C   0  0  0  0  0  0  0  0  0  0  0  0
  127.3130  123.9710   56.3680 C   0  0  0  0  0  0  0  0  0  0  0  0
  127.3890  123.2490   55.1740 C   0  0  0  0  0  0  0  0  0  0  0  0
  126.3900  122.3360   54.8450 C   0  0  0  0  0  0  0  0  0  0  0  0
  125.3180  122.1470   55.7140 C   0  0  0  0  0  0  0  0  0  0  0  0
  125.2380  122.8580   56.9090 C   0  0  0  0  0  0  0  0  0  0  0  0
  126.2350  123.7730   57.2370 C   0  0  0  0  0  0  0  0  0  0  0  0
  128.1430  129.2410   57.3950 C   0  0  1  0  0  0  0  0  0  0  0  0
  129.5720  129.1810   57.3700 O   0  0  0  0  0  0  0  0  0  0  0  0
  130.2320  128.8830   58.6030 C   0  0  0  0  0  0  0  0  0  0  0  0
  131.3780  129.8480   58.8930 C   0  0  0  0  0  0  0  0  0  0  0  0
  131.3490  130.6460   60.0410 C   0  0  0  0  0  0  0  0  0  0  0  0
  132.4110  131.5020   60.3190 C   0  0  0  0  0  0  0  0  0  0  0  0
  133.4960  131.5610   59.4470 C   0  0  0  0  0  0  0  0  0  0  0  0
  133.5290  130.7720   58.2990 C   0  0  0  0  0  0  0  0  0  0  0  0
  132.4690  129.9130   58.0220 C   0  0  0  0  0  0  0  0  0  0  0  0
  127.5940  130.6540   57.2300 C   0  0  2  0  0  0  0  0  0  0  0  0
  127.5760  131.3300   58.4850 O   0  0  0  0  0  0  0  0  0  0  0  0
  128.1040  132.6470   58.4800 C   0  0  0  0  0  0  0  0  0  0  0  0
  129.1480  132.7370   57.3810 C   0  0  0  0  0  0  0  0  0  0  0  0
  130.5070  132.6230   57.6880 C   0  0  0  0  0  0  0  0  0  0  0  0
  131.4570  132.7260   56.6740 C   0  0  0  0  0  0  0  0  0  0  0  0
  131.0460  132.9440   55.3610 C   0  0  0  0  0  0  0  0  0  0  0  0
  129.6920  133.0580   55.0490 C   0  0  0  0  0  0  0  0  0  0  0  0
  128.7430  132.9540   56.0610 C   0  0  0  0  0  0  0  0  0  0  0  0
  124.5200  130.8700   59.8030 C   0  0  0  0  0  0  0  0  0  0  0  0
  125.4920  130.1800   60.5430 C   0  0  0  0  0  0  0  0  0  0  0  0
  125.4140  130.1210   61.9300 C   0  0  0  0  0  0  0  0  0  0  0  0
  124.3590  130.7380   62.6130 C   0  0  0  0  0  0  0  0  0  0  0  0
  124.2640  130.6500   64.0910 N   0  0  0  0  0  0  0  0  0  0  0  0
  123.7420  129.6560   64.5890 O   0  0  0  0  0  0  0  0  0  0  0  0
  124.7150  131.5730   64.7650 O   0  0  0  0  0  0  0  0  0  0  0  0
  123.3920  131.4320   61.8740 C   0  0  0  0  0  0  0  0  0  0  0  0
  123.4720  131.4990   60.4870 C   0  0  0  0  0  0  0  0  0  0  0  0
  125.7210  131.1584   56.1745 H   0  0  0  0  0  0  0  0  0  0  0  0
  128.3440  128.4155   55.4119 H   0  0  0  0  0  0  0  0  0  0  0  0
  127.0485  126.8655   57.5316 H   0  0  0  0  0  0  0  0  0  0  0  0
  126.2151  126.8096   55.9434 H   0  0  0  0  0  0  0  0  0  0  0  0
  129.3815  124.5649   56.4665 H   0  0  0  0  0  0  0  0  0  0  0  0
  128.3528  125.2231   57.7811 H   0  0  0  0  0  0  0  0  0  0  0  0
  128.2391  123.4020   54.4929 H   0  0  0  0  0  0  0  0  0  0  0  0
  126.4472  121.7678   53.9049 H   0  0  0  0  0  0  0  0  0  0  0  0
  124.5264  121.4288   55.4538 H   0  0  0  0  0  0  0  0  0  0  0  0
  124.3902  122.6973   57.5912 H   0  0  0  0  0  0  0  0  0  0  0  0
  126.1749  124.3393   58.1781 H   0  0  0  0  0  0  0  0  0  0  0  0
  127.8604  128.8192   58.3708 H   0  0  0  0  0  0  0  0  0  0  0  0
  129.4995  128.9473   59.4211 H   0  0  0  0  0  0  0  0  0  0  0  0
  130.6557  127.8711   58.5225 H   0  0  0  0  0  0  0  0  0  0  0  0
  130.4879  130.5974   60.7237 H   0  0  0  0  0  0  0  0  0  0  0  0
  132.3936  132.1288   61.2228 H   0  0  0  0  0  0  0  0  0  0  0  0
  134.3351  132.2373   59.6671 H   0  0  0  0  0  0  0  0  0  0  0  0
  134.3885  130.8276   57.6148 H   0  0  0  0  0  0  0  0  0  0  0  0
  132.4902  129.2860   57.1184 H   0  0  0  0  0  0  0  0  0  0  0  0
  128.1647  131.3374   56.5840 H   0  0  0  0  0  0  0  0  0  0  0  0
  127.2979  133.3703   58.2876 H   0  0  0  0  0  0  0  0  0  0  0  0
  128.5586  132.8772   59.4549 H   0  0  0  0  0  0  0  0  0  0  0  0
  130.8254  132.4525   58.7270 H   0  0  0  0  0  0  0  0  0  0  0  0
  132.5277  132.6355   56.9094 H   0  0  0  0  0  0  0  0  0  0  0  0
  131.7975  133.0271   54.5621 H   0  0  0  0  0  0  0  0  0  0  0  0
  129.3760  133.2291   54.0093 H   0  0  0  0  0  0  0  0  0  0  0  0
  127.6729  133.0426   55.8221 H   0  0  0  0  0  0  0  0  0  0  0  0
  126.3226  129.6816   60.0216 H   0  0  0  0  0  0  0  0  0  0  0  0
  126.1891  129.5841   62.4965 H   0  0  0  0  0  0  0  0  0  0  0  0
  122.5610  131.9290   62.3960 H   0  0  0  0  0  0  0  0  0  0  0  0
  122.7058  132.0506   59.9225 H   0  0  0  0  0  0  0  0  0  0  0  0
  1  2  2  0
  2  3  1  0
  3  4  1  0
  4  5  1  0
  5  6  1  0
  6  7  1  0
  7  8  1  0
  8  9  1  0
  9 10  1  0
 10 11  2  0
 11 12  1  0
 12 13  2  0
 13 14  1  0
 14 15  2  0
  6 16  1  0
 16 17  1  0
 17 18  1  0
 18 19  1  0
 19 20  2  0
 20 21  1  0
 21 22  2  0
 22 23  1  0
 23 24  2  0
 16 25  1  0
 25 26  1  0
 26 27  1  0
 27 28  1  0
 28 29  2  0
 29 30  1  0
 30 31  2  0
 31 32  1  0
 32 33  2  0
  2 34  1  0
 34 35  2  0
 35 36  1  0
 36 37  2  0
 37 38  1  0
 38 39  2  0
 38 40  1  0
 37 41  1  0
 41 42  2  0
 25  4  1  0
 33 28  1  0
 42 34  1  0
 15 10  1  0
 24 19  1  0
  4 43  1  6
  6 44  1  6
  7 45  1  0
  7 46  1  0
  9 47  1  0
  9 48  1  0
 11 49  1  0
 12 50  1  0
 13 51  1  0
 14 52  1  0
 15 53  1  0
 16 54  1  1
 18 55  1  0
 18 56  1  0
 20 57  1  0
 21 58  1  0
 22 59  1  0
 23 60  1  0
 24 61  1  0
 25 62  1  6
 27 63  1  0
 27 64  1  0
 29 65  1  0
 30 66  1  0
 31 67  1  0
 32 68  1  0
 33 69  1  0
 35 70  1  0
 36 71  1  0
 41 72  1  0
 42 73  1  0
M  CHG  2  38   1  40  -1
M  END
>  <Binding energies>  (1) 
[-11.61]

>  <Ligand effiencies>  (1) 
[-0.2764285714285714]

>  <Interactions>  (1) 
["V-B:MET:535:CE:9806, V-B:ASP:366:CG:8184, V-B:PRO:540:CD:9858, V-A:ASP:366:CG:3212, V-B:PRO:540:N:9855, V-B:PRO:540:CB:9856, H-B:TYR:531:OH:9766, V-A:ASP:366:CB:3211, V-B:PRO:540:CA:9854, V-B:LEU:363:CD1:8160, V-B:TYR:539:CZ:9848, V-B:TYR:531:CZ:9765, V-B:ASP:366:CB:8183, V-A:PRO:540:N:4884, V-A:PRO:540:CB:4885, V-A:TYR:539:CD2:4874, V-A:PRO:540:CA:4883, V-A:TYR:539:C:4867, V-B:ILE:369:CD1:8210, H-B:GLY:454:N:9021, V-B:GLY:454:CA:9020, H-B:ARG:545:NH1:9898, H-B:ARG:545:NH2:9899, H-B:ARG:545:NE:9895, V-B:ILE:369:CG2:8208, V-A:TYR:539:CE2:4876, V-A:TYR:539:CZ:4877, V-B:ASP:366:CA:8181, V-B:TYR:539:CD1:9844, V-B:TYR:539:CE1:9846, H-A:TYR:531:OH:4795, V-B:ARG:545:CZ:9897, V-A:TYR:531:CE2:4793, V-A:LEU:363:CD1:3188, V-A:TYR:531:CZ:4794, V-A:LEU:363:CA:3184, V-A:MET:535:CE:4835, H-A:TYR:539:OH:4878, H-B:TYR:484:OH:9319, V-B:ILE:369:CB:8207, V-A:TYR:539:CG:4872, V-A:ILE:538:CA:4860, V-A:TYR:539:CD1:4873, V-A:ILE:538:CB:4862, V-A:TYR:539:CE1:4875, V-A:ILE:538:C:4858, V-A:ILE:538:CG2:4863, V-B:ILE:538:CA:9831, V-B:ILE:538:CD1:9836, V-B:ILE:538:CG2:9834"]

$$$$
RR9_Rahimova_2017
     RDKit          3D

 64 68  0  0  0  0  0  0  0  0999 V2000
  132.5910  127.3870   72.5610 C   0  0  0  0  0  0  0  0  0  0  0  0
  131.7230  128.2210   71.6120 C   0  0  0  0  0  0  0  0  0  0  0  0
  130.4830  127.5470   71.4160 O   0  0  0  0  0  0  0  0  0  0  0  0
  129.7480  127.7990   70.2740 C   0  0  0  0  0  0  0  0  0  0  0  0
  129.3750  129.1230   70.0510 C   0  0  0  0  0  0  0  0  0  0  0  0
  128.6310  129.4710   68.9280 C   0  0  0  0  0  0  0  0  0  0  0  0
  128.2380  128.5010   67.9930 C   0  0  0  0  0  0  0  0  0  0  0  0
  127.4320  128.8700   66.7830 C   0  0  0  0  0  0  0  0  0  0  0  0
  127.9590  128.7590   65.4870 C   0  0  0  0  0  0  0  0  0  0  0  0
  127.1940  129.0930   64.3540 C   0  0  0  0  0  0  0  0  0  0  0  0
  127.7790  128.8560   62.9890 C   0  0  0  0  0  0  0  0  0  0  0  0
  128.5210  129.6930   62.4750 O   0  0  0  0  0  0  0  0  0  0  0  0
  127.4160  127.7060   62.3880 N   0  0  0  0  0  0  0  0  0  0  0  0
  127.7460  127.3120   61.0140 C   0  0  0  0  0  0  0  0  0  0  0  0
  127.8000  125.7790   60.8200 C   0  0  0  0  0  0  0  0  0  0  0  0
  126.4480  125.1210   60.5670 C   0  0  0  0  0  0  0  0  0  0  0  0
  125.7600  124.5060   61.6180 C   0  0  0  0  0  0  0  0  0  0  0  0
  124.5100  123.9370   61.3910 C   0  0  0  0  0  0  0  0  0  0  0  0
  123.9540  123.9790   60.1150 C   0  0  0  0  0  0  0  0  0  0  0  0
  124.6360  124.5860   59.0620 C   0  0  0  0  0  0  0  0  0  0  0  0
  125.8860  125.1570   59.2880 C   0  0  0  0  0  0  0  0  0  0  0  0
  125.8860  129.5770   64.6010 C   0  0  0  0  0  0  0  0  0  0  0  0
  124.7520  130.0720   63.8570 C   0  0  0  0  0  0  0  0  0  0  0  0
  124.6170  130.3280   62.3930 C   0  0  0  0  0  0  0  0  0  0  0  0
  125.5170  129.7510   61.4910 C   0  0  0  0  0  0  0  0  0  0  0  0
  125.3990  130.0040   60.1270 C   0  0  0  0  0  0  0  0  0  0  0  0
  124.3780  130.8330   59.6580 C   0  0  0  0  0  0  0  0  0  0  0  0
  124.2610  131.1240   58.1730 C   0  0  0  0  0  0  0  0  0  0  0  0
  123.4800  131.4130   60.5550 C   0  0  0  0  0  0  0  0  0  0  0  0
  123.5970  131.1570   61.9180 C   0  0  0  0  0  0  0  0  0  0  0  0
  123.7470  130.3290   64.6650 N   0  0  0  0  0  0  0  0  0  0  0  0
  124.1550  130.0910   65.9210 N   0  0  0  0  0  0  0  0  0  0  0  0
  125.4550  129.6420   65.9480 C   0  0  0  0  0  0  0  0  0  0  0  0
  126.1680  129.3170   67.0250 N   0  0  0  0  0  0  0  0  0  0  0  0
  128.6150  127.1710   68.2250 C   0  0  0  0  0  0  0  0  0  0  0  0
  129.3610  126.8200   69.3480 C   0  0  0  0  0  0  0  0  0  0  0  0
  132.3356  127.6324   73.6024 H   0  0  0  0  0  0  0  0  0  0  0  0
  132.4079  126.3174   72.3808 H   0  0  0  0  0  0  0  0  0  0  0  0
  133.6524  127.6127   72.3808 H   0  0  0  0  0  0  0  0  0  0  0  0
  131.5400  129.2122   72.0526 H   0  0  0  0  0  0  0  0  0  0  0  0
  132.2371  128.3479   70.6479 H   0  0  0  0  0  0  0  0  0  0  0  0
  129.6717  129.9008   70.7700 H   0  0  0  0  0  0  0  0  0  0  0  0
  128.3466  130.5219   68.7707 H   0  0  0  0  0  0  0  0  0  0  0  0
  128.9915  128.4035   65.3541 H   0  0  0  0  0  0  0  0  0  0  0  0
  126.8740  127.0410   62.9200 H   0  0  0  0  0  0  0  0  0  0  0  0
  126.9818  127.7238   60.3384 H   0  0  0  0  0  0  0  0  0  0  0  0
  128.7482  127.7068   60.7909 H   0  0  0  0  0  0  0  0  0  0  0  0
  128.4515  125.5652   59.9599 H   0  0  0  0  0  0  0  0  0  0  0  0
  128.1780  125.3594   61.7639 H   0  0  0  0  0  0  0  0  0  0  0  0
  126.2062  124.4720   62.6229 H   0  0  0  0  0  0  0  0  0  0  0  0
  123.9638  123.4563   62.2160 H   0  0  0  0  0  0  0  0  0  0  0  0
  122.9665  123.5285   59.9363 H   0  0  0  0  0  0  0  0  0  0  0  0
  124.1891  124.6140   58.0572 H   0  0  0  0  0  0  0  0  0  0  0  0
  126.4303  125.6358   58.4607 H   0  0  0  0  0  0  0  0  0  0  0  0
  126.3198  129.0959   61.8602 H   0  0  0  0  0  0  0  0  0  0  0  0
  126.1094  129.5513   59.4196 H   0  0  0  0  0  0  0  0  0  0  0  0
  123.8542  132.1358   58.0286 H   0  0  0  0  0  0  0  0  0  0  0  0
  125.2553  131.0586   57.7071 H   0  0  0  0  0  0  0  0  0  0  0  0
  123.5887  130.3885   57.7071 H   0  0  0  0  0  0  0  0  0  0  0  0
  122.6805  132.0718   60.1852 H   0  0  0  0  0  0  0  0  0  0  0  0
  122.8843  131.6086   62.6238 H   0  0  0  0  0  0  0  0  0  0  0  0
  123.5320  130.2410   66.7020 H   0  0  0  0  0  0  0  0  0  0  0  0
  128.3169  126.3915   67.5084 H   0  0  0  0  0  0  0  0  0  0  0  0
  129.6476  125.7703   69.5089 H   0  0  0  0  0  0  0  0  0  0  0  0
  1  2  1  0
  2  3  1  0
  3  4  1  0
  4  5  2  0
  5  6  1  0
  6  7  2  0
  7  8  1  0
  8  9  2  0
  9 10  1  0
 10 11  1  0
 11 12  2  0
 11 13  1  0
 13 14  1  0
 14 15  1  0
 15 16  1  0
 16 17  2  0
 17 18  1  0
 18 19  2  0
 19 20  1  0
 20 21  2  0
 10 22  2  0
 22 23  1  0
 23 24  1  0
 24 25  2  0
 25 26  1  0
 26 27  2  0
 27 28  1  0
 27 29  1  0
 29 30  2  0
 23 31  2  0
 31 32  1  0
 32 33  1  0
 33 34  2  0
  7 35  1  0
 35 36  2  0
 36  4  1  0
 34  8  1  0
 21 16  1  0
 33 22  1  0
 30 24  1  0
  1 37  1  0
  1 38  1  0
  1 39  1  0
  2 40  1  0
  2 41  1  0
  5 42  1  0
  6 43  1  0
  9 44  1  0
 13 45  1  0
 14 46  1  0
 14 47  1  0
 15 48  1  0
 15 49  1  0
 17 50  1  0
 18 51  1  0
 19 52  1  0
 20 53  1  0
 21 54  1  0
 25 55  1  0
 26 56  1  0
 28 57  1  0
 28 58  1  0
 28 59  1  0
 29 60  1  0
 30 61  1  0
 32 62  1  0
 35 63  1  0
 36 64  1  0
M  END
>  <Binding energies>  (1) 
[-9.44]

>  <Ligand effiencies>  (1) 
[-0.24842105263157893]

>  <Interactions>  (1) 
["V-B:ASP:366:CG:8184, V-B:LEU:363:CA:8156, V-B:PRO:540:CB:9856, V-B:PRO:540:CA:9854, V-B:ASP:366:CB:8183, H-B:GLU:543:OE2:9881, V-A:GLU:543:CD:4908, V-A:GLU:543:CG:4907, V-B:ILE:369:CD1:8210, V-A:HIS:456:CD2:4067, V-A:HIS:456:CB:4064, H-B:GLY:454:N:9021, V-A:HIS:456:CG:4065, V-B:GLU:543:CD:9879, V-B:HIS:456:CE1:9041, V-B:GLY:454:CA:9020, H-B:ARG:545:NH2:9899, V-A:GLU:543:CB:4906, V-A:HIS:456:CE1:4069, V-B:GLU:543:CB:9877, V-B:TYR:484:CE1:9316, V-B:ILE:369:CG2:8208, V-A:TYR:539:CE2:4876, V-B:ASP:366:CA:8181, V-B:ASP:366:C:8179, V-B:ASN:362:CB:8147, V-B:ARG:545:CZ:9897, V-B:ASN:362:C:8143, H-B:TYR:484:OH:9319, V-B:ILE:369:CB:8207, V-A:ARG:545:CA:4919, V-A:GLY:544:C:4912, V-B:ARG:545:CD:9894, H-B:GLU:543:OE1:9880, H-B:ILE:455:O:9024"]

$$$$
