1a_Ghoteimi_2023
     RDKit          3D

 40 43  0  0  0  0  0  0  0  0999 V2000
  124.8290  131.3730   63.4110 C   0  0  0  0  0  0  0  0  0  0  0  0
  123.7950  132.0150   62.4810 C   0  0  0  0  0  0  0  0  0  0  0  0
  124.0530  133.4100   62.3820 O   0  0  0  0  0  0  0  0  0  0  0  0
  124.5570  133.9520   61.2440 C   0  0  0  0  0  0  0  0  0  0  0  0
  124.0680  134.9380   60.6850 O   0  0  0  0  0  0  0  0  0  0  0  0
  125.7730  133.2330   60.7340 C   0  0  0  0  0  0  0  0  0  0  0  0
  125.6750  132.0910   59.9250 C   0  0  0  0  0  0  0  0  0  0  0  0
  126.8210  131.4440   59.4700 C   0  0  0  0  0  0  0  0  0  0  0  0
  128.0910  131.9320   59.8140 C   0  0  0  0  0  0  0  0  0  0  0  0
  129.3120  131.3560   59.4150 N   0  0  0  0  0  0  0  0  0  0  0  0
  130.4450  131.1550   60.1220 C   0  0  0  0  0  0  0  0  0  0  0  0
  130.6110  131.4430   61.3070 O   0  0  0  0  0  0  0  0  0  0  0  0
  131.5940  130.5060   59.3500 C   0  0  0  0  0  0  0  0  0  0  0  0
  131.0070  129.6700   57.8470 S   0  0  0  0  0  0  0  0  0  0  0  0
  130.4600  128.0580   58.3590 C   0  0  0  0  0  0  0  0  0  0  0  0
  131.0970  127.5840   59.4570 N   0  0  0  0  0  0  0  0  0  0  0  0
  130.7680  126.3630   59.9550 C   0  0  0  0  0  0  0  0  0  0  0  0
  131.5040  125.9180   61.1850 C   0  0  0  0  0  0  0  0  0  0  0  0
  131.0580  126.2710   62.4700 C   0  0  0  0  0  0  0  0  0  0  0  0
  131.7420  125.8560   63.6090 C   0  0  0  0  0  0  0  0  0  0  0  0
  132.8920  125.0790   63.5010 C   0  0  0  0  0  0  0  0  0  0  0  0
  133.5050  124.7110   64.6840 O   0  0  0  0  0  0  0  0  0  0  0  0
  133.2060  125.4330   65.8740 C   0  0  0  0  0  0  0  0  0  0  0  0
  133.3530  124.7220   62.2260 C   0  0  0  0  0  0  0  0  0  0  0  0
  132.6670  125.1390   61.0900 C   0  0  0  0  0  0  0  0  0  0  0  0
  129.7760  125.5880   59.3410 C   0  0  0  0  0  0  0  0  0  0  0  0
  129.1210  126.0460   58.1900 C   0  0  0  0  0  0  0  0  0  0  0  0
  128.0970  125.1510   57.5710 C   0  0  0  0  0  0  0  0  0  0  0  0
  128.4710  124.1470   56.6720 C   0  0  0  0  0  0  0  0  0  0  0  0
  127.5120  123.3080   56.1110 C   0  0  0  0  0  0  0  0  0  0  0  0
  126.1640  123.4500   56.4420 C   0  0  0  0  0  0  0  0  0  0  0  0
  125.2860  122.5730   55.8380 O   0  0  0  0  0  0  0  0  0  0  0  0
  123.8940  122.8720   55.8400 C   0  0  0  0  0  0  0  0  0  0  0  0
  125.7870  124.4510   57.3510 C   0  0  0  0  0  0  0  0  0  0  0  0
  126.7470  125.2890   57.9100 C   0  0  0  0  0  0  0  0  0  0  0  0
  129.4660  127.3210   57.6800 C   0  0  0  0  0  0  0  0  0  0  0  0
  128.8050  127.8600   56.4880 C   0  0  0  0  0  0  0  0  0  0  0  0
  128.2820  128.2840   55.5470 N   0  0  0  0  0  0  0  0  0  0  0  0
  128.1910  133.0650   60.6220 C   0  0  0  0  0  0  0  0  0  0  0  0
  127.0440  133.7120   61.0760 C   0  0  0  0  0  0  0  0  0  0  0  0
  1  2  1  0
  2  3  1  0
  3  4  1  0
  4  5  2  0
  4  6  1  0
  6  7  2  0
  7  8  1  0
  8  9  2  0
  9 10  1  0
 10 11  1  0
 11 12  2  0
 11 13  1  0
 13 14  1  0
 14 15  1  0
 15 16  2  0
 16 17  1  0
 17 18  1  0
 18 19  2  0
 19 20  1  0
 20 21  2  0
 21 22  1  0
 22 23  1  0
 21 24  1  0
 24 25  2  0
 17 26  2  0
 26 27  1  0
 27 28  1  0
 28 29  2  0
 29 30  1  0
 30 31  2  0
 31 32  1  0
 32 33  1  0
 31 34  1  0
 34 35  2  0
 27 36  2  0
 36 37  1  0
 37 38  3  0
  9 39  1  0
 39 40  2  0
 40  6  1  0
 36 15  1  0
 25 18  1  0
 35 28  1  0
M  END
>  <Binding energies>  (1) 
[-8.17]

>  <Ligand effiencies>  (1) 
[-0.19926829268292684]

>  <Interactions>  (1) 
["V-B:PRO:540:N:9856, V-B:ILE:538:CB:9834, V-A:ASP:366:CG:3211, V-B:ILE:369:CD1:8211, H-A:TYR:531:OH:4793, V-A:TYR:539:CD2:4872, V-B:TYR:531:CE2:9765, V-B:PRO:540:CD:9859, V-B:PRO:540:CB:9857, V-B:ILE:369:CG2:8209, V-B:LEU:475:CD2:9231, V-A:TYR:539:CE2:4874, V-B:ILE:538:CG2:9835, H-A:ALA:541:N:4889, V-A:PRO:540:CA:4881, V-A:ALA:541:CB:4890, V-A:HIS:456:CE1:4068, H-A:ARG:545:NE:4922, H-A:TYR:484:OH:4346, V-B:LEU:363:CD1:8161, H-A:GLY:454:N:4048, V-A:ARG:545:CZ:4924, H-B:GLY:454:N:9022, V-A:ARG:545:CD:4921, V-A:ARG:545:CG:4920, H-B:TYR:539:N:9842, V-B:ILE:538:CD1:9837, V-B:PRO:540:CG:9858, V-B:GLY:454:CA:9021, V-B:GLY:453:C:9014"]

$$$$
1b_Ghoteimi_2023
     RDKit          3D

 34 37  0  0  0  0  0  0  0  0999 V2000
  124.1300  129.7090   66.1640 C   0  0  0  0  0  0  0  0  0  0  0  0
  124.1250  130.2690   64.8560 O   0  0  0  0  0  0  0  0  0  0  0  0
  125.0500  129.8260   63.9300 C   0  0  0  0  0  0  0  0  0  0  0  0
  124.7030  129.9620   62.5870 C   0  0  0  0  0  0  0  0  0  0  0  0
  125.5710  129.5410   61.5840 C   0  0  0  0  0  0  0  0  0  0  0  0
  126.8170  128.9740   61.8930 C   0  0  0  0  0  0  0  0  0  0  0  0
  127.7510  128.5190   60.8070 C   0  0  0  0  0  0  0  0  0  0  0  0
  128.4300  129.4070   59.9660 C   0  0  0  0  0  0  0  0  0  0  0  0
  129.2930  128.9310   58.9710 C   0  0  0  0  0  0  0  0  0  0  0  0
  129.9810  129.9370   58.1060 C   0  0  0  0  0  0  0  0  0  0  0  0
  131.3230  130.2580   58.3290 C   0  0  0  0  0  0  0  0  0  0  0  0
  131.9660  131.2010   57.5320 C   0  0  0  0  0  0  0  0  0  0  0  0
  131.2800  131.8430   56.5000 C   0  0  0  0  0  0  0  0  0  0  0  0
  131.9980  132.7640   55.7610 O   0  0  0  0  0  0  0  0  0  0  0  0
  133.4200  132.6900   55.7530 C   0  0  0  0  0  0  0  0  0  0  0  0
  129.9310  131.5290   56.2780 C   0  0  0  0  0  0  0  0  0  0  0  0
  129.2910  130.5870   57.0780 C   0  0  0  0  0  0  0  0  0  0  0  0
  129.4710  127.5320   58.8450 C   0  0  0  0  0  0  0  0  0  0  0  0
  130.4350  126.9870   57.8840 C   0  0  0  0  0  0  0  0  0  0  0  0
  131.1960  126.5580   57.1250 N   0  0  0  0  0  0  0  0  0  0  0  0
  128.7390  126.6900   59.7120 C   0  0  0  0  0  0  0  0  0  0  0  0
  128.8300  124.9110   59.6920 S   0  0  0  0  0  0  0  0  0  0  0  0
  129.1330  124.3840   57.9720 C   0  0  0  0  0  0  0  0  0  0  0  0
  127.9840  123.6000   57.3210 C   0  0  0  0  0  0  0  0  0  0  0  0
  128.2110  122.5890   56.6530 O   0  0  0  0  0  0  0  0  0  0  0  0
  126.7540  124.1140   57.5450 N   0  0  0  0  0  0  0  0  0  0  0  0
  125.5390  123.6180   57.0850 C   0  0  0  0  0  0  0  0  0  0  0  0
  124.3070  124.0500   57.5740 C   0  0  0  0  0  0  0  0  0  0  0  0
  123.3700  123.3270   56.8710 C   0  0  0  0  0  0  0  0  0  0  0  0
  124.0060  122.5050   56.0020 O   0  0  0  0  0  0  0  0  0  0  0  0
  125.3800  122.6990   56.1470 N   0  0  0  0  0  0  0  0  0  0  0  0
  127.9210  127.1780   60.6760 N   0  0  0  0  0  0  0  0  0  0  0  0
  127.1550  128.8400   63.2490 C   0  0  0  0  0  0  0  0  0  0  0  0
  126.2890  129.2580   64.2550 C   0  0  0  0  0  0  0  0  0  0  0  0
  1  2  1  0
  2  3  1  0
  3  4  2  0
  4  5  1  0
  5  6  2  0
  6  7  1  0
  7  8  2  0
  8  9  1  0
  9 10  1  0
 10 11  2  0
 11 12  1  0
 12 13  2  0
 13 14  1  0
 14 15  1  0
 13 16  1  0
 16 17  2  0
  9 18  2  0
 18 19  1  0
 19 20  3  0
 18 21  1  0
 21 22  1  0
 22 23  1  0
 23 24  1  0
 24 25  2  0
 24 26  1  0
 26 27  1  0
 27 28  1  0
 28 29  2  0
 29 30  1  0
 30 31  1  0
 21 32  2  0
  6 33  1  0
 33 34  2  0
 34  3  1  0
 32  7  1  0
 17 10  1  0
 31 27  2  0
M  END
>  <Binding energies>  (2) 
[-8.24]

>  <Ligand effiencies>  (2) 
[-0.23542857142857143]

>  <Interactions>  (2) 
["V-A:ILE:538:CG2:4861, V-A:PRO:540:CD:4885, V-B:ASP:366:CG:8185, V-A:PRO:540:N:4882, V-B:PRO:540:CA:9855, V-A:ILE:538:CB:4860, V-B:PRO:540:N:9856, H-A:TYR:531:OH:4793, V-B:TYR:531:CE2:9765, V-B:PRO:540:CD:9859, V-B:PRO:540:CB:9857, V-A:PRO:540:CA:4881, V-A:GLU:543:CD:4906, V-B:TYR:539:C:9839, V-B:LEU:363:CD1:8161, V-B:ARG:545:CZ:9898, H-B:ARG:545:NE:9896, H-B:GLY:454:N:9022, V-A:PRO:540:CB:4883, V-A:LEU:363:CD1:3187, H-B:TYR:484:OH:9320, V-A:TYR:531:CE2:4791, V-B:HIS:456:CE1:9042, H-A:TYR:539:N:4868, V-B:ARG:545:CG:9894, V-B:ARG:545:CD:9895, V-B:LEU:363:CA:8157, H-B:TYR:539:N:9842, V-B:LEU:363:CB:8159, V-B:PRO:540:CG:9858, V-A:PRO:540:CG:4884, V-B:LEU:363:CG:8160, V-A:ILE:538:CD1:4863, V-A:ILE:538:CG1:4862"]

$$$$
1c_Ghoteimi_2023
     RDKit          3D

 34 37  0  0  0  0  0  0  0  0999 V2000
  133.6640  125.1290   65.8450 C   0  0  0  0  0  0  0  0  0  0  0  0
  133.7400  124.6720   64.4990 O   0  0  0  0  0  0  0  0  0  0  0  0
  132.8030  125.1110   63.5830 C   0  0  0  0  0  0  0  0  0  0  0  0
  131.6320  125.6590   64.1000 C   0  0  0  0  0  0  0  0  0  0  0  0
  130.6330  126.1250   63.2490 C   0  0  0  0  0  0  0  0  0  0  0  0
  130.7750  126.0550   61.8550 C   0  0  0  0  0  0  0  0  0  0  0  0
  129.6970  126.5510   60.9340 C   0  0  0  0  0  0  0  0  0  0  0  0
  129.0280  125.7150   60.0340 C   0  0  0  0  0  0  0  0  0  0  0  0
  128.0100  126.2180   59.2140 C   0  0  0  0  0  0  0  0  0  0  0  0
  127.2930  125.2560   58.3260 C   0  0  0  0  0  0  0  0  0  0  0  0
  125.9720  124.8890   58.5960 C   0  0  0  0  0  0  0  0  0  0  0  0
  125.3120  123.9760   57.7800 C   0  0  0  0  0  0  0  0  0  0  0  0
  125.9600  123.4100   56.6820 C   0  0  0  0  0  0  0  0  0  0  0  0
  125.2270  122.5130   55.9280 O   0  0  0  0  0  0  0  0  0  0  0  0
  123.8260  122.7170   55.7730 C   0  0  0  0  0  0  0  0  0  0  0  0
  127.2890  123.7710   56.4120 C   0  0  0  0  0  0  0  0  0  0  0  0
  127.9470  124.6850   57.2300 C   0  0  0  0  0  0  0  0  0  0  0  0
  127.6980  127.5960   59.2970 C   0  0  0  0  0  0  0  0  0  0  0  0
  126.6660  128.1910   58.4420 C   0  0  0  0  0  0  0  0  0  0  0  0
  125.8510  128.6590   57.7660 N   0  0  0  0  0  0  0  0  0  0  0  0
  128.4000  128.3770   60.2380 C   0  0  0  0  0  0  0  0  0  0  0  0
  127.9960  130.0780   60.5690 S   0  0  0  0  0  0  0  0  0  0  0  0
  129.5950  130.8780   60.9190 C   0  0  0  0  0  0  0  0  0  0  0  0
  130.5540  130.8000   59.7250 C   0  0  0  0  0  0  0  0  0  0  0  0
  131.3770  129.8860   59.6660 O   0  0  0  0  0  0  0  0  0  0  0  0
  130.3790  131.7530   58.7830 N   0  0  0  0  0  0  0  0  0  0  0  0
  131.0010  131.8190   57.5470 C   0  0  0  0  0  0  0  0  0  0  0  0
  130.4870  132.2230   56.4050 N   0  0  0  0  0  0  0  0  0  0  0  0
  131.3810  132.1920   55.4350 C   0  0  0  0  0  0  0  0  0  0  0  0
  132.6550  131.7570   55.7860 C   0  0  0  0  0  0  0  0  0  0  0  0
  132.6740  131.3670   57.4800 S   0  0  0  0  0  0  0  0  0  0  0  0
  129.3650  127.8640   61.0390 N   0  0  0  0  0  0  0  0  0  0  0  0
  131.9610  125.5070   61.3450 C   0  0  0  0  0  0  0  0  0  0  0  0
  132.9620  125.0390   62.1920 C   0  0  0  0  0  0  0  0  0  0  0  0
  1  2  1  0
  2  3  1  0
  3  4  2  0
  4  5  1  0
  5  6  2  0
  6  7  1  0
  7  8  2  0
  8  9  1  0
  9 10  1  0
 10 11  2  0
 11 12  1  0
 12 13  2  0
 13 14  1  0
 14 15  1  0
 13 16  1  0
 16 17  2  0
  9 18  2  0
 18 19  1  0
 19 20  3  0
 18 21  1  0
 21 22  1  0
 22 23  1  0
 23 24  1  0
 24 25  2  0
 24 26  1  0
 26 27  1  0
 27 28  2  0
 28 29  1  0
 29 30  2  0
 30 31  1  0
 21 32  2  0
  6 33  1  0
 33 34  2  0
 34  3  1  0
 32  7  1  0
 17 10  1  0
 31 27  1  0
M  END
>  <Binding energies>  (3) 
[-7.95]

>  <Ligand effiencies>  (3) 
[-0.22714285714285715]

>  <Interactions>  (3) 
["V-A:ILE:538:CG2:4861, V-A:PRO:540:CD:4885, V-B:ASP:366:CG:8185, V-A:PRO:540:N:4882, H-B:TYR:531:OH:9767, V-B:PRO:540:CA:9855, V-A:ILE:538:CB:4860, V-A:ILE:538:CA:4858, V-A:TYR:531:CZ:4792, V-B:PRO:540:N:9856, V-B:ILE:538:CB:9834, V-A:ASP:366:CG:3211, V-B:TYR:531:CE2:9765, V-B:PRO:540:CD:9859, V-B:PRO:540:CB:9857, V-B:ILE:538:CG2:9835, V-A:PRO:540:CA:4881, V-A:HIS:456:CE1:4068, H-A:ARG:545:NE:4922, H-A:TYR:484:OH:4346, V-B:TYR:539:C:9839, V-B:LEU:363:CD1:8161, H-A:GLY:454:N:4048, V-B:GLU:543:CD:9880, V-A:ARG:545:CZ:4924, V-A:PRO:540:CB:4883, V-A:LEU:363:CD1:3187, V-A:TYR:539:C:4865, V-A:TYR:531:CE2:4791, H-A:TYR:539:N:4868, V-A:ARG:545:CD:4921, V-A:ARG:545:CG:4920, V-A:TYR:484:CZ:4345, H-A:TYR:539:O:4866, H-B:TYR:539:N:9842, V-B:ILE:538:CD1:9837, V-B:PRO:540:CG:9858, V-A:ILE:538:C:4856, V-B:ILE:538:CG1:9836"]

$$$$
1d_Ghoteimi_2023
     RDKit          3D

 30 32  0  0  0  0  0  0  0  0999 V2000
  128.0100  123.5510   54.9590 C   0  0  0  0  0  0  0  0  0  0  0  0
  127.5140  122.8150   56.0660 O   0  0  0  0  0  0  0  0  0  0  0  0
  126.2120  122.8930   56.4130 C   0  0  0  0  0  0  0  0  0  0  0  0
  125.2540  122.5120   55.7380 O   0  0  0  0  0  0  0  0  0  0  0  0
  126.0150  123.5330   57.7840 C   0  0  0  0  0  0  0  0  0  0  0  0
  125.9620  125.3340   57.5450 S   0  0  0  0  0  0  0  0  0  0  0  0
  127.6430  125.9160   57.5960 C   0  0  0  0  0  0  0  0  0  0  0  0
  128.5160  125.0160   58.1080 N   0  0  0  0  0  0  0  0  0  0  0  0
  129.8330  125.3320   58.2080 C   0  0  0  0  0  0  0  0  0  0  0  0
  130.7350  124.2770   58.7810 C   0  0  0  0  0  0  0  0  0  0  0  0
  130.2160  123.1800   59.4870 C   0  0  0  0  0  0  0  0  0  0  0  0
  131.0540  122.2070   60.0230 C   0  0  0  0  0  0  0  0  0  0  0  0
  132.4350  122.3000   59.8730 C   0  0  0  0  0  0  0  0  0  0  0  0
  133.1890  121.2910   60.4410 O   0  0  0  0  0  0  0  0  0  0  0  0
  133.9560  121.5710   61.6070 C   0  0  0  0  0  0  0  0  0  0  0  0
  132.9690  123.3890   59.1710 C   0  0  0  0  0  0  0  0  0  0  0  0
  132.1270  124.3600   58.6350 C   0  0  0  0  0  0  0  0  0  0  0  0
  130.3020  126.5780   57.7760 C   0  0  0  0  0  0  0  0  0  0  0  0
  129.4190  127.5320   57.2570 C   0  0  0  0  0  0  0  0  0  0  0  0
  129.9860  128.8450   56.8220 C   0  0  0  0  0  0  0  0  0  0  0  0
  130.8580  129.5470   57.6590 C   0  0  0  0  0  0  0  0  0  0  0  0
  131.3910  130.7700   57.2600 C   0  0  0  0  0  0  0  0  0  0  0  0
  131.0680  131.3130   56.0170 C   0  0  0  0  0  0  0  0  0  0  0  0
  131.6370  132.5340   55.7090 O   0  0  0  0  0  0  0  0  0  0  0  0
  133.0530  132.6700   55.7480 C   0  0  0  0  0  0  0  0  0  0  0  0
  130.2030  130.6060   55.1680 C   0  0  0  0  0  0  0  0  0  0  0  0
  129.6730  129.3830   55.5680 C   0  0  0  0  0  0  0  0  0  0  0  0
  128.0420  127.2060   57.1800 C   0  0  0  0  0  0  0  0  0  0  0  0
  127.0600  128.2030   56.7420 C   0  0  0  0  0  0  0  0  0  0  0  0
  126.2860  128.9910   56.3960 N   0  0  0  0  0  0  0  0  0  0  0  0
  1  2  1  0
  2  3  1  0
  3  4  2  0
  3  5  1  0
  5  6  1  0
  6  7  1  0
  7  8  2  0
  8  9  1  0
  9 10  1  0
 10 11  2  0
 11 12  1  0
 12 13  2  0
 13 14  1  0
 14 15  1  0
 13 16  1  0
 16 17  2  0
  9 18  2  0
 18 19  1  0
 19 20  1  0
 20 21  2  0
 21 22  1  0
 22 23  2  0
 23 24  1  0
 24 25  1  0
 23 26  1  0
 26 27  2  0
 19 28  2  0
 28 29  1  0
 29 30  3  0
 28  7  1  0
 17 10  1  0
 27 20  1  0
M  END
>  <Binding energies>  (4) 
[-7.02]

>  <Ligand effiencies>  (4) 
[-0.23399999999999999]

>  <Interactions>  (4) 
["V-A:ILE:538:CG2:4861, V-A:PRO:540:CD:4885, V-A:PRO:540:N:4882, V-B:TYR:539:CD2:9846, H-B:TYR:531:OH:9767, V-B:PRO:540:CA:9855, V-A:LEU:475:CD2:4257, V-A:ILE:369:CG2:3235, V-A:ILE:538:CB:4860, V-A:ILE:538:CA:4858, V-A:ILE:369:CD1:3237, V-B:TYR:539:CE2:9848, V-B:PRO:540:N:9856, V-B:ILE:538:CB:9834, V-A:ASP:366:CG:3211, V-B:PRO:540:CD:9859, V-B:PRO:540:CB:9857, V-B:TYR:539:CE1:9847, V-B:ILE:538:CA:9832, V-B:TYR:539:C:9839, V-B:TYR:539:CA:9841, V-B:TYR:539:CD1:9845, V-A:PRO:540:CB:4883, V-A:LEU:363:CD1:3187, V-A:TYR:531:CE2:4791, H-A:TYR:539:N:4868, V-A:GLY:454:CA:4047, H-B:TYR:539:N:9842, V-A:PRO:540:CG:4884, V-A:ILE:538:CD1:4863, V-A:ILE:538:CG1:4862"]

$$$$
1j_Grossjean_2025
     RDKit          3D

 20 21  0  0  0  0  0  0  0  0999 V2000
  128.8190  132.5220   73.8970 C   0  0  0  0  0  0  0  0  0  0  0  0
  127.7970  131.4180   74.0940 C   0  0  0  0  0  0  0  0  0  0  0  0
  126.7040  131.5790   74.9430 C   0  0  0  0  0  0  0  0  0  0  0  0
  125.7870  130.5320   75.0760 C   0  0  0  0  0  0  0  0  0  0  0  0
  124.5870  130.7390   75.9990 C   0  0  0  0  0  0  0  0  0  0  0  0
  125.9960  129.3350   74.3540 C   0  0  0  0  0  0  0  0  0  0  0  0
  125.0200  128.2450   74.4370 C   0  0  0  0  0  0  0  0  0  0  0  0
  124.2470  127.3870   74.5040 N   0  0  0  0  0  0  0  0  0  0  0  0
  127.1470  129.2490   73.5360 C   0  0  0  0  0  0  0  0  0  0  0  0
  127.5670  127.8210   72.5610 S   0  0  0  0  0  0  0  0  0  0  0  0
  129.3630  127.8470   72.2870 C   0  0  0  0  0  0  0  0  0  0  0  0
  130.0500  126.6070   72.8620 C   0  0  0  0  0  0  0  0  0  0  0  0
  129.4680  125.5220   72.8260 O   0  0  0  0  0  0  0  0  0  0  0  0
  131.2820  126.8100   73.3790 N   0  0  0  0  0  0  0  0  0  0  0  0
  132.1030  125.8560   73.9620 C   0  0  0  0  0  0  0  0  0  0  0  0
  131.7680  124.6590   74.3950 N   0  0  0  0  0  0  0  0  0  0  0  0
  132.8070  124.0170   74.8930 C   0  0  0  0  0  0  0  0  0  0  0  0
  134.0210  124.6970   74.8680 C   0  0  0  0  0  0  0  0  0  0  0  0
  133.7780  126.2620   74.1510 S   0  0  0  0  0  0  0  0  0  0  0  0
  128.0190  130.2790   73.3970 N   0  0  0  0  0  0  0  0  0  0  0  0
  1  2  1  0
  2  3  2  0
  3  4  1  0
  4  5  1  0
  4  6  2  0
  6  7  1  0
  7  8  3  0
  6  9  1  0
  9 10  1  0
 10 11  1  0
 11 12  1  0
 12 13  2  0
 12 14  1  0
 14 15  1  0
 15 16  2  0
 16 17  1  0
 17 18  2  0
 18 19  1  0
  9 20  2  0
 20  2  1  0
 19 15  1  0
M  END
>  <Binding energies>  (5) 
[-8.12]

>  <Ligand effiencies>  (5) 
[-0.3866666666666666]

>  <Interactions>  (5) 
["V-A:LYS:547:CE:4948, V-B:HIS:456:CG:9038, V-A:GLY:544:C:4910, V-B:LYS:547:CE:9922, V-B:HIS:456:CD2:9040, V-A:HIS:456:CG:4064, H-B:LYS:547:NZ:9923, H-A:LYS:547:NZ:4949, H-A:GLY:544:O:4911, V-B:LYS:547:CD:9921, V-A:HIS:456:C:4059, V-B:VAL:458:CG2:9059, V-B:HIS:456:CB:9037, V-A:HIS:456:CB:4063, V-B:HIS:456:C:9033, V-A:VAL:458:CG2:4085, V-A:LYS:471:CE:4218, V-A:VAL:457:C:4071, V-B:LYS:471:CE:9192, V-B:LYS:471:CD:9191, V-B:LYS:471:CG:9190, V-B:ASP:473:CG:9212, V-A:HIS:456:CA:4061"]

$$$$
1o_Grossjean_2025
     RDKit          3D

 26 27  0  0  0  0  0  0  0  0999 V2000
  127.3560  123.4640   54.9340 C   0  0  0  0  0  0  0  0  0  0  0  0
  126.7710  122.7300   56.0010 O   0  0  0  0  0  0  0  0  0  0  0  0
  126.2350  123.3650   57.0750 C   0  0  0  0  0  0  0  0  0  0  0  0
  125.1440  123.9430   57.0480 O   0  0  0  0  0  0  0  0  0  0  0  0
  127.0990  123.2920   58.3000 C   0  0  0  0  0  0  0  0  0  0  0  0
  128.4390  122.8810   58.2410 C   0  0  0  0  0  0  0  0  0  0  0  0
  129.2140  122.8270   59.3970 C   0  0  0  0  0  0  0  0  0  0  0  0
  128.6670  123.1740   60.6320 C   0  0  0  0  0  0  0  0  0  0  0  0
  129.5420  123.0920   61.7340 N   0  0  0  0  0  0  0  0  0  0  0  0
  130.5790  122.2540   61.9550 C   0  0  0  0  0  0  0  0  0  0  0  0
  130.9840  121.4020   61.1640 O   0  0  0  0  0  0  0  0  0  0  0  0
  131.3000  122.4350   63.2990 C   0  0  0  0  0  0  0  0  0  0  0  0
  132.4210  123.4920   63.2530 C   0  0  0  0  0  0  0  0  0  0  0  0
  133.1630  123.7100   61.6080 S   0  0  0  0  0  0  0  0  0  0  0  0
  132.0780  124.7290   60.6300 C   0  0  0  0  0  0  0  0  0  0  0  0
  131.1370  125.3750   61.3640 N   0  0  0  0  0  0  0  0  0  0  0  0
  130.2600  126.1880   60.7280 C   0  0  0  0  0  0  0  0  0  0  0  0
  129.2470  126.8870   61.6160 C   0  0  0  0  0  0  0  0  0  0  0  0
  130.2760  126.3780   59.3490 C   0  0  0  0  0  0  0  0  0  0  0  0
  131.2250  125.6970   58.5800 C   0  0  0  0  0  0  0  0  0  0  0  0
  131.2130  125.9120   57.0670 C   0  0  0  0  0  0  0  0  0  0  0  0
  132.1490  124.8400   59.2200 C   0  0  0  0  0  0  0  0  0  0  0  0
  133.1120  124.0740   58.4250 C   0  0  0  0  0  0  0  0  0  0  0  0
  133.8720  123.4700   57.7960 N   0  0  0  0  0  0  0  0  0  0  0  0
  127.3290  123.5910   60.6990 C   0  0  0  0  0  0  0  0  0  0  0  0
  126.5560  123.6460   59.5420 C   0  0  0  0  0  0  0  0  0  0  0  0
  1  2  1  0
  2  3  1  0
  3  4  2  0
  3  5  1  0
  5  6  2  0
  6  7  1  0
  7  8  2  0
  8  9  1  0
  9 10  1  0
 10 11  2  0
 10 12  1  0
 12 13  1  0
 13 14  1  0
 14 15  1  0
 15 16  2  0
 16 17  1  0
 17 18  1  0
 17 19  2  0
 19 20  1  0
 20 21  1  0
 20 22  2  0
 22 23  1  0
 23 24  3  0
  8 25  1  0
 25 26  2  0
 26  5  1  0
 22 15  1  0
M  END
>  <Binding energies>  (6) 
[-7.44]

>  <Ligand effiencies>  (6) 
[-0.27555555555555555]

>  <Interactions>  (6) 
["V-B:TYR:539:CD2:9846, H-B:TYR:531:OH:9767, V-B:PRO:540:CA:9855, V-A:LEU:475:CD2:4257, V-B:ALA:541:CB:9864, V-B:TYR:539:CE2:9848, V-B:PRO:540:N:9856, V-A:ASP:366:CG:3211, V-B:PRO:540:CD:9859, V-B:PRO:540:CB:9857, V-A:ASP:366:CB:3210, H-B:GLU:543:OE1:9881, V-B:TYR:539:CZ:9849, V-B:ILE:538:CA:9832, V-B:TYR:539:CG:9844, V-B:TYR:539:C:9839, H-B:TYR:539:OH:9850, V-A:GLY:454:CA:4047, H-B:TYR:539:N:9842"]

$$$$
1p_Grossjean_2025
     RDKit          3D

 21 22  0  0  0  0  0  0  0  0999 V2000
  129.7910  122.0790   73.5130 C   0  0  0  0  0  0  0  0  0  0  0  0
  130.8120  123.1700   73.7750 C   0  0  0  0  0  0  0  0  0  0  0  0
  132.0220  122.8980   74.4110 C   0  0  0  0  0  0  0  0  0  0  0  0
  132.9210  123.9460   74.6380 C   0  0  0  0  0  0  0  0  0  0  0  0
  134.2340  123.6280   75.3500 C   0  0  0  0  0  0  0  0  0  0  0  0
  132.5840  125.2500   74.2100 C   0  0  0  0  0  0  0  0  0  0  0  0
  133.4860  126.3720   74.4790 C   0  0  0  0  0  0  0  0  0  0  0  0
  134.2000  127.2580   74.6920 N   0  0  0  0  0  0  0  0  0  0  0  0
  131.3440  125.4300   73.5520 C   0  0  0  0  0  0  0  0  0  0  0  0
  130.7710  126.9990   72.9430 S   0  0  0  0  0  0  0  0  0  0  0  0
  129.9790  126.6830   71.3390 C   0  0  0  0  0  0  0  0  0  0  0  0
  128.8860  127.7060   70.9730 C   0  0  0  0  0  0  0  0  0  0  0  0
  128.4240  128.5610   72.1620 C   0  0  0  0  0  0  0  0  0  0  0  0
  129.1350  129.4870   72.5580 O   0  0  0  0  0  0  0  0  0  0  0  0
  127.2250  128.2280   72.6910 N   0  0  0  0  0  0  0  0  0  0  0  0
  126.5800  128.8360   73.7610 C   0  0  0  0  0  0  0  0  0  0  0  0
  125.2610  128.5520   74.1160 C   0  0  0  0  0  0  0  0  0  0  0  0
  125.0060  129.3480   75.2090 C   0  0  0  0  0  0  0  0  0  0  0  0
  126.1110  130.0750   75.4960 O   0  0  0  0  0  0  0  0  0  0  0  0
  127.1020  129.7420   74.5700 N   0  0  0  0  0  0  0  0  0  0  0  0
  130.4700  124.4100   73.3550 N   0  0  0  0  0  0  0  0  0  0  0  0
  1  2  1  0
  2  3  2  0
  3  4  1  0
  4  5  1  0
  4  6  2  0
  6  7  1  0
  7  8  3  0
  6  9  1  0
  9 10  1  0
 10 11  1  0
 11 12  1  0
 12 13  1  0
 13 14  2  0
 13 15  1  0
 15 16  1  0
 16 17  1  0
 17 18  2  0
 18 19  1  0
 19 20  1  0
  9 21  2  0
 21  2  1  0
 20 16  2  0
M  END
>  <Binding energies>  (7) 
[-8.2]

>  <Ligand effiencies>  (7) 
[-0.3727272727272727]

>  <Interactions>  (7) 
["V-A:HIS:456:CE1:4068, V-B:GLY:544:C:9884, V-B:HIS:456:CG:9038, V-B:LYS:547:CE:9922, V-A:HIS:456:CD2:4066, V-B:HIS:456:CD2:9040, V-A:HIS:456:CG:4064, H-B:GLY:544:O:9885, H-B:LYS:547:NZ:9923, H-A:LYS:547:NZ:4949, V-A:ASP:473:CG:4238, V-A:HIS:456:C:4059, V-B:VAL:458:CG2:9059, V-B:HIS:456:CB:9037, V-A:LYS:471:CD:4217, V-A:HIS:456:CB:4063, V-B:HIS:456:CA:9035, V-B:HIS:456:C:9033, V-A:VAL:458:CG2:4085, V-A:LYS:471:CE:4218, V-A:LYS:547:CD:4947, V-A:LYS:547:CG:4946, V-A:LYS:471:CG:4216"]

$$$$
2a_Ghoteimi_2023
     RDKit          3D

 48 53  0  0  0  0  0  0  0  0999 V2000
  133.1710  131.5090   56.6310 C   0  0  0  0  0  0  0  0  0  0  0  0
  132.3270  132.6660   56.0890 C   0  0  0  0  0  0  0  0  0  0  0  0
  131.0500  132.1770   55.7020 O   0  0  0  0  0  0  0  0  0  0  0  0
  130.4680  131.1390   56.3560 C   0  0  0  0  0  0  0  0  0  0  0  0
  130.4510  129.9840   55.9190 O   0  0  0  0  0  0  0  0  0  0  0  0
  129.8520  131.5350   57.6670 C   0  0  0  0  0  0  0  0  0  0  0  0
  128.5820  132.1260   57.7430 C   0  0  0  0  0  0  0  0  0  0  0  0
  128.0400  132.4800   58.9750 C   0  0  0  0  0  0  0  0  0  0  0  0
  128.7500  132.2480   60.1550 C   0  0  0  0  0  0  0  0  0  0  0  0
  128.1090  132.6490   61.3430 N   0  0  0  0  0  0  0  0  0  0  0  0
  127.2410  133.6610   61.5580 C   0  0  0  0  0  0  0  0  0  0  0  0
  126.8810  134.4780   60.7100 O   0  0  0  0  0  0  0  0  0  0  0  0
  126.7240  133.7810   62.9980 C   0  0  0  0  0  0  0  0  0  0  0  0
  125.2680  132.7490   63.3650 S   0  0  0  0  0  0  0  0  0  0  0  0
  125.8440  131.0680   63.3030 C   0  0  0  0  0  0  0  0  0  0  0  0
  126.2090  130.5700   64.5070 N   0  0  0  0  0  0  0  0  0  0  0  0
  126.6750  129.2980   64.5890 C   0  0  0  0  0  0  0  0  0  0  0  0
  127.0690  128.8190   65.9490 C   0  0  0  0  0  0  0  0  0  0  0  0
  128.2550  129.2500   66.5550 C   0  0  0  0  0  0  0  0  0  0  0  0
  128.6230  128.7910   67.8170 C   0  0  0  0  0  0  0  0  0  0  0  0
  127.8150  127.8900   68.5240 C   0  0  0  0  0  0  0  0  0  0  0  0
  128.2120  127.4140   69.7780 N   0  0  0  0  0  0  0  0  0  0  0  0
  127.6590  127.9770   71.0260 C   0  0  0  0  0  0  0  0  0  0  0  0
  127.9240  127.1080   72.2740 C   0  0  0  0  0  0  0  0  0  0  0  0
  129.3130  126.8540   72.4030 O   0  0  0  0  0  0  0  0  0  0  0  0
  129.8200  126.1590   71.2760 C   0  0  0  0  0  0  0  0  0  0  0  0
  129.6130  126.9980   69.9970 C   0  0  0  0  0  0  0  0  0  0  0  0
  126.6320  127.4510   67.9070 C   0  0  0  0  0  0  0  0  0  0  0  0
  126.2640  127.9120   66.6470 C   0  0  0  0  0  0  0  0  0  0  0  0
  126.7710  128.4890   63.4540 C   0  0  0  0  0  0  0  0  0  0  0  0
  126.3980  128.9840   62.1960 C   0  0  0  0  0  0  0  0  0  0  0  0
  126.5320  128.0670   61.0240 C   0  0  0  0  0  0  0  0  0  0  0  0
  126.4200  128.5680   59.7240 C   0  0  0  0  0  0  0  0  0  0  0  0
  126.5240  127.7200   58.6260 C   0  0  0  0  0  0  0  0  0  0  0  0
  126.7450  126.3450   58.7940 C   0  0  0  0  0  0  0  0  0  0  0  0
  126.8330  125.4730   57.7050 N   0  0  0  0  0  0  0  0  0  0  0  0
  125.6820  124.6090   57.3740 C   0  0  0  0  0  0  0  0  0  0  0  0
  125.7610  124.0040   55.9560 C   0  0  0  0  0  0  0  0  0  0  0  0
  126.9820  123.2990   55.7960 O   0  0  0  0  0  0  0  0  0  0  0  0
  128.1050  124.1470   55.9740 C   0  0  0  0  0  0  0  0  0  0  0  0
  128.0870  124.7600   57.3890 C   0  0  0  0  0  0  0  0  0  0  0  0
  126.8430  125.8480   60.1020 C   0  0  0  0  0  0  0  0  0  0  0  0
  126.7380  126.6960   61.2000 C   0  0  0  0  0  0  0  0  0  0  0  0
  125.9130  130.3120   62.1120 C   0  0  0  0  0  0  0  0  0  0  0  0
  125.4550  130.8660   60.8340 C   0  0  0  0  0  0  0  0  0  0  0  0
  125.0950  131.3020   59.8240 N   0  0  0  0  0  0  0  0  0  0  0  0
  130.0240  131.6650   60.0860 C   0  0  0  0  0  0  0  0  0  0  0  0
  130.5650  131.3100   58.8530 C   0  0  0  0  0  0  0  0  0  0  0  0
  1  2  1  0
  2  3  1  0
  3  4  1  0
  4  5  2  0
  4  6  1  0
  6  7  2  0
  7  8  1  0
  8  9  2  0
  9 10  1  0
 10 11  1  0
 11 12  2  0
 11 13  1  0
 13 14  1  0
 14 15  1  0
 15 16  2  0
 16 17  1  0
 17 18  1  0
 18 19  2  0
 19 20  1  0
 20 21  2  0
 21 22  1  0
 22 23  1  0
 23 24  1  0
 24 25  1  0
 25 26  1  0
 26 27  1  0
 21 28  1  0
 28 29  2  0
 17 30  2  0
 30 31  1  0
 31 32  1  0
 32 33  2  0
 33 34  1  0
 34 35  2  0
 35 36  1  0
 36 37  1  0
 37 38  1  0
 38 39  1  0
 39 40  1  0
 40 41  1  0
 35 42  1  0
 42 43  2  0
 31 44  2  0
 44 45  1  0
 45 46  3  0
  9 47  1  0
 47 48  2  0
 48  6  1  0
 44 15  1  0
 29 18  1  0
 43 32  1  0
 27 22  1  0
 41 36  1  0
M  END
>  <Binding energies>  (8) 
[-8.35]

>  <Ligand effiencies>  (8) 
[-0.1704081632653061]

>  <Interactions>  (8) 
["V-A:ILE:538:CG2:4861, V-A:PRO:540:CD:4885, V-B:ASP:366:CG:8185, V-A:PRO:540:N:4882, V-A:ILE:538:CB:4860, V-A:ILE:538:CA:4858, V-A:TYR:531:CZ:4792, H-A:TYR:531:OH:4793, V-A:TYR:539:CD2:4872, V-B:LEU:475:CD2:9231, V-A:TYR:539:CE2:4874, V-A:TYR:539:CZ:4875, V-A:PRO:540:CA:4881, V-A:ALA:541:CB:4890, V-A:GLU:543:CD:4906, V-A:HIS:456:CE1:4068, V-B:TYR:531:CZ:9766, H-A:GLU:543:OE1:4907, V-B:GLU:543:CD:9880, V-B:ARG:545:CZ:9898, V-B:GLU:543:CG:9879, V-A:GLU:543:CG:4905, V-A:PRO:540:CB:4883, V-A:LEU:363:CD1:3187, V-A:TYR:539:C:4865, V-A:TYR:539:CG:4870, H-B:TYR:484:OH:9320, V-A:GLU:543:CB:4904, V-A:TYR:531:CE2:4791, V-B:HIS:456:CE1:9042, V-B:GLY:544:C:9884, V-B:HIS:456:CG:9038, V-A:GLU:543:C:4900, V-B:LYS:547:CE:9922, V-A:HIS:456:CD2:4066, V-B:HIS:456:CD2:9040, V-B:GLU:543:C:9874, V-A:HIS:456:CG:4064, H-B:LYS:547:NZ:9923, V-B:GLY:544:CA:9886, H-A:TYR:539:N:4868, V-B:ARG:545:CG:9894, V-B:ARG:545:CD:9895, H-B:TYR:539:N:9842, V-A:PRO:540:CG:4884, V-A:GLU:543:CA:4902"]

$$$$
2aa_Ghoteimi_2023
     RDKit          3D

 48 53  0  0  0  0  0  0  0  0999 V2000
  132.8770  131.0940   57.2140 C   0  0  0  0  0  0  0  0  0  0  0  0
  131.4520  130.8850   57.7370 C   0  0  0  0  0  0  0  0  0  0  0  0
  130.7580  132.1250   57.7220 O   0  0  0  0  0  0  0  0  0  0  0  0
  129.5500  132.2470   57.1130 C   0  0  0  0  0  0  0  0  0  0  0  0
  129.4130  132.6150   55.9410 O   0  0  0  0  0  0  0  0  0  0  0  0
  128.3980  131.8750   58.0010 C   0  0  0  0  0  0  0  0  0  0  0  0
  127.3840  131.0050   57.5730 C   0  0  0  0  0  0  0  0  0  0  0  0
  126.3310  130.6750   58.4210 C   0  0  0  0  0  0  0  0  0  0  0  0
  126.2640  131.2130   59.7070 C   0  0  0  0  0  0  0  0  0  0  0  0
  125.1580  130.8110   60.4810 N   0  0  0  0  0  0  0  0  0  0  0  0
  124.2270  131.5570   61.1140 C   0  0  0  0  0  0  0  0  0  0  0  0
  124.1720  132.7880   61.0930 O   0  0  0  0  0  0  0  0  0  0  0  0
  123.1710  130.7480   61.8790 C   0  0  0  0  0  0  0  0  0  0  0  0
  123.6270  130.5040   63.2140 O   0  0  0  0  0  0  0  0  0  0  0  0
  124.8290  129.8450   63.4310 C   0  0  0  0  0  0  0  0  0  0  0  0
  125.5680  129.4850   62.3440 N   0  0  0  0  0  0  0  0  0  0  0  0
  126.7500  128.8430   62.5210 C   0  0  0  0  0  0  0  0  0  0  0  0
  127.5030  128.4750   61.2820 C   0  0  0  0  0  0  0  0  0  0  0  0
  126.8560  127.8440   60.2150 C   0  0  0  0  0  0  0  0  0  0  0  0
  127.5510  127.5040   59.0560 C   0  0  0  0  0  0  0  0  0  0  0  0
  128.9170  127.7970   58.9180 C   0  0  0  0  0  0  0  0  0  0  0  0
  129.6330  127.4510   57.7660 N   0  0  0  0  0  0  0  0  0  0  0  0
  130.5130  126.2650   57.7330 C   0  0  0  0  0  0  0  0  0  0  0  0
  131.4790  126.2390   56.5300 C   0  0  0  0  0  0  0  0  0  0  0  0
  130.7510  126.3650   55.3190 O   0  0  0  0  0  0  0  0  0  0  0  0
  130.0310  127.5870   55.2710 C   0  0  0  0  0  0  0  0  0  0  0  0
  129.0200  127.6520   56.4360 C   0  0  0  0  0  0  0  0  0  0  0  0
  129.5650  128.4100   59.9990 C   0  0  0  0  0  0  0  0  0  0  0  0
  128.8700  128.7460   61.1580 C   0  0  0  0  0  0  0  0  0  0  0  0
  127.2170  128.5300   63.8010 C   0  0  0  0  0  0  0  0  0  0  0  0
  126.4720  128.8790   64.9350 C   0  0  0  0  0  0  0  0  0  0  0  0
  127.0110  128.4940   66.2750 C   0  0  0  0  0  0  0  0  0  0  0  0
  128.2020  129.0540   66.7440 C   0  0  0  0  0  0  0  0  0  0  0  0
  128.7190  128.6860   67.9820 C   0  0  0  0  0  0  0  0  0  0  0  0
  128.0680  127.7340   68.7820 C   0  0  0  0  0  0  0  0  0  0  0  0
  128.5670  127.3520   70.0300 N   0  0  0  0  0  0  0  0  0  0  0  0
  127.9190  127.7850   71.2830 C   0  0  0  0  0  0  0  0  0  0  0  0
  128.3840  126.9900   72.5220 C   0  0  0  0  0  0  0  0  0  0  0  0
  129.7980  127.0520   72.6360 O   0  0  0  0  0  0  0  0  0  0  0  0
  130.4380  126.5020   71.4950 C   0  0  0  0  0  0  0  0  0  0  0  0
  130.0290  127.2840   70.2300 C   0  0  0  0  0  0  0  0  0  0  0  0
  126.8700  127.1830   68.3070 C   0  0  0  0  0  0  0  0  0  0  0  0
  126.3520  127.5520   67.0690 C   0  0  0  0  0  0  0  0  0  0  0  0
  125.2520  129.5680   64.7440 C   0  0  0  0  0  0  0  0  0  0  0  0
  124.4320  130.0170   65.8720 C   0  0  0  0  0  0  0  0  0  0  0  0
  123.7850  130.3710   66.7630 N   0  0  0  0  0  0  0  0  0  0  0  0
  127.2770  132.0780   60.1450 C   0  0  0  0  0  0  0  0  0  0  0  0
  128.3310  132.4040   59.2960 C   0  0  0  0  0  0  0  0  0  0  0  0
  1  2  1  0
  2  3  1  0
  3  4  1  0
  4  5  2  0
  4  6  1  0
  6  7  2  0
  7  8  1  0
  8  9  2  0
  9 10  1  0
 10 11  1  0
 11 12  2  0
 11 13  1  0
 13 14  1  0
 14 15  1  0
 15 16  2  0
 16 17  1  0
 17 18  1  0
 18 19  2  0
 19 20  1  0
 20 21  2  0
 21 22  1  0
 22 23  1  0
 23 24  1  0
 24 25  1  0
 25 26  1  0
 26 27  1  0
 21 28  1  0
 28 29  2  0
 17 30  2  0
 30 31  1  0
 31 32  1  0
 32 33  2  0
 33 34  1  0
 34 35  2  0
 35 36  1  0
 36 37  1  0
 37 38  1  0
 38 39  1  0
 39 40  1  0
 40 41  1  0
 35 42  1  0
 42 43  2  0
 31 44  2  0
 44 45  1  0
 45 46  3  0
  9 47  1  0
 47 48  2  0
 48  6  1  0
 44 15  1  0
 29 18  1  0
 43 32  1  0
 27 22  1  0
 41 36  1  0
M  END
>  <Binding energies>  (9) 
[-8.48]

>  <Ligand effiencies>  (9) 
[-0.17306122448979594]

>  <Interactions>  (9) 
["V-B:ASP:366:CG:8185, V-A:PRO:540:N:4882, H-B:ASP:366:OD2:8187, V-A:TYR:531:CZ:4792, V-B:ILE:369:CD1:8211, H-A:TYR:531:OH:4793, V-A:TYR:539:CD2:4872, V-A:ASP:366:CB:3210, V-A:TYR:539:CE2:4874, V-A:TYR:539:CZ:4875, V-A:PRO:540:CA:4881, V-A:GLU:543:CD:4906, H-B:ARG:545:NH2:9900, V-A:HIS:456:CE1:4068, V-B:GLU:543:CD:9880, V-B:ARG:545:CZ:9898, V-B:GLU:543:CG:9879, V-A:GLU:543:CG:4905, H-B:GLY:454:N:9022, V-A:PRO:540:CB:4883, V-A:TYR:539:C:4865, V-A:TYR:539:CG:4870, H-B:TYR:484:OH:9320, V-A:GLU:543:CB:4904, V-A:TYR:531:CE2:4791, V-B:HIS:456:CE1:9042, V-B:GLY:544:C:9884, V-A:GLY:544:C:4910, V-A:GLU:543:C:4900, V-B:LYS:547:CE:9922, V-A:HIS:456:CD2:4066, V-B:HIS:456:CD2:9040, V-B:GLU:543:C:9874, V-A:HIS:456:CG:4064, H-B:LYS:547:NZ:9923, V-B:GLY:544:CA:9886, H-A:TYR:539:N:4868, V-B:ARG:545:CG:9894, V-B:ARG:545:CD:9895, V-B:TYR:484:CZ:9319, V-A:TYR:531:CE1:4790, H-B:HIS:456:ND1:9039, V-A:TYR:539:CA:4867, V-B:GLY:453:C:9014, V-B:GLY:453:CA:9016, H-B:ASP:366:OD1:8186, H-B:ARG:545:NH1:9899, V-A:GLU:543:CA:4902, H-B:ILE:455:N:9027, V-B:ARG:545:CA:9891"]

$$$$
2b_Ghoteimi_2023
     RDKit          3D

 42 47  0  0  0  0  0  0  0  0999 V2000
  134.5720  125.4560   65.7570 N   0  0  0  0  0  0  0  0  0  0  0  0
  133.7130  125.3340   64.9920 C   0  0  0  0  0  0  0  0  0  0  0  0
  132.6210  125.1820   64.0260 C   0  0  0  0  0  0  0  0  0  0  0  0
  131.2890  125.5020   64.3890 C   0  0  0  0  0  0  0  0  0  0  0  0
  130.8940  126.0070   65.7370 C   0  0  0  0  0  0  0  0  0  0  0  0
  129.7570  125.5040   66.3720 C   0  0  0  0  0  0  0  0  0  0  0  0
  129.3850  125.9720   67.6290 C   0  0  0  0  0  0  0  0  0  0  0  0
  130.1300  126.9690   68.2780 C   0  0  0  0  0  0  0  0  0  0  0  0
  129.7830  127.4450   69.5440 N   0  0  0  0  0  0  0  0  0  0  0  0
  128.3560  127.6300   69.8770 C   0  0  0  0  0  0  0  0  0  0  0  0
  128.1290  128.5010   71.1310 C   0  0  0  0  0  0  0  0  0  0  0  0
  128.8460  127.9660   72.2330 O   0  0  0  0  0  0  0  0  0  0  0  0
  130.2410  127.9180   71.9780 C   0  0  0  0  0  0  0  0  0  0  0  0
  130.5200  127.0250   70.7520 C   0  0  0  0  0  0  0  0  0  0  0  0
  131.2680  127.4700   67.6310 C   0  0  0  0  0  0  0  0  0  0  0  0
  131.6430  126.9990   66.3760 C   0  0  0  0  0  0  0  0  0  0  0  0
  130.2800  125.3450   63.4300 C   0  0  0  0  0  0  0  0  0  0  0  0
  130.5930  124.9120   62.1380 C   0  0  0  0  0  0  0  0  0  0  0  0
  129.5580  124.7570   61.0700 C   0  0  0  0  0  0  0  0  0  0  0  0
  128.6180  123.7220   61.1310 C   0  0  0  0  0  0  0  0  0  0  0  0
  127.6420  123.5810   60.1490 C   0  0  0  0  0  0  0  0  0  0  0  0
  127.5760  124.4640   59.0600 C   0  0  0  0  0  0  0  0  0  0  0  0
  126.5820  124.3530   58.0810 N   0  0  0  0  0  0  0  0  0  0  0  0
  126.8870  123.6970   56.7930 C   0  0  0  0  0  0  0  0  0  0  0  0
  125.8480  123.9900   55.6890 C   0  0  0  0  0  0  0  0  0  0  0  0
  124.5480  123.6440   56.1410 O   0  0  0  0  0  0  0  0  0  0  0  0
  124.1800  124.3920   57.2880 C   0  0  0  0  0  0  0  0  0  0  0  0
  125.1700  124.1150   58.4400 C   0  0  0  0  0  0  0  0  0  0  0  0
  128.5140  125.5040   59.0060 C   0  0  0  0  0  0  0  0  0  0  0  0
  129.4890  125.6460   59.9900 C   0  0  0  0  0  0  0  0  0  0  0  0
  131.8700  124.6070   61.7920 N   0  0  0  0  0  0  0  0  0  0  0  0
  132.8570  124.7190   62.7110 C   0  0  0  0  0  0  0  0  0  0  0  0
  134.4640  124.2740   62.0890 S   0  0  0  0  0  0  0  0  0  0  0  0
  134.2240  123.4680   60.4770 C   0  0  0  0  0  0  0  0  0  0  0  0
  133.6050  122.0760   60.6160 C   0  0  0  0  0  0  0  0  0  0  0  0
  134.3440  121.0970   60.7360 O   0  0  0  0  0  0  0  0  0  0  0  0
  132.2560  122.0340   60.5890 N   0  0  0  0  0  0  0  0  0  0  0  0
  131.4460  120.9130   60.7040 C   0  0  0  0  0  0  0  0  0  0  0  0
  130.0720  120.9880   60.9310 C   0  0  0  0  0  0  0  0  0  0  0  0
  129.6470  119.6810   60.9810 C   0  0  0  0  0  0  0  0  0  0  0  0
  130.7080  118.8620   60.7930 O   0  0  0  0  0  0  0  0  0  0  0  0
  131.8440  119.6550   60.6170 N   0  0  0  0  0  0  0  0  0  0  0  0
  1  2  3  0
  2  3  1  0
  3  4  2  0
  4  5  1  0
  5  6  2  0
  6  7  1  0
  7  8  2  0
  8  9  1  0
  9 10  1  0
 10 11  1  0
 11 12  1  0
 12 13  1  0
 13 14  1  0
  8 15  1  0
 15 16  2  0
  4 17  1  0
 17 18  2  0
 18 19  1  0
 19 20  2  0
 20 21  1  0
 21 22  2  0
 22 23  1  0
 23 24  1  0
 24 25  1  0
 25 26  1  0
 26 27  1  0
 27 28  1  0
 22 29  1  0
 29 30  2  0
 18 31  1  0
 31 32  2  0
 32 33  1  0
 33 34  1  0
 34 35  1  0
 35 36  2  0
 35 37  1  0
 37 38  1  0
 38 39  1  0
 39 40  2  0
 40 41  1  0
 41 42  1  0
 32  3  1  0
 42 38  2  0
 16  5  1  0
 30 19  1  0
 14  9  1  0
 28 23  1  0
M  END
>  <Binding energies>  (10) 
[-7.24]

>  <Ligand effiencies>  (10) 
[-0.16837209302325581]

>  <Interactions>  (10) 
["V-B:TYR:539:CD2:9846, H-B:TYR:531:OH:9767, V-B:PRO:540:CA:9855, V-A:LEU:475:CD2:4257, V-A:ILE:369:CG2:3235, V-B:ALA:541:CB:9864, V-A:ILE:369:CD1:3237, V-B:TYR:539:CE2:9848, V-B:TYR:531:CE2:9765, V-B:PRO:540:CB:9857, V-A:GLU:543:CD:4906, V-A:HIS:456:CE1:4068, H-A:ARG:545:NE:4922, H-A:TYR:484:OH:4346, H-A:GLY:454:N:4048, V-B:TYR:531:CZ:9766, V-B:GLU:543:CD:9880, V-A:ARG:545:CZ:4924, V-B:GLU:543:CB:9878, V-B:GLU:543:CG:9879, V-A:GLU:543:CG:4905, V-B:HIS:456:CE1:9042, V-A:LYS:547:CE:4948, V-B:HIS:456:CG:9038, V-A:GLY:544:C:4910, V-A:GLU:543:C:4900, V-A:HIS:456:CD2:4066, V-B:HIS:456:CD2:9040, V-B:GLU:543:C:9874, V-A:HIS:456:CG:4064, V-A:GLY:544:CA:4912, V-B:GLU:543:CA:9876, V-A:ARG:545:CD:4921, V-A:ARG:545:CG:4920, V-B:ALA:541:CA:9862, V-A:PRO:482:CG:4325, V-A:PRO:482:CB:4324, V-A:GLY:453:CA:4042"]

$$$$
2c_Ghoteimi_2023
     RDKit          3D

 42 47  0  0  0  0  0  0  0  0999 V2000
  134.6130  125.3380   65.8080 N   0  0  0  0  0  0  0  0  0  0  0  0
  133.7800  125.2440   65.0120 C   0  0  0  0  0  0  0  0  0  0  0  0
  132.7200  125.1290   64.0050 C   0  0  0  0  0  0  0  0  0  0  0  0
  131.3830  125.4750   64.3230 C   0  0  0  0  0  0  0  0  0  0  0  0
  130.9480  125.9680   65.6640 C   0  0  0  0  0  0  0  0  0  0  0  0
  129.7860  125.4670   66.2540 C   0  0  0  0  0  0  0  0  0  0  0  0
  129.3760  125.9180   67.5060 C   0  0  0  0  0  0  0  0  0  0  0  0
  130.1090  126.8950   68.1980 C   0  0  0  0  0  0  0  0  0  0  0  0
  129.7280  127.3470   69.4630 N   0  0  0  0  0  0  0  0  0  0  0  0
  128.2940  127.3890   69.8130 C   0  0  0  0  0  0  0  0  0  0  0  0
  127.9960  128.2540   71.0560 C   0  0  0  0  0  0  0  0  0  0  0  0
  128.7730  127.8080   72.1570 O   0  0  0  0  0  0  0  0  0  0  0  0
  130.1630  127.8960   71.8870 C   0  0  0  0  0  0  0  0  0  0  0  0
  130.5190  127.0230   70.6660 C   0  0  0  0  0  0  0  0  0  0  0  0
  131.2730  127.3950   67.5950 C   0  0  0  0  0  0  0  0  0  0  0  0
  131.6830  126.9420   66.3450 C   0  0  0  0  0  0  0  0  0  0  0  0
  130.4070  125.3510   63.3260 C   0  0  0  0  0  0  0  0  0  0  0  0
  130.7560  124.9200   62.0430 C   0  0  0  0  0  0  0  0  0  0  0  0
  129.7550  124.7870   60.9400 C   0  0  0  0  0  0  0  0  0  0  0  0
  130.1490  124.3710   59.6640 C   0  0  0  0  0  0  0  0  0  0  0  0
  129.2210  124.2400   58.6340 C   0  0  0  0  0  0  0  0  0  0  0  0
  127.8630  124.5320   58.8400 C   0  0  0  0  0  0  0  0  0  0  0  0
  126.9140  124.3810   57.8240 N   0  0  0  0  0  0  0  0  0  0  0  0
  127.3170  123.8180   56.5190 C   0  0  0  0  0  0  0  0  0  0  0  0
  126.2890  124.0660   55.3940 C   0  0  0  0  0  0  0  0  0  0  0  0
  125.0170  123.5770   55.7820 O   0  0  0  0  0  0  0  0  0  0  0  0
  124.5440  124.2290   56.9500 C   0  0  0  0  0  0  0  0  0  0  0  0
  125.5200  123.9920   58.1220 C   0  0  0  0  0  0  0  0  0  0  0  0
  127.4710  124.9360   60.1240 C   0  0  0  0  0  0  0  0  0  0  0  0
  128.4000  125.0650   61.1540 C   0  0  0  0  0  0  0  0  0  0  0  0
  132.0380  124.5910   61.7400 N   0  0  0  0  0  0  0  0  0  0  0  0
  132.9940  124.6730   62.6960 C   0  0  0  0  0  0  0  0  0  0  0  0
  134.6100  124.1940   62.1290 S   0  0  0  0  0  0  0  0  0  0  0  0
  134.5210  124.0030   60.3230 C   0  0  0  0  0  0  0  0  0  0  0  0
  133.4470  122.9980   59.9040 C   0  0  0  0  0  0  0  0  0  0  0  0
  133.1820  122.8600   58.7090 O   0  0  0  0  0  0  0  0  0  0  0  0
  132.8560  122.3230   60.9140 N   0  0  0  0  0  0  0  0  0  0  0  0
  131.8720  121.3520   60.7980 C   0  0  0  0  0  0  0  0  0  0  0  0
  131.9390  120.2070   60.1560 N   0  0  0  0  0  0  0  0  0  0  0  0
  130.8160  119.5250   60.2600 C   0  0  0  0  0  0  0  0  0  0  0  0
  129.8010  120.1220   61.0030 C   0  0  0  0  0  0  0  0  0  0  0  0
  130.3610  121.6580   61.5920 S   0  0  0  0  0  0  0  0  0  0  0  0
  1  2  3  0
  2  3  1  0
  3  4  2  0
  4  5  1  0
  5  6  2  0
  6  7  1  0
  7  8  2  0
  8  9  1  0
  9 10  1  0
 10 11  1  0
 11 12  1  0
 12 13  1  0
 13 14  1  0
  8 15  1  0
 15 16  2  0
  4 17  1  0
 17 18  2  0
 18 19  1  0
 19 20  2  0
 20 21  1  0
 21 22  2  0
 22 23  1  0
 23 24  1  0
 24 25  1  0
 25 26  1  0
 26 27  1  0
 27 28  1  0
 22 29  1  0
 29 30  2  0
 18 31  1  0
 31 32  2  0
 32 33  1  0
 33 34  1  0
 34 35  1  0
 35 36  2  0
 35 37  1  0
 37 38  1  0
 38 39  2  0
 39 40  1  0
 40 41  2  0
 41 42  1  0
 32  3  1  0
 42 38  1  0
 16  5  1  0
 30 19  1  0
 14  9  1  0
 28 23  1  0
M  END
>  <Binding energies>  (11) 
[-7.61]

>  <Ligand effiencies>  (11) 
[-0.17697674418604653]

>  <Interactions>  (11) 
["V-B:TYR:539:CD2:9846, H-B:TYR:531:OH:9767, V-B:PRO:540:CA:9855, V-A:LEU:475:CD2:4257, V-A:ILE:369:CG2:3235, V-A:TRP:381:CZ2:3368, V-B:ALA:541:CB:9864, V-A:TRP:381:CH2:3370, V-A:ILE:369:CD1:3237, V-B:TYR:539:CE2:9848, V-B:PRO:540:N:9856, V-A:ASP:366:CG:3211, V-B:TYR:531:CE2:9765, V-B:PRO:540:CB:9857, V-A:GLU:543:CD:4906, V-A:HIS:456:CE1:4068, H-A:ARG:545:NE:4922, H-A:TYR:484:OH:4346, H-A:GLY:454:N:4048, V-B:TYR:531:CZ:9766, V-B:GLU:543:CD:9880, V-A:ARG:545:CZ:4924, V-B:GLU:543:CB:9878, V-B:GLU:543:CG:9879, V-A:GLU:543:CG:4905, V-B:HIS:456:CE1:9042, H-B:TYR:539:OH:9850, V-B:GLY:544:C:9884, V-A:LYS:547:CE:4948, V-B:HIS:456:CG:9038, V-A:GLY:544:C:4910, V-A:HIS:456:CD2:4066, V-B:HIS:456:CD2:9040, V-B:GLU:543:C:9874, V-A:HIS:456:CG:4064, V-A:GLY:544:CA:4912, V-B:GLU:543:CA:9876, V-A:ARG:545:CD:4921, V-A:ARG:545:CG:4920, V-A:ASP:366:CA:3208, V-B:ALA:541:CA:9862, V-A:PRO:482:CB:4324, V-A:GLY:453:C:4040, V-A:GLY:453:CA:4042, V-A:TRP:381:CZ3:3369"]

$$$$
2j_Grossjean_2025
     RDKit          3D

 23 24  0  0  0  0  0  0  0  0999 V2000
  129.0370  132.5810   73.5150 C   0  0  0  0  0  0  0  0  0  0  0  0
  128.0370  131.4730   73.7920 C   0  0  0  0  0  0  0  0  0  0  0  0
  126.9780  131.6510   74.6780 C   0  0  0  0  0  0  0  0  0  0  0  0
  126.0770  130.5980   74.8980 C   0  0  0  0  0  0  0  0  0  0  0  0
  124.9100  130.8130   75.8810 C   0  0  0  0  0  0  0  0  0  0  0  0
  125.2530  130.3820   77.0960 F   0  0  0  0  0  0  0  0  0  0  0  0
  124.6050  132.1090   75.9520 F   0  0  0  0  0  0  0  0  0  0  0  0
  123.8050  130.1590   75.5200 F   0  0  0  0  0  0  0  0  0  0  0  0
  126.2800  129.3790   74.2050 C   0  0  0  0  0  0  0  0  0  0  0  0
  125.3710  128.2450   74.3970 C   0  0  0  0  0  0  0  0  0  0  0  0
  124.6520  127.3500   74.5480 N   0  0  0  0  0  0  0  0  0  0  0  0
  127.3830  129.2850   73.3230 C   0  0  0  0  0  0  0  0  0  0  0  0
  127.7350  127.7980   72.3970 S   0  0  0  0  0  0  0  0  0  0  0  0
  129.5400  127.6880   72.1480 C   0  0  0  0  0  0  0  0  0  0  0  0
  130.1980  126.4350   72.7430 C   0  0  0  0  0  0  0  0  0  0  0  0
  129.6480  125.3350   72.6580 O   0  0  0  0  0  0  0  0  0  0  0  0
  131.3850  126.6530   73.3530 N   0  0  0  0  0  0  0  0  0  0  0  0
  132.1890  125.7030   73.9680 C   0  0  0  0  0  0  0  0  0  0  0  0
  131.8260  124.5440   74.4730 N   0  0  0  0  0  0  0  0  0  0  0  0
  132.8540  123.8920   74.9800 C   0  0  0  0  0  0  0  0  0  0  0  0
  134.0890  124.5270   74.8930 C   0  0  0  0  0  0  0  0  0  0  0  0
  133.8810  126.0600   74.1000 S   0  0  0  0  0  0  0  0  0  0  0  0
  128.2420  130.3170   73.1220 N   0  0  0  0  0  0  0  0  0  0  0  0
  1  2  1  0
  2  3  2  0
  3  4  1  0
  4  5  1  0
  5  6  1  0
  5  7  1  0
  5  8  1  0
  4  9  2  0
  9 10  1  0
 10 11  3  0
  9 12  1  0
 12 13  1  0
 13 14  1  0
 14 15  1  0
 15 16  2  0
 15 17  1  0
 17 18  1  0
 18 19  2  0
 19 20  1  0
 20 21  2  0
 21 22  1  0
 12 23  2  0
 23  2  1  0
 22 18  1  0
M  END
>  <Binding energies>  (12) 
[-7.6]

>  <Ligand effiencies>  (12) 
[-0.31666666666666665]

>  <Interactions>  (12) 
["V-A:LYS:547:CE:4948, V-B:HIS:456:CG:9038, V-A:GLY:544:C:4910, V-B:LYS:547:CE:9922, V-A:HIS:456:CD2:4066, V-B:HIS:456:CD2:9040, V-A:HIS:456:CG:4064, H-B:LYS:547:NZ:9923, H-A:LYS:547:NZ:4949, H-A:GLY:544:O:4911, V-B:LYS:547:CD:9921, V-A:HIS:456:C:4059, V-B:VAL:458:CG2:9059, V-B:VAL:457:C:9045, V-B:HIS:456:CB:9037, V-A:HIS:456:CB:4063, V-B:HIS:456:CA:9035, V-B:HIS:456:C:9033, V-A:VAL:458:CG2:4085, V-A:LYS:471:CE:4218, V-A:VAL:457:C:4071, V-B:LYS:471:CE:9192, V-B:LYS:471:CD:9191, V-B:LYS:471:CG:9190, V-B:ASP:473:CG:9212, V-B:VAL:457:CA:9047, V-A:HIS:456:CA:4061, V-B:LYS:471:CB:9189, V-B:ASP:473:CB:9211"]

$$$$
3ab_Grossjean_2025
     RDKit          3D

 33 35  0  0  0  0  0  0  0  0999 V2000
  137.2570  136.2670   74.5740 C   0  0  0  0  0  0  0  0  0  0  0  0
  136.8340  136.0740   73.2310 O   0  0  0  0  0  0  0  0  0  0  0  0
  136.6120  134.8280   72.7400 C   0  0  0  0  0  0  0  0  0  0  0  0
  137.5010  134.1170   72.2620 O   0  0  0  0  0  0  0  0  0  0  0  0
  135.1770  134.3980   72.8400 C   0  0  0  0  0  0  0  0  0  0  0  0
  134.6130  133.9680   74.0510 C   0  0  0  0  0  0  0  0  0  0  0  0
  133.2790  133.5760   74.1140 C   0  0  0  0  0  0  0  0  0  0  0  0
  132.4810  133.6060   72.9590 C   0  0  0  0  0  0  0  0  0  0  0  0
  131.1230  133.2380   72.9080 N   0  0  0  0  0  0  0  0  0  0  0  0
  130.0150  134.0040   72.9900 C   0  0  0  0  0  0  0  0  0  0  0  0
  129.9980  135.2250   73.1460 O   0  0  0  0  0  0  0  0  0  0  0  0
  128.6870  133.2510   72.8780 C   0  0  0  0  0  0  0  0  0  0  0  0
  128.1710  132.5340   74.4660 S   0  0  0  0  0  0  0  0  0  0  0  0
  127.4730  130.9310   74.1270 C   0  0  0  0  0  0  0  0  0  0  0  0
  128.2540  130.1570   73.3370 N   0  0  0  0  0  0  0  0  0  0  0  0
  127.8460  128.9050   73.0020 C   0  0  0  0  0  0  0  0  0  0  0  0
  128.7700  128.1110   72.1270 C   0  0  0  0  0  0  0  0  0  0  0  0
  128.5940  128.0860   70.7340 C   0  0  0  0  0  0  0  0  0  0  0  0
  129.4490  127.3520   69.9160 C   0  0  0  0  0  0  0  0  0  0  0  0
  130.4940  126.6290   70.4820 C   0  0  0  0  0  0  0  0  0  0  0  0
  130.6880  126.6330   71.8590 C   0  0  0  0  0  0  0  0  0  0  0  0
  129.8310  127.3690   72.6730 C   0  0  0  0  0  0  0  0  0  0  0  0
  126.6150  128.4100   73.4470 C   0  0  0  0  0  0  0  0  0  0  0  0
  125.7800  129.2000   74.2500 C   0  0  0  0  0  0  0  0  0  0  0  0
  124.4300  128.6190   74.7140 C   0  0  0  0  0  0  0  0  0  0  0  0
  123.6980  128.1430   73.7050 F   0  0  0  0  0  0  0  0  0  0  0  0
  124.6310  127.6150   75.5690 F   0  0  0  0  0  0  0  0  0  0  0  0
  123.7130  129.5650   75.3210 F   0  0  0  0  0  0  0  0  0  0  0  0
  126.2110  130.5040   74.5990 C   0  0  0  0  0  0  0  0  0  0  0  0
  125.3530  131.3910   75.3880 C   0  0  0  0  0  0  0  0  0  0  0  0
  124.6720  132.0890   76.0120 N   0  0  0  0  0  0  0  0  0  0  0  0
  133.0380  134.0380   71.7550 C   0  0  0  0  0  0  0  0  0  0  0  0
  134.3720  134.4290   71.6940 C   0  0  0  0  0  0  0  0  0  0  0  0
  1  2  1  0
  2  3  1  0
  3  4  2  0
  3  5  1  0
  5  6  2  0
  6  7  1  0
  7  8  2  0
  8  9  1  0
  9 10  1  0
 10 11  2  0
 10 12  1  0
 12 13  1  0
 13 14  1  0
 14 15  2  0
 15 16  1  0
 16 17  1  0
 17 18  2  0
 18 19  1  0
 19 20  2  0
 20 21  1  0
 21 22  2  0
 16 23  2  0
 23 24  1  0
 24 25  1  0
 25 26  1  0
 25 27  1  0
 25 28  1  0
 24 29  2  0
 29 30  1  0
 30 31  3  0
  8 32  1  0
 32 33  2  0
 33  5  1  0
 29 14  1  0
 22 17  1  0
M  END
>  <Binding energies>  (13) 
[-8.81]

>  <Ligand effiencies>  (13) 
[-0.25911764705882356]

>  <Interactions>  (13) 
["V-A:HIS:456:CE1:4068, V-B:HIS:456:CE1:9042, V-B:TYR:484:CG:9314, V-B:GLY:544:C:9884, V-A:LYS:547:CE:4948, V-B:HIS:456:CG:9038, V-B:TYR:484:CB:9313, V-A:GLY:544:C:4910, V-B:LYS:547:CE:9922, V-A:HIS:456:CD2:4066, V-B:HIS:456:CD2:9040, V-A:HIS:456:CG:4064, H-A:LYS:547:NZ:4949, V-A:GLY:544:CA:4912, V-B:LYS:547:CD:9921, V-B:VAL:458:CG2:9059, V-B:VAL:457:C:9045, V-B:ARG:545:C:9889, V-B:HIS:456:CB:9037, V-B:HIS:456:CA:9035, V-B:HIS:456:C:9033, V-A:LYS:547:CG:4946, V-B:LYS:547:CG:9920, V-B:LYS:471:CE:9192, V-B:LYS:471:CD:9191, V-B:LYS:471:CG:9190, V-B:ASP:473:CG:9212, V-B:VAL:457:CA:9047, V-B:LYS:547:CB:9919, V-A:PHE:548:CD2:4961, V-A:VAL:542:CG1:4897, V-A:ARG:356:CB:3115, V-A:PHE:548:CE2:4963, V-A:GLU:357:CB:3132, V-A:LYS:547:CA:4943, V-B:ARG:545:CA:9891, H-A:GLU:357:N:3131, V-B:VAL:458:CB:9057"]

$$$$
3ac_Grossjean_2025
     RDKit          3D

 31 33  0  0  0  0  0  0  0  0999 V2000
  131.8870  131.1530   62.1040 C   0  0  0  0  0  0  0  0  0  0  0  0
  131.0090  131.7630   61.1630 O   0  0  0  0  0  0  0  0  0  0  0  0
  130.7970  131.1510   59.9420 C   0  0  0  0  0  0  0  0  0  0  0  0
  130.9960  129.7710   59.8950 C   0  0  0  0  0  0  0  0  0  0  0  0
  130.8030  129.0680   58.7100 C   0  0  0  0  0  0  0  0  0  0  0  0
  130.4150  129.7380   57.5480 C   0  0  0  0  0  0  0  0  0  0  0  0
  130.2250  128.9400   56.4050 N   0  0  0  0  0  0  0  0  0  0  0  0
  129.3050  127.9770   56.1830 C   0  0  0  0  0  0  0  0  0  0  0  0
  128.4110  127.6520   56.9660 O   0  0  0  0  0  0  0  0  0  0  0  0
  129.4140  127.2580   54.8380 C   0  0  0  0  0  0  0  0  0  0  0  0
  130.2540  125.6510   54.9820 S   0  0  0  0  0  0  0  0  0  0  0  0
  129.5920  124.7850   56.3930 C   0  0  0  0  0  0  0  0  0  0  0  0
  128.2540  124.5910   56.3200 N   0  0  0  0  0  0  0  0  0  0  0  0
  127.6080  123.9390   57.3210 C   0  0  0  0  0  0  0  0  0  0  0  0
  126.1260  123.7720   57.1650 C   0  0  0  0  0  0  0  0  0  0  0  0
  125.5850  123.2080   55.9980 C   0  0  0  0  0  0  0  0  0  0  0  0
  124.2100  123.0450   55.8510 C   0  0  0  0  0  0  0  0  0  0  0  0
  123.3540  123.4480   56.8710 C   0  0  0  0  0  0  0  0  0  0  0  0
  123.8630  124.0150   58.0340 C   0  0  0  0  0  0  0  0  0  0  0  0
  125.2390  124.1760   58.1780 C   0  0  0  0  0  0  0  0  0  0  0  0
  128.3060  123.4770   58.4410 C   0  0  0  0  0  0  0  0  0  0  0  0
  129.6880  123.6850   58.5520 C   0  0  0  0  0  0  0  0  0  0  0  0
  130.4170  123.1640   59.8070 C   0  0  0  0  0  0  0  0  0  0  0  0
  131.4290  122.3440   59.5150 F   0  0  0  0  0  0  0  0  0  0  0  0
  130.9210  124.1840   60.5040 F   0  0  0  0  0  0  0  0  0  0  0  0
  129.5640  122.4920   60.5800 F   0  0  0  0  0  0  0  0  0  0  0  0
  130.3570  124.3710   57.5080 C   0  0  0  0  0  0  0  0  0  0  0  0
  131.7850  124.6790   57.6150 C   0  0  0  0  0  0  0  0  0  0  0  0
  132.9130  124.9230   57.7010 N   0  0  0  0  0  0  0  0  0  0  0  0
  130.2060  131.1260   57.5900 C   0  0  0  0  0  0  0  0  0  0  0  0
  130.3990  131.8260   58.7770 C   0  0  0  0  0  0  0  0  0  0  0  0
  1  2  1  0
  2  3  1  0
  3  4  2  0
  4  5  1  0
  5  6  2  0
  6  7  1  0
  7  8  1  0
  8  9  2  0
  8 10  1  0
 10 11  1  0
 11 12  1  0
 12 13  2  0
 13 14  1  0
 14 15  1  0
 15 16  2  0
 16 17  1  0
 17 18  2  0
 18 19  1  0
 19 20  2  0
 14 21  2  0
 21 22  1  0
 22 23  1  0
 23 24  1  0
 23 25  1  0
 23 26  1  0
 22 27  2  0
 27 28  1  0
 28 29  3  0
  6 30  1  0
 30 31  2  0
 31  3  1  0
 27 12  1  0
 20 15  1  0
M  END
>  <Binding energies>  (14) 
[-7.49]

>  <Ligand effiencies>  (14) 
[-0.2340625]

>  <Interactions>  (14) 
["V-A:PRO:540:N:4882, V-B:TYR:539:CD2:9846, V-B:PRO:540:CA:9855, V-B:ALA:541:CB:9864, V-B:TYR:539:CE2:9848, V-B:PRO:540:N:9856, V-B:ILE:538:CB:9834, H-A:TYR:531:OH:4793, V-B:TYR:531:CE2:9765, V-B:PRO:540:CD:9859, V-B:PRO:540:CB:9857, V-B:ILE:538:CG2:9835, H-A:ALA:541:N:4889, V-A:PRO:540:CA:4881, V-B:TYR:539:CZ:9849, V-A:GLU:543:CD:4906, V-B:ILE:538:CA:9832, V-B:TYR:539:C:9839, V-B:LEU:363:CD1:8161, V-A:TYR:539:C:4865, H-B:TYR:539:OH:9850, V-B:LEU:363:CA:8157, V-B:LEU:363:CB:8159, V-B:PRO:540:CG:9858, V-A:ALA:541:C:4886"]

$$$$
3af_Grossjean_2025
     RDKit          3D

 29 31  0  0  0  0  0  0  0  0999 V2000
  133.7760  127.3100   74.2530 N   0  0  0  0  0  0  0  0  0  0  0  0
  133.0310  126.4390   74.0910 C   0  0  0  0  0  0  0  0  0  0  0  0
  132.0880  125.3360   73.8860 C   0  0  0  0  0  0  0  0  0  0  0  0
  132.3090  124.0750   74.4910 C   0  0  0  0  0  0  0  0  0  0  0  0
  133.5020  123.7990   75.4270 C   0  0  0  0  0  0  0  0  0  0  0  0
  133.7520  122.4960   75.5770 F   0  0  0  0  0  0  0  0  0  0  0  0
  134.6050  124.3670   74.9380 F   0  0  0  0  0  0  0  0  0  0  0  0
  133.2590  124.2990   76.6390 F   0  0  0  0  0  0  0  0  0  0  0  0
  131.4080  123.0340   74.2210 C   0  0  0  0  0  0  0  0  0  0  0  0
  130.3190  123.2450   73.3690 C   0  0  0  0  0  0  0  0  0  0  0  0
  129.3370  122.1630   73.0320 C   0  0  0  0  0  0  0  0  0  0  0  0
  129.0290  121.8650   71.6940 C   0  0  0  0  0  0  0  0  0  0  0  0
  128.1200  120.8600   71.3750 C   0  0  0  0  0  0  0  0  0  0  0  0
  127.5050  120.1380   72.3910 C   0  0  0  0  0  0  0  0  0  0  0  0
  127.7940  120.4110   73.7240 C   0  0  0  0  0  0  0  0  0  0  0  0
  128.7040  121.4160   74.0400 C   0  0  0  0  0  0  0  0  0  0  0  0
  130.1130  124.4540   72.7880 N   0  0  0  0  0  0  0  0  0  0  0  0
  130.9560  125.4810   73.0510 C   0  0  0  0  0  0  0  0  0  0  0  0
  130.5160  126.9890   72.2110 S   0  0  0  0  0  0  0  0  0  0  0  0
  128.7020  127.0970   72.1630 C   0  0  0  0  0  0  0  0  0  0  0  0
  128.1870  128.3440   72.8820 C   0  0  0  0  0  0  0  0  0  0  0  0
  128.8890  129.3550   72.9040 O   0  0  0  0  0  0  0  0  0  0  0  0
  126.9710  128.2200   73.4560 N   0  0  0  0  0  0  0  0  0  0  0  0
  126.2240  129.1620   74.1910 C   0  0  0  0  0  0  0  0  0  0  0  0
  126.6760  130.4310   74.5980 C   0  0  0  0  0  0  0  0  0  0  0  0
  125.8260  131.2650   75.3270 C   0  0  0  0  0  0  0  0  0  0  0  0
  124.5430  130.8100   75.6330 C   0  0  0  0  0  0  0  0  0  0  0  0
  124.0840  129.5920   75.2530 N   0  0  0  0  0  0  0  0  0  0  0  0
  124.9220  128.7930   74.5450 C   0  0  0  0  0  0  0  0  0  0  0  0
  1  2  3  0
  2  3  1  0
  3  4  2  0
  4  5  1  0
  5  6  1  0
  5  7  1  0
  5  8  1  0
  4  9  1  0
  9 10  2  0
 10 11  1  0
 11 12  2  0
 12 13  1  0
 13 14  2  0
 14 15  1  0
 15 16  2  0
 10 17  1  0
 17 18  2  0
 18 19  1  0
 19 20  1  0
 20 21  1  0
 21 22  2  0
 21 23  1  0
 23 24  1  0
 24 25  2  0
 25 26  1  0
 26 27  2  0
 27 28  1  0
 28 29  2  0
 18  3  1  0
 29 24  1  0
 16 11  1  0
M  END
>  <Binding energies>  (15) 
[-9.08]

>  <Ligand effiencies>  (15) 
[-0.3026666666666667]

>  <Interactions>  (15) 
["V-B:GLY:544:C:9884, V-A:LYS:547:CE:4948, V-B:HIS:456:CG:9038, V-B:LYS:547:CE:9922, V-A:HIS:456:CD2:4066, V-B:HIS:456:CD2:9040, V-B:GLU:543:C:9874, V-A:HIS:456:CG:4064, H-B:GLY:544:O:9885, H-B:LYS:547:NZ:9923, H-A:LYS:547:NZ:4949, V-B:GLY:544:CA:9886, V-A:TYR:484:CD1:4341, V-A:TYR:484:CG:4340, V-B:GLU:543:CA:9876, V-A:TYR:484:CB:4339, V-A:ASP:473:CG:4238, V-A:HIS:456:C:4059, V-B:VAL:458:CG2:9059, V-B:HIS:456:CB:9037, V-A:LYS:471:CD:4217, V-A:HIS:456:CB:4063, V-B:HIS:456:CA:9035, V-B:HIS:456:C:9033, V-A:VAL:458:CG2:4085, V-A:LYS:471:CE:4218, V-A:LYS:547:CD:4947, V-A:VAL:457:C:4071, V-B:LYS:471:CE:9192, V-B:LYS:471:CD:9191, V-B:LYS:471:CG:9190, V-B:ASP:473:CG:9212, V-A:VAL:457:CA:4073, V-A:HIS:456:CA:4061, V-A:LYS:471:CG:4216, H-B:VAL:457:N:9048, V-A:ASP:473:CB:4237"]

$$$$
3ag_Grossjean_2025
     RDKit          3D

 30 32  0  0  0  0  0  0  0  0999 V2000
  133.1050  124.5570   57.8860 N   0  0  0  0  0  0  0  0  0  0  0  0
  131.9560  124.4400   57.8110 C   0  0  0  0  0  0  0  0  0  0  0  0
  130.5010  124.2900   57.7200 C   0  0  0  0  0  0  0  0  0  0  0  0
  129.7840  123.5700   58.7080 C   0  0  0  0  0  0  0  0  0  0  0  0
  130.4630  122.9600   59.9500 C   0  0  0  0  0  0  0  0  0  0  0  0
  129.6290  122.2230   60.6860 F   0  0  0  0  0  0  0  0  0  0  0  0
  131.4710  122.1730   59.5740 F   0  0  0  0  0  0  0  0  0  0  0  0
  130.9380  123.9280   60.7350 F   0  0  0  0  0  0  0  0  0  0  0  0
  128.3990  123.4090   58.5470 C   0  0  0  0  0  0  0  0  0  0  0  0
  127.7510  123.9390   57.4270 C   0  0  0  0  0  0  0  0  0  0  0  0
  126.2760  123.7940   57.2040 C   0  0  0  0  0  0  0  0  0  0  0  0
  125.7800  123.3000   55.9870 C   0  0  0  0  0  0  0  0  0  0  0  0
  124.4110  123.1630   55.7730 C   0  0  0  0  0  0  0  0  0  0  0  0
  123.5160  123.5190   56.7770 C   0  0  0  0  0  0  0  0  0  0  0  0
  123.9820  124.0140   57.9910 C   0  0  0  0  0  0  0  0  0  0  0  0
  125.3510  124.1510   58.2010 C   0  0  0  0  0  0  0  0  0  0  0  0
  128.4390  124.6390   56.4890 N   0  0  0  0  0  0  0  0  0  0  0  0
  129.7740  124.8250   56.6330 C   0  0  0  0  0  0  0  0  0  0  0  0
  130.5080  125.7660   55.3140 S   0  0  0  0  0  0  0  0  0  0  0  0
  129.4440  127.2110   55.0230 C   0  0  0  0  0  0  0  0  0  0  0  0
  129.7450  128.3540   55.9940 C   0  0  0  0  0  0  0  0  0  0  0  0
  130.3860  128.1330   57.0230 O   0  0  0  0  0  0  0  0  0  0  0  0
  129.2820  129.5680   55.6490 N   0  0  0  0  0  0  0  0  0  0  0  0
  129.4850  130.8010   56.4090 C   0  0  0  0  0  0  0  0  0  0  0  0
  130.9490  131.1860   56.5910 C   0  0  0  0  0  0  0  0  0  0  0  0
  131.6360  130.7810   57.7380 C   0  0  0  0  0  0  0  0  0  0  0  0
  132.9810  131.1050   57.8940 C   0  0  0  0  0  0  0  0  0  0  0  0
  133.6370  131.8260   56.8980 C   0  0  0  0  0  0  0  0  0  0  0  0
  132.9620  132.2200   55.7460 C   0  0  0  0  0  0  0  0  0  0  0  0
  131.6170  131.8960   55.5880 C   0  0  0  0  0  0  0  0  0  0  0  0
  1  2  3  0
  2  3  1  0
  3  4  2  0
  4  5  1  0
  5  6  1  0
  5  7  1  0
  5  8  1  0
  4  9  1  0
  9 10  2  0
 10 11  1  0
 11 12  2  0
 12 13  1  0
 13 14  2  0
 14 15  1  0
 15 16  2  0
 10 17  1  0
 17 18  2  0
 18 19  1  0
 19 20  1  0
 20 21  1  0
 21 22  2  0
 21 23  1  0
 23 24  1  0
 24 25  1  0
 25 26  2  0
 26 27  1  0
 27 28  2  0
 28 29  1  0
 29 30  2  0
 18  3  1  0
 30 25  1  0
 16 11  1  0
M  END
>  <Binding energies>  (16) 
[-8.13]

>  <Ligand effiencies>  (16) 
[-0.26225806451612904]

>  <Interactions>  (16) 
["V-A:ILE:538:CG2:4861, V-A:PRO:540:CD:4885, V-B:TYR:539:CD2:9846, V-B:PRO:540:CA:9855, V-B:ALA:541:CB:9864, V-A:ILE:538:CB:4860, V-A:ILE:538:CA:4858, V-B:TYR:539:CE2:9848, V-B:PRO:540:N:9856, V-B:ILE:538:CB:9834, H-A:TYR:531:OH:4793, V-B:TYR:531:CE2:9765, V-B:PRO:540:CD:9859, V-B:PRO:540:CB:9857, V-B:ILE:538:CG2:9835, V-A:PRO:540:CA:4881, V-B:TYR:539:CZ:9849, V-B:ILE:538:CA:9832, V-B:TYR:539:C:9839, V-B:LEU:363:CD1:8161, V-B:TYR:531:CZ:9766, V-A:PRO:540:CB:4883, V-A:LEU:363:CD1:3187, V-A:TYR:531:CE2:4791, H-B:TYR:539:OH:9850, V-A:LEU:363:CB:3185, V-A:LEU:363:CA:3183, V-B:LEU:363:CA:8157, V-B:LEU:363:CB:8159, V-B:PRO:540:CG:9858, V-A:PRO:540:CG:4884, H-A:MET:535:SD:4832"]

$$$$
3bc_Grossjean_2025
     RDKit          3D

 28 30  0  0  0  0  0  0  0  0999 V2000
  123.9430  132.5140   75.9980 C   0  0  0  0  0  0  0  0  0  0  0  0
  123.7850  131.1200   76.2370 O   0  0  0  0  0  0  0  0  0  0  0  0
  124.5430  130.2210   75.5090 C   0  0  0  0  0  0  0  0  0  0  0  0
  125.9080  130.4920   75.4170 C   0  0  0  0  0  0  0  0  0  0  0  0
  126.7520  129.6440   74.7040 C   0  0  0  0  0  0  0  0  0  0  0  0
  126.2370  128.5150   74.0650 C   0  0  0  0  0  0  0  0  0  0  0  0
  127.1680  127.7110   73.3790 N   0  0  0  0  0  0  0  0  0  0  0  0
  128.2980  128.0760   72.7380 C   0  0  0  0  0  0  0  0  0  0  0  0
  128.7330  129.2280   72.6820 O   0  0  0  0  0  0  0  0  0  0  0  0
  129.0680  126.9180   72.0860 C   0  0  0  0  0  0  0  0  0  0  0  0
  130.8630  126.8980   72.4140 S   0  0  0  0  0  0  0  0  0  0  0  0
  131.2460  125.3760   73.2520 C   0  0  0  0  0  0  0  0  0  0  0  0
  130.3460  124.3880   73.0260 N   0  0  0  0  0  0  0  0  0  0  0  0
  130.5190  123.1700   73.6030 C   0  0  0  0  0  0  0  0  0  0  0  0
  129.4670  122.1390   73.3200 C   0  0  0  0  0  0  0  0  0  0  0  0
  129.1390  121.7930   72.0010 C   0  0  0  0  0  0  0  0  0  0  0  0
  128.1640  120.8360   71.7300 C   0  0  0  0  0  0  0  0  0  0  0  0
  127.5010  120.2120   72.7810 C   0  0  0  0  0  0  0  0  0  0  0  0
  127.8050  120.5380   74.0990 C   0  0  0  0  0  0  0  0  0  0  0  0
  128.7800  121.4960   74.3640 C   0  0  0  0  0  0  0  0  0  0  0  0
  131.6160  122.9170   74.4320 C   0  0  0  0  0  0  0  0  0  0  0  0
  132.5670  123.9190   74.6570 C   0  0  0  0  0  0  0  0  0  0  0  0
  133.7590  123.5930   75.5560 C   0  0  0  0  0  0  0  0  0  0  0  0
  132.3960  125.1820   74.0500 C   0  0  0  0  0  0  0  0  0  0  0  0
  133.4040  126.2290   74.2310 C   0  0  0  0  0  0  0  0  0  0  0  0
  134.2010  127.0560   74.3770 N   0  0  0  0  0  0  0  0  0  0  0  0
  124.8680  128.2280   74.1640 C   0  0  0  0  0  0  0  0  0  0  0  0
  124.0270  129.0790   74.8780 C   0  0  0  0  0  0  0  0  0  0  0  0
  1  2  1  0
  2  3  1  0
  3  4  2  0
  4  5  1  0
  5  6  2  0
  6  7  1  0
  7  8  1  0
  8  9  2  0
  8 10  1  0
 10 11  1  0
 11 12  1  0
 12 13  2  0
 13 14  1  0
 14 15  1  0
 15 16  2  0
 16 17  1  0
 17 18  2  0
 18 19  1  0
 19 20  2  0
 14 21  2  0
 21 22  1  0
 22 23  1  0
 22 24  2  0
 24 25  1  0
 25 26  3  0
  6 27  1  0
 27 28  2  0
 28  3  1  0
 24 12  1  0
 20 15  1  0
M  END
>  <Binding energies>  (17) 
[-8.87]

>  <Ligand effiencies>  (17) 
[-0.3058620689655172]

>  <Interactions>  (17) 
["V-B:GLY:544:C:9884, V-B:HIS:456:CG:9038, V-B:LYS:547:CE:9922, V-A:HIS:456:CD2:4066, V-B:HIS:456:CD2:9040, V-B:GLU:543:C:9874, V-A:HIS:456:CG:4064, H-B:GLY:544:O:9885, H-B:LYS:547:NZ:9923, H-A:LYS:547:NZ:4949, V-B:GLY:544:CA:9886, V-A:TYR:484:CG:4340, V-A:TYR:484:CB:4339, V-A:ASP:473:CG:4238, V-A:HIS:456:C:4059, V-B:VAL:458:CG2:9059, V-B:VAL:457:C:9045, V-B:HIS:456:CB:9037, V-A:LYS:471:CD:4217, V-A:HIS:456:CB:4063, V-B:HIS:456:CA:9035, V-B:HIS:456:C:9033, V-A:VAL:458:CG2:4085, V-A:LYS:471:CE:4218, V-B:LYS:471:CE:9192, V-B:LYS:471:CD:9191, V-B:LYS:471:CG:9190, V-B:ASP:473:CG:9212, V-B:VAL:457:CA:9047, V-A:LYS:471:CG:4216, V-B:LYS:471:CB:9189, V-B:ASP:473:CB:9211, V-B:LYS:471:C:9185, V-B:ASP:473:CA:9209, V-B:LEU:472:C:9198, V-B:LEU:472:CA:9200"]

$$$$
3bd_Grossjean_2025
     RDKit          3D

 26 28  0  0  0  0  0  0  0  0999 V2000
  133.7890  123.6770   75.4150 C   0  0  0  0  0  0  0  0  0  0  0  0
  132.5640  123.9830   74.5550 C   0  0  0  0  0  0  0  0  0  0  0  0
  131.6650  122.9430   74.2910 C   0  0  0  0  0  0  0  0  0  0  0  0
  130.5320  123.1810   73.5040 C   0  0  0  0  0  0  0  0  0  0  0  0
  129.5270  122.1140   73.1860 C   0  0  0  0  0  0  0  0  0  0  0  0
  129.1220  121.1960   74.1670 C   0  0  0  0  0  0  0  0  0  0  0  0
  128.1900  120.2020   73.8790 C   0  0  0  0  0  0  0  0  0  0  0  0
  127.6500  120.1120   72.6000 C   0  0  0  0  0  0  0  0  0  0  0  0
  128.0370  121.0080   71.6090 C   0  0  0  0  0  0  0  0  0  0  0  0
  128.9680  122.0000   71.9010 C   0  0  0  0  0  0  0  0  0  0  0  0
  130.2840  124.4180   73.0000 N   0  0  0  0  0  0  0  0  0  0  0  0
  131.1450  125.4380   73.2450 C   0  0  0  0  0  0  0  0  0  0  0  0
  130.7110  127.0090   72.5170 S   0  0  0  0  0  0  0  0  0  0  0  0
  128.9100  127.0380   72.2710 C   0  0  0  0  0  0  0  0  0  0  0  0
  128.2560  128.2330   72.9660 C   0  0  0  0  0  0  0  0  0  0  0  0
  128.8400  129.3170   72.9700 O   0  0  0  0  0  0  0  0  0  0  0  0
  127.0620  127.9890   73.5490 N   0  0  0  0  0  0  0  0  0  0  0  0
  126.2120  128.8790   74.2330 C   0  0  0  0  0  0  0  0  0  0  0  0
  126.7810  130.0940   74.6220 C   0  0  0  0  0  0  0  0  0  0  0  0
  126.0200  131.0350   75.3120 C   0  0  0  0  0  0  0  0  0  0  0  0
  124.6920  130.7560   75.6220 C   0  0  0  0  0  0  0  0  0  0  0  0
  124.1180  129.5420   75.2510 C   0  0  0  0  0  0  0  0  0  0  0  0
  124.8750  128.6000   74.5600 C   0  0  0  0  0  0  0  0  0  0  0  0
  132.3100  125.2650   74.0230 C   0  0  0  0  0  0  0  0  0  0  0  0
  133.2320  126.3750   74.2820 C   0  0  0  0  0  0  0  0  0  0  0  0
  133.9600  127.2510   74.4890 N   0  0  0  0  0  0  0  0  0  0  0  0
  1  2  1  0
  2  3  2  0
  3  4  1  0
  4  5  1  0
  5  6  2  0
  6  7  1  0
  7  8  2  0
  8  9  1  0
  9 10  2  0
  4 11  2  0
 11 12  1  0
 12 13  1  0
 13 14  1  0
 14 15  1  0
 15 16  2  0
 15 17  1  0
 17 18  1  0
 18 19  2  0
 19 20  1  0
 20 21  2  0
 21 22  1  0
 22 23  2  0
 12 24  2  0
 24 25  1  0
 25 26  3  0
 24  2  1  0
 10  5  1  0
 23 18  1  0
M  END
>  <Binding energies>  (18) 
[-9.85]

>  <Ligand effiencies>  (18) 
[-0.3648148148148148]

>  <Interactions>  (18) 
["V-B:GLY:544:C:9884, V-A:LYS:547:CE:4948, V-B:HIS:456:CG:9038, V-B:LYS:547:CE:9922, V-A:HIS:456:CD2:4066, V-B:HIS:456:CD2:9040, V-B:GLU:543:C:9874, V-A:HIS:456:CG:4064, H-B:GLY:544:O:9885, H-B:LYS:547:NZ:9923, H-A:LYS:547:NZ:4949, V-B:GLY:544:CA:9886, V-B:GLU:543:CA:9876, V-A:TYR:484:CB:4339, V-A:ASP:473:CG:4238, V-A:HIS:456:C:4059, V-B:VAL:458:CG2:9059, V-B:VAL:457:C:9045, V-B:HIS:456:CB:9037, V-A:LYS:471:CD:4217, V-A:HIS:456:CB:4063, V-B:HIS:456:CA:9035, V-B:HIS:456:C:9033, V-A:VAL:458:CG2:4085, V-A:LYS:471:CE:4218, V-A:LYS:547:CD:4947, V-B:LYS:471:CE:9192, V-B:LYS:471:CD:9191, V-B:LYS:471:CG:9190, V-B:VAL:457:CA:9047, V-A:LYS:471:CG:4216"]

$$$$
3be_Grossjean_2025
     RDKit          3D

 27 29  0  0  0  0  0  0  0  0999 V2000
  126.3340  131.8710   75.2160 C   0  0  0  0  0  0  0  0  0  0  0  0
  126.1060  130.4080   74.8890 C   0  0  0  0  0  0  0  0  0  0  0  0
  124.9180  129.7580   75.2310 C   0  0  0  0  0  0  0  0  0  0  0  0
  124.7780  128.4100   74.9010 C   0  0  0  0  0  0  0  0  0  0  0  0
  125.8200  127.7500   74.2430 C   0  0  0  0  0  0  0  0  0  0  0  0
  126.9830  128.4610   73.9260 C   0  0  0  0  0  0  0  0  0  0  0  0
  127.9980  127.7370   73.2740 N   0  0  0  0  0  0  0  0  0  0  0  0
  128.1480  127.4930   71.9540 C   0  0  0  0  0  0  0  0  0  0  0  0
  127.3740  127.8830   71.0780 O   0  0  0  0  0  0  0  0  0  0  0  0
  129.3930  126.6690   71.5900 C   0  0  0  0  0  0  0  0  0  0  0  0
  130.8630  126.9860   72.6240 S   0  0  0  0  0  0  0  0  0  0  0  0
  131.3540  125.4480   73.3730 C   0  0  0  0  0  0  0  0  0  0  0  0
  130.4980  124.4260   73.1270 N   0  0  0  0  0  0  0  0  0  0  0  0
  130.7520  123.1910   73.6360 C   0  0  0  0  0  0  0  0  0  0  0  0
  129.7480  122.1200   73.3300 C   0  0  0  0  0  0  0  0  0  0  0  0
  129.2120  121.9870   72.0390 C   0  0  0  0  0  0  0  0  0  0  0  0
  128.2780  120.9970   71.7480 C   0  0  0  0  0  0  0  0  0  0  0  0
  127.8660  120.1220   72.7480 C   0  0  0  0  0  0  0  0  0  0  0  0
  128.3800  120.2330   74.0350 C   0  0  0  0  0  0  0  0  0  0  0  0
  129.3130  121.2260   74.3220 C   0  0  0  0  0  0  0  0  0  0  0  0
  131.8890  122.9580   74.4180 C   0  0  0  0  0  0  0  0  0  0  0  0
  132.7950  123.9960   74.6610 C   0  0  0  0  0  0  0  0  0  0  0  0
  134.0310  123.6900   75.5050 C   0  0  0  0  0  0  0  0  0  0  0  0
  132.5400  125.2750   74.1220 C   0  0  0  0  0  0  0  0  0  0  0  0
  133.5030  126.3620   74.3180 C   0  0  0  0  0  0  0  0  0  0  0  0
  134.2650  127.2180   74.4740 N   0  0  0  0  0  0  0  0  0  0  0  0
  127.1260  129.7800   74.2500 N   0  0  0  0  0  0  0  0  0  0  0  0
  1  2  1  0
  2  3  2  0
  3  4  1  0
  4  5  2  0
  5  6  1  0
  6  7  1  0
  7  8  1  0
  8  9  2  0
  8 10  1  0
 10 11  1  0
 11 12  1  0
 12 13  2  0
 13 14  1  0
 14 15  1  0
 15 16  2  0
 16 17  1  0
 17 18  2  0
 18 19  1  0
 19 20  2  0
 14 21  2  0
 21 22  1  0
 22 23  1  0
 22 24  2  0
 24 25  1  0
 25 26  3  0
  6 27  2  0
 27  2  1  0
 24 12  1  0
 20 15  1  0
M  END
>  <Binding energies>  (19) 
[-8.95]

>  <Ligand effiencies>  (19) 
[-0.3196428571428571]

>  <Interactions>  (19) 
["V-B:GLY:544:C:9884, V-B:HIS:456:CG:9038, V-B:LYS:547:CE:9922, V-A:HIS:456:CD2:4066, V-B:GLU:543:C:9874, V-A:HIS:456:CG:4064, H-B:LYS:547:NZ:9923, H-A:LYS:547:NZ:4949, V-B:GLY:544:CA:9886, V-A:TYR:484:CB:4339, V-B:LYS:547:CD:9921, V-A:ASP:473:CG:4238, V-A:HIS:456:C:4059, V-B:VAL:458:CG2:9059, V-B:VAL:457:C:9045, V-B:HIS:456:CB:9037, V-A:LYS:471:CD:4217, V-A:HIS:456:CB:4063, V-B:HIS:456:CA:9035, V-B:HIS:456:C:9033, V-A:VAL:458:CG2:4085, V-A:LYS:471:CE:4218, H-B:HIS:456:ND1:9039, V-A:LYS:547:CD:4947, V-B:LYS:547:CG:9920, V-B:LYS:471:CE:9192, V-B:ASP:473:CG:9212, V-A:LYS:471:CG:4216, V-B:ASP:473:CB:9211"]

$$$$
3bf_Grossjean_2025
     RDKit          3D

 26 28  0  0  0  0  0  0  0  0999 V2000
  125.1360  131.0900   75.7480 C   0  0  0  0  0  0  0  0  0  0  0  0
  126.2610  130.7500   74.7730 C   0  0  0  0  0  0  0  0  0  0  0  0
  127.1720  131.7590   74.4410 C   0  0  0  0  0  0  0  0  0  0  0  0
  128.2270  131.4870   73.5630 C   0  0  0  0  0  0  0  0  0  0  0  0
  129.2480  132.5170   73.1840 C   0  0  0  0  0  0  0  0  0  0  0  0
  130.1260  133.0420   74.1450 C   0  0  0  0  0  0  0  0  0  0  0  0
  131.0770  133.9990   73.8010 C   0  0  0  0  0  0  0  0  0  0  0  0
  131.1620  134.4450   72.4860 C   0  0  0  0  0  0  0  0  0  0  0  0
  130.3030  133.9420   71.5150 C   0  0  0  0  0  0  0  0  0  0  0  0
  129.3530  132.9860   71.8640 C   0  0  0  0  0  0  0  0  0  0  0  0
  128.3830  130.2490   73.0220 N   0  0  0  0  0  0  0  0  0  0  0  0
  127.4940  129.2680   73.3150 C   0  0  0  0  0  0  0  0  0  0  0  0
  127.8520  127.7190   72.5140 S   0  0  0  0  0  0  0  0  0  0  0  0
  129.6500  127.6400   72.2120 C   0  0  0  0  0  0  0  0  0  0  0  0
  130.3570  126.4080   72.7960 C   0  0  0  0  0  0  0  0  0  0  0  0
  129.8560  125.2870   72.6880 O   0  0  0  0  0  0  0  0  0  0  0  0
  131.5440  126.6660   73.3860 N   0  0  0  0  0  0  0  0  0  0  0  0
  132.4280  125.7730   74.0200 C   0  0  0  0  0  0  0  0  0  0  0  0
  131.8860  124.5790   74.5100 C   0  0  0  0  0  0  0  0  0  0  0  0
  132.7140  123.6460   75.1380 C   0  0  0  0  0  0  0  0  0  0  0  0
  134.0740  123.9330   75.2530 C   0  0  0  0  0  0  0  0  0  0  0  0
  134.6280  125.0770   74.7780 N   0  0  0  0  0  0  0  0  0  0  0  0
  133.8110  125.9750   74.1700 C   0  0  0  0  0  0  0  0  0  0  0  0
  126.4180  129.4660   74.2080 C   0  0  0  0  0  0  0  0  0  0  0  0
  125.5050  128.3820   74.5810 C   0  0  0  0  0  0  0  0  0  0  0  0
  124.7820  127.5270   74.8760 N   0  0  0  0  0  0  0  0  0  0  0  0
  1  2  1  0
  2  3  2  0
  3  4  1  0
  4  5  1  0
  5  6  2  0
  6  7  1  0
  7  8  2  0
  8  9  1  0
  9 10  2  0
  4 11  2  0
 11 12  1  0
 12 13  1  0
 13 14  1  0
 14 15  1  0
 15 16  2  0
 15 17  1  0
 17 18  1  0
 18 19  2  0
 19 20  1  0
 20 21  2  0
 21 22  1  0
 22 23  2  0
 12 24  2  0
 24 25  1  0
 25 26  3  0
 24  2  1  0
 10  5  1  0
 23 18  1  0
M  END
>  <Binding energies>  (20) 
[-9.55]

>  <Ligand effiencies>  (20) 
[-0.35370370370370374]

>  <Interactions>  (20) 
["V-B:TYR:484:CG:9314, V-A:LYS:547:CE:4948, V-B:HIS:456:CG:9038, V-B:TYR:484:CB:9313, V-A:GLY:544:C:4910, V-A:GLU:543:C:4900, V-A:HIS:456:CD2:4066, V-B:HIS:456:CD2:9040, V-A:HIS:456:CG:4064, H-B:LYS:547:NZ:9923, H-A:LYS:547:NZ:4949, V-A:GLY:544:CA:4912, H-A:GLY:544:O:4911, V-B:LYS:547:CD:9921, V-A:HIS:456:C:4059, V-B:VAL:458:CG2:9059, V-B:HIS:456:CB:9037, V-A:LYS:471:CD:4217, V-A:HIS:456:CB:4063, V-B:HIS:456:C:9033, V-A:VAL:458:CG2:4085, V-A:LYS:471:CE:4218, V-A:VAL:457:C:4071, V-B:LYS:471:CE:9192, V-B:LYS:471:CD:9191, V-B:LYS:471:CG:9190, V-B:ASP:473:CG:9212, V-A:HIS:456:CA:4061, V-A:LYS:471:CG:4216, H-A:VAL:457:N:4074, H-A:VAL:458:N:4082, V-A:GLU:543:CA:4902, V-B:TYR:484:CD1:9315"]

$$$$
3bg_Grossjean_2025
     RDKit          3D

 27 29  0  0  0  0  0  0  0  0999 V2000
  124.7970  124.0230   59.7530 C   0  0  0  0  0  0  0  0  0  0  0  0
  126.1630  123.6240   59.1990 C   0  0  0  0  0  0  0  0  0  0  0  0
  127.1910  123.3530   60.1070 C   0  0  0  0  0  0  0  0  0  0  0  0
  128.4580  122.9760   59.6410 C   0  0  0  0  0  0  0  0  0  0  0  0
  129.6030  122.6600   60.5630 C   0  0  0  0  0  0  0  0  0  0  0  0
  129.7460  123.3220   61.7940 C   0  0  0  0  0  0  0  0  0  0  0  0
  130.7940  123.0200   62.6580 C   0  0  0  0  0  0  0  0  0  0  0  0
  131.7240  122.0480   62.3030 C   0  0  0  0  0  0  0  0  0  0  0  0
  131.6150  121.3850   61.0860 C   0  0  0  0  0  0  0  0  0  0  0  0
  130.5660  121.6920   60.2250 C   0  0  0  0  0  0  0  0  0  0  0  0
  128.6950  122.8520   58.3080 N   0  0  0  0  0  0  0  0  0  0  0  0
  127.7060  123.1080   57.4130 C   0  0  0  0  0  0  0  0  0  0  0  0
  128.1380  122.8740   55.6960 S   0  0  0  0  0  0  0  0  0  0  0  0
  128.4320  124.5120   54.9530 C   0  0  0  0  0  0  0  0  0  0  0  0
  129.4450  125.3300   55.7600 C   0  0  0  0  0  0  0  0  0  0  0  0
  129.0650  126.2940   56.4240 O   0  0  0  0  0  0  0  0  0  0  0  0
  130.7300  124.9470   55.6700 N   0  0  0  0  0  0  0  0  0  0  0  0
  131.8760  125.6850   56.2030 C   0  0  0  0  0  0  0  0  0  0  0  0
  132.3210  125.1410   57.5550 C   0  0  0  0  0  0  0  0  0  0  0  0
  131.5520  125.3900   58.6970 C   0  0  0  0  0  0  0  0  0  0  0  0
  131.9630  124.9010   59.9340 C   0  0  0  0  0  0  0  0  0  0  0  0
  133.1360  124.1530   60.0240 C   0  0  0  0  0  0  0  0  0  0  0  0
  133.8960  123.8840   58.8890 C   0  0  0  0  0  0  0  0  0  0  0  0
  133.4840  124.3740   57.6510 C   0  0  0  0  0  0  0  0  0  0  0  0
  126.4150  123.5080   57.8160 C   0  0  0  0  0  0  0  0  0  0  0  0
  125.3560  123.7780   56.8400 C   0  0  0  0  0  0  0  0  0  0  0  0
  124.5180  123.9910   56.0710 N   0  0  0  0  0  0  0  0  0  0  0  0
  1  2  1  0
  2  3  2  0
  3  4  1  0
  4  5  1  0
  5  6  2  0
  6  7  1  0
  7  8  2  0
  8  9  1  0
  9 10  2  0
  4 11  2  0
 11 12  1  0
 12 13  1  0
 13 14  1  0
 14 15  1  0
 15 16  2  0
 15 17  1  0
 17 18  1  0
 18 19  1  0
 19 20  2  0
 20 21  1  0
 21 22  2  0
 22 23  1  0
 23 24  2  0
 12 25  2  0
 25 26  1  0
 26 27  3  0
 25  2  1  0
 10  5  1  0
 24 19  1  0
M  END
>  <Binding energies>  (21) 
[-7.68]

>  <Ligand effiencies>  (21) 
[-0.2742857142857143]

>  <Interactions>  (21) 
["V-B:TYR:539:CD2:9846, H-B:TYR:531:OH:9767, V-B:PRO:540:CA:9855, V-A:LEU:475:CD2:4257, V-A:ILE:369:CG2:3235, V-B:ALA:541:CB:9864, V-A:TYR:531:CZ:4792, V-A:ILE:369:CD1:3237, V-B:TYR:539:CE2:9848, V-B:PRO:540:N:9856, V-A:ASP:366:CG:3211, V-B:PRO:540:CB:9857, V-A:ASP:366:CB:3210, V-B:TYR:539:CZ:9849, V-B:TYR:539:CE1:9847, V-B:TYR:539:C:9839, V-B:PRO:540:C:9853, H-B:TYR:539:OH:9850, V-A:ILE:369:CB:3234, V-A:TYR:531:CE1:4790, V-A:ASP:366:CA:3208, H-B:TYR:539:N:9842, V-A:ASP:366:C:3206"]

$$$$
3ca_Grossjean_2025
     RDKit          3D

 31 33  0  0  0  0  0  0  0  0999 V2000
  123.6130  123.5530   56.9600 C   0  0  0  0  0  0  0  0  0  0  0  0
  124.5690  123.3460   55.7810 C   0  0  0  0  0  0  0  0  0  0  0  0
  125.6420  122.5040   56.1840 O   0  0  0  0  0  0  0  0  0  0  0  0
  126.8590  123.0180   56.4930 C   0  0  0  0  0  0  0  0  0  0  0  0
  127.9210  122.5580   56.0620 O   0  0  0  0  0  0  0  0  0  0  0  0
  126.7870  124.2070   57.4070 C   0  0  0  0  0  0  0  0  0  0  0  0
  126.6270  124.0040   58.7840 C   0  0  0  0  0  0  0  0  0  0  0  0
  126.5570  125.0860   59.6560 C   0  0  0  0  0  0  0  0  0  0  0  0
  126.6370  126.3920   59.1710 C   0  0  0  0  0  0  0  0  0  0  0  0
  126.5560  127.4120   60.1390 N   0  0  0  0  0  0  0  0  0  0  0  0
  127.5430  128.0360   60.8170 C   0  0  0  0  0  0  0  0  0  0  0  0
  128.7470  127.8200   60.6830 O   0  0  0  0  0  0  0  0  0  0  0  0
  127.0780  129.1080   61.8090 C   0  0  0  0  0  0  0  0  0  0  0  0
  127.1820  130.8010   61.1370 S   0  0  0  0  0  0  0  0  0  0  0  0
  127.8130  130.7520   59.4650 C   0  0  0  0  0  0  0  0  0  0  0  0
  126.9180  130.3930   58.5100 N   0  0  0  0  0  0  0  0  0  0  0  0
  127.3200  130.3550   57.2210 C   0  0  0  0  0  0  0  0  0  0  0  0
  126.2590  129.9630   56.2120 C   0  0  0  0  0  0  0  0  0  0  0  0
  128.6230  130.6560   56.8330 C   0  0  0  0  0  0  0  0  0  0  0  0
  129.5700  131.0120   57.8020 C   0  0  0  0  0  0  0  0  0  0  0  0
  130.9590  131.3130   57.3400 C   0  0  0  0  0  0  0  0  0  0  0  0
  132.0570  130.7630   58.0120 C   0  0  0  0  0  0  0  0  0  0  0  0
  133.3550  131.0450   57.5960 C   0  0  0  0  0  0  0  0  0  0  0  0
  133.5610  131.8850   56.5040 C   0  0  0  0  0  0  0  0  0  0  0  0
  132.4800  132.4460   55.8280 C   0  0  0  0  0  0  0  0  0  0  0  0
  131.1830  132.1610   56.2490 C   0  0  0  0  0  0  0  0  0  0  0  0
  129.1570  131.0720   59.1570 C   0  0  0  0  0  0  0  0  0  0  0  0
  130.0900  131.4880   60.2090 C   0  0  0  0  0  0  0  0  0  0  0  0
  130.8270  131.8170   61.0390 N   0  0  0  0  0  0  0  0  0  0  0  0
  126.8050  126.6060   57.7940 C   0  0  0  0  0  0  0  0  0  0  0  0
  126.8770  125.5210   56.9240 C   0  0  0  0  0  0  0  0  0  0  0  0
  1  2  1  0
  2  3  1  0
  3  4  1  0
  4  5  2  0
  4  6  1  0
  6  7  2  0
  7  8  1  0
  8  9  2  0
  9 10  1  0
 10 11  1  0
 11 12  2  0
 11 13  1  0
 13 14  1  0
 14 15  1  0
 15 16  2  0
 16 17  1  0
 17 18  1  0
 17 19  2  0
 19 20  1  0
 20 21  1  0
 21 22  2  0
 22 23  1  0
 23 24  2  0
 24 25  1  0
 25 26  2  0
 20 27  2  0
 27 28  1  0
 28 29  3  0
  9 30  1  0
 30 31  2  0
 31  6  1  0
 27 15  1  0
 26 21  1  0
M  END
>  <Binding energies>  (22) 
[-9.15]

>  <Ligand effiencies>  (22) 
[-0.2859375]

>  <Interactions>  (22) 
["V-A:ILE:538:CG2:4861, V-A:PRO:540:CD:4885, V-B:ASP:366:CG:8185, V-A:PRO:540:N:4882, V-B:PRO:540:CA:9855, H-B:ASP:366:OD2:8187, V-A:ILE:538:CB:4860, V-A:ILE:538:CA:4858, V-B:PRO:540:N:9856, V-B:ILE:538:CB:9834, V-B:TYR:531:CE2:9765, V-B:PRO:540:CD:9859, V-B:PRO:540:CB:9857, V-A:TYR:539:CE2:4874, V-B:ILE:538:CG2:9835, V-A:TYR:539:CZ:4875, H-A:ALA:541:N:4889, V-A:PRO:540:CA:4881, V-B:TYR:539:C:9839, V-B:LEU:363:CD1:8161, V-B:TYR:539:CA:9841, V-B:TYR:531:CZ:9766, V-A:PRO:540:CB:4883, V-A:LEU:363:CD1:3187, V-A:TYR:539:C:4865, V-A:TYR:531:CE2:4791, V-A:LEU:363:CA:3183, V-B:LEU:363:CA:8157, H-B:TYR:539:N:9842, V-B:LEU:363:CB:8159, V-B:PRO:540:CG:9858, H-B:ASP:366:OD1:8186, V-A:PRO:540:CG:4884"]

$$$$
3ce_Grossjean_2025
     RDKit          3D

 27 29  0  0  0  0  0  0  0  0999 V2000
  124.7950  130.0450   64.3790 C   0  0  0  0  0  0  0  0  0  0  0  0
  124.5810  130.8970   63.1430 C   0  0  0  0  0  0  0  0  0  0  0  0
  124.1440  132.2210   63.2340 C   0  0  0  0  0  0  0  0  0  0  0  0
  123.9780  132.9480   62.0550 C   0  0  0  0  0  0  0  0  0  0  0  0
  124.2490  132.3410   60.8260 C   0  0  0  0  0  0  0  0  0  0  0  0
  124.6730  131.0080   60.8060 C   0  0  0  0  0  0  0  0  0  0  0  0
  124.9490  130.4570   59.5430 N   0  0  0  0  0  0  0  0  0  0  0  0
  124.3580  130.7380   58.3610 C   0  0  0  0  0  0  0  0  0  0  0  0
  123.4530  131.5580   58.2010 O   0  0  0  0  0  0  0  0  0  0  0  0
  124.8860  129.9630   57.1540 C   0  0  0  0  0  0  0  0  0  0  0  0
  126.4000  129.0390   57.5510 S   0  0  0  0  0  0  0  0  0  0  0  0
  127.6170  130.2630   57.9740 C   0  0  0  0  0  0  0  0  0  0  0  0
  127.1810  131.1910   58.8610 N   0  0  0  0  0  0  0  0  0  0  0  0
  128.0390  132.1580   59.2600 C   0  0  0  0  0  0  0  0  0  0  0  0
  127.4900  133.1540   60.2630 C   0  0  0  0  0  0  0  0  0  0  0  0
  129.3450  132.2440   58.7860 C   0  0  0  0  0  0  0  0  0  0  0  0
  129.8060  131.3100   57.8490 C   0  0  0  0  0  0  0  0  0  0  0  0
  131.2060  131.4580   57.3500 C   0  0  0  0  0  0  0  0  0  0  0  0
  132.2800  130.9930   58.1190 C   0  0  0  0  0  0  0  0  0  0  0  0
  133.5880  131.1340   57.6640 C   0  0  0  0  0  0  0  0  0  0  0  0
  133.8300  131.7480   56.4380 C   0  0  0  0  0  0  0  0  0  0  0  0
  132.7740  132.2250   55.6660 C   0  0  0  0  0  0  0  0  0  0  0  0
  131.4670  132.0820   56.1230 C   0  0  0  0  0  0  0  0  0  0  0  0
  128.9230  130.2830   57.4290 C   0  0  0  0  0  0  0  0  0  0  0  0
  129.3550  129.2690   56.4620 C   0  0  0  0  0  0  0  0  0  0  0  0
  129.6960  128.4690   55.6990 N   0  0  0  0  0  0  0  0  0  0  0  0
  124.8450  130.2930   61.9560 N   0  0  0  0  0  0  0  0  0  0  0  0
  1  2  1  0
  2  3  2  0
  3  4  1  0
  4  5  2  0
  5  6  1  0
  6  7  1  0
  7  8  1  0
  8  9  2  0
  8 10  1  0
 10 11  1  0
 11 12  1  0
 12 13  2  0
 13 14  1  0
 14 15  1  0
 14 16  2  0
 16 17  1  0
 17 18  1  0
 18 19  2  0
 19 20  1  0
 20 21  2  0
 21 22  1  0
 22 23  2  0
 17 24  2  0
 24 25  1  0
 25 26  3  0
  6 27  2  0
 27  2  1  0
 24 12  1  0
 23 18  1  0
M  END
>  <Binding energies>  (23) 
[-8.23]

>  <Ligand effiencies>  (23) 
[-0.29392857142857143]

>  <Interactions>  (23) 
["V-A:ILE:538:CG2:4861, V-A:PRO:540:CD:4885, V-B:ASP:366:CG:8185, V-A:PRO:540:N:4882, H-B:TYR:531:OH:9767, V-A:ILE:538:CB:4860, V-A:TYR:531:CZ:4792, V-B:ILE:369:CD1:8211, H-A:TYR:531:OH:4793, V-A:TYR:539:CD2:4872, V-B:ILE:369:CG2:8209, V-B:LEU:475:CD2:9231, V-A:TYR:539:CE2:4874, V-A:TYR:539:CZ:4875, V-A:PRO:540:CA:4881, H-B:ARG:545:NH2:9900, V-B:ARG:545:CZ:9898, V-A:PRO:540:CB:4883, V-A:LEU:363:CD1:3187, V-A:TYR:539:C:4865, V-A:TYR:531:CE2:4791, V-B:ASP:366:CB:8184, H-A:TYR:539:OH:4876, V-B:ASP:366:CA:8182, V-A:LEU:363:CB:3185, V-A:LEU:363:CA:3183, V-B:GLY:454:CA:9021, V-B:GLY:453:C:9014, H-B:ASP:366:OD1:8186, V-A:PRO:540:CG:4884"]

$$$$
3cj_Grossjean_2025
     RDKit          3D

 25 27  0  0  0  0  0  0  0  0999 V2000
  127.7150  133.4320   61.3690 C   0  0  0  0  0  0  0  0  0  0  0  0
  127.5070  132.6280   60.1000 C   0  0  0  0  0  0  0  0  0  0  0  0
  128.4820  132.5700   59.1070 C   0  0  0  0  0  0  0  0  0  0  0  0
  128.2580  131.7970   57.9600 C   0  0  0  0  0  0  0  0  0  0  0  0
  129.3550  131.7110   56.9530 C   0  0  0  0  0  0  0  0  0  0  0  0
  129.1050  131.9850   55.6030 C   0  0  0  0  0  0  0  0  0  0  0  0
  130.1270  131.8920   54.6620 C   0  0  0  0  0  0  0  0  0  0  0  0
  131.4050  131.5180   55.0690 C   0  0  0  0  0  0  0  0  0  0  0  0
  131.6670  131.2340   56.4060 C   0  0  0  0  0  0  0  0  0  0  0  0
  130.6430  131.3280   57.3450 C   0  0  0  0  0  0  0  0  0  0  0  0
  127.0190  131.1200   57.8350 C   0  0  0  0  0  0  0  0  0  0  0  0
  126.7130  130.3190   56.6460 C   0  0  0  0  0  0  0  0  0  0  0  0
  126.4720  129.6850   55.7070 N   0  0  0  0  0  0  0  0  0  0  0  0
  126.0890  131.2320   58.8930 C   0  0  0  0  0  0  0  0  0  0  0  0
  124.5550  130.3290   58.9250 S   0  0  0  0  0  0  0  0  0  0  0  0
  123.4540  131.3160   59.9870 C   0  0  0  0  0  0  0  0  0  0  0  0
  123.9840  131.4180   61.4210 C   0  0  0  0  0  0  0  0  0  0  0  0
  123.9380  132.5000   62.0100 O   0  0  0  0  0  0  0  0  0  0  0  0
  124.4420  130.2640   61.9520 N   0  0  0  0  0  0  0  0  0  0  0  0
  124.8460  130.0580   63.2610 C   0  0  0  0  0  0  0  0  0  0  0  0
  124.0940  129.9930   64.3380 N   0  0  0  0  0  0  0  0  0  0  0  0
  124.8150  129.7540   65.4160 C   0  0  0  0  0  0  0  0  0  0  0  0
  126.1870  129.6220   65.2240 C   0  0  0  0  0  0  0  0  0  0  0  0
  126.5440  129.8230   63.5340 S   0  0  0  0  0  0  0  0  0  0  0  0
  126.3340  131.9640   60.0090 N   0  0  0  0  0  0  0  0  0  0  0  0
  1  2  1  0
  2  3  2  0
  3  4  1  0
  4  5  1  0
  5  6  2  0
  6  7  1  0
  7  8  2  0
  8  9  1  0
  9 10  2  0
  4 11  2  0
 11 12  1  0
 12 13  3  0
 11 14  1  0
 14 15  1  0
 15 16  1  0
 16 17  1  0
 17 18  2  0
 17 19  1  0
 19 20  1  0
 20 21  2  0
 21 22  1  0
 22 23  2  0
 23 24  1  0
 14 25  2  0
 25  2  1  0
 10  5  1  0
 24 20  1  0
M  END
>  <Binding energies>  (24) 
[-8.27]

>  <Ligand effiencies>  (24) 
[-0.31807692307692303]

>  <Interactions>  (24) 
["V-A:ILE:538:CG2:4861, V-B:ASP:366:CG:8185, H-B:TYR:531:OH:9767, H-B:ASP:366:OD2:8187, V-A:ILE:538:CB:4860, V-A:ILE:538:CA:4858, V-A:TYR:531:CZ:4792, V-B:ILE:369:CD1:8211, V-A:TYR:539:CD2:4872, V-B:ILE:369:CG2:8209, V-A:TYR:539:CE2:4874, V-A:TYR:539:CZ:4875, V-A:ALA:541:CB:4890, H-B:ARG:545:NH2:9900, V-B:ARG:545:CZ:9898, H-B:ARG:545:NE:9896, H-B:GLY:454:N:9022, V-A:TYR:539:C:4865, V-A:TYR:539:CG:4870, V-A:TYR:539:CE1:4873, H-B:TYR:484:OH:9320, V-A:TYR:531:CE2:4791, V-A:TYR:539:CD1:4871, V-B:HIS:456:CE1:9042, V-B:ASP:366:CB:8184, V-B:ILE:369:CB:8208, H-A:TYR:539:OH:4876, V-B:ASP:366:CA:8182, V-B:ARG:545:CG:9894, V-B:ARG:545:CD:9895, H-B:ASP:366:OD1:8186, H-B:ARG:545:NH1:9899"]

$$$$
4ba_Grossjean_2025
     RDKit          3D

 28 30  0  0  0  0  0  0  0  0999 V2000
  130.1560  126.9470   72.7250 C   0  0  0  0  0  0  0  0  0  0  0  0
  129.5050  128.2220   72.1570 C   0  0  0  0  0  0  0  0  0  0  0  0
  128.3650  127.9790   71.1470 C   0  0  0  0  0  0  0  0  0  0  0  0
  127.1940  128.1260   71.5060 O   0  0  0  0  0  0  0  0  0  0  0  0
  128.7420  127.5750   69.7510 C   0  0  0  0  0  0  0  0  0  0  0  0
  130.0930  127.3860   69.4320 C   0  0  0  0  0  0  0  0  0  0  0  0
  130.4720  127.0120   68.1460 C   0  0  0  0  0  0  0  0  0  0  0  0
  129.5100  126.8150   67.1540 C   0  0  0  0  0  0  0  0  0  0  0  0
  130.0030  126.4480   65.8880 N   0  0  0  0  0  0  0  0  0  0  0  0
  130.6050  125.3010   65.4850 C   0  0  0  0  0  0  0  0  0  0  0  0
  130.8650  124.3570   66.2330 O   0  0  0  0  0  0  0  0  0  0  0  0
  130.9660  125.2490   64.0670 C   0  0  0  0  0  0  0  0  0  0  0  0
  132.2320  124.1550   63.5140 S   0  0  0  0  0  0  0  0  0  0  0  0
  132.0690  124.7230   61.8700 C   0  0  0  0  0  0  0  0  0  0  0  0
  132.8270  124.2350   60.8880 N   0  0  0  0  0  0  0  0  0  0  0  0
  132.6100  124.7520   59.6580 C   0  0  0  0  0  0  0  0  0  0  0  0
  133.4900  124.1890   58.5560 C   0  0  0  0  0  0  0  0  0  0  0  0
  131.6610  125.7340   59.3860 C   0  0  0  0  0  0  0  0  0  0  0  0
  130.8590  126.2520   60.4160 C   0  0  0  0  0  0  0  0  0  0  0  0
  129.8260  127.3290   60.0680 C   0  0  0  0  0  0  0  0  0  0  0  0
  130.0210  128.4720   60.7290 F   0  0  0  0  0  0  0  0  0  0  0  0
  129.8830  127.6070   58.7650 F   0  0  0  0  0  0  0  0  0  0  0  0
  128.6030  126.8950   60.3730 F   0  0  0  0  0  0  0  0  0  0  0  0
  131.0670  125.7310   61.7280 C   0  0  0  0  0  0  0  0  0  0  0  0
  130.4600  126.0170   63.0050 C   0  0  0  0  0  0  0  0  0  0  0  0
  129.4730  126.9570   63.1610 N   0  0  0  0  0  0  0  0  0  0  0  0
  128.1550  127.0090   67.4640 C   0  0  0  0  0  0  0  0  0  0  0  0
  127.7780  127.3830   68.7510 C   0  0  0  0  0  0  0  0  0  0  0  0
  1  2  1  0
  2  3  1  0
  3  4  2  0
  3  5  1  0
  5  6  2  0
  6  7  1  0
  7  8  2  0
  8  9  1  0
  9 10  1  0
 10 11  2  0
 10 12  1  0
 12 13  1  0
 13 14  1  0
 14 15  2  0
 15 16  1  0
 16 17  1  0
 16 18  2  0
 18 19  1  0
 19 20  1  0
 20 21  1  0
 20 22  1  0
 20 23  1  0
 19 24  2  0
 24 25  1  0
 25 26  1  0
  8 27  1  0
 27 28  2  0
 28  5  1  0
 25 12  2  0
 24 14  1  0
M  END
>  <Binding energies>  (25) 
[-6.98]

>  <Ligand effiencies>  (25) 
[-0.22516129032258067]

>  <Interactions>  (25) 
["V-A:ILE:369:CG2:3235, V-B:TYR:539:CE2:9848, V-A:ASP:366:CG:3211, V-A:ASP:366:CB:3210, H-B:GLU:543:OE2:9882, H-B:GLU:543:OE1:9881, H-A:GLU:543:OE2:4908, V-A:GLU:543:CD:4906, V-A:HIS:456:CE1:4068, H-A:TYR:484:OH:4346, H-A:GLU:543:OE1:4907, V-B:GLU:543:CD:9880, V-B:GLU:543:CB:9878, V-B:GLU:543:CG:9879, V-B:HIS:456:CE1:9042, V-A:LYS:547:CE:4948, V-A:GLY:544:C:4910, V-A:GLU:543:C:4900, V-B:HIS:456:CD2:9040, V-B:GLU:543:C:9874, V-A:GLY:544:CA:4912, V-A:ASP:366:CA:3208, H-B:HIS:456:ND1:9039"]

$$$$
4bb_Grossjean_2025
     RDKit          3D

 27 29  0  0  0  0  0  0  0  0999 V2000
  128.8980  126.1510   72.0030 C   0  0  0  0  0  0  0  0  0  0  0  0
  129.9100  126.6410   70.9660 C   0  0  0  0  0  0  0  0  0  0  0  0
  131.1050  126.6260   71.2690 O   0  0  0  0  0  0  0  0  0  0  0  0
  129.3960  127.1200   69.6420 C   0  0  0  0  0  0  0  0  0  0  0  0
  128.0200  127.3180   69.4700 C   0  0  0  0  0  0  0  0  0  0  0  0
  127.5160  127.7620   68.2510 C   0  0  0  0  0  0  0  0  0  0  0  0
  128.3770  128.0250   67.1840 C   0  0  0  0  0  0  0  0  0  0  0  0
  127.7610  128.4670   65.9960 N   0  0  0  0  0  0  0  0  0  0  0  0
  126.4910  128.8880   65.7770 C   0  0  0  0  0  0  0  0  0  0  0  0
  125.6160  128.9230   66.6420 O   0  0  0  0  0  0  0  0  0  0  0  0
  126.1940  129.2850   64.3990 C   0  0  0  0  0  0  0  0  0  0  0  0
  124.7470  130.2240   64.0390 S   0  0  0  0  0  0  0  0  0  0  0  0
  125.1120  130.2200   62.3290 C   0  0  0  0  0  0  0  0  0  0  0  0
  124.3200  130.8270   61.4470 N   0  0  0  0  0  0  0  0  0  0  0  0
  124.7070  130.7540   60.1530 C   0  0  0  0  0  0  0  0  0  0  0  0
  123.7910  131.4550   59.1650 C   0  0  0  0  0  0  0  0  0  0  0  0
  125.8540  130.0940   59.7230 C   0  0  0  0  0  0  0  0  0  0  0  0
  126.6930  129.4530   60.6470 C   0  0  0  0  0  0  0  0  0  0  0  0
  127.9450  128.7390   60.1270 C   0  0  0  0  0  0  0  0  0  0  0  0
  128.0860  128.8310   58.8030 F   0  0  0  0  0  0  0  0  0  0  0  0
  129.0330  129.2750   60.6830 F   0  0  0  0  0  0  0  0  0  0  0  0
  127.8870  127.4430   60.4330 F   0  0  0  0  0  0  0  0  0  0  0  0
  126.3140  129.5100   62.0230 C   0  0  0  0  0  0  0  0  0  0  0  0
  126.9070  128.9830   63.2260 C   0  0  0  0  0  0  0  0  0  0  0  0
  128.0710  128.2570   63.2220 N   0  0  0  0  0  0  0  0  0  0  0  0
  129.7560  127.8220   67.3460 C   0  0  0  0  0  0  0  0  0  0  0  0
  130.2570  127.3760   68.5660 C   0  0  0  0  0  0  0  0  0  0  0  0
  1  2  1  0
  2  3  2  0
  2  4  1  0
  4  5  2  0
  5  6  1  0
  6  7  2  0
  7  8  1  0
  8  9  1  0
  9 10  2  0
  9 11  1  0
 11 12  1  0
 12 13  1  0
 13 14  2  0
 14 15  1  0
 15 16  1  0
 15 17  2  0
 17 18  1  0
 18 19  1  0
 19 20  1  0
 19 21  1  0
 19 22  1  0
 18 23  2  0
 23 24  1  0
 24 25  1  0
  7 26  1  0
 26 27  2  0
 27  4  1  0
 24 11  2  0
 23 13  1  0
M  END
>  <Binding energies>  (26) 
[-6.84]

>  <Ligand effiencies>  (26) 
[-0.228]

>  <Interactions>  (26) 
["V-B:ASP:366:CG:8185, V-B:ILE:369:CG2:8209, V-A:TYR:539:CE2:4874, H-B:GLU:543:OE2:9882, H-B:GLU:543:OE1:9881, H-A:GLU:543:OE2:4908, V-A:GLU:543:CD:4906, V-A:HIS:456:CE1:4068, H-A:GLU:543:OE1:4907, V-B:GLU:543:CD:9880, V-B:ARG:545:CZ:9898, V-B:GLU:543:CG:9879, H-B:ARG:545:NE:9896, V-A:GLU:543:CG:4905, H-B:TYR:484:OH:9320, V-A:GLU:543:CB:4904, V-B:HIS:456:CE1:9042, V-B:ASP:366:CB:8184, V-B:ILE:369:CB:8208, V-B:ASP:366:CA:8182, V-B:GLY:544:C:9884, V-A:GLU:543:C:4900, V-B:LYS:547:CE:9922, V-A:HIS:456:CD2:4066, V-B:GLU:543:C:9874, V-B:GLY:544:CA:9886, V-B:ARG:545:CG:9894, H-A:HIS:456:ND1:4065, H-B:HIS:456:ND1:9039"]

$$$$
4bd_Grossjean_2025
     RDKit          3D

 24 26  0  0  0  0  0  0  0  0999 V2000
  132.2050  137.8770   70.7730 C   0  0  0  0  0  0  0  0  0  0  0  0
  131.5020  136.9510   71.7490 C   0  0  0  0  0  0  0  0  0  0  0  0
  131.3790  137.2860   73.0950 C   0  0  0  0  0  0  0  0  0  0  0  0
  130.7280  136.4200   73.9870 C   0  0  0  0  0  0  0  0  0  0  0  0
  130.6200  136.8290   75.4600 C   0  0  0  0  0  0  0  0  0  0  0  0
  131.1300  135.9200   76.2930 F   0  0  0  0  0  0  0  0  0  0  0  0
  131.2790  137.9690   75.6610 F   0  0  0  0  0  0  0  0  0  0  0  0
  129.3390  136.9960   75.7890 F   0  0  0  0  0  0  0  0  0  0  0  0
  130.2070  135.2030   73.4530 C   0  0  0  0  0  0  0  0  0  0  0  0
  129.4950  134.0970   74.0440 C   0  0  0  0  0  0  0  0  0  0  0  0
  129.1700  134.0530   75.3750 N   0  0  0  0  0  0  0  0  0  0  0  0
  129.1680  133.0740   73.1370 C   0  0  0  0  0  0  0  0  0  0  0  0
  128.4700  131.8120   73.3970 C   0  0  0  0  0  0  0  0  0  0  0  0
  128.9300  130.7440   72.9910 O   0  0  0  0  0  0  0  0  0  0  0  0
  127.3210  131.9190   74.1110 N   0  0  0  0  0  0  0  0  0  0  0  0
  126.4060  130.9190   74.4880 C   0  0  0  0  0  0  0  0  0  0  0  0
  126.6940  129.6260   74.0430 C   0  0  0  0  0  0  0  0  0  0  0  0
  125.8540  128.5660   74.3740 C   0  0  0  0  0  0  0  0  0  0  0  0
  124.7270  128.7970   75.1580 C   0  0  0  0  0  0  0  0  0  0  0  0
  124.4360  130.0780   75.6180 C   0  0  0  0  0  0  0  0  0  0  0  0
  125.2740  131.1410   75.2900 C   0  0  0  0  0  0  0  0  0  0  0  0
  129.7310  133.4590   71.5120 S   0  0  0  0  0  0  0  0  0  0  0  0
  130.4010  134.9800   72.0550 C   0  0  0  0  0  0  0  0  0  0  0  0
  131.0190  135.8060   71.2130 N   0  0  0  0  0  0  0  0  0  0  0  0
  1  2  1  0
  2  3  2  0
  3  4  1  0
  4  5  1  0
  5  6  1  0
  5  7  1  0
  5  8  1  0
  4  9  2  0
  9 10  1  0
 10 11  1  0
 10 12  2  0
 12 13  1  0
 13 14  2  0
 13 15  1  0
 15 16  1  0
 16 17  2  0
 17 18  1  0
 18 19  2  0
 19 20  1  0
 20 21  2  0
 12 22  1  0
 22 23  1  0
 23 24  2  0
 24  2  1  0
 23  9  1  0
 21 16  1  0
M  END
>  <Binding energies>  (27) 
[-6.87]

>  <Ligand effiencies>  (27) 
[-0.2544444444444445]

>  <Interactions>  (27) 
["V-B:TYR:484:CG:9314, V-A:LYS:547:CE:4948, V-B:HIS:456:CG:9038, V-B:TYR:484:CB:9313, V-A:GLU:543:C:4900, V-B:HIS:456:CD2:9040, H-A:LYS:547:NZ:4949, V-A:GLY:544:CA:4912, V-B:VAL:458:CG2:9059, V-B:VAL:457:C:9045, V-B:HIS:456:CB:9037, V-B:HIS:456:C:9033, V-B:LYS:471:CE:9192, V-B:ASP:473:CG:9212, V-A:VAL:542:CG1:4897, H-B:ASP:473:OD2:9214, V-A:GLU:543:CA:4902, V-B:TYR:484:CD1:9315, V-B:SER:483:CB:9305, H-B:TYR:484:N:9312, V-B:SER:483:CA:9303"]

$$$$
4be_Grossjean_2025
     RDKit          3D

 25 27  0  0  0  0  0  0  0  0999 V2000
  131.8390  127.0020   74.1230 C   0  0  0  0  0  0  0  0  0  0  0  0
  132.2610  125.5600   74.3320 C   0  0  0  0  0  0  0  0  0  0  0  0
  133.5020  125.2350   74.8860 C   0  0  0  0  0  0  0  0  0  0  0  0
  133.8240  123.8870   75.0470 C   0  0  0  0  0  0  0  0  0  0  0  0
  132.9090  122.9080   74.6530 C   0  0  0  0  0  0  0  0  0  0  0  0
  131.6820  123.3030   74.1100 C   0  0  0  0  0  0  0  0  0  0  0  0
  130.8080  122.2690   73.7280 N   0  0  0  0  0  0  0  0  0  0  0  0
  129.6650  122.3440   73.0010 C   0  0  0  0  0  0  0  0  0  0  0  0
  129.2110  123.3940   72.5430 O   0  0  0  0  0  0  0  0  0  0  0  0
  128.9630  121.0730   72.8000 C   0  0  0  0  0  0  0  0  0  0  0  0
  128.1090  120.7640   71.2890 S   0  0  0  0  0  0  0  0  0  0  0  0
  127.5820  119.1960   71.8560 C   0  0  0  0  0  0  0  0  0  0  0  0
  126.8330  118.3990   71.0960 N   0  0  0  0  0  0  0  0  0  0  0  0
  126.4890  117.2090   71.6430 C   0  0  0  0  0  0  0  0  0  0  0  0
  125.6330  116.3170   70.7630 C   0  0  0  0  0  0  0  0  0  0  0  0
  126.8750  116.8030   72.9170 C   0  0  0  0  0  0  0  0  0  0  0  0
  127.6650  117.6380   73.7220 C   0  0  0  0  0  0  0  0  0  0  0  0
  128.0670  117.1460   75.1160 C   0  0  0  0  0  0  0  0  0  0  0  0
  127.6080  117.9270   76.0980 F   0  0  0  0  0  0  0  0  0  0  0  0
  127.5800  115.9220   75.3210 F   0  0  0  0  0  0  0  0  0  0  0  0
  129.3950  117.1140   75.2180 F   0  0  0  0  0  0  0  0  0  0  0  0
  128.0410  118.9020   73.1770 C   0  0  0  0  0  0  0  0  0  0  0  0
  128.8200  120.0010   73.6940 C   0  0  0  0  0  0  0  0  0  0  0  0
  129.3760  119.9900   74.9480 N   0  0  0  0  0  0  0  0  0  0  0  0
  131.3620  124.6200   73.9450 N   0  0  0  0  0  0  0  0  0  0  0  0
  1  2  1  0
  2  3  2  0
  3  4  1  0
  4  5  2  0
  5  6  1  0
  6  7  1  0
  7  8  1  0
  8  9  2  0
  8 10  1  0
 10 11  1  0
 11 12  1  0
 12 13  2  0
 13 14  1  0
 14 15  1  0
 14 16  2  0
 16 17  1  0
 17 18  1  0
 18 19  1  0
 18 20  1  0
 18 21  1  0
 17 22  2  0
 22 23  1  0
 23 24  1  0
  6 25  2  0
 25  2  1  0
 23 10  2  0
 22 12  1  0
M  END
>  <Binding energies>  (28) 
[-6.86]

>  <Ligand effiencies>  (28) 
[-0.24500000000000002]

>  <Interactions>  (28) 
["V-A:LYS:547:CE:4948, V-B:LYS:547:CE:9922, V-A:HIS:456:CD2:4066, V-B:GLU:543:C:9874, V-A:HIS:456:CG:4064, H-B:LYS:547:NZ:9923, V-B:GLY:544:CA:9886, V-A:TYR:484:CD1:4341, V-A:TYR:484:CG:4340, V-B:GLU:543:CA:9876, V-A:TYR:484:CB:4339, V-A:ASP:473:CG:4238, V-A:HIS:456:C:4059, V-A:LYS:471:CD:4217, V-A:HIS:456:CB:4063, V-A:VAL:458:CG2:4085, V-A:LYS:471:CE:4218, V-A:LYS:547:CD:4947, V-B:VAL:542:CG1:9871, V-A:LYS:547:CG:4946, V-A:LYS:471:CG:4216, V-A:ASP:473:CB:4237, H-A:ASP:473:OD2:4240, V-A:SER:483:CB:4331, H-A:TYR:484:N:4338, V-A:PRO:486:CD:4364"]

$$$$
4bg_Grossjean_2025
     RDKit          3D

 25 27  0  0  0  0  0  0  0  0999 V2000
  134.2360  120.0190   60.6050 C   0  0  0  0  0  0  0  0  0  0  0  0
  133.2210  121.1080   60.9010 C   0  0  0  0  0  0  0  0  0  0  0  0
  133.5950  122.2780   61.5560 C   0  0  0  0  0  0  0  0  0  0  0  0
  132.6450  123.2750   61.8280 C   0  0  0  0  0  0  0  0  0  0  0  0
  133.1030  124.5460   62.5520 C   0  0  0  0  0  0  0  0  0  0  0  0
  132.5870  125.6600   62.0270 F   0  0  0  0  0  0  0  0  0  0  0  0
  132.7280  124.4960   63.8300 F   0  0  0  0  0  0  0  0  0  0  0  0
  134.4300  124.6500   62.4850 F   0  0  0  0  0  0  0  0  0  0  0  0
  131.3040  123.0310   61.4050 C   0  0  0  0  0  0  0  0  0  0  0  0
  130.0870  123.7970   61.5120 C   0  0  0  0  0  0  0  0  0  0  0  0
  130.0310  125.0240   62.1230 N   0  0  0  0  0  0  0  0  0  0  0  0
  128.9700  123.1790   60.9270 C   0  0  0  0  0  0  0  0  0  0  0  0
  127.5870  123.6530   60.8790 C   0  0  0  0  0  0  0  0  0  0  0  0
  126.8360  123.5450   61.8500 O   0  0  0  0  0  0  0  0  0  0  0  0
  127.2060  124.2440   59.7280 N   0  0  0  0  0  0  0  0  0  0  0  0
  125.8720  124.7780   59.4480 C   0  0  0  0  0  0  0  0  0  0  0  0
  125.2340  124.1980   58.1930 C   0  0  0  0  0  0  0  0  0  0  0  0
  123.8420  124.1600   58.0670 C   0  0  0  0  0  0  0  0  0  0  0  0
  123.2630  123.6650   56.9020 C   0  0  0  0  0  0  0  0  0  0  0  0
  124.0750  123.2220   55.8600 C   0  0  0  0  0  0  0  0  0  0  0  0
  125.4630  123.2740   55.9720 C   0  0  0  0  0  0  0  0  0  0  0  0
  126.0430  123.7670   57.1380 C   0  0  0  0  0  0  0  0  0  0  0  0
  129.3850  121.6040   60.2580 S   0  0  0  0  0  0  0  0  0  0  0  0
  131.0550  121.7920   60.7370 C   0  0  0  0  0  0  0  0  0  0  0  0
  131.9610  120.8480   60.4830 N   0  0  0  0  0  0  0  0  0  0  0  0
  1  2  1  0
  2  3  2  0
  3  4  1  0
  4  5  1  0
  5  6  1  0
  5  7  1  0
  5  8  1  0
  4  9  2  0
  9 10  1  0
 10 11  1  0
 10 12  2  0
 12 13  1  0
 13 14  2  0
 13 15  1  0
 15 16  1  0
 16 17  1  0
 17 18  2  0
 18 19  1  0
 19 20  2  0
 20 21  1  0
 21 22  2  0
 12 23  1  0
 23 24  1  0
 24 25  2  0
 25  2  1  0
 24  9  1  0
 22 17  1  0
M  END
>  <Binding energies>  (29) 
[-7.11]

>  <Ligand effiencies>  (29) 
[-0.25392857142857145]

>  <Interactions>  (29) 
["V-B:ASP:366:CG:8185, V-B:TYR:539:CD2:9846, V-B:PRO:540:CA:9855, H-B:ALA:541:N:9863, V-A:LEU:475:CD2:4257, V-A:ILE:369:CG2:3235, V-A:TRP:381:CZ2:3368, V-B:ALA:541:CB:9864, V-A:TRP:381:CH2:3370, V-A:ILE:369:CD1:3237, V-B:TYR:539:CE2:9848, V-B:PRO:540:N:9856, V-B:ILE:538:CB:9834, V-A:ASP:366:CG:3211, V-B:TYR:531:CE2:9765, V-B:PRO:540:CD:9859, V-B:PRO:540:CB:9857, V-B:ILE:538:CG2:9835, H-B:GLU:543:OE2:9882, H-B:GLU:543:OE1:9881, V-B:ILE:538:CA:9832, V-B:TYR:539:C:9839, V-B:LEU:363:CD1:8161, V-B:TYR:531:CZ:9766, V-B:GLU:543:CD:9880, V-A:ARG:545:CZ:4924, V-A:GLY:454:CA:4047, V-B:LEU:363:CA:8157, V-B:LEU:363:CB:8159, V-A:GLY:453:C:4040, V-A:GLY:453:CA:4042, V-A:SER:385:C:3403, V-A:SER:385:CA:3405, V-A:SER:385:CB:3407"]

$$$$
4ca_Grossjean_2025
     RDKit          3D

 34 37  0  0  0  0  0  0  0  0999 V2000
  130.6440  126.2730   72.5640 C   0  0  0  0  0  0  0  0  0  0  0  0
  129.3320  125.7650   71.9580 C   0  0  0  0  0  0  0  0  0  0  0  0
  128.4030  126.8390   71.8760 O   0  0  0  0  0  0  0  0  0  0  0  0
  128.6460  127.9180   71.0880 C   0  0  0  0  0  0  0  0  0  0  0  0
  128.6530  129.0800   71.5100 O   0  0  0  0  0  0  0  0  0  0  0  0
  128.9090  127.5590   69.6550 C   0  0  0  0  0  0  0  0  0  0  0  0
  130.2310  127.3770   69.2260 C   0  0  0  0  0  0  0  0  0  0  0  0
  130.5060  127.0390   67.9040 C   0  0  0  0  0  0  0  0  0  0  0  0
  129.4700  126.8830   66.9840 C   0  0  0  0  0  0  0  0  0  0  0  0
  129.8610  126.5310   65.6770 N   0  0  0  0  0  0  0  0  0  0  0  0
  130.8750  125.7370   65.2530 C   0  0  0  0  0  0  0  0  0  0  0  0
  131.6320  125.1220   66.0040 O   0  0  0  0  0  0  0  0  0  0  0  0
  131.0180  125.6280   63.7990 C   0  0  0  0  0  0  0  0  0  0  0  0
  129.9960  126.5900   62.7340 S   0  0  0  0  0  0  0  0  0  0  0  0
  130.7880  125.9430   61.3170 C   0  0  0  0  0  0  0  0  0  0  0  0
  130.4330  126.3210   60.0910 N   0  0  0  0  0  0  0  0  0  0  0  0
  131.1150  125.7750   59.0510 C   0  0  0  0  0  0  0  0  0  0  0  0
  130.6980  126.2290   57.6810 C   0  0  0  0  0  0  0  0  0  0  0  0
  130.0930  127.4810   57.4920 C   0  0  0  0  0  0  0  0  0  0  0  0
  129.6990  127.9050   56.2250 C   0  0  0  0  0  0  0  0  0  0  0  0
  129.9040  127.0780   55.1260 C   0  0  0  0  0  0  0  0  0  0  0  0
  130.4980  125.8310   55.2850 C   0  0  0  0  0  0  0  0  0  0  0  0
  130.8910  125.4110   56.5540 C   0  0  0  0  0  0  0  0  0  0  0  0
  132.1340  124.8370   59.2460 C   0  0  0  0  0  0  0  0  0  0  0  0
  132.5120  124.4290   60.5340 C   0  0  0  0  0  0  0  0  0  0  0  0
  133.6400  123.4000   60.6760 C   0  0  0  0  0  0  0  0  0  0  0  0
  134.6240  123.8090   61.4780 F   0  0  0  0  0  0  0  0  0  0  0  0
  133.1560  122.2670   61.1840 F   0  0  0  0  0  0  0  0  0  0  0  0
  134.1780  123.1530   59.4810 F   0  0  0  0  0  0  0  0  0  0  0  0
  131.8160  125.0080   61.6330 C   0  0  0  0  0  0  0  0  0  0  0  0
  131.9260  124.8490   63.0630 C   0  0  0  0  0  0  0  0  0  0  0  0
  132.8390  124.0080   63.6460 N   0  0  0  0  0  0  0  0  0  0  0  0
  128.1440  127.0570   67.4040 C   0  0  0  0  0  0  0  0  0  0  0  0
  127.8700  127.3930   68.7270 C   0  0  0  0  0  0  0  0  0  0  0  0
  1  2  1  0
  2  3  1  0
  3  4  1  0
  4  5  2  0
  4  6  1  0
  6  7  2  0
  7  8  1  0
  8  9  2  0
  9 10  1  0
 10 11  1  0
 11 12  2  0
 11 13  1  0
 13 14  1  0
 14 15  1  0
 15 16  2  0
 16 17  1  0
 17 18  1  0
 18 19  2  0
 19 20  1  0
 20 21  2  0
 21 22  1  0
 22 23  2  0
 17 24  2  0
 24 25  1  0
 25 26  1  0
 26 27  1  0
 26 28  1  0
 26 29  1  0
 25 30  2  0
 30 31  1  0
 31 32  1  0
  9 33  1  0
 33 34  2  0
 34  6  1  0
 31 13  2  0
 30 15  1  0
 23 18  1  0
M  END
>  <Binding energies>  (30) 
[-6.91]

>  <Ligand effiencies>  (30) 
[-0.18675675675675676]

>  <Interactions>  (30) 
["V-A:LEU:475:CD2:4257, V-A:ILE:369:CG2:3235, V-A:ILE:369:CD1:3237, V-A:ASP:366:CG:3211, H-B:GLU:543:OE2:9882, H-B:GLU:543:OE1:9881, V-B:TYR:539:CZ:9849, H-A:GLU:543:OE2:4908, V-A:GLU:543:CD:4906, V-A:HIS:456:CE1:4068, H-A:TYR:484:OH:4346, V-B:GLU:543:CD:9880, V-B:GLU:543:CB:9878, V-B:GLU:543:CG:9879, V-A:GLU:543:CG:4905, V-B:HIS:456:CE1:9042, V-A:ILE:369:CB:3234, V-A:GLY:544:C:4910, V-A:GLU:543:C:4900, V-B:LYS:547:CE:9922, V-A:HIS:456:CD2:4066, V-B:HIS:456:CD2:9040, V-B:GLU:543:C:9874, V-A:HIS:456:CG:4064, V-B:GLY:544:CA:9886, V-A:ARG:545:CG:4920, V-A:GLY:454:CA:4047, V-A:ILE:369:CG1:3236, V-A:GLY:453:C:4040, V-A:GLY:453:CA:4042"]

$$$$
4cb_Grossjean_2025
     RDKit          3D

 33 36  0  0  0  0  0  0  0  0999 V2000
  130.3240  126.7650   72.3540 C   0  0  0  0  0  0  0  0  0  0  0  0
  129.7540  127.9620   71.8430 O   0  0  0  0  0  0  0  0  0  0  0  0
  128.6330  127.9310   71.0780 C   0  0  0  0  0  0  0  0  0  0  0  0
  127.5030  128.1670   71.5150 O   0  0  0  0  0  0  0  0  0  0  0  0
  128.9040  127.5800   69.6420 C   0  0  0  0  0  0  0  0  0  0  0  0
  130.2260  127.3830   69.2240 C   0  0  0  0  0  0  0  0  0  0  0  0
  130.5090  127.0490   67.9020 C   0  0  0  0  0  0  0  0  0  0  0  0
  129.4790  126.9130   66.9710 C   0  0  0  0  0  0  0  0  0  0  0  0
  129.8770  126.5590   65.6680 N   0  0  0  0  0  0  0  0  0  0  0  0
  130.8680  125.7330   65.2520 C   0  0  0  0  0  0  0  0  0  0  0  0
  131.5920  125.0850   66.0090 O   0  0  0  0  0  0  0  0  0  0  0  0
  131.0280  125.6310   63.7990 C   0  0  0  0  0  0  0  0  0  0  0  0
  129.9820  126.5570   62.7240 S   0  0  0  0  0  0  0  0  0  0  0  0
  130.8090  125.9410   61.3130 C   0  0  0  0  0  0  0  0  0  0  0  0
  130.4520  126.3040   60.0840 N   0  0  0  0  0  0  0  0  0  0  0  0
  131.1610  125.7800   59.0500 C   0  0  0  0  0  0  0  0  0  0  0  0
  130.7380  126.2140   57.6760 C   0  0  0  0  0  0  0  0  0  0  0  0
  130.9760  125.3950   56.5600 C   0  0  0  0  0  0  0  0  0  0  0  0
  130.5900  125.7920   55.2820 C   0  0  0  0  0  0  0  0  0  0  0  0
  129.9590  127.0190   55.1020 C   0  0  0  0  0  0  0  0  0  0  0  0
  129.7140  127.8510   56.1900 C   0  0  0  0  0  0  0  0  0  0  0  0
  130.1030  127.4500   57.4650 C   0  0  0  0  0  0  0  0  0  0  0  0
  132.2090  124.8770   59.2560 C   0  0  0  0  0  0  0  0  0  0  0  0
  132.5910  124.4850   60.5470 C   0  0  0  0  0  0  0  0  0  0  0  0
  133.7510  123.4930   60.7010 C   0  0  0  0  0  0  0  0  0  0  0  0
  133.3850  122.3460   61.2790 F   0  0  0  0  0  0  0  0  0  0  0  0
  134.2490  123.1930   59.5010 F   0  0  0  0  0  0  0  0  0  0  0  0
  134.7090  124.0310   61.4540 F   0  0  0  0  0  0  0  0  0  0  0  0
  131.8650  125.0410   61.6400 C   0  0  0  0  0  0  0  0  0  0  0  0
  131.9710  124.8870   63.0700 C   0  0  0  0  0  0  0  0  0  0  0  0
  132.9100  124.0820   63.6620 N   0  0  0  0  0  0  0  0  0  0  0  0
  128.1510  127.1050   67.3820 C   0  0  0  0  0  0  0  0  0  0  0  0
  127.8700  127.4370   68.7040 C   0  0  0  0  0  0  0  0  0  0  0  0
  1  2  1  0
  2  3  1  0
  3  4  2  0
  3  5  1  0
  5  6  2  0
  6  7  1  0
  7  8  2  0
  8  9  1  0
  9 10  1  0
 10 11  2  0
 10 12  1  0
 12 13  1  0
 13 14  1  0
 14 15  2  0
 15 16  1  0
 16 17  1  0
 17 18  2  0
 18 19  1  0
 19 20  2  0
 20 21  1  0
 21 22  2  0
 16 23  2  0
 23 24  1  0
 24 25  1  0
 25 26  1  0
 25 27  1  0
 25 28  1  0
 24 29  2  0
 29 30  1  0
 30 31  1  0
  8 32  1  0
 32 33  2  0
 33  5  1  0
 30 12  2  0
 29 14  1  0
 22 17  1  0
M  END
>  <Binding energies>  (31) 
[-6.77]

>  <Ligand effiencies>  (31) 
[-0.18805555555555553]

>  <Interactions>  (31) 
["V-A:LEU:475:CD2:4257, V-A:ILE:369:CG2:3235, V-A:ILE:369:CD1:3237, V-A:ASP:366:CG:3211, H-B:GLU:543:OE2:9882, H-B:GLU:543:OE1:9881, V-B:TYR:539:CZ:9849, H-A:GLU:543:OE2:4908, V-A:GLU:543:CD:4906, V-A:HIS:456:CE1:4068, H-A:TYR:484:OH:4346, H-A:GLU:543:OE1:4907, V-B:GLU:543:CD:9880, V-B:GLU:543:CB:9878, V-B:GLU:543:CG:9879, V-A:GLU:543:CG:4905, V-B:HIS:456:CE1:9042, V-A:ILE:369:CB:3234, V-A:GLY:544:C:4910, V-A:GLU:543:C:4900, V-A:HIS:456:CD2:4066, V-B:HIS:456:CD2:9040, V-B:GLU:543:C:9874, V-A:ARG:545:CG:4920, V-A:GLY:454:CA:4047, V-A:TYR:531:CE1:4790, H-B:HIS:456:ND1:9039, V-A:ILE:369:CG1:3236, V-A:GLY:453:C:4040, V-A:GLY:453:CA:4042"]

$$$$
4cc_Grossjean_2025
     RDKit          3D

 31 34  0  0  0  0  0  0  0  0999 V2000
  128.8070  127.4260   71.9990 C   0  0  0  0  0  0  0  0  0  0  0  0
  129.4700  126.7650   70.9260 O   0  0  0  0  0  0  0  0  0  0  0  0
  129.1980  127.1480   69.6270 C   0  0  0  0  0  0  0  0  0  0  0  0
  127.8570  127.3590   69.3080 C   0  0  0  0  0  0  0  0  0  0  0  0
  127.4860  127.7490   68.0240 C   0  0  0  0  0  0  0  0  0  0  0  0
  128.4560  127.9230   67.0350 C   0  0  0  0  0  0  0  0  0  0  0  0
  127.9880  128.3330   65.7720 N   0  0  0  0  0  0  0  0  0  0  0  0
  127.0550  129.2660   65.4660 C   0  0  0  0  0  0  0  0  0  0  0  0
  126.4740  129.9590   66.3030 O   0  0  0  0  0  0  0  0  0  0  0  0
  126.7620  129.4180   64.0380 C   0  0  0  0  0  0  0  0  0  0  0  0
  127.6990  128.5270   62.8390 S   0  0  0  0  0  0  0  0  0  0  0  0
  126.7700  129.2220   61.5320 C   0  0  0  0  0  0  0  0  0  0  0  0
  127.0190  128.9110   60.2620 N   0  0  0  0  0  0  0  0  0  0  0  0
  126.2380  129.4940   59.3150 C   0  0  0  0  0  0  0  0  0  0  0  0
  126.5440  129.1270   57.8920 C   0  0  0  0  0  0  0  0  0  0  0  0
  127.2460  127.9490   57.5890 C   0  0  0  0  0  0  0  0  0  0  0  0
  127.5350  127.6040   56.2710 C   0  0  0  0  0  0  0  0  0  0  0  0
  127.1260  128.4350   55.2340 C   0  0  0  0  0  0  0  0  0  0  0  0
  126.4320  129.6090   55.5070 C   0  0  0  0  0  0  0  0  0  0  0  0
  126.1460  129.9520   56.8260 C   0  0  0  0  0  0  0  0  0  0  0  0
  125.2240  130.3970   59.6470 C   0  0  0  0  0  0  0  0  0  0  0  0
  124.9540  130.7330   60.9840 C   0  0  0  0  0  0  0  0  0  0  0  0
  123.8230  131.7250   61.2760 C   0  0  0  0  0  0  0  0  0  0  0  0
  122.9070  131.2430   62.1210 F   0  0  0  0  0  0  0  0  0  0  0  0
  124.3240  132.8320   61.8220 F   0  0  0  0  0  0  0  0  0  0  0  0
  123.1940  132.0380   60.1430 F   0  0  0  0  0  0  0  0  0  0  0  0
  125.7600  130.1210   61.9850 C   0  0  0  0  0  0  0  0  0  0  0  0
  125.7830  130.2150   63.4240 C   0  0  0  0  0  0  0  0  0  0  0  0
  124.9180  131.0160   64.1270 N   0  0  0  0  0  0  0  0  0  0  0  0
  129.8080  127.7240   67.3510 C   0  0  0  0  0  0  0  0  0  0  0  0
  130.1740  127.3360   68.6370 C   0  0  0  0  0  0  0  0  0  0  0  0
  1  2  1  0
  2  3  1  0
  3  4  2  0
  4  5  1  0
  5  6  2  0
  6  7  1  0
  7  8  1  0
  8  9  2  0
  8 10  1  0
 10 11  1  0
 11 12  1  0
 12 13  2  0
 13 14  1  0
 14 15  1  0
 15 16  2  0
 16 17  1  0
 17 18  2  0
 18 19  1  0
 19 20  2  0
 14 21  2  0
 21 22  1  0
 22 23  1  0
 23 24  1  0
 23 25  1  0
 23 26  1  0
 22 27  2  0
 27 28  1  0
 28 29  1  0
  6 30  1  0
 30 31  2  0
 31  3  1  0
 28 10  2  0
 27 12  1  0
 20 15  1  0
M  END
>  <Binding energies>  (32) 
[-6.18]

>  <Ligand effiencies>  (32) 
[-0.18176470588235294]

>  <Interactions>  (32) 
["V-B:ASP:366:CG:8185, V-B:ILE:369:CD1:8211, V-B:ILE:369:CG2:8209, V-B:LEU:475:CD2:9231, V-A:TYR:539:CZ:4875, H-B:GLU:543:OE2:9882, H-B:GLU:543:OE1:9881, H-A:GLU:543:OE2:4908, V-A:GLU:543:CD:4906, V-A:HIS:456:CE1:4068, H-A:GLU:543:OE1:4907, V-B:GLU:543:CD:9880, V-B:GLU:543:CG:9879, V-A:GLU:543:CG:4905, H-B:TYR:484:OH:9320, V-A:GLU:543:CB:4904, V-B:HIS:456:CE1:9042, V-B:ILE:369:CB:8208, V-B:ILE:369:CG1:8210, V-B:GLY:544:C:9884, V-A:GLU:543:C:4900, V-B:GLU:543:C:9874, V-B:TYR:531:CE1:9764, V-B:ARG:545:CG:9894, V-B:GLY:454:CA:9021, V-B:GLY:453:C:9014, V-B:GLY:453:CA:9016"]

$$$$
4ce_Grossjean_2025
     RDKit          3D

 30 33  0  0  0  0  0  0  0  0999 V2000
  131.8310  127.0040   74.1070 C   0  0  0  0  0  0  0  0  0  0  0  0
  132.2120  125.5520   74.3250 C   0  0  0  0  0  0  0  0  0  0  0  0
  133.4510  125.1950   74.8610 C   0  0  0  0  0  0  0  0  0  0  0  0
  133.7310  123.8390   75.0410 C   0  0  0  0  0  0  0  0  0  0  0  0
  132.7750  122.8850   74.6860 C   0  0  0  0  0  0  0  0  0  0  0  0
  131.5550  123.3120   74.1480 C   0  0  0  0  0  0  0  0  0  0  0  0
  130.6250  122.3050   73.8330 N   0  0  0  0  0  0  0  0  0  0  0  0
  129.4810  122.4030   73.1100 C   0  0  0  0  0  0  0  0  0  0  0  0
  129.0890  123.4470   72.5860 O   0  0  0  0  0  0  0  0  0  0  0  0
  128.7130  121.1630   72.9770 C   0  0  0  0  0  0  0  0  0  0  0  0
  127.4740  121.0170   71.7330 S   0  0  0  0  0  0  0  0  0  0  0  0
  127.1270  119.3720   72.2090 C   0  0  0  0  0  0  0  0  0  0  0  0
  126.2000  118.6500   71.5840 N   0  0  0  0  0  0  0  0  0  0  0  0
  126.0120  117.3740   72.0150 C   0  0  0  0  0  0  0  0  0  0  0  0
  124.9640  116.5860   71.2870 C   0  0  0  0  0  0  0  0  0  0  0  0
  125.3070  115.4260   70.5740 C   0  0  0  0  0  0  0  0  0  0  0  0
  124.3410  114.6920   69.8890 C   0  0  0  0  0  0  0  0  0  0  0  0
  123.0150  115.1090   69.9110 C   0  0  0  0  0  0  0  0  0  0  0  0
  122.6480  116.2550   70.6090 C   0  0  0  0  0  0  0  0  0  0  0  0
  123.6180  116.9870   71.2900 C   0  0  0  0  0  0  0  0  0  0  0  0
  126.7390  116.8390   73.0830 C   0  0  0  0  0  0  0  0  0  0  0  0
  127.7150  117.5950   73.7520 C   0  0  0  0  0  0  0  0  0  0  0  0
  128.4770  116.9460   74.9130 C   0  0  0  0  0  0  0  0  0  0  0  0
  129.8000  116.9480   74.7390 F   0  0  0  0  0  0  0  0  0  0  0  0
  128.2220  117.6050   76.0440 F   0  0  0  0  0  0  0  0  0  0  0  0
  128.0940  115.6760   75.0490 F   0  0  0  0  0  0  0  0  0  0  0  0
  127.9320  118.9280   73.2990 C   0  0  0  0  0  0  0  0  0  0  0  0
  128.8300  119.9760   73.7190 C   0  0  0  0  0  0  0  0  0  0  0  0
  129.7190  119.8210   74.7520 N   0  0  0  0  0  0  0  0  0  0  0  0
  131.2730  124.6360   73.9740 N   0  0  0  0  0  0  0  0  0  0  0  0
  1  2  1  0
  2  3  2  0
  3  4  1  0
  4  5  2  0
  5  6  1  0
  6  7  1  0
  7  8  1  0
  8  9  2  0
  8 10  1  0
 10 11  1  0
 11 12  1  0
 12 13  2  0
 13 14  1  0
 14 15  1  0
 15 16  2  0
 16 17  1  0
 17 18  2  0
 18 19  1  0
 19 20  2  0
 14 21  2  0
 21 22  1  0
 22 23  1  0
 23 24  1  0
 23 25  1  0
 23 26  1  0
 22 27  2  0
 27 28  1  0
 28 29  1  0
  6 30  2  0
 30  2  1  0
 28 10  2  0
 27 12  1  0
 20 15  1  0
M  END
>  <Binding energies>  (33) 
[-7.0]

>  <Ligand effiencies>  (33) 
[-0.21212121212121213]

>  <Interactions>  (33) 
["V-A:LYS:547:CE:4948, V-B:LYS:547:CE:9922, V-A:HIS:456:CD2:4066, V-B:GLU:543:C:9874, V-A:HIS:456:CG:4064, H-B:LYS:547:NZ:9923, V-B:GLY:544:CA:9886, V-A:TYR:484:CB:4339, V-A:ASP:473:CG:4238, V-A:HIS:456:C:4059, V-A:LYS:471:CD:4217, V-A:HIS:456:CB:4063, V-A:VAL:458:CG2:4085, V-A:LYS:471:CE:4218, V-A:LYS:547:CD:4947, V-B:ARG:356:CD:8091, V-B:VAL:542:CG1:9871, V-A:LYS:547:CG:4946, V-A:LYS:471:CG:4216, V-A:ASP:473:CB:4237, H-A:ASP:473:OD2:4240, V-A:TYR:484:C:4335, V-A:SER:483:CB:4331, V-A:PRO:486:CD:4364, H-A:TYR:484:O:4336, V-A:ASP:485:CA:4351"]

$$$$
4cf_Grossjean_2025
     RDKit          3D

 29 32  0  0  0  0  0  0  0  0999 V2000
  126.0530  132.7310   63.8020 N   0  0  0  0  0  0  0  0  0  0  0  0
  126.6270  131.7520   63.0300 C   0  0  0  0  0  0  0  0  0  0  0  0
  126.8110  130.4320   63.4730 C   0  0  0  0  0  0  0  0  0  0  0  0
  126.4890  129.8540   64.7810 C   0  0  0  0  0  0  0  0  0  0  0  0
  125.3790  130.0270   65.2860 O   0  0  0  0  0  0  0  0  0  0  0  0
  127.4790  129.1300   65.3550 N   0  0  0  0  0  0  0  0  0  0  0  0
  127.5140  128.4920   66.6100 C   0  0  0  0  0  0  0  0  0  0  0  0
  126.4690  127.7320   67.1690 C   0  0  0  0  0  0  0  0  0  0  0  0
  126.6290  127.1640   68.4350 C   0  0  0  0  0  0  0  0  0  0  0  0
  127.8310  127.3690   69.1130 C   0  0  0  0  0  0  0  0  0  0  0  0
  128.8510  128.1020   68.5990 N   0  0  0  0  0  0  0  0  0  0  0  0
  128.6790  128.6500   67.3680 C   0  0  0  0  0  0  0  0  0  0  0  0
  127.5700  129.4440   62.2270 S   0  0  0  0  0  0  0  0  0  0  0  0
  127.6420  130.8020   61.1300 C   0  0  0  0  0  0  0  0  0  0  0  0
  128.1660  130.6840   59.9110 N   0  0  0  0  0  0  0  0  0  0  0  0
  128.1920  131.8010   59.1370 C   0  0  0  0  0  0  0  0  0  0  0  0
  128.7950  131.6390   57.7720 C   0  0  0  0  0  0  0  0  0  0  0  0
  130.1420  131.9590   57.5390 C   0  0  0  0  0  0  0  0  0  0  0  0
  130.7090  131.8120   56.2760 C   0  0  0  0  0  0  0  0  0  0  0  0
  129.9330  131.3370   55.2240 C   0  0  0  0  0  0  0  0  0  0  0  0
  128.5970  131.0090   55.4260 C   0  0  0  0  0  0  0  0  0  0  0  0
  128.0350  131.1580   56.6910 C   0  0  0  0  0  0  0  0  0  0  0  0
  127.6720  133.0200   59.5790 C   0  0  0  0  0  0  0  0  0  0  0  0
  127.1140  133.1540   60.8600 C   0  0  0  0  0  0  0  0  0  0  0  0
  126.5660  134.5220   61.2830 C   0  0  0  0  0  0  0  0  0  0  0  0
  126.8130  135.4840   60.3900 F   0  0  0  0  0  0  0  0  0  0  0  0
  125.2440  134.4510   61.4370 F   0  0  0  0  0  0  0  0  0  0  0  0
  127.1240  134.8960   62.4340 F   0  0  0  0  0  0  0  0  0  0  0  0
  127.0970  131.9950   61.6880 C   0  0  0  0  0  0  0  0  0  0  0  0
  1  2  1  0
  2  3  2  0
  3  4  1  0
  4  5  2  0
  4  6  1  0
  6  7  1  0
  7  8  2  0
  8  9  1  0
  9 10  2  0
 10 11  1  0
 11 12  2  0
  3 13  1  0
 13 14  1  0
 14 15  2  0
 15 16  1  0
 16 17  1  0
 17 18  2  0
 18 19  1  0
 19 20  2  0
 20 21  1  0
 21 22  2  0
 16 23  2  0
 23 24  1  0
 24 25  1  0
 25 26  1  0
 25 27  1  0
 25 28  1  0
 24 29  2  0
 29  2  1  0
 12  7  1  0
 29 14  1  0
 22 17  1  0
M  END
>  <Binding energies>  (34) 
[-6.39]

>  <Ligand effiencies>  (34) 
[-0.1996875]

>  <Interactions>  (34) 
["V-A:PRO:540:N:4882, V-A:TYR:539:CD2:4872, V-B:LEU:475:CD2:9231, V-A:TYR:539:CE2:4874, V-A:TYR:539:CZ:4875, V-B:TRP:381:CH2:8344, H-B:GLU:543:OE2:9882, V-A:PRO:540:CA:4881, H-A:GLU:543:OE2:4908, V-B:TRP:381:CZ2:8342, V-A:ALA:541:CB:4890, V-A:GLU:543:CD:4906, H-A:GLU:543:OE1:4907, V-B:GLU:543:CD:9880, V-B:GLU:543:CG:9879, H-B:ARG:545:NE:9896, V-A:GLU:543:CG:4905, V-A:TYR:539:C:4865, V-A:TYR:539:CG:4870, V-A:TYR:539:CE1:4873, H-B:TYR:484:OH:9320, V-A:GLU:543:CB:4904, V-B:HIS:456:CE1:9042, V-B:GLY:544:C:9884, V-A:GLU:543:C:4900, V-B:GLU:543:C:9874, V-B:ARG:545:CG:9894, V-B:ARG:545:CD:9895, V-B:TYR:484:CZ:9319, V-B:PRO:482:CB:9298, V-B:ARG:545:CB:9893, V-B:TRP:381:CZ3:8343, V-B:LEU:475:CD1:9230, V-B:LEU:475:CG:9229, V-B:ARG:545:CA:9891"]

$$$$
4ci_Grossjean_2025
     RDKit          3D

 28 31  0  0  0  0  0  0  0  0999 V2000
  124.8880  129.9940   58.8340 N   0  0  0  0  0  0  0  0  0  0  0  0
  126.0830  130.4340   59.3410 C   0  0  0  0  0  0  0  0  0  0  0  0
  126.2720  130.7590   60.6940 C   0  0  0  0  0  0  0  0  0  0  0  0
  125.3030  130.6940   61.7920 C   0  0  0  0  0  0  0  0  0  0  0  0
  124.1560  131.1230   61.6460 O   0  0  0  0  0  0  0  0  0  0  0  0
  125.7660  130.1530   62.9470 N   0  0  0  0  0  0  0  0  0  0  0  0
  125.0700  129.9740   64.1360 C   0  0  0  0  0  0  0  0  0  0  0  0
  125.6970  129.7530   65.3610 C   0  0  0  0  0  0  0  0  0  0  0  0
  124.6730  129.6270   66.2710 C   0  0  0  0  0  0  0  0  0  0  0  0
  123.4890  129.7660   65.6260 O   0  0  0  0  0  0  0  0  0  0  0  0
  123.7540  129.9850   64.2740 N   0  0  0  0  0  0  0  0  0  0  0  0
  127.9280  131.2770   61.0000 S   0  0  0  0  0  0  0  0  0  0  0  0
  128.3530  131.0640   59.3180 C   0  0  0  0  0  0  0  0  0  0  0  0
  129.5820  131.3160   58.8740 N   0  0  0  0  0  0  0  0  0  0  0  0
  129.8190  131.1180   57.5510 C   0  0  0  0  0  0  0  0  0  0  0  0
  131.2130  131.4160   57.0790 C   0  0  0  0  0  0  0  0  0  0  0  0
  132.3240  131.1410   57.8940 C   0  0  0  0  0  0  0  0  0  0  0  0
  133.6190  131.4140   57.4620 C   0  0  0  0  0  0  0  0  0  0  0  0
  133.8230  131.9710   56.2030 C   0  0  0  0  0  0  0  0  0  0  0  0
  132.7420  132.2580   55.3780 C   0  0  0  0  0  0  0  0  0  0  0  0
  131.4480  131.9840   55.8140 C   0  0  0  0  0  0  0  0  0  0  0  0
  128.8150  130.6840   56.6790 C   0  0  0  0  0  0  0  0  0  0  0  0
  127.5150  130.4140   57.1370 C   0  0  0  0  0  0  0  0  0  0  0  0
  126.4650  129.9400   56.1250 C   0  0  0  0  0  0  0  0  0  0  0  0
  125.2280  130.3370   56.4300 F   0  0  0  0  0  0  0  0  0  0  0  0
  126.7530  130.4260   54.9180 F   0  0  0  0  0  0  0  0  0  0  0  0
  126.4560  128.6080   56.0740 F   0  0  0  0  0  0  0  0  0  0  0  0
  127.2600  130.6070   58.5240 C   0  0  0  0  0  0  0  0  0  0  0  0
  1  2  1  0
  2  3  2  0
  3  4  1  0
  4  5  2  0
  4  6  1  0
  6  7  1  0
  7  8  1  0
  8  9  2  0
  9 10  1  0
 10 11  1  0
  3 12  1  0
 12 13  1  0
 13 14  2  0
 14 15  1  0
 15 16  1  0
 16 17  2  0
 17 18  1  0
 18 19  2  0
 19 20  1  0
 20 21  2  0
 15 22  2  0
 22 23  1  0
 23 24  1  0
 24 25  1  0
 24 26  1  0
 24 27  1  0
 23 28  2  0
 28  2  1  0
 11  7  2  0
 28 13  1  0
 21 16  1  0
M  END
>  <Binding energies>  (35) 
[-7.16]

>  <Ligand effiencies>  (35) 
[-0.2309677419354839]

>  <Interactions>  (35) 
["V-A:ILE:538:CG2:4861, V-A:PRO:540:CD:4885, V-B:ASP:366:CG:8185, V-A:PRO:540:N:4882, H-B:ASP:366:OD2:8187, V-A:ILE:538:CB:4860, V-A:ILE:538:CA:4858, V-A:TYR:531:CZ:4792, V-A:TYR:539:CE2:4874, V-A:TYR:539:CZ:4875, V-A:PRO:540:CA:4881, H-B:ARG:545:NH2:9900, V-B:TYR:531:CZ:9766, H-A:GLU:543:OE1:4907, V-B:ARG:545:CZ:9898, H-B:ARG:545:NE:9896, H-B:GLY:454:N:9022, V-A:PRO:540:CB:4883, V-A:LEU:363:CD1:3187, V-A:TYR:539:CE1:4873, H-B:TYR:484:OH:9320, V-A:TYR:531:CE2:4791, V-B:HIS:456:CE1:9042, V-B:ASP:366:CB:8184, V-B:TYR:531:CE1:9764, V-B:ARG:545:CG:9894, V-B:ARG:545:CD:9895, V-B:TYR:484:CZ:9319, V-A:LEU:363:CB:3185, V-A:LEU:363:CA:3183, H-B:ASP:366:OD1:8186, V-A:PRO:540:CG:4884, H-B:ARG:545:NH1:9899, V-A:LEU:363:CG:3186"]

$$$$
8a_Ghoteimi_2023
     RDKit          3D

 40 44  0  0  0  0  0  0  0  0999 V2000
  133.9150  121.0710   60.9790 C   0  0  0  0  0  0  0  0  0  0  0  0
  132.9470  120.4450   59.9710 C   0  0  0  0  0  0  0  0  0  0  0  0
  132.1220  119.4960   60.6350 O   0  0  0  0  0  0  0  0  0  0  0  0
  130.8040  119.7440   60.8530 C   0  0  0  0  0  0  0  0  0  0  0  0
  129.9500  118.8560   60.9370 O   0  0  0  0  0  0  0  0  0  0  0  0
  130.4880  121.2070   60.9760 C   0  0  0  0  0  0  0  0  0  0  0  0
  130.0040  121.8980   59.8590 C   0  0  0  0  0  0  0  0  0  0  0  0
  129.7040  123.2540   59.9400 C   0  0  0  0  0  0  0  0  0  0  0  0
  129.8810  123.9490   61.1380 C   0  0  0  0  0  0  0  0  0  0  0  0
  129.5490  125.3180   61.1010 N   0  0  0  0  0  0  0  0  0  0  0  0
  129.9030  126.3290   61.9330 C   0  0  0  0  0  0  0  0  0  0  0  0
  130.6210  126.1930   62.9230 O   0  0  0  0  0  0  0  0  0  0  0  0
  129.3710  127.6470   61.5750 C   0  0  0  0  0  0  0  0  0  0  0  0
  127.9620  128.2960   62.4120 S   0  0  0  0  0  0  0  0  0  0  0  0
  127.9980  129.7520   61.4430 C   0  0  0  0  0  0  0  0  0  0  0  0
  127.0910  130.7160   61.5940 N   0  0  0  0  0  0  0  0  0  0  0  0
  127.2070  131.8040   60.7870 C   0  0  0  0  0  0  0  0  0  0  0  0
  126.1670  132.8640   60.9590 C   0  0  0  0  0  0  0  0  0  0  0  0
  124.8210  132.5310   61.1660 C   0  0  0  0  0  0  0  0  0  0  0  0
  123.8560  133.5230   61.3150 C   0  0  0  0  0  0  0  0  0  0  0  0
  124.2100  134.8690   61.2630 C   0  0  0  0  0  0  0  0  0  0  0  0
  123.1850  135.7840   61.4180 O   0  0  0  0  0  0  0  0  0  0  0  0
  122.6210  136.3950   60.2630 C   0  0  0  0  0  0  0  0  0  0  0  0
  125.5540  135.2130   61.0620 C   0  0  0  0  0  0  0  0  0  0  0  0
  126.5180  134.2190   60.9110 C   0  0  0  0  0  0  0  0  0  0  0  0
  128.2280  131.9260   59.8420 C   0  0  0  0  0  0  0  0  0  0  0  0
  129.1920  130.9230   59.6910 C   0  0  0  0  0  0  0  0  0  0  0  0
  130.2750  131.1180   58.6930 C   0  0  0  0  0  0  0  0  0  0  0  0
  129.9650  131.4930   57.3840 C   0  0  0  0  0  0  0  0  0  0  0  0
  130.9770  131.6970   56.4510 C   0  0  0  0  0  0  0  0  0  0  0  0
  132.3160  131.5350   56.8110 C   0  0  0  0  0  0  0  0  0  0  0  0
  133.2520  131.7580   55.8200 O   0  0  0  0  0  0  0  0  0  0  0  0
  133.8730  133.0350   55.7270 C   0  0  0  0  0  0  0  0  0  0  0  0
  132.6300  131.1650   58.1280 C   0  0  0  0  0  0  0  0  0  0  0  0
  131.6140  130.9640   59.0600 C   0  0  0  0  0  0  0  0  0  0  0  0
  129.0770  129.7650   60.5110 C   0  0  0  0  0  0  0  0  0  0  0  0
  129.8340  128.5400   60.5960 C   0  0  0  0  0  0  0  0  0  0  0  0
  130.9020  128.2760   59.7740 N   0  0  0  0  0  0  0  0  0  0  0  0
  130.3610  123.2630   62.2640 C   0  0  0  0  0  0  0  0  0  0  0  0
  130.6610  121.9060   62.1810 C   0  0  0  0  0  0  0  0  0  0  0  0
  1  2  1  0
  2  3  1  0
  3  4  1  0
  4  5  2  0
  4  6  1  0
  6  7  2  0
  7  8  1  0
  8  9  2  0
  9 10  1  0
 10 11  1  0
 11 12  2  0
 11 13  1  0
 13 14  1  0
 14 15  1  0
 15 16  2  0
 16 17  1  0
 17 18  1  0
 18 19  2  0
 19 20  1  0
 20 21  2  0
 21 22  1  0
 22 23  1  0
 21 24  1  0
 24 25  2  0
 17 26  2  0
 26 27  1  0
 27 28  1  0
 28 29  2  0
 29 30  1  0
 30 31  2  0
 31 32  1  0
 32 33  1  0
 31 34  1  0
 34 35  2  0
 27 36  2  0
 36 37  1  0
 37 38  1  0
  9 39  1  0
 39 40  2  0
 40  6  1  0
 37 13  2  0
 36 15  1  0
 25 18  1  0
 35 28  1  0
M  END
>  <Binding energies>  (36) 
[-5.69]

>  <Ligand effiencies>  (36) 
[-0.13232558139534883]

>  <Interactions>  (36) 
["V-A:ILE:538:CG2:4861, V-A:PRO:540:CD:4885, V-A:PRO:540:N:4882, V-B:TYR:539:CD2:9846, V-A:LEU:475:CD2:4257, V-A:ILE:369:CG2:3235, V-A:TRP:381:CZ2:3368, V-B:ALA:541:CB:9864, V-A:ILE:538:CB:4860, V-A:TRP:381:CH2:3370, V-A:ILE:369:CD1:3237, V-B:TYR:539:CE2:9848, H-A:ASP:366:OD1:3212, V-A:ASP:366:CG:3211, V-B:ILE:369:CD1:8211, H-A:TYR:531:OH:4793, V-A:TYR:539:CD2:4872, V-B:ILE:369:CG2:8209, V-B:LEU:475:CD2:9231, V-A:TYR:539:CE2:4874, H-A:ASP:366:OD2:3213, V-B:TRP:381:CH2:8344, V-A:PRO:540:CA:4881, V-B:TRP:381:CZ2:8342, V-A:GLU:543:CD:4906, V-A:PRO:540:CB:4883, V-A:LEU:363:CD1:3187, H-A:ARG:545:NH2:4926, V-A:TYR:531:CE2:4791, V-A:LEU:363:CB:3185, V-A:PRO:482:CB:4324, V-A:PRO:540:CG:4884, V-A:LEU:363:CG:3186, V-B:TRP:381:CZ3:8343, V-A:ILE:538:CD1:4863, V-B:SER:385:C:8377, V-A:ILE:538:CG1:4862, V-B:SER:385:CB:8381, V-B:SER:385:CA:8379, V-B:VAL:384:C:8369"]

$$$$
8c_Ghoteimi_2023
     RDKit          3D

 34 38  0  0  0  0  0  0  0  0999 V2000
  134.6130  125.0740   66.6120 C   0  0  0  0  0  0  0  0  0  0  0  0
  134.2170  124.4210   65.4120 O   0  0  0  0  0  0  0  0  0  0  0  0
  133.1360  124.9110   64.7030 C   0  0  0  0  0  0  0  0  0  0  0  0
  133.2460  124.9040   63.3140 C   0  0  0  0  0  0  0  0  0  0  0  0
  132.2080  125.3810   62.5200 C   0  0  0  0  0  0  0  0  0  0  0  0
  131.0290  125.8780   63.0960 C   0  0  0  0  0  0  0  0  0  0  0  0
  129.9110  126.3950   62.2480 C   0  0  0  0  0  0  0  0  0  0  0  0
  129.3250  125.6170   61.2450 C   0  0  0  0  0  0  0  0  0  0  0  0
  128.2780  126.1240   60.4680 C   0  0  0  0  0  0  0  0  0  0  0  0
  127.6860  125.2770   59.4080 C   0  0  0  0  0  0  0  0  0  0  0  0
  128.3850  125.0410   58.2220 C   0  0  0  0  0  0  0  0  0  0  0  0
  127.8310  124.2370   57.2310 C   0  0  0  0  0  0  0  0  0  0  0  0
  126.5720  123.6600   57.4060 C   0  0  0  0  0  0  0  0  0  0  0  0
  126.1030  122.8750   56.3710 O   0  0  0  0  0  0  0  0  0  0  0  0
  124.8900  123.2350   55.7200 C   0  0  0  0  0  0  0  0  0  0  0  0
  125.8690  123.9010   58.5970 C   0  0  0  0  0  0  0  0  0  0  0  0
  126.4250  124.7060   59.5880 C   0  0  0  0  0  0  0  0  0  0  0  0
  127.8290  127.4450   60.7330 C   0  0  0  0  0  0  0  0  0  0  0  0
  126.8000  128.2610   60.1450 C   0  0  0  0  0  0  0  0  0  0  0  0
  126.0080  127.8190   59.1150 N   0  0  0  0  0  0  0  0  0  0  0  0
  126.6870  129.5370   60.7220 C   0  0  0  0  0  0  0  0  0  0  0  0
  125.7550  130.6130   60.3790 C   0  0  0  0  0  0  0  0  0  0  0  0
  124.9640  130.4880   59.4410 O   0  0  0  0  0  0  0  0  0  0  0  0
  125.8380  131.7230   61.1550 N   0  0  0  0  0  0  0  0  0  0  0  0
  125.0740  132.8760   61.0450 C   0  0  0  0  0  0  0  0  0  0  0  0
  125.2650  133.8980   60.2390 N   0  0  0  0  0  0  0  0  0  0  0  0
  124.3400  134.8230   60.4020 C   0  0  0  0  0  0  0  0  0  0  0  0
  123.3680  134.5600   61.3620 C   0  0  0  0  0  0  0  0  0  0  0  0
  123.6940  133.0130   62.0860 S   0  0  0  0  0  0  0  0  0  0  0  0
  127.8610  129.7550   62.0200 S   0  0  0  0  0  0  0  0  0  0  0  0
  128.4950  128.1430   61.7810 C   0  0  0  0  0  0  0  0  0  0  0  0
  129.4940  127.6610   62.5210 N   0  0  0  0  0  0  0  0  0  0  0  0
  130.9240  125.8780   64.4940 C   0  0  0  0  0  0  0  0  0  0  0  0
  131.9620  125.4030   65.2910 C   0  0  0  0  0  0  0  0  0  0  0  0
  1  2  1  0
  2  3  1  0
  3  4  2  0
  4  5  1  0
  5  6  2  0
  6  7  1  0
  7  8  2  0
  8  9  1  0
  9 10  1  0
 10 11  2  0
 11 12  1  0
 12 13  2  0
 13 14  1  0
 14 15  1  0
 13 16  1  0
 16 17  2  0
  9 18  2  0
 18 19  1  0
 19 20  1  0
 19 21  2  0
 21 22  1  0
 22 23  2  0
 22 24  1  0
 24 25  1  0
 25 26  2  0
 26 27  1  0
 27 28  2  0
 28 29  1  0
 21 30  1  0
 30 31  1  0
 31 32  2  0
  6 33  1  0
 33 34  2  0
 34  3  1  0
 32  7  1  0
 17 10  1  0
 31 18  1  0
 29 25  1  0
M  END
>  <Binding energies>  (37) 
[-6.52]

>  <Ligand effiencies>  (37) 
[-0.1762162162162162]

>  <Interactions>  (37) 
["V-B:ASP:366:CG:8185, H-B:TYR:531:OH:9767, V-B:PRO:540:CA:9855, H-B:ASP:366:OD2:8187, V-B:PRO:540:N:9856, V-B:ILE:538:CB:9834, V-B:ILE:369:CD1:8211, V-A:TYR:539:CD2:4872, V-B:TYR:531:CE2:9765, V-B:PRO:540:CD:9859, V-B:PRO:540:CB:9857, V-B:ILE:369:CG2:8209, V-B:LEU:475:CD2:9231, V-A:TYR:539:CE2:4874, V-B:ILE:538:CG2:9835, V-B:TRP:381:CH2:8344, V-B:TRP:381:CZ2:8342, V-A:GLU:543:CD:4906, V-B:ILE:538:CA:9832, V-A:HIS:456:CE1:4068, H-A:TYR:484:OH:4346, V-B:TYR:539:C:9839, H-A:GLY:454:N:4048, V-B:GLU:543:CD:9880, V-A:ARG:545:CZ:4924, V-B:ASP:366:CB:8184, V-B:ILE:369:CG1:8210, V-A:ARG:545:CD:4921, V-A:ARG:545:CG:4920, H-B:TYR:539:N:9842, V-B:GLY:454:CA:9021, H-B:ASP:366:OD1:8186, V-A:GLY:453:C:4040, V-B:SER:385:C:8377, V-A:ARG:545:CB:4919, V-A:ILE:455:C:4050, V-B:SER:385:CA:8379, H-A:ILE:455:N:4053"]

$$$$
8d_Ghoteimi_2023
     RDKit          3D

 30 33  0  0  0  0  0  0  0  0999 V2000
  129.5210  131.8400   54.9470 C   0  0  0  0  0  0  0  0  0  0  0  0
  130.5280  132.6230   55.5730 O   0  0  0  0  0  0  0  0  0  0  0  0
  131.3330  132.0890   56.5280 C   0  0  0  0  0  0  0  0  0  0  0  0
  132.5640  132.1540   56.5070 O   0  0  0  0  0  0  0  0  0  0  0  0
  130.5780  131.4140   57.6060 C   0  0  0  0  0  0  0  0  0  0  0  0
  129.2950  132.2780   58.4550 S   0  0  0  0  0  0  0  0  0  0  0  0
  128.9710  130.8860   59.4630 C   0  0  0  0  0  0  0  0  0  0  0  0
  128.0220  130.9000   60.3990 N   0  0  0  0  0  0  0  0  0  0  0  0
  127.8520  129.7630   61.1250 C   0  0  0  0  0  0  0  0  0  0  0  0
  126.7840  129.8070   62.1720 C   0  0  0  0  0  0  0  0  0  0  0  0
  125.5220  130.3540   61.8970 C   0  0  0  0  0  0  0  0  0  0  0  0
  124.5320  130.3930   62.8740 C   0  0  0  0  0  0  0  0  0  0  0  0
  124.7760  129.8890   64.1510 C   0  0  0  0  0  0  0  0  0  0  0  0
  123.7360  129.9690   65.0560 O   0  0  0  0  0  0  0  0  0  0  0  0
  124.0270  129.9790   66.4500 C   0  0  0  0  0  0  0  0  0  0  0  0
  126.0330  129.3380   64.4360 C   0  0  0  0  0  0  0  0  0  0  0  0
  127.0210  129.3000   63.4550 C   0  0  0  0  0  0  0  0  0  0  0  0
  128.6330  128.6220   60.9190 C   0  0  0  0  0  0  0  0  0  0  0  0
  129.6260  128.6060   59.9360 C   0  0  0  0  0  0  0  0  0  0  0  0
  130.4320  127.3790   59.7360 C   0  0  0  0  0  0  0  0  0  0  0  0
  130.4150  126.7210   58.5040 C   0  0  0  0  0  0  0  0  0  0  0  0
  131.1650  125.5630   58.3190 C   0  0  0  0  0  0  0  0  0  0  0  0
  131.9440  125.0490   59.3570 C   0  0  0  0  0  0  0  0  0  0  0  0
  132.6530  123.8960   59.0820 O   0  0  0  0  0  0  0  0  0  0  0  0
  133.9690  124.0000   58.5500 C   0  0  0  0  0  0  0  0  0  0  0  0
  131.9620  125.7150   60.5930 C   0  0  0  0  0  0  0  0  0  0  0  0
  131.2110  126.8730   60.7770 C   0  0  0  0  0  0  0  0  0  0  0  0
  129.8190  129.7820   59.1630 C   0  0  0  0  0  0  0  0  0  0  0  0
  130.7270  130.1130   58.0990 C   0  0  0  0  0  0  0  0  0  0  0  0
  131.6580  129.2260   57.6200 N   0  0  0  0  0  0  0  0  0  0  0  0
  1  2  1  0
  2  3  1  0
  3  4  2  0
  3  5  1  0
  5  6  1  0
  6  7  1  0
  7  8  2  0
  8  9  1  0
  9 10  1  0
 10 11  2  0
 11 12  1  0
 12 13  2  0
 13 14  1  0
 14 15  1  0
 13 16  1  0
 16 17  2  0
  9 18  2  0
 18 19  1  0
 19 20  1  0
 20 21  2  0
 21 22  1  0
 22 23  2  0
 23 24  1  0
 24 25  1  0
 23 26  1  0
 26 27  2  0
 19 28  2  0
 28 29  1  0
 29 30  1  0
 29  5  2  0
 28  7  1  0
 17 10  1  0
 27 20  1  0
M  END
>  <Binding energies>  (38) 
[-7.07]

>  <Ligand effiencies>  (38) 
[-0.2209375]

>  <Interactions>  (38) 
["V-A:PRO:540:CD:4885, V-A:PRO:540:N:4882, V-A:ILE:369:CG2:3235, V-A:ILE:538:CA:4858, V-A:TYR:531:CZ:4792, V-A:ILE:369:CD1:3237, V-B:TYR:539:CE2:9848, V-A:ASP:366:CG:3211, H-A:TYR:531:OH:4793, V-A:TYR:539:CD2:4872, V-A:ASP:366:CB:3210, H-A:ASP:366:OD2:3213, V-A:PRO:540:CA:4881, V-A:GLU:543:CD:4906, V-B:ARG:545:CZ:9898, H-B:ARG:545:NE:9896, H-B:GLY:454:N:9022, V-A:TYR:539:C:4865, V-A:TYR:539:CE1:4873, H-B:TYR:484:OH:9320, V-A:TYR:539:CD1:4871, V-B:HIS:456:CE1:9042, V-A:ILE:369:CB:3234, H-A:TYR:539:N:4868, V-B:ARG:545:CG:9894, V-B:ARG:545:CD:9895, V-B:TYR:484:CZ:9319, V-A:ASP:366:CA:3208, V-B:GLY:454:CA:9021, H-B:ARG:545:NH1:9899"]

$$$$
9a_Ghoteimi_2023
     RDKit          3D

 48 54  0  0  0  0  0  0  0  0999 V2000
  126.4230  130.5940   57.2600 C   0  0  0  0  0  0  0  0  0  0  0  0
  125.3290  129.7900   56.5500 C   0  0  0  0  0  0  0  0  0  0  0  0
  124.0960  129.9560   57.2390 O   0  0  0  0  0  0  0  0  0  0  0  0
  123.9480  130.9130   58.1900 C   0  0  0  0  0  0  0  0  0  0  0  0
  123.3280  131.9650   58.0060 O   0  0  0  0  0  0  0  0  0  0  0  0
  124.6210  130.5690   59.4880 C   0  0  0  0  0  0  0  0  0  0  0  0
  125.2850  129.3420   59.6120 C   0  0  0  0  0  0  0  0  0  0  0  0
  125.9160  128.9940   60.8020 C   0  0  0  0  0  0  0  0  0  0  0  0
  125.8990  129.8630   61.8930 C   0  0  0  0  0  0  0  0  0  0  0  0
  126.5690  129.4070   63.0440 N   0  0  0  0  0  0  0  0  0  0  0  0
  126.8330  130.0370   64.2160 C   0  0  0  0  0  0  0  0  0  0  0  0
  126.4980  131.1950   64.4690 O   0  0  0  0  0  0  0  0  0  0  0  0
  127.5590  129.2380   65.2070 C   0  0  0  0  0  0  0  0  0  0  0  0
  127.4460  129.6310   66.9230 S   0  0  0  0  0  0  0  0  0  0  0  0
  128.4990  128.3010   67.3440 C   0  0  0  0  0  0  0  0  0  0  0  0
  128.8130  128.0320   68.6100 N   0  0  0  0  0  0  0  0  0  0  0  0
  129.6300  126.9680   68.8310 C   0  0  0  0  0  0  0  0  0  0  0  0
  129.9590  126.6780   70.2590 C   0  0  0  0  0  0  0  0  0  0  0  0
  131.2900  126.6570   70.6920 C   0  0  0  0  0  0  0  0  0  0  0  0
  131.6050  126.3890   72.0220 C   0  0  0  0  0  0  0  0  0  0  0  0
  130.6010  126.1440   72.9710 C   0  0  0  0  0  0  0  0  0  0  0  0
  130.9030  125.8540   74.3050 N   0  0  0  0  0  0  0  0  0  0  0  0
  131.5790  124.5980   74.6890 C   0  0  0  0  0  0  0  0  0  0  0  0
  131.5040  124.2860   76.1980 C   0  0  0  0  0  0  0  0  0  0  0  0
  132.0050  125.3820   76.9460 O   0  0  0  0  0  0  0  0  0  0  0  0
  131.2530  126.5610   76.7070 C   0  0  0  0  0  0  0  0  0  0  0  0
  131.3270  126.9400   75.2140 C   0  0  0  0  0  0  0  0  0  0  0  0
  129.2700  126.1510   72.5280 C   0  0  0  0  0  0  0  0  0  0  0  0
  128.9550  126.4170   71.1990 C   0  0  0  0  0  0  0  0  0  0  0  0
  130.1510  126.1990   67.7880 C   0  0  0  0  0  0  0  0  0  0  0  0
  129.8400  126.4910   66.4550 C   0  0  0  0  0  0  0  0  0  0  0  0
  130.4490  125.6640   65.3820 C   0  0  0  0  0  0  0  0  0  0  0  0
  131.1860  126.2600   64.3560 C   0  0  0  0  0  0  0  0  0  0  0  0
  131.7680  125.4820   63.3600 C   0  0  0  0  0  0  0  0  0  0  0  0
  131.6440  124.0830   63.3730 C   0  0  0  0  0  0  0  0  0  0  0  0
  132.2100  123.2820   62.3780 N   0  0  0  0  0  0  0  0  0  0  0  0
  131.3270  122.6330   61.3880 C   0  0  0  0  0  0  0  0  0  0  0  0
  132.0820  122.1070   60.1490 C   0  0  0  0  0  0  0  0  0  0  0  0
  133.1250  121.2320   60.5490 O   0  0  0  0  0  0  0  0  0  0  0  0
  134.0640  121.8840   61.3880 C   0  0  0  0  0  0  0  0  0  0  0  0
  133.3630  122.4040   62.6610 C   0  0  0  0  0  0  0  0  0  0  0  0
  130.9050  123.4950   64.4090 C   0  0  0  0  0  0  0  0  0  0  0  0
  130.3190  124.2740   65.4030 C   0  0  0  0  0  0  0  0  0  0  0  0
  128.9560  127.5790   66.2030 C   0  0  0  0  0  0  0  0  0  0  0  0
  128.3830  128.1220   64.9960 C   0  0  0  0  0  0  0  0  0  0  0  0
  128.6180  127.5790   63.7580 N   0  0  0  0  0  0  0  0  0  0  0  0
  125.2390  131.0970   61.7780 C   0  0  0  0  0  0  0  0  0  0  0  0
  124.6070  131.4430   60.5860 C   0  0  0  0  0  0  0  0  0  0  0  0
  1  2  1  0
  2  3  1  0
  3  4  1  0
  4  5  2  0
  4  6  1  0
  6  7  2  0
  7  8  1  0
  8  9  2  0
  9 10  1  0
 10 11  1  0
 11 12  2  0
 11 13  1  0
 13 14  1  0
 14 15  1  0
 15 16  2  0
 16 17  1  0
 17 18  1  0
 18 19  2  0
 19 20  1  0
 20 21  2  0
 21 22  1  0
 22 23  1  0
 23 24  1  0
 24 25  1  0
 25 26  1  0
 26 27  1  0
 21 28  1  0
 28 29  2  0
 17 30  2  0
 30 31  1  0
 31 32  1  0
 32 33  2  0
 33 34  1  0
 34 35  2  0
 35 36  1  0
 36 37  1  0
 37 38  1  0
 38 39  1  0
 39 40  1  0
 40 41  1  0
 35 42  1  0
 42 43  2  0
 31 44  2  0
 44 45  1  0
 45 46  1  0
  9 47  1  0
 47 48  2  0
 48  6  1  0
 45 13  2  0
 44 15  1  0
 29 18  1  0
 43 32  1  0
 27 22  1  0
 41 36  1  0
M  END
>  <Binding energies>  (39) 
[1.15]

>  <Ligand effiencies>  (39) 
[0.022549019607843137]

>  <Interactions>  (39) 
["V-B:ASP:366:CG:8185, V-B:TYR:539:CD2:9846, H-B:TYR:531:OH:9767, V-A:LEU:475:CD2:4257, V-A:ILE:369:CG2:3235, V-A:ILE:369:CD1:3237, V-B:TYR:539:CE2:9848, V-A:TYR:539:CE2:4874, V-A:TYR:539:CZ:4875, H-B:GLU:543:OE2:9882, H-B:GLU:543:OE1:9881, H-A:GLU:543:OE2:4908, V-A:GLU:543:CD:4906, V-A:HIS:456:CE1:4068, H-A:GLU:543:OE1:4907, V-B:GLU:543:CD:9880, V-A:ARG:545:CZ:4924, V-B:GLU:543:CB:9878, V-B:GLU:543:CG:9879, V-A:GLU:543:CG:4905, H-B:TYR:484:OH:9320, V-A:GLU:543:CB:4904, V-B:HIS:456:CE1:9042, V-B:ASP:366:CB:8184, H-A:TYR:539:OH:4876, V-B:ASP:366:CA:8182, V-B:GLY:544:C:9884, V-A:LYS:547:CE:4948, V-A:GLY:544:C:4910, V-B:LYS:547:CE:9922, V-A:HIS:456:CD2:4066, V-B:GLU:543:C:9874, V-A:HIS:456:CG:4064, V-B:GLY:544:CA:9886, V-B:TYR:531:CE1:9764, V-A:GLY:454:CA:4047, V-A:TYR:484:CZ:4345, V-B:TYR:484:CZ:9319, V-A:LYS:471:CD:4217, V-A:HIS:456:CB:4063, V-A:LYS:471:CE:4218, V-A:LYS:547:CD:4947, V-A:TYR:484:CE1:4343, V-A:ARG:545:CA:4917"]

$$$$
9b_Ghoteimi_2023
     RDKit          3D

 42 48  0  0  0  0  0  0  0  0999 V2000
  128.4610  128.1950   63.3480 N   0  0  0  0  0  0  0  0  0  0  0  0
  128.0450  128.5120   64.6160 C   0  0  0  0  0  0  0  0  0  0  0  0
  127.0420  129.4560   64.8880 C   0  0  0  0  0  0  0  0  0  0  0  0
  126.2490  130.2440   63.9410 C   0  0  0  0  0  0  0  0  0  0  0  0
  125.0250  130.1080   63.8790 O   0  0  0  0  0  0  0  0  0  0  0  0
  126.9550  131.1030   63.1630 N   0  0  0  0  0  0  0  0  0  0  0  0
  126.4640  131.9550   62.1820 C   0  0  0  0  0  0  0  0  0  0  0  0
  125.2780  132.6740   62.3230 C   0  0  0  0  0  0  0  0  0  0  0  0
  125.1520  133.3880   61.1530 C   0  0  0  0  0  0  0  0  0  0  0  0
  126.2070  133.1120   60.3500 O   0  0  0  0  0  0  0  0  0  0  0  0
  127.0320  132.2030   61.0130 N   0  0  0  0  0  0  0  0  0  0  0  0
  126.7870  129.6330   66.6230 S   0  0  0  0  0  0  0  0  0  0  0  0
  128.0330  128.4590   66.9730 C   0  0  0  0  0  0  0  0  0  0  0  0
  128.3650  128.1450   68.2240 N   0  0  0  0  0  0  0  0  0  0  0  0
  129.3600  127.2330   68.3870 C   0  0  0  0  0  0  0  0  0  0  0  0
  129.7270  126.9140   69.8000 C   0  0  0  0  0  0  0  0  0  0  0  0
  131.0640  126.9030   70.2160 C   0  0  0  0  0  0  0  0  0  0  0  0
  131.4000  126.5910   71.5300 C   0  0  0  0  0  0  0  0  0  0  0  0
  130.4140  126.2640   72.4730 C   0  0  0  0  0  0  0  0  0  0  0  0
  130.7370  125.9510   73.7980 N   0  0  0  0  0  0  0  0  0  0  0  0
  131.2710  126.9720   74.7210 C   0  0  0  0  0  0  0  0  0  0  0  0
  131.2410  126.5480   76.2040 C   0  0  0  0  0  0  0  0  0  0  0  0
  131.9160  125.3130   76.3690 O   0  0  0  0  0  0  0  0  0  0  0  0
  131.3040  124.2800   75.6140 C   0  0  0  0  0  0  0  0  0  0  0  0
  131.3310  124.6340   74.1110 C   0  0  0  0  0  0  0  0  0  0  0  0
  129.0760  126.2960   72.0560 C   0  0  0  0  0  0  0  0  0  0  0  0
  128.7380  126.6130   70.7430 C   0  0  0  0  0  0  0  0  0  0  0  0
  129.9970  126.6220   67.3050 C   0  0  0  0  0  0  0  0  0  0  0  0
  129.6370  126.9340   65.9890 C   0  0  0  0  0  0  0  0  0  0  0  0
  130.3250  126.2350   64.8740 C   0  0  0  0  0  0  0  0  0  0  0  0
  129.8090  126.2960   63.5790 C   0  0  0  0  0  0  0  0  0  0  0  0
  130.4610  125.6580   62.5290 C   0  0  0  0  0  0  0  0  0  0  0  0
  131.6480  124.9390   62.7450 C   0  0  0  0  0  0  0  0  0  0  0  0
  132.3270  124.3040   61.7030 N   0  0  0  0  0  0  0  0  0  0  0  0
  132.5530  122.8470   61.7700 C   0  0  0  0  0  0  0  0  0  0  0  0
  133.6360  122.3530   60.7860 C   0  0  0  0  0  0  0  0  0  0  0  0
  133.3060  122.7490   59.4630 O   0  0  0  0  0  0  0  0  0  0  0  0
  133.2140  124.1610   59.3450 C   0  0  0  0  0  0  0  0  0  0  0  0
  132.1250  124.7020   60.2950 C   0  0  0  0  0  0  0  0  0  0  0  0
  132.1660  124.9000   64.0480 C   0  0  0  0  0  0  0  0  0  0  0  0
  131.5140  125.5390   65.0980 C   0  0  0  0  0  0  0  0  0  0  0  0
  128.6220  127.9120   65.7940 C   0  0  0  0  0  0  0  0  0  0  0  0
  1  2  1  0
  2  3  2  0
  3  4  1  0
  4  5  2  0
  4  6  1  0
  6  7  1  0
  7  8  1  0
  8  9  2  0
  9 10  1  0
 10 11  1  0
  3 12  1  0
 12 13  1  0
 13 14  2  0
 14 15  1  0
 15 16  1  0
 16 17  2  0
 17 18  1  0
 18 19  2  0
 19 20  1  0
 20 21  1  0
 21 22  1  0
 22 23  1  0
 23 24  1  0
 24 25  1  0
 19 26  1  0
 26 27  2  0
 15 28  2  0
 28 29  1  0
 29 30  1  0
 30 31  2  0
 31 32  1  0
 32 33  2  0
 33 34  1  0
 34 35  1  0
 35 36  1  0
 36 37  1  0
 37 38  1  0
 38 39  1  0
 33 40  1  0
 40 41  2  0
 29 42  2  0
 42  2  1  0
 11  7  2  0
 42 13  1  0
 27 16  1  0
 41 30  1  0
 25 20  1  0
 39 34  1  0
M  END
>  <Binding energies>  (40) 
[-1.85]

>  <Ligand effiencies>  (40) 
[-0.04111111111111111]

>  <Interactions>  (40) 
["V-A:ILE:369:CG2:3235, V-A:ILE:369:CD1:3237, V-A:ASP:366:CG:3211, V-A:ASP:366:CB:3210, V-B:LEU:475:CD2:9231, V-A:TYR:539:CE2:4874, H-B:GLU:543:OE2:9882, H-B:GLU:543:OE1:9881, H-A:GLU:543:OE2:4908, V-A:GLU:543:CD:4906, H-B:ARG:545:NH2:9900, V-A:HIS:456:CE1:4068, H-A:GLU:543:OE1:4907, V-B:GLU:543:CD:9880, V-A:ARG:545:CZ:4924, V-B:GLU:543:CB:9878, V-B:GLU:543:CG:9879, V-A:GLU:543:CG:4905, H-B:TYR:484:OH:9320, V-A:GLU:543:CB:4904, V-B:HIS:456:CE1:9042, V-B:GLY:544:C:9884, V-A:LYS:547:CE:4948, V-A:GLY:544:C:4910, V-B:LYS:547:CE:9922, V-A:HIS:456:CD2:4066, V-B:GLU:543:C:9874, V-A:HIS:456:CG:4064, H-B:LYS:547:NZ:9923, V-B:GLY:544:CA:9886, V-B:TYR:484:CZ:9319, V-A:HIS:456:CB:4063, V-A:LYS:471:CE:4218, V-A:LYS:547:CD:4947, V-A:ARG:545:CA:4917"]

$$$$
9c_Ghoteimi_2023
     RDKit          3D

 42 48  0  0  0  0  0  0  0  0999 V2000
  128.4360  128.1780   63.3480 N   0  0  0  0  0  0  0  0  0  0  0  0
  128.0160  128.4940   64.6150 C   0  0  0  0  0  0  0  0  0  0  0  0
  127.0040  129.4280   64.8840 C   0  0  0  0  0  0  0  0  0  0  0  0
  126.2060  130.2090   63.9340 C   0  0  0  0  0  0  0  0  0  0  0  0
  125.0410  129.8960   63.6830 O   0  0  0  0  0  0  0  0  0  0  0  0
  126.8410  131.2660   63.3710 N   0  0  0  0  0  0  0  0  0  0  0  0
  126.3220  132.1510   62.4370 C   0  0  0  0  0  0  0  0  0  0  0  0
  125.0640  132.4920   62.2590 N   0  0  0  0  0  0  0  0  0  0  0  0
  124.9320  133.3580   61.2720 C   0  0  0  0  0  0  0  0  0  0  0  0
  126.1040  133.7370   60.6250 C   0  0  0  0  0  0  0  0  0  0  0  0
  127.4470  132.9100   61.3560 S   0  0  0  0  0  0  0  0  0  0  0  0
  126.7450  129.6070   66.6190 S   0  0  0  0  0  0  0  0  0  0  0  0
  128.0030  128.4470   66.9720 C   0  0  0  0  0  0  0  0  0  0  0  0
  128.3360  128.1370   68.2250 N   0  0  0  0  0  0  0  0  0  0  0  0
  129.3400  127.2370   68.3910 C   0  0  0  0  0  0  0  0  0  0  0  0
  129.7070  126.9240   69.8050 C   0  0  0  0  0  0  0  0  0  0  0  0
  131.0420  126.9400   70.2280 C   0  0  0  0  0  0  0  0  0  0  0  0
  131.3800  126.6390   71.5430 C   0  0  0  0  0  0  0  0  0  0  0  0
  130.3950  126.2980   72.4840 C   0  0  0  0  0  0  0  0  0  0  0  0
  130.7180  126.0000   73.8130 N   0  0  0  0  0  0  0  0  0  0  0  0
  131.2690  127.0280   74.7200 C   0  0  0  0  0  0  0  0  0  0  0  0
  131.2340  126.6280   76.2100 C   0  0  0  0  0  0  0  0  0  0  0  0
  131.8930  125.3850   76.3930 O   0  0  0  0  0  0  0  0  0  0  0  0
  131.2630  124.3510   75.6540 C   0  0  0  0  0  0  0  0  0  0  0  0
  131.2930  124.6800   74.1460 C   0  0  0  0  0  0  0  0  0  0  0  0
  129.0580  126.3030   72.0610 C   0  0  0  0  0  0  0  0  0  0  0  0
  128.7210  126.6080   70.7450 C   0  0  0  0  0  0  0  0  0  0  0  0
  129.9850  126.6290   67.3110 C   0  0  0  0  0  0  0  0  0  0  0  0
  129.6230  126.9350   65.9940 C   0  0  0  0  0  0  0  0  0  0  0  0
  130.3160  126.2400   64.8810 C   0  0  0  0  0  0  0  0  0  0  0  0
  131.5030  125.5440   65.1160 C   0  0  0  0  0  0  0  0  0  0  0  0
  132.1480  124.8760   64.0780 C   0  0  0  0  0  0  0  0  0  0  0  0
  131.6230  124.8890   62.7760 C   0  0  0  0  0  0  0  0  0  0  0  0
  132.2470  124.2160   61.7210 N   0  0  0  0  0  0  0  0  0  0  0  0
  132.3130  122.7410   61.7470 C   0  0  0  0  0  0  0  0  0  0  0  0
  133.3450  122.1620   60.7560 C   0  0  0  0  0  0  0  0  0  0  0  0
  133.0740  122.6300   59.4430 O   0  0  0  0  0  0  0  0  0  0  0  0
  133.1400  124.0450   59.3670 C   0  0  0  0  0  0  0  0  0  0  0  0
  132.1060  124.6750   60.3260 C   0  0  0  0  0  0  0  0  0  0  0  0
  130.4180  125.5740   62.5570 C   0  0  0  0  0  0  0  0  0  0  0  0
  129.7740  126.2420   63.5950 C   0  0  0  0  0  0  0  0  0  0  0  0
  128.5980  127.9030   65.7950 C   0  0  0  0  0  0  0  0  0  0  0  0
  1  2  1  0
  2  3  2  0
  3  4  1  0
  4  5  2  0
  4  6  1  0
  6  7  1  0
  7  8  2  0
  8  9  1  0
  9 10  2  0
 10 11  1  0
  3 12  1  0
 12 13  1  0
 13 14  2  0
 14 15  1  0
 15 16  1  0
 16 17  2  0
 17 18  1  0
 18 19  2  0
 19 20  1  0
 20 21  1  0
 21 22  1  0
 22 23  1  0
 23 24  1  0
 24 25  1  0
 19 26  1  0
 26 27  2  0
 15 28  2  0
 28 29  1  0
 29 30  1  0
 30 31  2  0
 31 32  1  0
 32 33  2  0
 33 34  1  0
 34 35  1  0
 35 36  1  0
 36 37  1  0
 37 38  1  0
 38 39  1  0
 33 40  1  0
 40 41  2  0
 29 42  2  0
 42  2  1  0
 11  7  1  0
 42 13  1  0
 27 16  1  0
 41 30  1  0
 25 20  1  0
 39 34  1  0
M  END
>  <Binding energies>  (41) 
[-1.93]

>  <Ligand effiencies>  (41) 
[-0.042888888888888886]

>  <Interactions>  (41) 
["V-A:LEU:475:CD2:4257, V-A:ILE:369:CG2:3235, V-A:ILE:369:CD1:3237, V-A:ASP:366:CG:3211, V-A:TYR:539:CD2:4872, V-B:LEU:475:CD2:9231, V-A:TYR:539:CE2:4874, H-B:GLU:543:OE2:9882, H-B:GLU:543:OE1:9881, H-A:GLU:543:OE2:4908, V-A:ALA:541:CB:4890, V-A:GLU:543:CD:4906, H-B:ARG:545:NH2:9900, V-A:HIS:456:CE1:4068, H-A:GLU:543:OE1:4907, V-B:GLU:543:CD:9880, V-A:ARG:545:CZ:4924, V-B:GLU:543:CB:9878, V-B:GLU:543:CG:9879, H-B:ARG:545:NE:9896, V-A:GLU:543:CG:4905, V-A:GLU:543:CB:4904, V-B:HIS:456:CE1:9042, V-B:GLY:544:C:9884, V-A:LYS:547:CE:4948, V-A:GLY:544:C:4910, V-B:LYS:547:CE:9922, V-A:HIS:456:CD2:4066, V-B:GLU:543:C:9874, V-A:HIS:456:CG:4064, H-B:LYS:547:NZ:9923, V-B:GLY:544:CA:9886, V-B:TYR:484:CZ:9319, V-A:HIS:456:CB:4063, V-A:LYS:471:CE:4218, V-A:LYS:547:CD:4947, V-A:ARG:545:CA:4917"]

$$$$
RR11_Rahimova_2017
     RDKit          3D

 33 38  0  0  0  0  0  0  0  0999 V2000
  133.5160  132.2540   55.5250 N   0  0  0  0  0  0  0  0  0  0  0  0
  132.3320  132.0210   56.2230 C   0  0  0  0  0  0  0  0  0  0  0  0
  131.1050  132.2160   55.5920 C   0  0  0  0  0  0  0  0  0  0  0  0
  129.9240  131.9810   56.2900 C   0  0  0  0  0  0  0  0  0  0  0  0
  129.9570  131.5480   57.6220 C   0  0  0  0  0  0  0  0  0  0  0  0
  128.6830  131.2890   58.3700 C   0  0  0  0  0  0  0  0  0  0  0  0
  128.6130  131.0700   59.6650 N   0  0  0  0  0  0  0  0  0  0  0  0
  127.2800  130.8970   59.9310 C   0  0  0  0  0  0  0  0  0  0  0  0
  126.6470  130.6420   61.1550 C   0  0  0  0  0  0  0  0  0  0  0  0
  125.2520  130.5220   61.1720 C   0  0  0  0  0  0  0  0  0  0  0  0
  124.5370  130.2390   62.4860 C   0  0  0  0  0  0  0  0  0  0  0  0
  125.4830  130.1930   63.6780 C   0  0  0  0  0  0  0  0  0  0  0  0
  126.2520  131.3200   63.9910 C   0  0  0  0  0  0  0  0  0  0  0  0
  127.1270  131.3300   65.0790 C   0  0  0  0  0  0  0  0  0  0  0  0
  127.2150  130.1750   65.8660 C   0  0  0  0  0  0  0  0  0  0  0  0
  127.9920  129.9320   66.9680 N   0  0  0  0  0  0  0  0  0  0  0  0
  127.7070  128.7000   67.3310 C   0  0  0  0  0  0  0  0  0  0  0  0
  128.3360  127.9890   68.4940 C   0  0  0  0  0  0  0  0  0  0  0  0
  127.5720  127.6520   69.6190 C   0  0  0  0  0  0  0  0  0  0  0  0
  128.1580  127.0030   70.7030 C   0  0  0  0  0  0  0  0  0  0  0  0
  129.5140  126.6850   70.6690 C   0  0  0  0  0  0  0  0  0  0  0  0
  130.1030  126.0390   71.7550 N   0  0  0  0  0  0  0  0  0  0  0  0
  130.2850  127.0100   69.5550 C   0  0  0  0  0  0  0  0  0  0  0  0
  129.6980  127.6590   68.4730 C   0  0  0  0  0  0  0  0  0  0  0  0
  126.7620  128.1260   66.5070 N   0  0  0  0  0  0  0  0  0  0  0  0
  126.4210  129.0470   65.5460 C   0  0  0  0  0  0  0  0  0  0  0  0
  125.5400  129.0330   64.4610 C   0  0  0  0  0  0  0  0  0  0  0  0
  124.5140  130.6270   59.9880 C   0  0  0  0  0  0  0  0  0  0  0  0
  125.1150  130.8750   58.7510 C   0  0  0  0  0  0  0  0  0  0  0  0
  126.5060  131.0100   58.7520 C   0  0  0  0  0  0  0  0  0  0  0  0
  127.4390  131.2580   57.7730 N   0  0  0  0  0  0  0  0  0  0  0  0
  131.1980  131.3570   58.2440 C   0  0  0  0  0  0  0  0  0  0  0  0
  132.3820  131.5910   57.5480 C   0  0  0  0  0  0  0  0  0  0  0  0
  1  2  1  0
  2  3  2  0
  3  4  1  0
  4  5  2  0
  5  6  1  0
  6  7  2  0
  7  8  1  0
  8  9  2  0
  9 10  1  0
 10 11  1  0
 11 12  1  0
 12 13  2  0
 13 14  1  0
 14 15  2  0
 15 16  1  0
 16 17  2  0
 17 18  1  0
 18 19  2  0
 19 20  1  0
 20 21  2  0
 21 22  1  0
 21 23  1  0
 23 24  2  0
 17 25  1  0
 25 26  1  0
 26 27  2  0
 10 28  2  0
 28 29  1  0
 29 30  2  0
 30 31  1  0
  5 32  1  0
 32 33  2  0
 33  2  1  0
 31  6  1  0
 30  8  1  0
 27 12  1  0
 26 15  1  0
 24 18  1  0
M  END
>  <Binding energies>  (42) 
[-6.63]

>  <Ligand effiencies>  (42) 
[-0.16999999999999998]

>  <Interactions>  (42) 
["V-A:ILE:538:CG2:4861, V-A:PRO:540:CD:4885, V-B:ASP:366:CG:8185, V-A:PRO:540:N:4882, V-A:ILE:538:CB:4860, V-A:ILE:538:CA:4858, V-A:TYR:531:CZ:4792, H-A:TYR:531:OH:4793, V-A:TYR:539:CD2:4872, V-A:TYR:539:CE2:4874, V-A:TYR:539:CZ:4875, H-B:GLU:543:OE2:9882, V-A:PRO:540:CA:4881, V-A:GLU:543:CD:4906, V-A:HIS:456:CE1:4068, V-B:GLU:543:CD:9880, V-B:ARG:545:CZ:9898, V-B:GLU:543:CG:9879, V-A:GLU:543:CG:4905, V-A:PRO:540:CB:4883, V-A:LEU:363:CD1:3187, V-A:TYR:539:C:4865, H-B:TYR:484:OH:9320, V-A:GLU:543:CB:4904, V-A:TYR:531:CE2:4791, V-B:HIS:456:CE1:9042, V-B:ASP:366:CB:8184, H-A:TYR:539:OH:4876, V-B:GLY:544:C:9884, V-A:GLY:544:C:4910, H-A:HIS:456:NE2:4069, V-A:GLU:543:C:4900, V-A:HIS:456:CD2:4066, V-B:HIS:456:CD2:9040, V-B:GLU:543:C:9874, V-A:HIS:456:CG:4064, H-B:GLU:543:O:9875, V-B:GLY:544:CA:9886, H-A:GLY:544:O:4911, V-B:ARG:545:CG:9894, V-B:ARG:545:CD:9895, V-B:TYR:484:CZ:9319, V-A:ILE:538:C:4856, V-B:TYR:484:CE1:9317, V-A:ILE:538:CD1:4863"]

$$$$
RR16_Rahimova_2017
     RDKit          3D

 44 49  0  0  0  0  0  0  0  0999 V2000
  124.7590  132.2000   62.3580 O   0  0  0  0  0  0  0  0  0  0  0  0
  124.2700  131.1880   61.4140 S   0  0  0  0  0  0  0  0  0  0  0  0
  122.8860  131.2200   60.9260 O   0  0  0  0  0  0  0  0  0  0  0  0
  124.5600  129.6040   62.1360 N   0  0  0  0  0  0  0  0  0  0  0  0
  125.1540  129.4810   63.4880 C   0  0  0  0  0  0  0  0  0  0  0  0
  126.5360  130.1860   63.5030 C   0  0  0  0  0  0  0  0  0  0  0  0
  126.9720  130.8600   64.8180 C   0  0  0  0  0  0  0  0  0  0  0  0
  127.0640  129.8970   66.0140 C   0  0  0  0  0  0  0  0  0  0  0  0
  125.8300  129.0060   66.2570 C   0  0  0  0  0  0  0  0  0  0  0  0
  124.4440  129.6250   65.9860 C   0  0  0  0  0  0  0  0  0  0  0  0
  124.1280  129.9960   64.5240 C   0  0  0  0  0  0  0  0  0  0  0  0
  125.3560  131.2350   59.9940 C   0  0  0  0  0  0  0  0  0  0  0  0
  124.9140  130.7710   58.7530 C   0  0  0  0  0  0  0  0  0  0  0  0
  125.8060  130.7000   57.6860 C   0  0  0  0  0  0  0  0  0  0  0  0
  127.1340  131.0930   57.8650 C   0  0  0  0  0  0  0  0  0  0  0  0
  128.3160  130.8700   56.5380 S   0  0  0  0  0  0  0  0  0  0  0  0
  129.2860  131.9690   56.6240 O   0  0  0  0  0  0  0  0  0  0  0  0
  127.5540  130.6490   55.3020 O   0  0  0  0  0  0  0  0  0  0  0  0
  129.1500  129.3590   56.9490 N   0  0  0  0  0  0  0  0  0  0  0  0
  128.8510  128.2230   56.0390 C   0  0  0  0  0  0  0  0  0  0  0  0
  129.3590  126.8980   56.6430 C   0  0  0  0  0  0  0  0  0  0  0  0
  130.8550  126.9820   57.0350 C   0  0  0  0  0  0  0  0  0  0  0  0
  131.3670  125.6910   57.6800 C   0  0  0  0  0  0  0  0  0  0  0  0
  132.6620  125.2360   57.3940 C   0  0  0  0  0  0  0  0  0  0  0  0
  133.1720  124.0700   57.9660 C   0  0  0  0  0  0  0  0  0  0  0  0
  134.4430  123.6430   57.6770 O   0  0  0  0  0  0  0  0  0  0  0  0
  132.3520  123.3510   58.8480 C   0  0  0  0  0  0  0  0  0  0  0  0
  132.5820  122.2080   59.5570 N   0  0  0  0  0  0  0  0  0  0  0  0
  131.4510  121.9430   60.2980 N   0  0  0  0  0  0  0  0  0  0  0  0
  130.5280  122.8830   60.0140 N   0  0  0  0  0  0  0  0  0  0  0  0
  129.2560  122.8980   60.7240 C   0  0  0  0  0  0  0  0  0  0  0  0
  128.0830  123.2490   59.8200 C   0  0  0  0  0  0  0  0  0  0  0  0
  126.9110  123.7840   60.3670 C   0  0  0  0  0  0  0  0  0  0  0  0
  125.8430  124.1280   59.5380 C   0  0  0  0  0  0  0  0  0  0  0  0
  125.9400  123.9400   58.1590 C   0  0  0  0  0  0  0  0  0  0  0  0
  127.1060  123.4090   57.6070 C   0  0  0  0  0  0  0  0  0  0  0  0
  127.2340  123.1850   55.9010 Cl  0  0  0  0  0  0  0  0  0  0  0  0
  128.1740  123.0610   58.4370 C   0  0  0  0  0  0  0  0  0  0  0  0
  131.0430  123.8120   59.1250 C   0  0  0  0  0  0  0  0  0  0  0  0
  130.5290  124.9790   58.5500 C   0  0  0  0  0  0  0  0  0  0  0  0
  131.1730  128.2430   57.8800 C   0  0  0  0  0  0  0  0  0  0  0  0
  130.5980  129.5230   57.2420 C   0  0  0  0  0  0  0  0  0  0  0  0
  127.5630  131.5960   59.0950 C   0  0  0  0  0  0  0  0  0  0  0  0
  126.6730  131.6640   60.1620 C   0  0  0  0  0  0  0  0  0  0  0  0
  1  2  2  0
  2  3  2  0
  2  4  1  0
  4  5  1  0
  5  6  1  0
  6  7  1  0
  7  8  1  0
  8  9  1  0
  9 10  1  0
 10 11  1  0
  2 12  1  0
 12 13  2  0
 13 14  1  0
 14 15  2  0
 15 16  1  0
 16 17  2  0
 16 18  2  0
 16 19  1  0
 19 20  1  0
 20 21  1  0
 21 22  1  0
 22 23  1  0
 23 24  2  0
 24 25  1  0
 25 26  1  0
 25 27  2  0
 27 28  1  0
 28 29  2  0
 29 30  1  0
 30 31  1  0
 31 32  1  0
 32 33  2  0
 33 34  1  0
 34 35  2  0
 35 36  1  0
 36 37  1  0
 36 38  2  0
 30 39  1  0
 39 40  2  0
 22 41  1  0
 41 42  1  0
 15 43  1  0
 43 44  2  0
 11  5  1  0
 44 12  1  0
 42 19  1  0
 40 23  1  0
 39 27  1  0
 38 32  1  0
M  END
>  <Binding energies>  (43) 
[-9.29]

>  <Ligand effiencies>  (43) 
[-0.19354166666666664]

>  <Interactions>  (43) 
["V-B:ASP:366:CG:8185, V-B:TYR:539:CD2:9846, V-B:PRO:540:CA:9855, V-B:ALA:541:CB:9864, H-B:ASP:366:OD2:8187, V-B:TYR:539:CE2:9848, V-B:PRO:540:N:9856, V-A:ASP:366:CG:3211, V-A:TYR:539:CD2:4872, V-B:PRO:540:CB:9857, V-A:ASP:366:CB:3210, V-A:TYR:539:CE2:4874, V-A:TYR:539:CZ:4875, V-B:TYR:539:CZ:9849, V-A:GLU:543:CD:4906, H-B:ARG:545:NH2:9900, V-B:ILE:538:CA:9832, V-B:TYR:539:C:9839, V-B:ARG:545:CZ:9898, V-A:GLU:543:CG:4905, V-A:GLU:543:CB:4904, V-B:HIS:456:CE1:9042, H-B:TYR:539:OH:9850, V-B:ASP:366:CB:8184, H-A:TYR:539:OH:4876, H-A:ASP:366:O:3207, H-A:TYR:539:N:4868, V-B:ARG:545:CG:9894, V-B:ARG:545:CD:9895, V-B:TYR:484:CZ:9319, V-A:ASP:366:CA:3208, V-B:GLY:454:CA:9021, V-B:GLY:453:C:9014, V-B:GLY:453:CA:9016, H-B:ASP:366:OD1:8186, H-B:ARG:545:NH1:9899, V-B:TYR:484:CE1:9317"]

$$$$
RR18_Rahimova_2017
     RDKit          3D

 36 41  0  0  0  0  0  0  0  0999 V2000
  128.1490  122.8550   59.3590 C   0  0  0  0  0  0  0  0  0  0  0  0
  128.0930  124.3170   59.7250 C   0  0  0  0  0  0  0  0  0  0  0  0
  127.7770  125.0120   60.8810 C   0  0  0  0  0  0  0  0  0  0  0  0
  127.9120  126.3680   60.5850 C   0  0  0  0  0  0  0  0  0  0  0  0
  128.3070  126.4530   59.2600 C   0  0  0  0  0  0  0  0  0  0  0  0
  128.6320  127.6150   58.3250 C   0  0  1  0  0  0  0  0  0  0  0  0
  129.1250  127.1100   56.9360 C   0  0  0  0  0  0  0  0  0  0  0  0
  130.3790  126.3730   56.8200 C   0  0  0  0  0  0  0  0  0  0  0  0
  130.9420  126.2140   55.7360 O   0  0  0  0  0  0  0  0  0  0  0  0
  130.8590  125.9070   57.9970 N   0  0  0  0  0  0  0  0  0  0  0  0
  132.0150  125.1450   58.2740 C   0  0  0  0  0  0  0  0  0  0  0  0
  132.9600  124.7870   57.2950 C   0  0  0  0  0  0  0  0  0  0  0  0
  134.0780  124.0270   57.6340 C   0  0  0  0  0  0  0  0  0  0  0  0
  134.2670  123.6080   58.9470 C   0  0  0  0  0  0  0  0  0  0  0  0
  133.3330  123.9460   59.9250 C   0  0  0  0  0  0  0  0  0  0  0  0
  132.2070  124.7090   59.6000 C   0  0  0  0  0  0  0  0  0  0  0  0
  131.2130  125.0480   60.7070 C   0  0  0  0  0  0  0  0  0  0  0  0
  128.3130  127.2830   55.8600 C   0  0  0  0  0  0  0  0  0  0  0  0
  127.1400  127.9740   55.8750 N   0  0  0  0  0  0  0  0  0  0  0  0
  126.7810  128.5860   56.9430 C   0  0  0  0  0  0  0  0  0  0  0  0
  125.3860  129.6310   57.0670 S   0  0  0  0  0  0  0  0  0  0  0  0
  125.7450  129.9930   58.7850 C   0  0  0  0  0  0  0  0  0  0  0  0
  125.0300  130.8150   59.6290 C   0  0  0  0  0  0  0  0  0  0  0  0
  123.8760  131.5740   59.1250 C   0  0  0  0  0  0  0  0  0  0  0  0
  123.3730  131.5970   58.0030 O   0  0  0  0  0  0  0  0  0  0  0  0
  123.4160  132.3180   60.1360 N   0  0  0  0  0  0  0  0  0  0  0  0
  124.1080  132.1270   61.2940 C   0  0  0  0  0  0  0  0  0  0  0  0
  123.8840  132.7280   62.5320 C   0  0  0  0  0  0  0  0  0  0  0  0
  124.6910  132.3700   63.6090 C   0  0  0  0  0  0  0  0  0  0  0  0
  125.6930  131.4180   63.4330 C   0  0  0  0  0  0  0  0  0  0  0  0
  125.8980  130.8310   62.1810 C   0  0  0  0  0  0  0  0  0  0  0  0
  125.1090  131.1960   61.0750 C   0  0  0  0  0  0  0  0  0  0  0  0
  126.9610  129.2690   59.1550 C   0  0  0  0  0  0  0  0  0  0  0  0
  127.5380  129.3160   60.2370 O   0  0  0  0  0  0  0  0  0  0  0  0
  127.4380  128.5110   58.1290 N   0  0  0  0  0  0  0  0  0  0  0  0
  128.4140  125.1990   58.7430 O   0  0  0  0  0  0  0  0  0  0  0  0
  1  2  1  0
  2  3  2  0
  3  4  1  0
  4  5  2  0
  6  5  1  1
  6  7  1  0
  7  8  1  0
  8  9  2  0
  8 10  1  0
 10 11  1  0
 11 12  2  0
 12 13  1  0
 13 14  2  0
 14 15  1  0
 15 16  2  0
 16 17  1  0
  7 18  2  0
 18 19  1  0
 19 20  2  0
 20 21  1  0
 21 22  1  0
 22 23  2  0
 23 24  1  0
 24 25  2  0
 24 26  1  0
 26 27  1  0
 27 28  2  0
 28 29  1  0
 29 30  2  0
 30 31  1  0
 31 32  2  0
 22 33  1  0
 33 34  2  0
 33 35  1  0
  5 36  1  0
 36  2  1  0
 35  6  1  0
 16 11  1  0
 35 20  1  0
 32 23  1  0
 32 27  1  0
M  END
>  <Binding energies>  (44) 
[-8.39]

>  <Ligand effiencies>  (44) 
[-0.22078947368421054]

>  <Interactions>  (44) 
["V-B:ASP:366:CG:8185, H-B:TYR:531:OH:9767, V-B:PRO:540:CA:9855, V-A:ILE:369:CG2:3235, V-A:ILE:369:CD1:3237, V-B:TYR:539:CE2:9848, V-B:PRO:540:N:9856, V-A:ASP:366:CG:3211, V-B:ILE:369:CD1:8211, H-A:TYR:531:OH:4793, V-B:ILE:369:CG2:8209, V-A:ASP:366:CB:3210, V-B:LEU:475:CD2:9231, V-A:TYR:539:CE2:4874, V-A:TYR:539:CZ:4875, V-B:TYR:539:CZ:9849, V-B:TYR:539:C:9839, V-B:ASP:366:CB:8184, V-B:ILE:369:CB:8208, V-A:ILE:369:CB:3234, H-A:TYR:539:OH:4876, V-B:ILE:369:CG1:8210, V-A:ASP:366:CA:3208, V-B:GLY:454:CA:9021, V-A:ASP:366:C:3206, V-A:ILE:369:CG1:3236"]

$$$$
RR20_Rahimova_2017
     RDKit          3D

 38 43  0  0  0  0  0  0  0  0999 V2000
  134.2450  131.1750   58.7740 C   0  0  0  0  0  0  0  0  0  0  0  0
  132.9880  131.3100   57.9340 C   0  0  0  0  0  0  0  0  0  0  0  0
  133.0760  131.2680   56.5420 C   0  0  0  0  0  0  0  0  0  0  0  0
  131.9230  131.3820   55.7690 C   0  0  0  0  0  0  0  0  0  0  0  0
  130.6760  131.5540   56.3810 C   0  0  0  0  0  0  0  0  0  0  0  0
  129.4340  131.6560   55.5240 C   0  0  0  0  0  0  0  0  0  0  0  0
  129.3360  132.6300   54.7730 O   0  0  0  0  0  0  0  0  0  0  0  0
  128.4860  130.6760   55.6000 N   0  0  0  0  0  0  0  0  0  0  0  0
  127.3360  130.6420   54.6830 C   0  0  0  0  0  0  0  0  0  0  0  0
  126.5990  129.3450   54.9670 C   0  0  0  0  0  0  0  0  0  0  0  0
  127.5980  128.5610   55.7630 C   0  0  0  0  0  0  0  0  0  0  0  0
  127.5140  127.2510   56.2350 C   0  0  0  0  0  0  0  0  0  0  0  0
  128.4850  126.7420   57.1060 C   0  0  0  0  0  0  0  0  0  0  0  0
  128.3990  125.3270   57.6070 C   0  0  0  0  0  0  0  0  0  0  0  0
  129.3890  124.8640   58.3540 N   0  0  0  0  0  0  0  0  0  0  0  0
  129.2000  123.6310   58.7500 C   0  0  0  0  0  0  0  0  0  0  0  0
  130.0300  122.8520   59.5420 N   0  0  0  0  0  0  0  0  0  0  0  0
  129.6520  121.8880   60.4160 C   0  0  0  0  0  0  0  0  0  0  0  0
  128.4820  121.5540   60.6110 O   0  0  0  0  0  0  0  0  0  0  0  0
  130.7590  121.1420   61.1990 C   0  0  0  0  0  0  0  0  0  0  0  0
  131.5560  122.0340   62.0610 N   0  0  0  0  0  0  0  0  0  0  0  0
  132.5080  122.8520   61.2960 C   0  0  0  0  0  0  0  0  0  0  0  0
  133.4910  123.5620   62.2540 C   0  0  0  0  0  0  0  0  0  0  0  0
  132.7950  124.2110   63.4500 C   0  0  0  0  0  0  0  0  0  0  0  0
  133.4720  125.1180   64.2740 C   0  0  0  0  0  0  0  0  0  0  0  0
  132.8500  125.6790   65.3860 C   0  0  0  0  0  0  0  0  0  0  0  0
  131.5350  125.3410   65.6880 C   0  0  0  0  0  0  0  0  0  0  0  0
  130.8460  124.4470   64.8710 C   0  0  0  0  0  0  0  0  0  0  0  0
  131.4590  123.8740   63.7510 C   0  0  0  0  0  0  0  0  0  0  0  0
  130.6850  122.9380   62.8220 C   0  0  0  0  0  0  0  0  0  0  0  0
  127.7340  122.9230   58.1970 S   0  0  0  0  0  0  0  0  0  0  0  0
  127.3560  124.4100   57.3600 C   0  0  0  0  0  0  0  0  0  0  0  0
  126.0960  124.5230   56.5300 C   0  0  0  0  0  0  0  0  0  0  0  0
  129.5110  127.5970   57.5370 C   0  0  0  0  0  0  0  0  0  0  0  0
  129.5870  128.9130   57.0830 C   0  0  0  0  0  0  0  0  0  0  0  0
  128.6580  129.3830   56.1450 C   0  0  0  0  0  0  0  0  0  0  0  0
  130.5930  131.5670   57.7790 C   0  0  0  0  0  0  0  0  0  0  0  0
  131.7450  131.4510   58.5530 C   0  0  0  0  0  0  0  0  0  0  0  0
  1  2  1  0
  2  3  2  0
  3  4  1  0
  4  5  2  0
  5  6  1  0
  6  7  2  0
  6  8  1  0
  8  9  1  0
  9 10  1  0
 10 11  1  0
 11 12  2  0
 12 13  1  0
 13 14  1  0
 14 15  1  0
 15 16  2  0
 16 17  1  0
 17 18  1  0
 18 19  2  0
 18 20  1  0
 20 21  1  0
 21 22  1  0
 22 23  1  0
 23 24  1  0
 24 25  2  0
 25 26  1  0
 26 27  2  0
 27 28  1  0
 28 29  2  0
 29 30  1  0
 16 31  1  0
 31 32  1  0
 32 33  1  0
 13 34  2  0
 34 35  1  0
 35 36  2  0
  5 37  1  0
 37 38  2  0
 38  2  1  0
 36  8  1  0
 36 11  1  0
 32 14  2  0
 30 21  1  0
 29 24  1  0
M  END
>  <Binding energies>  (45) 
[-10.01]

>  <Ligand effiencies>  (45) 
[-0.25666666666666665]

>  <Interactions>  (45) 
["V-A:ILE:538:CG2:4861, V-A:PRO:540:N:4882, V-B:TYR:539:CD2:9846, V-B:PRO:540:CA:9855, H-B:ALA:541:N:9863, V-A:LEU:475:CD2:4257, V-B:ALA:541:CB:9864, V-A:ILE:538:CB:4860, V-A:TYR:531:CZ:4792, V-B:TYR:539:CE2:9848, V-B:PRO:540:N:9856, V-A:ASP:366:CG:3211, V-A:TYR:539:CZ:4875, V-A:PRO:540:CA:4881, V-A:HIS:456:CE1:4068, V-B:TYR:539:C:9839, V-B:GLU:543:CD:9880, V-A:ARG:545:CZ:4924, V-B:GLU:543:CB:9878, V-A:PRO:540:CB:4883, V-A:LEU:363:CD1:3187, V-A:TYR:539:C:4865, V-A:TYR:539:CE1:4873, V-A:TYR:531:CE2:4791, V-B:TYR:531:CE1:9764, H-A:TYR:539:N:4868, V-A:ARG:545:CD:4921, V-A:ARG:545:CG:4920, V-A:GLY:454:CA:4047, V-A:TYR:484:CZ:4345, V-A:LEU:363:CB:3185, V-A:LEU:363:CA:3183, V-A:ASN:362:C:3170, V-A:GLY:453:CA:4042, V-A:TYR:484:CE1:4343"]

$$$$
RR21_Rahimova_2017
     RDKit          3D

 40 45  0  0  0  0  0  0  0  0999 V2000
  134.2000  131.3370   56.6130 C   0  0  0  0  0  0  0  0  0  0  0  0
  132.9200  131.8980   56.3400 O   0  0  0  0  0  0  0  0  0  0  0  0
  131.9230  131.8020   57.2920 C   0  0  0  0  0  0  0  0  0  0  0  0
  132.1450  131.4600   58.6370 C   0  0  0  0  0  0  0  0  0  0  0  0
  131.0820  131.3880   59.5370 C   0  0  0  0  0  0  0  0  0  0  0  0
  129.7740  131.6590   59.1190 C   0  0  0  0  0  0  0  0  0  0  0  0
  128.6340  131.5860   60.0890 C   0  0  0  0  0  0  0  0  0  0  0  0
  127.6920  132.5090   60.0640 N   0  0  0  0  0  0  0  0  0  0  0  0
  126.8160  132.1910   61.0290 N   0  0  0  0  0  0  0  0  0  0  0  0
  125.6560  132.9730   61.2640 C   0  0  0  0  0  0  0  0  0  0  0  0
  125.4850  134.2120   60.6270 C   0  0  0  0  0  0  0  0  0  0  0  0
  124.3400  134.9690   60.8620 C   0  0  0  0  0  0  0  0  0  0  0  0
  123.3640  134.4920   61.7330 C   0  0  0  0  0  0  0  0  0  0  0  0
  123.5220  133.2650   62.3730 C   0  0  0  0  0  0  0  0  0  0  0  0
  124.6660  132.5060   62.1410 C   0  0  0  0  0  0  0  0  0  0  0  0
  127.2060  131.0370   61.6610 C   0  0  0  0  0  0  0  0  0  0  0  0
  128.3960  130.6150   61.0890 C   0  0  0  0  0  0  0  0  0  0  0  0
  129.1670  129.4190   61.3940 C   0  0  0  0  0  0  0  0  0  0  0  0
  129.7950  128.5860   60.5330 C   0  0  0  0  0  0  0  0  0  0  0  0
  129.8620  128.6940   58.7600 S   0  0  0  0  0  0  0  0  0  0  0  0
  130.8710  127.2550   58.7240 C   0  0  0  0  0  0  0  0  0  0  0  0
  131.3870  126.6710   57.6870 N   0  0  0  0  0  0  0  0  0  0  0  0
  132.2010  125.5100   57.7980 C   0  0  0  0  0  0  0  0  0  0  0  0
  132.7420  124.9110   56.8690 O   0  0  0  0  0  0  0  0  0  0  0  0
  132.3840  125.0290   59.2120 C   0  0  0  0  0  0  0  0  0  0  0  0
  133.2280  123.7710   59.4540 C   0  0  0  0  0  0  0  0  0  0  0  0
  132.4180  122.5340   59.8350 C   0  0  0  0  0  0  0  0  0  0  0  0
  133.0580  121.3020   60.0010 C   0  0  0  0  0  0  0  0  0  0  0  0
  132.3210  120.1780   60.3650 C   0  0  0  0  0  0  0  0  0  0  0  0
  130.9440  120.2820   60.5670 C   0  0  0  0  0  0  0  0  0  0  0  0
  130.1480  119.0560   60.9760 C   0  0  0  0  0  0  0  0  0  0  0  0
  130.3040  121.5150   60.4130 C   0  0  0  0  0  0  0  0  0  0  0  0
  131.0400  122.6380   60.0490 C   0  0  0  0  0  0  0  0  0  0  0  0
  131.8590  125.6190   60.2350 N   0  0  0  0  0  0  0  0  0  0  0  0
  131.0880  126.7610   59.9830 N   0  0  0  0  0  0  0  0  0  0  0  0
  130.5300  127.4270   61.0230 C   0  0  0  0  0  0  0  0  0  0  0  0
  130.6380  127.0990   62.2110 O   0  0  0  0  0  0  0  0  0  0  0  0
  129.5510  131.9940   57.7800 C   0  0  0  0  0  0  0  0  0  0  0  0
  130.6130  132.0660   56.8780 C   0  0  0  0  0  0  0  0  0  0  0  0
  130.3630  132.3930   55.5880 F   0  0  0  0  0  0  0  0  0  0  0  0
  1  2  1  0
  2  3  1  0
  3  4  2  0
  4  5  1  0
  5  6  2  0
  6  7  1  0
  7  8  2  0
  8  9  1  0
  9 10  1  0
 10 11  2  0
 11 12  1  0
 12 13  2  0
 13 14  1  0
 14 15  2  0
  9 16  1  0
 16 17  2  0
 17 18  1  0
 18 19  2  0
 19 20  1  0
 20 21  1  0
 21 22  2  0
 22 23  1  0
 23 24  2  0
 23 25  1  0
 25 26  1  0
 26 27  1  0
 27 28  2  0
 28 29  1  0
 29 30  2  0
 30 31  1  0
 30 32  1  0
 32 33  2  0
 25 34  2  0
 34 35  1  0
 35 36  1  0
 36 37  2  0
  6 38  1  0
 38 39  2  0
 39 40  1  0
 39  3  1  0
 17  7  1  0
 36 19  1  0
 15 10  1  0
 35 21  1  0
 33 27  1  0
M  END
>  <Binding energies>  (46) 
[-9.49]

>  <Ligand effiencies>  (46) 
[-0.23725000000000002]

>  <Interactions>  (46) 
["V-A:PRO:540:CD:4885, V-A:PRO:540:N:4882, V-B:TYR:539:CD2:9846, V-A:LEU:475:CD2:4257, V-A:ILE:369:CG2:3235, V-A:TRP:381:CZ2:3368, V-B:ALA:541:CB:9864, V-A:ILE:538:CB:4860, V-A:ILE:538:CA:4858, V-A:TYR:531:CZ:4792, V-A:TRP:381:CH2:3370, V-B:TYR:539:CE2:9848, V-A:ASP:366:CG:3211, V-B:ILE:369:CD1:8211, H-A:TYR:531:OH:4793, V-A:TYR:539:CD2:4872, V-B:ILE:369:CG2:8209, V-A:ASP:366:CB:3210, V-B:LEU:475:CD2:9231, V-A:TYR:539:CE2:4874, V-B:TRP:381:CH2:8344, V-A:PRO:540:CA:4881, V-B:TRP:381:CZ2:8342, V-A:GLU:543:CD:4906, V-A:PRO:540:CB:4883, V-A:LEU:363:CD1:3187, V-A:TYR:539:C:4865, H-A:ARG:545:NH2:4926, V-A:TYR:531:CE2:4791, H-B:TYR:539:OH:9850, V-A:LEU:363:CB:3185, V-A:LEU:363:CA:3183, V-A:ILE:538:C:4856, V-B:GLY:454:CA:9021, V-A:PRO:482:CG:4325, V-A:PRO:482:CB:4324, V-A:TYR:539:CA:4867, V-A:LEU:363:CG:3186, V-B:SER:385:C:8377, V-B:SER:385:CA:8379"]

$$$$
RR23_Rahimova_2017
     RDKit          3D

 39 44  0  0  0  0  0  0  0  0999 V2000
  130.7160  126.9160   67.0060 C   0  0  0  0  0  0  0  0  0  0  0  0
  131.2970  126.1330   65.8430 C   0  0  0  0  0  0  0  0  0  0  0  0
  132.6290  125.7180   65.8760 C   0  0  0  0  0  0  0  0  0  0  0  0
  133.1580  124.9910   64.8130 C   0  0  0  0  0  0  0  0  0  0  0  0
  132.3630  124.6840   63.7030 C   0  0  0  0  0  0  0  0  0  0  0  0
  132.9510  123.8760   62.5670 C   0  0  0  0  0  0  0  0  0  0  0  0
  134.1620  123.9830   62.3570 O   0  0  0  0  0  0  0  0  0  0  0  0
  132.1380  123.0580   61.8350 N   0  0  0  0  0  0  0  0  0  0  0  0
  131.5610  121.8320   62.4090 C   0  0  0  0  0  0  0  0  0  0  0  0
  130.6100  121.2760   61.3620 C   0  0  0  0  0  0  0  0  0  0  0  0
  130.4350  122.4310   60.4230 C   0  0  0  0  0  0  0  0  0  0  0  0
  129.6000  122.5410   59.3110 C   0  0  0  0  0  0  0  0  0  0  0  0
  129.6960  123.6510   58.4590 C   0  0  0  0  0  0  0  0  0  0  0  0
  128.7960  123.8120   57.2240 C   0  0  2  0  0  0  0  0  0  0  0  0
  128.7210  125.1860   56.7780 N   0  0  0  0  0  0  0  0  0  0  0  0
  127.5900  125.4560   56.2610 C   0  0  0  0  0  0  0  0  0  0  0  0
  127.1580  126.6450   55.7630 N   0  0  0  0  0  0  0  0  0  0  0  0
  127.7670  127.8540   55.8220 C   0  0  0  0  0  0  0  0  0  0  0  0
  128.8720  128.0760   56.3200 O   0  0  0  0  0  0  0  0  0  0  0  0
  126.9780  129.0230   55.2090 C   0  0  0  0  0  0  0  0  0  0  0  0
  126.1010  129.6120   56.2460 N   0  0  0  0  0  0  0  0  0  0  0  0
  124.7380  129.5130   56.0010 N   0  0  0  0  0  0  0  0  0  0  0  0
  123.8650  129.9900   56.8300 N   0  0  0  0  0  0  0  0  0  0  0  0
  124.2920  130.6190   58.0020 C   0  0  0  0  0  0  0  0  0  0  0  0
  123.3240  131.1240   58.8740 C   0  0  0  0  0  0  0  0  0  0  0  0
  123.7200  131.7570   60.0530 C   0  0  0  0  0  0  0  0  0  0  0  0
  125.0760  131.8880   60.3610 C   0  0  0  0  0  0  0  0  0  0  0  0
  126.0440  131.3840   59.4900 C   0  0  0  0  0  0  0  0  0  0  0  0
  125.6470  130.7470   58.3080 C   0  0  0  0  0  0  0  0  0  0  0  0
  126.6800  130.1980   57.3500 C   0  0  0  0  0  0  0  0  0  0  0  0
  127.8980  130.2790   57.5340 O   0  0  0  0  0  0  0  0  0  0  0  0
  126.3980  124.1260   56.1830 S   0  0  0  0  0  0  0  0  0  0  0  0
  127.3790  123.2140   57.3870 C   0  0  2  0  0  0  0  0  0  0  0  0
  126.7250  123.3520   58.7770 C   0  0  0  0  0  0  0  0  0  0  0  0
  130.6740  124.6180   58.7170 C   0  0  0  0  0  0  0  0  0  0  0  0
  131.5240  124.4990   59.8180 C   0  0  0  0  0  0  0  0  0  0  0  0
  131.3680  123.4290   60.7090 C   0  0  0  0  0  0  0  0  0  0  0  0
  131.0190  125.0800   63.6880 C   0  0  0  0  0  0  0  0  0  0  0  0
  130.4900  125.8050   64.7520 C   0  0  0  0  0  0  0  0  0  0  0  0
  1  2  1  0
  2  3  2  0
  3  4  1  0
  4  5  2  0
  5  6  1  0
  6  7  2  0
  6  8  1  0
  8  9  1  0
  9 10  1  0
 10 11  1  0
 11 12  2  0
 12 13  1  0
 14 13  1  1
 14 15  1  0
 15 16  2  0
 16 17  1  0
 17 18  1  0
 18 19  2  0
 18 20  1  0
 20 21  1  0
 21 22  1  0
 22 23  2  0
 23 24  1  0
 24 25  2  0
 25 26  1  0
 26 27  2  0
 27 28  1  0
 28 29  2  0
 29 30  1  0
 30 31  2  0
 16 32  1  0
 32 33  1  0
 33 34  1  1
 13 35  2  0
 35 36  1  0
 36 37  2  0
  5 38  1  0
 38 39  2  0
 39  2  1  0
 37  8  1  0
 37 11  1  0
 33 14  1  0
 30 21  1  0
 29 24  1  0
M  END
>  <Binding energies>  (47) 
[-10.35]

>  <Ligand effiencies>  (47) 
[-0.25875]

>  <Interactions>  (47) 
["V-B:ASP:366:CG:8185, V-B:TYR:539:CD2:9846, H-B:TYR:531:OH:9767, V-B:PRO:540:CA:9855, V-A:LEU:475:CD2:4257, V-B:ALA:541:CB:9864, V-B:TYR:539:CE2:9848, V-B:PRO:540:N:9856, V-B:ILE:369:CD1:8211, V-B:PRO:540:CB:9857, V-B:ILE:369:CG2:8209, V-A:TYR:539:CE2:4874, V-A:TYR:539:CZ:4875, V-B:TYR:539:CZ:9849, V-A:GLU:543:CD:4906, V-A:HIS:456:CE1:4068, V-B:TYR:539:C:9839, H-A:GLY:454:N:4048, V-B:TYR:531:CZ:9766, V-B:GLU:543:CD:9880, V-A:ARG:545:CZ:4924, V-A:GLU:543:CG:4905, V-B:ASP:366:C:8180, V-B:ASP:366:CB:8184, V-B:ILE:369:CB:8208, H-A:TYR:539:OH:4876, V-B:ASP:366:CA:8182, V-A:ARG:545:CD:4921, V-A:ARG:545:CG:4920, H-B:MET:535:SD:9806"]

$$$$
RR26_Rahimova_2017
     RDKit          3D

 38 44  0  0  0  0  0  0  0  0999 V2000
  124.6550  131.7830   59.9230 C   0  0  0  0  0  0  0  0  0  0  0  0
  125.6460  132.8830   60.2850 C   0  0  0  0  0  0  0  0  0  0  0  0
  125.1440  134.1480   60.6090 C   0  0  0  0  0  0  0  0  0  0  0  0
  126.0010  135.1790   60.9860 C   0  0  0  0  0  0  0  0  0  0  0  0
  127.3720  134.9520   61.0490 C   0  0  0  0  0  0  0  0  0  0  0  0
  127.8850  133.6970   60.7290 C   0  0  0  0  0  0  0  0  0  0  0  0
  127.0380  132.6480   60.3390 C   0  0  0  0  0  0  0  0  0  0  0  0
  127.6740  131.3320   59.9970 C   0  0  0  0  0  0  0  0  0  0  0  0
  127.7390  130.3260   60.8650 N   0  0  0  0  0  0  0  0  0  0  0  0
  128.3410  129.4030   60.1650 C   0  0  0  0  0  0  0  0  0  0  0  0
  128.8620  127.7820   60.4430 S   0  0  0  0  0  0  0  0  0  0  0  0
  129.4830  127.7160   58.7510 C   0  0  0  0  0  0  0  0  0  0  0  0
  130.1010  126.6830   58.1360 C   0  0  0  0  0  0  0  0  0  0  0  0
  130.4120  125.3720   58.6820 C   0  0  0  0  0  0  0  0  0  0  0  0
  131.6210  124.9180   59.1870 C   0  0  0  0  0  0  0  0  0  0  0  0
  131.4380  123.6320   59.6290 N   0  0  0  0  0  0  0  0  0  0  0  0
  132.3890  122.7670   60.2280 C   0  0  0  0  0  0  0  0  0  0  0  0
  133.2830  123.2440   61.1980 C   0  0  0  0  0  0  0  0  0  0  0  0
  134.2140  122.3840   61.7760 C   0  0  0  0  0  0  0  0  0  0  0  0
  134.2510  121.0470   61.3900 C   0  0  0  0  0  0  0  0  0  0  0  0
  133.3670  120.5600   60.4300 C   0  0  0  0  0  0  0  0  0  0  0  0
  132.4370  121.4170   59.8490 C   0  0  0  0  0  0  0  0  0  0  0  0
  130.1620  123.2570   59.4530 N   0  0  0  0  0  0  0  0  0  0  0  0
  129.5440  124.2760   58.8880 C   0  0  0  0  0  0  0  0  0  0  0  0
  128.0890  124.1700   58.5480 C   0  0  0  0  0  0  0  0  0  0  0  0
  127.1130  124.5950   59.4620 C   0  0  0  0  0  0  0  0  0  0  0  0
  125.7550  124.4970   59.1560 C   0  0  0  0  0  0  0  0  0  0  0  0
  125.3610  123.9700   57.9280 C   0  0  0  0  0  0  0  0  0  0  0  0
  126.3270  123.5580   56.9980 C   0  0  0  0  0  0  0  0  0  0  0  0
  127.6830  123.6520   57.3090 C   0  0  0  0  0  0  0  0  0  0  0  0
  125.9830  122.9890   55.7880 O   0  0  0  0  0  0  0  0  0  0  0  0
  124.6370  123.2540   55.3790 C   0  0  0  0  0  0  0  0  0  0  0  0
  123.6610  123.0650   56.5650 C   0  0  0  0  0  0  0  0  0  0  0  0
  124.0100  123.9360   57.6470 O   0  0  0  0  0  0  0  0  0  0  0  0
  129.2670  128.9680   58.0310 C   0  0  0  0  0  0  0  0  0  0  0  0
  129.5700  129.2610   56.8740 O   0  0  0  0  0  0  0  0  0  0  0  0
  128.6190  129.8370   58.9230 N   0  0  0  0  0  0  0  0  0  0  0  0
  128.1830  131.0940   58.7980 N   0  0  0  0  0  0  0  0  0  0  0  0
  1  2  1  0
  2  3  2  0
  3  4  1  0
  4  5  2  0
  5  6  1  0
  6  7  2  0
  7  8  1  0
  8  9  1  0
  9 10  2  0
 10 11  1  0
 11 12  1  0
 12 13  2  0
 13 14  1  0
 14 15  2  0
 15 16  1  0
 16 17  1  0
 17 18  2  0
 18 19  1  0
 19 20  2  0
 20 21  1  0
 21 22  2  0
 16 23  1  0
 23 24  2  0
 24 25  1  0
 25 26  2  0
 26 27  1  0
 27 28  2  0
 28 29  1  0
 29 30  2  0
 29 31  1  0
 31 32  1  0
 32 33  1  0
 33 34  1  0
 12 35  1  0
 35 36  2  0
 35 37  1  0
 37 38  1  0
  7  2  1  0
 38  8  2  0
 37 10  1  0
 24 14  1  0
 30 25  1  0
 22 17  1  0
 34 28  1  0
M  END
>  <Binding energies>  (48) 
[-8.83]

>  <Ligand effiencies>  (48) 
[-0.23236842105263159]

>  <Interactions>  (48) 
["V-B:TYR:539:CD2:9846, H-B:TYR:531:OH:9767, V-B:PRO:540:CA:9855, V-A:LEU:475:CD2:4257, V-A:ILE:369:CG2:3235, V-A:TRP:381:CH2:3370, V-A:ILE:369:CD1:3237, V-B:TYR:539:CE2:9848, V-B:PRO:540:N:9856, V-B:ILE:538:CB:9834, V-A:ASP:366:CG:3211, H-A:TYR:531:OH:4793, V-A:TYR:539:CD2:4872, V-B:TYR:531:CE2:9765, V-B:PRO:540:CD:9859, V-B:PRO:540:CB:9857, V-B:ILE:369:CG2:8209, V-B:LEU:475:CD2:9231, V-A:TYR:539:CE2:4874, V-B:ILE:538:CG2:9835, V-B:TRP:381:CH2:8344, V-B:TRP:381:CZ2:8342, V-A:ALA:541:CB:4890, V-B:ILE:538:CA:9832, V-B:TYR:539:C:9839, V-B:LEU:363:CD1:8161, V-B:TYR:531:CZ:9766, V-A:TYR:539:C:4865, V-A:GLY:454:CA:4047, H-B:TYR:539:N:9842, V-B:PRO:540:CG:9858, V-A:GLY:453:C:4040, V-A:SER:385:C:3403"]

$$$$
RR2_Rahimova_2017
     RDKit          3D

 46 50  0  0  0  0  0  0  0  0999 V2000
  134.2900  130.3670   57.2400 C   0  0  0  0  0  0  0  0  0  0  0  0
  133.6420  131.6100   56.9970 O   0  0  0  0  0  0  0  0  0  0  0  0
  132.3080  131.7530   57.3310 C   0  0  0  0  0  0  0  0  0  0  0  0
  131.3180  132.2170   56.4540 C   0  0  0  0  0  0  0  0  0  0  0  0
  129.9980  132.3300   56.8810 C   0  0  0  0  0  0  0  0  0  0  0  0
  129.6370  131.9870   58.1910 C   0  0  0  0  0  0  0  0  0  0  0  0
  128.1930  132.1270   58.6330 C   0  0  0  0  0  0  0  0  0  0  0  0
  127.2980  131.5170   58.0390 O   0  0  0  0  0  0  0  0  0  0  0  0
  127.9750  132.9540   59.6820 N   0  0  0  0  0  0  0  0  0  0  0  0
  126.6600  133.1900   60.0690 N   0  0  0  0  0  0  0  0  0  0  0  0
  126.4030  134.2780   60.8230 C   0  0  0  0  0  0  0  0  0  0  0  0
  127.2620  134.9900   61.3510 O   0  0  0  0  0  0  0  0  0  0  0  0
  124.9180  134.6310   60.9900 C   0  0  0  0  0  0  0  0  0  0  0  0
  123.8600  133.2620   61.5880 S   0  0  0  0  0  0  0  0  0  0  0  0
  124.5210  131.9110   60.6620 C   0  0  0  0  0  0  0  0  0  0  0  0
  124.2710  131.7270   59.3900 N   0  0  0  0  0  0  0  0  0  0  0  0
  124.8860  130.5420   59.0110 N   0  0  0  0  0  0  0  0  0  0  0  0
  125.5110  130.0680   60.0630 C   0  0  0  0  0  0  0  0  0  0  0  0
  126.3090  128.8050   60.0440 C   0  0  0  0  0  0  0  0  0  0  0  0
  126.1740  127.9140   58.9760 C   0  0  0  0  0  0  0  0  0  0  0  0
  126.9070  126.7310   58.9540 C   0  0  0  0  0  0  0  0  0  0  0  0
  127.7960  126.4360   59.9940 C   0  0  0  0  0  0  0  0  0  0  0  0
  128.5520  125.2540   60.0290 N   0  0  0  0  0  0  0  0  0  0  0  0
  127.8680  123.6180   60.1470 S   0  0  0  0  0  0  0  0  0  0  0  0
  127.0700  123.6010   61.3780 O   0  0  0  0  0  0  0  0  0  0  0  0
  128.9560  122.6540   59.9420 O   0  0  0  0  0  0  0  0  0  0  0  0
  126.7140  123.4930   58.7830 C   0  0  0  0  0  0  0  0  0  0  0  0
  127.1230  122.9800   57.5500 C   0  0  0  0  0  0  0  0  0  0  0  0
  126.2150  122.9050   56.4970 C   0  0  0  0  0  0  0  0  0  0  0  0
  124.8990  123.3380   56.6790 C   0  0  0  0  0  0  0  0  0  0  0  0
  123.9140  123.2700   55.5260 C   0  0  0  0  0  0  0  0  0  0  0  0
  124.4940  123.8540   57.9120 C   0  0  0  0  0  0  0  0  0  0  0  0
  125.4020  123.9300   58.9650 C   0  0  0  0  0  0  0  0  0  0  0  0
  127.9320  127.3270   61.0580 C   0  0  0  0  0  0  0  0  0  0  0  0
  127.1950  128.5080   61.0840 C   0  0  0  0  0  0  0  0  0  0  0  0
  125.3160  130.8940   61.1580 N   0  0  0  0  0  0  0  0  0  0  0  0
  125.7770  130.7200   62.4790 C   0  0  0  0  0  0  0  0  0  0  0  0
  125.3370  129.6320   63.2340 C   0  0  0  0  0  0  0  0  0  0  0  0
  125.7990  129.4650   64.5360 C   0  0  0  0  0  0  0  0  0  0  0  0
  126.6980  130.3760   65.0930 C   0  0  0  0  0  0  0  0  0  0  0  0
  127.0990  130.1260   66.3920 O   0  0  0  0  0  0  0  0  0  0  0  0
  127.8370  128.9420   66.6760 C   0  0  0  0  0  0  0  0  0  0  0  0
  127.1360  131.4680   64.3270 C   0  0  0  0  0  0  0  0  0  0  0  0
  126.6780  131.6390   63.0240 C   0  0  0  0  0  0  0  0  0  0  0  0
  130.6330  131.5180   59.0610 C   0  0  0  0  0  0  0  0  0  0  0  0
  131.9520  131.4040   58.6320 C   0  0  0  0  0  0  0  0  0  0  0  0
  1  2  1  0
  2  3  1  0
  3  4  2  0
  4  5  1  0
  5  6  2  0
  6  7  1  0
  7  8  2  0
  7  9  1  0
  9 10  1  0
 10 11  1  0
 11 12  2  0
 11 13  1  0
 13 14  1  0
 14 15  1  0
 15 16  2  0
 16 17  1  0
 17 18  2  0
 18 19  1  0
 19 20  2  0
 20 21  1  0
 21 22  2  0
 22 23  1  0
 23 24  1  0
 24 25  2  0
 24 26  2  0
 24 27  1  0
 27 28  2  0
 28 29  1  0
 29 30  2  0
 30 31  1  0
 30 32  1  0
 32 33  2  0
 22 34  1  0
 34 35  2  0
 18 36  1  0
 36 37  1  0
 37 38  2  0
 38 39  1  0
 39 40  2  0
 40 41  1  0
 41 42  1  0
 40 43  1  0
 43 44  2  0
  6 45  1  0
 45 46  2  0
 46  3  1  0
 36 15  1  0
 44 37  1  0
 35 19  1  0
 33 27  1  0
M  END
>  <Binding energies>  (49) 
[-10.85]

>  <Ligand effiencies>  (49) 
[-0.22142857142857142]

>  <Interactions>  (49) 
["V-A:PRO:540:CD:4885, V-B:ASP:366:CG:8185, V-A:PRO:540:N:4882, V-B:PRO:540:CA:9855, H-B:ALA:541:N:9863, V-A:ILE:538:CB:4860, V-A:TYR:531:CZ:4792, V-B:PRO:540:N:9856, V-B:ILE:538:CB:9834, V-A:ASP:366:CG:3211, H-A:TYR:531:OH:4793, V-A:TYR:539:CD2:4872, V-B:TYR:531:CE2:9765, V-B:PRO:540:CD:9859, V-B:PRO:540:CB:9857, V-B:ILE:369:CG2:8209, V-A:ASP:366:CB:3210, V-B:LEU:475:CD2:9231, V-A:TYR:539:CE2:4874, V-B:ILE:538:CG2:9835, V-B:TRP:381:CH2:8344, V-A:PRO:540:CA:4881, V-B:TRP:381:CZ2:8342, V-A:GLU:543:CD:4906, V-B:TYR:539:C:9839, V-B:LEU:363:CD1:8161, V-B:TYR:539:CA:9841, V-B:TYR:531:CZ:9766, V-B:ARG:545:CZ:9898, V-A:GLU:543:CG:4905, V-A:PRO:540:CB:4883, V-A:LEU:363:CD1:3187, V-A:TYR:539:C:4865, H-B:TYR:484:OH:9320, V-A:GLU:543:CB:4904, V-A:TYR:531:CE2:4791, V-B:HIS:456:CE1:9042, H-A:TYR:539:O:4866, V-B:TYR:484:CZ:9319, V-A:LEU:363:CB:3185, V-A:LEU:363:CA:3183, V-A:TYR:539:CA:4867, V-B:TYR:484:CE1:9317, V-A:LEU:363:C:3181"]

$$$$
RR33_Rahimova_2017
     RDKit          3D

 18 19  0  0  0  0  0  0  0  0999 V2000
  125.5360  129.7580   56.3100 C   0  0  0  0  0  0  0  0  0  0  0  0
  124.1240  129.9990   56.8530 C   0  0  0  0  0  0  0  0  0  0  0  0
  124.1730  131.0640   57.7970 O   0  0  0  0  0  0  0  0  0  0  0  0
  124.4620  130.7860   59.1190 C   0  0  0  0  0  0  0  0  0  0  0  0
  123.8010  131.5560   60.0760 C   0  0  0  0  0  0  0  0  0  0  0  0
  124.0310  131.3500   61.4330 C   0  0  0  0  0  0  0  0  0  0  0  0
  124.9300  130.3660   61.8550 C   0  0  0  0  0  0  0  0  0  0  0  0
  125.1770  130.1470   63.3140 C   0  0  0  0  0  0  0  0  0  0  0  0
  126.3210  129.8770   63.9020 N   0  0  0  0  0  0  0  0  0  0  0  0
  126.0350  129.7720   65.1910 C   0  0  0  0  0  0  0  0  0  0  0  0
  127.1180  129.4740   66.2060 C   0  0  0  0  0  0  0  0  0  0  0  0
  126.9160  128.1610   66.8000 N   0  0  0  0  0  0  0  0  0  0  0  0
  128.1160  127.7230   67.4950 C   0  0  0  0  0  0  0  0  0  0  0  0
  124.6760  129.9840   65.3860 C   0  0  0  0  0  0  0  0  0  0  0  0
  123.7540  130.0050   66.5800 C   0  0  0  0  0  0  0  0  0  0  0  0
  124.1270  130.2240   64.1730 O   0  0  0  0  0  0  0  0  0  0  0  0
  125.5930  129.5900   60.9000 C   0  0  0  0  0  0  0  0  0  0  0  0
  125.3630  129.7960   59.5420 C   0  0  0  0  0  0  0  0  0  0  0  0
  1  2  1  0
  2  3  1  0
  3  4  1  0
  4  5  2  0
  5  6  1  0
  6  7  2  0
  7  8  1  0
  8  9  2  0
  9 10  1  0
 10 11  1  0
 11 12  1  0
 12 13  1  0
 10 14  2  0
 14 15  1  0
 14 16  1  0
  7 17  1  0
 17 18  2  0
 18  4  1  0
 16  8  1  0
M  END
>  <Binding energies>  (50) 
[-5.77]

>  <Ligand effiencies>  (50) 
[-0.3036842105263158]

>  <Interactions>  (50) 
["V-B:ASP:366:CG:8185, V-B:ILE:369:CD1:8211, V-B:ILE:369:CG2:8209, V-A:TYR:539:CE2:4874, V-A:TYR:539:CZ:4875, H-B:GLU:543:OE2:9882, V-A:GLU:543:CD:4906, V-B:TYR:531:CZ:9766, V-B:GLU:543:CD:9880, V-B:ARG:545:CZ:9898, V-B:GLU:543:CG:9879, H-B:ARG:545:NE:9896, V-A:GLU:543:CG:4905, H-B:GLY:454:N:9022, H-B:TYR:484:OH:9320, V-A:GLU:543:CB:4904, V-B:HIS:456:CE1:9042, V-B:ASP:366:C:8180, V-B:ASP:366:CB:8184, H-A:TYR:539:OH:4876, V-B:ASP:366:CA:8182, V-B:TYR:531:CE1:9764, V-B:ARG:545:CG:9894, V-B:ARG:545:CD:9895, V-B:TYR:484:CZ:9319, V-B:GLY:454:CA:9021, V-B:GLY:453:C:9014"]

$$$$
RR3_Rahimova_2017
     RDKit          3D

 38 44  0  0  0  0  0  0  0  0999 V2000
  133.5940  123.3680   61.6160 C   0  0  0  0  0  0  0  0  0  0  0  0
  134.1840  124.4450   62.2700 C   0  0  0  0  0  0  0  0  0  0  0  0
  133.5440  125.0240   63.3620 C   0  0  0  0  0  0  0  0  0  0  0  0
  132.3090  124.5350   63.8150 C   0  0  0  0  0  0  0  0  0  0  0  0
  131.6230  125.1580   64.9910 C   0  0  0  0  0  0  0  0  0  0  0  0
  132.0940  126.3540   65.5490 C   0  0  0  0  0  0  0  0  0  0  0  0
  131.4570  126.9310   66.6440 C   0  0  0  0  0  0  0  0  0  0  0  0
  130.3370  126.3190   67.2120 C   0  0  0  0  0  0  0  0  0  0  0  0
  129.6510  126.9310   68.3930 C   0  0  0  0  0  0  0  0  0  0  0  0
  130.0480  126.6270   69.6240 N   0  0  0  0  0  0  0  0  0  0  0  0
  129.3080  127.3360   70.4420 C   0  0  0  0  0  0  0  0  0  0  0  0
  129.4070  127.3130   71.8990 C   0  0  0  0  0  0  0  0  0  0  0  0
  128.4460  127.7740   72.7840 C   0  0  0  0  0  0  0  0  0  0  0  0
  128.8650  127.5900   74.0750 N   0  0  0  0  0  0  0  0  0  0  0  0
  130.1120  127.0050   74.0850 C   0  0  0  0  0  0  0  0  0  0  0  0
  130.9360  126.6290   75.1510 C   0  0  0  0  0  0  0  0  0  0  0  0
  132.1640  126.0510   74.8290 C   0  0  0  0  0  0  0  0  0  0  0  0
  132.5590  125.8550   73.5100 C   0  0  0  0  0  0  0  0  0  0  0  0
  131.7380  126.2290   72.4480 C   0  0  0  0  0  0  0  0  0  0  0  0
  130.4880  126.8160   72.7180 C   0  0  0  0  0  0  0  0  0  0  0  0
  128.4140  128.1050   69.7510 N   0  0  0  0  0  0  0  0  0  0  0  0
  128.5900  127.8530   68.4150 C   0  0  0  0  0  0  0  0  0  0  0  0
  127.7420  128.4730   67.3540 C   0  0  0  0  0  0  0  0  0  0  0  0
  128.1840  129.6130   66.6820 C   0  0  0  0  0  0  0  0  0  0  0  0
  127.3910  130.2020   65.7020 C   0  0  0  0  0  0  0  0  0  0  0  0
  126.1400  129.6630   65.3670 C   0  0  0  0  0  0  0  0  0  0  0  0
  125.2820  130.3100   64.3260 C   0  0  0  0  0  0  0  0  0  0  0  0
  125.5990  131.5800   63.8190 C   0  0  0  0  0  0  0  0  0  0  0  0
  124.8020  132.1800   62.8470 C   0  0  0  0  0  0  0  0  0  0  0  0
  123.6770  131.5140   62.3700 C   0  0  0  0  0  0  0  0  0  0  0  0
  123.3450  130.2540   62.8570 C   0  0  0  0  0  0  0  0  0  0  0  0
  124.1430  129.6580   63.8300 C   0  0  0  0  0  0  0  0  0  0  0  0
  125.7150  128.5080   66.0370 C   0  0  0  0  0  0  0  0  0  0  0  0
  126.5060  127.9160   67.0180 C   0  0  0  0  0  0  0  0  0  0  0  0
  129.8520  125.1340   66.6550 C   0  0  0  0  0  0  0  0  0  0  0  0
  130.4910  124.5590   65.5600 C   0  0  0  0  0  0  0  0  0  0  0  0
  131.7330  123.4490   63.1410 C   0  0  0  0  0  0  0  0  0  0  0  0
  132.3700  122.8660   62.0480 C   0  0  0  0  0  0  0  0  0  0  0  0
  1  2  2  0
  2  3  1  0
  3  4  2  0
  4  5  1  0
  5  6  2  0
  6  7  1  0
  7  8  2  0
  8  9  1  0
  9 10  1  0
 10 11  2  0
 11 12  1  0
 12 13  2  0
 13 14  1  0
 14 15  1  0
 15 16  2  0
 16 17  1  0
 17 18  2  0
 18 19  1  0
 19 20  2  0
 11 21  1  0
 21 22  1  0
 22 23  1  0
 23 24  2  0
 24 25  1  0
 25 26  2  0
 26 27  1  0
 27 28  2  0
 28 29  1  0
 29 30  2  0
 30 31  1  0
 31 32  2  0
 26 33  1  0
 33 34  2  0
  8 35  1  0
 35 36  2  0
  4 37  1  0
 37 38  2  0
 38  1  1  0
 36  5  1  0
 22  9  2  0
 34 23  1  0
 20 12  1  0
 32 27  1  0
 20 15  1  0
M  END
>  <Binding energies>  (51) 
[-6.02]

>  <Ligand effiencies>  (51) 
[-0.1505]

>  <Interactions>  (51) 
["V-A:LEU:475:CD2:4257, V-A:ILE:369:CD1:3237, V-B:ILE:369:CD1:8211, V-B:LEU:475:CD2:9231, V-A:GLU:543:CD:4906, V-A:HIS:456:CE1:4068, V-B:GLU:543:CD:9880, V-A:ARG:545:CZ:4924, V-B:GLU:543:CB:9878, V-B:ARG:545:CZ:9898, V-B:GLU:543:CG:9879, V-A:GLU:543:CG:4905, V-A:GLU:543:CB:4904, V-B:HIS:456:CE1:9042, V-A:LYS:547:CE:4948, V-A:GLY:544:C:4910, V-A:GLU:543:C:4900, V-B:LYS:547:CE:9922, V-A:HIS:456:CD2:4066, V-B:HIS:456:CD2:9040, V-B:GLU:543:C:9874, V-A:HIS:456:CG:4064, H-B:HIS:456:NE2:9043, H-A:GLU:543:O:4901, V-B:GLU:543:CA:9876, V-B:ARG:545:CG:9894, V-B:ARG:545:CD:9895, V-A:ARG:545:CD:4921, V-A:ARG:545:CG:4920, V-A:GLY:454:CA:4047, V-A:TYR:484:CZ:4345, V-B:TYR:484:CZ:9319, V-A:HIS:456:CB:4063, V-B:GLY:454:CA:9021, V-A:LYS:547:CD:4947, V-B:GLY:453:C:9014, V-B:GLY:453:CA:9016, V-A:GLY:453:C:4040, V-A:GLY:453:CA:4042, V-B:TYR:484:CE1:9317, V-A:TYR:484:CE1:4343, V-A:GLU:543:CA:4902"]

$$$$
RR4_Rahimova_2017
     RDKit          3D

 40 44  0  0  0  0  0  0  0  0999 V2000
  130.1200  120.5450   60.6850 C   0  0  0  0  0  0  0  0  0  0  0  0
  130.6170  121.5830   59.8480 O   0  0  0  0  0  0  0  0  0  0  0  0
  130.2530  122.8910   60.1070 C   0  0  0  0  0  0  0  0  0  0  0  0
  131.2220  123.8660   59.8800 C   0  0  0  0  0  0  0  0  0  0  0  0
  130.9440  125.2090   60.1120 C   0  0  0  0  0  0  0  0  0  0  0  0
  129.6870  125.6180   60.5820 C   0  0  0  0  0  0  0  0  0  0  0  0
  129.3910  127.0690   60.8320 C   0  0  0  0  0  0  0  0  0  0  0  0
  128.3190  127.4990   61.6210 C   0  0  0  0  0  0  0  0  0  0  0  0
  128.0870  128.8650   61.8280 C   0  0  0  0  0  0  0  0  0  0  0  0
  126.9400  129.2470   62.7060 C   0  0  0  0  0  0  0  0  0  0  0  0
  127.0890  129.2470   64.0960 C   0  0  0  0  0  0  0  0  0  0  0  0
  126.0290  129.6130   64.9210 C   0  0  0  0  0  0  0  0  0  0  0  0
  124.8030  129.9920   64.3740 C   0  0  0  0  0  0  0  0  0  0  0  0
  123.8100  130.3400   65.2690 O   0  0  0  0  0  0  0  0  0  0  0  0
  123.9210  129.9240   66.6260 C   0  0  0  0  0  0  0  0  0  0  0  0
  124.6510  129.9990   62.9790 C   0  0  0  0  0  0  0  0  0  0  0  0
  125.7130  129.6330   62.1560 C   0  0  0  0  0  0  0  0  0  0  0  0
  128.9450  129.7980   61.1970 C   0  0  0  0  0  0  0  0  0  0  0  0
  128.7470  131.2390   61.3810 C   0  0  0  0  0  0  0  0  0  0  0  0
  128.5910  132.3770   61.5260 N   0  0  0  0  0  0  0  0  0  0  0  0
  129.9900  129.2950   60.3900 C   0  0  0  0  0  0  0  0  0  0  0  0
  131.1530  130.3190   59.5130 S   0  0  0  0  0  0  0  0  0  0  0  0
  130.5520  130.5040   57.8010 C   0  0  0  0  0  0  0  0  0  0  0  0
  129.4040  129.5580   57.4230 C   0  0  0  0  0  0  0  0  0  0  0  0
  128.3600  130.0020   56.9390 O   0  0  0  0  0  0  0  0  0  0  0  0
  129.6400  128.2500   57.6790 N   0  0  0  0  0  0  0  0  0  0  0  0
  128.8040  127.1550   57.4490 C   0  0  0  0  0  0  0  0  0  0  0  0
  127.2530  126.9670   58.2230 S   0  0  0  0  0  0  0  0  0  0  0  0
  126.9690  125.4570   57.4130 C   0  0  0  0  0  0  0  0  0  0  0  0
  128.0410  125.1110   56.5770 C   0  0  0  0  0  0  0  0  0  0  0  0
  129.0720  126.0810   56.5860 C   0  0  0  0  0  0  0  0  0  0  0  0
  130.2890  125.9690   55.7880 C   0  0  0  0  0  0  0  0  0  0  0  0
  131.2540  125.8800   55.1550 N   0  0  0  0  0  0  0  0  0  0  0  0
  128.0140  123.8380   55.7220 C   0  0  0  0  0  0  0  0  0  0  0  0
  126.5750  123.2830   55.6170 C   0  0  0  0  0  0  0  0  0  0  0  0
  125.8620  123.2550   56.9800 C   0  0  0  0  0  0  0  0  0  0  0  0
  125.6730  124.6710   57.5630 C   0  0  0  0  0  0  0  0  0  0  0  0
  130.2120  127.9690   60.2320 N   0  0  0  0  0  0  0  0  0  0  0  0
  128.7160  124.6290   60.8030 C   0  0  0  0  0  0  0  0  0  0  0  0
  128.9910  123.2840   60.5720 C   0  0  0  0  0  0  0  0  0  0  0  0
  1  2  1  0
  2  3  1  0
  3  4  2  0
  4  5  1  0
  5  6  2  0
  6  7  1  0
  7  8  2  0
  8  9  1  0
  9 10  1  0
 10 11  2  0
 11 12  1  0
 12 13  2  0
 13 14  1  0
 14 15  1  0
 13 16  1  0
 16 17  2  0
  9 18  2  0
 18 19  1  0
 19 20  3  0
 18 21  1  0
 21 22  1  0
 22 23  1  0
 23 24  1  0
 24 25  2  0
 24 26  1  0
 26 27  1  0
 27 28  1  0
 28 29  1  0
 29 30  2  0
 30 31  1  0
 31 32  1  0
 32 33  3  0
 30 34  1  0
 34 35  1  0
 35 36  1  0
 36 37  1  0
 21 38  2  0
  6 39  1  0
 39 40  2  0
 40  3  1  0
 38  7  1  0
 17 10  1  0
 31 27  2  0
 37 29  1  0
M  END
>  <Binding energies>  (52) 
[-8.37]

>  <Ligand effiencies>  (52) 
[-0.20414634146341462]

>  <Interactions>  (52) 
["V-B:TYR:539:CD2:9846, V-B:PRO:540:CA:9855, V-A:LEU:475:CD2:4257, V-B:ALA:541:CB:9864, V-B:TYR:539:CE2:9848, V-B:PRO:540:N:9856, V-B:ILE:538:CB:9834, H-A:TYR:531:OH:4793, V-B:PRO:540:CD:9859, V-B:PRO:540:CB:9857, H-A:ASP:366:OD2:3213, H-A:ALA:541:N:4889, V-B:TYR:539:CE1:9847, V-A:GLU:543:CD:4906, V-B:ILE:538:CA:9832, V-B:TYR:539:C:9839, V-B:ARG:545:CZ:9898, H-B:ARG:545:NE:9896, H-B:GLY:454:N:9022, H-B:TYR:484:OH:9320, V-B:HIS:456:CE1:9042, H-B:TYR:539:OH:9850, V-B:ARG:545:CG:9894, V-B:ARG:545:CD:9895, V-B:TYR:484:CZ:9319, V-B:GLY:454:CA:9021"]

$$$$
RR6_Rahimova_2017
     RDKit          3D

 38 41  0  0  0  0  0  0  0  0999 V2000
  132.5650  131.5720   56.0450 C   0  0  0  0  0  0  0  0  0  0  0  0
  131.5110  131.2670   55.1420 O   0  0  0  0  0  0  0  0  0  0  0  0
  130.2150  131.4950   55.4770 C   0  0  0  0  0  0  0  0  0  0  0  0
  129.7580  132.6210   55.6970 O   0  0  0  0  0  0  0  0  0  0  0  0
  129.3930  130.2410   55.5540 C   0  0  0  0  0  0  0  0  0  0  0  0
  128.1900  130.0970   54.8470 C   0  0  0  0  0  0  0  0  0  0  0  0
  127.4450  128.9230   54.9450 C   0  0  0  0  0  0  0  0  0  0  0  0
  127.8920  127.8720   55.7590 C   0  0  0  0  0  0  0  0  0  0  0  0
  127.2060  126.6590   55.9520 N   0  0  0  0  0  0  0  0  0  0  0  0
  127.4600  125.4390   55.4280 C   0  0  0  0  0  0  0  0  0  0  0  0
  128.3870  125.1690   54.6650 O   0  0  0  0  0  0  0  0  0  0  0  0
  126.4540  124.3420   55.7900 C   0  0  0  0  0  0  0  0  0  0  0  0
  126.8420  123.4750   57.3470 S   0  0  0  0  0  0  0  0  0  0  0  0
  127.5210  124.6910   58.4560 C   0  0  0  0  0  0  0  0  0  0  0  0
  126.8770  125.8830   58.4390 N   0  0  0  0  0  0  0  0  0  0  0  0
  127.2850  126.8800   59.2640 C   0  0  0  0  0  0  0  0  0  0  0  0
  126.4810  128.1470   59.2280 C   0  0  0  0  0  0  0  0  0  0  0  0
  126.3330  128.9420   60.3750 C   0  0  0  0  0  0  0  0  0  0  0  0
  125.5760  130.1100   60.3450 C   0  0  0  0  0  0  0  0  0  0  0  0
  124.9550  130.5080   59.1620 C   0  0  0  0  0  0  0  0  0  0  0  0
  124.1220  131.7770   59.1360 C   0  0  0  0  0  0  0  0  0  0  0  0
  125.0900  129.7340   58.0120 C   0  0  0  0  0  0  0  0  0  0  0  0
  125.8490  128.5680   58.0470 C   0  0  0  0  0  0  0  0  0  0  0  0
  128.3730  126.6970   60.1230 C   0  0  0  0  0  0  0  0  0  0  0  0
  129.0590  125.4750   60.1560 C   0  0  0  0  0  0  0  0  0  0  0  0
  130.1990  125.3420   61.1110 C   0  0  0  0  0  0  0  0  0  0  0  0
  131.3870  124.7250   60.7060 C   0  0  0  0  0  0  0  0  0  0  0  0
  132.4610  124.6110   61.5850 C   0  0  0  0  0  0  0  0  0  0  0  0
  132.3710  125.1160   62.8810 C   0  0  0  0  0  0  0  0  0  0  0  0
  133.4860  124.9600   63.6820 O   0  0  0  0  0  0  0  0  0  0  0  0
  133.3590  125.1330   65.0890 C   0  0  0  0  0  0  0  0  0  0  0  0
  131.1840  125.7410   63.2910 C   0  0  0  0  0  0  0  0  0  0  0  0
  130.1120  125.8540   62.4090 C   0  0  0  0  0  0  0  0  0  0  0  0
  128.6270  124.4380   59.2930 C   0  0  0  0  0  0  0  0  0  0  0  0
  129.3170  123.1440   59.2560 C   0  0  0  0  0  0  0  0  0  0  0  0
  129.8610  122.1230   59.2280 N   0  0  0  0  0  0  0  0  0  0  0  0
  129.0970  128.0050   56.4500 C   0  0  0  0  0  0  0  0  0  0  0  0
  129.8380  129.1800   56.3530 C   0  0  0  0  0  0  0  0  0  0  0  0
  1  2  1  0
  2  3  1  0
  3  4  2  0
  3  5  1  0
  5  6  2  0
  6  7  1  0
  7  8  2  0
  8  9  1  0
  9 10  1  0
 10 11  2  0
 10 12  1  0
 12 13  1  0
 13 14  1  0
 14 15  2  0
 15 16  1  0
 16 17  1  0
 17 18  2  0
 18 19  1  0
 19 20  2  0
 20 21  1  0
 20 22  1  0
 22 23  2  0
 16 24  2  0
 24 25  1  0
 25 26  1  0
 26 27  2  0
 27 28  1  0
 28 29  2  0
 29 30  1  0
 30 31  1  0
 29 32  1  0
 32 33  2  0
 25 34  2  0
 34 35  1  0
 35 36  3  0
  8 37  1  0
 37 38  2  0
 38  5  1  0
 34 14  1  0
 23 17  1  0
 33 26  1  0
M  END
>  <Binding energies>  (53) 
[-7.92]

>  <Ligand effiencies>  (53) 
[-0.20307692307692307]

>  <Interactions>  (53) 
["V-B:ASP:366:CG:8185, V-B:TYR:539:CD2:9846, H-B:TYR:531:OH:9767, V-A:ILE:538:CB:4860, V-A:TYR:531:CZ:4792, V-B:TYR:539:CE2:9848, H-A:TYR:531:OH:4793, V-B:ILE:369:CG2:8209, V-A:TYR:539:CE2:4874, V-A:TYR:539:CZ:4875, V-A:HIS:456:CE1:4068, H-A:ARG:545:NE:4922, H-A:TYR:484:OH:4346, H-A:GLY:454:N:4048, V-B:GLU:543:CD:9880, V-A:ARG:545:CZ:4924, H-A:ARG:545:NH2:4926, V-A:TYR:531:CE2:4791, V-B:ASP:366:CB:8184, H-A:TYR:539:N:4868, V-A:ARG:545:CD:4921, V-A:ARG:545:CG:4920, H-A:ARG:545:NH1:4925"]

$$$$
RR7_Rahimova_2017
     RDKit          3D

 47 53  0  0  0  0  0  0  0  0999 V2000
  127.3410  132.6100   63.4580 C   0  0  0  0  0  0  0  0  0  0  0  0
  127.5560  133.3040   62.2320 O   0  0  0  0  0  0  0  0  0  0  0  0
  128.0680  132.6150   61.1500 C   0  0  0  0  0  0  0  0  0  0  0  0
  129.2060  131.8450   61.3830 C   0  0  0  0  0  0  0  0  0  0  0  0
  129.7900  131.1120   60.3550 C   0  0  0  0  0  0  0  0  0  0  0  0
  129.2540  131.1420   59.0590 C   0  0  0  0  0  0  0  0  0  0  0  0
  129.8680  130.3040   57.8950 C   0  0  0  0  0  0  0  0  0  0  0  0
  128.8720  130.2720   56.8470 O   0  0  0  0  0  0  0  0  0  0  0  0
  128.6520  129.0690   56.1040 C   0  0  0  0  0  0  0  0  0  0  0  0
  127.1590  128.7090   56.1650 C   0  0  1  0  0  0  0  0  0  0  0  0
  126.9350  128.0890   57.4290 O   0  0  0  0  0  0  0  0  0  0  0  0
  125.9820  128.7770   58.1870 C   0  0  1  0  0  0  0  0  0  0  0  0
  126.3000  128.6760   59.5990 N   0  0  0  0  0  0  0  0  0  0  0  0
  127.0790  127.7220   60.2310 C   0  0  0  0  0  0  0  0  0  0  0  0
  127.1640  127.8410   61.5330 N   0  0  0  0  0  0  0  0  0  0  0  0
  126.3600  128.9110   61.8170 C   0  0  0  0  0  0  0  0  0  0  0  0
  126.0160  129.5360   63.0310 C   0  0  0  0  0  0  0  0  0  0  0  0
  126.5690  129.0390   64.2270 N   0  0  0  0  0  0  0  0  0  0  0  0
  126.1420  129.2130   65.5000 C   0  0  0  0  0  0  0  0  0  0  0  0
  125.1600  129.8870   65.8170 O   0  0  0  0  0  0  0  0  0  0  0  0
  126.9790  128.5420   66.5690 C   0  0  0  0  0  0  0  0  0  0  0  0
  126.3740  127.6440   67.4620 C   0  0  0  0  0  0  0  0  0  0  0  0
  127.1250  127.0120   68.4480 C   0  0  0  0  0  0  0  0  0  0  0  0
  128.4890  127.2680   68.5470 C   0  0  0  0  0  0  0  0  0  0  0  0
  129.1090  128.1520   67.6680 C   0  0  0  0  0  0  0  0  0  0  0  0
  128.3580  128.7860   66.6820 C   0  0  0  0  0  0  0  0  0  0  0  0
  125.1570  130.5990   63.0150 N   0  0  0  0  0  0  0  0  0  0  0  0
  124.6710  131.0040   61.8130 C   0  0  0  0  0  0  0  0  0  0  0  0
  124.9370  130.4780   60.5870 N   0  0  0  0  0  0  0  0  0  0  0  0
  125.7870  129.4430   60.6330 C   0  0  0  0  0  0  0  0  0  0  0  0
  125.9750  130.1960   57.6300 C   0  0  0  0  0  0  0  0  0  0  0  0
  126.2010  129.9090   56.1560 C   0  0  2  0  0  0  0  0  0  0  0  0
  124.9890  129.6290   55.4770 O   0  0  0  0  0  0  0  0  0  0  0  0
  131.1350  130.9690   57.2940 C   0  0  0  0  0  0  0  0  0  0  0  0
  132.3620  130.9000   57.9750 C   0  0  0  0  0  0  0  0  0  0  0  0
  133.5010  131.5030   57.4530 C   0  0  0  0  0  0  0  0  0  0  0  0
  133.4260  132.1850   56.2420 C   0  0  0  0  0  0  0  0  0  0  0  0
  132.2210  132.2670   55.5500 C   0  0  0  0  0  0  0  0  0  0  0  0
  131.0810  131.6640   56.0740 C   0  0  0  0  0  0  0  0  0  0  0  0
  130.2890  128.8510   58.2550 C   0  0  0  0  0  0  0  0  0  0  0  0
  131.0290  128.0800   57.3440 C   0  0  0  0  0  0  0  0  0  0  0  0
  131.4020  126.7760   57.6530 C   0  0  0  0  0  0  0  0  0  0  0  0
  131.0310  126.2240   58.8760 C   0  0  0  0  0  0  0  0  0  0  0  0
  130.2860  126.9660   59.7880 C   0  0  0  0  0  0  0  0  0  0  0  0
  129.9140  128.2700   59.4770 C   0  0  0  0  0  0  0  0  0  0  0  0
  128.1010  131.9080   58.8330 C   0  0  0  0  0  0  0  0  0  0  0  0
  127.5160  132.6400   59.8620 C   0  0  0  0  0  0  0  0  0  0  0  0
  1  2  1  0
  2  3  1  0
  3  4  2  0
  4  5  1  0
  5  6  2  0
  6  7  1  0
  7  8  1  0
  8  9  1  0
 10  9  1  1
 10 11  1  0
 11 12  1  0
 12 13  1  1
 13 14  1  0
 14 15  2  0
 15 16  1  0
 16 17  2  0
 17 18  1  0
 18 19  1  0
 19 20  2  0
 19 21  1  0
 21 22  2  0
 22 23  1  0
 23 24  2  0
 24 25  1  0
 25 26  2  0
 17 27  1  0
 27 28  2  0
 28 29  1  0
 29 30  2  0
 12 31  1  0
 31 32  1  0
 32 33  1  6
  7 34  1  0
 34 35  2  0
 35 36  1  0
 36 37  2  0
 37 38  1  0
 38 39  2  0
  7 40  1  0
 40 41  2  0
 41 42  1  0
 42 43  2  0
 43 44  1  0
 44 45  2  0
  6 46  1  0
 46 47  2  0
 47  3  1  0
 32 10  1  0
 39 34  1  0
 45 40  1  0
 30 13  1  0
 30 16  1  0
 26 21  1  0
M  END
>  <Binding energies>  (54) 
[-9.67]

>  <Ligand effiencies>  (54) 
[-0.1973469387755102]

>  <Interactions>  (54) 
["V-A:ILE:538:CG2:4861, V-A:PRO:540:CD:4885, V-B:ASP:366:CG:8185, V-A:PRO:540:N:4882, H-B:TYR:531:OH:9767, V-A:ILE:538:CB:4860, V-A:ILE:538:CA:4858, V-A:ASP:366:CG:3211, V-A:TYR:539:CD2:4872, V-A:ASP:366:CB:3210, V-A:TYR:539:CE2:4874, V-A:TYR:539:CZ:4875, H-B:GLU:543:OE2:9882, V-A:PRO:540:CA:4881, H-A:GLU:543:OE2:4908, V-A:ALA:541:CB:4890, V-A:GLU:543:CD:4906, H-B:ARG:545:NH2:9900, H-A:GLU:543:OE1:4907, V-B:GLU:543:CD:9880, V-B:ARG:545:CZ:9898, V-B:GLU:543:CG:9879, H-B:ARG:545:NE:9896, V-A:GLU:543:CG:4905, V-A:PRO:540:CB:4883, V-A:LEU:363:CD1:3187, H-B:TYR:484:OH:9320, V-A:GLU:543:CB:4904, V-A:TYR:531:CE2:4791, V-B:HIS:456:CE1:9042, V-B:ASP:366:CB:8184, H-A:TYR:539:OH:4876, V-B:GLY:544:C:9884, V-A:GLU:543:C:4900, V-B:GLU:543:C:9874, V-B:ARG:545:CG:9894, V-B:ARG:545:CD:9895, V-A:LEU:363:CA:3183, V-A:PRO:540:CG:4884, V-B:ARG:545:CB:9893"]

$$$$
RR8_A_Rahimova_2017
     RDKit          3D

 42 46  0  0  0  0  0  0  0  0999 V2000
  130.1380  132.4350   54.8930 O   0  0  0  0  0  0  0  0  0  0  0  0
  129.4650  131.7870   55.7020 C   0  0  0  0  0  0  0  0  0  0  0  0
  128.2340  131.2530   55.4310 O   0  0  0  0  0  0  0  0  0  0  0  0
  128.1620  129.8730   55.1980 C   0  0  1  0  0  0  0  0  0  0  0  0
  129.4240  129.2740   55.2610 O   0  0  0  0  0  0  0  0  0  0  0  0
  129.3700  127.9910   55.8790 C   0  0  2  0  0  0  0  0  0  0  0  0
  129.9740  126.9560   54.9150 C   0  0  0  0  0  0  0  0  0  0  0  0
  131.0020  126.2450   55.5910 O   0  0  0  0  0  0  0  0  0  0  0  0
  131.1560  126.6090   56.9560 C   0  0  0  0  0  0  0  0  0  0  0  0
  131.8620  125.4930   57.7120 C   0  0  0  0  0  0  0  0  0  0  0  0
  133.1020  125.0280   57.2680 C   0  0  0  0  0  0  0  0  0  0  0  0
  133.7540  124.0110   57.9610 C   0  0  0  0  0  0  0  0  0  0  0  0
  133.1650  123.4640   59.1000 C   0  0  0  0  0  0  0  0  0  0  0  0
  131.9310  123.9260   59.5520 C   0  0  0  0  0  0  0  0  0  0  0  0
  131.2800  124.9440   58.8600 C   0  0  0  0  0  0  0  0  0  0  0  0
  127.8820  127.8030   56.2020 C   0  0  1  0  0  0  0  0  0  0  0  0
  127.6560  127.1620   57.4550 O   0  0  0  0  0  0  0  0  0  0  0  0
  128.0160  125.7870   57.5190 C   0  0  0  0  0  0  0  0  0  0  0  0
  126.9170  124.9330   56.9020 C   0  0  0  0  0  0  0  0  0  0  0  0
  127.0880  124.4000   55.6210 C   0  0  0  0  0  0  0  0  0  0  0  0
  126.0830  123.6260   55.0480 C   0  0  0  0  0  0  0  0  0  0  0  0
  124.9060  123.3890   55.7550 C   0  0  0  0  0  0  0  0  0  0  0  0
  124.7230  123.9230   57.0280 C   0  0  0  0  0  0  0  0  0  0  0  0
  125.7280  124.6980   57.6020 C   0  0  0  0  0  0  0  0  0  0  0  0
  127.3680  129.2260   56.3230 C   0  0  2  0  0  0  0  0  0  0  0  0
  125.9570  129.2690   56.1270 O   0  0  0  0  0  0  0  0  0  0  0  0
  125.1670  128.8820   57.2460 C   0  0  0  0  0  0  0  0  0  0  0  0
  125.0580  130.0380   58.2290 C   0  0  0  0  0  0  0  0  0  0  0  0
  123.8580  130.7450   58.3530 C   0  0  0  0  0  0  0  0  0  0  0  0
  123.7610  131.7970   59.2610 C   0  0  0  0  0  0  0  0  0  0  0  0
  124.8610  132.1360   60.0450 C   0  0  0  0  0  0  0  0  0  0  0  0
  126.0580  131.4330   59.9310 C   0  0  0  0  0  0  0  0  0  0  0  0
  126.1570  130.3810   59.0230 C   0  0  0  0  0  0  0  0  0  0  0  0
  129.9300  131.4910   57.0980 C   0  0  0  0  0  0  0  0  0  0  0  0
  131.1370  130.8210   57.3530 C   0  0  0  0  0  0  0  0  0  0  0  0
  131.5390  130.5610   58.6600 C   0  0  0  0  0  0  0  0  0  0  0  0
  130.7480  130.9610   59.7440 C   0  0  0  0  0  0  0  0  0  0  0  0
  131.1790  130.6850   61.1360 N   0  0  0  0  0  0  0  0  0  0  0  0
  130.8760  129.6090   61.6440 O   0  0  0  0  0  0  0  0  0  0  0  0
  131.8260  131.5410   61.7330 O   0  0  0  0  0  0  0  0  0  0  0  0
  129.5430  131.6270   59.4890 C   0  0  0  0  0  0  0  0  0  0  0  0
  129.1380  131.8880   58.1840 C   0  0  0  0  0  0  0  0  0  0  0  0
  1  2  2  0
  2  3  1  0
  4  3  1  1
  4  5  1  0
  5  6  1  0
  6  7  1  6
  7  8  1  0
  8  9  1  0
  9 10  1  0
 10 11  2  0
 11 12  1  0
 12 13  2  0
 13 14  1  0
 14 15  2  0
  6 16  1  0
 16 17  1  1
 17 18  1  0
 18 19  1  0
 19 20  2  0
 20 21  1  0
 21 22  2  0
 22 23  1  0
 23 24  2  0
 16 25  1  0
 25 26  1  6
 26 27  1  0
 27 28  1  0
 28 29  2  0
 29 30  1  0
 30 31  2  0
 31 32  1  0
 32 33  2  0
  2 34  1  0
 34 35  2  0
 35 36  1  0
 36 37  2  0
 37 38  1  0
 38 39  2  0
 38 40  1  0
 37 41  1  0
 41 42  2  0
 25  4  1  0
 33 28  1  0
 42 34  1  0
 15 10  1  0
 24 19  1  0
M  CHG  2  38   1  40  -1
M  END
>  <Binding energies>  (55) 
[-10.62]

>  <Ligand effiencies>  (55) 
[-0.25285714285714284]

>  <Interactions>  (55) 
["V-B:ASP:366:CG:8185, H-B:TYR:531:OH:9767, V-A:ILE:369:CG2:3235, V-B:TYR:539:CE2:9848, V-B:ILE:538:CB:9834, V-A:ASP:366:CG:3211, V-B:ILE:369:CD1:8211, H-A:TYR:531:OH:4793, V-B:TYR:531:CE2:9765, V-B:PRO:540:CD:9859, V-B:PRO:540:CB:9857, V-B:ILE:369:CG2:8209, V-A:ASP:366:CB:3210, V-A:TYR:539:CE2:4874, V-B:ILE:538:CG2:9835, V-A:TYR:539:CZ:4875, H-A:ALA:541:N:4889, V-A:PRO:540:CA:4881, V-B:TYR:539:CZ:9849, V-A:GLU:543:CD:4906, V-B:ILE:538:CA:9832, V-B:TYR:531:CZ:9766, V-A:TYR:539:C:4865, H-A:ARG:545:NH2:4926, V-B:ASP:366:C:8180, V-B:ASP:366:CB:8184, V-B:ILE:369:CB:8208, V-A:ILE:369:CB:3234, H-A:TYR:539:OH:4876, V-B:ASP:366:CA:8182, V-B:TYR:531:CE1:9764, H-A:TYR:539:N:4868, V-A:ASP:366:CA:3208, V-A:ASP:366:C:3206"]

$$$$
RR8_B_Rahimova_2017
     RDKit          3D

 42 46  0  0  0  0  0  0  0  0999 V2000
  133.2380  125.4730   56.3580 O   0  0  0  0  0  0  0  0  0  0  0  0
  132.3670  125.1280   57.1640 C   0  0  0  0  0  0  0  0  0  0  0  0
  131.0420  124.9870   56.8560 O   0  0  0  0  0  0  0  0  0  0  0  0
  130.6360  125.2490   55.5350 C   0  0  2  0  0  0  0  0  0  0  0  0
  130.8620  126.5830   55.1750 O   0  0  0  0  0  0  0  0  0  0  0  0
  129.7220  127.3970   55.4450 C   0  0  2  0  0  0  0  0  0  0  0  0
  130.1190  128.5340   56.4040 C   0  0  0  0  0  0  0  0  0  0  0  0
  129.4690  129.7340   56.0010 O   0  0  0  0  0  0  0  0  0  0  0  0
  129.6710  130.8420   56.8650 C   0  0  0  0  0  0  0  0  0  0  0  0
  131.1480  131.2090   56.8710 C   0  0  0  0  0  0  0  0  0  0  0  0
  131.6900  131.9240   55.7990 C   0  0  0  0  0  0  0  0  0  0  0  0
  133.0460  132.2420   55.7870 C   0  0  0  0  0  0  0  0  0  0  0  0
  133.8550  131.8450   56.8500 C   0  0  0  0  0  0  0  0  0  0  0  0
  133.3210  131.1380   57.9250 C   0  0  0  0  0  0  0  0  0  0  0  0
  131.9650  130.8170   57.9350 C   0  0  0  0  0  0  0  0  0  0  0  0
  128.6740  126.4170   55.9830 C   0  0  1  0  0  0  0  0  0  0  0  0
  127.3710  126.8090   55.5430 O   0  0  0  0  0  0  0  0  0  0  0  0
  127.1340  128.2090   55.3770 C   0  0  0  0  0  0  0  0  0  0  0  0
  126.5210  128.8430   56.6230 C   0  0  0  0  0  0  0  0  0  0  0  0
  125.4420  129.7230   56.5020 C   0  0  0  0  0  0  0  0  0  0  0  0
  124.8640  130.2740   57.6430 C   0  0  0  0  0  0  0  0  0  0  0  0
  125.3700  129.9470   58.8990 C   0  0  0  0  0  0  0  0  0  0  0  0
  126.4480  129.0740   59.0260 C   0  0  0  0  0  0  0  0  0  0  0  0
  127.0250  128.5190   57.8860 C   0  0  0  0  0  0  0  0  0  0  0  0
  129.1220  125.0710   55.4230 C   0  0  2  0  0  0  0  0  0  0  0  0
  128.6080  124.0060   56.2170 O   0  0  0  0  0  0  0  0  0  0  0  0
  127.5630  123.2480   55.6260 C   0  0  0  0  0  0  0  0  0  0  0  0
  126.2750  123.5520   56.3710 C   0  0  0  0  0  0  0  0  0  0  0  0
  126.3150  124.1120   57.6510 C   0  0  0  0  0  0  0  0  0  0  0  0
  125.1280  124.3680   58.3320 C   0  0  0  0  0  0  0  0  0  0  0  0
  123.9080  124.0660   57.7330 C   0  0  0  0  0  0  0  0  0  0  0  0
  123.8610  123.5090   56.4560 C   0  0  0  0  0  0  0  0  0  0  0  0
  125.0470  123.2530   55.7740 C   0  0  0  0  0  0  0  0  0  0  0  0
  132.6510  124.8520   58.6120 C   0  0  0  0  0  0  0  0  0  0  0  0
  133.6910  124.0000   59.0130 C   0  0  0  0  0  0  0  0  0  0  0  0
  133.9250  123.7560   60.3610 C   0  0  0  0  0  0  0  0  0  0  0  0
  133.1220  124.3480   61.3430 C   0  0  0  0  0  0  0  0  0  0  0  0
  133.3570  124.0650   62.7810 N   0  0  0  0  0  0  0  0  0  0  0  0
  133.8530  124.9450   63.4800 O   0  0  0  0  0  0  0  0  0  0  0  0
  133.0430  122.9630   63.2230 O   0  0  0  0  0  0  0  0  0  0  0  0
  132.0870  125.2040   60.9440 C   0  0  0  0  0  0  0  0  0  0  0  0
  131.8570  125.4540   59.5950 C   0  0  0  0  0  0  0  0  0  0  0  0
  1  2  2  0
  2  3  1  0
  4  3  1  1
  4  5  1  0
  5  6  1  0
  6  7  1  1
  7  8  1  0
  8  9  1  0
  9 10  1  0
 10 11  2  0
 11 12  1  0
 12 13  2  0
 13 14  1  0
 14 15  2  0
  6 16  1  0
 16 17  1  6
 17 18  1  0
 18 19  1  0
 19 20  2  0
 20 21  1  0
 21 22  2  0
 22 23  1  0
 23 24  2  0
 16 25  1  0
 25 26  1  1
 26 27  1  0
 27 28  1  0
 28 29  2  0
 29 30  1  0
 30 31  2  0
 31 32  1  0
 32 33  2  0
  2 34  1  0
 34 35  2  0
 35 36  1  0
 36 37  2  0
 37 38  1  0
 38 39  2  0
 38 40  1  0
 37 41  1  0
 41 42  2  0
 25  4  1  0
 33 28  1  0
 42 34  1  0
 15 10  1  0
 24 19  1  0
M  CHG  2  38   1  40  -1
M  END
>  <Binding energies>  (56) 
[-11.21]

>  <Ligand effiencies>  (56) 
[-0.2669047619047619]

>  <Interactions>  (56) 
["V-A:ILE:538:CG2:4861, V-A:PRO:540:CD:4885, V-B:ASP:366:CG:8185, H-B:TYR:531:OH:9767, V-B:PRO:540:CA:9855, V-A:ILE:369:CG2:3235, V-A:ILE:538:CB:4860, V-A:ILE:538:CA:4858, V-A:ILE:369:CD1:3237, V-B:TYR:539:CE2:9848, V-B:PRO:540:N:9856, V-B:ILE:538:CB:9834, V-A:ASP:366:CG:3211, H-A:TYR:531:OH:4793, V-B:TYR:531:CE2:9765, V-B:PRO:540:CD:9859, V-B:PRO:540:CB:9857, V-A:ASP:366:CB:3210, V-A:TYR:539:CE2:4874, V-B:ILE:538:CG2:9835, V-A:TYR:539:CZ:4875, V-A:PRO:540:CA:4881, V-B:TYR:539:CZ:9849, V-B:TYR:539:CE1:9847, V-B:ILE:538:CA:9832, H-A:ARG:545:NE:4922, H-A:TYR:484:OH:4346, V-B:LEU:363:CD1:8161, H-A:GLY:454:N:4048, V-B:TYR:531:CZ:9766, V-B:TYR:539:CD1:9845, V-A:PRO:540:CB:4883, V-A:LEU:363:CD1:3187, H-A:ARG:545:NH2:4926, V-A:TYR:531:CE2:4791, H-B:TYR:539:OH:9850, V-B:ASP:366:CB:8184, V-B:TYR:531:CE1:9764, V-A:GLY:454:CA:4047, V-A:LEU:363:CB:3185, V-A:LEU:363:CA:3183, V-A:ASP:366:CA:3208, V-B:LEU:363:CA:8157, H-A:ARG:545:NH1:4925, V-A:PRO:540:CG:4884"]

$$$$
RR9_Rahimova_2017
     RDKit          3D

 36 40  0  0  0  0  0  0  0  0999 V2000
  127.1400  135.5260   61.3450 C   0  0  0  0  0  0  0  0  0  0  0  0
  125.9850  134.7040   60.7650 C   0  0  0  0  0  0  0  0  0  0  0  0
  125.5990  133.7210   61.7210 O   0  0  0  0  0  0  0  0  0  0  0  0
  126.1230  132.4460   61.6320 C   0  0  0  0  0  0  0  0  0  0  0  0
  127.4270  132.3400   61.1520 C   0  0  0  0  0  0  0  0  0  0  0  0
  128.0370  131.0960   61.0250 C   0  0  0  0  0  0  0  0  0  0  0  0
  127.3590  129.9200   61.3780 C   0  0  0  0  0  0  0  0  0  0  0  0
  128.0100  128.5750   61.2390 C   0  0  0  0  0  0  0  0  0  0  0  0
  127.2650  127.3870   61.2960 C   0  0  0  0  0  0  0  0  0  0  0  0
  127.8780  126.1300   61.1520 C   0  0  0  0  0  0  0  0  0  0  0  0
  127.0120  124.9000   61.1200 C   0  0  0  0  0  0  0  0  0  0  0  0
  127.4210  123.8390   61.5920 O   0  0  0  0  0  0  0  0  0  0  0  0
  125.8090  125.0460   60.5320 N   0  0  0  0  0  0  0  0  0  0  0  0
  124.8470  123.9710   60.2630 C   0  0  0  0  0  0  0  0  0  0  0  0
  124.3040  123.9930   58.8160 C   0  0  0  0  0  0  0  0  0  0  0  0
  125.3450  123.7020   57.7400 C   0  0  0  0  0  0  0  0  0  0  0  0
  124.9670  123.6480   56.3950 C   0  0  0  0  0  0  0  0  0  0  0  0
  125.9260  123.4170   55.4120 C   0  0  0  0  0  0  0  0  0  0  0  0
  127.2580  123.2350   55.7780 C   0  0  0  0  0  0  0  0  0  0  0  0
  127.6410  123.2830   57.1170 C   0  0  0  0  0  0  0  0  0  0  0  0
  126.6820  123.5160   58.1000 C   0  0  0  0  0  0  0  0  0  0  0  0
  129.2850  126.1340   60.9840 C   0  0  0  0  0  0  0  0  0  0  0  0
  130.3640  125.1860   60.8370 C   0  0  0  0  0  0  0  0  0  0  0  0
  130.3320  123.6950   60.8950 C   0  0  0  0  0  0  0  0  0  0  0  0
  130.8440  123.0230   62.0090 C   0  0  0  0  0  0  0  0  0  0  0  0
  130.8280  121.6310   62.0550 C   0  0  0  0  0  0  0  0  0  0  0  0
  130.2950  120.9060   60.9880 C   0  0  0  0  0  0  0  0  0  0  0  0
  130.2940  119.3890   61.0290 C   0  0  0  0  0  0  0  0  0  0  0  0
  129.7840  121.5730   59.8730 C   0  0  0  0  0  0  0  0  0  0  0  0
  129.7990  122.9640   59.8310 C   0  0  0  0  0  0  0  0  0  0  0  0
  131.5050  125.8120   60.6500 N   0  0  0  0  0  0  0  0  0  0  0  0
  131.2690  127.1320   60.7200 N   0  0  0  0  0  0  0  0  0  0  0  0
  129.9350  127.3900   60.9350 C   0  0  0  0  0  0  0  0  0  0  0  0
  129.3600  128.5860   61.0590 N   0  0  0  0  0  0  0  0  0  0  0  0
  126.0470  130.0340   61.8590 C   0  0  0  0  0  0  0  0  0  0  0  0
  125.4340  131.2780   61.9870 C   0  0  0  0  0  0  0  0  0  0  0  0
  1  2  1  0
  2  3  1  0
  3  4  1  0
  4  5  2  0
  5  6  1  0
  6  7  2  0
  7  8  1  0
  8  9  2  0
  9 10  1  0
 10 11  1  0
 11 12  2  0
 11 13  1  0
 13 14  1  0
 14 15  1  0
 15 16  1  0
 16 17  2  0
 17 18  1  0
 18 19  2  0
 19 20  1  0
 20 21  2  0
 10 22  2  0
 22 23  1  0
 23 24  1  0
 24 25  2  0
 25 26  1  0
 26 27  2  0
 27 28  1  0
 27 29  1  0
 29 30  2  0
 23 31  2  0
 31 32  1  0
 32 33  1  0
 33 34  2  0
  7 35  1  0
 35 36  2  0
 36  4  1  0
 34  8  1  0
 21 16  1  0
 33 22  1  0
 30 24  1  0
M  END
>  <Binding energies>  (57) 
[-9.27]

>  <Ligand effiencies>  (57) 
[-0.2439473684210526]

>  <Interactions>  (57) 
["V-B:ASP:366:CG:8185, V-B:TYR:539:CD2:9846, V-B:PRO:540:CA:9855, H-B:ALA:541:N:9863, V-A:LEU:475:CD2:4257, V-A:TRP:381:CZ2:3368, V-B:ALA:541:CB:9864, H-B:ASP:366:OD2:8187, V-A:TRP:381:CH2:3370, V-B:TYR:539:CE2:9848, V-B:PRO:540:N:9856, H-A:ASP:366:OD1:3212, V-B:ILE:538:CB:9834, V-A:ASP:366:CG:3211, V-A:TYR:539:CD2:4872, V-B:TYR:531:CE2:9765, V-B:PRO:540:CD:9859, V-B:PRO:540:CB:9857, V-B:LEU:475:CD2:9231, V-A:TYR:539:CE2:4874, H-A:ASP:366:OD2:3213, V-B:ILE:538:CG2:9835, V-B:TRP:381:CH2:8344, V-B:TRP:381:CZ2:8342, V-A:ALA:541:CB:4890, V-B:ILE:538:CA:9832, V-B:TYR:539:C:9839, V-B:GLU:543:CD:9880, H-A:ARG:545:NH2:4926, V-A:PRO:482:CG:4325, V-A:PRO:482:CB:4324, V-B:PRO:482:CB:9298, V-B:PRO:482:CG:9299"]

$$$$
