1a_Grossjean_2025
     RDKit          3D

 26 27  0  0  0  0  0  0  0  0999 V2000
  123.7490  123.5820   56.8420 C   0  0  0  0  0  0  0  0  0  0  0  0
  124.7480  123.5470   55.6830 C   0  0  0  0  0  0  0  0  0  0  0  0
  125.8380  122.6980   56.0210 O   0  0  0  0  0  0  0  0  0  0  0  0
  127.0630  123.2110   56.3070 C   0  0  0  0  0  0  0  0  0  0  0  0
  128.1200  122.6140   56.0790 O   0  0  0  0  0  0  0  0  0  0  0  0
  127.0040  124.5700   56.9440 C   0  0  0  0  0  0  0  0  0  0  0  0
  127.2190  125.7060   56.1530 C   0  0  0  0  0  0  0  0  0  0  0  0
  127.1750  126.9780   56.7150 C   0  0  0  0  0  0  0  0  0  0  0  0
  126.9180  127.1430   58.0760 C   0  0  0  0  0  0  0  0  0  0  0  0
  126.9000  128.4740   58.5370 N   0  0  0  0  0  0  0  0  0  0  0  0
  127.8510  129.4290   58.4700 C   0  0  0  0  0  0  0  0  0  0  0  0
  128.9650  129.2950   57.9620 O   0  0  0  0  0  0  0  0  0  0  0  0
  127.4720  130.7760   59.0890 C   0  0  0  0  0  0  0  0  0  0  0  0
  128.4540  132.1450   58.4040 S   0  0  0  0  0  0  0  0  0  0  0  0
  130.1690  131.7590   58.6730 C   0  0  0  0  0  0  0  0  0  0  0  0
  130.4670  131.4520   59.9610 N   0  0  0  0  0  0  0  0  0  0  0  0
  131.7470  131.1470   60.2780 C   0  0  0  0  0  0  0  0  0  0  0  0
  132.0060  130.8280   61.7390 C   0  0  0  0  0  0  0  0  0  0  0  0
  132.7710  131.1240   59.3340 C   0  0  0  0  0  0  0  0  0  0  0  0
  132.4710  131.4180   57.9990 C   0  0  0  0  0  0  0  0  0  0  0  0
  133.6060  131.3720   56.9790 C   0  0  0  0  0  0  0  0  0  0  0  0
  131.1400  131.7360   57.6430 C   0  0  0  0  0  0  0  0  0  0  0  0
  130.7930  132.0000   56.2440 C   0  0  0  0  0  0  0  0  0  0  0  0
  130.5220  132.2070   55.1390 N   0  0  0  0  0  0  0  0  0  0  0  0
  126.6930  126.0110   58.8750 C   0  0  0  0  0  0  0  0  0  0  0  0
  126.7380  124.7390   58.3120 C   0  0  0  0  0  0  0  0  0  0  0  0
  1  2  1  0
  2  3  1  0
  3  4  1  0
  4  5  2  0
  4  6  1  0
  6  7  2  0
  7  8  1  0
  8  9  2  0
  9 10  1  0
 10 11  1  0
 11 12  2  0
 11 13  1  0
 13 14  1  0
 14 15  1  0
 15 16  2  0
 16 17  1  0
 17 18  1  0
 17 19  2  0
 19 20  1  0
 20 21  1  0
 20 22  2  0
 22 23  1  0
 23 24  3  0
  9 25  1  0
 25 26  2  0
 26  6  1  0
 22 15  1  0
M  END
>  <Binding energies>  (1) 
[-7.79]

>  <Ligand effiencies>  (1) 
[-0.2885185185185185]

>  <Interactions>  (1) 
["V-A:PRO:540:N:4882, H-B:ASP:366:OD2:8187, V-A:TYR:531:CZ:4792, V-B:PRO:540:N:9856, V-B:ILE:538:CB:9834, V-A:ASP:366:CG:3211, V-B:TYR:531:CE2:9765, V-B:PRO:540:CD:9859, V-B:PRO:540:CB:9857, V-B:ILE:538:CG2:9835, H-A:ALA:541:N:4889, V-A:PRO:540:CA:4881, V-A:GLU:543:CD:4906, V-B:TYR:539:C:9839, V-B:LEU:363:CD1:8161, V-B:TYR:531:CZ:9766, V-A:ARG:545:CZ:4924, V-A:PRO:540:CB:4883, V-A:LEU:363:CD1:3187, V-A:TYR:539:C:4865, V-A:TYR:531:CE2:4791, H-A:TYR:539:N:4868, V-A:LEU:363:CA:3183, V-B:LEU:363:CA:8157, H-B:TYR:539:N:9842, V-B:PRO:540:CG:9858, H-B:ASP:366:OD1:8186"]

$$$$
1aa_Ghoteimi_2023
     RDKit          3D

 40 43  0  0  0  0  0  0  0  0999 V2000
  130.8420  126.3080   72.5240 C   0  0  0  0  0  0  0  0  0  0  0  0
  129.5540  127.0400   72.9100 C   0  0  0  0  0  0  0  0  0  0  0  0
  129.2870  128.0630   71.9580 O   0  0  0  0  0  0  0  0  0  0  0  0
  128.2540  127.9540   71.0840 C   0  0  0  0  0  0  0  0  0  0  0  0
  127.0760  128.1550   71.3950 O   0  0  0  0  0  0  0  0  0  0  0  0
  128.6850  127.5640   69.6990 C   0  0  0  0  0  0  0  0  0  0  0  0
  127.7620  127.3830   68.6580 C   0  0  0  0  0  0  0  0  0  0  0  0
  128.1910  127.0220   67.3830 C   0  0  0  0  0  0  0  0  0  0  0  0
  129.5580  126.8380   67.1260 C   0  0  0  0  0  0  0  0  0  0  0  0
  130.1060  126.4730   65.8830 N   0  0  0  0  0  0  0  0  0  0  0  0
  130.6110  125.2910   65.4600 C   0  0  0  0  0  0  0  0  0  0  0  0
  130.6720  124.2680   66.1410 O   0  0  0  0  0  0  0  0  0  0  0  0
  131.1440  125.2280   64.0200 C   0  0  0  0  0  0  0  0  0  0  0  0
  130.8780  126.4570   63.3320 O   0  0  0  0  0  0  0  0  0  0  0  0
  129.7610  126.5780   62.5180 C   0  0  0  0  0  0  0  0  0  0  0  0
  128.8630  127.5620   62.8030 N   0  0  0  0  0  0  0  0  0  0  0  0
  127.7490  127.7030   62.0370 C   0  0  0  0  0  0  0  0  0  0  0  0
  126.8110  128.8130   62.4160 C   0  0  0  0  0  0  0  0  0  0  0  0
  126.7250  129.2640   63.7410 C   0  0  0  0  0  0  0  0  0  0  0  0
  125.8540  130.2910   64.0950 C   0  0  0  0  0  0  0  0  0  0  0  0
  125.0450  130.8990   63.1380 C   0  0  0  0  0  0  0  0  0  0  0  0
  124.2120  131.9090   63.5810 O   0  0  0  0  0  0  0  0  0  0  0  0
  123.8520  132.9550   62.6850 C   0  0  0  0  0  0  0  0  0  0  0  0
  125.1240  130.4620   61.8090 C   0  0  0  0  0  0  0  0  0  0  0  0
  125.9950  129.4360   61.4570 C   0  0  0  0  0  0  0  0  0  0  0  0
  127.5230  126.8590   60.9430 C   0  0  0  0  0  0  0  0  0  0  0  0
  128.4370  125.8460   60.6210 C   0  0  0  0  0  0  0  0  0  0  0  0
  128.1440  124.9850   59.4360 C   0  0  0  0  0  0  0  0  0  0  0  0
  129.0660  124.8950   58.3880 C   0  0  0  0  0  0  0  0  0  0  0  0
  128.8050  124.0880   57.2850 C   0  0  0  0  0  0  0  0  0  0  0  0
  127.6230  123.3510   57.2080 C   0  0  0  0  0  0  0  0  0  0  0  0
  127.4490  122.5780   56.0760 O   0  0  0  0  0  0  0  0  0  0  0  0
  127.2230  123.2190   54.8260 C   0  0  0  0  0  0  0  0  0  0  0  0
  126.7000  123.4330   58.2610 C   0  0  0  0  0  0  0  0  0  0  0  0
  126.9620  124.2410   59.3640 C   0  0  0  0  0  0  0  0  0  0  0  0
  129.5820  125.6970   61.4380 C   0  0  0  0  0  0  0  0  0  0  0  0
  130.5690  124.6400   61.2060 C   0  0  0  0  0  0  0  0  0  0  0  0
  131.3490  123.8060   61.0240 N   0  0  0  0  0  0  0  0  0  0  0  0
  130.4780  127.0150   68.1610 C   0  0  0  0  0  0  0  0  0  0  0  0
  130.0480  127.3750   69.4340 C   0  0  0  0  0  0  0  0  0  0  0  0
  1  2  1  0
  2  3  1  0
  3  4  1  0
  4  5  2  0
  4  6  1  0
  6  7  2  0
  7  8  1  0
  8  9  2  0
  9 10  1  0
 10 11  1  0
 11 12  2  0
 11 13  1  0
 13 14  1  0
 14 15  1  0
 15 16  2  0
 16 17  1  0
 17 18  1  0
 18 19  2  0
 19 20  1  0
 20 21  2  0
 21 22  1  0
 22 23  1  0
 21 24  1  0
 24 25  2  0
 17 26  2  0
 26 27  1  0
 27 28  1  0
 28 29  2  0
 29 30  1  0
 30 31  2  0
 31 32  1  0
 32 33  1  0
 31 34  1  0
 34 35  2  0
 27 36  2  0
 36 37  1  0
 37 38  3  0
  9 39  1  0
 39 40  2  0
 40  6  1  0
 36 15  1  0
 25 18  1  0
 35 28  1  0
M  END
>  <Binding energies>  (2) 
[-8.16]

>  <Ligand effiencies>  (2) 
[-0.19902439024390245]

>  <Interactions>  (2) 
["V-B:ASP:366:CG:8185, V-B:PRO:540:CA:9855, V-B:TYR:539:CE2:9848, V-B:PRO:540:N:9856, V-B:ILE:538:CB:9834, V-B:ILE:369:CD1:8211, V-B:PRO:540:CB:9857, V-B:LEU:475:CD2:9231, V-B:ILE:538:CG2:9835, H-B:GLU:543:OE2:9882, H-B:GLU:543:OE1:9881, H-A:GLU:543:OE2:4908, V-A:GLU:543:CD:4906, V-B:ILE:538:CA:9832, V-A:HIS:456:CE1:4068, H-A:TYR:484:OH:4346, V-B:TYR:539:C:9839, H-A:GLU:543:OE1:4907, V-B:GLU:543:CD:9880, V-B:GLU:543:CB:9878, V-B:TYR:539:CD1:9845, V-B:GLU:543:CG:9879, H-B:GLY:454:N:9022, H-B:TYR:484:OH:9320, H-A:ARG:545:NH2:4926, V-B:HIS:456:CE1:9042, V-B:GLY:544:C:9884, V-A:LYS:547:CE:4948, V-A:GLY:544:C:4910, V-A:GLU:543:C:4900, V-B:LYS:547:CE:9922, V-A:HIS:456:CD2:4066, V-B:HIS:456:CD2:9040, V-B:GLU:543:C:9874, V-A:HIS:456:CG:4064, H-B:TYR:539:N:9842, V-B:GLY:454:CA:9021, V-B:ILE:538:C:9830, H-B:HIS:456:ND1:9039"]

$$$$
1b_Grossjean_2025
     RDKit          3D

 25 26  0  0  0  0  0  0  0  0999 V2000
  124.8300  123.4420   55.7270 C   0  0  0  0  0  0  0  0  0  0  0  0
  125.9820  122.7760   56.2280 O   0  0  0  0  0  0  0  0  0  0  0  0
  127.2270  123.2650   55.9960 C   0  0  0  0  0  0  0  0  0  0  0  0
  128.2020  122.5520   55.7410 O   0  0  0  0  0  0  0  0  0  0  0  0
  127.3000  124.7640   56.0740 C   0  0  0  0  0  0  0  0  0  0  0  0
  126.8740  125.4700   57.2090 C   0  0  0  0  0  0  0  0  0  0  0  0
  126.9540  126.8580   57.2480 C   0  0  0  0  0  0  0  0  0  0  0  0
  127.4600  127.5700   56.1600 C   0  0  0  0  0  0  0  0  0  0  0  0
  127.4930  128.9690   56.3100 N   0  0  0  0  0  0  0  0  0  0  0  0
  128.1300  129.7320   57.2260 C   0  0  0  0  0  0  0  0  0  0  0  0
  128.8380  129.3110   58.1390 O   0  0  0  0  0  0  0  0  0  0  0  0
  127.9350  131.2410   57.0700 C   0  0  0  0  0  0  0  0  0  0  0  0
  128.5270  132.1620   58.5220 S   0  0  0  0  0  0  0  0  0  0  0  0
  130.2480  131.7600   58.7390 C   0  0  0  0  0  0  0  0  0  0  0  0
  130.5980  131.5390   60.0310 N   0  0  0  0  0  0  0  0  0  0  0  0
  131.8840  131.2240   60.3110 C   0  0  0  0  0  0  0  0  0  0  0  0
  132.2000  130.9760   61.7750 C   0  0  0  0  0  0  0  0  0  0  0  0
  132.8660  131.1280   59.3270 C   0  0  0  0  0  0  0  0  0  0  0  0
  132.5190  131.3760   57.9950 C   0  0  0  0  0  0  0  0  0  0  0  0
  133.6160  131.2810   56.9360 C   0  0  0  0  0  0  0  0  0  0  0  0
  131.1820  131.7070   57.6790 C   0  0  0  0  0  0  0  0  0  0  0  0
  130.8050  132.0140   56.2970 C   0  0  0  0  0  0  0  0  0  0  0  0
  130.5100  132.2550   55.2040 N   0  0  0  0  0  0  0  0  0  0  0  0
  127.8890  126.8710   55.0220 C   0  0  0  0  0  0  0  0  0  0  0  0
  127.8080  125.4820   54.9840 C   0  0  0  0  0  0  0  0  0  0  0  0
  1  2  1  0
  2  3  1  0
  3  4  2  0
  3  5  1  0
  5  6  2  0
  6  7  1  0
  7  8  2  0
  8  9  1  0
  9 10  1  0
 10 11  2  0
 10 12  1  0
 12 13  1  0
 13 14  1  0
 14 15  2  0
 15 16  1  0
 16 17  1  0
 16 18  2  0
 18 19  1  0
 19 20  1  0
 19 21  2  0
 21 22  1  0
 22 23  3  0
  8 24  1  0
 24 25  2  0
 25  5  1  0
 21 14  1  0
M  END
>  <Binding energies>  (3) 
[-7.67]

>  <Ligand effiencies>  (3) 
[-0.295]

>  <Interactions>  (3) 
["V-A:PRO:540:N:4882, V-A:TYR:531:CZ:4792, V-B:ILE:538:CB:9834, V-A:ASP:366:CG:3211, V-A:TYR:539:CD2:4872, V-B:TYR:531:CE2:9765, V-B:PRO:540:CD:9859, V-A:TYR:539:CE2:4874, V-B:ILE:538:CG2:9835, V-A:TYR:539:CZ:4875, H-A:ALA:541:N:4889, V-A:PRO:540:CA:4881, V-A:GLU:543:CD:4906, V-B:TYR:531:CZ:9766, V-A:ARG:545:CZ:4924, V-A:ASN:362:CB:3174, V-A:PRO:540:CB:4883, V-A:LEU:363:CD1:3187, V-A:TYR:539:C:4865, V-A:TYR:539:CE1:4873, V-A:TYR:531:CE2:4791, H-A:TYR:539:N:4868, V-A:LEU:363:CA:3183, H-B:TYR:539:N:9842"]

$$$$
1c_Grossjean_2025
     RDKit          3D

 23 24  0  0  0  0  0  0  0  0999 V2000
  123.9630  132.5250   76.0010 C   0  0  0  0  0  0  0  0  0  0  0  0
  123.8870  131.1140   76.1720 O   0  0  0  0  0  0  0  0  0  0  0  0
  124.7380  130.3010   75.4490 C   0  0  0  0  0  0  0  0  0  0  0  0
  124.1850  129.1350   74.9200 C   0  0  0  0  0  0  0  0  0  0  0  0
  124.9630  128.2520   74.1760 C   0  0  0  0  0  0  0  0  0  0  0  0
  126.3180  128.5340   73.9460 C   0  0  0  0  0  0  0  0  0  0  0  0
  127.1950  127.7080   73.2180 N   0  0  0  0  0  0  0  0  0  0  0  0
  128.3800  128.0100   72.6450 C   0  0  0  0  0  0  0  0  0  0  0  0
  128.9300  129.1100   72.6780 O   0  0  0  0  0  0  0  0  0  0  0  0
  129.0660  126.8560   71.9090 C   0  0  0  0  0  0  0  0  0  0  0  0
  130.8580  126.8340   72.2070 S   0  0  0  0  0  0  0  0  0  0  0  0
  131.2560  125.3650   73.1330 C   0  0  0  0  0  0  0  0  0  0  0  0
  130.3050  124.4010   73.0500 N   0  0  0  0  0  0  0  0  0  0  0  0
  130.4970  123.2370   73.7140 C   0  0  0  0  0  0  0  0  0  0  0  0
  129.3960  122.2040   73.5650 C   0  0  0  0  0  0  0  0  0  0  0  0
  131.6280  122.9920   74.4890 C   0  0  0  0  0  0  0  0  0  0  0  0
  132.6030  123.9880   74.6020 C   0  0  0  0  0  0  0  0  0  0  0  0
  133.8260  123.7020   75.4720 C   0  0  0  0  0  0  0  0  0  0  0  0
  132.4230  125.2130   73.9190 C   0  0  0  0  0  0  0  0  0  0  0  0
  133.4070  126.2880   74.0690 C   0  0  0  0  0  0  0  0  0  0  0  0
  134.1850  127.1360   74.1870 N   0  0  0  0  0  0  0  0  0  0  0  0
  126.8770  129.6940   74.4830 C   0  0  0  0  0  0  0  0  0  0  0  0
  126.0970  130.5740   75.2270 C   0  0  0  0  0  0  0  0  0  0  0  0
  1  2  1  0
  2  3  1  0
  3  4  2  0
  4  5  1  0
  5  6  2  0
  6  7  1  0
  7  8  1  0
  8  9  2  0
  8 10  1  0
 10 11  1  0
 11 12  1  0
 12 13  2  0
 13 14  1  0
 14 15  1  0
 14 16  2  0
 16 17  1  0
 17 18  1  0
 17 19  2  0
 19 20  1  0
 20 21  3  0
  6 22  1  0
 22 23  2  0
 23  3  1  0
 19 12  1  0
M  END
>  <Binding energies>  (4) 
[-7.46]

>  <Ligand effiencies>  (4) 
[-0.31083333333333335]

>  <Interactions>  (4) 
["V-B:GLY:544:C:9884, V-B:HIS:456:CG:9038, V-B:LYS:547:CE:9922, V-A:HIS:456:CD2:4066, V-B:HIS:456:CD2:9040, V-A:HIS:456:CG:4064, H-B:GLY:544:O:9885, H-B:LYS:547:NZ:9923, H-A:LYS:547:NZ:4949, V-A:ASP:473:CG:4238, V-A:HIS:456:C:4059, V-B:VAL:458:CG2:9059, V-B:VAL:457:C:9045, V-B:HIS:456:CB:9037, V-A:LYS:471:CD:4217, V-A:HIS:456:CB:4063, V-B:HIS:456:CA:9035, V-B:HIS:456:C:9033, V-A:VAL:458:CG2:4085, V-A:LYS:471:CE:4218, V-B:LYS:471:CE:9192, V-B:LYS:471:CD:9191, V-B:LYS:471:CG:9190, V-B:ASP:473:CG:9212, V-B:VAL:457:CA:9047, V-A:LYS:471:CG:4216, V-B:LYS:471:CB:9189, V-B:ASP:473:CB:9211, V-B:LYS:471:C:9185, V-B:ASP:473:CA:9209, V-B:LEU:472:C:9198, V-B:LEU:472:CA:9200"]

$$$$
1d_Grossjean_2025
     RDKit          3D

 21 22  0  0  0  0  0  0  0  0999 V2000
  128.7270  132.5300   73.9020 C   0  0  0  0  0  0  0  0  0  0  0  0
  127.7130  131.4220   74.1130 C   0  0  0  0  0  0  0  0  0  0  0  0
  126.6140  131.5890   74.9540 C   0  0  0  0  0  0  0  0  0  0  0  0
  125.7060  130.5360   75.1020 C   0  0  0  0  0  0  0  0  0  0  0  0
  124.5010  130.7480   76.0170 C   0  0  0  0  0  0  0  0  0  0  0  0
  125.9280  129.3260   74.4040 C   0  0  0  0  0  0  0  0  0  0  0  0
  124.9650  128.2280   74.5070 C   0  0  0  0  0  0  0  0  0  0  0  0
  124.2020  127.3620   74.5900 N   0  0  0  0  0  0  0  0  0  0  0  0
  127.0830  129.2370   73.5920 C   0  0  0  0  0  0  0  0  0  0  0  0
  127.5190  127.7950   72.6470 S   0  0  0  0  0  0  0  0  0  0  0  0
  129.3040  127.8850   72.3100 C   0  0  0  0  0  0  0  0  0  0  0  0
  130.0460  126.6390   72.7970 C   0  0  0  0  0  0  0  0  0  0  0  0
  129.5150  125.5360   72.6700 O   0  0  0  0  0  0  0  0  0  0  0  0
  131.2710  126.8640   73.3200 N   0  0  0  0  0  0  0  0  0  0  0  0
  132.1970  125.9570   73.8680 C   0  0  0  0  0  0  0  0  0  0  0  0
  131.6670  124.7430   74.3140 C   0  0  0  0  0  0  0  0  0  0  0  0
  132.4980  123.7740   74.8680 C   0  0  0  0  0  0  0  0  0  0  0  0
  133.8650  124.0140   74.9710 C   0  0  0  0  0  0  0  0  0  0  0  0
  134.4090  125.2160   74.5230 C   0  0  0  0  0  0  0  0  0  0  0  0
  133.5800  126.1880   73.9700 C   0  0  0  0  0  0  0  0  0  0  0  0
  127.9470  130.2720   73.4380 N   0  0  0  0  0  0  0  0  0  0  0  0
  1  2  1  0
  2  3  2  0
  3  4  1  0
  4  5  1  0
  4  6  2  0
  6  7  1  0
  7  8  3  0
  6  9  1  0
  9 10  1  0
 10 11  1  0
 11 12  1  0
 12 13  2  0
 12 14  1  0
 14 15  1  0
 15 16  2  0
 16 17  1  0
 17 18  2  0
 18 19  1  0
 19 20  2  0
  9 21  2  0
 21  2  1  0
 20 15  1  0
M  END
>  <Binding energies>  (5) 
[-8.46]

>  <Ligand effiencies>  (5) 
[-0.3845454545454546]

>  <Interactions>  (5) 
["V-A:LYS:547:CE:4948, V-B:HIS:456:CG:9038, V-A:GLY:544:C:4910, V-B:LYS:547:CE:9922, V-A:HIS:456:CD2:4066, V-B:HIS:456:CD2:9040, V-A:HIS:456:CG:4064, H-B:LYS:547:NZ:9923, H-A:LYS:547:NZ:4949, H-A:GLY:544:O:4911, V-B:LYS:547:CD:9921, V-A:HIS:456:C:4059, V-B:VAL:458:CG2:9059, V-B:HIS:456:CB:9037, V-A:HIS:456:CB:4063, V-B:HIS:456:C:9033, V-A:VAL:458:CG2:4085, V-A:LYS:471:CE:4218, V-A:VAL:457:C:4071, V-B:LYS:547:CG:9920, V-B:LYS:471:CE:9192, V-B:LYS:471:CD:9191, V-B:LYS:471:CG:9190, V-B:ASP:473:CG:9212, V-A:VAL:457:CA:4073, V-A:HIS:456:CA:4061"]

$$$$
1e_Grossjean_2025
     RDKit          3D

 22 23  0  0  0  0  0  0  0  0999 V2000
  126.8660  131.8800   75.6030 C   0  0  0  0  0  0  0  0  0  0  0  0
  126.2670  130.5680   75.1300 C   0  0  0  0  0  0  0  0  0  0  0  0
  124.9210  130.2600   75.3430 C   0  0  0  0  0  0  0  0  0  0  0  0
  124.4410  129.0340   74.8830 C   0  0  0  0  0  0  0  0  0  0  0  0
  125.3060  128.1540   74.2300 C   0  0  0  0  0  0  0  0  0  0  0  0
  126.6430  128.5270   74.0440 C   0  0  0  0  0  0  0  0  0  0  0  0
  127.4690  127.5960   73.3910 N   0  0  0  0  0  0  0  0  0  0  0  0
  128.6320  127.8150   72.7390 C   0  0  0  0  0  0  0  0  0  0  0  0
  129.1680  128.9160   72.6010 O   0  0  0  0  0  0  0  0  0  0  0  0
  129.2870  126.5820   72.1150 C   0  0  0  0  0  0  0  0  0  0  0  0
  131.0940  126.5940   72.3190 S   0  0  0  0  0  0  0  0  0  0  0  0
  131.5620  125.2130   73.3420 C   0  0  0  0  0  0  0  0  0  0  0  0
  130.6110  124.2460   73.4110 N   0  0  0  0  0  0  0  0  0  0  0  0
  130.8520  123.1460   74.1620 C   0  0  0  0  0  0  0  0  0  0  0  0
  129.7490  122.1060   74.1840 C   0  0  0  0  0  0  0  0  0  0  0  0
  132.0340  122.9700   74.8790 C   0  0  0  0  0  0  0  0  0  0  0  0
  133.0100  123.9710   74.8360 C   0  0  0  0  0  0  0  0  0  0  0  0
  134.2880  123.7620   75.6460 C   0  0  0  0  0  0  0  0  0  0  0  0
  132.7790  125.1300   74.0610 C   0  0  0  0  0  0  0  0  0  0  0  0
  133.7650  126.2130   74.0520 C   0  0  0  0  0  0  0  0  0  0  0  0
  134.5460  127.0670   74.0470 N   0  0  0  0  0  0  0  0  0  0  0  0
  127.1210  129.7240   74.4960 N   0  0  0  0  0  0  0  0  0  0  0  0
  1  2  1  0
  2  3  2  0
  3  4  1  0
  4  5  2  0
  5  6  1  0
  6  7  1  0
  7  8  1  0
  8  9  2  0
  8 10  1  0
 10 11  1  0
 11 12  1  0
 12 13  2  0
 13 14  1  0
 14 15  1  0
 14 16  2  0
 16 17  1  0
 17 18  1  0
 17 19  2  0
 19 20  1  0
 20 21  3  0
  6 22  2  0
 22  2  1  0
 19 12  1  0
M  END
>  <Binding energies>  (6) 
[-8.31]

>  <Ligand effiencies>  (6) 
[-0.361304347826087]

>  <Interactions>  (6) 
["V-B:GLY:544:C:9884, V-A:LYS:547:CE:4948, V-B:LYS:547:CE:9922, V-A:HIS:456:CD2:4066, V-A:HIS:456:CG:4064, H-B:GLY:544:O:9885, H-B:LYS:547:NZ:9923, H-A:LYS:547:NZ:4949, V-B:LYS:547:CD:9921, V-A:ASP:473:CG:4238, V-A:HIS:456:C:4059, V-B:VAL:458:CG2:9059, V-B:VAL:457:C:9045, V-B:HIS:456:CB:9037, V-A:LYS:471:CD:4217, V-A:HIS:456:CB:4063, V-B:HIS:456:CA:9035, V-B:HIS:456:C:9033, V-A:VAL:458:CG2:4085, V-A:LYS:471:CE:4218, V-A:VAL:457:C:4071, V-B:LYS:471:CE:9192, V-B:LYS:471:CD:9191, V-B:ASP:473:CG:9212, V-A:HIS:456:CA:4061, V-A:LYS:471:CG:4216, V-A:LYS:471:CB:4215"]

$$$$
1f_Grossjean_2025
     RDKit          3D

 21 22  0  0  0  0  0  0  0  0999 V2000
  128.8760  132.4810   73.8850 C   0  0  0  0  0  0  0  0  0  0  0  0
  127.8310  131.3950   74.0650 C   0  0  0  0  0  0  0  0  0  0  0  0
  126.7240  131.5770   74.8900 C   0  0  0  0  0  0  0  0  0  0  0  0
  125.8010  130.5360   75.0270 C   0  0  0  0  0  0  0  0  0  0  0  0
  124.6040  130.7520   75.9510 C   0  0  0  0  0  0  0  0  0  0  0  0
  126.0090  129.3290   74.3200 C   0  0  0  0  0  0  0  0  0  0  0  0
  125.0830  128.2070   74.4940 C   0  0  0  0  0  0  0  0  0  0  0  0
  124.3500  127.3220   74.6320 N   0  0  0  0  0  0  0  0  0  0  0  0
  127.1460  129.2420   73.4830 C   0  0  0  0  0  0  0  0  0  0  0  0
  127.5710  127.8060   72.5170 S   0  0  0  0  0  0  0  0  0  0  0  0
  129.3790  127.7950   72.2670 C   0  0  0  0  0  0  0  0  0  0  0  0
  130.0970  126.5420   72.7910 C   0  0  0  0  0  0  0  0  0  0  0  0
  129.5580  125.4370   72.7160 O   0  0  0  0  0  0  0  0  0  0  0  0
  131.3080  126.7770   73.3390 N   0  0  0  0  0  0  0  0  0  0  0  0
  132.2300  125.8740   73.9030 C   0  0  0  0  0  0  0  0  0  0  0  0
  131.9250  124.5890   74.3900 C   0  0  0  0  0  0  0  0  0  0  0  0
  132.9430  123.7920   74.9230 C   0  0  0  0  0  0  0  0  0  0  0  0
  134.2420  124.2990   74.9520 C   0  0  0  0  0  0  0  0  0  0  0  0
  134.5630  125.5310   74.4840 N   0  0  0  0  0  0  0  0  0  0  0  0
  133.5630  126.2930   73.9700 C   0  0  0  0  0  0  0  0  0  0  0  0
  128.0480  130.2500   73.3760 N   0  0  0  0  0  0  0  0  0  0  0  0
  1  2  1  0
  2  3  2  0
  3  4  1  0
  4  5  1  0
  4  6  2  0
  6  7  1  0
  7  8  3  0
  6  9  1  0
  9 10  1  0
 10 11  1  0
 11 12  1  0
 12 13  2  0
 12 14  1  0
 14 15  1  0
 15 16  2  0
 16 17  1  0
 17 18  2  0
 18 19  1  0
 19 20  2  0
  9 21  2  0
 21  2  1  0
 20 15  1  0
M  END
>  <Binding energies>  (7) 
[-8.07]

>  <Ligand effiencies>  (7) 
[-0.3668181818181818]

>  <Interactions>  (7) 
["V-A:LYS:547:CE:4948, V-B:HIS:456:CG:9038, V-A:GLY:544:C:4910, V-B:LYS:547:CE:9922, V-B:HIS:456:CD2:9040, V-A:HIS:456:CG:4064, H-B:LYS:547:NZ:9923, H-A:LYS:547:NZ:4949, H-A:GLY:544:O:4911, V-B:LYS:547:CD:9921, V-A:HIS:456:C:4059, V-B:VAL:458:CG2:9059, V-B:HIS:456:CB:9037, V-A:HIS:456:CB:4063, V-B:HIS:456:C:9033, V-A:VAL:458:CG2:4085, V-A:LYS:471:CE:4218, V-A:VAL:457:C:4071, V-B:LYS:547:CG:9920, V-B:LYS:471:CE:9192, V-B:LYS:471:CD:9191, V-B:LYS:471:CG:9190, V-B:ASP:473:CG:9212, V-A:HIS:456:CA:4061, H-A:VAL:457:N:4074"]

$$$$
1g_Grossjean_2025
     RDKit          3D

 22 23  0  0  0  0  0  0  0  0999 V2000
  127.1500  129.5780   56.8720 C   0  0  0  0  0  0  0  0  0  0  0  0
  126.4850  130.4260   57.9400 C   0  0  0  0  0  0  0  0  0  0  0  0
  125.1100  130.3740   58.1610 C   0  0  0  0  0  0  0  0  0  0  0  0
  124.5500  131.1910   59.1490 C   0  0  0  0  0  0  0  0  0  0  0  0
  123.0380  131.1280   59.3640 C   0  0  0  0  0  0  0  0  0  0  0  0
  125.3910  132.0410   59.9030 C   0  0  0  0  0  0  0  0  0  0  0  0
  124.8200  132.9430   60.9070 C   0  0  0  0  0  0  0  0  0  0  0  0
  124.3660  133.6550   61.6980 N   0  0  0  0  0  0  0  0  0  0  0  0
  126.7780  132.0090   59.6270 C   0  0  0  0  0  0  0  0  0  0  0  0
  127.9780  133.0030   60.4850 S   0  0  0  0  0  0  0  0  0  0  0  0
  128.8710  131.9070   61.6270 C   0  0  0  0  0  0  0  0  0  0  0  0
  130.1740  131.3850   61.0190 C   0  0  0  0  0  0  0  0  0  0  0  0
  131.2420  131.5560   61.6080 O   0  0  0  0  0  0  0  0  0  0  0  0
  130.0680  130.7550   59.8360 N   0  0  0  0  0  0  0  0  0  0  0  0
  131.1710  130.1290   59.1060 C   0  0  0  0  0  0  0  0  0  0  0  0
  131.6780  130.9410   57.9170 C   0  0  0  0  0  0  0  0  0  0  0  0
  133.0510  131.1420   57.7440 C   0  0  0  0  0  0  0  0  0  0  0  0
  133.5140  131.8820   56.6590 C   0  0  0  0  0  0  0  0  0  0  0  0
  132.6020  132.4130   55.7480 C   0  0  0  0  0  0  0  0  0  0  0  0
  131.2340  132.2120   55.9120 C   0  0  0  0  0  0  0  0  0  0  0  0
  130.7700  131.4740   56.9980 C   0  0  0  0  0  0  0  0  0  0  0  0
  127.3090  131.2300   58.6510 N   0  0  0  0  0  0  0  0  0  0  0  0
  1  2  1  0
  2  3  2  0
  3  4  1  0
  4  5  1  0
  4  6  2  0
  6  7  1  0
  7  8  3  0
  6  9  1  0
  9 10  1  0
 10 11  1  0
 11 12  1  0
 12 13  2  0
 12 14  1  0
 14 15  1  0
 15 16  1  0
 16 17  2  0
 17 18  1  0
 18 19  2  0
 19 20  1  0
 20 21  2  0
  9 22  2  0
 22  2  1  0
 21 16  1  0
M  END
>  <Binding energies>  (8) 
[-6.89]

>  <Ligand effiencies>  (8) 
[-0.2995652173913043]

>  <Interactions>  (8) 
["V-A:ILE:538:CG2:4861, V-A:PRO:540:CD:4885, V-B:ASP:366:CG:8185, V-A:PRO:540:N:4882, V-A:ILE:538:CB:4860, V-A:ILE:538:CA:4858, V-B:ILE:369:CD1:8211, V-A:TYR:539:CD2:4872, V-B:ILE:369:CG2:8209, V-A:TYR:539:CE2:4874, V-A:TYR:539:CZ:4875, H-A:ALA:541:N:4889, V-A:PRO:540:CA:4881, V-A:ALA:541:CB:4890, V-A:PRO:540:CB:4883, V-A:LEU:363:CD1:3187, V-A:TYR:531:CE2:4791, V-B:ASP:366:C:8180, V-B:ASP:366:CB:8184, V-B:ILE:369:CB:8208, V-B:ASP:366:CA:8182, V-A:LEU:363:CA:3183, V-A:PRO:540:CG:4884"]

$$$$
1h_Grossjean_2025
     RDKit          3D

 28 29  0  0  0  0  0  0  0  0999 V2000
  123.4310  131.1670   59.2410 C   0  0  0  0  0  0  0  0  0  0  0  0
  124.4860  131.6720   60.0520 O   0  0  0  0  0  0  0  0  0  0  0  0
  125.0010  130.8820   61.0640 C   0  0  0  0  0  0  0  0  0  0  0  0
  126.0870  130.0080   60.9000 C   0  0  0  0  0  0  0  0  0  0  0  0
  126.5450  129.2300   61.9640 C   0  0  0  0  0  0  0  0  0  0  0  0
  127.7420  128.3020   61.7790 C   0  0  0  0  0  0  0  0  0  0  0  0
  127.4170  126.8810   61.9070 N   0  0  0  0  0  0  0  0  0  0  0  0
  126.9680  126.0940   60.9120 C   0  0  0  0  0  0  0  0  0  0  0  0
  126.8010  126.4820   59.7570 O   0  0  0  0  0  0  0  0  0  0  0  0
  126.6520  124.6440   61.2810 C   0  0  0  0  0  0  0  0  0  0  0  0
  127.4870  123.4640   60.1770 S   0  0  0  0  0  0  0  0  0  0  0  0
  126.8080  123.6640   58.5380 C   0  0  0  0  0  0  0  0  0  0  0  0
  125.4530  123.6050   58.4490 N   0  0  0  0  0  0  0  0  0  0  0  0
  124.8720  123.7530   57.2360 C   0  0  0  0  0  0  0  0  0  0  0  0
  123.3570  123.6800   57.2180 C   0  0  0  0  0  0  0  0  0  0  0  0
  125.6070  123.9620   56.0700 C   0  0  0  0  0  0  0  0  0  0  0  0
  127.0020  124.0230   56.1480 C   0  0  0  0  0  0  0  0  0  0  0  0
  127.7880  124.2550   54.8600 C   0  0  0  0  0  0  0  0  0  0  0  0
  127.6300  123.8710   57.4060 C   0  0  0  0  0  0  0  0  0  0  0  0
  129.0900  123.9280   57.5170 C   0  0  0  0  0  0  0  0  0  0  0  0
  130.2440  123.9720   57.6040 N   0  0  0  0  0  0  0  0  0  0  0  0
  125.9390  129.3490   63.2160 C   0  0  0  0  0  0  0  0  0  0  0  0
  124.8540  130.2190   63.4090 C   0  0  0  0  0  0  0  0  0  0  0  0
  124.2040  130.3850   64.6190 O   0  0  0  0  0  0  0  0  0  0  0  0
  124.6310  129.6340   65.7510 C   0  0  0  0  0  0  0  0  0  0  0  0
  124.3870  130.9720   62.3220 C   0  0  0  0  0  0  0  0  0  0  0  0
  123.3310  131.8320   62.4980 O   0  0  0  0  0  0  0  0  0  0  0  0
  123.6960  133.2050   62.4990 C   0  0  0  0  0  0  0  0  0  0  0  0
  1  2  1  0
  2  3  1  0
  3  4  2  0
  4  5  1  0
  5  6  1  0
  6  7  1  0
  7  8  1  0
  8  9  2  0
  8 10  1  0
 10 11  1  0
 11 12  1  0
 12 13  2  0
 13 14  1  0
 14 15  1  0
 14 16  2  0
 16 17  1  0
 17 18  1  0
 17 19  2  0
 19 20  1  0
 20 21  3  0
  5 22  2  0
 22 23  1  0
 23 24  1  0
 24 25  1  0
 23 26  2  0
 26 27  1  0
 27 28  1  0
 26  3  1  0
 19 12  1  0
M  END
>  <Binding energies>  (9) 
[-6.98]

>  <Ligand effiencies>  (9) 
[-0.2406896551724138]

>  <Interactions>  (9) 
["V-B:ASP:366:CG:8185, V-B:TYR:539:CD2:9846, V-B:PRO:540:CA:9855, H-B:ALA:541:N:9863, V-B:TYR:539:CE2:9848, V-B:PRO:540:N:9856, V-B:ILE:369:CD1:8211, V-B:TYR:531:CE2:9765, V-B:PRO:540:CD:9859, V-B:PRO:540:CB:9857, V-B:ILE:369:CG2:8209, V-B:LEU:475:CD2:9231, H-B:GLU:543:OE2:9882, H-B:GLU:543:OE1:9881, V-B:TYR:539:CZ:9849, V-B:TYR:539:C:9839, V-B:LEU:363:CD1:8161, V-B:TYR:531:CZ:9766, V-B:GLU:543:CD:9880, V-B:ARG:545:CZ:9898, H-B:ARG:545:NE:9896, H-B:GLY:454:N:9022, H-B:TYR:484:OH:9320, V-B:HIS:456:CE1:9042, H-B:TYR:539:OH:9850, V-B:ASP:366:CB:8184, V-B:ILE:369:CB:8208, V-B:ASP:366:CA:8182, V-B:ARG:545:CG:9894, V-B:ARG:545:CD:9895, V-B:LEU:363:CA:8157, V-B:LEU:363:CB:8159, V-B:PRO:540:CG:9858, V-B:GLY:454:CA:9021"]

$$$$
1i_Grossjean_2025
     RDKit          3D

 20 21  0  0  0  0  0  0  0  0999 V2000
  132.4020  131.1030   62.1020 C   0  0  0  0  0  0  0  0  0  0  0  0
  131.7960  131.3690   60.7370 C   0  0  0  0  0  0  0  0  0  0  0  0
  132.5260  131.1800   59.5660 C   0  0  0  0  0  0  0  0  0  0  0  0
  131.9120  131.4310   58.3340 C   0  0  0  0  0  0  0  0  0  0  0  0
  132.7280  131.2010   57.0630 C   0  0  0  0  0  0  0  0  0  0  0  0
  130.5700  131.8770   58.3080 C   0  0  0  0  0  0  0  0  0  0  0  0
  129.8930  132.0980   57.0280 C   0  0  0  0  0  0  0  0  0  0  0  0
  129.3590  132.2700   56.0160 N   0  0  0  0  0  0  0  0  0  0  0  0
  129.9140  132.0650   59.5480 C   0  0  0  0  0  0  0  0  0  0  0  0
  128.2310  132.6200   59.7010 S   0  0  0  0  0  0  0  0  0  0  0  0
  127.9600  133.0800   61.4390 C   0  0  0  0  0  0  0  0  0  0  0  0
  126.7350  132.3830   62.0350 C   0  0  0  0  0  0  0  0  0  0  0  0
  125.6560  132.4470   61.4430 O   0  0  0  0  0  0  0  0  0  0  0  0
  126.9460  131.7290   63.1980 N   0  0  0  0  0  0  0  0  0  0  0  0
  126.0140  131.0240   63.9470 C   0  0  0  0  0  0  0  0  0  0  0  0
  126.3690  130.0690   64.8980 C   0  0  0  0  0  0  0  0  0  0  0  0
  125.1760  129.6100   65.4070 C   0  0  0  0  0  0  0  0  0  0  0  0
  124.1560  130.2540   64.7930 O   0  0  0  0  0  0  0  0  0  0  0  0
  124.7000  131.1470   63.8680 N   0  0  0  0  0  0  0  0  0  0  0  0
  130.5120  131.7990   60.7360 N   0  0  0  0  0  0  0  0  0  0  0  0
  1  2  1  0
  2  3  2  0
  3  4  1  0
  4  5  1  0
  4  6  2  0
  6  7  1  0
  7  8  3  0
  6  9  1  0
  9 10  1  0
 10 11  1  0
 11 12  1  0
 12 13  2  0
 12 14  1  0
 14 15  1  0
 15 16  1  0
 16 17  2  0
 17 18  1  0
 18 19  1  0
  9 20  2  0
 20  2  1  0
 19 15  2  0
M  END
>  <Binding energies>  (10) 
[-7.99]

>  <Ligand effiencies>  (10) 
[-0.38047619047619047]

>  <Interactions>  (10) 
["V-A:PRO:540:N:4882, H-A:ALA:541:N:4889, V-A:PRO:540:CA:4881, V-A:ALA:541:CB:4890, V-A:GLU:543:CD:4906, H-A:GLU:543:OE1:4907, V-A:ARG:545:CZ:4924, V-B:ARG:545:CZ:9898, V-A:ASN:362:CB:3174, H-B:ARG:545:NE:9896, H-B:GLY:454:N:9022, V-A:PRO:540:CB:4883, V-A:TYR:539:C:4865, H-B:TYR:484:OH:9320, V-A:TYR:531:CE2:4791, V-B:HIS:456:CE1:9042, V-A:PRO:540:C:4879, H-A:TYR:539:N:4868, V-B:ARG:545:CG:9894, V-B:ARG:545:CD:9895, V-A:ALA:541:C:4886"]

$$$$
1k_Grossjean_2025
     RDKit          3D

 25 25  0  0  0  0  0  0  0  0999 V2000
  130.7300  126.8480   77.2970 C   0  0  0  0  0  0  0  0  0  0  0  0
  130.5340  126.9790   75.8980 O   0  0  0  0  0  0  0  0  0  0  0  0
  131.5920  126.4300   75.1240 C   0  0  0  0  0  0  0  0  0  0  0  0
  131.2920  126.6280   73.6330 C   0  0  0  0  0  0  0  0  0  0  0  0
  129.8910  126.5300   73.4150 O   0  0  0  0  0  0  0  0  0  0  0  0
  129.3740  127.5380   72.5550 C   0  0  0  0  0  0  0  0  0  0  0  0
  127.9100  127.8150   72.9170 C   0  0  0  0  0  0  0  0  0  0  0  0
  127.8550  128.6530   74.0640 O   0  0  0  0  0  0  0  0  0  0  0  0
  126.6750  129.4430   74.1390 C   0  0  0  0  0  0  0  0  0  0  0  0
  126.9320  130.6720   75.0310 C   0  0  0  0  0  0  0  0  0  0  0  0
  127.2840  131.8830   74.2890 N   0  0  0  0  0  0  0  0  0  0  0  0
  128.2720  131.9760   73.3820 C   0  0  0  0  0  0  0  0  0  0  0  0
  128.9940  131.0260   73.0730 O   0  0  0  0  0  0  0  0  0  0  0  0
  128.4580  133.3620   72.7440 C   0  0  0  0  0  0  0  0  0  0  0  0
  129.2550  134.6190   73.8040 S   0  0  0  0  0  0  0  0  0  0  0  0
  131.0240  134.3610   73.7920 C   0  0  0  0  0  0  0  0  0  0  0  0
  131.5760  133.9870   74.9750 N   0  0  0  0  0  0  0  0  0  0  0  0
  132.9120  133.7850   75.0370 C   0  0  0  0  0  0  0  0  0  0  0  0
  133.4550  133.3790   76.3940 C   0  0  0  0  0  0  0  0  0  0  0  0
  133.7480  133.9360   73.9330 C   0  0  0  0  0  0  0  0  0  0  0  0
  133.1900  134.3130   72.7070 C   0  0  0  0  0  0  0  0  0  0  0  0
  134.1230  134.4730   71.5080 C   0  0  0  0  0  0  0  0  0  0  0  0
  131.7980  134.5340   72.6210 C   0  0  0  0  0  0  0  0  0  0  0  0
  131.1860  134.9330   71.3500 C   0  0  0  0  0  0  0  0  0  0  0  0
  130.7050  135.2490   70.3460 N   0  0  0  0  0  0  0  0  0  0  0  0
  1  2  1  0
  2  3  1  0
  3  4  1  0
  4  5  1  0
  5  6  1  0
  6  7  1  0
  7  8  1  0
  8  9  1  0
  9 10  1  0
 10 11  1  0
 11 12  1  0
 12 13  2  0
 12 14  1  0
 14 15  1  0
 15 16  1  0
 16 17  2  0
 17 18  1  0
 18 19  1  0
 18 20  2  0
 20 21  1  0
 21 22  1  0
 21 23  2  0
 23 24  1  0
 24 25  3  0
 23 16  1  0
M  END
>  <Binding energies>  (11) 
[-6.81]

>  <Ligand effiencies>  (11) 
[-0.2619230769230769]

>  <Interactions>  (11) 
["V-B:TYR:484:CG:9314, V-B:GLY:544:C:9884, V-A:LYS:547:CE:4948, V-B:HIS:456:CG:9038, V-B:TYR:484:CB:9313, V-B:LYS:547:CE:9922, V-B:HIS:456:CD2:9040, H-B:LYS:547:NZ:9923, H-A:LYS:547:NZ:4949, V-B:HIS:456:CB:9037, V-A:LYS:547:CD:4947, V-A:LYS:547:CB:4945, V-A:LYS:547:CG:4946, V-B:LYS:471:CE:9192, V-B:ASP:473:CG:9212, V-A:VAL:542:CG1:4897, H-B:ASP:473:OD2:9214, H-B:TYR:484:N:9312, V-A:LYS:547:CA:4943, H-A:GLU:543:N:4903"]

$$$$
1l_Grossjean_2025
     RDKit          3D

 17 17  0  0  0  0  0  0  0  0999 V2000
  124.9040  128.3810   74.4910 C   0  0  0  0  0  0  0  0  0  0  0  0
  126.1360  128.9030   74.0150 O   0  0  0  0  0  0  0  0  0  0  0  0
  127.0200  127.8610   73.7400 N   0  0  0  0  0  0  0  0  0  0  0  0
  128.1890  128.1390   73.1320 C   0  0  0  0  0  0  0  0  0  0  0  0
  128.6370  129.2810   73.0020 O   0  0  0  0  0  0  0  0  0  0  0  0
  128.9590  126.9170   72.6110 C   0  0  0  0  0  0  0  0  0  0  0  0
  130.7700  126.9960   72.8270 S   0  0  0  0  0  0  0  0  0  0  0  0
  131.3170  125.4390   73.5060 C   0  0  0  0  0  0  0  0  0  0  0  0
  130.4540  124.3990   73.3660 N   0  0  0  0  0  0  0  0  0  0  0  0
  130.8050  123.1880   73.8600 C   0  0  0  0  0  0  0  0  0  0  0  0
  129.7910  122.0770   73.6650 C   0  0  0  0  0  0  0  0  0  0  0  0
  132.0190  122.9630   74.5070 C   0  0  0  0  0  0  0  0  0  0  0  0
  132.9160  124.0260   74.6550 C   0  0  0  0  0  0  0  0  0  0  0  0
  134.2410  123.7560   75.3670 C   0  0  0  0  0  0  0  0  0  0  0  0
  132.5690  125.2980   74.1480 C   0  0  0  0  0  0  0  0  0  0  0  0
  133.4900  126.4300   74.2900 C   0  0  0  0  0  0  0  0  0  0  0  0
  134.2170  127.3220   74.4030 N   0  0  0  0  0  0  0  0  0  0  0  0
  1  2  1  0
  2  3  1  0
  3  4  1  0
  4  5  2  0
  4  6  1  0
  6  7  1  0
  7  8  1  0
  8  9  2  0
  9 10  1  0
 10 11  1  0
 10 12  2  0
 12 13  1  0
 13 14  1  0
 13 15  2  0
 15 16  1  0
 16 17  3  0
 15  8  1  0
M  END
>  <Binding energies>  (12) 
[-6.79]

>  <Ligand effiencies>  (12) 
[-0.37722222222222224]

>  <Interactions>  (12) 
["V-B:GLY:544:C:9884, V-A:LYS:547:CE:4948, V-B:LYS:547:CE:9922, V-A:HIS:456:CD2:4066, V-A:HIS:456:CG:4064, H-B:GLY:544:O:9885, H-B:LYS:547:NZ:9923, H-A:LYS:547:NZ:4949, V-B:LYS:547:CD:9921, V-A:ASP:473:CG:4238, V-A:HIS:456:C:4059, V-B:VAL:458:CG2:9059, V-B:HIS:456:CB:9037, V-A:LYS:471:CD:4217, V-A:HIS:456:CB:4063, V-B:HIS:456:C:9033, V-A:VAL:458:CG2:4085, V-A:LYS:471:CE:4218, V-A:LYS:547:CD:4947, V-A:LYS:547:CG:4946, V-A:LYS:471:CG:4216"]

$$$$
1m_Grossjean_2025
     RDKit          3D

 20 20  0  0  0  0  0  0  0  0999 V2000
  127.1380  129.1920   65.8640 C   0  0  0  0  0  0  0  0  0  0  0  0
  125.7970  129.6480   65.7500 O   0  0  0  0  0  0  0  0  0  0  0  0
  125.2510  129.8750   64.5370 C   0  0  0  0  0  0  0  0  0  0  0  0
  124.1480  130.3920   64.3320 O   0  0  0  0  0  0  0  0  0  0  0  0
  126.1860  129.4130   63.4000 C   0  0  0  0  0  0  0  0  0  0  0  0
  127.0600  130.4880   62.9090 N   0  0  0  0  0  0  0  0  0  0  0  0
  126.9280  131.1330   61.7340 C   0  0  0  0  0  0  0  0  0  0  0  0
  126.0430  130.8680   60.9180 O   0  0  0  0  0  0  0  0  0  0  0  0
  127.9660  132.2290   61.4610 C   0  0  0  0  0  0  0  0  0  0  0  0
  128.4420  132.4090   59.7080 S   0  0  0  0  0  0  0  0  0  0  0  0
  130.1430  131.9090   59.5450 C   0  0  0  0  0  0  0  0  0  0  0  0
  130.7690  131.7200   60.7340 N   0  0  0  0  0  0  0  0  0  0  0  0
  132.0650  131.3310   60.7330 C   0  0  0  0  0  0  0  0  0  0  0  0
  132.6920  131.1210   62.0980 C   0  0  0  0  0  0  0  0  0  0  0  0
  132.7880  131.1280   59.5590 C   0  0  0  0  0  0  0  0  0  0  0  0
  132.1610  131.3460   58.3280 C   0  0  0  0  0  0  0  0  0  0  0  0
  132.9780  131.1330   57.0560 C   0  0  0  0  0  0  0  0  0  0  0  0
  130.8070  131.7530   58.3040 C   0  0  0  0  0  0  0  0  0  0  0  0
  130.1460  132.0340   57.0280 C   0  0  0  0  0  0  0  0  0  0  0  0
  129.6230  132.2560   56.0200 N   0  0  0  0  0  0  0  0  0  0  0  0
  1  2  1  0
  2  3  1  0
  3  4  2  0
  3  5  1  0
  5  6  1  0
  6  7  1  0
  7  8  2  0
  7  9  1  0
  9 10  1  0
 10 11  1  0
 11 12  2  0
 12 13  1  0
 13 14  1  0
 13 15  2  0
 15 16  1  0
 16 17  1  0
 16 18  2  0
 18 19  1  0
 19 20  3  0
 18 11  1  0
M  END
>  <Binding energies>  (13) 
[-7.01]

>  <Ligand effiencies>  (13) 
[-0.3338095238095238]

>  <Interactions>  (13) 
["V-A:PRO:540:N:4882, V-A:TYR:531:CZ:4792, H-A:ALA:541:N:4889, V-A:PRO:540:CA:4881, V-A:ALA:541:CB:4890, V-A:GLU:543:CD:4906, H-A:GLU:543:OE1:4907, V-A:ARG:545:CZ:4924, V-B:ARG:545:CZ:9898, V-A:ASN:362:CB:3174, H-B:ARG:545:NE:9896, H-B:GLY:454:N:9022, V-A:PRO:540:CB:4883, V-A:TYR:539:C:4865, H-B:TYR:484:OH:9320, V-A:GLU:543:CB:4904, V-A:TYR:531:CE2:4791, V-B:HIS:456:CE1:9042, V-A:PRO:540:C:4879, H-A:TYR:539:N:4868, V-A:ALA:541:C:4886, V-A:ASN:362:CG:3175"]

$$$$
1n_Grossjean_2025
     RDKit          3D

 27 28  0  0  0  0  0  0  0  0999 V2000
  123.7740  123.3160   56.8440 C   0  0  0  0  0  0  0  0  0  0  0  0
  124.7690  123.5220   55.6980 C   0  0  0  0  0  0  0  0  0  0  0  0
  125.8310  122.5830   55.8210 O   0  0  0  0  0  0  0  0  0  0  0  0
  127.0550  122.9640   56.2700 C   0  0  0  0  0  0  0  0  0  0  0  0
  127.9730  122.1700   56.4970 O   0  0  0  0  0  0  0  0  0  0  0  0
  127.1850  124.4490   56.4490 C   0  0  0  0  0  0  0  0  0  0  0  0
  126.8320  125.0860   57.6490 C   0  0  0  0  0  0  0  0  0  0  0  0
  126.9630  126.4650   57.7810 C   0  0  0  0  0  0  0  0  0  0  0  0
  127.4390  127.2360   56.7200 C   0  0  0  0  0  0  0  0  0  0  0  0
  127.5250  128.6220   56.9610 N   0  0  0  0  0  0  0  0  0  0  0  0
  126.7370  129.6260   56.5210 C   0  0  0  0  0  0  0  0  0  0  0  0
  125.7480  129.4930   55.7990 O   0  0  0  0  0  0  0  0  0  0  0  0
  127.1360  131.0330   56.9820 C   0  0  0  0  0  0  0  0  0  0  0  0
  127.3480  131.1330   58.5080 C   0  0  0  0  0  0  0  0  0  0  0  0
  128.3520  132.5530   59.0380 S   0  0  0  0  0  0  0  0  0  0  0  0
  130.0420  132.0060   59.1520 C   0  0  0  0  0  0  0  0  0  0  0  0
  130.4600  131.7930   60.4250 N   0  0  0  0  0  0  0  0  0  0  0  0
  131.7250  131.3580   60.6300 C   0  0  0  0  0  0  0  0  0  0  0  0
  132.1180  131.1320   62.0780 C   0  0  0  0  0  0  0  0  0  0  0  0
  132.6200  131.1270   59.5880 C   0  0  0  0  0  0  0  0  0  0  0  0
  132.2050  131.3630   58.2720 C   0  0  0  0  0  0  0  0  0  0  0  0
  133.2070  131.1150   57.1460 C   0  0  0  0  0  0  0  0  0  0  0  0
  130.8900  131.8220   58.0340 C   0  0  0  0  0  0  0  0  0  0  0  0
  130.4520  132.1250   56.6700 C   0  0  0  0  0  0  0  0  0  0  0  0
  130.1080  132.3650   55.5910 N   0  0  0  0  0  0  0  0  0  0  0  0
  127.8030  126.6060   55.5220 C   0  0  0  0  0  0  0  0  0  0  0  0
  127.6750  125.2260   55.3920 C   0  0  0  0  0  0  0  0  0  0  0  0
  1  2  1  0
  2  3  1  0
  3  4  1  0
  4  5  2  0
  4  6  1  0
  6  7  2  0
  7  8  1  0
  8  9  2  0
  9 10  1  0
 10 11  1  0
 11 12  2  0
 11 13  1  0
 13 14  1  0
 14 15  1  0
 15 16  1  0
 16 17  2  0
 17 18  1  0
 18 19  1  0
 18 20  2  0
 20 21  1  0
 21 22  1  0
 21 23  2  0
 23 24  1  0
 24 25  3  0
  9 26  1  0
 26 27  2  0
 27  6  1  0
 23 16  1  0
M  END
>  <Binding energies>  (14) 
[-8.9]

>  <Ligand effiencies>  (14) 
[-0.3178571428571429]

>  <Interactions>  (14) 
["V-A:PRO:540:N:4882, H-B:TYR:531:OH:9767, V-B:PRO:540:CA:9855, V-A:TYR:531:CZ:4792, V-B:PRO:540:N:9856, V-B:ILE:538:CB:9834, V-A:TYR:539:CD2:4872, V-B:TYR:531:CE2:9765, V-B:PRO:540:CD:9859, V-B:PRO:540:CB:9857, V-A:TYR:539:CE2:4874, V-B:ILE:538:CG2:9835, V-A:TYR:539:CZ:4875, H-A:ALA:541:N:4889, V-A:PRO:540:CA:4881, V-A:GLU:543:CD:4906, V-B:TYR:539:C:9839, V-B:LEU:363:CD1:8161, V-B:TYR:539:CA:9841, V-B:TYR:531:CZ:9766, V-A:ARG:545:CZ:4924, V-A:PRO:540:CB:4883, V-A:TYR:539:C:4865, V-A:TYR:539:CE1:4873, V-A:TYR:531:CE2:4791, H-A:TYR:539:OH:4876, V-A:PRO:540:C:4879, H-A:TYR:539:N:4868, V-B:LEU:363:CA:8157, H-B:TYR:539:N:9842, V-B:PRO:540:CG:9858, V-A:ALA:541:C:4886"]

$$$$
1q_Grossjean_2025
     RDKit          3D

 21 21  0  0  0  0  0  0  0  0999 V2000
  124.8670  131.3090   75.6500 C   0  0  0  0  0  0  0  0  0  0  0  0
  125.7290  130.4560   74.9100 O   0  0  0  0  0  0  0  0  0  0  0  0
  125.4880  129.1240   74.8440 C   0  0  0  0  0  0  0  0  0  0  0  0
  124.3770  128.6000   74.7540 O   0  0  0  0  0  0  0  0  0  0  0  0
  126.7590  128.2510   74.9250 C   0  0  0  0  0  0  0  0  0  0  0  0
  127.1890  127.7390   73.6150 N   0  0  0  0  0  0  0  0  0  0  0  0
  128.0260  128.3590   72.7620 C   0  0  0  0  0  0  0  0  0  0  0  0
  128.5390  129.4550   72.9970 O   0  0  0  0  0  0  0  0  0  0  0  0
  128.3320  127.6100   71.4570 C   0  0  0  0  0  0  0  0  0  0  0  0
  129.5860  126.7160   71.5190 C   0  0  0  0  0  0  0  0  0  0  0  0
  130.6540  127.0570   72.9490 S   0  0  0  0  0  0  0  0  0  0  0  0
  131.2840  125.5100   73.5690 C   0  0  0  0  0  0  0  0  0  0  0  0
  130.4540  124.4610   73.3420 N   0  0  0  0  0  0  0  0  0  0  0  0
  130.8240  123.2320   73.7700 C   0  0  0  0  0  0  0  0  0  0  0  0
  129.8370  122.1120   73.4950 C   0  0  0  0  0  0  0  0  0  0  0  0
  132.0300  122.9960   74.4270 C   0  0  0  0  0  0  0  0  0  0  0  0
  132.9050  124.0650   74.6440 C   0  0  0  0  0  0  0  0  0  0  0  0
  134.2290  123.7780   75.3500 C   0  0  0  0  0  0  0  0  0  0  0  0
  132.5410  125.3580   74.2040 C   0  0  0  0  0  0  0  0  0  0  0  0
  133.4690  126.4780   74.3720 C   0  0  0  0  0  0  0  0  0  0  0  0
  134.2060  127.3610   74.5060 N   0  0  0  0  0  0  0  0  0  0  0  0
  1  2  1  0
  2  3  1  0
  3  4  2  0
  3  5  1  0
  5  6  1  0
  6  7  1  0
  7  8  2  0
  7  9  1  0
  9 10  1  0
 10 11  1  0
 11 12  1  0
 12 13  2  0
 13 14  1  0
 14 15  1  0
 14 16  2  0
 16 17  1  0
 17 18  1  0
 17 19  2  0
 19 20  1  0
 20 21  3  0
 19 12  1  0
M  END
>  <Binding energies>  (15) 
[-7.45]

>  <Ligand effiencies>  (15) 
[-0.3386363636363636]

>  <Interactions>  (15) 
["V-B:GLY:544:C:9884, V-B:LYS:547:CE:9922, V-A:HIS:456:CD2:4066, V-B:HIS:456:CD2:9040, V-A:HIS:456:CG:4064, H-B:GLY:544:O:9885, H-B:LYS:547:NZ:9923, H-A:LYS:547:NZ:4949, V-B:LYS:547:CD:9921, V-A:ASP:473:CG:4238, V-A:HIS:456:C:4059, V-B:VAL:458:CG2:9059, V-B:HIS:456:CB:9037, V-A:LYS:471:CD:4217, V-A:HIS:456:CB:4063, V-B:HIS:456:C:9033, V-A:VAL:458:CG2:4085, V-A:LYS:471:CE:4218, V-A:LYS:547:CD:4947, V-A:LYS:547:CG:4946, V-B:LYS:471:CE:9192, V-B:LYS:471:CD:9191, V-B:LYS:471:CG:9190, V-B:ASP:473:CG:9212, V-A:LYS:471:CG:4216, H-B:VAL:457:N:9048"]

$$$$
2a_Grossjean_2025
     RDKit          3D

 29 30  0  0  0  0  0  0  0  0999 V2000
  133.2190  132.2900   55.7600 C   0  0  0  0  0  0  0  0  0  0  0  0
  131.9540  131.7640   56.4450 C   0  0  0  0  0  0  0  0  0  0  0  0
  130.8150  132.1420   55.6820 O   0  0  0  0  0  0  0  0  0  0  0  0
  129.5620  132.0410   56.1960 C   0  0  0  0  0  0  0  0  0  0  0  0
  128.9820  132.9710   56.7640 O   0  0  0  0  0  0  0  0  0  0  0  0
  128.9440  130.6880   55.9850 C   0  0  0  0  0  0  0  0  0  0  0  0
  129.6690  129.6180   55.4390 C   0  0  0  0  0  0  0  0  0  0  0  0
  129.0660  128.3780   55.2550 C   0  0  0  0  0  0  0  0  0  0  0  0
  127.7290  128.1810   55.6040 C   0  0  0  0  0  0  0  0  0  0  0  0
  127.2200  126.8920   55.3610 N   0  0  0  0  0  0  0  0  0  0  0  0
  127.8660  125.7470   55.0520 C   0  0  0  0  0  0  0  0  0  0  0  0
  129.0820  125.6330   54.8960 O   0  0  0  0  0  0  0  0  0  0  0  0
  126.9770  124.5100   54.8870 C   0  0  0  0  0  0  0  0  0  0  0  0
  127.7000  123.0000   55.6100 S   0  0  0  0  0  0  0  0  0  0  0  0
  127.7670  123.1550   57.3910 C   0  0  0  0  0  0  0  0  0  0  0  0
  128.9570  122.8440   57.9640 N   0  0  0  0  0  0  0  0  0  0  0  0
  129.0770  122.9270   59.3080 C   0  0  0  0  0  0  0  0  0  0  0  0
  130.4290  122.5380   59.8770 C   0  0  0  0  0  0  0  0  0  0  0  0
  128.0290  123.3270   60.1320 C   0  0  0  0  0  0  0  0  0  0  0  0
  126.7910  123.6610   59.5610 C   0  0  0  0  0  0  0  0  0  0  0  0
  125.6420  124.1030   60.4860 C   0  0  0  0  0  0  0  0  0  0  0  0
  125.8000  123.5730   61.6990 F   0  0  0  0  0  0  0  0  0  0  0  0
  125.6280  125.4330   60.5920 F   0  0  0  0  0  0  0  0  0  0  0  0
  124.4430  123.7240   60.0350 F   0  0  0  0  0  0  0  0  0  0  0  0
  126.6520  123.5750   58.1520 C   0  0  0  0  0  0  0  0  0  0  0  0
  125.3800  123.9100   57.5020 C   0  0  0  0  0  0  0  0  0  0  0  0
  124.3760  124.1740   56.9890 N   0  0  0  0  0  0  0  0  0  0  0  0
  127.0000  129.2430   56.1580 C   0  0  0  0  0  0  0  0  0  0  0  0
  127.6060  130.4830   56.3450 C   0  0  0  0  0  0  0  0  0  0  0  0
  1  2  1  0
  2  3  1  0
  3  4  1  0
  4  5  2  0
  4  6  1  0
  6  7  2  0
  7  8  1  0
  8  9  2  0
  9 10  1  0
 10 11  1  0
 11 12  2  0
 11 13  1  0
 13 14  1  0
 14 15  1  0
 15 16  2  0
 16 17  1  0
 17 18  1  0
 17 19  2  0
 19 20  1  0
 20 21  1  0
 21 22  1  0
 21 23  1  0
 21 24  1  0
 20 25  2  0
 25 26  1  0
 26 27  3  0
  9 28  1  0
 28 29  2  0
 29  6  1  0
 25 15  1  0
M  END
>  <Binding energies>  (16) 
[-7.73]

>  <Ligand effiencies>  (16) 
[-0.25766666666666665]

>  <Interactions>  (16) 
["V-A:ILE:538:CG2:4861, V-A:PRO:540:CD:4885, V-B:ASP:366:CG:8185, V-A:PRO:540:N:4882, V-B:TYR:539:CD2:9846, H-B:TYR:531:OH:9767, V-B:PRO:540:CA:9855, V-A:ILE:538:CB:4860, V-B:TYR:539:CE2:9848, V-B:PRO:540:N:9856, V-B:PRO:540:CB:9857, V-A:TYR:539:CZ:4875, V-B:TYR:539:C:9839, V-B:TYR:531:CZ:9766, V-B:PRO:540:C:9853, V-B:GLU:543:CD:9880, V-A:PRO:540:CB:4883, V-A:LEU:363:CD1:3187, V-A:TYR:539:C:4865, V-A:TYR:531:CE2:4791, V-A:TYR:539:CD1:4871, H-A:TYR:539:N:4868, H-B:TYR:539:N:9842, V-B:ALA:541:CA:9862, V-B:ALA:541:C:9860, V-A:PRO:540:CG:4884, H-B:MET:535:SD:9806"]

$$$$
2b_Grossjean_2025
     RDKit          3D

 28 29  0  0  0  0  0  0  0  0999 V2000
  124.4320  123.3020   55.8740 C   0  0  0  0  0  0  0  0  0  0  0  0
  125.6620  122.6380   56.1310 O   0  0  0  0  0  0  0  0  0  0  0  0
  126.8480  123.2800   55.9790 C   0  0  0  0  0  0  0  0  0  0  0  0
  127.8120  122.7940   55.3790 O   0  0  0  0  0  0  0  0  0  0  0  0
  126.8730  124.6390   56.6170 C   0  0  0  0  0  0  0  0  0  0  0  0
  126.4420  124.8480   57.9350 C   0  0  0  0  0  0  0  0  0  0  0  0
  126.4760  126.1220   58.4960 C   0  0  0  0  0  0  0  0  0  0  0  0
  126.9460  127.2080   57.7570 C   0  0  0  0  0  0  0  0  0  0  0  0
  126.9320  128.4510   58.4190 N   0  0  0  0  0  0  0  0  0  0  0  0
  127.5210  129.6160   58.0760 C   0  0  0  0  0  0  0  0  0  0  0  0
  128.2300  129.7920   57.0840 O   0  0  0  0  0  0  0  0  0  0  0  0
  127.2720  130.7810   59.0390 C   0  0  0  0  0  0  0  0  0  0  0  0
  128.3200  132.2330   58.6950 S   0  0  0  0  0  0  0  0  0  0  0  0
  130.0430  131.8030   58.8990 C   0  0  0  0  0  0  0  0  0  0  0  0
  130.4350  131.5270   60.1690 N   0  0  0  0  0  0  0  0  0  0  0  0
  131.7270  131.1990   60.3980 C   0  0  0  0  0  0  0  0  0  0  0  0
  132.0860  130.9190   61.8440 C   0  0  0  0  0  0  0  0  0  0  0  0
  132.6740  131.1240   59.3810 C   0  0  0  0  0  0  0  0  0  0  0  0
  132.2900  131.3980   58.0590 C   0  0  0  0  0  0  0  0  0  0  0  0
  133.3490  131.3050   56.9450 C   0  0  0  0  0  0  0  0  0  0  0  0
  134.0580  132.4340   56.8950 F   0  0  0  0  0  0  0  0  0  0  0  0
  134.1760  130.2860   57.1820 F   0  0  0  0  0  0  0  0  0  0  0  0
  132.8140  131.1140   55.7370 F   0  0  0  0  0  0  0  0  0  0  0  0
  130.9390  131.7490   57.8050 C   0  0  0  0  0  0  0  0  0  0  0  0
  130.4840  132.0520   56.4450 C   0  0  0  0  0  0  0  0  0  0  0  0
  130.1250  132.2890   55.3710 N   0  0  0  0  0  0  0  0  0  0  0  0
  127.3720  127.0090   56.4360 C   0  0  0  0  0  0  0  0  0  0  0  0
  127.3360  125.7350   55.8760 C   0  0  0  0  0  0  0  0  0  0  0  0
  1  2  1  0
  2  3  1  0
  3  4  2  0
  3  5  1  0
  5  6  2  0
  6  7  1  0
  7  8  2  0
  8  9  1  0
  9 10  1  0
 10 11  2  0
 10 12  1  0
 12 13  1  0
 13 14  1  0
 14 15  2  0
 15 16  1  0
 16 17  1  0
 16 18  2  0
 18 19  1  0
 19 20  1  0
 20 21  1  0
 20 22  1  0
 20 23  1  0
 19 24  2  0
 24 25  1  0
 25 26  3  0
  8 27  1  0
 27 28  2  0
 28  5  1  0
 24 14  1  0
M  END
>  <Binding energies>  (17) 
[-7.58]

>  <Ligand effiencies>  (17) 
[-0.2613793103448276]

>  <Interactions>  (17) 
["V-A:ILE:538:CG2:4861, V-A:PRO:540:CD:4885, V-A:PRO:540:N:4882, H-B:ASP:366:OD2:8187, V-A:TYR:531:CZ:4792, V-B:ILE:538:CB:9834, V-A:ASP:366:CG:3211, V-B:TYR:531:CE2:9765, V-B:PRO:540:CD:9859, V-A:ASP:366:CB:3210, V-A:TYR:539:CE2:4874, V-B:ILE:538:CG2:9835, H-A:ALA:541:N:4889, V-A:PRO:540:CA:4881, V-A:GLU:543:CD:4906, V-B:ILE:538:CA:9832, V-B:LEU:363:CD1:8161, V-B:TYR:531:CZ:9766, V-A:ARG:545:CZ:4924, V-A:PRO:540:CB:4883, V-A:LEU:363:CD1:3187, V-A:TYR:539:C:4865, V-A:TYR:531:CE2:4791, H-A:TYR:539:N:4868, V-A:LEU:363:CB:3185, V-A:LEU:363:CA:3183, H-B:TYR:539:N:9842, V-A:PRO:540:CG:4884, V-A:LEU:363:CG:3186, V-A:LEU:363:C:3181"]

$$$$
2c_Grossjean_2025
     RDKit          3D

 26 27  0  0  0  0  0  0  0  0999 V2000
  124.7780  129.9370   65.0060 C   0  0  0  0  0  0  0  0  0  0  0  0
  124.1580  130.4970   63.8520 O   0  0  0  0  0  0  0  0  0  0  0  0
  124.8560  130.5280   62.6610 C   0  0  0  0  0  0  0  0  0  0  0  0
  124.1800  131.0470   61.5570 C   0  0  0  0  0  0  0  0  0  0  0  0
  124.8000  131.1190   60.3120 C   0  0  0  0  0  0  0  0  0  0  0  0
  126.1150  130.6560   60.1580 C   0  0  0  0  0  0  0  0  0  0  0  0
  126.8290  130.7030   58.9460 N   0  0  0  0  0  0  0  0  0  0  0  0
  126.4020  130.3910   57.7040 C   0  0  0  0  0  0  0  0  0  0  0  0
  125.2840  129.9450   57.4380 O   0  0  0  0  0  0  0  0  0  0  0  0
  127.4430  130.5930   56.5930 C   0  0  0  0  0  0  0  0  0  0  0  0
  128.4810  132.0890   56.7510 S   0  0  0  0  0  0  0  0  0  0  0  0
  129.9070  131.7180   57.7640 C   0  0  0  0  0  0  0  0  0  0  0  0
  129.6620  131.5640   59.0910 N   0  0  0  0  0  0  0  0  0  0  0  0
  130.6940  131.2920   59.9180 C   0  0  0  0  0  0  0  0  0  0  0  0
  130.3410  131.1510   61.3860 C   0  0  0  0  0  0  0  0  0  0  0  0
  132.0040  131.1530   59.4650 C   0  0  0  0  0  0  0  0  0  0  0  0
  132.2800  131.3000   58.0990 C   0  0  0  0  0  0  0  0  0  0  0  0
  133.7340  131.1420   57.6130 C   0  0  0  0  0  0  0  0  0  0  0  0
  134.5580  131.0580   58.6580 F   0  0  0  0  0  0  0  0  0  0  0  0
  133.8530  130.0360   56.8770 F   0  0  0  0  0  0  0  0  0  0  0  0
  134.1410  132.1690   56.8620 F   0  0  0  0  0  0  0  0  0  0  0  0
  131.2070  131.5910   57.2190 C   0  0  0  0  0  0  0  0  0  0  0  0
  131.4380  131.7580   55.7800 C   0  0  0  0  0  0  0  0  0  0  0  0
  131.6200  131.8890   54.6440 N   0  0  0  0  0  0  0  0  0  0  0  0
  126.8010  130.1500   61.2630 C   0  0  0  0  0  0  0  0  0  0  0  0
  126.1780  130.0810   62.5050 C   0  0  0  0  0  0  0  0  0  0  0  0
  1  2  1  0
  2  3  1  0
  3  4  2  0
  4  5  1  0
  5  6  2  0
  6  7  1  0
  7  8  1  0
  8  9  2  0
  8 10  1  0
 10 11  1  0
 11 12  1  0
 12 13  2  0
 13 14  1  0
 14 15  1  0
 14 16  2  0
 16 17  1  0
 17 18  1  0
 18 19  1  0
 18 20  1  0
 18 21  1  0
 17 22  2  0
 22 23  1  0
 23 24  3  0
  6 25  1  0
 25 26  2  0
 26  3  1  0
 22 12  1  0
M  END
>  <Binding energies>  (18) 
[-6.18]

>  <Ligand effiencies>  (18) 
[-0.2288888888888889]

>  <Interactions>  (18) 
["V-A:ILE:538:CG2:4861, V-A:PRO:540:CD:4885, V-B:ASP:366:CG:8185, V-A:PRO:540:N:4882, V-A:ILE:538:CB:4860, V-A:TYR:531:CZ:4792, V-A:ASP:366:CG:3211, H-A:TYR:531:OH:4793, V-A:ASP:366:CB:3210, V-A:TYR:539:CE2:4874, V-A:TYR:539:CZ:4875, V-A:PRO:540:CA:4881, V-A:GLU:543:CD:4906, V-B:ARG:545:CZ:9898, H-B:GLY:454:N:9022, V-A:PRO:540:CB:4883, V-A:LEU:363:CD1:3187, V-A:TYR:539:C:4865, V-A:TYR:539:CE1:4873, H-B:TYR:484:OH:9320, V-A:TYR:531:CE2:4791, H-A:TYR:539:OH:4876, V-B:ARG:545:CD:9895, V-A:LEU:363:CB:3185, V-A:LEU:363:CA:3183, V-A:ASN:362:C:3170, V-A:PRO:540:CG:4884, V-A:LEU:363:CG:3186, V-A:LEU:363:C:3181"]

$$$$
2d_Ghoteimi_2023
     RDKit          3D

 38 42  0  0  0  0  0  0  0  0999 V2000
  132.7500  124.5740   58.1270 C   0  0  0  0  0  0  0  0  0  0  0  0
  133.2400  123.2830   58.4590 O   0  0  0  0  0  0  0  0  0  0  0  0
  133.5910  122.9890   59.7280 C   0  0  0  0  0  0  0  0  0  0  0  0
  133.2030  122.0090   60.3700 O   0  0  0  0  0  0  0  0  0  0  0  0
  134.5610  124.0370   60.2960 C   0  0  0  0  0  0  0  0  0  0  0  0
  134.5640  124.0130   62.1210 S   0  0  0  0  0  0  0  0  0  0  0  0
  132.9580  124.5310   62.6910 C   0  0  0  0  0  0  0  0  0  0  0  0
  131.9860  124.3830   61.7580 N   0  0  0  0  0  0  0  0  0  0  0  0
  130.7120  124.7450   62.0540 C   0  0  0  0  0  0  0  0  0  0  0  0
  129.6980  124.5690   60.9700 C   0  0  0  0  0  0  0  0  0  0  0  0
  129.3110  125.6530   60.1740 C   0  0  0  0  0  0  0  0  0  0  0  0
  128.3670  125.4960   59.1620 C   0  0  0  0  0  0  0  0  0  0  0  0
  127.7840  124.2470   58.9030 C   0  0  0  0  0  0  0  0  0  0  0  0
  126.8200  124.0760   57.9020 N   0  0  0  0  0  0  0  0  0  0  0  0
  127.0680  123.2120   56.7310 C   0  0  0  0  0  0  0  0  0  0  0  0
  126.0720  123.4370   55.5750 C   0  0  0  0  0  0  0  0  0  0  0  0
  124.7420  123.2820   56.0450 O   0  0  0  0  0  0  0  0  0  0  0  0
  124.4380  124.2160   57.0680 C   0  0  0  0  0  0  0  0  0  0  0  0
  125.3900  124.0190   58.2670 C   0  0  0  0  0  0  0  0  0  0  0  0
  128.1640  123.1670   59.7120 C   0  0  0  0  0  0  0  0  0  0  0  0
  129.1060  123.3240   60.7250 C   0  0  0  0  0  0  0  0  0  0  0  0
  130.3830  125.2650   63.3080 C   0  0  0  0  0  0  0  0  0  0  0  0
  131.3620  125.3970   64.3010 C   0  0  0  0  0  0  0  0  0  0  0  0
  130.9320  125.9350   65.6270 C   0  0  0  0  0  0  0  0  0  0  0  0
  129.7660  125.4620   66.2310 C   0  0  0  0  0  0  0  0  0  0  0  0
  129.3630  125.9470   67.4720 C   0  0  0  0  0  0  0  0  0  0  0  0
  130.1170  126.9240   68.1440 C   0  0  0  0  0  0  0  0  0  0  0  0
  129.7380  127.4160   69.3960 N   0  0  0  0  0  0  0  0  0  0  0  0
  130.5080  127.0930   70.6140 C   0  0  0  0  0  0  0  0  0  0  0  0
  130.1630  127.9980   71.8160 C   0  0  0  0  0  0  0  0  0  0  0  0
  128.7680  127.9560   72.0720 O   0  0  0  0  0  0  0  0  0  0  0  0
  128.0160  128.4030   70.9540 C   0  0  0  0  0  0  0  0  0  0  0  0
  128.3040  127.5060   69.7310 C   0  0  0  0  0  0  0  0  0  0  0  0
  131.2950  127.3790   67.5370 C   0  0  0  0  0  0  0  0  0  0  0  0
  131.6980  126.8930   66.2970 C   0  0  0  0  0  0  0  0  0  0  0  0
  132.6910  125.0160   63.9920 C   0  0  0  0  0  0  0  0  0  0  0  0
  133.7480  125.1170   65.0040 C   0  0  0  0  0  0  0  0  0  0  0  0
  134.5790  125.1990   65.8060 N   0  0  0  0  0  0  0  0  0  0  0  0
  1  2  1  0
  2  3  1  0
  3  4  2  0
  3  5  1  0
  5  6  1  0
  6  7  1  0
  7  8  2  0
  8  9  1  0
  9 10  1  0
 10 11  2  0
 11 12  1  0
 12 13  2  0
 13 14  1  0
 14 15  1  0
 15 16  1  0
 16 17  1  0
 17 18  1  0
 18 19  1  0
 13 20  1  0
 20 21  2  0
  9 22  2  0
 22 23  1  0
 23 24  1  0
 24 25  2  0
 25 26  1  0
 26 27  2  0
 27 28  1  0
 28 29  1  0
 29 30  1  0
 30 31  1  0
 31 32  1  0
 32 33  1  0
 27 34  1  0
 34 35  2  0
 23 36  2  0
 36 37  1  0
 37 38  3  0
 36  7  1  0
 21 10  1  0
 35 24  1  0
 19 14  1  0
 33 28  1  0
M  END
>  <Binding energies>  (19) 
[-6.62]

>  <Ligand effiencies>  (19) 
[-0.17421052631578948]

>  <Interactions>  (19) 
["H-B:TYR:531:OH:9767, V-B:PRO:540:CA:9855, V-A:ILE:369:CG2:3235, V-A:ILE:369:CD1:3237, V-B:TYR:539:CE2:9848, V-B:PRO:540:N:9856, V-B:ILE:538:CB:9834, V-A:ASP:366:CG:3211, V-B:TYR:531:CE2:9765, V-B:PRO:540:CB:9857, V-A:ASP:366:CB:3210, V-B:ILE:538:CG2:9835, V-B:TYR:539:CZ:9849, V-A:GLU:543:CD:4906, V-B:ILE:538:CA:9832, V-A:HIS:456:CE1:4068, H-A:ARG:545:NE:4922, H-A:TYR:484:OH:4346, V-B:TYR:539:C:9839, H-A:GLY:454:N:4048, V-B:TYR:531:CZ:9766, V-B:GLU:543:CD:9880, V-A:ARG:545:CZ:4924, V-B:GLU:543:CB:9878, V-B:GLU:543:CG:9879, V-A:GLU:543:CG:4905, V-B:HIS:456:CE1:9042, H-B:TYR:539:OH:9850, V-A:ILE:369:CB:3234, V-A:LYS:547:CE:4948, V-B:HIS:456:CG:9038, V-A:GLY:544:C:4910, V-A:GLU:543:C:4900, V-A:HIS:456:CD2:4066, V-B:HIS:456:CD2:9040, V-B:GLU:543:C:9874, V-A:GLY:544:CA:4912, V-B:GLU:543:CA:9876, V-A:ARG:545:CD:4921, V-A:ARG:545:CG:4920, V-A:GLY:454:CA:4047, V-A:ASP:366:CA:3208, V-A:ILE:369:CG1:3236, V-A:GLY:453:C:4040, V-A:GLY:453:CA:4042, H-A:ILE:455:N:4053"]

$$$$
2d_Grossjean_2025
     RDKit          3D

 24 25  0  0  0  0  0  0  0  0999 V2000
  129.3870  122.1440   73.2880 C   0  0  0  0  0  0  0  0  0  0  0  0
  130.4170  123.2300   73.5370 C   0  0  0  0  0  0  0  0  0  0  0  0
  131.5400  123.0020   74.3290 C   0  0  0  0  0  0  0  0  0  0  0  0
  132.4660  124.0360   74.5260 C   0  0  0  0  0  0  0  0  0  0  0  0
  133.7070  123.7630   75.3970 C   0  0  0  0  0  0  0  0  0  0  0  0
  134.7560  124.4360   74.9220 F   0  0  0  0  0  0  0  0  0  0  0  0
  133.4790  124.1500   76.6540 F   0  0  0  0  0  0  0  0  0  0  0  0
  134.0410  122.4710   75.4300 F   0  0  0  0  0  0  0  0  0  0  0  0
  132.2210  125.2920   73.9130 C   0  0  0  0  0  0  0  0  0  0  0  0
  133.1810  126.3900   74.0500 C   0  0  0  0  0  0  0  0  0  0  0  0
  133.9410  127.2560   74.1580 N   0  0  0  0  0  0  0  0  0  0  0  0
  131.0410  125.4390   73.1460 C   0  0  0  0  0  0  0  0  0  0  0  0
  130.5630  126.9530   72.3350 S   0  0  0  0  0  0  0  0  0  0  0  0
  128.7450  127.0040   72.2150 C   0  0  0  0  0  0  0  0  0  0  0  0
  128.1370  128.2500   72.8670 C   0  0  0  0  0  0  0  0  0  0  0  0
  128.7310  129.3250   72.7730 O   0  0  0  0  0  0  0  0  0  0  0  0
  126.9810  128.0540   73.5350 N   0  0  0  0  0  0  0  0  0  0  0  0
  126.1850  128.9860   74.2270 C   0  0  0  0  0  0  0  0  0  0  0  0
  126.8220  130.1670   74.6150 C   0  0  0  0  0  0  0  0  0  0  0  0
  126.1200  131.1480   75.3090 C   0  0  0  0  0  0  0  0  0  0  0  0
  124.7790  130.9430   75.6250 C   0  0  0  0  0  0  0  0  0  0  0  0
  124.1360  129.7640   75.2550 C   0  0  0  0  0  0  0  0  0  0  0  0
  124.8350  128.7820   74.5600 C   0  0  0  0  0  0  0  0  0  0  0  0
  130.1670  124.4220   72.9490 N   0  0  0  0  0  0  0  0  0  0  0  0
  1  2  1  0
  2  3  2  0
  3  4  1  0
  4  5  1  0
  5  6  1  0
  5  7  1  0
  5  8  1  0
  4  9  2  0
  9 10  1  0
 10 11  3  0
  9 12  1  0
 12 13  1  0
 13 14  1  0
 14 15  1  0
 15 16  2  0
 15 17  1  0
 17 18  1  0
 18 19  2  0
 19 20  1  0
 20 21  2  0
 21 22  1  0
 22 23  2  0
 12 24  2  0
 24  2  1  0
 23 18  1  0
M  END
>  <Binding energies>  (20) 
[-7.92]

>  <Ligand effiencies>  (20) 
[-0.31679999999999997]

>  <Interactions>  (20) 
["V-B:GLY:544:C:9884, V-B:HIS:456:CG:9038, V-B:LYS:547:CE:9922, V-A:HIS:456:CD2:4066, V-B:HIS:456:CD2:9040, V-A:HIS:456:CG:4064, H-B:GLY:544:O:9885, H-B:LYS:547:NZ:9923, H-A:LYS:547:NZ:4949, V-A:ASP:473:CG:4238, V-A:HIS:456:C:4059, V-B:VAL:458:CG2:9059, V-B:VAL:457:C:9045, V-B:HIS:456:CB:9037, V-A:LYS:471:CD:4217, V-A:HIS:456:CB:4063, V-B:HIS:456:CA:9035, V-B:HIS:456:C:9033, V-A:VAL:458:CG2:4085, V-A:LYS:471:CE:4218, V-A:LYS:547:CD:4947, V-A:VAL:457:C:4071, V-B:LYS:471:CE:9192, V-B:LYS:471:CD:9191, V-B:LYS:471:CG:9190, V-B:ASP:473:CG:9212, V-B:VAL:457:CA:9047, V-A:VAL:457:CA:4073, V-A:HIS:456:CA:4061, V-A:LYS:471:CG:4216, V-A:ASP:473:CB:4237, V-A:LYS:471:CB:4215"]

$$$$
2e_Grossjean_2025
     RDKit          3D

 25 26  0  0  0  0  0  0  0  0999 V2000
  130.6770  126.6310   72.1910 C   0  0  0  0  0  0  0  0  0  0  0  0
  131.3690  125.6760   73.1450 C   0  0  0  0  0  0  0  0  0  0  0  0
  132.6040  125.9840   73.7210 C   0  0  0  0  0  0  0  0  0  0  0  0
  133.1760  125.0620   74.5990 C   0  0  0  0  0  0  0  0  0  0  0  0
  132.5070  123.8670   74.8770 C   0  0  0  0  0  0  0  0  0  0  0  0
  131.2760  123.6180   74.2580 C   0  0  0  0  0  0  0  0  0  0  0  0
  130.6270  122.4220   74.6070 N   0  0  0  0  0  0  0  0  0  0  0  0
  129.4110  121.9860   74.2070 C   0  0  0  0  0  0  0  0  0  0  0  0
  128.6900  122.5580   73.3880 O   0  0  0  0  0  0  0  0  0  0  0  0
  128.9090  120.7030   74.8770 C   0  0  0  0  0  0  0  0  0  0  0  0
  127.2860  120.9370   75.6700 S   0  0  0  0  0  0  0  0  0  0  0  0
  126.0850  120.6000   74.4010 C   0  0  0  0  0  0  0  0  0  0  0  0
  126.5920  120.5370   73.1450 N   0  0  0  0  0  0  0  0  0  0  0  0
  125.7410  120.3290   72.1150 C   0  0  0  0  0  0  0  0  0  0  0  0
  126.3740  120.2690   70.7390 C   0  0  0  0  0  0  0  0  0  0  0  0
  124.3660  120.1840   72.2930 C   0  0  0  0  0  0  0  0  0  0  0  0
  123.8240  120.2560   73.5850 C   0  0  0  0  0  0  0  0  0  0  0  0
  122.3010  120.1160   73.7620 C   0  0  0  0  0  0  0  0  0  0  0  0
  121.6810  120.3530   72.6060 F   0  0  0  0  0  0  0  0  0  0  0  0
  122.0020  118.8820   74.1680 F   0  0  0  0  0  0  0  0  0  0  0  0
  121.8070  120.9670   74.6640 F   0  0  0  0  0  0  0  0  0  0  0  0
  124.7040  120.4680   74.6750 C   0  0  0  0  0  0  0  0  0  0  0  0
  124.1970  120.5830   76.0470 C   0  0  0  0  0  0  0  0  0  0  0  0
  123.7970  120.6740   77.1290 N   0  0  0  0  0  0  0  0  0  0  0  0
  130.7070  124.5190   73.4050 N   0  0  0  0  0  0  0  0  0  0  0  0
  1  2  1  0
  2  3  2  0
  3  4  1  0
  4  5  2  0
  5  6  1  0
  6  7  1  0
  7  8  1  0
  8  9  2  0
  8 10  1  0
 10 11  1  0
 11 12  1  0
 12 13  2  0
 13 14  1  0
 14 15  1  0
 14 16  2  0
 16 17  1  0
 17 18  1  0
 18 19  1  0
 18 20  1  0
 18 21  1  0
 17 22  2  0
 22 23  1  0
 23 24  3  0
  6 25  2  0
 25  2  1  0
 22 12  1  0
M  END
>  <Binding energies>  (21) 
[-7.12]

>  <Ligand effiencies>  (21) 
[-0.27384615384615385]

>  <Interactions>  (21) 
["V-A:GLY:544:C:4910, V-B:LYS:547:CE:9922, V-A:HIS:456:CD2:4066, V-B:GLU:543:C:9874, V-A:HIS:456:CG:4064, H-B:LYS:547:NZ:9923, V-B:GLY:544:CA:9886, V-B:GLU:543:CA:9876, V-A:ASP:473:CG:4238, V-A:HIS:456:C:4059, V-A:HIS:456:CB:4063, V-A:VAL:458:CG2:4085, V-A:LYS:471:CE:4218, V-B:LYS:547:CA:9917, V-B:PHE:548:CE2:9937, V-B:VAL:542:CG1:9871, V-B:PHE:548:CD2:9935, V-B:LYS:547:C:9915, H-B:PHE:548:N:9931, V-B:ARG:356:CB:8089, V-B:LYS:547:CG:9920, V-B:VAL:542:C:9866, V-B:LYS:547:CB:9919, H-A:ASP:473:OD2:4240, V-B:GLU:357:CB:8106, V-B:ILE:546:C:9906"]

$$$$
2f_Grossjean_2025
     RDKit          3D

 24 25  0  0  0  0  0  0  0  0999 V2000
  129.2510  122.1290   73.4590 C   0  0  0  0  0  0  0  0  0  0  0  0
  130.3200  123.1910   73.6310 C   0  0  0  0  0  0  0  0  0  0  0  0
  131.4640  122.9590   74.3900 C   0  0  0  0  0  0  0  0  0  0  0  0
  132.4210  123.9770   74.5260 C   0  0  0  0  0  0  0  0  0  0  0  0
  133.6740  123.7050   75.3800 C   0  0  0  0  0  0  0  0  0  0  0  0
  133.9880  122.4090   75.3330 F   0  0  0  0  0  0  0  0  0  0  0  0
  134.7030  124.4160   74.9170 F   0  0  0  0  0  0  0  0  0  0  0  0
  133.5060  124.0300   76.6640 F   0  0  0  0  0  0  0  0  0  0  0  0
  132.1900  125.2160   73.8740 C   0  0  0  0  0  0  0  0  0  0  0  0
  133.1310  126.3280   74.0320 C   0  0  0  0  0  0  0  0  0  0  0  0
  133.8750  127.2060   74.1560 N   0  0  0  0  0  0  0  0  0  0  0  0
  131.0110  125.3520   73.1020 C   0  0  0  0  0  0  0  0  0  0  0  0
  130.5680  126.8280   72.2080 S   0  0  0  0  0  0  0  0  0  0  0  0
  128.7490  126.9820   72.2360 C   0  0  0  0  0  0  0  0  0  0  0  0
  128.2120  128.2370   72.9380 C   0  0  0  0  0  0  0  0  0  0  0  0
  128.8650  129.2820   72.9430 O   0  0  0  0  0  0  0  0  0  0  0  0
  127.0140  128.0730   73.5390 N   0  0  0  0  0  0  0  0  0  0  0  0
  126.2370  129.0040   74.2540 C   0  0  0  0  0  0  0  0  0  0  0  0
  126.6640  130.2810   74.6630 C   0  0  0  0  0  0  0  0  0  0  0  0
  125.7880  131.1110   75.3650 C   0  0  0  0  0  0  0  0  0  0  0  0
  124.5020  130.6450   75.6380 C   0  0  0  0  0  0  0  0  0  0  0  0
  124.0620  129.4220   75.2480 N   0  0  0  0  0  0  0  0  0  0  0  0
  124.9260  128.6270   74.5660 C   0  0  0  0  0  0  0  0  0  0  0  0
  130.0880  124.3650   73.0010 N   0  0  0  0  0  0  0  0  0  0  0  0
  1  2  1  0
  2  3  2  0
  3  4  1  0
  4  5  1  0
  5  6  1  0
  5  7  1  0
  5  8  1  0
  4  9  2  0
  9 10  1  0
 10 11  3  0
  9 12  1  0
 12 13  1  0
 13 14  1  0
 14 15  1  0
 15 16  2  0
 15 17  1  0
 17 18  1  0
 18 19  2  0
 19 20  1  0
 20 21  2  0
 21 22  1  0
 22 23  2  0
 12 24  2  0
 24  2  1  0
 23 18  1  0
M  END
>  <Binding energies>  (22) 
[-7.58]

>  <Ligand effiencies>  (22) 
[-0.3032]

>  <Interactions>  (22) 
["V-B:GLY:544:C:9884, V-A:LYS:547:CE:4948, V-B:HIS:456:CG:9038, V-B:LYS:547:CE:9922, V-A:HIS:456:CD2:4066, V-B:HIS:456:CD2:9040, V-A:HIS:456:CG:4064, H-B:GLY:544:O:9885, H-B:LYS:547:NZ:9923, H-A:LYS:547:NZ:4949, V-B:GLY:544:CA:9886, V-A:ASP:473:CG:4238, V-A:HIS:456:C:4059, V-B:VAL:458:CG2:9059, V-B:HIS:456:CB:9037, V-A:LYS:471:CD:4217, V-A:HIS:456:CB:4063, V-B:HIS:456:CA:9035, V-B:HIS:456:C:9033, V-A:VAL:458:CG2:4085, V-A:LYS:471:CE:4218, V-A:LYS:547:CD:4947, V-A:VAL:457:C:4071, V-B:LYS:471:CE:9192, V-B:LYS:471:CD:9191, V-B:LYS:471:CG:9190, V-B:ASP:473:CG:9212, V-A:VAL:457:CA:4073, V-A:HIS:456:CA:4061, V-A:LYS:471:CG:4216, H-B:VAL:458:N:9056, H-B:VAL:457:N:9048, V-A:ASP:473:CB:4237, V-A:LYS:471:CB:4215"]

$$$$
2g_Grossjean_2025
     RDKit          3D

 25 26  0  0  0  0  0  0  0  0999 V2000
  123.7300  122.9860   55.7590 C   0  0  0  0  0  0  0  0  0  0  0  0
  124.9030  123.2980   56.6680 C   0  0  0  0  0  0  0  0  0  0  0  0
  124.7180  123.6570   58.0010 C   0  0  0  0  0  0  0  0  0  0  0  0
  125.8360  123.9430   58.7990 C   0  0  0  0  0  0  0  0  0  0  0  0
  125.6110  124.3480   60.2700 C   0  0  0  0  0  0  0  0  0  0  0  0
  126.0150  125.6030   60.4710 F   0  0  0  0  0  0  0  0  0  0  0  0
  124.3140  124.2580   60.5700 F   0  0  0  0  0  0  0  0  0  0  0  0
  126.2780  123.5720   61.1270 F   0  0  0  0  0  0  0  0  0  0  0  0
  127.1270  123.8480   58.2200 C   0  0  0  0  0  0  0  0  0  0  0  0
  128.3230  124.1910   58.9930 C   0  0  0  0  0  0  0  0  0  0  0  0
  129.2670  124.4620   59.6050 N   0  0  0  0  0  0  0  0  0  0  0  0
  127.2190  123.4450   56.8650 C   0  0  0  0  0  0  0  0  0  0  0  0
  128.7570  123.2510   55.9900 S   0  0  0  0  0  0  0  0  0  0  0  0
  129.1910  124.8740   55.2770 C   0  0  0  0  0  0  0  0  0  0  0  0
  130.5250  125.4550   55.7680 C   0  0  0  0  0  0  0  0  0  0  0  0
  131.2710  126.0780   55.0110 O   0  0  0  0  0  0  0  0  0  0  0  0
  130.8110  125.2280   57.0630 N   0  0  0  0  0  0  0  0  0  0  0  0
  132.0140  125.6870   57.7600 C   0  0  0  0  0  0  0  0  0  0  0  0
  132.4490  124.7950   58.9180 C   0  0  0  0  0  0  0  0  0  0  0  0
  132.1020  125.1380   60.2280 C   0  0  0  0  0  0  0  0  0  0  0  0
  132.4650  124.3060   61.2840 C   0  0  0  0  0  0  0  0  0  0  0  0
  133.1640  123.1290   61.0260 C   0  0  0  0  0  0  0  0  0  0  0  0
  133.5010  122.7750   59.7210 C   0  0  0  0  0  0  0  0  0  0  0  0
  133.1380  123.6060   58.6650 C   0  0  0  0  0  0  0  0  0  0  0  0
  126.1270  123.1950   56.1020 N   0  0  0  0  0  0  0  0  0  0  0  0
  1  2  1  0
  2  3  2  0
  3  4  1  0
  4  5  1  0
  5  6  1  0
  5  7  1  0
  5  8  1  0
  4  9  2  0
  9 10  1  0
 10 11  3  0
  9 12  1  0
 12 13  1  0
 13 14  1  0
 14 15  1  0
 15 16  2  0
 15 17  1  0
 17 18  1  0
 18 19  1  0
 19 20  2  0
 20 21  1  0
 21 22  2  0
 22 23  1  0
 23 24  2  0
 12 25  2  0
 25  2  1  0
 24 19  1  0
M  END
>  <Binding energies>  (23) 
[-6.56]

>  <Ligand effiencies>  (23) 
[-0.2523076923076923]

>  <Interactions>  (23) 
["V-B:ASP:366:CG:8185, V-B:PRO:540:CA:9855, V-B:ASN:362:CB:8148, V-A:ILE:369:CG2:3235, V-A:ILE:369:CD1:3237, V-B:TYR:539:CE2:9848, V-B:PRO:540:N:9856, V-B:ILE:538:CB:9834, V-A:ASP:366:CG:3211, H-A:TYR:531:OH:4793, V-B:TYR:531:CE2:9765, V-B:PRO:540:CD:9859, V-B:PRO:540:CB:9857, V-A:ASP:366:CB:3210, V-B:ILE:538:CG2:9835, V-B:TYR:539:CZ:9849, V-B:TYR:539:CE1:9847, V-B:TYR:539:C:9839, V-B:LEU:363:CD1:8161, V-B:PRO:540:C:9853, H-B:TYR:539:OH:9850, V-A:ILE:369:CB:3234, H-B:TYR:539:N:9842, V-B:ILE:538:CD1:9837, V-B:ASN:362:C:8144"]

$$$$
2h_Grossjean_2025
     RDKit          3D

 31 32  0  0  0  0  0  0  0  0999 V2000
  127.9300  123.5330   55.0710 C   0  0  0  0  0  0  0  0  0  0  0  0
  127.0940  123.1910   56.1710 O   0  0  0  0  0  0  0  0  0  0  0  0
  127.6350  123.1300   57.4430 C   0  0  0  0  0  0  0  0  0  0  0  0
  129.0000  122.9270   57.7040 C   0  0  0  0  0  0  0  0  0  0  0  0
  129.4740  122.8860   59.0130 C   0  0  0  0  0  0  0  0  0  0  0  0
  128.5980  123.0460   60.0890 C   0  0  0  0  0  0  0  0  0  0  0  0
  129.1450  123.0180   61.5150 C   0  0  0  0  0  0  0  0  0  0  0  0
  130.6010  122.8920   61.5840 N   0  0  0  0  0  0  0  0  0  0  0  0
  131.3100  121.8660   61.0820 C   0  0  0  0  0  0  0  0  0  0  0  0
  130.7900  120.8700   60.5760 O   0  0  0  0  0  0  0  0  0  0  0  0
  132.8360  122.0100   61.1680 C   0  0  0  0  0  0  0  0  0  0  0  0
  133.4400  123.7230   61.3380 S   0  0  0  0  0  0  0  0  0  0  0  0
  132.3540  124.7500   60.3710 C   0  0  0  0  0  0  0  0  0  0  0  0
  131.4650  125.4550   61.1140 N   0  0  0  0  0  0  0  0  0  0  0  0
  130.5800  126.2540   60.4780 C   0  0  0  0  0  0  0  0  0  0  0  0
  129.6110  127.0060   61.3710 C   0  0  0  0  0  0  0  0  0  0  0  0
  130.5460  126.3860   59.0910 C   0  0  0  0  0  0  0  0  0  0  0  0
  131.4720  125.6800   58.3080 C   0  0  0  0  0  0  0  0  0  0  0  0
  131.4250  125.8470   56.7760 C   0  0  0  0  0  0  0  0  0  0  0  0
  132.6590  126.0120   56.2990 F   0  0  0  0  0  0  0  0  0  0  0  0
  130.8960  124.7890   56.1580 F   0  0  0  0  0  0  0  0  0  0  0  0
  130.6900  126.9110   56.4530 F   0  0  0  0  0  0  0  0  0  0  0  0
  132.4130  124.8430   58.9600 C   0  0  0  0  0  0  0  0  0  0  0  0
  133.4370  124.1310   58.1920 C   0  0  0  0  0  0  0  0  0  0  0  0
  134.2470  123.5720   57.5830 N   0  0  0  0  0  0  0  0  0  0  0  0
  127.2290  123.2260   59.8430 C   0  0  0  0  0  0  0  0  0  0  0  0
  126.3600  123.3820   60.8970 O   0  0  0  0  0  0  0  0  0  0  0  0
  126.1820  124.7290   61.3170 C   0  0  0  0  0  0  0  0  0  0  0  0
  126.7560  123.2870   58.5210 C   0  0  0  0  0  0  0  0  0  0  0  0
  125.4170  123.4820   58.2770 O   0  0  0  0  0  0  0  0  0  0  0  0
  125.1030  124.7630   57.7490 C   0  0  0  0  0  0  0  0  0  0  0  0
  1  2  1  0
  2  3  1  0
  3  4  2  0
  4  5  1  0
  5  6  2  0
  6  7  1  0
  7  8  1  0
  8  9  1  0
  9 10  2  0
  9 11  1  0
 11 12  1  0
 12 13  1  0
 13 14  2  0
 14 15  1  0
 15 16  1  0
 15 17  2  0
 17 18  1  0
 18 19  1  0
 19 20  1  0
 19 21  1  0
 19 22  1  0
 18 23  2  0
 23 24  1  0
 24 25  3  0
  6 26  1  0
 26 27  1  0
 27 28  1  0
 26 29  2  0
 29 30  1  0
 30 31  1  0
 29  3  1  0
 23 13  1  0
M  END
>  <Binding energies>  (24) 
[-6.5]

>  <Ligand effiencies>  (24) 
[-0.203125]

>  <Interactions>  (24) 
["V-B:TYR:539:CD2:9846, V-B:PRO:540:CA:9855, H-B:ALA:541:N:9863, V-A:LEU:475:CD2:4257, V-A:ILE:369:CG2:3235, V-B:ALA:541:CB:9864, V-A:TYR:531:CZ:4792, V-B:TYR:539:CE2:9848, V-B:PRO:540:N:9856, V-A:ASP:366:CG:3211, V-B:PRO:540:CB:9857, V-A:ASP:366:CB:3210, V-B:TYR:539:CZ:9849, V-B:TYR:539:CE1:9847, V-B:ILE:538:CA:9832, V-B:TYR:539:CG:9844, V-B:TYR:539:C:9839, V-B:PRO:540:C:9853, V-B:GLU:543:CD:9880, V-B:TYR:539:CD1:9845, H-A:ARG:545:NH2:4926, H-B:TYR:539:OH:9850, V-A:TYR:531:CE1:4790, V-A:ASP:366:CA:3208, H-B:TYR:539:N:9842"]

$$$$
2i_Grossjean_2025
     RDKit          3D

 23 24  0  0  0  0  0  0  0  0999 V2000
  132.4090  131.1010   62.1360 C   0  0  0  0  0  0  0  0  0  0  0  0
  131.7780  131.3660   60.7810 C   0  0  0  0  0  0  0  0  0  0  0  0
  132.4980  131.2190   59.5990 C   0  0  0  0  0  0  0  0  0  0  0  0
  131.8690  131.4740   58.3720 C   0  0  0  0  0  0  0  0  0  0  0  0
  132.6810  131.3070   57.0730 C   0  0  0  0  0  0  0  0  0  0  0  0
  133.7290  130.5100   57.2900 F   0  0  0  0  0  0  0  0  0  0  0  0
  131.9170  130.7680   56.1220 F   0  0  0  0  0  0  0  0  0  0  0  0
  133.1480  132.4660   56.6030 F   0  0  0  0  0  0  0  0  0  0  0  0
  130.5090  131.8760   58.3790 C   0  0  0  0  0  0  0  0  0  0  0  0
  129.8010  132.1540   57.1250 C   0  0  0  0  0  0  0  0  0  0  0  0
  129.2420  132.3730   56.1360 N   0  0  0  0  0  0  0  0  0  0  0  0
  129.8540  132.0030   59.6260 C   0  0  0  0  0  0  0  0  0  0  0  0
  128.1470  132.5090   59.7580 S   0  0  0  0  0  0  0  0  0  0  0  0
  127.8720  133.1360   61.4430 C   0  0  0  0  0  0  0  0  0  0  0  0
  126.6980  132.4420   62.1360 C   0  0  0  0  0  0  0  0  0  0  0  0
  125.5560  132.6360   61.7160 O   0  0  0  0  0  0  0  0  0  0  0  0
  127.0140  131.6710   63.1980 N   0  0  0  0  0  0  0  0  0  0  0  0
  126.1330  130.9590   63.9950 C   0  0  0  0  0  0  0  0  0  0  0  0
  126.3830  129.9700   64.9580 C   0  0  0  0  0  0  0  0  0  0  0  0
  125.1400  129.6220   65.4320 C   0  0  0  0  0  0  0  0  0  0  0  0
  124.1990  130.3630   64.7980 O   0  0  0  0  0  0  0  0  0  0  0  0
  124.8460  131.2100   63.8950 N   0  0  0  0  0  0  0  0  0  0  0  0
  130.4820  131.7500   60.8030 N   0  0  0  0  0  0  0  0  0  0  0  0
  1  2  1  0
  2  3  2  0
  3  4  1  0
  4  5  1  0
  5  6  1  0
  5  7  1  0
  5  8  1  0
  4  9  2  0
  9 10  1  0
 10 11  3  0
  9 12  1  0
 12 13  1  0
 13 14  1  0
 14 15  1  0
 15 16  2  0
 15 17  1  0
 17 18  1  0
 18 19  1  0
 19 20  2  0
 20 21  1  0
 21 22  1  0
 12 23  2  0
 23  2  1  0
 22 18  2  0
M  END
>  <Binding energies>  (25) 
[-7.83]

>  <Ligand effiencies>  (25) 
[-0.32625]

>  <Interactions>  (25) 
["V-A:PRO:540:CD:4885, V-A:PRO:540:N:4882, V-A:ILE:538:CB:4860, V-A:TYR:531:CZ:4792, V-A:ASP:366:CG:3211, V-A:ASP:366:CB:3210, H-A:ALA:541:N:4889, V-A:PRO:540:CA:4881, V-A:ALA:541:CB:4890, V-A:GLU:543:CD:4906, H-A:GLU:543:OE1:4907, V-A:ARG:545:CZ:4924, V-B:ARG:545:CZ:9898, V-A:ASN:362:CB:3174, H-B:ARG:545:NE:9896, H-B:GLY:454:N:9022, V-A:PRO:540:CB:4883, V-A:LEU:363:CD1:3187, V-A:TYR:539:C:4865, H-B:TYR:484:OH:9320, V-A:TYR:531:CE2:4791, V-B:HIS:456:CE1:9042, V-A:PRO:540:C:4879, H-A:TYR:539:N:4868, V-B:ARG:545:CG:9894, V-B:ARG:545:CD:9895, V-A:LEU:363:CA:3183, V-A:ALA:541:C:4886, V-A:PRO:540:CG:4884"]

$$$$
2k_Grossjean_2025
     RDKit          3D

 28 28  0  0  0  0  0  0  0  0999 V2000
  123.6300  124.3520   57.7310 C   0  0  0  0  0  0  0  0  0  0  0  0
  123.4330  123.4040   56.6930 O   0  0  0  0  0  0  0  0  0  0  0  0
  124.5620  123.2540   55.8420 C   0  0  0  0  0  0  0  0  0  0  0  0
  125.8390  123.1600   56.6860 C   0  0  0  0  0  0  0  0  0  0  0  0
  126.9410  122.8930   55.8310 O   0  0  0  0  0  0  0  0  0  0  0  0
  128.0920  123.6850   56.0960 C   0  0  0  0  0  0  0  0  0  0  0  0
  127.8750  125.0760   55.4860 C   0  0  0  0  0  0  0  0  0  0  0  0
  129.1500  125.6260   55.1930 O   0  0  0  0  0  0  0  0  0  0  0  0
  129.1670  127.0300   54.9790 C   0  0  0  0  0  0  0  0  0  0  0  0
  129.6300  127.7260   56.2720 C   0  0  0  0  0  0  0  0  0  0  0  0
  129.0500  129.0610   56.4420 N   0  0  0  0  0  0  0  0  0  0  0  0
  128.0630  129.3830   57.3000 C   0  0  0  0  0  0  0  0  0  0  0  0
  127.5480  128.5750   58.0740 O   0  0  0  0  0  0  0  0  0  0  0  0
  127.5840  130.8410   57.2470 C   0  0  0  0  0  0  0  0  0  0  0  0
  128.2790  131.9400   58.5310 S   0  0  0  0  0  0  0  0  0  0  0  0
  130.0350  131.6380   58.6830 C   0  0  0  0  0  0  0  0  0  0  0  0
  130.4760  131.3410   59.9320 N   0  0  0  0  0  0  0  0  0  0  0  0
  131.7930  131.1060   60.1210 C   0  0  0  0  0  0  0  0  0  0  0  0
  132.2070  130.7930   61.5460 C   0  0  0  0  0  0  0  0  0  0  0  0
  132.7200  131.1440   59.0830 C   0  0  0  0  0  0  0  0  0  0  0  0
  132.2860  131.4410   57.7820 C   0  0  0  0  0  0  0  0  0  0  0  0
  133.3240  131.4730   56.6440 C   0  0  0  0  0  0  0  0  0  0  0  0
  133.8720  132.6780   56.4790 F   0  0  0  0  0  0  0  0  0  0  0  0
  134.3120  130.6160   56.9020 F   0  0  0  0  0  0  0  0  0  0  0  0
  132.7470  131.1330   55.4900 F   0  0  0  0  0  0  0  0  0  0  0  0
  130.9070  131.6980   57.5700 C   0  0  0  0  0  0  0  0  0  0  0  0
  130.3990  132.0170   56.2320 C   0  0  0  0  0  0  0  0  0  0  0  0
  129.9990  132.2680   55.1750 N   0  0  0  0  0  0  0  0  0  0  0  0
  1  2  1  0
  2  3  1  0
  3  4  1  0
  4  5  1  0
  5  6  1  0
  6  7  1  0
  7  8  1  0
  8  9  1  0
  9 10  1  0
 10 11  1  0
 11 12  1  0
 12 13  2  0
 12 14  1  0
 14 15  1  0
 15 16  1  0
 16 17  2  0
 17 18  1  0
 18 19  1  0
 18 20  2  0
 20 21  1  0
 21 22  1  0
 22 23  1  0
 22 24  1  0
 22 25  1  0
 21 26  2  0
 26 27  1  0
 27 28  3  0
 26 16  1  0
M  END
>  <Binding energies>  (26) 
[-5.86]

>  <Ligand effiencies>  (26) 
[-0.20206896551724138]

>  <Interactions>  (26) 
["V-A:ILE:538:CG2:4861, V-A:PRO:540:CD:4885, V-B:ASP:366:CG:8185, V-A:PRO:540:N:4882, H-B:TYR:531:OH:9767, V-B:PRO:540:CA:9855, V-A:ILE:538:CB:4860, V-A:TYR:531:CZ:4792, V-B:PRO:540:N:9856, V-B:ILE:538:CB:9834, V-A:ASP:366:CG:3211, H-A:TYR:531:OH:4793, V-B:TYR:531:CE2:9765, V-B:PRO:540:CD:9859, V-B:PRO:540:CB:9857, V-A:ASP:366:CB:3210, V-A:TYR:539:CE2:4874, V-B:ILE:538:CG2:9835, V-A:TYR:539:CZ:4875, V-A:PRO:540:CA:4881, V-B:TYR:539:CE1:9847, V-A:GLU:543:CD:4906, V-B:TYR:539:C:9839, V-B:LEU:363:CD1:8161, V-B:TYR:531:CZ:9766, V-A:ARG:545:CZ:4924, V-A:PRO:540:CB:4883, V-A:LEU:363:CD1:3187, V-A:TYR:539:C:4865, V-A:TYR:531:CE2:4791, V-B:ASP:366:CB:8184, H-A:TYR:539:N:4868, V-A:LEU:363:CB:3185, V-A:LEU:363:CA:3183, V-B:LEU:363:CA:8157, H-B:TYR:539:N:9842, V-A:PRO:540:CG:4884, V-A:LEU:363:CG:3186, V-A:LEU:363:C:3181"]

$$$$
3aa_Grossjean_2025
     RDKit          3D

 34 36  0  0  0  0  0  0  0  0999 V2000
  123.8370  123.2450   55.8660 C   0  0  0  0  0  0  0  0  0  0  0  0
  125.1700  123.1340   56.6110 C   0  0  0  0  0  0  0  0  0  0  0  0
  126.2350  123.0590   55.6710 O   0  0  0  0  0  0  0  0  0  0  0  0
  127.5270  123.1950   56.0650 C   0  0  0  0  0  0  0  0  0  0  0  0
  128.1870  122.2780   56.5610 O   0  0  0  0  0  0  0  0  0  0  0  0
  128.0690  124.5800   55.8520 C   0  0  0  0  0  0  0  0  0  0  0  0
  129.1380  124.8330   54.9800 C   0  0  0  0  0  0  0  0  0  0  0  0
  129.6140  126.1300   54.8030 C   0  0  0  0  0  0  0  0  0  0  0  0
  129.0300  127.1970   55.4860 C   0  0  0  0  0  0  0  0  0  0  0  0
  129.5840  128.4680   55.2320 N   0  0  0  0  0  0  0  0  0  0  0  0
  129.0340  129.6930   55.3850 C   0  0  0  0  0  0  0  0  0  0  0  0
  127.8870  129.9180   55.7720 O   0  0  0  0  0  0  0  0  0  0  0  0
  129.9400  130.8710   55.0270 C   0  0  0  0  0  0  0  0  0  0  0  0
  129.3790  132.4160   55.8050 S   0  0  0  0  0  0  0  0  0  0  0  0
  129.4200  132.1580   57.5640 C   0  0  0  0  0  0  0  0  0  0  0  0
  128.2510  132.4510   58.1830 N   0  0  0  0  0  0  0  0  0  0  0  0
  128.1460  132.3000   59.5290 C   0  0  0  0  0  0  0  0  0  0  0  0
  126.8170  132.6300   60.1380 C   0  0  0  0  0  0  0  0  0  0  0  0
  126.5540  133.9200   60.6250 C   0  0  0  0  0  0  0  0  0  0  0  0
  125.3210  134.2350   61.1910 C   0  0  0  0  0  0  0  0  0  0  0  0
  124.3330  133.2610   61.2770 C   0  0  0  0  0  0  0  0  0  0  0  0
  124.5670  131.9750   60.8000 C   0  0  0  0  0  0  0  0  0  0  0  0
  125.8000  131.6650   60.2320 C   0  0  0  0  0  0  0  0  0  0  0  0
  129.2270  131.8380   60.2870 C   0  0  0  0  0  0  0  0  0  0  0  0
  130.4530  131.5450   59.6700 C   0  0  0  0  0  0  0  0  0  0  0  0
  131.6230  131.0500   60.5410 C   0  0  0  0  0  0  0  0  0  0  0  0
  132.8120  131.4570   60.0900 F   0  0  0  0  0  0  0  0  0  0  0  0
  131.4940  131.5050   61.7880 F   0  0  0  0  0  0  0  0  0  0  0  0
  131.6380  129.7170   60.5670 F   0  0  0  0  0  0  0  0  0  0  0  0
  130.5630  131.7200   58.2690 C   0  0  0  0  0  0  0  0  0  0  0  0
  131.8350  131.4850   57.5800 C   0  0  0  0  0  0  0  0  0  0  0  0
  132.8400  131.3010   57.0360 N   0  0  0  0  0  0  0  0  0  0  0  0
  127.9690  126.9500   56.3700 C   0  0  0  0  0  0  0  0  0  0  0  0
  127.4970  125.6530   56.5480 C   0  0  0  0  0  0  0  0  0  0  0  0
  1  2  1  0
  2  3  1  0
  3  4  1  0
  4  5  2  0
  4  6  1  0
  6  7  2  0
  7  8  1  0
  8  9  2  0
  9 10  1  0
 10 11  1  0
 11 12  2  0
 11 13  1  0
 13 14  1  0
 14 15  1  0
 15 16  2  0
 16 17  1  0
 17 18  1  0
 18 19  2  0
 19 20  1  0
 20 21  2  0
 21 22  1  0
 22 23  2  0
 17 24  2  0
 24 25  1  0
 25 26  1  0
 26 27  1  0
 26 28  1  0
 26 29  1  0
 25 30  2  0
 30 31  1  0
 31 32  3  0
  9 33  1  0
 33 34  2  0
 34  6  1  0
 30 15  1  0
 23 18  1  0
M  END
>  <Binding energies>  (27) 
[-9.04]

>  <Ligand effiencies>  (27) 
[-0.2582857142857143]

>  <Interactions>  (27) 
["V-A:PRO:540:N:4882, V-B:PRO:540:CA:9855, V-B:PRO:540:N:9856, V-B:ILE:538:CB:9834, V-A:ASP:366:CG:3211, V-B:ILE:369:CD1:8211, H-A:TYR:531:OH:4793, V-A:TYR:539:CD2:4872, V-B:TYR:531:CE2:9765, V-B:PRO:540:CD:9859, V-B:PRO:540:CB:9857, V-B:ILE:369:CG2:8209, V-B:LEU:475:CD2:9231, V-A:TYR:539:CE2:4874, V-B:ILE:538:CG2:9835, V-B:TRP:381:CH2:8344, V-A:PRO:540:CA:4881, V-B:TYR:539:CZ:9849, V-B:TYR:539:CE1:9847, V-A:ALA:541:CB:4890, V-A:GLU:543:CD:4906, V-B:TYR:539:C:9839, V-B:LEU:363:CD1:8161, V-B:TYR:531:CZ:9766, V-B:TYR:539:CD1:9845, V-A:PRO:540:CB:4883, V-A:TYR:539:C:4865, V-A:PRO:540:C:4879, H-A:TYR:539:N:4868, H-B:TYR:539:N:9842, V-A:ALA:541:C:4886, V-A:ALA:541:CA:4888, H-A:MET:535:SD:4832"]

$$$$
3ad_Grossjean_2025
     RDKit          3D

 29 31  0  0  0  0  0  0  0  0999 V2000
  124.7320  127.3420   74.6760 N   0  0  0  0  0  0  0  0  0  0  0  0
  125.4580  128.2230   74.4830 C   0  0  0  0  0  0  0  0  0  0  0  0
  126.3750  129.3400   74.2400 C   0  0  0  0  0  0  0  0  0  0  0  0
  126.1760  130.5910   74.8750 C   0  0  0  0  0  0  0  0  0  0  0  0
  125.0340  130.8430   75.8770 C   0  0  0  0  0  0  0  0  0  0  0  0
  124.7310  132.1370   76.0020 F   0  0  0  0  0  0  0  0  0  0  0  0
  123.9300  130.2080   75.4770 F   0  0  0  0  0  0  0  0  0  0  0  0
  125.3760  130.3950   77.0860 F   0  0  0  0  0  0  0  0  0  0  0  0
  127.0550  131.6420   74.5730 C   0  0  0  0  0  0  0  0  0  0  0  0
  128.1000  131.4520   73.6620 C   0  0  0  0  0  0  0  0  0  0  0  0
  129.0590  132.5450   73.2920 C   0  0  0  0  0  0  0  0  0  0  0  0
  129.3780  132.7940   71.9480 C   0  0  0  0  0  0  0  0  0  0  0  0
  130.2660  133.8070   71.5980 C   0  0  0  0  0  0  0  0  0  0  0  0
  130.8480  134.5890   72.5920 C   0  0  0  0  0  0  0  0  0  0  0  0
  130.5460  134.3640   73.9300 C   0  0  0  0  0  0  0  0  0  0  0  0
  129.6570  133.3490   74.2760 C   0  0  0  0  0  0  0  0  0  0  0  0
  128.2820  130.2530   73.0520 N   0  0  0  0  0  0  0  0  0  0  0  0
  127.4600  129.2180   73.3430 C   0  0  0  0  0  0  0  0  0  0  0  0
  127.8540  127.7240   72.4620 S   0  0  0  0  0  0  0  0  0  0  0  0
  129.6560  127.6990   72.2210 C   0  0  0  0  0  0  0  0  0  0  0  0
  130.3020  126.4510   72.8280 C   0  0  0  0  0  0  0  0  0  0  0  0
  129.6930  125.3820   72.7890 O   0  0  0  0  0  0  0  0  0  0  0  0
  131.5240  126.6380   73.3720 N   0  0  0  0  0  0  0  0  0  0  0  0
  132.3860  125.7140   73.9910 C   0  0  0  0  0  0  0  0  0  0  0  0
  131.7990  124.5070   74.3820 C   0  0  0  0  0  0  0  0  0  0  0  0
  132.5620  123.5240   75.0070 C   0  0  0  0  0  0  0  0  0  0  0  0
  133.9140  123.7490   75.2460 C   0  0  0  0  0  0  0  0  0  0  0  0
  134.5100  124.9490   74.8690 C   0  0  0  0  0  0  0  0  0  0  0  0
  133.7510  125.9350   74.2430 C   0  0  0  0  0  0  0  0  0  0  0  0
  1  2  3  0
  2  3  1  0
  3  4  2  0
  4  5  1  0
  5  6  1  0
  5  7  1  0
  5  8  1  0
  4  9  1  0
  9 10  2  0
 10 11  1  0
 11 12  2  0
 12 13  1  0
 13 14  2  0
 14 15  1  0
 15 16  2  0
 10 17  1  0
 17 18  2  0
 18 19  1  0
 19 20  1  0
 20 21  1  0
 21 22  2  0
 21 23  1  0
 23 24  1  0
 24 25  2  0
 25 26  1  0
 26 27  2  0
 27 28  1  0
 28 29  2  0
 18  3  1  0
 29 24  1  0
 16 11  1  0
M  END
>  <Binding energies>  (28) 
[-9.46]

>  <Ligand effiencies>  (28) 
[-0.31533333333333335]

>  <Interactions>  (28) 
["V-B:TYR:484:CG:9314, V-A:LYS:547:CE:4948, V-B:HIS:456:CG:9038, V-B:TYR:484:CB:9313, V-A:GLY:544:C:4910, V-A:GLU:543:C:4900, V-B:LYS:547:CE:9922, V-A:HIS:456:CD2:4066, V-B:HIS:456:CD2:9040, V-A:HIS:456:CG:4064, H-B:LYS:547:NZ:9923, H-A:LYS:547:NZ:4949, V-A:GLY:544:CA:4912, H-A:GLY:544:O:4911, V-B:LYS:547:CD:9921, V-A:HIS:456:C:4059, V-B:VAL:458:CG2:9059, V-B:VAL:457:C:9045, V-B:HIS:456:CB:9037, V-A:LYS:471:CD:4217, V-A:HIS:456:CB:4063, V-B:HIS:456:CA:9035, V-B:HIS:456:C:9033, V-A:VAL:458:CG2:4085, V-A:LYS:471:CE:4218, V-A:VAL:457:C:4071, V-B:LYS:471:CE:9192, V-B:LYS:471:CD:9191, V-B:LYS:471:CG:9190, V-B:ASP:473:CG:9212, V-B:VAL:457:CA:9047, V-A:VAL:457:CA:4073, V-A:HIS:456:CA:4061, V-A:LYS:471:CG:4216, V-A:GLU:543:CA:4902, V-B:LYS:471:CB:9189, V-B:ASP:473:CB:9211"]

$$$$
3ai_Grossjean_2025
     RDKit          3D

 28 30  0  0  0  0  0  0  0  0999 V2000
  133.8020  127.3530   74.5040 N   0  0  0  0  0  0  0  0  0  0  0  0
  133.0770  126.4740   74.3010 C   0  0  0  0  0  0  0  0  0  0  0  0
  132.1590  125.3600   74.0450 C   0  0  0  0  0  0  0  0  0  0  0  0
  132.4520  124.0570   74.5170 C   0  0  0  0  0  0  0  0  0  0  0  0
  133.7070  123.7380   75.3530 C   0  0  0  0  0  0  0  0  0  0  0  0
  134.7790  124.4310   74.9620 F   0  0  0  0  0  0  0  0  0  0  0  0
  133.4850  124.0300   76.6350 F   0  0  0  0  0  0  0  0  0  0  0  0
  134.0100  122.4440   75.2500 F   0  0  0  0  0  0  0  0  0  0  0  0
  131.5660  123.0150   74.2040 C   0  0  0  0  0  0  0  0  0  0  0  0
  130.4210  123.2660   73.4400 C   0  0  0  0  0  0  0  0  0  0  0  0
  129.4460  122.1900   73.0680 C   0  0  0  0  0  0  0  0  0  0  0  0
  128.9090  121.3390   74.0470 C   0  0  0  0  0  0  0  0  0  0  0  0
  128.0000  120.3410   73.7100 C   0  0  0  0  0  0  0  0  0  0  0  0
  127.6130  120.1800   72.3830 C   0  0  0  0  0  0  0  0  0  0  0  0
  128.1280  121.0110   71.3940 C   0  0  0  0  0  0  0  0  0  0  0  0
  129.0370  122.0080   71.7360 C   0  0  0  0  0  0  0  0  0  0  0  0
  130.1480  124.5140   72.9830 N   0  0  0  0  0  0  0  0  0  0  0  0
  130.9760  125.5410   73.2920 C   0  0  0  0  0  0  0  0  0  0  0  0
  130.4460  127.1050   72.6260 S   0  0  0  0  0  0  0  0  0  0  0  0
  128.6310  127.0520   72.4490 C   0  0  0  0  0  0  0  0  0  0  0  0
  127.8790  128.2120   73.1180 C   0  0  0  0  0  0  0  0  0  0  0  0
  128.3110  129.3660   73.0500 O   0  0  0  0  0  0  0  0  0  0  0  0
  126.7460  127.8530   73.7630 N   0  0  0  0  0  0  0  0  0  0  0  0
  125.8680  128.6850   74.4470 C   0  0  0  0  0  0  0  0  0  0  0  0
  126.2870  129.7800   75.2010 C   0  0  0  0  0  0  0  0  0  0  0  0
  125.1320  130.3280   75.7090 C   0  0  0  0  0  0  0  0  0  0  0  0
  124.0720  129.6010   75.2820 O   0  0  0  0  0  0  0  0  0  0  0  0
  124.5510  128.5630   74.4830 N   0  0  0  0  0  0  0  0  0  0  0  0
  1  2  3  0
  2  3  1  0
  3  4  2  0
  4  5  1  0
  5  6  1  0
  5  7  1  0
  5  8  1  0
  4  9  1  0
  9 10  2  0
 10 11  1  0
 11 12  2  0
 12 13  1  0
 13 14  2  0
 14 15  1  0
 15 16  2  0
 10 17  1  0
 17 18  2  0
 18 19  1  0
 19 20  1  0
 20 21  1  0
 21 22  2  0
 21 23  1  0
 23 24  1  0
 24 25  1  0
 25 26  2  0
 26 27  1  0
 27 28  1  0
 18  3  1  0
 28 24  2  0
 16 11  1  0
M  END
>  <Binding energies>  (29) 
[-8.7]

>  <Ligand effiencies>  (29) 
[-0.3]

>  <Interactions>  (29) 
["V-B:GLY:544:C:9884, V-A:LYS:547:CE:4948, V-B:LYS:547:CE:9922, V-A:HIS:456:CD2:4066, V-B:HIS:456:CD2:9040, V-B:GLU:543:C:9874, V-A:HIS:456:CG:4064, H-B:GLY:544:O:9885, H-B:LYS:547:NZ:9923, H-A:LYS:547:NZ:4949, V-B:GLY:544:CA:9886, V-A:TYR:484:CD1:4341, V-A:TYR:484:CG:4340, V-B:GLU:543:CA:9876, V-A:TYR:484:CB:4339, V-B:LYS:547:CD:9921, V-A:ASP:473:CG:4238, V-A:HIS:456:C:4059, V-B:VAL:458:CG2:9059, V-B:HIS:456:CB:9037, V-A:LYS:471:CD:4217, V-A:HIS:456:CB:4063, V-B:HIS:456:C:9033, V-A:VAL:458:CG2:4085, V-A:LYS:471:CE:4218, V-A:LYS:547:CD:4947, V-A:VAL:457:C:4071, V-A:LYS:547:CG:4946, V-B:LYS:471:CE:9192, V-B:LYS:471:CD:9191, V-A:VAL:457:CA:4073, V-A:HIS:456:CA:4061, V-A:LYS:471:CG:4216, H-B:VAL:457:N:9048, V-A:ASP:473:CB:4237, V-A:LYS:471:CB:4215"]

$$$$
3aj_Grossjean_2025
     RDKit          3D

 28 30  0  0  0  0  0  0  0  0999 V2000
  124.7390  127.3670   74.6400 N   0  0  0  0  0  0  0  0  0  0  0  0
  125.4740  128.2390   74.4450 C   0  0  0  0  0  0  0  0  0  0  0  0
  126.4040  129.3450   74.1990 C   0  0  0  0  0  0  0  0  0  0  0  0
  126.2220  130.5980   74.8330 C   0  0  0  0  0  0  0  0  0  0  0  0
  125.0840  130.8640   75.8370 C   0  0  0  0  0  0  0  0  0  0  0  0
  124.8240  132.1650   75.9920 F   0  0  0  0  0  0  0  0  0  0  0  0
  123.9620  130.2760   75.4220 F   0  0  0  0  0  0  0  0  0  0  0  0
  125.4090  130.3780   77.0360 F   0  0  0  0  0  0  0  0  0  0  0  0
  127.1120  131.6390   74.5280 C   0  0  0  0  0  0  0  0  0  0  0  0
  128.1510  131.4360   73.6130 C   0  0  0  0  0  0  0  0  0  0  0  0
  129.1220  132.5160   73.2440 C   0  0  0  0  0  0  0  0  0  0  0  0
  129.3830  132.8140   71.8980 C   0  0  0  0  0  0  0  0  0  0  0  0
  130.2820  133.8190   71.5480 C   0  0  0  0  0  0  0  0  0  0  0  0
  130.9350  134.5390   72.5440 C   0  0  0  0  0  0  0  0  0  0  0  0
  130.6920  134.2630   73.8850 C   0  0  0  0  0  0  0  0  0  0  0  0
  129.7920  133.2600   74.2300 C   0  0  0  0  0  0  0  0  0  0  0  0
  128.3160  130.2360   73.0020 N   0  0  0  0  0  0  0  0  0  0  0  0
  127.4850  129.2080   73.2980 C   0  0  0  0  0  0  0  0  0  0  0  0
  127.8690  127.7090   72.4190 S   0  0  0  0  0  0  0  0  0  0  0  0
  129.6800  127.6330   72.2070 C   0  0  0  0  0  0  0  0  0  0  0  0
  130.3510  126.3840   72.7960 C   0  0  0  0  0  0  0  0  0  0  0  0
  129.8120  125.2780   72.7110 O   0  0  0  0  0  0  0  0  0  0  0  0
  131.5430  126.6120   73.3920 N   0  0  0  0  0  0  0  0  0  0  0  0
  132.3620  125.6680   73.9960 C   0  0  0  0  0  0  0  0  0  0  0  0
  132.0210  124.4890   74.4720 N   0  0  0  0  0  0  0  0  0  0  0  0
  133.0590  123.8500   74.9750 C   0  0  0  0  0  0  0  0  0  0  0  0
  134.2810  124.5160   74.9130 C   0  0  0  0  0  0  0  0  0  0  0  0
  134.0440  126.0610   74.1550 S   0  0  0  0  0  0  0  0  0  0  0  0
  1  2  3  0
  2  3  1  0
  3  4  2  0
  4  5  1  0
  5  6  1  0
  5  7  1  0
  5  8  1  0
  4  9  1  0
  9 10  2  0
 10 11  1  0
 11 12  2  0
 12 13  1  0
 13 14  2  0
 14 15  1  0
 15 16  2  0
 10 17  1  0
 17 18  2  0
 18 19  1  0
 19 20  1  0
 20 21  1  0
 21 22  2  0
 21 23  1  0
 23 24  1  0
 24 25  2  0
 25 26  1  0
 26 27  2  0
 27 28  1  0
 18  3  1  0
 28 24  1  0
 16 11  1  0
M  END
>  <Binding energies>  (30) 
[-9.02]

>  <Ligand effiencies>  (30) 
[-0.31103448275862067]

>  <Interactions>  (30) 
["V-B:TYR:484:CG:9314, V-A:LYS:547:CE:4948, V-B:HIS:456:CG:9038, V-B:TYR:484:CB:9313, V-A:GLY:544:C:4910, V-A:GLU:543:C:4900, V-B:LYS:547:CE:9922, V-A:HIS:456:CD2:4066, V-B:HIS:456:CD2:9040, V-A:HIS:456:CG:4064, H-B:LYS:547:NZ:9923, H-A:LYS:547:NZ:4949, V-A:GLY:544:CA:4912, H-A:GLY:544:O:4911, V-B:LYS:547:CD:9921, V-A:HIS:456:C:4059, V-B:VAL:458:CG2:9059, V-B:VAL:457:C:9045, V-B:HIS:456:CB:9037, V-A:HIS:456:CB:4063, V-B:HIS:456:CA:9035, V-B:HIS:456:C:9033, V-A:VAL:458:CG2:4085, V-A:LYS:471:CE:4218, V-A:VAL:457:C:4071, V-B:LYS:471:CE:9192, V-B:LYS:471:CD:9191, V-B:LYS:471:CG:9190, V-B:ASP:473:CG:9212, V-B:VAL:457:CA:9047, V-A:HIS:456:CA:4061, V-A:GLU:543:CA:4902, V-B:LYS:471:CB:9189, V-B:ASP:473:CB:9211"]

$$$$
3ak_Grossjean_2025
     RDKit          3D

 33 34  0  0  0  0  0  0  0  0999 V2000
  127.5780  127.7510   77.1040 C   0  0  0  0  0  0  0  0  0  0  0  0
  128.9470  127.3930   76.9970 O   0  0  0  0  0  0  0  0  0  0  0  0
  129.7280  127.8080   78.1090 C   0  0  0  0  0  0  0  0  0  0  0  0
  129.7690  126.6740   79.1420 C   0  0  0  0  0  0  0  0  0  0  0  0
  129.6040  125.4300   78.4700 O   0  0  0  0  0  0  0  0  0  0  0  0
  130.8100  124.7620   78.1080 C   0  0  0  0  0  0  0  0  0  0  0  0
  131.7460  125.6080   77.2240 C   0  0  0  0  0  0  0  0  0  0  0  0
  131.2900  125.5570   75.8800 O   0  0  0  0  0  0  0  0  0  0  0  0
  132.1160  124.7830   75.0200 C   0  0  0  0  0  0  0  0  0  0  0  0
  132.7180  125.6740   73.9180 C   0  0  0  0  0  0  0  0  0  0  0  0
  131.7710  126.6450   73.3670 N   0  0  0  0  0  0  0  0  0  0  0  0
  130.5490  126.3660   72.8750 C   0  0  0  0  0  0  0  0  0  0  0  0
  130.0830  125.2260   72.8550 O   0  0  0  0  0  0  0  0  0  0  0  0
  129.6950  127.5150   72.3140 C   0  0  0  0  0  0  0  0  0  0  0  0
  127.9180  127.5050   72.7530 S   0  0  0  0  0  0  0  0  0  0  0  0
  127.4920  129.0900   73.4570 C   0  0  0  0  0  0  0  0  0  0  0  0
  128.3260  130.1130   73.1460 N   0  0  0  0  0  0  0  0  0  0  0  0
  128.0900  131.3550   73.6390 C   0  0  0  0  0  0  0  0  0  0  0  0
  129.0620  132.4270   73.2430 C   0  0  0  0  0  0  0  0  0  0  0  0
  129.3090  132.7070   71.8900 C   0  0  0  0  0  0  0  0  0  0  0  0
  130.2080  133.7030   71.5160 C   0  0  0  0  0  0  0  0  0  0  0  0
  130.8720  134.4350   72.4940 C   0  0  0  0  0  0  0  0  0  0  0  0
  130.6430  134.1800   73.8420 C   0  0  0  0  0  0  0  0  0  0  0  0
  129.7440  133.1840   74.2120 C   0  0  0  0  0  0  0  0  0  0  0  0
  126.9820  131.6040   74.4560 C   0  0  0  0  0  0  0  0  0  0  0  0
  126.1020  130.5640   74.7920 C   0  0  0  0  0  0  0  0  0  0  0  0
  124.8940  130.8760   75.6960 C   0  0  0  0  0  0  0  0  0  0  0  0
  124.5860  132.1710   75.6170 F   0  0  0  0  0  0  0  0  0  0  0  0
  123.8380  130.1570   75.3120 F   0  0  0  0  0  0  0  0  0  0  0  0
  125.1220  130.5950   76.9810 F   0  0  0  0  0  0  0  0  0  0  0  0
  126.3610  129.2690   74.2830 C   0  0  0  0  0  0  0  0  0  0  0  0
  125.4760  128.1440   74.6010 C   0  0  0  0  0  0  0  0  0  0  0  0
  124.7780  127.2550   74.8530 N   0  0  0  0  0  0  0  0  0  0  0  0
  1  2  1  0
  2  3  1  0
  3  4  1  0
  4  5  1  0
  5  6  1  0
  6  7  1  0
  7  8  1  0
  8  9  1  0
  9 10  1  0
 10 11  1  0
 11 12  1  0
 12 13  2  0
 12 14  1  0
 14 15  1  0
 15 16  1  0
 16 17  2  0
 17 18  1  0
 18 19  1  0
 19 20  2  0
 20 21  1  0
 21 22  2  0
 22 23  1  0
 23 24  2  0
 18 25  2  0
 25 26  1  0
 26 27  1  0
 27 28  1  0
 27 29  1  0
 27 30  1  0
 26 31  2  0
 31 32  1  0
 32 33  3  0
 31 16  1  0
 24 19  1  0
M  END
>  <Binding energies>  (31) 
[-7.64]

>  <Ligand effiencies>  (31) 
[-0.22470588235294117]

>  <Interactions>  (31) 
["V-B:TYR:484:CG:9314, V-A:LYS:547:CE:4948, V-B:HIS:456:CG:9038, V-B:TYR:484:CB:9313, V-A:GLY:544:C:4910, V-A:GLU:543:C:4900, V-B:LYS:547:CE:9922, V-A:HIS:456:CD2:4066, V-B:HIS:456:CD2:9040, V-A:HIS:456:CG:4064, H-B:LYS:547:NZ:9923, H-A:LYS:547:NZ:4949, V-A:GLY:544:CA:4912, H-A:GLY:544:O:4911, V-B:LYS:547:CD:9921, V-B:VAL:458:CG2:9059, V-B:VAL:457:C:9045, V-B:HIS:456:CB:9037, V-A:LYS:471:CD:4217, V-A:HIS:456:CB:4063, V-B:HIS:456:CA:9035, V-B:HIS:456:C:9033, V-A:VAL:458:CG2:4085, V-A:LYS:471:CE:4218, V-B:LYS:547:CG:9920, V-B:LYS:471:CE:9192, V-B:LYS:471:CD:9191, V-B:LYS:471:CG:9190, V-B:ASP:473:CG:9212, V-B:VAL:457:CA:9047, V-A:GLU:543:CA:4902, V-B:TYR:484:CD1:9315, V-B:LYS:471:CB:9189, V-B:ASP:473:CB:9211"]

$$$$
3bk_Grossjean_2025
     RDKit          3D

 30 31  0  0  0  0  0  0  0  0999 V2000
  129.3570  123.4940   78.4270 C   0  0  0  0  0  0  0  0  0  0  0  0
  130.1310  124.1390   77.4270 O   0  0  0  0  0  0  0  0  0  0  0  0
  130.9560  125.1790   77.9330 C   0  0  0  0  0  0  0  0  0  0  0  0
  131.0930  126.2870   76.8800 C   0  0  0  0  0  0  0  0  0  0  0  0
  129.8640  126.9910   76.7740 O   0  0  0  0  0  0  0  0  0  0  0  0
  129.1200  127.0320   77.9850 C   0  0  0  0  0  0  0  0  0  0  0  0
  127.7830  127.7410   77.7330 C   0  0  0  0  0  0  0  0  0  0  0  0
  127.5460  127.8190   76.3340 O   0  0  0  0  0  0  0  0  0  0  0  0
  126.2500  128.2950   75.9950 C   0  0  0  0  0  0  0  0  0  0  0  0
  126.2070  128.6410   74.5000 C   0  0  0  0  0  0  0  0  0  0  0  0
  127.0530  127.7540   73.6980 N   0  0  0  0  0  0  0  0  0  0  0  0
  128.1460  128.1290   73.0110 C   0  0  0  0  0  0  0  0  0  0  0  0
  128.5800  129.2820   72.9920 O   0  0  0  0  0  0  0  0  0  0  0  0
  128.8790  127.0270   72.2440 C   0  0  0  0  0  0  0  0  0  0  0  0
  130.6630  127.0150   72.6080 S   0  0  0  0  0  0  0  0  0  0  0  0
  131.1110  125.4190   73.2710 C   0  0  0  0  0  0  0  0  0  0  0  0
  130.2400  124.4080   73.0230 N   0  0  0  0  0  0  0  0  0  0  0  0
  130.4960  123.1590   73.4920 C   0  0  0  0  0  0  0  0  0  0  0  0
  129.4940  122.0970   73.1550 C   0  0  0  0  0  0  0  0  0  0  0  0
  129.0280  121.9410   71.8400 C   0  0  0  0  0  0  0  0  0  0  0  0
  128.0920  120.9590   71.5220 C   0  0  0  0  0  0  0  0  0  0  0  0
  127.6090  120.1180   72.5180 C   0  0  0  0  0  0  0  0  0  0  0  0
  128.0570  120.2490   73.8290 C   0  0  0  0  0  0  0  0  0  0  0  0
  128.9930  121.2300   74.1420 C   0  0  0  0  0  0  0  0  0  0  0  0
  131.6570  122.8930   74.2280 C   0  0  0  0  0  0  0  0  0  0  0  0
  132.5660  123.9230   74.4940 C   0  0  0  0  0  0  0  0  0  0  0  0
  133.8190  123.5900   75.3010 C   0  0  0  0  0  0  0  0  0  0  0  0
  132.2970  125.2210   74.0100 C   0  0  0  0  0  0  0  0  0  0  0  0
  133.2320  126.3200   74.2720 C   0  0  0  0  0  0  0  0  0  0  0  0
  133.9700  127.1870   74.4790 N   0  0  0  0  0  0  0  0  0  0  0  0
  1  2  1  0
  2  3  1  0
  3  4  1  0
  4  5  1  0
  5  6  1  0
  6  7  1  0
  7  8  1  0
  8  9  1  0
  9 10  1  0
 10 11  1  0
 11 12  1  0
 12 13  2  0
 12 14  1  0
 14 15  1  0
 15 16  1  0
 16 17  2  0
 17 18  1  0
 18 19  1  0
 19 20  2  0
 20 21  1  0
 21 22  2  0
 22 23  1  0
 23 24  2  0
 18 25  2  0
 25 26  1  0
 26 27  1  0
 26 28  2  0
 28 29  1  0
 29 30  3  0
 28 16  1  0
 24 19  1  0
M  END
>  <Binding energies>  (32) 
[-9.1]

>  <Ligand effiencies>  (32) 
[-0.29354838709677417]

>  <Interactions>  (32) 
["V-B:GLY:544:C:9884, V-B:LYS:547:CE:9922, V-A:HIS:456:CD2:4066, V-B:GLU:543:C:9874, V-A:HIS:456:CG:4064, H-B:GLY:544:O:9885, H-B:LYS:547:NZ:9923, H-A:LYS:547:NZ:4949, V-B:GLY:544:CA:9886, V-A:TYR:484:CG:4340, V-B:GLU:543:CA:9876, V-A:TYR:484:CB:4339, V-B:LYS:547:CD:9921, V-A:ASP:473:CG:4238, V-A:HIS:456:C:4059, V-B:VAL:458:CG2:9059, V-B:HIS:456:CB:9037, V-A:LYS:471:CD:4217, V-A:HIS:456:CB:4063, V-A:VAL:458:CG2:4085, V-A:LYS:471:CE:4218, V-A:LYS:547:CD:4947, V-A:LYS:471:CG:4216"]

$$$$
3cb_Grossjean_2025
     RDKit          3D

 30 32  0  0  0  0  0  0  0  0999 V2000
  124.5410  123.2960   56.2210 C   0  0  0  0  0  0  0  0  0  0  0  0
  125.8040  122.8610   55.7400 O   0  0  0  0  0  0  0  0  0  0  0  0
  126.9450  123.1340   56.4250 C   0  0  0  0  0  0  0  0  0  0  0  0
  127.9960  122.5050   56.2740 O   0  0  0  0  0  0  0  0  0  0  0  0
  126.8000  124.2780   57.3870 C   0  0  0  0  0  0  0  0  0  0  0  0
  126.9410  125.6140   56.9810 C   0  0  0  0  0  0  0  0  0  0  0  0
  126.7980  126.6510   57.8980 C   0  0  0  0  0  0  0  0  0  0  0  0
  126.5170  126.3790   59.2380 C   0  0  0  0  0  0  0  0  0  0  0  0
  126.3900  127.5030   60.0780 N   0  0  0  0  0  0  0  0  0  0  0  0
  127.3270  128.3760   60.5080 C   0  0  0  0  0  0  0  0  0  0  0  0
  128.5200  128.3380   60.2010 O   0  0  0  0  0  0  0  0  0  0  0  0
  126.7920  129.4810   61.4310 C   0  0  0  0  0  0  0  0  0  0  0  0
  127.0980  131.1850   60.8490 S   0  0  0  0  0  0  0  0  0  0  0  0
  127.8680  131.0820   59.2460 C   0  0  0  0  0  0  0  0  0  0  0  0
  127.0100  130.7300   58.2570 N   0  0  0  0  0  0  0  0  0  0  0  0
  127.4840  130.6220   56.9960 C   0  0  0  0  0  0  0  0  0  0  0  0
  126.4660  130.2360   55.9400 C   0  0  0  0  0  0  0  0  0  0  0  0
  128.8180  130.8520   56.6740 C   0  0  0  0  0  0  0  0  0  0  0  0
  129.7260  131.2010   57.6820 C   0  0  0  0  0  0  0  0  0  0  0  0
  131.1490  131.4320   57.2860 C   0  0  0  0  0  0  0  0  0  0  0  0
  131.4510  132.2490   56.1890 C   0  0  0  0  0  0  0  0  0  0  0  0
  132.7740  132.4790   55.8190 C   0  0  0  0  0  0  0  0  0  0  0  0
  133.8040  131.8940   56.5510 C   0  0  0  0  0  0  0  0  0  0  0  0
  133.5230  131.0860   57.6480 C   0  0  0  0  0  0  0  0  0  0  0  0
  132.2000  130.8590   58.0170 C   0  0  0  0  0  0  0  0  0  0  0  0
  129.2470  131.3060   59.0140 C   0  0  0  0  0  0  0  0  0  0  0  0
  130.1700  131.5770   60.1210 C   0  0  0  0  0  0  0  0  0  0  0  0
  130.8980  131.7910   60.9940 N   0  0  0  0  0  0  0  0  0  0  0  0
  126.3710  125.0460   59.6510 C   0  0  0  0  0  0  0  0  0  0  0  0
  126.5140  124.0090   58.7330 C   0  0  0  0  0  0  0  0  0  0  0  0
  1  2  1  0
  2  3  1  0
  3  4  2  0
  3  5  1  0
  5  6  2  0
  6  7  1  0
  7  8  2  0
  8  9  1  0
  9 10  1  0
 10 11  2  0
 10 12  1  0
 12 13  1  0
 13 14  1  0
 14 15  2  0
 15 16  1  0
 16 17  1  0
 16 18  2  0
 18 19  1  0
 19 20  1  0
 20 21  2  0
 21 22  1  0
 22 23  2  0
 23 24  1  0
 24 25  2  0
 19 26  2  0
 26 27  1  0
 27 28  3  0
  8 29  1  0
 29 30  2  0
 30  5  1  0
 26 14  1  0
 25 20  1  0
M  END
>  <Binding energies>  (33) 
[-8.93]

>  <Ligand effiencies>  (33) 
[-0.2880645161290322]

>  <Interactions>  (33) 
["V-A:ILE:538:CG2:4861, V-A:PRO:540:CD:4885, V-B:ASP:366:CG:8185, V-A:PRO:540:N:4882, V-B:PRO:540:CA:9855, H-B:ASP:366:OD2:8187, V-A:ILE:538:CB:4860, V-A:ILE:538:CA:4858, V-B:PRO:540:N:9856, V-B:ILE:538:CB:9834, V-B:TYR:531:CE2:9765, V-B:PRO:540:CD:9859, V-B:PRO:540:CB:9857, V-A:TYR:539:CE2:4874, V-B:ILE:538:CG2:9835, V-A:TYR:539:CZ:4875, H-A:ALA:541:N:4889, V-A:PRO:540:CA:4881, V-B:TYR:539:C:9839, V-A:PRO:540:CB:4883, V-A:LEU:363:CD1:3187, V-A:TYR:539:C:4865, V-A:TYR:539:CE1:4873, V-A:TYR:531:CE2:4791, V-A:LEU:363:CB:3185, V-A:LEU:363:CA:3183, H-B:TYR:539:N:9842, H-B:ASP:366:OD1:8186, V-A:PRO:540:CG:4884"]

$$$$
3ch_Grossjean_2025
     RDKit          3D

 32 34  0  0  0  0  0  0  0  0999 V2000
  123.7210  124.3210   57.6150 C   0  0  0  0  0  0  0  0  0  0  0  0
  124.9030  123.6140   57.9780 O   0  0  0  0  0  0  0  0  0  0  0  0
  126.1070  124.2910   58.0530 C   0  0  0  0  0  0  0  0  0  0  0  0
  126.3670  125.3340   58.9560 C   0  0  0  0  0  0  0  0  0  0  0  0
  127.6180  125.9690   58.9810 C   0  0  0  0  0  0  0  0  0  0  0  0
  127.9730  127.0170   59.8510 N   0  0  0  0  0  0  0  0  0  0  0  0
  127.2100  127.7040   60.7310 C   0  0  0  0  0  0  0  0  0  0  0  0
  126.0130  127.5100   60.9420 O   0  0  0  0  0  0  0  0  0  0  0  0
  127.9410  128.7730   61.5420 C   0  0  0  0  0  0  0  0  0  0  0  0
  127.5110  130.4550   61.0050 S   0  0  0  0  0  0  0  0  0  0  0  0
  128.1650  130.6320   59.3600 C   0  0  0  0  0  0  0  0  0  0  0  0
  127.2510  130.4250   58.3800 N   0  0  0  0  0  0  0  0  0  0  0  0
  127.6500  130.5280   57.0920 C   0  0  0  0  0  0  0  0  0  0  0  0
  126.5800  130.2790   56.0470 C   0  0  0  0  0  0  0  0  0  0  0  0
  128.9600  130.8370   56.7340 C   0  0  0  0  0  0  0  0  0  0  0  0
  129.9180  131.0620   57.7330 C   0  0  0  0  0  0  0  0  0  0  0  0
  131.3140  131.3800   57.3030 C   0  0  0  0  0  0  0  0  0  0  0  0
  132.4040  130.8290   57.9870 C   0  0  0  0  0  0  0  0  0  0  0  0
  133.7070  131.1270   57.5970 C   0  0  0  0  0  0  0  0  0  0  0  0
  133.9250  131.9840   56.5200 C   0  0  0  0  0  0  0  0  0  0  0  0
  132.8520  132.5450   55.8340 C   0  0  0  0  0  0  0  0  0  0  0  0
  131.5500  132.2450   56.2280 C   0  0  0  0  0  0  0  0  0  0  0  0
  129.5100  130.9760   59.0890 C   0  0  0  0  0  0  0  0  0  0  0  0
  130.4450  131.2940   60.1730 C   0  0  0  0  0  0  0  0  0  0  0  0
  131.1830  131.5430   61.0290 N   0  0  0  0  0  0  0  0  0  0  0  0
  128.6030  125.5640   58.0790 C   0  0  0  0  0  0  0  0  0  0  0  0
  128.3670  124.5250   57.1660 C   0  0  0  0  0  0  0  0  0  0  0  0
  129.3030  124.0720   56.2520 O   0  0  0  0  0  0  0  0  0  0  0  0
  129.9690  125.0060   55.4090 C   0  0  0  0  0  0  0  0  0  0  0  0
  127.1140  123.8990   57.1610 C   0  0  0  0  0  0  0  0  0  0  0  0
  126.8760  122.8680   56.2830 O   0  0  0  0  0  0  0  0  0  0  0  0
  126.5040  123.2920   54.9790 C   0  0  0  0  0  0  0  0  0  0  0  0
  1  2  1  0
  2  3  1  0
  3  4  2  0
  4  5  1  0
  5  6  1  0
  6  7  1  0
  7  8  2  0
  7  9  1  0
  9 10  1  0
 10 11  1  0
 11 12  2  0
 12 13  1  0
 13 14  1  0
 13 15  2  0
 15 16  1  0
 16 17  1  0
 17 18  2  0
 18 19  1  0
 19 20  2  0
 20 21  1  0
 21 22  2  0
 16 23  2  0
 23 24  1  0
 24 25  3  0
  5 26  2  0
 26 27  1  0
 27 28  1  0
 28 29  1  0
 27 30  2  0
 30 31  1  0
 31 32  1  0
 30  3  1  0
 23 11  1  0
 22 17  1  0
M  END
>  <Binding energies>  (34) 
[-7.56]

>  <Ligand effiencies>  (34) 
[-0.22909090909090907]

>  <Interactions>  (34) 
["V-A:ILE:538:CG2:4861, V-A:PRO:540:CD:4885, V-A:PRO:540:N:4882, V-B:PRO:540:CA:9855, V-A:ILE:538:CB:4860, V-A:ILE:538:CA:4858, V-B:ILE:538:CB:9834, V-B:TYR:531:CE2:9765, V-B:PRO:540:CB:9857, V-A:TYR:539:CE2:4874, V-B:ILE:538:CG2:9835, V-A:TYR:539:CZ:4875, H-A:ALA:541:N:4889, V-A:PRO:540:CA:4881, V-B:TYR:539:CZ:9849, V-B:TYR:539:CE1:9847, H-B:ARG:545:NH2:9900, V-B:ILE:538:CA:9832, V-B:TYR:531:CZ:9766, V-A:PRO:540:CB:4883, V-A:LEU:363:CD1:3187, V-A:TYR:539:C:4865, V-A:TYR:539:CE1:4873, V-A:TYR:531:CE2:4791, H-B:TYR:539:OH:9850, V-B:ASP:366:CB:8184, V-A:LEU:363:CB:3185, V-A:LEU:363:CA:3183, V-B:LEU:363:CA:8157, H-B:TYR:539:N:9842, V-B:ILE:538:C:9830, V-A:PRO:540:CG:4884, V-A:LEU:363:CG:3186"]

$$$$
3ci_Grossjean_2025
     RDKit          3D

 25 27  0  0  0  0  0  0  0  0999 V2000
  127.7630  133.0120   61.5960 C   0  0  0  0  0  0  0  0  0  0  0  0
  127.6650  132.3390   60.2400 C   0  0  0  0  0  0  0  0  0  0  0  0
  128.7380  132.3220   59.3530 C   0  0  0  0  0  0  0  0  0  0  0  0
  128.6040  131.6730   58.1180 C   0  0  0  0  0  0  0  0  0  0  0  0
  129.7860  131.6660   57.2040 C   0  0  0  0  0  0  0  0  0  0  0  0
  129.6340  131.9140   55.8340 C   0  0  0  0  0  0  0  0  0  0  0  0
  130.7380  131.8980   54.9850 C   0  0  0  0  0  0  0  0  0  0  0  0
  132.0010  131.6280   55.5040 C   0  0  0  0  0  0  0  0  0  0  0  0
  132.1680  131.3710   56.8620 C   0  0  0  0  0  0  0  0  0  0  0  0
  131.0620  131.3880   57.7080 C   0  0  0  0  0  0  0  0  0  0  0  0
  127.3620  131.0610   57.8080 C   0  0  0  0  0  0  0  0  0  0  0  0
  127.1500  130.4050   56.5140 C   0  0  0  0  0  0  0  0  0  0  0  0
  126.9840  129.8870   55.4920 N   0  0  0  0  0  0  0  0  0  0  0  0
  126.3250  131.1210   58.7700 C   0  0  0  0  0  0  0  0  0  0  0  0
  124.7280  130.3660   58.4950 S   0  0  0  0  0  0  0  0  0  0  0  0
  123.4610  131.2510   59.4610 C   0  0  0  0  0  0  0  0  0  0  0  0
  123.8680  131.4940   60.9190 C   0  0  0  0  0  0  0  0  0  0  0  0
  123.8870  132.6460   61.3550 O   0  0  0  0  0  0  0  0  0  0  0  0
  124.1970  130.3910   61.6270 N   0  0  0  0  0  0  0  0  0  0  0  0
  124.5710  130.3290   62.9630 C   0  0  0  0  0  0  0  0  0  0  0  0
  125.9010  130.3350   63.3820 C   0  0  0  0  0  0  0  0  0  0  0  0
  125.8440  130.2600   64.7550 C   0  0  0  0  0  0  0  0  0  0  0  0
  124.5460  130.2130   65.1420 O   0  0  0  0  0  0  0  0  0  0  0  0
  123.7490  130.2560   63.9970 N   0  0  0  0  0  0  0  0  0  0  0  0
  126.4790  131.7570   59.9600 N   0  0  0  0  0  0  0  0  0  0  0  0
  1  2  1  0
  2  3  2  0
  3  4  1  0
  4  5  1  0
  5  6  2  0
  6  7  1  0
  7  8  2  0
  8  9  1  0
  9 10  2  0
  4 11  2  0
 11 12  1  0
 12 13  3  0
 11 14  1  0
 14 15  1  0
 15 16  1  0
 16 17  1  0
 17 18  2  0
 17 19  1  0
 19 20  1  0
 20 21  1  0
 21 22  2  0
 22 23  1  0
 23 24  1  0
 14 25  2  0
 25  2  1  0
 10  5  1  0
 24 20  2  0
M  END
>  <Binding energies>  (35) 
[-8.67]

>  <Ligand effiencies>  (35) 
[-0.3334615384615385]

>  <Interactions>  (35) 
["V-A:ILE:538:CG2:4861, V-B:ASP:366:CG:8185, V-A:PRO:540:N:4882, H-B:ASP:366:OD2:8187, V-A:ILE:538:CB:4860, V-A:ILE:538:CA:4858, V-A:TYR:531:CZ:4792, V-B:ILE:369:CD1:8211, V-A:TYR:539:CD2:4872, V-B:ILE:369:CG2:8209, V-A:TYR:539:CE2:4874, V-A:TYR:539:CZ:4875, V-A:PRO:540:CA:4881, V-A:ALA:541:CB:4890, V-B:ARG:545:CZ:9898, H-B:ARG:545:NE:9896, H-B:GLY:454:N:9022, V-A:PRO:540:CB:4883, V-A:TYR:539:C:4865, H-B:TYR:484:OH:9320, V-A:TYR:531:CE2:4791, V-B:ASP:366:CB:8184, V-B:ILE:369:CB:8208, H-A:TYR:539:OH:4876, V-B:ASP:366:CA:8182, H-B:ASP:366:OD1:8186, H-B:ARG:545:NH1:9899"]

$$$$
3ck_Grossjean_2025
     RDKit          3D

 30 31  0  0  0  0  0  0  0  0999 V2000
  131.5870  125.9090   73.2570 C   0  0  0  0  0  0  0  0  0  0  0  0
  130.2260  125.5190   73.3520 O   0  0  0  0  0  0  0  0  0  0  0  0
  129.4530  125.8790   72.2150 C   0  0  0  0  0  0  0  0  0  0  0  0
  130.1710  126.9880   71.4360 C   0  0  0  0  0  0  0  0  0  0  0  0
  129.2170  127.9440   70.9910 O   0  0  0  0  0  0  0  0  0  0  0  0
  128.1620  127.3880   70.2170 C   0  0  0  0  0  0  0  0  0  0  0  0
  128.5780  127.3720   68.7410 C   0  0  0  0  0  0  0  0  0  0  0  0
  127.4200  127.5880   67.9480 O   0  0  0  0  0  0  0  0  0  0  0  0
  127.5540  128.6020   66.9630 C   0  0  0  0  0  0  0  0  0  0  0  0
  126.2100  128.7930   66.2350 C   0  0  0  0  0  0  0  0  0  0  0  0
  126.3480  129.0480   64.7980 N   0  0  0  0  0  0  0  0  0  0  0  0
  125.5110  129.7880   64.0480 C   0  0  0  0  0  0  0  0  0  0  0  0
  124.5250  130.3670   64.5080 O   0  0  0  0  0  0  0  0  0  0  0  0
  125.8640  129.8770   62.5550 C   0  0  0  0  0  0  0  0  0  0  0  0
  127.2080  131.0400   62.1360 S   0  0  0  0  0  0  0  0  0  0  0  0
  127.5310  130.9540   60.3810 C   0  0  0  0  0  0  0  0  0  0  0  0
  126.4620  130.6500   59.6030 N   0  0  0  0  0  0  0  0  0  0  0  0
  126.6350  130.5640   58.2650 C   0  0  0  0  0  0  0  0  0  0  0  0
  125.3970  130.2180   57.4610 C   0  0  0  0  0  0  0  0  0  0  0  0
  127.8680  130.7730   57.6530 C   0  0  0  0  0  0  0  0  0  0  0  0
  128.9880  131.0820   58.4370 C   0  0  0  0  0  0  0  0  0  0  0  0
  130.2940  131.2750   57.7400 C   0  0  0  0  0  0  0  0  0  0  0  0
  131.4510  130.6580   58.2310 C   0  0  0  0  0  0  0  0  0  0  0  0
  132.6750  130.8420   57.5910 C   0  0  0  0  0  0  0  0  0  0  0  0
  132.7470  131.6500   56.4600 C   0  0  0  0  0  0  0  0  0  0  0  0
  131.6060  132.2770   55.9640 C   0  0  0  0  0  0  0  0  0  0  0  0
  130.3850  132.0910   56.6050 C   0  0  0  0  0  0  0  0  0  0  0  0
  128.8170  131.1880   59.8420 C   0  0  0  0  0  0  0  0  0  0  0  0
  129.9450  131.5490   60.7090 C   0  0  0  0  0  0  0  0  0  0  0  0
  130.8340  131.8350   61.3920 N   0  0  0  0  0  0  0  0  0  0  0  0
  1  2  1  0
  2  3  1  0
  3  4  1  0
  4  5  1  0
  5  6  1  0
  6  7  1  0
  7  8  1  0
  8  9  1  0
  9 10  1  0
 10 11  1  0
 11 12  1  0
 12 13  2  0
 12 14  1  0
 14 15  1  0
 15 16  1  0
 16 17  2  0
 17 18  1  0
 18 19  1  0
 18 20  2  0
 20 21  1  0
 21 22  1  0
 22 23  2  0
 23 24  1  0
 24 25  2  0
 25 26  1  0
 26 27  2  0
 21 28  2  0
 28 29  1  0
 29 30  3  0
 28 16  1  0
 27 22  1  0
M  END
>  <Binding energies>  (36) 
[-8.53]

>  <Ligand effiencies>  (36) 
[-0.27516129032258063]

>  <Interactions>  (36) 
["V-A:ILE:538:CG2:4861, V-A:PRO:540:CD:4885, V-A:PRO:540:N:4882, V-A:ILE:538:CB:4860, V-A:ILE:538:CA:4858, V-A:TYR:531:CZ:4792, V-A:TYR:539:CE2:4874, V-A:TYR:539:CZ:4875, H-B:GLU:543:OE2:9882, H-A:ALA:541:N:4889, V-A:PRO:540:CA:4881, H-A:GLU:543:OE2:4908, V-A:GLU:543:CD:4906, V-A:HIS:456:CE1:4068, H-A:GLU:543:OE1:4907, V-B:ARG:545:CZ:9898, V-A:GLU:543:CG:4905, H-B:GLY:454:N:9022, V-A:PRO:540:CB:4883, V-A:TYR:539:C:4865, H-B:TYR:484:OH:9320, V-A:GLU:543:CB:4904, V-A:TYR:531:CE2:4791, V-B:HIS:456:CE1:9042, V-B:GLY:544:C:9884, V-A:GLY:544:C:4910, V-B:LYS:547:CE:9922, V-A:HIS:456:CD2:4066, V-B:GLU:543:C:9874, V-A:HIS:456:CG:4064, H-B:LYS:547:NZ:9923, V-B:GLY:544:CA:9886, V-B:ARG:545:CG:9894, V-B:ARG:545:CD:9895, V-A:HIS:456:CB:4063"]

$$$$
4aa_Grossjean_2025
     RDKit          3D

 26 28  0  0  0  0  0  0  0  0999 V2000
  129.3580  125.9190   72.2760 C   0  0  0  0  0  0  0  0  0  0  0  0
  130.0800  127.2510   72.4990 C   0  0  0  0  0  0  0  0  0  0  0  0
  129.3610  128.2940   71.8530 O   0  0  0  0  0  0  0  0  0  0  0  0
  128.3150  128.0190   71.0320 C   0  0  0  0  0  0  0  0  0  0  0  0
  127.1330  128.1080   71.3810 O   0  0  0  0  0  0  0  0  0  0  0  0
  128.7370  127.5900   69.6560 C   0  0  0  0  0  0  0  0  0  0  0  0
  130.0980  127.3920   69.3890 C   0  0  0  0  0  0  0  0  0  0  0  0
  130.5220  126.9990   68.1220 C   0  0  0  0  0  0  0  0  0  0  0  0
  129.5950  126.7880   67.1010 C   0  0  0  0  0  0  0  0  0  0  0  0
  130.1330  126.4020   65.8580 N   0  0  0  0  0  0  0  0  0  0  0  0
  131.3970  126.0440   65.5260 C   0  0  0  0  0  0  0  0  0  0  0  0
  132.3450  126.0450   66.3120 O   0  0  0  0  0  0  0  0  0  0  0  0
  131.5930  125.6670   64.1250 C   0  0  0  0  0  0  0  0  0  0  0  0
  133.0300  124.7650   63.6380 S   0  0  0  0  0  0  0  0  0  0  0  0
  132.5290  124.7800   61.9630 C   0  0  0  0  0  0  0  0  0  0  0  0
  133.2570  124.2060   61.0030 N   0  0  0  0  0  0  0  0  0  0  0  0
  132.7580  124.2930   59.7460 C   0  0  0  0  0  0  0  0  0  0  0  0
  133.6040  123.6380   58.6690 C   0  0  0  0  0  0  0  0  0  0  0  0
  131.5600  124.9290   59.4300 C   0  0  0  0  0  0  0  0  0  0  0  0
  130.7980  125.5280   60.4390 C   0  0  0  0  0  0  0  0  0  0  0  0
  129.4970  126.2110   60.0440 C   0  0  0  0  0  0  0  0  0  0  0  0
  131.2910  125.4620   61.7700 C   0  0  0  0  0  0  0  0  0  0  0  0
  130.7810  125.9620   63.0190 C   0  0  0  0  0  0  0  0  0  0  0  0
  129.6020  126.6600   63.1000 N   0  0  0  0  0  0  0  0  0  0  0  0
  128.2310  126.9900   67.3560 C   0  0  0  0  0  0  0  0  0  0  0  0
  127.8090  127.3860   68.6230 C   0  0  0  0  0  0  0  0  0  0  0  0
  1  2  1  0
  2  3  1  0
  3  4  1  0
  4  5  2  0
  4  6  1  0
  6  7  2  0
  7  8  1  0
  8  9  2  0
  9 10  1  0
 10 11  1  0
 11 12  2  0
 11 13  1  0
 13 14  1  0
 14 15  1  0
 15 16  2  0
 16 17  1  0
 17 18  1  0
 17 19  2  0
 19 20  1  0
 20 21  1  0
 20 22  2  0
 22 23  1  0
 23 24  1  0
  9 25  1  0
 25 26  2  0
 26  6  1  0
 23 13  2  0
 22 15  1  0
M  END
>  <Binding energies>  (37) 
[-7.14]

>  <Ligand effiencies>  (37) 
[-0.24620689655172412]

>  <Interactions>  (37) 
["V-A:ILE:369:CG2:3235, V-A:ILE:369:CD1:3237, V-B:TYR:539:CE2:9848, V-A:ASP:366:CG:3211, H-B:GLU:543:OE2:9882, H-B:GLU:543:OE1:9881, H-A:GLU:543:OE2:4908, V-A:GLU:543:CD:4906, V-A:HIS:456:CE1:4068, H-A:ARG:545:NE:4922, H-A:TYR:484:OH:4346, H-A:GLU:543:OE1:4907, V-B:GLU:543:CD:9880, V-A:ARG:545:CZ:4924, V-B:GLU:543:CB:9878, V-B:GLU:543:CG:9879, V-B:HIS:456:CE1:9042, V-A:ILE:369:CB:3234, V-A:LYS:547:CE:4948, V-A:GLY:544:C:4910, V-A:GLU:543:C:4900, V-B:LYS:547:CE:9922, V-A:HIS:456:CD2:4066, V-B:HIS:456:CD2:9040, V-B:GLU:543:C:9874, V-B:GLY:544:CA:9886, V-A:ARG:545:CG:4920, V-A:ASP:366:CA:3208, H-A:HIS:456:ND1:4065, H-B:HIS:456:ND1:9039"]

$$$$
4ab_Grossjean_2025
     RDKit          3D

 25 27  0  0  0  0  0  0  0  0999 V2000
  128.2160  127.4410   72.6620 C   0  0  0  0  0  0  0  0  0  0  0  0
  128.7990  126.3760   71.9250 O   0  0  0  0  0  0  0  0  0  0  0  0
  129.8100  126.6040   71.0490 C   0  0  0  0  0  0  0  0  0  0  0  0
  131.0020  126.4300   71.3230 O   0  0  0  0  0  0  0  0  0  0  0  0
  129.3350  127.0990   69.7130 C   0  0  0  0  0  0  0  0  0  0  0  0
  127.9630  127.2920   69.5040 C   0  0  0  0  0  0  0  0  0  0  0  0
  127.4920  127.7480   68.2750 C   0  0  0  0  0  0  0  0  0  0  0  0
  128.3790  128.0270   67.2360 C   0  0  0  0  0  0  0  0  0  0  0  0
  127.7930  128.4740   66.0370 N   0  0  0  0  0  0  0  0  0  0  0  0
  127.2340  129.6700   65.7310 C   0  0  0  0  0  0  0  0  0  0  0  0
  127.1100  130.6010   66.5280 O   0  0  0  0  0  0  0  0  0  0  0  0
  126.7440  129.7970   64.3570 C   0  0  0  0  0  0  0  0  0  0  0  0
  125.4410  130.9260   63.9770 S   0  0  0  0  0  0  0  0  0  0  0  0
  125.4510  130.4470   62.2950 C   0  0  0  0  0  0  0  0  0  0  0  0
  124.6200  130.9850   61.4020 N   0  0  0  0  0  0  0  0  0  0  0  0
  124.7290  130.5230   60.1330 C   0  0  0  0  0  0  0  0  0  0  0  0
  123.7710  131.1440   59.1340 C   0  0  0  0  0  0  0  0  0  0  0  0
  125.6430  129.5480   59.7390 C   0  0  0  0  0  0  0  0  0  0  0  0
  126.5140  128.9850   60.6790 C   0  0  0  0  0  0  0  0  0  0  0  0
  127.4930  127.9230   60.2000 C   0  0  0  0  0  0  0  0  0  0  0  0
  126.4270  129.4410   62.0220 C   0  0  0  0  0  0  0  0  0  0  0  0
  127.1450  129.0850   63.2160 C   0  0  0  0  0  0  0  0  0  0  0  0
  128.1340  128.1340   63.2180 N   0  0  0  0  0  0  0  0  0  0  0  0
  129.7540  127.8310   67.4340 C   0  0  0  0  0  0  0  0  0  0  0  0
  130.2240  127.3730   68.6620 C   0  0  0  0  0  0  0  0  0  0  0  0
  1  2  1  0
  2  3  1  0
  3  4  2  0
  3  5  1  0
  5  6  2  0
  6  7  1  0
  7  8  2  0
  8  9  1  0
  9 10  1  0
 10 11  2  0
 10 12  1  0
 12 13  1  0
 13 14  1  0
 14 15  2  0
 15 16  1  0
 16 17  1  0
 16 18  2  0
 18 19  1  0
 19 20  1  0
 19 21  2  0
 21 22  1  0
 22 23  1  0
  8 24  1  0
 24 25  2  0
 25  5  1  0
 22 12  2  0
 21 14  1  0
M  END
>  <Binding energies>  (38) 
[-6.89]

>  <Ligand effiencies>  (38) 
[-0.24607142857142855]

>  <Interactions>  (38) 
["V-B:ASP:366:CG:8185, V-B:ILE:369:CG2:8209, V-A:TYR:539:CE2:4874, H-B:GLU:543:OE2:9882, H-B:GLU:543:OE1:9881, H-A:GLU:543:OE2:4908, V-A:GLU:543:CD:4906, V-A:HIS:456:CE1:4068, H-A:GLU:543:OE1:4907, V-B:GLU:543:CD:9880, V-B:GLU:543:CG:9879, V-A:GLU:543:CG:4905, H-B:TYR:484:OH:9320, V-A:GLU:543:CB:4904, V-B:HIS:456:CE1:9042, V-B:ASP:366:CB:8184, V-B:ASP:366:CA:8182, V-B:GLY:544:C:9884, V-A:GLU:543:C:4900, V-B:LYS:547:CE:9922, V-A:HIS:456:CD2:4066, V-B:GLU:543:C:9874, V-B:ARG:545:CG:9894, H-A:HIS:456:ND1:4065"]

$$$$
4ac_Grossjean_2025
     RDKit          3D

 23 25  0  0  0  0  0  0  0  0999 V2000
  123.4460  129.9980   66.9350 C   0  0  0  0  0  0  0  0  0  0  0  0
  123.3430  129.6820   65.5510 O   0  0  0  0  0  0  0  0  0  0  0  0
  124.4230  129.9200   64.7230 C   0  0  0  0  0  0  0  0  0  0  0  0
  124.1340  130.1960   63.3870 C   0  0  0  0  0  0  0  0  0  0  0  0
  125.1570  130.4490   62.4770 C   0  0  0  0  0  0  0  0  0  0  0  0
  126.4880  130.4370   62.8970 C   0  0  0  0  0  0  0  0  0  0  0  0
  127.4550  130.6900   61.9060 N   0  0  0  0  0  0  0  0  0  0  0  0
  127.5160  131.7020   61.0070 C   0  0  0  0  0  0  0  0  0  0  0  0
  126.6600  132.5830   60.9010 O   0  0  0  0  0  0  0  0  0  0  0  0
  128.6890  131.6910   60.1290 C   0  0  0  0  0  0  0  0  0  0  0  0
  128.5140  132.0110   58.4030 S   0  0  0  0  0  0  0  0  0  0  0  0
  130.2320  131.8140   58.1430 C   0  0  0  0  0  0  0  0  0  0  0  0
  130.7830  131.9440   56.9360 N   0  0  0  0  0  0  0  0  0  0  0  0
  132.1250  131.7660   56.8720 C   0  0  0  0  0  0  0  0  0  0  0  0
  132.7330  131.9190   55.4900 C   0  0  0  0  0  0  0  0  0  0  0  0
  132.9200  131.4620   57.9760 C   0  0  0  0  0  0  0  0  0  0  0  0
  132.3380  131.3260   59.2410 C   0  0  0  0  0  0  0  0  0  0  0  0
  133.2480  130.9940   60.4140 C   0  0  0  0  0  0  0  0  0  0  0  0
  130.9330  131.5080   59.3470 C   0  0  0  0  0  0  0  0  0  0  0  0
  130.0300  131.4460   60.4650 C   0  0  0  0  0  0  0  0  0  0  0  0
  130.4590  131.1680   61.7380 N   0  0  0  0  0  0  0  0  0  0  0  0
  126.7890  130.1470   64.2360 C   0  0  0  0  0  0  0  0  0  0  0  0
  125.7620  129.8950   65.1420 C   0  0  0  0  0  0  0  0  0  0  0  0
  1  2  1  0
  2  3  1  0
  3  4  2  0
  4  5  1  0
  5  6  2  0
  6  7  1  0
  7  8  1  0
  8  9  2  0
  8 10  1  0
 10 11  1  0
 11 12  1  0
 12 13  2  0
 13 14  1  0
 14 15  1  0
 14 16  2  0
 16 17  1  0
 17 18  1  0
 17 19  2  0
 19 20  1  0
 20 21  1  0
  6 22  1  0
 22 23  2  0
 23  3  1  0
 20 10  2  0
 19 12  1  0
M  END
>  <Binding energies>  (39) 
[-7.21]

>  <Ligand effiencies>  (39) 
[-0.2773076923076923]

>  <Interactions>  (39) 
["V-A:ILE:538:CG2:4861, V-A:PRO:540:CD:4885, V-A:PRO:540:N:4882, V-A:ILE:538:CB:4860, V-A:TYR:531:CZ:4792, V-A:ASP:366:CG:3211, V-A:TYR:539:CD2:4872, V-A:TYR:539:CE2:4874, V-A:PRO:540:CA:4881, H-A:GLU:543:OE2:4908, V-A:ALA:541:CB:4890, V-A:GLU:543:CD:4906, H-A:GLU:543:OE1:4907, V-B:ARG:545:CZ:9898, V-A:ASN:362:CB:3174, H-B:ARG:545:NE:9896, H-B:GLY:454:N:9022, V-A:PRO:540:CB:4883, V-A:LEU:363:CD1:3187, V-A:TYR:539:C:4865, H-B:TYR:484:OH:9320, V-A:TYR:531:CE2:4791, V-B:HIS:456:CE1:9042, V-B:ARG:545:CG:9894, V-B:ARG:545:CD:9895, V-B:TYR:484:CZ:9319, V-A:ASN:362:C:3170, V-B:GLY:454:CA:9021, V-B:GLY:453:C:9014, V-B:GLY:453:CA:9016, H-B:ARG:545:NH1:9899, H-A:ALA:541:O:4887, V-B:ARG:545:CB:9893, V-B:ILE:455:C:9024, V-B:GLY:454:C:9019"]

$$$$
4ad_Grossjean_2025
     RDKit          3D

 21 23  0  0  0  0  0  0  0  0999 V2000
  132.2750  137.8820   70.8050 C   0  0  0  0  0  0  0  0  0  0  0  0
  131.5330  136.9660   71.7600 C   0  0  0  0  0  0  0  0  0  0  0  0
  131.3380  137.3240   73.0920 C   0  0  0  0  0  0  0  0  0  0  0  0
  130.6530  136.4600   73.9560 C   0  0  0  0  0  0  0  0  0  0  0  0
  130.4660  136.8940   75.4020 C   0  0  0  0  0  0  0  0  0  0  0  0
  130.1770  135.2310   73.4250 C   0  0  0  0  0  0  0  0  0  0  0  0
  129.4520  134.1370   74.0120 C   0  0  0  0  0  0  0  0  0  0  0  0
  129.0700  134.1370   75.3300 N   0  0  0  0  0  0  0  0  0  0  0  0
  129.1780  133.0890   73.1190 C   0  0  0  0  0  0  0  0  0  0  0  0
  128.4810  131.8280   73.3790 C   0  0  0  0  0  0  0  0  0  0  0  0
  128.9300  130.7620   72.9520 O   0  0  0  0  0  0  0  0  0  0  0  0
  127.3470  131.9320   74.1150 N   0  0  0  0  0  0  0  0  0  0  0  0
  126.4340  130.9310   74.5000 C   0  0  0  0  0  0  0  0  0  0  0  0
  126.7400  129.6320   74.0830 C   0  0  0  0  0  0  0  0  0  0  0  0
  125.9040  128.5710   74.4220 C   0  0  0  0  0  0  0  0  0  0  0  0
  124.7650  128.8070   75.1870 C   0  0  0  0  0  0  0  0  0  0  0  0
  124.4570  130.0950   75.6210 C   0  0  0  0  0  0  0  0  0  0  0  0
  125.2900  131.1570   75.2820 C   0  0  0  0  0  0  0  0  0  0  0  0
  129.8140  133.4400   71.5110 S   0  0  0  0  0  0  0  0  0  0  0  0
  130.4430  134.9820   72.0440 C   0  0  0  0  0  0  0  0  0  0  0  0
  131.0950  135.8030   71.2190 N   0  0  0  0  0  0  0  0  0  0  0  0
  1  2  1  0
  2  3  2  0
  3  4  1  0
  4  5  1  0
  4  6  2  0
  6  7  1  0
  7  8  1  0
  7  9  2  0
  9 10  1  0
 10 11  2  0
 10 12  1  0
 12 13  1  0
 13 14  2  0
 14 15  1  0
 15 16  2  0
 16 17  1  0
 17 18  2  0
  9 19  1  0
 19 20  1  0
 20 21  2  0
 21  2  1  0
 20  6  1  0
 18 13  1  0
M  END
>  <Binding energies>  (40) 
[-7.21]

>  <Ligand effiencies>  (40) 
[-0.30041666666666667]

>  <Interactions>  (40) 
["V-B:TYR:484:CG:9314, V-A:LYS:547:CE:4948, V-B:HIS:456:CG:9038, V-B:TYR:484:CB:9313, V-A:GLU:543:C:4900, V-B:HIS:456:CD2:9040, H-A:LYS:547:NZ:4949, V-A:GLY:544:CA:4912, V-B:VAL:458:CG2:9059, V-B:VAL:457:C:9045, V-B:HIS:456:CB:9037, V-B:HIS:456:C:9033, V-B:LYS:471:CE:9192, V-B:ASP:473:CG:9212, V-A:VAL:542:CG1:4897, H-B:ASP:473:OD2:9214, V-A:GLU:543:CA:4902, V-B:TYR:484:CD1:9315, V-B:SER:483:CB:9305, H-B:TYR:484:N:9312, V-B:SER:483:CA:9303"]

$$$$
4ae_Grossjean_2025
     RDKit          3D

 22 24  0  0  0  0  0  0  0  0999 V2000
  131.9730  127.0050   74.1190 C   0  0  0  0  0  0  0  0  0  0  0  0
  132.3520  125.5510   74.3170 C   0  0  0  0  0  0  0  0  0  0  0  0
  133.5820  125.1840   74.8690 C   0  0  0  0  0  0  0  0  0  0  0  0
  133.8650  123.8260   75.0140 C   0  0  0  0  0  0  0  0  0  0  0  0
  132.9250  122.8770   74.6070 C   0  0  0  0  0  0  0  0  0  0  0  0
  131.7090  123.3130   74.0700 C   0  0  0  0  0  0  0  0  0  0  0  0
  130.8110  122.3120   73.6600 N   0  0  0  0  0  0  0  0  0  0  0  0
  129.6670  122.4400   72.9420 C   0  0  0  0  0  0  0  0  0  0  0  0
  129.2310  123.5180   72.5340 O   0  0  0  0  0  0  0  0  0  0  0  0
  128.9520  121.1910   72.6740 C   0  0  0  0  0  0  0  0  0  0  0  0
  128.1780  120.9260   71.1100 S   0  0  0  0  0  0  0  0  0  0  0  0
  127.5820  119.3620   71.6160 C   0  0  0  0  0  0  0  0  0  0  0  0
  126.8520  118.5910   70.8090 N   0  0  0  0  0  0  0  0  0  0  0  0
  126.4480  117.4050   71.3250 C   0  0  0  0  0  0  0  0  0  0  0  0
  125.6130  116.5460   70.3930 C   0  0  0  0  0  0  0  0  0  0  0  0
  126.7560  116.9750   72.6150 C   0  0  0  0  0  0  0  0  0  0  0  0
  127.5230  117.7870   73.4580 C   0  0  0  0  0  0  0  0  0  0  0  0
  127.8290  117.2760   74.8580 C   0  0  0  0  0  0  0  0  0  0  0  0
  127.9640  119.0400   72.9520 C   0  0  0  0  0  0  0  0  0  0  0  0
  128.7460  120.0990   73.5330 C   0  0  0  0  0  0  0  0  0  0  0  0
  129.2370  120.0320   74.8120 N   0  0  0  0  0  0  0  0  0  0  0  0
  131.4270  124.6400   73.9180 N   0  0  0  0  0  0  0  0  0  0  0  0
  1  2  1  0
  2  3  2  0
  3  4  1  0
  4  5  2  0
  5  6  1  0
  6  7  1  0
  7  8  1  0
  8  9  2  0
  8 10  1  0
 10 11  1  0
 11 12  1  0
 12 13  2  0
 13 14  1  0
 14 15  1  0
 14 16  2  0
 16 17  1  0
 17 18  1  0
 17 19  2  0
 19 20  1  0
 20 21  1  0
  6 22  2  0
 22  2  1  0
 20 10  2  0
 19 12  1  0
M  END
>  <Binding energies>  (41) 
[-7.21]

>  <Ligand effiencies>  (41) 
[-0.2884]

>  <Interactions>  (41) 
["V-A:LYS:547:CE:4948, V-A:GLY:544:C:4910, V-B:LYS:547:CE:9922, V-A:HIS:456:CD2:4066, V-B:GLU:543:C:9874, V-A:HIS:456:CG:4064, H-B:LYS:547:NZ:9923, V-B:GLY:544:CA:9886, V-A:TYR:484:CD1:4341, V-A:TYR:484:CG:4340, V-B:GLU:543:CA:9876, V-A:TYR:484:CB:4339, V-A:ASP:473:CG:4238, V-A:HIS:456:C:4059, V-A:LYS:471:CD:4217, V-A:HIS:456:CB:4063, V-A:VAL:458:CG2:4085, V-A:LYS:471:CE:4218, V-A:LYS:547:CD:4947, V-B:VAL:542:CG1:9871, V-A:LYS:547:CG:4946, V-A:HIS:456:CA:4061, V-A:LYS:471:CG:4216, V-A:ASP:473:CB:4237, H-A:ASP:473:OD2:4240, V-A:SER:483:CB:4331, V-A:SER:483:CA:4329, H-A:TYR:484:N:4338"]

$$$$
4af_Grossjean_2025
     RDKit          3D

 21 23  0  0  0  0  0  0  0  0999 V2000
  132.1980  131.9620   55.4850 C   0  0  0  0  0  0  0  0  0  0  0  0
  131.6220  131.7500   56.8730 C   0  0  0  0  0  0  0  0  0  0  0  0
  132.4520  131.5030   57.9640 C   0  0  0  0  0  0  0  0  0  0  0  0
  131.8980  131.3070   59.2350 C   0  0  0  0  0  0  0  0  0  0  0  0
  132.8440  131.0390   60.3940 C   0  0  0  0  0  0  0  0  0  0  0  0
  130.4830  131.3710   59.3590 C   0  0  0  0  0  0  0  0  0  0  0  0
  129.6010  131.2190   60.4850 C   0  0  0  0  0  0  0  0  0  0  0  0
  130.0660  130.9630   61.7500 N   0  0  0  0  0  0  0  0  0  0  0  0
  128.2410  131.3580   60.1660 C   0  0  0  0  0  0  0  0  0  0  0  0
  127.0800  131.2360   61.0500 C   0  0  0  0  0  0  0  0  0  0  0  0
  125.9840  131.6850   60.7120 O   0  0  0  0  0  0  0  0  0  0  0  0
  127.3090  130.5950   62.2220 N   0  0  0  0  0  0  0  0  0  0  0  0
  126.4340  130.3550   63.2980 C   0  0  0  0  0  0  0  0  0  0  0  0
  126.8050  129.8380   64.5520 C   0  0  0  0  0  0  0  0  0  0  0  0
  125.8310  129.6310   65.5300 C   0  0  0  0  0  0  0  0  0  0  0  0
  124.5040  129.9440   65.2300 C   0  0  0  0  0  0  0  0  0  0  0  0
  124.1190  130.4360   64.0250 N   0  0  0  0  0  0  0  0  0  0  0  0
  125.0780  130.6310   63.0850 C   0  0  0  0  0  0  0  0  0  0  0  0
  128.0200  131.6810   58.4440 S   0  0  0  0  0  0  0  0  0  0  0  0
  129.7460  131.6310   58.1650 C   0  0  0  0  0  0  0  0  0  0  0  0
  130.2700  131.8180   56.9530 N   0  0  0  0  0  0  0  0  0  0  0  0
  1  2  1  0
  2  3  2  0
  3  4  1  0
  4  5  1  0
  4  6  2  0
  6  7  1  0
  7  8  1  0
  7  9  2  0
  9 10  1  0
 10 11  2  0
 10 12  1  0
 12 13  1  0
 13 14  2  0
 14 15  1  0
 15 16  2  0
 16 17  1  0
 17 18  2  0
  9 19  1  0
 19 20  1  0
 20 21  2  0
 21  2  1  0
 20  6  1  0
 18 13  1  0
M  END
>  <Binding energies>  (42) 
[-7.25]

>  <Ligand effiencies>  (42) 
[-0.3020833333333333]

>  <Interactions>  (42) 
["V-A:ILE:538:CG2:4861, V-A:PRO:540:CD:4885, V-A:PRO:540:N:4882, V-A:ILE:538:CB:4860, V-A:ILE:538:CA:4858, V-A:TYR:531:CZ:4792, V-A:TYR:539:CD2:4872, V-A:TYR:539:CE2:4874, V-A:TYR:539:CZ:4875, V-A:PRO:540:CA:4881, H-A:GLU:543:OE2:4908, V-A:GLU:543:CD:4906, H-A:GLU:543:OE1:4907, V-B:ARG:545:CZ:9898, V-A:ASN:362:CB:3174, H-B:GLY:454:N:9022, V-A:PRO:540:CB:4883, V-A:TYR:539:C:4865, H-B:TYR:484:OH:9320, V-A:TYR:531:CE2:4791, V-B:HIS:456:CE1:9042, V-B:ARG:545:CD:9895, H-A:ALA:541:O:4887"]

$$$$
4ag_Grossjean_2025
     RDKit          3D

 22 24  0  0  0  0  0  0  0  0999 V2000
  134.2390  119.9530   60.6320 C   0  0  0  0  0  0  0  0  0  0  0  0
  133.2210  121.0360   60.9390 C   0  0  0  0  0  0  0  0  0  0  0  0
  133.5930  122.2000   61.6090 C   0  0  0  0  0  0  0  0  0  0  0  0
  132.6380  123.1870   61.8810 C   0  0  0  0  0  0  0  0  0  0  0  0
  133.0930  124.4400   62.6140 C   0  0  0  0  0  0  0  0  0  0  0  0
  131.3040  122.9540   61.4540 C   0  0  0  0  0  0  0  0  0  0  0  0
  130.1010  123.7330   61.5640 C   0  0  0  0  0  0  0  0  0  0  0  0
  130.0770  124.9630   62.1730 N   0  0  0  0  0  0  0  0  0  0  0  0
  128.9720  123.1210   61.0000 C   0  0  0  0  0  0  0  0  0  0  0  0
  127.6030  123.6320   60.9260 C   0  0  0  0  0  0  0  0  0  0  0  0
  126.8430  123.5740   61.8950 O   0  0  0  0  0  0  0  0  0  0  0  0
  127.2240  124.1460   59.7370 N   0  0  0  0  0  0  0  0  0  0  0  0
  125.9170  124.7330   59.4460 C   0  0  0  0  0  0  0  0  0  0  0  0
  125.2740  124.2090   58.1670 C   0  0  0  0  0  0  0  0  0  0  0  0
  126.0800  123.7730   57.1120 C   0  0  0  0  0  0  0  0  0  0  0  0
  125.4950  123.2690   55.9520 C   0  0  0  0  0  0  0  0  0  0  0  0
  124.1070  123.1930   55.8570 C   0  0  0  0  0  0  0  0  0  0  0  0
  123.2980  123.6120   56.9110 C   0  0  0  0  0  0  0  0  0  0  0  0
  123.8830  124.1140   58.0710 C   0  0  0  0  0  0  0  0  0  0  0  0
  129.3770  121.5540   60.3010 S   0  0  0  0  0  0  0  0  0  0  0  0
  131.0520  121.7230   60.7770 C   0  0  0  0  0  0  0  0  0  0  0  0
  131.9590  120.7810   60.5150 N   0  0  0  0  0  0  0  0  0  0  0  0
  1  2  1  0
  2  3  2  0
  3  4  1  0
  4  5  1  0
  4  6  2  0
  6  7  1  0
  7  8  1  0
  7  9  2  0
  9 10  1  0
 10 11  2  0
 10 12  1  0
 12 13  1  0
 13 14  1  0
 14 15  2  0
 15 16  1  0
 16 17  2  0
 17 18  1  0
 18 19  2  0
  9 20  1  0
 20 21  1  0
 21 22  2  0
 22  2  1  0
 21  6  1  0
 19 14  1  0
M  END
>  <Binding energies>  (43) 
[-7.35]

>  <Ligand effiencies>  (43) 
[-0.294]

>  <Interactions>  (43) 
["V-B:TYR:539:CD2:9846, V-B:PRO:540:CA:9855, H-B:ALA:541:N:9863, V-A:LEU:475:CD2:4257, V-A:ILE:369:CG2:3235, V-A:TRP:381:CZ2:3368, V-B:ALA:541:CB:9864, V-A:TRP:381:CH2:3370, V-A:ILE:369:CD1:3237, V-B:PRO:540:N:9856, V-B:ILE:538:CB:9834, V-B:TYR:531:CE2:9765, V-B:PRO:540:CD:9859, V-B:PRO:540:CB:9857, V-B:ILE:538:CG2:9835, H-B:GLU:543:OE2:9882, H-B:GLU:543:OE1:9881, V-B:ILE:538:CA:9832, V-B:TYR:539:C:9839, V-B:LEU:363:CD1:8161, V-B:TYR:531:CZ:9766, V-B:GLU:543:CD:9880, V-A:ARG:545:CZ:4924, V-A:GLY:454:CA:4047, V-B:LEU:363:CA:8157, V-B:LEU:363:CB:8159, V-B:PRO:540:CG:9858, V-A:SER:385:C:3403, V-A:SER:385:CA:3405, V-A:SER:385:CB:3407"]

$$$$
4ah_Grossjean_2025
     RDKit          3D

 28 30  0  0  0  0  0  0  0  0999 V2000
  128.9720  123.9690   55.6490 C   0  0  0  0  0  0  0  0  0  0  0  0
  128.6630  123.0940   56.7280 O   0  0  0  0  0  0  0  0  0  0  0  0
  127.7430  123.4910   57.6820 C   0  0  0  0  0  0  0  0  0  0  0  0
  128.0920  124.0180   58.9360 C   0  0  0  0  0  0  0  0  0  0  0  0
  127.1090  124.3970   59.8510 C   0  0  0  0  0  0  0  0  0  0  0  0
  127.5070  125.0100   61.1890 C   0  0  0  0  0  0  0  0  0  0  0  0
  127.0720  126.3970   61.3490 N   0  0  0  0  0  0  0  0  0  0  0  0
  126.9200  127.2890   60.3480 C   0  0  0  0  0  0  0  0  0  0  0  0
  127.1780  127.0200   59.1730 O   0  0  0  0  0  0  0  0  0  0  0  0
  126.4680  128.6230   60.7410 C   0  0  0  0  0  0  0  0  0  0  0  0
  125.5500  129.6180   59.6090 S   0  0  0  0  0  0  0  0  0  0  0  0
  125.4680  130.9320   60.7610 C   0  0  0  0  0  0  0  0  0  0  0  0
  124.8430  132.0760   60.4830 N   0  0  0  0  0  0  0  0  0  0  0  0
  124.8520  133.0130   61.4630 C   0  0  0  0  0  0  0  0  0  0  0  0
  124.1380  134.3080   61.1250 C   0  0  0  0  0  0  0  0  0  0  0  0
  125.4630  132.8330   62.7010 C   0  0  0  0  0  0  0  0  0  0  0  0
  126.1210  131.6310   62.9900 C   0  0  0  0  0  0  0  0  0  0  0  0
  126.7740  131.4820   64.3550 C   0  0  0  0  0  0  0  0  0  0  0  0
  126.1350  130.6250   61.9860 C   0  0  0  0  0  0  0  0  0  0  0  0
  126.7070  129.3060   61.9430 C   0  0  0  0  0  0  0  0  0  0  0  0
  127.4110  128.7760   62.9940 N   0  0  0  0  0  0  0  0  0  0  0  0
  125.7630  124.2760   59.5040 C   0  0  0  0  0  0  0  0  0  0  0  0
  125.3840  123.7480   58.2600 C   0  0  0  0  0  0  0  0  0  0  0  0
  124.0710  123.5870   57.8570 O   0  0  0  0  0  0  0  0  0  0  0  0
  123.2630  124.7380   57.6340 C   0  0  0  0  0  0  0  0  0  0  0  0
  126.3850  123.3530   57.3600 C   0  0  0  0  0  0  0  0  0  0  0  0
  126.0290  122.8520   56.1310 O   0  0  0  0  0  0  0  0  0  0  0  0
  125.6190  123.8420   55.1980 C   0  0  0  0  0  0  0  0  0  0  0  0
  1  2  1  0
  2  3  1  0
  3  4  2  0
  4  5  1  0
  5  6  1  0
  6  7  1  0
  7  8  1  0
  8  9  2  0
  8 10  1  0
 10 11  1  0
 11 12  1  0
 12 13  2  0
 13 14  1  0
 14 15  1  0
 14 16  2  0
 16 17  1  0
 17 18  1  0
 17 19  2  0
 19 20  1  0
 20 21  1  0
  5 22  2  0
 22 23  1  0
 23 24  1  0
 24 25  1  0
 23 26  2  0
 26 27  1  0
 27 28  1  0
 26  3  1  0
 20 10  2  0
 19 12  1  0
M  END
>  <Binding energies>  (44) 
[-6.97]

>  <Ligand effiencies>  (44) 
[-0.22483870967741934]

>  <Interactions>  (44) 
["V-B:ASP:366:CG:8185, V-B:PRO:540:CA:9855, V-B:TYR:539:CE2:9848, V-B:PRO:540:N:9856, V-B:ILE:538:CB:9834, V-B:ILE:369:CD1:8211, V-B:TYR:531:CE2:9765, V-B:PRO:540:CD:9859, V-B:PRO:540:CB:9857, V-B:ILE:369:CG2:8209, V-B:LEU:475:CD2:9231, V-B:ILE:538:CG2:9835, V-B:TRP:381:CH2:8344, H-B:GLU:543:OE2:9882, H-B:GLU:543:OE1:9881, V-B:TYR:539:CZ:9849, H-A:GLU:543:OE2:4908, V-B:TYR:539:CE1:9847, V-A:GLU:543:CD:4906, V-B:ILE:538:CA:9832, V-B:TYR:539:C:9839, V-B:LEU:363:CD1:8161, V-B:TYR:531:CZ:9766, H-A:GLU:543:OE1:4907, V-B:GLU:543:CD:9880, V-B:TYR:539:CD1:9845, V-B:ASP:366:CB:8184, V-B:TYR:484:CZ:9319, V-B:LEU:363:CA:8157, H-B:TYR:539:N:9842, V-B:TYR:484:CE1:9317"]

$$$$
4ai_Grossjean_2025
     RDKit          3D

 20 22  0  0  0  0  0  0  0  0999 V2000
  132.2200  131.9130   55.5010 C   0  0  0  0  0  0  0  0  0  0  0  0
  131.6220  131.7150   56.8820 C   0  0  0  0  0  0  0  0  0  0  0  0
  132.4370  131.4940   57.9910 C   0  0  0  0  0  0  0  0  0  0  0  0
  131.8640  131.3200   59.2560 C   0  0  0  0  0  0  0  0  0  0  0  0
  132.7950  131.0840   60.4360 C   0  0  0  0  0  0  0  0  0  0  0  0
  130.4480  131.3760   59.3570 C   0  0  0  0  0  0  0  0  0  0  0  0
  129.5490  131.2430   60.4710 C   0  0  0  0  0  0  0  0  0  0  0  0
  129.9960  131.0080   61.7480 N   0  0  0  0  0  0  0  0  0  0  0  0
  128.1940  131.3820   60.1320 C   0  0  0  0  0  0  0  0  0  0  0  0
  127.0220  131.2950   61.0060 C   0  0  0  0  0  0  0  0  0  0  0  0
  125.9210  131.6950   60.6240 O   0  0  0  0  0  0  0  0  0  0  0  0
  127.2460  130.7390   62.2230 N   0  0  0  0  0  0  0  0  0  0  0  0
  126.3200  130.5260   63.2360 C   0  0  0  0  0  0  0  0  0  0  0  0
  126.6410  129.9040   64.4430 C   0  0  0  0  0  0  0  0  0  0  0  0
  125.4660  129.8830   65.1590 C   0  0  0  0  0  0  0  0  0  0  0  0
  124.4890  130.4640   64.4230 O   0  0  0  0  0  0  0  0  0  0  0  0
  125.0420  130.8680   63.2070 N   0  0  0  0  0  0  0  0  0  0  0  0
  127.9970  131.6580   58.4000 S   0  0  0  0  0  0  0  0  0  0  0  0
  129.7270  131.6080   58.1460 C   0  0  0  0  0  0  0  0  0  0  0  0
  130.2690  131.7730   56.9390 N   0  0  0  0  0  0  0  0  0  0  0  0
  1  2  1  0
  2  3  2  0
  3  4  1  0
  4  5  1  0
  4  6  2  0
  6  7  1  0
  7  8  1  0
  7  9  2  0
  9 10  1  0
 10 11  2  0
 10 12  1  0
 12 13  1  0
 13 14  1  0
 14 15  2  0
 15 16  1  0
 16 17  1  0
  9 18  1  0
 18 19  1  0
 19 20  2  0
 20  2  1  0
 19  6  1  0
 17 13  2  0
M  END
>  <Binding energies>  (45) 
[-6.98]

>  <Ligand effiencies>  (45) 
[-0.30347826086956525]

>  <Interactions>  (45) 
["V-A:ILE:538:CG2:4861, V-A:PRO:540:CD:4885, V-A:PRO:540:N:4882, V-A:ILE:538:CB:4860, V-A:ILE:538:CA:4858, V-A:TYR:531:CZ:4792, V-A:TYR:539:CD2:4872, V-A:TYR:539:CE2:4874, V-A:TYR:539:CZ:4875, V-A:PRO:540:CA:4881, H-A:GLU:543:OE2:4908, V-A:GLU:543:CD:4906, H-A:GLU:543:OE1:4907, V-B:ARG:545:CZ:9898, V-A:ASN:362:CB:3174, H-B:GLY:454:N:9022, V-A:PRO:540:CB:4883, V-A:TYR:539:C:4865, H-B:TYR:484:OH:9320, V-A:TYR:531:CE2:4791, V-B:HIS:456:CE1:9042, H-A:ALA:541:O:4887"]

$$$$
4aj_Grossjean_2025
     RDKit          3D

 20 22  0  0  0  0  0  0  0  0999 V2000
  125.9430  116.4680   70.7500 C   0  0  0  0  0  0  0  0  0  0  0  0
  126.7300  117.4150   71.6370 C   0  0  0  0  0  0  0  0  0  0  0  0
  127.0700  117.0610   72.9410 C   0  0  0  0  0  0  0  0  0  0  0  0
  127.7920  117.9520   73.7430 C   0  0  0  0  0  0  0  0  0  0  0  0
  128.1380  117.5180   75.1600 C   0  0  0  0  0  0  0  0  0  0  0  0
  128.1560  119.2050   73.1820 C   0  0  0  0  0  0  0  0  0  0  0  0
  128.8780  120.3310   73.7100 C   0  0  0  0  0  0  0  0  0  0  0  0
  129.3730  120.3490   74.9890 N   0  0  0  0  0  0  0  0  0  0  0  0
  129.0290  121.3880   72.8000 C   0  0  0  0  0  0  0  0  0  0  0  0
  129.6930  122.6780   73.0040 C   0  0  0  0  0  0  0  0  0  0  0  0
  129.2340  123.7080   72.5060 O   0  0  0  0  0  0  0  0  0  0  0  0
  130.8100  122.6420   73.7710 N   0  0  0  0  0  0  0  0  0  0  0  0
  131.6130  123.7170   74.1250 C   0  0  0  0  0  0  0  0  0  0  0  0
  131.3590  125.0000   73.9730 N   0  0  0  0  0  0  0  0  0  0  0  0
  132.3470  125.7470   74.4270 C   0  0  0  0  0  0  0  0  0  0  0  0
  133.4370  125.0660   74.9630 C   0  0  0  0  0  0  0  0  0  0  0  0
  133.1410  123.3560   74.8620 S   0  0  0  0  0  0  0  0  0  0  0  0
  128.2570  121.0170   71.2570 S   0  0  0  0  0  0  0  0  0  0  0  0
  127.7500  119.4460   71.8350 C   0  0  0  0  0  0  0  0  0  0  0  0
  127.0610  118.6000   71.0670 N   0  0  0  0  0  0  0  0  0  0  0  0
  1  2  1  0
  2  3  2  0
  3  4  1  0
  4  5  1  0
  4  6  2  0
  6  7  1  0
  7  8  1  0
  7  9  2  0
  9 10  1  0
 10 11  2  0
 10 12  1  0
 12 13  1  0
 13 14  2  0
 14 15  1  0
 15 16  2  0
 16 17  1  0
  9 18  1  0
 18 19  1  0
 19 20  2  0
 20  2  1  0
 19  6  1  0
 17 13  1  0
M  END
>  <Binding energies>  (46) 
[-6.76]

>  <Ligand effiencies>  (46) 
[-0.29391304347826086]

>  <Interactions>  (46) 
["V-B:LYS:547:CE:9922, V-A:HIS:456:CD2:4066, V-B:GLU:543:C:9874, V-A:HIS:456:CG:4064, H-B:LYS:547:NZ:9923, V-B:GLY:544:CA:9886, V-A:TYR:484:CD1:4341, V-A:TYR:484:CG:4340, V-B:GLU:543:CA:9876, V-A:TYR:484:CB:4339, V-A:ASP:473:CG:4238, V-A:HIS:456:C:4059, V-A:LYS:471:CD:4217, V-A:HIS:456:CB:4063, V-A:VAL:458:CG2:4085, V-A:LYS:471:CE:4218, V-B:VAL:542:CG1:9871, H-A:ASP:473:OD2:4240, V-A:SER:483:CB:4331, H-A:TYR:484:N:4338"]

$$$$
4ak_Grossjean_2025
     RDKit          3D

 25 26  0  0  0  0  0  0  0  0999 V2000
  126.8590  128.8830   73.7810 C   0  0  0  0  0  0  0  0  0  0  0  0
  128.1870  129.1610   73.3670 O   0  0  0  0  0  0  0  0  0  0  0  0
  128.5570  128.4960   72.1660 C   0  0  0  0  0  0  0  0  0  0  0  0
  128.5460  126.9800   72.3960 C   0  0  0  0  0  0  0  0  0  0  0  0
  129.5600  126.6390   73.3330 O   0  0  0  0  0  0  0  0  0  0  0  0
  130.8700  127.0000   72.9170 C   0  0  0  0  0  0  0  0  0  0  0  0
  131.8980  126.3040   73.8180 C   0  0  0  0  0  0  0  0  0  0  0  0
  131.2320  125.7320   74.9360 O   0  0  0  0  0  0  0  0  0  0  0  0
  131.9670  124.6980   75.5760 C   0  0  0  0  0  0  0  0  0  0  0  0
  132.5370  123.7440   74.5100 C   0  0  0  0  0  0  0  0  0  0  0  0
  131.5880  122.7220   74.0690 N   0  0  0  0  0  0  0  0  0  0  0  0
  130.4490  122.9580   73.3860 C   0  0  0  0  0  0  0  0  0  0  0  0
  130.1070  124.0910   73.0430 O   0  0  0  0  0  0  0  0  0  0  0  0
  129.6380  121.7850   73.0640 C   0  0  0  0  0  0  0  0  0  0  0  0
  129.0570  121.5300   71.4180 S   0  0  0  0  0  0  0  0  0  0  0  0
  128.2670  120.0390   71.8790 C   0  0  0  0  0  0  0  0  0  0  0  0
  127.5830  119.3030   71.0020 N   0  0  0  0  0  0  0  0  0  0  0  0
  127.0170  118.1720   71.4900 C   0  0  0  0  0  0  0  0  0  0  0  0
  126.2450  117.3460   70.4760 C   0  0  0  0  0  0  0  0  0  0  0  0
  127.1180  117.7640   72.8180 C   0  0  0  0  0  0  0  0  0  0  0  0
  127.8370  118.5400   73.7360 C   0  0  0  0  0  0  0  0  0  0  0  0
  127.9160  118.0560   75.1760 C   0  0  0  0  0  0  0  0  0  0  0  0
  128.4440  119.7340   73.2620 C   0  0  0  0  0  0  0  0  0  0  0  0
  129.2350  120.7430   73.9130 C   0  0  0  0  0  0  0  0  0  0  0  0
  129.5550  120.6790   75.2460 N   0  0  0  0  0  0  0  0  0  0  0  0
  1  2  1  0
  2  3  1  0
  3  4  1  0
  4  5  1  0
  5  6  1  0
  6  7  1  0
  7  8  1  0
  8  9  1  0
  9 10  1  0
 10 11  1  0
 11 12  1  0
 12 13  2  0
 12 14  1  0
 14 15  1  0
 15 16  1  0
 16 17  2  0
 17 18  1  0
 18 19  1  0
 18 20  2  0
 20 21  1  0
 21 22  1  0
 21 23  2  0
 23 24  1  0
 24 25  1  0
 24 14  2  0
 23 16  1  0
M  END
>  <Binding energies>  (47) 
[-6.94]

>  <Ligand effiencies>  (47) 
[-0.24785714285714286]

>  <Interactions>  (47) 
["V-B:GLY:544:C:9884, V-A:LYS:547:CE:4948, V-B:HIS:456:CG:9038, V-A:GLY:544:C:4910, V-B:LYS:547:CE:9922, V-A:HIS:456:CD2:4066, V-B:HIS:456:CD2:9040, V-B:GLU:543:C:9874, V-A:HIS:456:CG:4064, H-B:LYS:547:NZ:9923, H-A:LYS:547:NZ:4949, V-B:GLY:544:CA:9886, V-A:TYR:484:CD1:4341, V-A:TYR:484:CG:4340, V-B:GLU:543:CA:9876, V-A:TYR:484:CB:4339, V-A:ASP:473:CG:4238, V-B:HIS:456:CB:9037, V-A:HIS:456:CB:4063, V-A:VAL:458:CG2:4085, V-A:LYS:471:CE:4218, V-B:VAL:542:CG1:9871, H-A:ASP:473:OD2:4240, V-A:SER:483:CB:4331, V-A:SER:483:CA:4329, H-A:TYR:484:N:4338, V-B:VAL:542:CB:9870"]

$$$$
4al_Grossjean_2025
     RDKit          3D

 16 17  0  0  0  0  0  0  0  0999 V2000
  126.9090  130.0250   55.5680 C   0  0  0  0  0  0  0  0  0  0  0  0
  127.4470  131.1830   56.1860 O   0  0  0  0  0  0  0  0  0  0  0  0
  128.6490  131.6840   55.8010 C   0  0  0  0  0  0  0  0  0  0  0  0
  128.8680  132.1760   54.6910 O   0  0  0  0  0  0  0  0  0  0  0  0
  129.6810  131.5810   56.8560 C   0  0  0  0  0  0  0  0  0  0  0  0
  129.2230  131.7350   58.5540 S   0  0  0  0  0  0  0  0  0  0  0  0
  130.8810  131.5100   59.0640 C   0  0  0  0  0  0  0  0  0  0  0  0
  131.2300  131.5220   60.3510 N   0  0  0  0  0  0  0  0  0  0  0  0
  132.5480  131.3360   60.6120 C   0  0  0  0  0  0  0  0  0  0  0  0
  132.9240  131.3520   62.0820 C   0  0  0  0  0  0  0  0  0  0  0  0
  133.5130  131.1420   59.6260 C   0  0  0  0  0  0  0  0  0  0  0  0
  133.1430  131.1300   58.2770 C   0  0  0  0  0  0  0  0  0  0  0  0
  134.2320  130.9150   57.2370 C   0  0  0  0  0  0  0  0  0  0  0  0
  131.7700  131.3220   57.9650 C   0  0  0  0  0  0  0  0  0  0  0  0
  131.0570  131.3670   56.7180 C   0  0  0  0  0  0  0  0  0  0  0  0
  131.6790  131.2130   55.5060 N   0  0  0  0  0  0  0  0  0  0  0  0
  1  2  1  0
  2  3  1  0
  3  4  2  0
  3  5  1  0
  5  6  1  0
  6  7  1  0
  7  8  2  0
  8  9  1  0
  9 10  1  0
  9 11  2  0
 11 12  1  0
 12 13  1  0
 12 14  2  0
 14 15  1  0
 15 16  1  0
 15  5  2  0
 14  7  1  0
M  END
>  <Binding energies>  (48) 
[-5.42]

>  <Ligand effiencies>  (48) 
[-0.3011111111111111]

>  <Interactions>  (48) 
["V-A:ILE:538:CG2:4861, V-A:PRO:540:N:4882, V-A:TYR:531:CZ:4792, V-A:ASP:366:CG:3211, H-A:TYR:531:OH:4793, V-A:ASP:366:CB:3210, V-A:TYR:539:CZ:4875, H-A:ALA:541:N:4889, V-A:PRO:540:CA:4881, V-A:ARG:545:CZ:4924, V-A:ASN:362:CB:3174, V-A:PRO:540:CB:4883, V-A:LEU:363:CD1:3187, V-A:TYR:539:C:4865, V-A:TYR:539:CE1:4873, V-A:TYR:531:CE2:4791, V-A:TYR:539:CD1:4871, H-A:TYR:539:OH:4876, V-A:PRO:540:C:4879, H-A:TYR:539:N:4868, V-A:LEU:363:CB:3185, V-A:LEU:363:CA:3183, V-A:ASN:362:C:3170, V-A:ALA:541:C:4886, V-A:ASN:362:CG:3175, V-A:LEU:363:C:3181"]

$$$$
4bc_Grossjean_2025
     RDKit          3D

 26 28  0  0  0  0  0  0  0  0999 V2000
  123.4670  130.0020   66.9730 C   0  0  0  0  0  0  0  0  0  0  0  0
  123.3350  129.6680   65.5960 O   0  0  0  0  0  0  0  0  0  0  0  0
  124.3960  129.9000   64.7420 C   0  0  0  0  0  0  0  0  0  0  0  0
  124.0780  130.1520   63.4080 C   0  0  0  0  0  0  0  0  0  0  0  0
  125.0810  130.3970   62.4730 C   0  0  0  0  0  0  0  0  0  0  0  0
  126.4210  130.4000   62.8650 C   0  0  0  0  0  0  0  0  0  0  0  0
  127.3650  130.6410   61.8500 N   0  0  0  0  0  0  0  0  0  0  0  0
  127.2750  131.4590   60.7730 C   0  0  0  0  0  0  0  0  0  0  0  0
  126.2760  132.1240   60.4960 O   0  0  0  0  0  0  0  0  0  0  0  0
  128.4660  131.5090   59.9200 C   0  0  0  0  0  0  0  0  0  0  0  0
  128.3050  131.7790   58.1860 S   0  0  0  0  0  0  0  0  0  0  0  0
  130.0360  131.6960   57.9650 C   0  0  0  0  0  0  0  0  0  0  0  0
  130.5920  131.8410   56.7620 N   0  0  0  0  0  0  0  0  0  0  0  0
  131.9410  131.7560   56.7160 C   0  0  0  0  0  0  0  0  0  0  0  0
  132.5530  131.9290   55.3390 C   0  0  0  0  0  0  0  0  0  0  0  0
  132.7410  131.5300   57.8340 C   0  0  0  0  0  0  0  0  0  0  0  0
  132.1620  131.3760   59.1030 C   0  0  0  0  0  0  0  0  0  0  0  0
  133.0830  131.1280   60.3030 C   0  0  0  0  0  0  0  0  0  0  0  0
  133.1300  132.1590   61.1480 F   0  0  0  0  0  0  0  0  0  0  0  0
  132.6540  130.0690   60.9880 F   0  0  0  0  0  0  0  0  0  0  0  0
  134.3270  130.9030   59.8780 F   0  0  0  0  0  0  0  0  0  0  0  0
  130.7400  131.4630   59.1870 C   0  0  0  0  0  0  0  0  0  0  0  0
  129.8130  131.3630   60.2880 C   0  0  0  0  0  0  0  0  0  0  0  0
  130.2190  131.1450   61.5800 N   0  0  0  0  0  0  0  0  0  0  0  0
  126.7500  130.1330   64.2030 C   0  0  0  0  0  0  0  0  0  0  0  0
  125.7450  129.8890   65.1340 C   0  0  0  0  0  0  0  0  0  0  0  0
  1  2  1  0
  2  3  1  0
  3  4  2  0
  4  5  1  0
  5  6  2  0
  6  7  1  0
  7  8  1  0
  8  9  2  0
  8 10  1  0
 10 11  1  0
 11 12  1  0
 12 13  2  0
 13 14  1  0
 14 15  1  0
 14 16  2  0
 16 17  1  0
 17 18  1  0
 18 19  1  0
 18 20  1  0
 18 21  1  0
 17 22  2  0
 22 23  1  0
 23 24  1  0
  6 25  1  0
 25 26  2  0
 26  3  1  0
 23 10  2  0
 22 12  1  0
M  END
>  <Binding energies>  (49) 
[-6.79]

>  <Ligand effiencies>  (49) 
[-0.23413793103448277]

>  <Interactions>  (49) 
["V-A:ILE:538:CG2:4861, V-A:PRO:540:CD:4885, V-A:PRO:540:N:4882, V-A:ILE:538:CB:4860, V-A:ILE:538:CA:4858, V-A:TYR:531:CZ:4792, V-A:ASP:366:CG:3211, V-A:TYR:539:CD2:4872, V-A:TYR:539:CE2:4874, V-A:TYR:539:CZ:4875, V-A:PRO:540:CA:4881, H-A:GLU:543:OE2:4908, V-A:GLU:543:CD:4906, H-A:GLU:543:OE1:4907, V-A:ARG:545:CZ:4924, V-B:ARG:545:CZ:9898, V-A:ASN:362:CB:3174, H-B:ARG:545:NE:9896, H-B:GLY:454:N:9022, V-A:PRO:540:CB:4883, V-A:LEU:363:CD1:3187, V-A:TYR:539:C:4865, H-B:TYR:484:OH:9320, V-A:TYR:531:CE2:4791, V-B:HIS:456:CE1:9042, V-A:PRO:540:C:4879, V-B:ARG:545:CG:9894, V-B:ARG:545:CD:9895, V-B:TYR:484:CZ:9319, V-A:LEU:363:CA:3183, V-A:ASN:362:C:3170, V-A:ALA:541:C:4886, V-B:GLY:454:CA:9021, V-A:ALA:541:CA:4888, V-B:GLY:453:C:9014, V-B:GLY:453:CA:9016, H-B:ARG:545:NH1:9899, H-A:ALA:541:O:4887, V-B:ARG:545:CB:9893, V-A:ASN:362:CA:3172, V-B:ILE:455:C:9024, V-B:GLY:454:C:9019"]

$$$$
4bf_Grossjean_2025
     RDKit          3D

 24 26  0  0  0  0  0  0  0  0999 V2000
  131.8250  131.9220   55.3860 C   0  0  0  0  0  0  0  0  0  0  0  0
  131.3130  131.7070   56.7990 C   0  0  0  0  0  0  0  0  0  0  0  0
  132.1940  131.5170   57.8600 C   0  0  0  0  0  0  0  0  0  0  0  0
  131.7070  131.3160   59.1610 C   0  0  0  0  0  0  0  0  0  0  0  0
  132.7150  131.1090   60.2960 C   0  0  0  0  0  0  0  0  0  0  0  0
  133.9720  130.9820   59.8630 F   0  0  0  0  0  0  0  0  0  0  0  0
  132.6830  132.1520   61.1250 F   0  0  0  0  0  0  0  0  0  0  0  0
  132.4130  129.9990   60.9720 F   0  0  0  0  0  0  0  0  0  0  0  0
  130.2910  131.3160   59.3350 C   0  0  0  0  0  0  0  0  0  0  0  0
  129.4440  131.1440   60.4890 C   0  0  0  0  0  0  0  0  0  0  0  0
  129.9460  130.9320   61.7490 N   0  0  0  0  0  0  0  0  0  0  0  0
  128.0700  131.2150   60.2100 C   0  0  0  0  0  0  0  0  0  0  0  0
  126.9400  131.0550   61.1310 C   0  0  0  0  0  0  0  0  0  0  0  0
  125.8050  131.3950   60.7970 O   0  0  0  0  0  0  0  0  0  0  0  0
  127.2450  130.5050   62.3320 N   0  0  0  0  0  0  0  0  0  0  0  0
  126.4150  130.2620   63.4430 C   0  0  0  0  0  0  0  0  0  0  0  0
  126.8360  129.7320   64.6750 C   0  0  0  0  0  0  0  0  0  0  0  0
  125.9030  129.5260   65.6940 C   0  0  0  0  0  0  0  0  0  0  0  0
  124.5680  129.8520   65.4540 C   0  0  0  0  0  0  0  0  0  0  0  0
  124.1350  130.3590   64.2730 N   0  0  0  0  0  0  0  0  0  0  0  0
  125.0540  130.5530   63.2910 C   0  0  0  0  0  0  0  0  0  0  0  0
  127.7830  131.4960   58.4940 S   0  0  0  0  0  0  0  0  0  0  0  0
  129.4990  131.5210   58.1630 C   0  0  0  0  0  0  0  0  0  0  0  0
  129.9660  131.7130   56.9300 N   0  0  0  0  0  0  0  0  0  0  0  0
  1  2  1  0
  2  3  2  0
  3  4  1  0
  4  5  1  0
  5  6  1  0
  5  7  1  0
  5  8  1  0
  4  9  2  0
  9 10  1  0
 10 11  1  0
 10 12  2  0
 12 13  1  0
 13 14  2  0
 13 15  1  0
 15 16  1  0
 16 17  2  0
 17 18  1  0
 18 19  2  0
 19 20  1  0
 20 21  2  0
 12 22  1  0
 22 23  1  0
 23 24  2  0
 24  2  1  0
 23  9  1  0
 21 16  1  0
M  END
>  <Binding energies>  (50) 
[-6.96]

>  <Ligand effiencies>  (50) 
[-0.2577777777777778]

>  <Interactions>  (50) 
["V-A:ILE:538:CG2:4861, V-A:PRO:540:CD:4885, V-A:PRO:540:N:4882, V-A:ILE:538:CB:4860, V-A:ILE:538:CA:4858, V-A:ASP:366:CG:3211, V-A:TYR:539:CD2:4872, V-A:TYR:539:CE2:4874, V-A:TYR:539:CZ:4875, V-A:PRO:540:CA:4881, H-A:GLU:543:OE2:4908, V-A:GLU:543:CD:4906, H-A:GLU:543:OE1:4907, V-A:ARG:545:CZ:4924, V-B:ARG:545:CZ:9898, V-A:ASN:362:CB:3174, H-B:GLY:454:N:9022, V-A:PRO:540:CB:4883, H-B:TYR:484:OH:9320, V-A:TYR:531:CE2:4791, V-B:HIS:456:CE1:9042, V-A:PRO:540:C:4879, V-B:ARG:545:CG:9894, V-B:ARG:545:CD:9895, V-A:LEU:363:CA:3183, V-A:ASN:362:C:3170, V-A:ALA:541:C:4886, V-A:ALA:541:CA:4888, H-A:ALA:541:O:4887, V-A:ASN:362:CA:3172"]

$$$$
4bh_Grossjean_2025
     RDKit          3D

 31 33  0  0  0  0  0  0  0  0999 V2000
  123.0560  124.6510   57.6100 C   0  0  0  0  0  0  0  0  0  0  0  0
  124.0010  123.5870   57.6210 O   0  0  0  0  0  0  0  0  0  0  0  0
  125.2920  123.8300   58.0530 C   0  0  0  0  0  0  0  0  0  0  0  0
  125.6080  124.4650   59.2640 C   0  0  0  0  0  0  0  0  0  0  0  0
  126.9350  124.6800   59.6360 C   0  0  0  0  0  0  0  0  0  0  0  0
  127.2590  125.3290   60.9760 C   0  0  0  0  0  0  0  0  0  0  0  0
  127.1090  126.7850   60.9710 N   0  0  0  0  0  0  0  0  0  0  0  0
  128.0710  127.6710   61.3050 C   0  0  0  0  0  0  0  0  0  0  0  0
  129.1860  127.3220   61.6960 O   0  0  0  0  0  0  0  0  0  0  0  0
  127.7000  129.0840   61.2210 C   0  0  0  0  0  0  0  0  0  0  0  0
  128.9500  130.3240   61.2190 S   0  0  0  0  0  0  0  0  0  0  0  0
  127.7490  131.5940   61.1510 C   0  0  0  0  0  0  0  0  0  0  0  0
  128.0980  132.8790   61.1190 N   0  0  0  0  0  0  0  0  0  0  0  0
  127.0810  133.7690   61.0650 C   0  0  0  0  0  0  0  0  0  0  0  0
  127.5000  135.2280   61.0310 C   0  0  0  0  0  0  0  0  0  0  0  0
  125.7360  133.4090   61.0400 C   0  0  0  0  0  0  0  0  0  0  0  0
  125.3620  132.0560   61.0750 C   0  0  0  0  0  0  0  0  0  0  0  0
  123.8700  131.7080   61.0420 C   0  0  0  0  0  0  0  0  0  0  0  0
  123.4980  130.9060   62.0430 F   0  0  0  0  0  0  0  0  0  0  0  0
  123.1450  132.8220   61.1340 F   0  0  0  0  0  0  0  0  0  0  0  0
  123.5780  131.0850   59.9010 F   0  0  0  0  0  0  0  0  0  0  0  0
  126.4110  131.0910   61.1350 C   0  0  0  0  0  0  0  0  0  0  0  0
  126.4160  129.6500   61.1900 C   0  0  0  0  0  0  0  0  0  0  0  0
  125.2670  128.9030   61.2020 N   0  0  0  0  0  0  0  0  0  0  0  0
  127.9630  124.2310   58.8050 C   0  0  0  0  0  0  0  0  0  0  0  0
  127.6780  123.6000   57.5840 C   0  0  0  0  0  0  0  0  0  0  0  0
  128.6450  123.1440   56.7060 O   0  0  0  0  0  0  0  0  0  0  0  0
  129.0010  123.9450   55.5840 C   0  0  0  0  0  0  0  0  0  0  0  0
  126.3370  123.4110   57.2170 C   0  0  0  0  0  0  0  0  0  0  0  0
  126.0440  122.7780   56.0320 O   0  0  0  0  0  0  0  0  0  0  0  0
  125.6130  123.6540   55.0000 C   0  0  0  0  0  0  0  0  0  0  0  0
  1  2  1  0
  2  3  1  0
  3  4  2  0
  4  5  1  0
  5  6  1  0
  6  7  1  0
  7  8  1  0
  8  9  2  0
  8 10  1  0
 10 11  1  0
 11 12  1  0
 12 13  2  0
 13 14  1  0
 14 15  1  0
 14 16  2  0
 16 17  1  0
 17 18  1  0
 18 19  1  0
 18 20  1  0
 18 21  1  0
 17 22  2  0
 22 23  1  0
 23 24  1  0
  5 25  2  0
 25 26  1  0
 26 27  1  0
 27 28  1  0
 26 29  2  0
 29 30  1  0
 30 31  1  0
 29  3  1  0
 23 10  2  0
 22 12  1  0
M  END
>  <Binding energies>  (51) 
[-6.19]

>  <Ligand effiencies>  (51) 
[-0.18205882352941177]

>  <Interactions>  (51) 
["V-B:ASP:366:CG:8185, V-B:PRO:540:CA:9855, H-B:ASP:366:OD2:8187, V-B:TYR:539:CE2:9848, V-B:PRO:540:N:9856, V-B:ILE:538:CB:9834, V-B:ILE:369:CD1:8211, V-A:TYR:539:CD2:4872, V-B:TYR:531:CE2:9765, V-B:PRO:540:CD:9859, V-B:PRO:540:CB:9857, V-B:ILE:369:CG2:8209, V-B:LEU:475:CD2:9231, V-A:TYR:539:CE2:4874, V-B:ILE:538:CG2:9835, V-B:TRP:381:CH2:8344, V-B:TYR:539:CZ:9849, V-B:TYR:539:CE1:9847, V-A:ALA:541:CB:4890, V-A:GLU:543:CD:4906, V-B:ILE:538:CA:9832, V-B:TYR:539:C:9839, V-B:LEU:363:CD1:8161, V-B:TYR:531:CZ:9766, V-B:GLU:543:CD:9880, V-B:ARG:545:CZ:9898, V-B:TYR:539:CD1:9845, V-B:ASP:366:CB:8184, V-B:ILE:369:CB:8208, V-B:ASP:366:CA:8182, V-B:ILE:369:CG1:8210, V-B:LEU:363:CA:8157, H-B:TYR:539:N:9842, V-B:LEU:363:CB:8159, V-B:GLY:453:CA:9016, H-B:ASP:366:OD1:8186, V-B:PRO:482:CB:9298, V-B:LEU:363:C:8155"]

$$$$
4bi_Grossjean_2025
     RDKit          3D

 23 25  0  0  0  0  0  0  0  0999 V2000
  131.9790  131.9440   55.4090 C   0  0  0  0  0  0  0  0  0  0  0  0
  131.4370  131.7500   56.8140 C   0  0  0  0  0  0  0  0  0  0  0  0
  132.2940  131.5320   57.8890 C   0  0  0  0  0  0  0  0  0  0  0  0
  131.7790  131.3580   59.1850 C   0  0  0  0  0  0  0  0  0  0  0  0
  132.7620  131.1290   60.3380 C   0  0  0  0  0  0  0  0  0  0  0  0
  132.7690  132.1260   61.2250 F   0  0  0  0  0  0  0  0  0  0  0  0
  132.4360  130.0150   60.9930 F   0  0  0  0  0  0  0  0  0  0  0  0
  134.0010  131.0120   59.8590 F   0  0  0  0  0  0  0  0  0  0  0  0
  130.3620  131.4130   59.3360 C   0  0  0  0  0  0  0  0  0  0  0  0
  129.4910  131.2800   60.4780 C   0  0  0  0  0  0  0  0  0  0  0  0
  129.9600  131.0440   61.7450 N   0  0  0  0  0  0  0  0  0  0  0  0
  128.1250  131.4200   60.1790 C   0  0  0  0  0  0  0  0  0  0  0  0
  126.9770  131.3300   61.0850 C   0  0  0  0  0  0  0  0  0  0  0  0
  125.8800  131.7890   60.7590 O   0  0  0  0  0  0  0  0  0  0  0  0
  127.2150  130.7050   62.2650 N   0  0  0  0  0  0  0  0  0  0  0  0
  126.3130  130.4710   63.2950 C   0  0  0  0  0  0  0  0  0  0  0  0
  126.6570  129.8140   64.4750 C   0  0  0  0  0  0  0  0  0  0  0  0
  125.5010  129.7860   65.2210 C   0  0  0  0  0  0  0  0  0  0  0  0
  124.5110  130.3960   64.5260 O   0  0  0  0  0  0  0  0  0  0  0  0
  125.0390  130.8260   63.3060 N   0  0  0  0  0  0  0  0  0  0  0  0
  127.8760  131.6980   58.4570 S   0  0  0  0  0  0  0  0  0  0  0  0
  129.5960  131.6440   58.1520 C   0  0  0  0  0  0  0  0  0  0  0  0
  130.0900  131.8100   56.9250 N   0  0  0  0  0  0  0  0  0  0  0  0
  1  2  1  0
  2  3  2  0
  3  4  1  0
  4  5  1  0
  5  6  1  0
  5  7  1  0
  5  8  1  0
  4  9  2  0
  9 10  1  0
 10 11  1  0
 10 12  2  0
 12 13  1  0
 13 14  2  0
 13 15  1  0
 15 16  1  0
 16 17  1  0
 17 18  2  0
 18 19  1  0
 19 20  1  0
 12 21  1  0
 21 22  1  0
 22 23  2  0
 23  2  1  0
 22  9  1  0
 20 16  2  0
M  END
>  <Binding energies>  (52) 
[-6.7]

>  <Ligand effiencies>  (52) 
[-0.2576923076923077]

>  <Interactions>  (52) 
["V-A:ILE:538:CG2:4861, V-A:PRO:540:CD:4885, V-A:PRO:540:N:4882, V-A:ILE:538:CB:4860, V-A:ILE:538:CA:4858, V-A:TYR:531:CZ:4792, V-A:ASP:366:CG:3211, V-A:TYR:539:CD2:4872, V-A:TYR:539:CE2:4874, V-A:TYR:539:CZ:4875, V-A:PRO:540:CA:4881, H-A:GLU:543:OE2:4908, V-A:ALA:541:CB:4890, V-A:GLU:543:CD:4906, H-A:GLU:543:OE1:4907, V-A:ARG:545:CZ:4924, V-B:ARG:545:CZ:9898, V-A:ASN:362:CB:3174, H-B:GLY:454:N:9022, V-A:PRO:540:CB:4883, V-A:TYR:539:C:4865, H-B:TYR:484:OH:9320, V-A:TYR:531:CE2:4791, V-B:HIS:456:CE1:9042, V-A:PRO:540:C:4879, V-A:LEU:363:CA:3183, V-A:ASN:362:C:3170, V-A:ALA:541:C:4886, V-A:ALA:541:CA:4888, H-A:ALA:541:O:4887, V-A:ASN:362:CA:3172"]

$$$$
4bj_Grossjean_2025
     RDKit          3D

 23 25  0  0  0  0  0  0  0  0999 V2000
  125.9590  116.4530   70.7520 C   0  0  0  0  0  0  0  0  0  0  0  0
  126.7480  117.3900   71.6480 C   0  0  0  0  0  0  0  0  0  0  0  0
  127.1000  117.0170   72.9420 C   0  0  0  0  0  0  0  0  0  0  0  0
  127.8250  117.8960   73.7620 C   0  0  0  0  0  0  0  0  0  0  0  0
  128.1870  117.4420   75.1810 C   0  0  0  0  0  0  0  0  0  0  0  0
  127.7640  116.2080   75.4580 F   0  0  0  0  0  0  0  0  0  0  0  0
  129.5110  117.4560   75.3350 F   0  0  0  0  0  0  0  0  0  0  0  0
  127.6320  118.2650   76.0720 F   0  0  0  0  0  0  0  0  0  0  0  0
  128.1780  119.1630   73.2100 C   0  0  0  0  0  0  0  0  0  0  0  0
  128.8960  120.2980   73.7360 C   0  0  0  0  0  0  0  0  0  0  0  0
  129.4060  120.3270   75.0090 N   0  0  0  0  0  0  0  0  0  0  0  0
  129.0310  121.3620   72.8300 C   0  0  0  0  0  0  0  0  0  0  0  0
  129.6860  122.6560   73.0330 C   0  0  0  0  0  0  0  0  0  0  0  0
  129.2070  123.6880   72.5560 O   0  0  0  0  0  0  0  0  0  0  0  0
  130.8180  122.6260   73.7780 N   0  0  0  0  0  0  0  0  0  0  0  0
  131.6170  123.7070   74.1250 C   0  0  0  0  0  0  0  0  0  0  0  0
  131.3640  124.9870   73.9550 N   0  0  0  0  0  0  0  0  0  0  0  0
  132.3450  125.7400   74.4100 C   0  0  0  0  0  0  0  0  0  0  0  0
  133.4300  125.0680   74.9660 C   0  0  0  0  0  0  0  0  0  0  0  0
  133.1390  123.3560   74.8800 S   0  0  0  0  0  0  0  0  0  0  0  0
  128.2480  120.9960   71.2940 S   0  0  0  0  0  0  0  0  0  0  0  0
  127.7590  119.4190   71.8680 C   0  0  0  0  0  0  0  0  0  0  0  0
  127.0680  118.5820   71.0940 N   0  0  0  0  0  0  0  0  0  0  0  0
  1  2  1  0
  2  3  2  0
  3  4  1  0
  4  5  1  0
  5  6  1  0
  5  7  1  0
  5  8  1  0
  4  9  2  0
  9 10  1  0
 10 11  1  0
 10 12  2  0
 12 13  1  0
 13 14  2  0
 13 15  1  0
 15 16  1  0
 16 17  2  0
 17 18  1  0
 18 19  2  0
 19 20  1  0
 12 21  1  0
 21 22  1  0
 22 23  2  0
 23  2  1  0
 22  9  1  0
 20 16  1  0
M  END
>  <Binding energies>  (53) 
[-6.44]

>  <Ligand effiencies>  (53) 
[-0.2476923076923077]

>  <Interactions>  (53) 
["V-B:LYS:547:CE:9922, V-A:HIS:456:CD2:4066, V-B:GLU:543:C:9874, V-A:HIS:456:CG:4064, H-B:LYS:547:NZ:9923, V-B:GLY:544:CA:9886, V-A:TYR:484:CD1:4341, V-A:TYR:484:CG:4340, V-B:GLU:543:CA:9876, V-A:TYR:484:CB:4339, V-A:ASP:473:CG:4238, V-A:HIS:456:C:4059, V-A:LYS:471:CD:4217, V-A:HIS:456:CB:4063, V-A:VAL:458:CG2:4085, V-A:LYS:471:CE:4218, V-B:VAL:542:CG1:9871, H-A:ASP:473:OD2:4240, V-A:SER:483:CB:4331, H-A:TYR:484:N:4338"]

$$$$
4bk_Grossjean_2025
     RDKit          3D

 28 29  0  0  0  0  0  0  0  0999 V2000
  129.3830  124.9440   72.2570 C   0  0  0  0  0  0  0  0  0  0  0  0
  130.4970  125.1760   73.1040 O   0  0  0  0  0  0  0  0  0  0  0  0
  130.8730  126.5450   73.1820 C   0  0  0  0  0  0  0  0  0  0  0  0
  129.8700  127.3970   72.3940 C   0  0  0  0  0  0  0  0  0  0  0  0
  128.9870  128.0460   73.2990 O   0  0  0  0  0  0  0  0  0  0  0  0
  127.6130  127.8900   72.9720 C   0  0  0  0  0  0  0  0  0  0  0  0
  126.7610  128.1130   74.2290 C   0  0  0  0  0  0  0  0  0  0  0  0
  127.4850  128.9140   75.1510 O   0  0  0  0  0  0  0  0  0  0  0  0
  126.6770  129.8400   75.8670 C   0  0  0  0  0  0  0  0  0  0  0  0
  126.0440  130.8350   74.8790 C   0  0  0  0  0  0  0  0  0  0  0  0
  126.9580  131.8910   74.4420 N   0  0  0  0  0  0  0  0  0  0  0  0
  128.0940  131.6980   73.7400 C   0  0  0  0  0  0  0  0  0  0  0  0
  128.4630  130.5800   73.3760 O   0  0  0  0  0  0  0  0  0  0  0  0
  128.8670  132.9000   73.4220 C   0  0  0  0  0  0  0  0  0  0  0  0
  129.3760  133.2100   71.7640 S   0  0  0  0  0  0  0  0  0  0  0  0
  130.1370  134.7110   72.2320 C   0  0  0  0  0  0  0  0  0  0  0  0
  130.7580  135.4830   71.3420 N   0  0  0  0  0  0  0  0  0  0  0  0
  131.3080  136.6230   71.8230 C   0  0  0  0  0  0  0  0  0  0  0  0
  132.0080  137.4880   70.7910 C   0  0  0  0  0  0  0  0  0  0  0  0
  131.2520  137.0030   73.1610 C   0  0  0  0  0  0  0  0  0  0  0  0
  130.6010  136.1940   74.1050 C   0  0  0  0  0  0  0  0  0  0  0  0
  130.5690  136.6530   75.5660 C   0  0  0  0  0  0  0  0  0  0  0  0
  129.3300  136.7800   76.0470 F   0  0  0  0  0  0  0  0  0  0  0  0
  131.2060  135.7670   76.3310 F   0  0  0  0  0  0  0  0  0  0  0  0
  131.1640  137.8400   75.6800 F   0  0  0  0  0  0  0  0  0  0  0  0
  130.0090  134.9860   73.6300 C   0  0  0  0  0  0  0  0  0  0  0  0
  129.2730  133.9310   74.2820 C   0  0  0  0  0  0  0  0  0  0  0  0
  128.9980  133.9390   75.6250 N   0  0  0  0  0  0  0  0  0  0  0  0
  1  2  1  0
  2  3  1  0
  3  4  1  0
  4  5  1  0
  5  6  1  0
  6  7  1  0
  7  8  1  0
  8  9  1  0
  9 10  1  0
 10 11  1  0
 11 12  1  0
 12 13  2  0
 12 14  1  0
 14 15  1  0
 15 16  1  0
 16 17  2  0
 17 18  1  0
 18 19  1  0
 18 20  2  0
 20 21  1  0
 21 22  1  0
 22 23  1  0
 22 24  1  0
 22 25  1  0
 21 26  2  0
 26 27  1  0
 27 28  1  0
 27 14  2  0
 26 16  1  0
M  END
>  <Binding energies>  (54) 
[-6.35]

>  <Ligand effiencies>  (54) 
[-0.20483870967741935]

>  <Interactions>  (54) 
["V-B:TYR:484:CG:9314, V-B:GLY:544:C:9884, V-A:LYS:547:CE:4948, V-B:HIS:456:CG:9038, V-B:TYR:484:CB:9313, V-A:GLY:544:C:4910, V-A:GLU:543:C:4900, V-B:LYS:547:CE:9922, V-A:HIS:456:CD2:4066, V-B:HIS:456:CD2:9040, V-B:GLU:543:C:9874, H-B:LYS:547:NZ:9923, H-A:LYS:547:NZ:4949, V-A:GLY:544:CA:4912, V-B:GLY:544:CA:9886, V-B:LYS:547:CD:9921, V-B:VAL:458:CG2:9059, V-B:HIS:456:CB:9037, V-B:LYS:471:CE:9192, V-B:ASP:473:CG:9212, V-A:VAL:542:CG1:4897, H-B:ASP:473:OD1:9213, H-B:ASP:473:OD2:9214, V-B:TYR:484:CD1:9315, V-B:SER:483:CB:9305, H-B:TYR:484:N:9312, V-B:SER:483:CA:9303"]

$$$$
4cd_Grossjean_2025
     RDKit          3D

 29 32  0  0  0  0  0  0  0  0999 V2000
  129.4680  120.4840   75.2260 N   0  0  0  0  0  0  0  0  0  0  0  0
  128.7870  120.5440   74.0370 C   0  0  0  0  0  0  0  0  0  0  0  0
  128.9250  121.6000   73.1220 C   0  0  0  0  0  0  0  0  0  0  0  0
  129.7560  122.8030   73.2350 C   0  0  0  0  0  0  0  0  0  0  0  0
  129.4040  123.8610   72.7130 O   0  0  0  0  0  0  0  0  0  0  0  0
  130.9000  122.6540   73.9470 N   0  0  0  0  0  0  0  0  0  0  0  0
  131.9280  123.5820   74.1980 C   0  0  0  0  0  0  0  0  0  0  0  0
  131.6960  124.8860   73.7530 C   0  0  0  0  0  0  0  0  0  0  0  0
  132.6470  125.8800   73.9660 C   0  0  0  0  0  0  0  0  0  0  0  0
  133.8310  125.5710   74.6310 C   0  0  0  0  0  0  0  0  0  0  0  0
  134.0690  124.2790   75.0910 C   0  0  0  0  0  0  0  0  0  0  0  0
  133.1190  123.2820   74.8800 C   0  0  0  0  0  0  0  0  0  0  0  0
  127.9140  121.3480   71.7010 S   0  0  0  0  0  0  0  0  0  0  0  0
  127.3090  119.8400   72.3430 C   0  0  0  0  0  0  0  0  0  0  0  0
  126.4240  119.1050   71.6740 N   0  0  0  0  0  0  0  0  0  0  0  0
  126.0010  117.9550   72.2600 C   0  0  0  0  0  0  0  0  0  0  0  0
  125.0020  117.1490   71.4830 C   0  0  0  0  0  0  0  0  0  0  0  0
  125.4090  116.0430   70.7180 C   0  0  0  0  0  0  0  0  0  0  0  0
  124.4860  115.2910   69.9950 C   0  0  0  0  0  0  0  0  0  0  0  0
  123.1390  115.6350   70.0280 C   0  0  0  0  0  0  0  0  0  0  0  0
  122.7090  116.7220   70.7800 C   0  0  0  0  0  0  0  0  0  0  0  0
  123.6330  117.4700   71.5030 C   0  0  0  0  0  0  0  0  0  0  0  0
  126.4840  117.5390   73.5050 C   0  0  0  0  0  0  0  0  0  0  0  0
  127.4210  118.3050   74.2170 C   0  0  0  0  0  0  0  0  0  0  0  0
  127.9050  117.7920   75.5790 C   0  0  0  0  0  0  0  0  0  0  0  0
  127.7000  118.6630   76.5700 F   0  0  0  0  0  0  0  0  0  0  0  0
  127.2580  116.6690   75.8940 F   0  0  0  0  0  0  0  0  0  0  0  0
  129.2140  117.5460   75.5280 F   0  0  0  0  0  0  0  0  0  0  0  0
  127.8610  119.5190   73.6180 C   0  0  0  0  0  0  0  0  0  0  0  0
  1  2  1  0
  2  3  2  0
  3  4  1  0
  4  5  2  0
  4  6  1  0
  6  7  1  0
  7  8  2  0
  8  9  1  0
  9 10  2  0
 10 11  1  0
 11 12  2  0
  3 13  1  0
 13 14  1  0
 14 15  2  0
 15 16  1  0
 16 17  1  0
 17 18  2  0
 18 19  1  0
 19 20  2  0
 20 21  1  0
 21 22  2  0
 16 23  2  0
 23 24  1  0
 24 25  1  0
 25 26  1  0
 25 27  1  0
 25 28  1  0
 24 29  2  0
 29  2  1  0
 12  7  1  0
 29 14  1  0
 22 17  1  0
M  END
>  <Binding energies>  (55) 
[-6.74]

>  <Ligand effiencies>  (55) 
[-0.210625]

>  <Interactions>  (55) 
["V-B:LYS:547:CE:9922, V-A:HIS:456:CD2:4066, V-B:GLU:543:C:9874, V-A:HIS:456:CG:4064, H-B:LYS:547:NZ:9923, V-B:GLY:544:CA:9886, V-B:GLU:543:CA:9876, V-A:TYR:484:CB:4339, V-A:ASP:473:CG:4238, V-A:HIS:456:C:4059, V-A:LYS:471:CD:4217, V-A:HIS:456:CB:4063, V-A:VAL:458:CG2:4085, V-A:LYS:471:CE:4218, V-B:ARG:356:CD:8091, V-A:VAL:457:C:4071, V-B:VAL:542:CG1:9871, V-A:HIS:456:CA:4061, H-A:ASP:473:OD2:4240, H-A:ASP:473:OD1:4239, V-A:SER:483:CB:4331"]

$$$$
4cg_Grossjean_2025
     RDKit          3D

 30 33  0  0  0  0  0  0  0  0999 V2000
  125.8400  132.6000   63.7710 N   0  0  0  0  0  0  0  0  0  0  0  0
  126.5660  131.6540   63.0930 C   0  0  0  0  0  0  0  0  0  0  0  0
  126.7390  130.3420   63.5570 C   0  0  0  0  0  0  0  0  0  0  0  0
  126.1820  129.7170   64.7560 C   0  0  0  0  0  0  0  0  0  0  0  0
  125.0320  129.9580   65.1310 O   0  0  0  0  0  0  0  0  0  0  0  0
  127.0130  128.9020   65.4380 N   0  0  0  0  0  0  0  0  0  0  0  0
  126.6650  128.1570   66.6470 C   0  0  0  0  0  0  0  0  0  0  0  0
  127.8650  127.8480   67.5350 C   0  0  0  0  0  0  0  0  0  0  0  0
  127.6810  127.6530   68.9070 C   0  0  0  0  0  0  0  0  0  0  0  0
  128.7700  127.3400   69.7170 C   0  0  0  0  0  0  0  0  0  0  0  0
  130.0370  127.2140   69.1510 C   0  0  0  0  0  0  0  0  0  0  0  0
  130.2240  127.3910   67.7820 C   0  0  0  0  0  0  0  0  0  0  0  0
  129.1350  127.7020   66.9710 C   0  0  0  0  0  0  0  0  0  0  0  0
  127.7050  129.3870   62.4350 S   0  0  0  0  0  0  0  0  0  0  0  0
  127.8900  130.7570   61.3650 C   0  0  0  0  0  0  0  0  0  0  0  0
  128.5860  130.6660   60.2350 N   0  0  0  0  0  0  0  0  0  0  0  0
  128.6720  131.7810   59.4640 C   0  0  0  0  0  0  0  0  0  0  0  0
  129.4660  131.6450   58.1960 C   0  0  0  0  0  0  0  0  0  0  0  0
  130.7920  131.1830   58.2210 C   0  0  0  0  0  0  0  0  0  0  0  0
  131.5320  131.0570   57.0490 C   0  0  0  0  0  0  0  0  0  0  0  0
  130.9550  131.3940   55.8290 C   0  0  0  0  0  0  0  0  0  0  0  0
  129.6450  131.8570   55.7750 C   0  0  0  0  0  0  0  0  0  0  0  0
  128.9090  131.9820   56.9490 C   0  0  0  0  0  0  0  0  0  0  0  0
  128.0730  132.9880   59.8430 C   0  0  0  0  0  0  0  0  0  0  0  0
  127.3380  133.0960   61.0340 C   0  0  0  0  0  0  0  0  0  0  0  0
  126.7090  134.4480   61.3890 C   0  0  0  0  0  0  0  0  0  0  0  0
  127.0280  135.4160   60.5280 F   0  0  0  0  0  0  0  0  0  0  0  0
  125.3800  134.3400   61.3940 F   0  0  0  0  0  0  0  0  0  0  0  0
  127.1230  134.8350   62.5940 F   0  0  0  0  0  0  0  0  0  0  0  0
  127.2290  131.9270   61.8420 C   0  0  0  0  0  0  0  0  0  0  0  0
  1  2  1  0
  2  3  2  0
  3  4  1  0
  4  5  2  0
  4  6  1  0
  6  7  1  0
  7  8  1  0
  8  9  2  0
  9 10  1  0
 10 11  2  0
 11 12  1  0
 12 13  2  0
  3 14  1  0
 14 15  1  0
 15 16  2  0
 16 17  1  0
 17 18  1  0
 18 19  2  0
 19 20  1  0
 20 21  2  0
 21 22  1  0
 22 23  2  0
 17 24  2  0
 24 25  1  0
 25 26  1  0
 26 27  1  0
 26 28  1  0
 26 29  1  0
 25 30  2  0
 30  2  1  0
 13  8  1  0
 30 15  1  0
 23 18  1  0
M  END
>  <Binding energies>  (56) 
[-8.11]

>  <Ligand effiencies>  (56) 
[-0.24575757575757573]

>  <Interactions>  (56) 
["V-A:TYR:539:CD2:4872, V-B:LEU:475:CD2:9231, V-A:TYR:539:CE2:4874, V-A:TYR:539:CZ:4875, V-B:TRP:381:CH2:8344, H-B:GLU:543:OE2:9882, V-A:PRO:540:CA:4881, H-A:GLU:543:OE2:4908, V-B:TRP:381:CZ2:8342, V-A:ALA:541:CB:4890, V-A:GLU:543:CD:4906, V-A:HIS:456:CE1:4068, H-A:GLU:543:OE1:4907, V-B:GLU:543:CD:9880, V-B:GLU:543:CG:9879, H-B:ARG:545:NE:9896, V-A:GLU:543:CG:4905, V-A:TYR:539:C:4865, V-A:TYR:539:CG:4870, V-A:TYR:539:CE1:4873, H-B:TYR:484:OH:9320, V-A:GLU:543:CB:4904, V-A:TYR:539:CD1:4871, V-B:HIS:456:CE1:9042, V-B:ARG:545:CG:9894, V-B:ARG:545:CD:9895, V-B:TYR:484:CZ:9319, V-B:PRO:482:CB:9298, V-B:TRP:381:CZ3:8343, V-B:LEU:475:CD1:9230, V-B:LEU:475:CG:9229"]

$$$$
4ch_Grossjean_2025
     RDKit          3D

 36 39  0  0  0  0  0  0  0  0999 V2000
  131.6220  126.6100   66.2640 C   0  0  0  0  0  0  0  0  0  0  0  0
  131.3610  127.3500   67.4530 O   0  0  0  0  0  0  0  0  0  0  0  0
  130.0580  127.4840   67.8960 C   0  0  0  0  0  0  0  0  0  0  0  0
  128.9600  127.7020   67.0480 C   0  0  0  0  0  0  0  0  0  0  0  0
  127.6700  127.8260   67.5650 C   0  0  0  0  0  0  0  0  0  0  0  0
  126.4940  128.0900   66.6320 C   0  0  0  0  0  0  0  0  0  0  0  0
  126.8450  128.8300   65.4190 N   0  0  0  0  0  0  0  0  0  0  0  0
  126.0660  129.7460   64.8060 C   0  0  0  0  0  0  0  0  0  0  0  0
  124.9600  130.0740   65.2420 O   0  0  0  0  0  0  0  0  0  0  0  0
  126.6250  130.3620   63.6030 C   0  0  0  0  0  0  0  0  0  0  0  0
  127.6240  129.4120   62.5070 S   0  0  0  0  0  0  0  0  0  0  0  0
  127.8230  130.7770   61.4350 C   0  0  0  0  0  0  0  0  0  0  0  0
  128.5490  130.6870   60.3240 N   0  0  0  0  0  0  0  0  0  0  0  0
  128.6430  131.8000   59.5500 C   0  0  0  0  0  0  0  0  0  0  0  0
  129.4740  131.6670   58.3060 C   0  0  0  0  0  0  0  0  0  0  0  0
  128.9440  131.9980   57.0480 C   0  0  0  0  0  0  0  0  0  0  0  0
  129.7100  131.8760   55.8910 C   0  0  0  0  0  0  0  0  0  0  0  0
  131.0200  131.4200   55.9760 C   0  0  0  0  0  0  0  0  0  0  0  0
  131.5690  131.0810   57.2080 C   0  0  0  0  0  0  0  0  0  0  0  0
  130.7990  131.2030   58.3620 C   0  0  0  0  0  0  0  0  0  0  0  0
  128.0200  133.0010   59.9040 C   0  0  0  0  0  0  0  0  0  0  0  0
  127.2530  133.1080   61.0750 C   0  0  0  0  0  0  0  0  0  0  0  0
  126.5980  134.4530   61.4050 C   0  0  0  0  0  0  0  0  0  0  0  0
  127.1090  135.0320   62.4940 F   0  0  0  0  0  0  0  0  0  0  0  0
  126.7660  135.2980   60.3880 F   0  0  0  0  0  0  0  0  0  0  0  0
  125.2940  134.2800   61.6200 F   0  0  0  0  0  0  0  0  0  0  0  0
  127.1380  131.9430   61.8880 C   0  0  0  0  0  0  0  0  0  0  0  0
  126.4510  131.6710   63.1270 C   0  0  0  0  0  0  0  0  0  0  0  0
  125.7020  132.6140   63.7840 N   0  0  0  0  0  0  0  0  0  0  0  0
  127.4710  127.7510   68.9440 C   0  0  0  0  0  0  0  0  0  0  0  0
  128.5510  127.5350   69.8160 C   0  0  0  0  0  0  0  0  0  0  0  0
  128.4270  127.4480   71.1910 O   0  0  0  0  0  0  0  0  0  0  0  0
  127.4750  128.2680   71.8600 C   0  0  0  0  0  0  0  0  0  0  0  0
  129.8390  127.3970   69.2780 C   0  0  0  0  0  0  0  0  0  0  0  0
  130.9060  127.2010   70.1200 O   0  0  0  0  0  0  0  0  0  0  0  0
  130.6230  126.3530   71.2250 C   0  0  0  0  0  0  0  0  0  0  0  0
  1  2  1  0
  2  3  1  0
  3  4  2  0
  4  5  1  0
  5  6  1  0
  6  7  1  0
  7  8  1  0
  8  9  2  0
  8 10  1  0
 10 11  1  0
 11 12  1  0
 12 13  2  0
 13 14  1  0
 14 15  1  0
 15 16  2  0
 16 17  1  0
 17 18  2  0
 18 19  1  0
 19 20  2  0
 14 21  2  0
 21 22  1  0
 22 23  1  0
 23 24  1  0
 23 25  1  0
 23 26  1  0
 22 27  2  0
 27 28  1  0
 28 29  1  0
  5 30  2  0
 30 31  1  0
 31 32  1  0
 32 33  1  0
 31 34  2  0
 34 35  1  0
 35 36  1  0
 34  3  1  0
 28 10  2  0
 27 12  1  0
 20 15  1  0
M  END
>  <Binding energies>  (57) 
[-7.27]

>  <Ligand effiencies>  (57) 
[-0.1864102564102564]

>  <Interactions>  (57) 
["V-A:PRO:540:N:4882, V-A:TYR:539:CD2:4872, V-B:LEU:475:CD2:9231, V-A:TYR:539:CE2:4874, V-A:TYR:539:CZ:4875, V-B:TRP:381:CH2:8344, H-B:GLU:543:OE2:9882, V-A:PRO:540:CA:4881, H-A:GLU:543:OE2:4908, V-B:TRP:381:CZ2:8342, V-A:ALA:541:CB:4890, V-A:GLU:543:CD:4906, V-A:HIS:456:CE1:4068, H-A:GLU:543:OE1:4907, V-B:GLU:543:CD:9880, V-B:ARG:545:CZ:9898, V-B:GLU:543:CG:9879, H-B:ARG:545:NE:9896, V-A:GLU:543:CG:4905, H-B:GLY:454:N:9022, V-A:TYR:539:C:4865, V-A:TYR:539:CG:4870, H-B:TYR:484:OH:9320, V-A:GLU:543:CB:4904, V-A:TYR:539:CD1:4871, V-B:HIS:456:CE1:9042, V-B:GLY:544:C:9884, V-B:HIS:456:CG:9038, V-A:GLY:544:C:4910, V-A:GLU:543:C:4900, V-A:HIS:456:CD2:4066, V-B:HIS:456:CD2:9040, V-A:HIS:456:CG:4064, V-B:ARG:545:CG:9894, V-B:ARG:545:CD:9895, V-A:ARG:545:CD:4921, V-A:ARG:545:CG:4920, V-B:TYR:484:CZ:9319, H-A:HIS:456:ND1:4065, V-B:GLY:454:CA:9021, V-B:PRO:482:CB:9298, H-A:ARG:545:N:4918, V-B:TRP:381:CZ3:8343, V-B:LEU:475:CD1:9230, V-B:LEU:475:CG:9229"]

$$$$
4cj_Grossjean_2025
     RDKit          3D

 28 31  0  0  0  0  0  0  0  0999 V2000
  126.1460  132.6330   63.8790 N   0  0  0  0  0  0  0  0  0  0  0  0
  126.6680  131.6580   63.0670 C   0  0  0  0  0  0  0  0  0  0  0  0
  126.8340  130.3250   63.4760 C   0  0  0  0  0  0  0  0  0  0  0  0
  126.5030  129.7180   64.7670 C   0  0  0  0  0  0  0  0  0  0  0  0
  125.3830  129.8610   65.2630 O   0  0  0  0  0  0  0  0  0  0  0  0
  127.5040  129.0170   65.3550 N   0  0  0  0  0  0  0  0  0  0  0  0
  127.4520  128.3480   66.5710 C   0  0  0  0  0  0  0  0  0  0  0  0
  126.4220  127.7290   67.1070 N   0  0  0  0  0  0  0  0  0  0  0  0
  126.7310  127.1990   68.2750 C   0  0  0  0  0  0  0  0  0  0  0  0
  128.0400  127.3840   68.7080 C   0  0  0  0  0  0  0  0  0  0  0  0
  128.9070  128.3040   67.5140 S   0  0  0  0  0  0  0  0  0  0  0  0
  127.5170  129.3430   62.1820 S   0  0  0  0  0  0  0  0  0  0  0  0
  127.5770  130.7210   61.1080 C   0  0  0  0  0  0  0  0  0  0  0  0
  128.0350  130.6110   59.8640 N   0  0  0  0  0  0  0  0  0  0  0  0
  128.0360  131.7340   59.1000 C   0  0  0  0  0  0  0  0  0  0  0  0
  128.5470  131.5720   57.6970 C   0  0  0  0  0  0  0  0  0  0  0  0
  129.8340  132.0120   57.3460 C   0  0  0  0  0  0  0  0  0  0  0  0
  130.3120  131.8710   56.0460 C   0  0  0  0  0  0  0  0  0  0  0  0
  129.5050  131.2880   55.0730 C   0  0  0  0  0  0  0  0  0  0  0  0
  128.2270  130.8460   55.3940 C   0  0  0  0  0  0  0  0  0  0  0  0
  127.7540  130.9880   56.6950 C   0  0  0  0  0  0  0  0  0  0  0  0
  127.6010  132.9660   59.5980 C   0  0  0  0  0  0  0  0  0  0  0  0
  127.1170  133.0940   60.9100 C   0  0  0  0  0  0  0  0  0  0  0  0
  126.6520  134.4730   61.3900 C   0  0  0  0  0  0  0  0  0  0  0  0
  127.0490  135.4670   60.5930 F   0  0  0  0  0  0  0  0  0  0  0  0
  125.3210  134.5070   61.4380 F   0  0  0  0  0  0  0  0  0  0  0  0
  127.1420  134.7170   62.6060 F   0  0  0  0  0  0  0  0  0  0  0  0
  127.0940  131.9180   61.7130 C   0  0  0  0  0  0  0  0  0  0  0  0
  1  2  1  0
  2  3  2  0
  3  4  1  0
  4  5  2  0
  4  6  1  0
  6  7  1  0
  7  8  2  0
  8  9  1  0
  9 10  2  0
 10 11  1  0
  3 12  1  0
 12 13  1  0
 13 14  2  0
 14 15  1  0
 15 16  1  0
 16 17  2  0
 17 18  1  0
 18 19  2  0
 19 20  1  0
 20 21  2  0
 15 22  2  0
 22 23  1  0
 23 24  1  0
 24 25  1  0
 24 26  1  0
 24 27  1  0
 23 28  2  0
 28  2  1  0
 11  7  1  0
 28 13  1  0
 21 16  1  0
M  END
>  <Binding energies>  (58) 
[-6.62]

>  <Ligand effiencies>  (58) 
[-0.2135483870967742]

>  <Interactions>  (58) 
["V-A:PRO:540:N:4882, V-A:TYR:539:CD2:4872, V-B:LEU:475:CD2:9231, V-A:TYR:539:CE2:4874, V-A:TYR:539:CZ:4875, V-B:TRP:381:CH2:8344, H-B:GLU:543:OE2:9882, V-A:PRO:540:CA:4881, H-A:GLU:543:OE2:4908, V-B:TRP:381:CZ2:8342, V-A:ALA:541:CB:4890, V-A:GLU:543:CD:4906, H-A:GLU:543:OE1:4907, V-B:GLU:543:CD:9880, V-B:GLU:543:CG:9879, H-B:ARG:545:NE:9896, V-A:GLU:543:CG:4905, V-A:TYR:539:C:4865, V-A:TYR:539:CE1:4873, H-B:TYR:484:OH:9320, V-A:GLU:543:CB:4904, V-B:HIS:456:CE1:9042, V-B:GLY:544:C:9884, V-A:GLU:543:C:4900, V-B:GLU:543:C:9874, V-B:ARG:545:CG:9894, V-B:TYR:484:CZ:9319, V-B:PRO:482:CB:9298, V-B:TYR:484:CE1:9317, V-B:TRP:381:CZ3:8343, V-B:LEU:475:CD1:9230, V-B:LEU:475:CG:9229, V-B:ARG:545:CA:9891"]

$$$$
4ck_Grossjean_2025
     RDKit          3D

 33 35  0  0  0  0  0  0  0  0999 V2000
  126.8690  128.5520   73.3470 C   0  0  0  0  0  0  0  0  0  0  0  0
  128.2360  128.9240   73.2580 O   0  0  0  0  0  0  0  0  0  0  0  0
  128.7770  128.7790   71.9530 C   0  0  0  0  0  0  0  0  0  0  0  0
  128.3660  127.4120   71.3890 C   0  0  0  0  0  0  0  0  0  0  0  0
  127.8620  127.5860   70.0720 O   0  0  0  0  0  0  0  0  0  0  0  0
  128.8760  127.6130   69.0760 C   0  0  0  0  0  0  0  0  0  0  0  0
  128.3230  127.0090   67.7790 C   0  0  0  0  0  0  0  0  0  0  0  0
  129.4050  126.4880   67.0190 O   0  0  0  0  0  0  0  0  0  0  0  0
  130.5910  127.2670   67.1000 C   0  0  0  0  0  0  0  0  0  0  0  0
  131.7100  126.5870   66.2960 C   0  0  0  0  0  0  0  0  0  0  0  0
  131.1970  125.9050   65.1070 N   0  0  0  0  0  0  0  0  0  0  0  0
  131.9160  125.1320   64.2680 C   0  0  0  0  0  0  0  0  0  0  0  0
  133.1120  124.8940   64.4430 O   0  0  0  0  0  0  0  0  0  0  0  0
  131.1860  124.5740   63.1290 C   0  0  0  0  0  0  0  0  0  0  0  0
  130.1260  125.6030   62.1690 S   0  0  0  0  0  0  0  0  0  0  0  0
  129.7470  124.2800   61.0910 C   0  0  0  0  0  0  0  0  0  0  0  0
  128.9210  124.4380   60.0610 N   0  0  0  0  0  0  0  0  0  0  0  0
  128.6860  123.3510   59.2790 C   0  0  0  0  0  0  0  0  0  0  0  0
  127.7640  123.5680   58.1140 C   0  0  0  0  0  0  0  0  0  0  0  0
  126.4360  123.9810   58.3140 C   0  0  0  0  0  0  0  0  0  0  0  0
  125.5750  124.1810   57.2380 C   0  0  0  0  0  0  0  0  0  0  0  0
  126.0310  123.9700   55.9410 C   0  0  0  0  0  0  0  0  0  0  0  0
  127.3420  123.5660   55.7140 C   0  0  0  0  0  0  0  0  0  0  0  0
  128.2000  123.3680   56.7920 C   0  0  0  0  0  0  0  0  0  0  0  0
  129.2890  122.1150   59.5310 C   0  0  0  0  0  0  0  0  0  0  0  0
  130.1620  121.9370   60.6160 C   0  0  0  0  0  0  0  0  0  0  0  0
  130.7850  120.5530   60.8360 C   0  0  0  0  0  0  0  0  0  0  0  0
  130.4230  119.6620   59.9120 F   0  0  0  0  0  0  0  0  0  0  0  0
  132.1140  120.6470   60.8020 F   0  0  0  0  0  0  0  0  0  0  0  0
  130.4090  120.0740   62.0220 F   0  0  0  0  0  0  0  0  0  0  0  0
  130.4130  123.0690   61.4440 C   0  0  0  0  0  0  0  0  0  0  0  0
  131.2370  123.2700   62.6110 C   0  0  0  0  0  0  0  0  0  0  0  0
  131.9970  122.2730   63.1660 N   0  0  0  0  0  0  0  0  0  0  0  0
  1  2  1  0
  2  3  1  0
  3  4  1  0
  4  5  1  0
  5  6  1  0
  6  7  1  0
  7  8  1  0
  8  9  1  0
  9 10  1  0
 10 11  1  0
 11 12  1  0
 12 13  2  0
 12 14  1  0
 14 15  1  0
 15 16  1  0
 16 17  2  0
 17 18  1  0
 18 19  1  0
 19 20  2  0
 20 21  1  0
 21 22  2  0
 22 23  1  0
 23 24  2  0
 18 25  2  0
 25 26  1  0
 26 27  1  0
 27 28  1  0
 27 29  1  0
 27 30  1  0
 26 31  2  0
 31 32  1  0
 32 33  1  0
 32 14  2  0
 31 16  1  0
 24 19  1  0
M  END
>  <Binding energies>  (59) 
[-7.25]

>  <Ligand effiencies>  (59) 
[-0.2013888888888889]

>  <Interactions>  (59) 
["V-B:TYR:539:CD2:9846, V-B:PRO:540:CA:9855, V-A:LEU:475:CD2:4257, V-A:TRP:381:CZ2:3368, V-B:ALA:541:CB:9864, V-A:TRP:381:CH2:3370, V-B:TYR:539:CE2:9848, V-B:PRO:540:N:9856, H-B:GLU:543:OE2:9882, H-B:GLU:543:OE1:9881, H-A:GLU:543:OE2:4908, V-A:GLU:543:CD:4906, V-A:HIS:456:CE1:4068, V-B:TYR:539:CG:9844, H-A:ARG:545:NE:4922, H-A:TYR:484:OH:4346, V-B:TYR:539:C:9839, H-A:GLY:454:N:4048, V-B:GLU:543:CD:9880, V-A:ARG:545:CZ:4924, V-B:GLU:543:CB:9878, V-B:GLU:543:CG:9879, V-A:GLU:543:CG:4905, V-B:HIS:456:CE1:9042, V-B:GLY:544:C:9884, V-A:LYS:547:CE:4948, V-B:HIS:456:CG:9038, V-B:HIS:456:CD2:9040, V-B:GLU:543:C:9874, H-A:LYS:547:NZ:4949, V-A:GLY:544:CA:4912, V-A:ARG:545:CD:4921, V-A:ARG:545:CG:4920, V-A:GLY:454:CA:4047, V-B:HIS:456:CB:9037, V-A:PRO:482:CB:4324, V-A:LEU:475:CG:4255, V-A:LEU:475:CD1:4256, V-B:TYR:539:CB:9843, V-A:TRP:381:CZ3:3369"]

$$$$
4dd_Grossjean_2025
     RDKit          3D

 26 29  0  0  0  0  0  0  0  0999 V2000
  130.8300  136.7820   75.8220 C   0  0  0  0  0  0  0  0  0  0  0  0
  131.1810  136.3120   74.4190 C   0  0  0  0  0  0  0  0  0  0  0  0
  132.0710  137.0870   73.6650 C   0  0  0  0  0  0  0  0  0  0  0  0
  132.4340  136.7080   72.3670 C   0  0  0  0  0  0  0  0  0  0  0  0
  133.3800  137.5220   71.5350 C   0  0  0  0  0  0  0  0  0  0  0  0
  132.9170  138.6020   70.7670 C   0  0  0  0  0  0  0  0  0  0  0  0
  133.7900  139.3640   69.9950 C   0  0  0  0  0  0  0  0  0  0  0  0
  135.1450  139.0530   69.9780 C   0  0  0  0  0  0  0  0  0  0  0  0
  135.6320  137.9890   70.7300 C   0  0  0  0  0  0  0  0  0  0  0  0
  134.7550  137.2320   71.5030 C   0  0  0  0  0  0  0  0  0  0  0  0
  131.9340  135.5860   71.7790 N   0  0  0  0  0  0  0  0  0  0  0  0
  131.0920  134.8440   72.4980 C   0  0  0  0  0  0  0  0  0  0  0  0
  130.3900  133.3690   71.8730 S   0  0  0  0  0  0  0  0  0  0  0  0
  129.5040  133.0980   73.3750 C   0  0  0  0  0  0  0  0  0  0  0  0
  128.6550  131.9160   73.5320 C   0  0  0  0  0  0  0  0  0  0  0  0
  128.9470  130.8550   72.9790 O   0  0  0  0  0  0  0  0  0  0  0  0
  127.5630  132.0860   74.3170 N   0  0  0  0  0  0  0  0  0  0  0  0
  126.5310  131.1810   74.6250 C   0  0  0  0  0  0  0  0  0  0  0  0
  126.7180  129.8670   74.1850 C   0  0  0  0  0  0  0  0  0  0  0  0
  125.7600  128.8930   74.4530 C   0  0  0  0  0  0  0  0  0  0  0  0
  124.6150  129.2310   75.1690 C   0  0  0  0  0  0  0  0  0  0  0  0
  124.4210  130.5320   75.6240 C   0  0  0  0  0  0  0  0  0  0  0  0
  125.3780  131.5090   75.3580 C   0  0  0  0  0  0  0  0  0  0  0  0
  129.7540  134.1230   74.3010 C   0  0  0  0  0  0  0  0  0  0  0  0
  129.1950  134.1750   75.5530 N   0  0  0  0  0  0  0  0  0  0  0  0
  130.6620  135.1330   73.8240 C   0  0  0  0  0  0  0  0  0  0  0  0
  1  2  1  0
  2  3  2  0
  3  4  1  0
  4  5  1  0
  5  6  2  0
  6  7  1  0
  7  8  2  0
  8  9  1  0
  9 10  2  0
  4 11  2  0
 11 12  1  0
 12 13  1  0
 13 14  1  0
 14 15  1  0
 15 16  2  0
 15 17  1  0
 17 18  1  0
 18 19  2  0
 19 20  1  0
 20 21  2  0
 21 22  1  0
 22 23  2  0
 14 24  2  0
 24 25  1  0
 24 26  1  0
 26  2  1  0
 10  5  1  0
 26 12  2  0
 23 18  1  0
M  END
>  <Binding energies>  (60) 
[-7.11]

>  <Ligand effiencies>  (60) 
[-0.24517241379310345]

>  <Interactions>  (60) 
["V-A:LYS:547:CE:4948, V-B:HIS:456:CG:9038, V-B:TYR:484:CB:9313, V-A:GLU:543:C:4900, V-B:HIS:456:CD2:9040, H-A:LYS:547:NZ:4949, V-A:GLY:544:CA:4912, V-B:VAL:458:CG2:9059, V-B:VAL:457:C:9045, V-B:HIS:456:CB:9037, V-B:HIS:456:CA:9035, V-B:HIS:456:C:9033, V-B:LYS:471:CE:9192, V-B:LYS:471:CD:9191, V-B:LYS:471:CG:9190, V-B:ASP:473:CG:9212, V-A:VAL:542:CG1:4897, H-B:ASP:473:OD2:9214, V-A:GLU:543:CA:4902, V-B:SER:483:CB:9305, V-A:ARG:356:CD:3117"]

$$$$
4dg_Grossjean_2025
     RDKit          3D

 27 30  0  0  0  0  0  0  0  0999 V2000
  130.8920  120.7410   61.3210 C   0  0  0  0  0  0  0  0  0  0  0  0
  130.2310  122.0790   61.0290 C   0  0  0  0  0  0  0  0  0  0  0  0
  129.4070  122.1760   59.9010 C   0  0  0  0  0  0  0  0  0  0  0  0
  128.7700  123.3800   59.5770 C   0  0  0  0  0  0  0  0  0  0  0  0
  127.8790  123.5150   58.3740 C   0  0  0  0  0  0  0  0  0  0  0  0
  126.5590  123.9770   58.5030 C   0  0  0  0  0  0  0  0  0  0  0  0
  125.7280  124.1000   57.3920 C   0  0  0  0  0  0  0  0  0  0  0  0
  126.2060  123.7600   56.1310 C   0  0  0  0  0  0  0  0  0  0  0  0
  127.5090  123.2950   55.9750 C   0  0  0  0  0  0  0  0  0  0  0  0
  128.3350  123.1740   57.0880 C   0  0  0  0  0  0  0  0  0  0  0  0
  128.9060  124.4950   60.3460 N   0  0  0  0  0  0  0  0  0  0  0  0
  129.6910  124.4040   61.4190 C   0  0  0  0  0  0  0  0  0  0  0  0
  129.9580  125.7610   62.4880 S   0  0  0  0  0  0  0  0  0  0  0  0
  131.0160  124.7980   63.5180 C   0  0  0  0  0  0  0  0  0  0  0  0
  131.6650  125.4070   64.6780 C   0  0  0  0  0  0  0  0  0  0  0  0
  132.8420  125.1650   64.9550 O   0  0  0  0  0  0  0  0  0  0  0  0
  130.8880  126.2090   65.4350 N   0  0  0  0  0  0  0  0  0  0  0  0
  131.3290  126.9380   66.6240 C   0  0  0  0  0  0  0  0  0  0  0  0
  130.2060  127.2120   67.6170 C   0  0  0  0  0  0  0  0  0  0  0  0
  128.8790  127.2390   67.1760 C   0  0  0  0  0  0  0  0  0  0  0  0
  127.8490  127.4570   68.0850 C   0  0  0  0  0  0  0  0  0  0  0  0
  128.1460  127.6380   69.4340 C   0  0  0  0  0  0  0  0  0  0  0  0
  129.4640  127.5960   69.8840 C   0  0  0  0  0  0  0  0  0  0  0  0
  130.4950  127.3760   68.9750 C   0  0  0  0  0  0  0  0  0  0  0  0
  131.1530  123.4910   63.0270 C   0  0  0  0  0  0  0  0  0  0  0  0
  131.9290  122.5290   63.6230 N   0  0  0  0  0  0  0  0  0  0  0  0
  130.3940  123.2370   61.8320 C   0  0  0  0  0  0  0  0  0  0  0  0
  1  2  1  0
  2  3  2  0
  3  4  1  0
  4  5  1  0
  5  6  2  0
  6  7  1  0
  7  8  2  0
  8  9  1  0
  9 10  2  0
  4 11  2  0
 11 12  1  0
 12 13  1  0
 13 14  1  0
 14 15  1  0
 15 16  2  0
 15 17  1  0
 17 18  1  0
 18 19  1  0
 19 20  2  0
 20 21  1  0
 21 22  2  0
 22 23  1  0
 23 24  2  0
 14 25  2  0
 25 26  1  0
 25 27  1  0
 27  2  1  0
 10  5  1  0
 27 12  2  0
 24 19  1  0
M  END
>  <Binding energies>  (61) 
[-8.42]

>  <Ligand effiencies>  (61) 
[-0.2806666666666667]

>  <Interactions>  (61) 
["V-B:TYR:539:CD2:9846, V-B:PRO:540:CA:9855, V-A:LEU:475:CD2:4257, V-B:ALA:541:CB:9864, V-B:TYR:539:CE2:9848, V-B:PRO:540:N:9856, H-B:GLU:543:OE2:9882, H-B:GLU:543:OE1:9881, V-B:TYR:539:CZ:9849, H-A:GLU:543:OE2:4908, V-A:GLU:543:CD:4906, V-A:HIS:456:CE1:4068, V-B:TYR:539:CG:9844, H-A:ARG:545:NE:4922, H-A:TYR:484:OH:4346, V-B:TYR:539:C:9839, V-B:GLU:543:CD:9880, V-A:ARG:545:CZ:4924, V-B:GLU:543:CB:9878, V-B:TYR:539:CD1:9845, V-B:GLU:543:CG:9879, V-A:GLU:543:CG:4905, V-B:HIS:456:CE1:9042, V-A:GLY:544:C:4910, V-A:GLU:543:C:4900, V-A:ARG:545:CD:4921, V-A:ARG:545:CG:4920, V-A:GLY:454:CA:4047, V-A:TYR:484:CZ:4345, V-A:TYR:484:CE1:4343"]

$$$$
4dj_Grossjean_2025
     RDKit          3D

 25 28  0  0  0  0  0  0  0  0999 V2000
  130.5120  120.6350   61.3160 C   0  0  0  0  0  0  0  0  0  0  0  0
  130.2230  122.0380   60.8040 C   0  0  0  0  0  0  0  0  0  0  0  0
  129.7470  122.1780   59.4950 C   0  0  0  0  0  0  0  0  0  0  0  0
  129.4630  123.4420   58.9640 C   0  0  0  0  0  0  0  0  0  0  0  0
  128.9470  123.6220   57.5640 C   0  0  0  0  0  0  0  0  0  0  0  0
  129.6900  124.3330   56.6080 C   0  0  0  0  0  0  0  0  0  0  0  0
  129.2170  124.5040   55.3100 C   0  0  0  0  0  0  0  0  0  0  0  0
  127.9850  123.9670   54.9480 C   0  0  0  0  0  0  0  0  0  0  0  0
  127.2260  123.2620   55.8760 C   0  0  0  0  0  0  0  0  0  0  0  0
  127.7040  123.0930   57.1720 C   0  0  0  0  0  0  0  0  0  0  0  0
  129.6190  124.5800   59.6940 N   0  0  0  0  0  0  0  0  0  0  0  0
  130.0720  124.4490   60.9390 C   0  0  0  0  0  0  0  0  0  0  0  0
  130.3270  125.8280   61.9850 S   0  0  0  0  0  0  0  0  0  0  0  0
  130.8780  124.7890   63.3000 C   0  0  0  0  0  0  0  0  0  0  0  0
  131.2920  125.3690   64.5780 C   0  0  0  0  0  0  0  0  0  0  0  0
  132.4560  125.2610   64.9730 O   0  0  0  0  0  0  0  0  0  0  0  0
  130.3180  126.0070   65.2720 N   0  0  0  0  0  0  0  0  0  0  0  0
  130.4440  126.6370   66.5030 C   0  0  0  0  0  0  0  0  0  0  0  0
  131.4970  127.2620   66.9860 N   0  0  0  0  0  0  0  0  0  0  0  0
  131.2630  127.7440   68.1910 C   0  0  0  0  0  0  0  0  0  0  0  0
  129.9930  127.5140   68.7100 C   0  0  0  0  0  0  0  0  0  0  0  0
  129.0620  126.6150   67.5500 S   0  0  0  0  0  0  0  0  0  0  0  0
  130.8600  123.4380   62.9190 C   0  0  0  0  0  0  0  0  0  0  0  0
  131.2420  122.4080   63.7410 N   0  0  0  0  0  0  0  0  0  0  0  0
  130.4010  123.2170   61.5740 C   0  0  0  0  0  0  0  0  0  0  0  0
  1  2  1  0
  2  3  2  0
  3  4  1  0
  4  5  1  0
  5  6  2  0
  6  7  1  0
  7  8  2  0
  8  9  1  0
  9 10  2  0
  4 11  2  0
 11 12  1  0
 12 13  1  0
 13 14  1  0
 14 15  1  0
 15 16  2  0
 15 17  1  0
 17 18  1  0
 18 19  2  0
 19 20  1  0
 20 21  2  0
 21 22  1  0
 14 23  2  0
 23 24  1  0
 23 25  1  0
 25  2  1  0
 10  5  1  0
 25 12  2  0
 22 18  1  0
M  END
>  <Binding energies>  (62) 
[-7.11]

>  <Ligand effiencies>  (62) 
[-0.25392857142857145]

>  <Interactions>  (62) 
["V-B:TYR:539:CD2:9846, V-A:LEU:475:CD2:4257, V-B:ALA:541:CB:9864, V-B:TYR:539:CE2:9848, V-B:PRO:540:N:9856, H-B:GLU:543:OE2:9882, H-B:GLU:543:OE1:9881, V-B:TYR:539:CZ:9849, H-A:GLU:543:OE2:4908, V-B:TYR:539:CE1:9847, V-A:GLU:543:CD:4906, V-B:ILE:538:CA:9832, V-A:HIS:456:CE1:4068, H-A:ARG:545:NE:4922, H-A:TYR:484:OH:4346, V-B:TYR:539:C:9839, V-B:GLU:543:CD:9880, V-B:GLU:543:CB:9878, V-B:GLU:543:CG:9879, V-A:GLU:543:CG:4905, V-A:GLY:544:C:4910, V-A:GLU:543:C:4900, V-B:GLU:543:C:9874, V-A:ARG:545:CG:4920, V-A:TYR:484:CZ:4345, V-A:TYR:484:CE1:4343, V-A:ARG:545:CA:4917"]

$$$$
4ea_Grossjean_2025
     RDKit          3D

 31 34  0  0  0  0  0  0  0  0999 V2000
  128.9650  129.0800   72.2590 C   0  0  0  0  0  0  0  0  0  0  0  0
  128.0970  127.9000   72.7050 C   0  0  0  0  0  0  0  0  0  0  0  0
  128.3720  126.7740   71.8820 O   0  0  0  0  0  0  0  0  0  0  0  0
  129.4600  126.7470   71.0690 C   0  0  0  0  0  0  0  0  0  0  0  0
  130.5860  126.4140   71.4510 O   0  0  0  0  0  0  0  0  0  0  0  0
  129.1560  127.1640   69.6590 C   0  0  0  0  0  0  0  0  0  0  0  0
  127.8240  127.3710   69.2800 C   0  0  0  0  0  0  0  0  0  0  0  0
  127.5090  127.7570   67.9800 C   0  0  0  0  0  0  0  0  0  0  0  0
  128.5170  127.9450   67.0340 C   0  0  0  0  0  0  0  0  0  0  0  0
  128.0810  128.3350   65.7530 N   0  0  0  0  0  0  0  0  0  0  0  0
  127.1750  129.2720   65.3810 C   0  0  0  0  0  0  0  0  0  0  0  0
  126.5460  129.9790   66.1690 O   0  0  0  0  0  0  0  0  0  0  0  0
  126.9730  129.4070   63.9360 C   0  0  0  0  0  0  0  0  0  0  0  0
  127.4870  128.1230   62.8390 S   0  0  0  0  0  0  0  0  0  0  0  0
  126.9240  129.0190   61.4470 C   0  0  0  0  0  0  0  0  0  0  0  0
  127.0370  128.5400   60.2070 N   0  0  0  0  0  0  0  0  0  0  0  0
  126.5610  129.3340   59.2170 C   0  0  0  0  0  0  0  0  0  0  0  0
  126.6990  128.7700   57.8140 C   0  0  0  0  0  0  0  0  0  0  0  0
  125.9800  130.5810   59.4340 C   0  0  0  0  0  0  0  0  0  0  0  0
  125.8640  131.0800   60.7360 C   0  0  0  0  0  0  0  0  0  0  0  0
  125.2450  132.4070   60.9510 C   0  0  0  0  0  0  0  0  0  0  0  0
  125.9380  133.5710   60.6030 C   0  0  0  0  0  0  0  0  0  0  0  0
  125.3560  134.8200   60.8030 C   0  0  0  0  0  0  0  0  0  0  0  0
  124.0800  134.9050   61.3560 C   0  0  0  0  0  0  0  0  0  0  0  0
  123.3830  133.7520   61.7110 C   0  0  0  0  0  0  0  0  0  0  0  0
  123.9670  132.5050   61.5100 C   0  0  0  0  0  0  0  0  0  0  0  0
  126.3520  130.2770   61.8050 C   0  0  0  0  0  0  0  0  0  0  0  0
  126.3930  130.4730   63.2310 C   0  0  0  0  0  0  0  0  0  0  0  0
  125.9030  131.6060   63.8280 N   0  0  0  0  0  0  0  0  0  0  0  0
  129.8550  127.7390   67.4050 C   0  0  0  0  0  0  0  0  0  0  0  0
  130.1680  127.3530   68.7050 C   0  0  0  0  0  0  0  0  0  0  0  0
  1  2  1  0
  2  3  1  0
  3  4  1  0
  4  5  2  0
  4  6  1  0
  6  7  2  0
  7  8  1  0
  8  9  2  0
  9 10  1  0
 10 11  1  0
 11 12  2  0
 11 13  1  0
 13 14  1  0
 14 15  1  0
 15 16  2  0
 16 17  1  0
 17 18  1  0
 17 19  2  0
 19 20  1  0
 20 21  1  0
 21 22  2  0
 22 23  1  0
 23 24  2  0
 24 25  1  0
 25 26  2  0
 20 27  2  0
 27 28  1  0
 28 29  1  0
  9 30  1  0
 30 31  2  0
 31  6  1  0
 28 13  2  0
 27 15  1  0
 26 21  1  0
M  END
>  <Binding energies>  (63) 
[-7.25]

>  <Ligand effiencies>  (63) 
[-0.21323529411764705]

>  <Interactions>  (63) 
["V-B:ILE:369:CD1:8211, V-A:TYR:539:CD2:4872, V-B:ILE:369:CG2:8209, V-B:LEU:475:CD2:9231, V-A:TYR:539:CE2:4874, V-B:TRP:381:CH2:8344, H-B:GLU:543:OE2:9882, H-B:GLU:543:OE1:9881, H-A:GLU:543:OE2:4908, V-B:TRP:381:CZ2:8342, V-A:GLU:543:CD:4906, V-A:HIS:456:CE1:4068, H-A:GLU:543:OE1:4907, V-B:GLU:543:CD:9880, V-B:GLU:543:CG:9879, V-A:GLU:543:CG:4905, H-B:TYR:484:OH:9320, V-A:GLU:543:CB:4904, V-B:HIS:456:CE1:9042, V-B:ILE:369:CG1:8210, V-B:GLY:544:C:9884, V-A:LYS:547:CE:4948, V-A:GLU:543:C:4900, V-B:LYS:547:CE:9922, V-A:HIS:456:CD2:4066, V-B:HIS:456:CD2:9040, V-B:GLU:543:C:9874, V-A:GLY:544:CA:4912, V-B:ARG:545:CG:9894, V-B:GLY:454:CA:9021"]

$$$$
4eb_Grossjean_2025
     RDKit          3D

 30 33  0  0  0  0  0  0  0  0999 V2000
  130.3550  126.6010   72.2810 C   0  0  0  0  0  0  0  0  0  0  0  0
  129.8440  127.8380   71.8060 O   0  0  0  0  0  0  0  0  0  0  0  0
  128.7100  127.8840   71.0580 C   0  0  0  0  0  0  0  0  0  0  0  0
  127.6050  128.1830   71.5180 O   0  0  0  0  0  0  0  0  0  0  0  0
  128.9370  127.5360   69.6150 C   0  0  0  0  0  0  0  0  0  0  0  0
  130.2470  127.3450   69.1560 C   0  0  0  0  0  0  0  0  0  0  0  0
  130.4900  127.0210   67.8240 C   0  0  0  0  0  0  0  0  0  0  0  0
  129.4320  126.8820   66.9250 C   0  0  0  0  0  0  0  0  0  0  0  0
  129.7970  126.5530   65.6050 N   0  0  0  0  0  0  0  0  0  0  0  0
  130.5980  125.5650   65.1350 C   0  0  0  0  0  0  0  0  0  0  0  0
  131.1730  124.7410   65.8470 O   0  0  0  0  0  0  0  0  0  0  0  0
  130.7520  125.5240   63.6790 C   0  0  0  0  0  0  0  0  0  0  0  0
  130.2170  126.8830   62.6870 S   0  0  0  0  0  0  0  0  0  0  0  0
  130.7260  126.0750   61.2210 C   0  0  0  0  0  0  0  0  0  0  0  0
  130.5790  126.6360   60.0200 N   0  0  0  0  0  0  0  0  0  0  0  0
  131.0140  125.9060   58.9640 C   0  0  0  0  0  0  0  0  0  0  0  0
  130.8360  126.5630   57.6070 C   0  0  0  0  0  0  0  0  0  0  0  0
  131.5860  124.6420   59.0790 C   0  0  0  0  0  0  0  0  0  0  0  0
  131.7390  124.0570   60.3420 C   0  0  0  0  0  0  0  0  0  0  0  0
  132.3490  122.7120   60.4480 C   0  0  0  0  0  0  0  0  0  0  0  0
  131.6100  121.5760   60.1040 C   0  0  0  0  0  0  0  0  0  0  0  0
  132.1840  120.3100   60.2020 C   0  0  0  0  0  0  0  0  0  0  0  0
  133.4980  120.1820   60.6480 C   0  0  0  0  0  0  0  0  0  0  0  0
  134.2410  121.3080   60.9970 C   0  0  0  0  0  0  0  0  0  0  0  0
  133.6660  122.5720   60.8980 C   0  0  0  0  0  0  0  0  0  0  0  0
  131.2950  124.7910   61.4750 C   0  0  0  0  0  0  0  0  0  0  0  0
  131.2970  124.5020   62.8850 C   0  0  0  0  0  0  0  0  0  0  0  0
  131.7920  123.3270   63.3920 N   0  0  0  0  0  0  0  0  0  0  0  0
  128.1170  127.0710   67.3750 C   0  0  0  0  0  0  0  0  0  0  0  0
  127.8760  127.3950   68.7080 C   0  0  0  0  0  0  0  0  0  0  0  0
  1  2  1  0
  2  3  1  0
  3  4  2  0
  3  5  1  0
  5  6  2  0
  6  7  1  0
  7  8  2  0
  8  9  1  0
  9 10  1  0
 10 11  2  0
 10 12  1  0
 12 13  1  0
 13 14  1  0
 14 15  2  0
 15 16  1  0
 16 17  1  0
 16 18  2  0
 18 19  1  0
 19 20  1  0
 20 21  2  0
 21 22  1  0
 22 23  2  0
 23 24  1  0
 24 25  2  0
 19 26  2  0
 26 27  1  0
 27 28  1  0
  8 29  1  0
 29 30  2  0
 30  5  1  0
 27 12  2  0
 26 14  1  0
 25 20  1  0
M  END
>  <Binding energies>  (64) 
[-7.12]

>  <Ligand effiencies>  (64) 
[-0.21575757575757576]

>  <Interactions>  (64) 
["V-B:TYR:539:CD2:9846, V-A:LEU:475:CD2:4257, V-A:ILE:369:CG2:3235, V-A:TRP:381:CZ2:3368, V-A:TRP:381:CH2:3370, V-A:ILE:369:CD1:3237, V-B:TYR:539:CE2:9848, V-A:ASP:366:CG:3211, H-B:GLU:543:OE2:9882, H-B:GLU:543:OE1:9881, H-A:GLU:543:OE2:4908, V-A:GLU:543:CD:4906, V-A:HIS:456:CE1:4068, H-A:TYR:484:OH:4346, H-A:GLU:543:OE1:4907, V-B:GLU:543:CD:9880, V-B:GLU:543:CB:9878, V-B:GLU:543:CG:9879, V-A:GLU:543:CG:4905, V-B:HIS:456:CE1:9042, V-A:GLY:544:C:4910, V-A:GLU:543:C:4900, V-A:HIS:456:CD2:4066, V-B:HIS:456:CD2:9040, V-B:GLU:543:C:9874, V-A:ARG:545:CG:4920, V-A:GLY:454:CA:4047, H-B:HIS:456:ND1:9039, V-A:ILE:369:CG1:3236"]

$$$$
8b_Ghoteimi_2023
     RDKit          3D

 34 38  0  0  0  0  0  0  0  0999 V2000
  134.6080  125.0720   66.6120 C   0  0  0  0  0  0  0  0  0  0  0  0
  134.2110  124.4120   65.4150 O   0  0  0  0  0  0  0  0  0  0  0  0
  133.1320  124.9010   64.7020 C   0  0  0  0  0  0  0  0  0  0  0  0
  133.2530  124.9050   63.3140 C   0  0  0  0  0  0  0  0  0  0  0  0
  132.2190  125.3800   62.5150 C   0  0  0  0  0  0  0  0  0  0  0  0
  131.0320  125.8640   63.0850 C   0  0  0  0  0  0  0  0  0  0  0  0
  129.9170  126.3780   62.2300 C   0  0  0  0  0  0  0  0  0  0  0  0
  129.3390  125.5960   61.2250 C   0  0  0  0  0  0  0  0  0  0  0  0
  128.2970  126.0990   60.4400 C   0  0  0  0  0  0  0  0  0  0  0  0
  127.7140  125.2490   59.3770 C   0  0  0  0  0  0  0  0  0  0  0  0
  128.3980  125.0570   58.1750 C   0  0  0  0  0  0  0  0  0  0  0  0
  127.8520  124.2500   57.1810 C   0  0  0  0  0  0  0  0  0  0  0  0
  126.6190  123.6250   57.3700 C   0  0  0  0  0  0  0  0  0  0  0  0
  126.1570  122.8420   56.3300 O   0  0  0  0  0  0  0  0  0  0  0  0
  125.2020  123.3830   55.4230 C   0  0  0  0  0  0  0  0  0  0  0  0
  125.9310  123.8230   58.5780 C   0  0  0  0  0  0  0  0  0  0  0  0
  126.4780  124.6300   59.5720 C   0  0  0  0  0  0  0  0  0  0  0  0
  127.8410  127.4190   60.7010 C   0  0  0  0  0  0  0  0  0  0  0  0
  126.8110  128.2320   60.1070 C   0  0  0  0  0  0  0  0  0  0  0  0
  126.0270  127.7840   59.0750 N   0  0  0  0  0  0  0  0  0  0  0  0
  126.6910  129.5060   60.6830 C   0  0  0  0  0  0  0  0  0  0  0  0
  125.7570  130.5790   60.3340 C   0  0  0  0  0  0  0  0  0  0  0  0
  125.0200  130.4770   59.3500 O   0  0  0  0  0  0  0  0  0  0  0  0
  125.7740  131.6570   61.1590 N   0  0  0  0  0  0  0  0  0  0  0  0
  124.9980  132.8040   61.0670 C   0  0  0  0  0  0  0  0  0  0  0  0
  123.8490  133.0090   61.8300 C   0  0  0  0  0  0  0  0  0  0  0  0
  123.3780  134.2430   61.4430 C   0  0  0  0  0  0  0  0  0  0  0  0
  124.2020  134.7560   60.5000 O   0  0  0  0  0  0  0  0  0  0  0  0
  125.2270  133.8360   60.2700 N   0  0  0  0  0  0  0  0  0  0  0  0
  127.8600  129.7300   61.9860 S   0  0  0  0  0  0  0  0  0  0  0  0
  128.5000  128.1200   61.7520 C   0  0  0  0  0  0  0  0  0  0  0  0
  129.4950  127.6430   62.4980 N   0  0  0  0  0  0  0  0  0  0  0  0
  130.9160  125.8550   64.4810 C   0  0  0  0  0  0  0  0  0  0  0  0
  131.9500  125.3810   65.2840 C   0  0  0  0  0  0  0  0  0  0  0  0
  1  2  1  0
  2  3  1  0
  3  4  2  0
  4  5  1  0
  5  6  2  0
  6  7  1  0
  7  8  2  0
  8  9  1  0
  9 10  1  0
 10 11  2  0
 11 12  1  0
 12 13  2  0
 13 14  1  0
 14 15  1  0
 13 16  1  0
 16 17  2  0
  9 18  2  0
 18 19  1  0
 19 20  1  0
 19 21  2  0
 21 22  1  0
 22 23  2  0
 22 24  1  0
 24 25  1  0
 25 26  1  0
 26 27  2  0
 27 28  1  0
 28 29  1  0
 21 30  1  0
 30 31  1  0
 31 32  2  0
  6 33  1  0
 33 34  2  0
 34  3  1  0
 32  7  1  0
 17 10  1  0
 31 18  1  0
 29 25  2  0
M  END
>  <Binding energies>  (65) 
[-6.47]

>  <Ligand effiencies>  (65) 
[-0.17486486486486486]

>  <Interactions>  (65) 
["V-B:ASP:366:CG:8185, H-B:TYR:531:OH:9767, V-B:PRO:540:CA:9855, H-B:ASP:366:OD2:8187, V-B:PRO:540:N:9856, V-B:ILE:538:CB:9834, V-B:ILE:369:CD1:8211, V-B:TYR:531:CE2:9765, V-B:PRO:540:CB:9857, V-B:ILE:369:CG2:8209, V-B:LEU:475:CD2:9231, V-B:ILE:538:CG2:9835, V-A:GLU:543:CD:4906, V-B:ILE:538:CA:9832, V-A:HIS:456:CE1:4068, H-A:TYR:484:OH:4346, V-B:TYR:539:C:9839, H-A:GLY:454:N:4048, V-B:GLU:543:CD:9880, V-A:ARG:545:CZ:4924, V-B:ASP:366:CB:8184, V-B:ILE:369:CG1:8210, V-A:ARG:545:CD:4921, V-A:ARG:545:CG:4920, H-B:TYR:539:N:9842, V-B:GLY:454:CA:9021, H-B:ASP:366:OD1:8186, V-A:GLY:453:C:4040, V-B:SER:385:C:8377, V-A:ARG:545:CB:4919, V-A:ILE:455:C:4050, H-A:ILE:455:N:4053"]

$$$$
9d_Ghoteimi_2023
     RDKit          3D

 38 43  0  0  0  0  0  0  0  0999 V2000
  123.0020  131.1310   59.2350 C   0  0  0  0  0  0  0  0  0  0  0  0
  123.8220  132.2410   59.5680 O   0  0  0  0  0  0  0  0  0  0  0  0
  123.9220  132.6730   60.8520 C   0  0  0  0  0  0  0  0  0  0  0  0
  123.3940  133.7040   61.2770 O   0  0  0  0  0  0  0  0  0  0  0  0
  124.7410  131.7770   61.6990 C   0  0  0  0  0  0  0  0  0  0  0  0
  124.6290  131.8850   63.4560 S   0  0  0  0  0  0  0  0  0  0  0  0
  125.7820  130.5860   63.6490 C   0  0  0  0  0  0  0  0  0  0  0  0
  126.1280  130.1330   64.8530 N   0  0  0  0  0  0  0  0  0  0  0  0
  127.0190  129.1080   64.8950 C   0  0  0  0  0  0  0  0  0  0  0  0
  127.3730  128.6000   66.2560 C   0  0  0  0  0  0  0  0  0  0  0  0
  126.4550  127.8430   66.9910 C   0  0  0  0  0  0  0  0  0  0  0  0
  126.7730  127.3670   68.2600 C   0  0  0  0  0  0  0  0  0  0  0  0
  128.0290  127.6200   68.8350 C   0  0  0  0  0  0  0  0  0  0  0  0
  128.3570  127.1630   70.1160 N   0  0  0  0  0  0  0  0  0  0  0  0
  129.7030  126.6370   70.4230 C   0  0  0  0  0  0  0  0  0  0  0  0
  129.7830  125.8680   71.7580 C   0  0  0  0  0  0  0  0  0  0  0  0
  129.3020  126.6800   72.8160 O   0  0  0  0  0  0  0  0  0  0  0  0
  127.9480  127.0510   72.6120 C   0  0  0  0  0  0  0  0  0  0  0  0
  127.8090  127.8550   71.3020 C   0  0  0  0  0  0  0  0  0  0  0  0
  128.9400  128.3920   68.1000 C   0  0  0  0  0  0  0  0  0  0  0  0
  128.6190  128.8710   66.8320 C   0  0  0  0  0  0  0  0  0  0  0  0
  127.5840  128.5640   63.7390 C   0  0  0  0  0  0  0  0  0  0  0  0
  127.2390  129.0490   62.4720 C   0  0  0  0  0  0  0  0  0  0  0  0
  127.8910  128.4530   61.2760 C   0  0  0  0  0  0  0  0  0  0  0  0
  127.2600  127.4400   60.5510 C   0  0  0  0  0  0  0  0  0  0  0  0
  127.8670  126.8980   59.4210 C   0  0  0  0  0  0  0  0  0  0  0  0
  129.1140  127.3670   58.9770 C   0  0  0  0  0  0  0  0  0  0  0  0
  129.7470  126.8340   57.8530 N   0  0  0  0  0  0  0  0  0  0  0  0
  131.2200  126.7380   57.8360 C   0  0  0  0  0  0  0  0  0  0  0  0
  131.7570  125.7950   56.7380 C   0  0  0  0  0  0  0  0  0  0  0  0
  131.2600  126.1930   55.4690 O   0  0  0  0  0  0  0  0  0  0  0  0
  129.8410  126.1560   55.4260 C   0  0  0  0  0  0  0  0  0  0  0  0
  129.2580  127.1130   56.4890 C   0  0  0  0  0  0  0  0  0  0  0  0
  129.7380  128.3840   59.7150 C   0  0  0  0  0  0  0  0  0  0  0  0
  129.1320  128.9240   60.8450 C   0  0  0  0  0  0  0  0  0  0  0  0
  126.2760  130.0940   62.4040 C   0  0  0  0  0  0  0  0  0  0  0  0
  125.6460  130.7830   61.3070 C   0  0  0  0  0  0  0  0  0  0  0  0
  125.8950  130.4770   59.9940 N   0  0  0  0  0  0  0  0  0  0  0  0
  1  2  1  0
  2  3  1  0
  3  4  2  0
  3  5  1  0
  5  6  1  0
  6  7  1  0
  7  8  2  0
  8  9  1  0
  9 10  1  0
 10 11  2  0
 11 12  1  0
 12 13  2  0
 13 14  1  0
 14 15  1  0
 15 16  1  0
 16 17  1  0
 17 18  1  0
 18 19  1  0
 13 20  1  0
 20 21  2  0
  9 22  2  0
 22 23  1  0
 23 24  1  0
 24 25  2  0
 25 26  1  0
 26 27  2  0
 27 28  1  0
 28 29  1  0
 29 30  1  0
 30 31  1  0
 31 32  1  0
 32 33  1  0
 27 34  1  0
 34 35  2  0
 23 36  2  0
 36 37  1  0
 37 38  1  0
 37  5  2  0
 36  7  1  0
 21 10  1  0
 35 24  1  0
 19 14  1  0
 33 28  1  0
M  END
>  <Binding energies>  (66) 
[-5.96]

>  <Ligand effiencies>  (66) 
[-0.149]

>  <Interactions>  (66) 
["V-B:ASP:366:CG:8185, V-A:ASP:366:CG:3211, V-B:ILE:369:CD1:8211, H-A:TYR:531:OH:4793, V-B:ILE:369:CG2:8209, V-A:ASP:366:CB:3210, V-A:GLU:543:CD:4906, V-A:HIS:456:CE1:4068, V-B:GLU:543:CD:9880, V-B:GLU:543:CG:9879, V-A:GLU:543:CG:4905, H-B:TYR:484:OH:9320, V-A:GLU:543:CB:4904, V-B:HIS:456:CE1:9042, H-B:TYR:539:OH:9850, V-B:ASP:366:C:8180, V-B:ASP:366:CB:8184, V-B:ILE:369:CB:8208, V-B:ASP:366:CA:8182, V-B:GLY:544:C:9884, V-B:HIS:456:CG:9038, V-A:GLU:543:C:4900, V-B:LYS:547:CE:9922, V-A:HIS:456:CD2:4066, V-B:HIS:456:CD2:9040, V-B:GLU:543:C:9874, V-A:HIS:456:CG:4064, H-B:LYS:547:NZ:9923, V-B:GLY:544:CA:9886, V-B:ARG:545:CG:9894, V-B:ARG:545:CD:9895, V-B:GLY:454:CA:9021, V-B:ARG:545:CA:9891"]

$$$$
RR10_Rahimova_2017
     RDKit          3D

 34 38  0  0  0  0  0  0  0  0999 V2000
  134.1620  123.9790   59.1640 C   0  0  0  0  0  0  0  0  0  0  0  0
  133.6510  123.6690   60.5820 C   0  0  1  0  0  0  0  0  0  0  0  0
  132.7290  124.7880   61.1200 C   0  0  0  0  0  0  0  0  0  0  0  0
  132.2560  124.4730   62.5570 C   0  0  0  0  0  0  0  0  0  0  0  0
  131.5110  123.1160   62.6430 C   0  0  1  0  0  0  0  0  0  0  0  0
  130.2250  123.1830   61.9360 N   0  0  0  0  0  0  0  0  0  0  0  0
  129.6420  122.1630   61.2790 C   0  0  0  0  0  0  0  0  0  0  0  0
  130.1330  121.0330   61.2220 O   0  0  0  0  0  0  0  0  0  0  0  0
  128.3070  122.4680   60.5680 C   0  0  1  0  0  0  0  0  0  0  0  0
  127.5890  123.6330   61.2980 C   0  0  0  0  0  0  0  0  0  0  0  0
  126.2960  124.0040   60.5340 C   0  0  0  0  0  0  0  0  0  0  0  0
  126.5490  124.2650   59.0310 C   0  0  0  0  0  0  0  0  0  0  0  0
  127.2970  123.1330   58.4200 N   0  0  0  0  0  0  0  0  0  0  0  0
  127.3830  123.1800   56.6510 S   0  0  0  0  0  0  0  0  0  0  0  0
  126.0440  122.8950   56.1210 O   0  0  0  0  0  0  0  0  0  0  0  0
  128.5320  122.3670   56.2340 O   0  0  0  0  0  0  0  0  0  0  0  0
  127.7430  124.8900   56.2490 C   0  0  0  0  0  0  0  0  0  0  0  0
  126.9050  125.5760   55.3630 C   0  0  0  0  0  0  0  0  0  0  0  0
  127.1320  126.9080   55.0060 C   0  0  0  0  0  0  0  0  0  0  0  0
  128.2430  127.5280   55.5830 C   0  0  0  0  0  0  0  0  0  0  0  0
  128.7890  128.7860   55.4850 N   0  0  0  0  0  0  0  0  0  0  0  0
  129.9060  128.8280   56.2950 C   0  0  0  0  0  0  0  0  0  0  0  0
  130.7780  130.0410   56.4440 C   0  0  0  0  0  0  0  0  0  0  0  0
  130.7900  131.0330   55.4540 C   0  0  0  0  0  0  0  0  0  0  0  0
  131.5950  132.1600   55.5920 C   0  0  0  0  0  0  0  0  0  0  0  0
  132.3960  132.3010   56.7230 C   0  0  0  0  0  0  0  0  0  0  0  0
  132.3960  131.3250   57.7160 C   0  0  0  0  0  0  0  0  0  0  0  0
  131.5900  130.1980   57.5760 C   0  0  0  0  0  0  0  0  0  0  0  0
  130.1100  127.6850   56.9110 N   0  0  0  0  0  0  0  0  0  0  0  0
  129.1010  126.8600   56.4900 C   0  0  0  0  0  0  0  0  0  0  0  0
  128.8470  125.5240   56.8310 C   0  0  0  0  0  0  0  0  0  0  0  0
  128.5890  122.8450   59.0930 C   0  0  0  0  0  0  0  0  0  0  0  0
  132.4410  122.0060   62.0840 C   0  0  0  0  0  0  0  0  0  0  0  0
  132.9100  122.3130   60.6440 C   0  0  0  0  0  0  0  0  0  0  0  0
  2  1  1  6
  2  3  1  0
  3  4  1  0
  4  5  1  0
  5  6  1  6
  6  7  1  0
  7  8  2  0
  9  7  1  1
  9 10  1  0
 10 11  1  0
 11 12  1  0
 12 13  1  0
 13 14  1  0
 14 15  2  0
 14 16  2  0
 14 17  1  0
 17 18  2  0
 18 19  1  0
 19 20  2  0
 20 21  1  0
 21 22  1  0
 22 23  1  0
 23 24  2  0
 24 25  1  0
 25 26  2  0
 26 27  1  0
 27 28  2  0
 22 29  2  0
 29 30  1  0
 30 31  2  0
 13 32  1  0
  5 33  1  0
 33 34  1  0
 34  2  1  0
 32  9  1  0
 31 17  1  0
 30 20  1  0
 28 23  1  0
M  END
>  <Binding energies>  (67) 
[-9.7]

>  <Ligand effiencies>  (67) 
[-0.26944444444444443]

>  <Interactions>  (67) 
["V-A:ILE:538:CG2:4861, V-A:PRO:540:CD:4885, V-A:PRO:540:N:4882, V-B:TYR:539:CD2:9846, V-B:PRO:540:CA:9855, V-A:LEU:475:CD2:4257, V-A:ILE:369:CG2:3235, V-B:ALA:541:CB:9864, V-A:ILE:538:CB:4860, V-A:ILE:538:CA:4858, V-A:TYR:531:CZ:4792, V-A:ILE:369:CD1:3237, V-B:PRO:540:N:9856, V-A:ASP:366:CG:3211, H-A:TYR:531:OH:4793, V-A:ASP:366:CB:3210, V-A:PRO:540:CA:4881, H-B:GLU:543:OE1:9881, V-B:TYR:539:C:9839, V-B:TYR:531:CZ:9766, V-B:PRO:540:C:9853, V-B:GLU:543:CD:9880, V-A:PRO:540:CB:4883, V-A:ILE:369:CB:3234, V-A:ASP:366:CA:3208, H-B:TYR:539:N:9842, V-B:ALA:541:CA:9862, V-A:PRO:540:CG:4884, H-A:MET:535:SD:4832"]

$$$$
RR12_Rahimova_2017
     RDKit          3D

 26 28  0  0  0  0  0  0  0  0999 V2000
  131.9980  131.1310   61.4260 C   0  0  0  0  0  0  0  0  0  0  0  0
  130.5750  131.4120   60.9270 C   0  0  0  0  0  0  0  0  0  0  0  0
  130.1640  130.4950   59.7600 C   0  0  0  0  0  0  0  0  0  0  0  0
  130.3420  131.1760   58.4800 N   0  0  0  0  0  0  0  0  0  0  0  0
  129.3620  131.7590   57.6910 C   0  0  0  0  0  0  0  0  0  0  0  0
  127.8810  131.7390   58.0270 C   0  0  0  0  0  0  0  0  0  0  0  0
  127.0830  130.7940   57.1090 C   0  0  0  0  0  0  0  0  0  0  0  0
  126.1910  129.8140   57.8940 C   0  0  0  0  0  0  0  0  0  0  0  0
  125.4910  130.4260   59.0230 N   0  0  0  0  0  0  0  0  0  0  0  0
  124.2730  130.9930   58.9590 C   0  0  0  0  0  0  0  0  0  0  0  0
  123.6110  131.0580   57.9210 O   0  0  0  0  0  0  0  0  0  0  0  0
  123.7360  131.5630   60.2780 C   0  0  0  0  0  0  0  0  0  0  0  0
  124.8080  131.6860   61.2150 O   0  0  0  0  0  0  0  0  0  0  0  0
  125.6410  132.7870   61.1490 C   0  0  0  0  0  0  0  0  0  0  0  0
  127.0130  132.5310   61.2110 C   0  0  0  0  0  0  0  0  0  0  0  0
  127.9310  133.5750   61.1490 C   0  0  0  0  0  0  0  0  0  0  0  0
  127.4770  134.8850   61.0220 C   0  0  0  0  0  0  0  0  0  0  0  0
  126.1120  135.1590   60.9610 C   0  0  0  0  0  0  0  0  0  0  0  0
  125.1950  134.1130   61.0250 C   0  0  0  0  0  0  0  0  0  0  0  0
  129.8340  132.3200   56.6050 N   0  0  0  0  0  0  0  0  0  0  0  0
  131.1870  132.1330   56.6740 C   0  0  0  0  0  0  0  0  0  0  0  0
  132.1820  132.5470   55.7750 C   0  0  0  0  0  0  0  0  0  0  0  0
  133.5080  132.2370   56.0750 C   0  0  0  0  0  0  0  0  0  0  0  0
  133.8450  131.5370   57.2340 C   0  0  0  0  0  0  0  0  0  0  0  0
  132.8780  131.1110   58.1470 C   0  0  0  0  0  0  0  0  0  0  0  0
  131.5460  131.4210   57.8450 C   0  0  0  0  0  0  0  0  0  0  0  0
  1  2  1  0
  2  3  1  0
  3  4  1  0
  4  5  1  0
  5  6  1  0
  6  7  1  0
  7  8  1  0
  8  9  1  0
  9 10  1  0
 10 11  2  0
 10 12  1  0
 12 13  1  0
 13 14  1  0
 14 15  2  0
 15 16  1  0
 16 17  2  0
 17 18  1  0
 18 19  2  0
  5 20  2  0
 20 21  1  0
 21 22  2  0
 22 23  1  0
 23 24  2  0
 24 25  1  0
 25 26  2  0
 26  4  1  0
 19 14  1  0
 26 21  1  0
M  END
>  <Binding energies>  (68) 
[-7.59]

>  <Ligand effiencies>  (68) 
[-0.2811111111111111]

>  <Interactions>  (68) 
["V-A:ILE:538:CG2:4861, V-A:PRO:540:CD:4885, V-B:ASP:366:CG:8185, V-A:PRO:540:N:4882, V-A:ILE:538:CB:4860, V-A:ILE:538:CA:4858, V-B:ILE:369:CD1:8211, V-A:TYR:539:CD2:4872, V-B:ILE:369:CG2:8209, V-B:LEU:475:CD2:9231, V-A:TYR:539:CE2:4874, V-A:TYR:539:CZ:4875, V-B:TRP:381:CH2:8344, V-A:PRO:540:CA:4881, V-B:TRP:381:CZ2:8342, V-A:ALA:541:CB:4890, V-A:PRO:540:CB:4883, V-A:LEU:363:CD1:3187, V-A:TYR:539:C:4865, V-A:TYR:539:CE1:4873, V-A:TYR:531:CE2:4791, V-B:ASP:366:CB:8184, H-A:TYR:539:OH:4876, V-B:ASP:366:CA:8182, H-A:TYR:539:N:4868, V-A:LEU:363:CB:3185, V-A:LEU:363:CA:3183, V-A:PRO:540:CG:4884"]

$$$$
RR13_Rahimova_2017
     RDKit          3D

 48 54  0  0  0  0  0  0  0  0999 V2000
  133.3910  130.7450   57.6090 Cl  0  0  0  0  0  0  0  0  0  0  0  0
  131.8690  131.1160   56.8720 C   0  0  0  0  0  0  0  0  0  0  0  0
  131.8770  131.9400   55.7440 C   0  0  0  0  0  0  0  0  0  0  0  0
  130.6840  132.2930   55.1180 C   0  0  0  0  0  0  0  0  0  0  0  0
  129.4730  131.8240   55.6200 C   0  0  0  0  0  0  0  0  0  0  0  0
  129.4570  131.0010   56.7440 C   0  0  0  0  0  0  0  0  0  0  0  0
  130.6500  130.6250   57.3820 C   0  0  0  0  0  0  0  0  0  0  0  0
  130.6040  129.7320   58.6420 C   0  0  1  0  0  0  0  0  0  0  0  0
  130.7780  130.5700   59.9180 C   0  0  0  0  0  0  0  0  0  0  0  0
  131.8790  130.7040   60.6250 N   0  0  0  0  0  0  0  0  0  0  0  0
  131.5460  131.5290   61.6950 N   0  0  0  0  0  0  0  0  0  0  0  0
  130.2110  131.8760   61.6290 N   0  0  0  0  0  0  0  0  0  0  0  0
  129.7530  131.2520   60.5380 N   0  0  0  0  0  0  0  0  0  0  0  0
  128.3660  131.4180   60.1200 C   0  0  0  0  0  0  0  0  0  0  0  0
  127.8970  132.8610   60.3880 C   0  0  0  0  0  0  0  0  0  0  0  0
  126.5580  132.9050   61.1080 C   0  0  0  0  0  0  0  0  0  0  0  0
  126.3470  132.1110   62.2380 C   0  0  0  0  0  0  0  0  0  0  0  0
  125.1180  132.1470   62.8920 C   0  0  0  0  0  0  0  0  0  0  0  0
  124.1050  132.9750   62.4120 C   0  0  0  0  0  0  0  0  0  0  0  0
  124.3090  133.7680   61.2860 C   0  0  0  0  0  0  0  0  0  0  0  0
  125.5380  133.7330   60.6310 C   0  0  0  0  0  0  0  0  0  0  0  0
  129.4110  128.8550   58.7000 N   0  0  0  0  0  0  0  0  0  0  0  0
  129.6450  127.7230   59.6160 C   0  0  0  0  0  0  0  0  0  0  0  0
  128.3610  126.8790   59.7850 C   0  0  0  0  0  0  0  0  0  0  0  0
  127.9360  126.3160   58.4930 N   0  0  0  0  0  0  0  0  0  0  0  0
  126.7540  125.4310   58.6210 C   0  0  1  0  0  0  0  0  0  0  0  0
  126.4200  124.5820   57.3750 C   0  0  0  0  0  0  0  0  0  0  0  0
  127.4080  124.4790   56.3860 C   0  0  0  0  0  0  0  0  0  0  0  0
  127.2000  123.7200   55.2360 C   0  0  0  0  0  0  0  0  0  0  0  0
  125.9920  123.0530   55.0530 C   0  0  0  0  0  0  0  0  0  0  0  0
  124.9910  123.1550   56.0160 C   0  0  0  0  0  0  0  0  0  0  0  0
  125.1880  123.9170   57.1710 C   0  0  0  0  0  0  0  0  0  0  0  0
  123.8590  124.0370   58.2740 Cl  0  0  0  0  0  0  0  0  0  0  0  0
  126.8010  124.5430   59.8660 C   0  0  0  0  0  0  0  0  0  0  0  0
  125.9330  124.5650   60.8510 N   0  0  0  0  0  0  0  0  0  0  0  0
  126.3500  123.5900   61.7510 N   0  0  0  0  0  0  0  0  0  0  0  0
  127.4840  122.9640   61.2770 N   0  0  0  0  0  0  0  0  0  0  0  0
  127.7320  123.5540   60.1020 N   0  0  0  0  0  0  0  0  0  0  0  0
  128.8920  123.1520   59.3130 C   0  0  0  0  0  0  0  0  0  0  0  0
  130.1900  123.6570   59.9710 C   0  0  0  0  0  0  0  0  0  0  0  0
  131.2350  122.5590   60.0950 C   0  0  0  0  0  0  0  0  0  0  0  0
  132.5940  122.8840   60.0790 C   0  0  0  0  0  0  0  0  0  0  0  0
  133.5500  121.8800   60.1990 C   0  0  0  0  0  0  0  0  0  0  0  0
  133.1450  120.5520   60.3340 C   0  0  0  0  0  0  0  0  0  0  0  0
  131.7900  120.2230   60.3510 C   0  0  0  0  0  0  0  0  0  0  0  0
  130.8330  121.2260   60.2320 C   0  0  0  0  0  0  0  0  0  0  0  0
  127.6970  127.4500   57.5820 C   0  0  0  0  0  0  0  0  0  0  0  0
  128.9870  128.2850   57.4100 C   0  0  0  0  0  0  0  0  0  0  0  0
  1  2  1  0
  2  3  2  0
  3  4  1  0
  4  5  2  0
  5  6  1  0
  6  7  2  0
  7  8  1  0
  8  9  1  0
  9 10  2  0
 10 11  1  0
 11 12  2  0
 12 13  1  0
 13 14  1  0
 14 15  1  0
 15 16  1  0
 16 17  2  0
 17 18  1  0
 18 19  2  0
 19 20  1  0
 20 21  2  0
  8 22  1  1
 22 23  1  0
 23 24  1  0
 24 25  1  0
 26 25  1  6
 26 27  1  0
 27 28  2  0
 28 29  1  0
 29 30  2  0
 30 31  1  0
 31 32  2  0
 32 33  1  0
 26 34  1  0
 34 35  2  0
 35 36  1  0
 36 37  2  0
 37 38  1  0
 38 39  1  0
 39 40  1  0
 40 41  1  0
 41 42  2  0
 42 43  1  0
 43 44  2  0
 44 45  1  0
 45 46  2  0
 25 47  1  0
 47 48  1  0
  7  2  1  0
 13  9  1  0
 21 16  1  0
 48 22  1  0
 32 27  1  0
 38 34  1  0
 46 41  1  0
M  END
>  <Binding energies>  (69) 
[-14.9]

>  <Ligand effiencies>  (69) 
[-0.3104166666666667]

>  <Interactions>  (69) 
["V-A:ILE:538:CG2:4861, V-A:PRO:540:CD:4885, V-B:ASP:366:CG:8185, V-B:TYR:539:CD2:9846, V-B:PRO:540:CA:9855, H-B:ALA:541:N:9863, V-A:LEU:475:CD2:4257, V-A:ILE:369:CG2:3235, V-A:TRP:381:CZ2:3368, V-A:ILE:538:CB:4860, V-A:ILE:538:CA:4858, V-A:TRP:381:CH2:3370, V-A:ILE:369:CD1:3237, V-B:TYR:539:CE2:9848, V-B:PRO:540:N:9856, V-B:ILE:538:CB:9834, V-A:ASP:366:CG:3211, V-B:ILE:369:CD1:8211, V-A:TYR:539:CD2:4872, V-B:TYR:531:CE2:9765, V-B:PRO:540:CD:9859, V-B:PRO:540:CB:9857, V-B:ILE:369:CG2:8209, V-A:ASP:366:CB:3210, V-B:LEU:475:CD2:9231, V-A:TYR:539:CE2:4874, V-B:ILE:538:CG2:9835, H-A:ALA:541:N:4889, H-B:ARG:545:NH2:9900, V-B:ILE:538:CA:9832, V-A:PRO:540:CB:4883, V-A:TYR:539:CE1:4873, H-A:ARG:545:NH2:4926, V-A:TYR:531:CE2:4791, V-A:TYR:539:CD1:4871, V-A:LEU:363:CA:3183, V-B:LEU:363:CA:8157, V-A:ILE:538:C:4856, V-B:GLY:454:CA:9021, V-B:ILE:538:C:9830"]

$$$$
RR14_Rahimova_2017
     RDKit          3D

 39 43  0  0  0  0  0  0  0  0999 V2000
  125.4750  129.3110   65.9370 C   0  0  0  0  0  0  0  0  0  0  0  0
  124.4810  130.0090   65.1950 O   0  0  0  0  0  0  0  0  0  0  0  0
  124.8190  130.5730   63.9800 C   0  0  0  0  0  0  0  0  0  0  0  0
  123.8860  130.4420   62.9510 C   0  0  0  0  0  0  0  0  0  0  0  0
  124.1500  130.9560   61.6850 C   0  0  0  0  0  0  0  0  0  0  0  0
  125.3610  131.6050   61.4340 C   0  0  0  0  0  0  0  0  0  0  0  0
  125.6820  132.1120   60.0330 C   0  0  0  0  0  0  0  0  0  0  0  0
  124.7950  131.5680   59.0040 N   0  0  0  0  0  0  0  0  0  0  0  0
  123.6650  132.2060   58.6790 N   0  0  0  0  0  0  0  0  0  0  0  0
  123.0770  131.4090   57.7170 N   0  0  0  0  0  0  0  0  0  0  0  0
  123.8640  130.2870   57.4780 N   0  0  0  0  0  0  0  0  0  0  0  0
  124.8990  130.4010   58.2770 C   0  0  0  0  0  0  0  0  0  0  0  0
  126.0330  129.3930   58.3930 C   0  0  0  0  0  0  0  0  0  0  0  0
  127.0120  129.5180   57.3000 N   0  0  0  0  0  0  0  0  0  0  0  0
  126.4050  129.2610   55.9880 C   0  0  0  0  0  0  0  0  0  0  0  0
  127.1330  128.1650   55.1800 C   0  0  0  0  0  0  0  0  0  0  0  0
  127.6730  127.0100   56.0500 C   0  0  0  0  0  0  0  0  0  0  0  0
  127.1310  125.6990   55.6750 N   0  0  0  0  0  0  0  0  0  0  0  0
  126.5820  125.0180   56.8550 C   0  0  0  0  0  0  0  0  0  0  0  0
  126.0490  123.6130   56.5040 C   0  0  0  0  0  0  0  0  0  0  0  0
  127.0670  122.8490   55.8650 O   0  0  0  0  0  0  0  0  0  0  0  0
  127.5200  123.4560   54.6600 C   0  0  0  0  0  0  0  0  0  0  0  0
  128.0980  124.8560   54.9550 C   0  0  0  0  0  0  0  0  0  0  0  0
  127.6330  130.8500   57.3280 C   0  0  0  0  0  0  0  0  0  0  0  0
  129.1420  130.8810   57.5590 C   0  0  0  0  0  0  0  0  0  0  0  0
  129.6570  130.9590   58.8110 C   0  0  0  0  0  0  0  0  0  0  0  0
  131.1110  131.0310   59.0600 C   0  0  0  0  0  0  0  0  0  0  0  0
  131.6790  131.0920   60.3440 C   0  0  0  0  0  0  0  0  0  0  0  0
  130.8170  131.0880   61.5990 C   0  0  0  0  0  0  0  0  0  0  0  0
  133.0690  131.1550   60.4690 C   0  0  0  0  0  0  0  0  0  0  0  0
  133.8870  131.1570   59.3410 C   0  0  0  0  0  0  0  0  0  0  0  0
  133.3320  131.0950   58.0590 C   0  0  0  0  0  0  0  0  0  0  0  0
  134.2520  131.0970   56.8450 C   0  0  0  0  0  0  0  0  0  0  0  0
  131.9360  131.0310   57.9210 C   0  0  0  0  0  0  0  0  0  0  0  0
  131.3310  130.9690   56.6480 N   0  0  0  0  0  0  0  0  0  0  0  0
  130.0040  130.9020   56.3730 C   0  0  0  0  0  0  0  0  0  0  0  0
  129.6100  130.8690   55.2080 O   0  0  0  0  0  0  0  0  0  0  0  0
  126.2890  131.7670   62.4650 C   0  0  0  0  0  0  0  0  0  0  0  0
  126.0240  131.2510   63.7300 C   0  0  0  0  0  0  0  0  0  0  0  0
  1  2  1  0
  2  3  1  0
  3  4  2  0
  4  5  1  0
  5  6  2  0
  6  7  1  0
  7  8  1  0
  8  9  1  0
  9 10  2  0
 10 11  1  0
 11 12  2  0
 12 13  1  0
 13 14  1  0
 14 15  1  0
 15 16  1  0
 16 17  1  0
 17 18  1  0
 18 19  1  0
 19 20  1  0
 20 21  1  0
 21 22  1  0
 22 23  1  0
 14 24  1  0
 24 25  1  0
 25 26  2  0
 26 27  1  0
 27 28  2  0
 28 29  1  0
 28 30  1  0
 30 31  2  0
 31 32  1  0
 32 33  1  0
 32 34  2  0
 34 35  1  0
 35 36  1  0
 36 37  2  0
  6 38  1  0
 38 39  2  0
 39  3  1  0
 12  8  1  0
 23 18  1  0
 36 25  1  0
 34 27  1  0
M  END
>  <Binding energies>  (70) 
[-11.38]

>  <Ligand effiencies>  (70) 
[-0.28450000000000003]

>  <Interactions>  (70) 
["V-B:ASP:366:CG:8185, H-B:TYR:531:OH:9767, V-A:TYR:531:CZ:4792, V-B:PRO:540:N:9856, V-A:ASP:366:CG:3211, H-A:TYR:531:OH:4793, V-A:TYR:539:CD2:4872, V-A:ASP:366:CB:3210, V-A:TYR:539:CE2:4874, V-A:TYR:539:CZ:4875, V-A:PRO:540:CA:4881, V-B:TYR:539:CE1:9847, V-A:GLU:543:CD:4906, V-B:ILE:538:CA:9832, V-B:ARG:545:CZ:9898, V-B:TYR:539:CD1:9845, V-A:ASN:362:CB:3174, H-B:ARG:545:NE:9896, H-B:GLY:454:N:9022, V-A:PRO:540:CB:4883, V-A:LEU:363:CD1:3187, H-B:TYR:484:OH:9320, V-A:TYR:531:CE2:4791, V-B:HIS:456:CE1:9042, V-B:ASP:366:CB:8184, H-A:TYR:539:OH:4876, V-B:ARG:545:CG:9894, V-B:ARG:545:CD:9895, V-A:LEU:363:CB:3185, V-A:LEU:363:CA:3183, H-B:TYR:539:N:9842, V-A:ASN:362:C:3170, V-B:GLY:453:C:9014, V-B:GLY:453:CA:9016, V-A:LEU:363:C:3181"]

$$$$
RR15_Rahimova_2017
     RDKit          3D

 45 49  0  0  0  0  0  0  0  0999 V2000
  133.7750  120.9080   60.6890 C   0  0  0  0  0  0  0  0  0  0  0  0
  133.8920  122.3270   60.7310 O   0  0  0  0  0  0  0  0  0  0  0  0
  133.3370  123.0870   59.7160 C   0  0  0  0  0  0  0  0  0  0  0  0
  134.0890  123.6940   58.6980 C   0  0  0  0  0  0  0  0  0  0  0  0
  133.4670  124.4490   57.7070 C   0  0  0  0  0  0  0  0  0  0  0  0
  132.0790  124.6210   57.7040 C   0  0  0  0  0  0  0  0  0  0  0  0
  131.4080  125.4420   56.6370 C   0  0  0  0  0  0  0  0  0  0  0  0
  131.8480  125.4980   55.3870 N   0  0  0  0  0  0  0  0  0  0  0  0
  130.9900  126.3470   54.7190 N   0  0  0  0  0  0  0  0  0  0  0  0
  130.0920  126.6810   55.6460 N   0  0  0  0  0  0  0  0  0  0  0  0
  129.0780  127.7070   55.4080 C   0  0  0  0  0  0  0  0  0  0  0  0
  128.6620  128.5120   56.6650 C   0  0  0  0  0  0  0  0  0  0  0  0
  128.6080  129.7410   56.5780 O   0  0  0  0  0  0  0  0  0  0  0  0
  128.3380  127.8490   57.8170 N   0  0  0  0  0  0  0  0  0  0  0  0
  129.3050  127.7160   58.9240 C   0  0  0  0  0  0  0  0  0  0  0  0
  129.5710  129.0390   59.6750 C   0  0  0  0  0  0  0  0  0  0  0  0
  130.8510  129.7880   59.2370 C   0  0  0  0  0  0  0  0  0  0  0  0
  130.7080  130.5100   57.9690 N   0  0  0  0  0  0  0  0  0  0  0  0
  129.9150  131.7430   58.0810 C   0  0  0  0  0  0  0  0  0  0  0  0
  129.8670  132.5080   56.7400 C   0  0  0  0  0  0  0  0  0  0  0  0
  131.1870  132.7560   56.2690 O   0  0  0  0  0  0  0  0  0  0  0  0
  131.9240  131.5560   56.0600 C   0  0  0  0  0  0  0  0  0  0  0  0
  132.0310  130.7670   57.3830 C   0  0  0  0  0  0  0  0  0  0  0  0
  126.9530  127.3840   58.1360 C   0  0  2  0  0  0  0  0  0  0  0  0
  126.4620  126.1950   57.2530 C   0  0  0  0  0  0  0  0  0  0  0  0
  126.8950  126.0290   56.1120 O   0  0  0  0  0  0  0  0  0  0  0  0
  125.5810  125.3620   57.8360 N   0  0  0  0  0  0  0  0  0  0  0  0
  125.0640  124.1330   57.2450 C   0  0  0  0  0  0  0  0  0  0  0  0
  126.1180  123.0110   57.2840 C   0  0  2  0  0  0  0  0  0  0  0  0
  127.3390  123.2830   58.1790 C   0  0  0  0  0  0  0  0  0  0  0  0
  128.4290  123.6920   57.2190 C   0  0  0  0  0  0  0  0  0  0  0  0
  128.0870  122.8510   56.0010 C   0  0  0  0  0  0  0  0  0  0  0  0
  126.6670  122.9320   55.9610 O   0  0  0  0  0  0  0  0  0  0  0  0
  126.0110  128.5710   58.3020 C   0  0  0  0  0  0  0  0  0  0  0  0
  125.2000  128.9260   57.2170 C   0  0  0  0  0  0  0  0  0  0  0  0
  124.3220  130.0020   57.3110 C   0  0  0  0  0  0  0  0  0  0  0  0
  124.2460  130.7310   58.4940 C   0  0  0  0  0  0  0  0  0  0  0  0
  123.3920  131.7750   58.5860 F   0  0  0  0  0  0  0  0  0  0  0  0
  125.0440  130.3920   59.5840 C   0  0  0  0  0  0  0  0  0  0  0  0
  125.9230  129.3170   59.4890 C   0  0  0  0  0  0  0  0  0  0  0  0
  130.3340  126.1760   56.8610 N   0  0  0  0  0  0  0  0  0  0  0  0
  131.3310  124.0120   58.7200 C   0  0  0  0  0  0  0  0  0  0  0  0
  131.9430  123.2450   59.7250 C   0  0  0  0  0  0  0  0  0  0  0  0
  131.2470  122.6220   60.7460 O   0  0  0  0  0  0  0  0  0  0  0  0
  129.9380  122.1200   60.5000 C   0  0  0  0  0  0  0  0  0  0  0  0
  1  2  1  0
  2  3  1  0
  3  4  2  0
  4  5  1  0
  5  6  2  0
  6  7  1  0
  7  8  1  0
  8  9  2  0
  9 10  1  0
 10 11  1  0
 11 12  1  0
 12 13  2  0
 12 14  1  0
 14 15  1  0
 15 16  1  0
 16 17  1  0
 17 18  1  0
 18 19  1  0
 19 20  1  0
 20 21  1  0
 21 22  1  0
 22 23  1  0
 24 14  1  6
 24 25  1  0
 25 26  2  0
 25 27  1  0
 27 28  1  0
 29 28  1  6
 29 30  1  0
 30 31  1  0
 31 32  1  0
 32 33  1  0
 24 34  1  0
 34 35  2  0
 35 36  1  0
 36 37  2  0
 37 38  1  0
 37 39  1  0
 39 40  2  0
 10 41  1  0
  6 42  1  0
 42 43  2  0
 43 44  1  0
 44 45  1  0
 43  3  1  0
 41  7  2  0
 23 18  1  0
 33 29  1  0
 40 34  1  0
M  END
>  <Binding energies>  (71) 
[-9.42]

>  <Ligand effiencies>  (71) 
[-0.20478260869565218]

>  <Interactions>  (71) 
["V-B:ASP:366:CG:8185, V-A:PRO:540:N:4882, V-B:TYR:539:CD2:9846, H-B:TYR:531:OH:9767, V-B:PRO:540:CA:9855, V-A:LEU:475:CD2:4257, V-A:ILE:369:CG2:3235, V-B:ALA:541:CB:9864, H-B:ASP:366:OD2:8187, V-A:TYR:531:CZ:4792, V-A:ILE:369:CD1:3237, V-B:TYR:539:CE2:9848, V-B:PRO:540:N:9856, V-A:ASP:366:CG:3211, V-B:ILE:369:CD1:8211, H-A:TYR:531:OH:4793, V-B:PRO:540:CD:9859, V-B:PRO:540:CB:9857, V-B:ILE:369:CG2:8209, V-A:ASP:366:CB:3210, V-A:TYR:539:CE2:4874, V-A:TYR:539:CZ:4875, V-A:PRO:540:CA:4881, V-B:TYR:539:CZ:9849, V-B:TYR:539:CE1:9847, V-B:TYR:539:CG:9844, V-B:TYR:539:C:9839, V-B:TYR:539:CA:9841, V-B:TYR:531:CZ:9766, V-B:TYR:539:CD1:9845, V-A:TYR:539:C:4865, V-A:TYR:539:CG:4870, V-A:TYR:531:CE2:4791, H-B:TYR:539:OH:9850, V-B:ASP:366:C:8180, V-B:ASP:366:CB:8184, V-B:ILE:369:CB:8208, V-A:ILE:369:CB:3234, V-B:ASP:366:CA:8182, V-B:TYR:531:CE1:9764, H-A:TYR:539:N:4868, V-A:ASP:366:CA:3208, H-B:TYR:539:N:9842, V-A:TYR:539:CA:4867, V-A:ASP:366:C:3206"]

$$$$
RR17_Rahimova_2017
     RDKit          3D

 38 41  0  0  0  0  0  0  0  0999 V2000
  123.7460  123.2440   55.7780 C   0  0  0  0  0  0  0  0  0  0  0  0
  124.8200  123.1090   56.8610 C   0  0  0  0  0  0  0  0  0  0  0  0
  126.0280  122.6570   56.2530 O   0  0  0  0  0  0  0  0  0  0  0  0
  127.1000  123.5240   56.1490 C   0  0  0  0  0  0  0  0  0  0  0  0
  126.8780  124.7050   55.4440 C   0  0  0  0  0  0  0  0  0  0  0  0
  127.8980  125.6380   55.2850 C   0  0  0  0  0  0  0  0  0  0  0  0
  129.1680  125.4060   55.8310 C   0  0  0  0  0  0  0  0  0  0  0  0
  130.2490  126.4320   55.6450 C   0  0  0  0  0  0  0  0  0  0  0  0
  131.2420  126.2250   54.9410 O   0  0  0  0  0  0  0  0  0  0  0  0
  130.0790  127.7740   56.3910 C   0  0  0  0  0  0  0  0  0  0  0  0
  129.4400  129.0940   55.2990 S   0  0  0  0  0  0  0  0  0  0  0  0
  127.8140  129.2870   55.9740 C   0  0  0  0  0  0  0  0  0  0  0  0
  126.7000  128.9120   55.3900 N   0  0  0  0  0  0  0  0  0  0  0  0
  125.6470  129.2290   56.2400 N   0  0  0  0  0  0  0  0  0  0  0  0
  126.1660  129.7800   57.3080 C   0  0  0  0  0  0  0  0  0  0  0  0
  125.3640  130.2680   58.5050 C   0  0  0  0  0  0  0  0  0  0  0  0
  125.4070  129.3660   59.6530 N   0  0  0  0  0  0  0  0  0  0  0  0
  126.3070  128.2910   59.7670 C   0  0  0  0  0  0  0  0  0  0  0  0
  127.1460  128.2710   60.8810 C   0  0  0  0  0  0  0  0  0  0  0  0
  128.0640  127.2390   61.0530 C   0  0  0  0  0  0  0  0  0  0  0  0
  128.1500  126.2090   60.1120 C   0  0  0  0  0  0  0  0  0  0  0  0
  129.1680  125.0860   60.3130 C   0  0  0  0  0  0  0  0  0  0  0  0
  129.7760  125.1610   61.4990 F   0  0  0  0  0  0  0  0  0  0  0  0
  128.5700  123.8970   60.2310 F   0  0  0  0  0  0  0  0  0  0  0  0
  130.0970  125.1640   59.3600 F   0  0  0  0  0  0  0  0  0  0  0  0
  127.3030  126.2220   58.9990 C   0  0  0  0  0  0  0  0  0  0  0  0
  126.3860  127.2540   58.8280 C   0  0  0  0  0  0  0  0  0  0  0  0
  127.5390  129.8590   57.2000 N   0  0  0  0  0  0  0  0  0  0  0  0
  128.4490  130.3730   58.1360 C   0  0  0  0  0  0  0  0  0  0  0  0
  128.4770  131.7450   58.3850 C   0  0  0  0  0  0  0  0  0  0  0  0
  129.3810  132.2550   59.3120 C   0  0  0  0  0  0  0  0  0  0  0  0
  130.2590  131.3950   59.9920 C   0  0  0  0  0  0  0  0  0  0  0  0
  131.1880  131.8110   60.9270 O   0  0  0  0  0  0  0  0  0  0  0  0
  132.4360  131.1320   61.0160 C   0  0  0  0  0  0  0  0  0  0  0  0
  130.2180  130.0240   59.7280 C   0  0  0  0  0  0  0  0  0  0  0  0
  129.3150  129.5070   58.8030 C   0  0  0  0  0  0  0  0  0  0  0  0
  129.3900  124.2170   56.5410 C   0  0  0  0  0  0  0  0  0  0  0  0
  128.3670  123.2850   56.7000 C   0  0  0  0  0  0  0  0  0  0  0  0
  1  2  1  0
  2  3  1  0
  3  4  1  0
  4  5  2  0
  5  6  1  0
  6  7  2  0
  7  8  1  0
  8  9  2  0
  8 10  1  0
 10 11  1  0
 11 12  1  0
 12 13  2  0
 13 14  1  0
 14 15  2  0
 15 16  1  0
 16 17  1  0
 17 18  1  0
 18 19  2  0
 19 20  1  0
 20 21  2  0
 21 22  1  0
 22 23  1  0
 22 24  1  0
 22 25  1  0
 21 26  1  0
 26 27  2  0
 15 28  1  0
 28 29  1  0
 29 30  2  0
 30 31  1  0
 31 32  2  0
 32 33  1  0
 33 34  1  0
 32 35  1  0
 35 36  2  0
  7 37  1  0
 37 38  2  0
 38  4  1  0
 28 12  1  0
 36 29  1  0
 27 18  1  0
M  END
>  <Binding energies>  (72) 
[-7.67]

>  <Ligand effiencies>  (72) 
[-0.19666666666666666]

>  <Interactions>  (72) 
["V-B:ASP:366:CG:8185, V-A:PRO:540:N:4882, V-B:TYR:539:CD2:9846, H-B:TYR:531:OH:9767, V-B:PRO:540:CA:9855, H-B:ASP:366:OD2:8187, V-B:TYR:539:CE2:9848, V-B:PRO:540:N:9856, V-B:ILE:538:CB:9834, H-A:TYR:531:OH:4793, V-A:TYR:539:CD2:4872, V-B:TYR:531:CE2:9765, V-B:PRO:540:CD:9859, V-B:PRO:540:CB:9857, V-A:TYR:539:CE2:4874, V-B:ILE:538:CG2:9835, V-A:TYR:539:CZ:4875, H-A:ALA:541:N:4889, V-A:PRO:540:CA:4881, V-B:TYR:539:CZ:9849, V-B:TYR:539:CE1:9847, V-B:TYR:539:CG:9844, V-B:TYR:539:C:9839, V-B:LEU:363:CD1:8161, V-B:TYR:531:CZ:9766, V-B:TYR:539:CD1:9845, V-A:ASN:362:CB:3174, V-A:PRO:540:CB:4883, V-A:TYR:539:C:4865, H-B:TYR:539:OH:9850, V-B:ASP:366:CB:8184, H-A:TYR:539:OH:4876, H-B:TYR:539:N:9842, V-B:PRO:540:CG:9858, H-B:ASP:366:OD1:8186"]

$$$$
RR19_Rahimova_2017
     RDKit          3D

 46 51  0  0  0  0  0  0  0  0999 V2000
  127.2600  127.1140   54.9150 O   0  0  0  0  0  0  0  0  0  0  0  0
  128.0170  127.1110   55.8900 C   0  0  0  0  0  0  0  0  0  0  0  0
  128.0360  128.0320   56.8870 N   0  0  0  0  0  0  0  0  0  0  0  0
  127.1730  129.0370   57.2480 C   0  0  0  0  0  0  0  0  0  0  0  0
  125.6130  129.2670   56.6310 S   0  0  0  0  0  0  0  0  0  0  0  0
  127.7850  129.8230   58.1930 N   0  0  0  0  0  0  0  0  0  0  0  0
  127.3440  130.8410   58.9750 C   0  0  0  0  0  0  0  0  0  0  0  0
  126.1710  131.1860   59.1350 O   0  0  0  0  0  0  0  0  0  0  0  0
  128.4770  131.6190   59.6910 C   0  0  2  0  0  0  0  0  0  0  0  0
  128.0690  133.0240   60.2210 C   0  0  0  0  0  0  0  0  0  0  0  0
  126.8100  133.0550   61.0730 C   0  0  0  0  0  0  0  0  0  0  0  0
  125.6580  133.7430   60.6360 C   0  0  0  0  0  0  0  0  0  0  0  0
  124.4920  133.6940   61.3900 C   0  0  0  0  0  0  0  0  0  0  0  0
  124.4480  132.9540   62.5650 C   0  0  0  0  0  0  0  0  0  0  0  0
  125.5660  132.2470   62.9910 C   0  0  0  0  0  0  0  0  0  0  0  0
  126.7400  132.2820   62.2510 C   0  0  0  0  0  0  0  0  0  0  0  0
  129.7020  131.6870   58.8480 N   0  0  0  0  0  0  0  0  0  0  0  0
  130.9030  131.2280   59.3040 C   0  0  0  0  0  0  0  0  0  0  0  0
  131.1460  130.7490   60.4130 O   0  0  0  0  0  0  0  0  0  0  0  0
  131.8530  131.4220   58.1810 C   0  0  0  0  0  0  0  0  0  0  0  0
  133.2160  131.1400   58.0780 C   0  0  0  0  0  0  0  0  0  0  0  0
  133.8700  131.4260   56.8740 C   0  0  0  0  0  0  0  0  0  0  0  0
  133.1610  131.9820   55.8000 C   0  0  0  0  0  0  0  0  0  0  0  0
  131.7940  132.2560   55.9240 C   0  0  0  0  0  0  0  0  0  0  0  0
  131.1610  131.9660   57.1330 C   0  0  0  0  0  0  0  0  0  0  0  0
  129.7490  132.1320   57.5570 C   0  0  0  0  0  0  0  0  0  0  0  0
  128.8170  132.5710   56.8800 O   0  0  0  0  0  0  0  0  0  0  0  0
  129.0760  125.9860   56.0350 C   0  0  2  0  0  0  0  0  0  0  0  0
  128.6160  124.6110   55.4680 C   0  0  0  0  0  0  0  0  0  0  0  0
  127.2240  124.1970   55.9080 C   0  0  0  0  0  0  0  0  0  0  0  0
  126.1780  124.1150   54.9640 C   0  0  0  0  0  0  0  0  0  0  0  0
  124.9310  123.6380   55.3500 C   0  0  0  0  0  0  0  0  0  0  0  0
  124.7150  123.2160   56.6550 C   0  0  0  0  0  0  0  0  0  0  0  0
  125.7460  123.2550   57.5850 C   0  0  0  0  0  0  0  0  0  0  0  0
  127.0000  123.7290   57.2200 C   0  0  0  0  0  0  0  0  0  0  0  0
  129.6120  125.8530   57.4190 N   0  0  0  0  0  0  0  0  0  0  0  0
  128.8080  125.9680   58.5140 C   0  0  0  0  0  0  0  0  0  0  0  0
  127.5990  126.2020   58.5300 O   0  0  0  0  0  0  0  0  0  0  0  0
  129.6990  125.7510   59.6810 C   0  0  0  0  0  0  0  0  0  0  0  0
  129.4300  125.7580   61.0500 C   0  0  0  0  0  0  0  0  0  0  0  0
  130.4820  125.5150   61.9410 C   0  0  0  0  0  0  0  0  0  0  0  0
  131.7740  125.2690   61.4570 C   0  0  0  0  0  0  0  0  0  0  0  0
  132.0230  125.2640   60.0800 C   0  0  0  0  0  0  0  0  0  0  0  0
  130.9610  125.5100   59.2090 C   0  0  0  0  0  0  0  0  0  0  0  0
  130.9120  125.5660   57.7280 C   0  0  0  0  0  0  0  0  0  0  0  0
  131.8450  125.3910   56.9430 O   0  0  0  0  0  0  0  0  0  0  0  0
  1  2  2  0
  2  3  1  0
  3  4  1  0
  4  5  2  0
  4  6  1  0
  6  7  1  0
  7  8  2  0
  7  9  1  0
  9 10  1  6
 10 11  1  0
 11 12  2  0
 12 13  1  0
 13 14  2  0
 14 15  1  0
 15 16  2  0
  9 17  1  0
 17 18  1  0
 18 19  2  0
 18 20  1  0
 20 21  2  0
 21 22  1  0
 22 23  2  0
 23 24  1  0
 24 25  2  0
 25 26  1  0
 26 27  2  0
  2 28  1  0
 28 29  1  1
 29 30  1  0
 30 31  2  0
 31 32  1  0
 32 33  2  0
 33 34  1  0
 34 35  2  0
 28 36  1  0
 36 37  1  0
 37 38  2  0
 37 39  1  0
 39 40  2  0
 40 41  1  0
 41 42  2  0
 42 43  1  0
 43 44  2  0
 44 45  1  0
 45 46  2  0
 16 11  1  0
 26 17  1  0
 35 30  1  0
 45 36  1  0
 25 20  1  0
 44 39  1  0
M  END
>  <Binding energies>  (73) 
[-11.41]

>  <Ligand effiencies>  (73) 
[-0.23770833333333333]

>  <Interactions>  (73) 
["V-A:ILE:538:CG2:4861, V-A:PRO:540:CD:4885, V-A:PRO:540:N:4882, H-B:TYR:531:OH:9767, V-B:PRO:540:CA:9855, V-A:ILE:538:CB:4860, V-A:ILE:538:CA:4858, V-A:TYR:531:CZ:4792, V-B:PRO:540:N:9856, V-B:ILE:538:CB:9834, V-A:ASP:366:CG:3211, V-A:TYR:539:CD2:4872, V-B:TYR:531:CE2:9765, V-B:PRO:540:CD:9859, V-B:PRO:540:CB:9857, V-B:ILE:369:CG2:8209, V-B:LEU:475:CD2:9231, V-A:TYR:539:CE2:4874, V-B:ILE:538:CG2:9835, V-A:PRO:540:CA:4881, V-B:ILE:538:CA:9832, V-B:TYR:539:C:9839, V-B:TYR:531:CZ:9766, V-A:PRO:540:CB:4883, V-A:LEU:363:CD1:3187, V-A:TYR:539:C:4865, V-A:TYR:531:CE2:4791, H-B:TYR:539:OH:9850, V-B:TYR:531:CE1:9764, H-A:TYR:539:N:4868, V-A:LEU:363:CB:3185, V-A:LEU:363:CA:3183, V-B:PRO:540:CG:9858, V-B:GLY:454:CA:9021, V-B:MET:535:CG:9805"]

$$$$
RR1_Rahimova_2017
     RDKit          3D

 41 44  0  0  0  0  0  0  0  0999 V2000
  123.4890  124.3170   57.9540 C   0  0  0  0  0  0  0  0  0  0  0  0
  124.8350  124.1600   57.5200 O   0  0  0  0  0  0  0  0  0  0  0  0
  125.8070  123.8280   58.4440 C   0  0  0  0  0  0  0  0  0  0  0  0
  125.6780  124.0140   59.8300 C   0  0  0  0  0  0  0  0  0  0  0  0
  126.7160  123.6560   60.6850 C   0  0  0  0  0  0  0  0  0  0  0  0
  127.8920  123.1030   60.1760 C   0  0  0  0  0  0  0  0  0  0  0  0
  128.9000  122.8160   61.1160 N   0  0  0  0  0  0  0  0  0  0  0  0
  129.8620  121.8690   61.0770 C   0  0  0  0  0  0  0  0  0  0  0  0
  129.9710  121.0160   60.1960 O   0  0  0  0  0  0  0  0  0  0  0  0
  130.8520  121.9140   62.2520 C   0  0  0  0  0  0  0  0  0  0  0  0
  132.1370  123.2080   62.1440 S   0  0  0  0  0  0  0  0  0  0  0  0
  131.0860  124.6080   62.3380 C   0  0  0  0  0  0  0  0  0  0  0  0
  130.2200  125.0080   61.4410 N   0  0  0  0  0  0  0  0  0  0  0  0
  129.6500  126.0700   62.0020 C   0  0  0  0  0  0  0  0  0  0  0  0
  128.5650  126.8540   61.3190 C   0  0  0  0  0  0  0  0  0  0  0  0
  128.3220  126.7260   59.9420 C   0  0  0  0  0  0  0  0  0  0  0  0
  127.3080  127.4700   59.3350 C   0  0  0  0  0  0  0  0  0  0  0  0
  126.5530  128.3330   60.1260 C   0  0  0  0  0  0  0  0  0  0  0  0
  126.7610  128.4820   61.4590 N   0  0  0  0  0  0  0  0  0  0  0  0
  127.7500  127.7490   62.0300 C   0  0  0  0  0  0  0  0  0  0  0  0
  130.0990  126.3860   63.2020 N   0  0  0  0  0  0  0  0  0  0  0  0
  131.0240  125.4470   63.4200 N   0  0  0  0  0  0  0  0  0  0  0  0
  131.7680  125.4150   64.6800 C   0  0  0  0  0  0  0  0  0  0  0  0
  130.8970  125.3880   65.9480 C   0  0  0  0  0  0  0  0  0  0  0  0
  130.5060  124.3160   66.4240 O   0  0  0  0  0  0  0  0  0  0  0  0
  130.6120  126.5970   66.4670 N   0  0  0  0  0  0  0  0  0  0  0  0
  129.9570  126.6460   67.6900 N   0  0  0  0  0  0  0  0  0  0  0  0
  130.5030  127.4000   68.6690 C   0  0  0  0  0  0  0  0  0  0  0  0
  131.4890  128.1280   68.5120 O   0  0  0  0  0  0  0  0  0  0  0  0
  129.8090  127.3320   70.0140 C   0  0  0  0  0  0  0  0  0  0  0  0
  128.5100  127.8320   70.1560 C   0  0  0  0  0  0  0  0  0  0  0  0
  127.8590  127.7910   71.3840 C   0  0  0  0  0  0  0  0  0  0  0  0
  128.4930  127.2520   72.5150 C   0  0  0  0  0  0  0  0  0  0  0  0
  127.9080  127.1930   73.7670 O   0  0  0  0  0  0  0  0  0  0  0  0
  126.8890  128.1260   74.1090 C   0  0  0  0  0  0  0  0  0  0  0  0
  129.7970  126.7530   72.3960 C   0  0  0  0  0  0  0  0  0  0  0  0
  130.3850  126.2510   73.5450 O   0  0  0  0  0  0  0  0  0  0  0  0
  131.7710  125.9270   73.5430 C   0  0  0  0  0  0  0  0  0  0  0  0
  130.4420  126.7940   71.1470 C   0  0  0  0  0  0  0  0  0  0  0  0
  128.0240  122.9140   58.7920 C   0  0  0  0  0  0  0  0  0  0  0  0
  126.9830  123.2730   57.9400 C   0  0  0  0  0  0  0  0  0  0  0  0
  1  2  1  0
  2  3  1  0
  3  4  2  0
  4  5  1  0
  5  6  2  0
  6  7  1  0
  7  8  1  0
  8  9  2  0
  8 10  1  0
 10 11  1  0
 11 12  1  0
 12 13  2  0
 13 14  1  0
 14 15  1  0
 15 16  2  0
 16 17  1  0
 17 18  2  0
 18 19  1  0
 19 20  2  0
 14 21  2  0
 21 22  1  0
 22 23  1  0
 23 24  1  0
 24 25  2  0
 24 26  1  0
 26 27  1  0
 27 28  1  0
 28 29  2  0
 28 30  1  0
 30 31  2  0
 31 32  1  0
 32 33  2  0
 33 34  1  0
 34 35  1  0
 33 36  1  0
 36 37  1  0
 37 38  1  0
 36 39  2  0
  6 40  1  0
 40 41  2  0
 41  3  1  0
 22 12  1  0
 39 30  1  0
 20 15  1  0
M  END
>  <Binding energies>  (74) 
[-9.38]

>  <Ligand effiencies>  (74) 
[-0.2131818181818182]

>  <Interactions>  (74) 
["V-B:ASP:366:CG:8185, H-B:TYR:531:OH:9767, V-B:PRO:540:CA:9855, V-A:LEU:475:CD2:4257, V-B:ALA:541:CB:9864, V-B:PRO:540:N:9856, V-B:TYR:531:CE2:9765, V-B:PRO:540:CB:9857, H-B:GLU:543:OE1:9881, H-A:GLU:543:OE2:4908, V-A:GLU:543:CD:4906, H-B:ARG:545:NH2:9900, V-A:HIS:456:CE1:4068, H-A:TYR:484:OH:4346, V-B:TYR:539:C:9839, V-B:PRO:540:C:9853, V-B:GLU:543:CD:9880, V-A:ARG:545:CZ:4924, V-B:GLU:543:CB:9878, V-A:GLU:543:CG:4905, V-B:HIS:456:CE1:9042, V-B:ASP:366:CB:8184, V-B:GLY:544:C:9884, V-B:HIS:456:CG:9038, V-A:GLY:544:C:4910, H-A:HIS:456:NE2:4069, V-A:GLU:543:C:4900, V-B:LYS:547:CE:9922, V-A:HIS:456:CD2:4066, V-B:HIS:456:CD2:9040, V-A:HIS:456:CG:4064, H-B:LYS:547:NZ:9923, H-A:LYS:547:NZ:4949, H-B:GLU:543:O:9875, V-B:LEU:363:CA:8157, V-B:LYS:547:CD:9921, V-A:HIS:456:CB:4063, H-A:ARG:545:N:4918, H-A:GLY:544:N:4913"]

$$$$
RR22_Rahimova_2017
     RDKit          3D

 31 36  0  0  0  0  0  0  0  0999 V2000
  124.4870  129.6220   55.7510 O   0  0  0  0  0  0  0  0  0  0  0  0
  125.2710  129.9250   56.6480 C   0  0  0  0  0  0  0  0  0  0  0  0
  124.9780  130.1700   57.9780 N   0  0  0  0  0  0  0  0  0  0  0  0
  126.0230  130.4540   58.9140 C   0  0  1  0  0  0  0  0  0  0  0  0
  125.6680  131.7080   59.5030 O   0  0  0  0  0  0  0  0  0  0  0  0
  125.4740  131.7610   60.8840 C   0  0  0  0  0  0  0  0  0  0  0  0
  124.7840  132.8700   61.3730 C   0  0  0  0  0  0  0  0  0  0  0  0
  124.5870  133.0130   62.7470 C   0  0  0  0  0  0  0  0  0  0  0  0
  125.0860  132.0530   63.6280 C   0  0  0  0  0  0  0  0  0  0  0  0
  125.7770  130.9430   63.1380 C   0  0  0  0  0  0  0  0  0  0  0  0
  125.9610  130.7740   61.7620 C   0  0  0  0  0  0  0  0  0  0  0  0
  126.7300  129.6330   61.1350 C   0  0  1  0  0  0  0  0  0  0  0  0
  126.7720  128.2460   61.7450 C   0  0  0  0  0  0  0  0  0  0  0  0
  126.9330  127.4060   60.4750 C   0  0  0  0  0  0  0  0  0  0  0  0
  127.4120  126.0100   60.4970 C   0  0  0  0  0  0  0  0  0  0  0  0
  126.5010  124.9450   60.5720 C   0  0  0  0  0  0  0  0  0  0  0  0
  126.9580  123.6300   60.5910 C   0  0  0  0  0  0  0  0  0  0  0  0
  128.3240  123.3710   60.5360 C   0  0  0  0  0  0  0  0  0  0  0  0
  129.2410  124.4170   60.4620 C   0  0  0  0  0  0  0  0  0  0  0  0
  128.7860  125.7320   60.4410 C   0  0  0  0  0  0  0  0  0  0  0  0
  126.5790  128.0660   59.4370 N   0  0  0  0  0  0  0  0  0  0  0  0
  126.1500  129.3350   59.8600 N   0  0  0  0  0  0  0  0  0  0  0  0
  127.2860  130.6850   58.0980 C   0  0  0  0  0  0  0  0  0  0  0  0
  128.3830  131.3020   58.5970 C   0  0  0  0  0  0  0  0  0  0  0  0
  129.6710  131.5710   57.9280 C   0  0  0  0  0  0  0  0  0  0  0  0
  130.9060  131.1620   58.4500 C   0  0  0  0  0  0  0  0  0  0  0  0
  132.0850  131.4530   57.7610 C   0  0  0  0  0  0  0  0  0  0  0  0
  131.9970  132.1580   56.5610 C   0  0  0  0  0  0  0  0  0  0  0  0
  130.8180  132.5740   56.0370 N   0  0  0  0  0  0  0  0  0  0  0  0
  129.6820  132.2800   56.7210 C   0  0  0  0  0  0  0  0  0  0  0  0
  127.0650  130.1330   56.4310 S   0  0  0  0  0  0  0  0  0  0  0  0
  1  2  2  0
  2  3  1  0
  4  3  1  6
  4  5  1  0
  5  6  1  0
  6  7  2  0
  7  8  1  0
  8  9  2  0
  9 10  1  0
 10 11  2  0
 11 12  1  0
 12 13  1  1
 13 14  1  0
 14 15  1  0
 15 16  2  0
 16 17  1  0
 17 18  2  0
 18 19  1  0
 19 20  2  0
 14 21  2  0
 21 22  1  0
  4 23  1  0
 23 24  2  0
 24 25  1  0
 25 26  2  0
 26 27  1  0
 27 28  2  0
 28 29  1  0
 29 30  2  0
 23 31  1  0
 31  2  1  0
 22  4  1  0
 30 25  1  0
 11  6  1  0
 22 12  1  0
 20 15  1  0
M  END
>  <Binding energies>  (75) 
[-8.71]

>  <Ligand effiencies>  (75) 
[-0.2721875]

>  <Interactions>  (75) 
["V-A:PRO:540:CD:4885, V-B:ASP:366:CG:8185, V-A:PRO:540:N:4882, H-B:TYR:531:OH:9767, V-B:PRO:540:CA:9855, V-A:ILE:538:CB:4860, V-B:LEU:475:CD2:9231, V-A:TYR:539:CE2:4874, V-A:TYR:539:CZ:4875, V-A:PRO:540:CA:4881, V-B:PRO:540:C:9853, V-A:PRO:540:CB:4883, V-A:TYR:539:C:4865, V-A:TYR:539:CG:4870, V-B:ASP:366:CB:8184, H-A:TYR:539:OH:4876, V-B:TYR:531:CE1:9764, H-A:TYR:539:N:4868, V-B:GLY:454:CA:9021, V-A:TYR:539:CA:4867, H-B:ASP:366:OD1:8186, H-B:ASP:366:O:8181"]

$$$$
RR24_Rahimova_2017
     RDKit          3D

 43 49  0  0  0  0  0  0  0  0999 V2000
  130.4730  124.3980   57.6750 C   0  0  0  0  0  0  0  0  0  0  0  0
  129.7600  124.3950   56.3150 C   0  0  2  0  0  0  0  0  0  0  0  0
  130.1080  125.6330   55.4370 C   0  0  0  0  0  0  0  0  0  0  0  0
  131.2150  125.7700   54.9050 O   0  0  0  0  0  0  0  0  0  0  0  0
  129.0770  126.5250   55.3590 O   0  0  0  0  0  0  0  0  0  0  0  0
  129.0600  127.6190   56.1930 C   0  0  0  0  0  0  0  0  0  0  0  0
  128.1550  128.6540   55.9470 C   0  0  0  0  0  0  0  0  0  0  0  0
  128.1230  129.7610   56.7890 C   0  0  0  0  0  0  0  0  0  0  0  0
  128.9870  129.8350   57.8850 C   0  0  0  0  0  0  0  0  0  0  0  0
  128.9600  131.0670   58.7980 C   0  0  1  0  0  0  0  0  0  0  0  0
  127.6330  131.1730   59.5850 C   0  0  0  0  0  0  0  0  0  0  0  0
  127.5880  131.3440   60.9190 C   0  0  0  0  0  0  0  0  0  0  0  0
  128.7250  131.4350   61.6840 N   0  0  0  0  0  0  0  0  0  0  0  0
  129.9760  131.3540   61.1170 C   0  0  0  0  0  0  0  0  0  0  0  0
  130.9940  131.4710   62.0080 N   0  0  0  0  0  0  0  0  0  0  0  0
  132.2990  131.3370   61.6440 C   0  0  0  0  0  0  0  0  0  0  0  0
  133.1490  131.1340   62.5120 O   0  0  0  0  0  0  0  0  0  0  0  0
  132.5000  131.2820   60.2730 N   0  0  0  0  0  0  0  0  0  0  0  0
  133.9050  131.2280   59.8200 C   0  0  0  0  0  0  0  0  0  0  0  0
  131.5410  131.1580   59.2830 C   0  0  0  0  0  0  0  0  0  0  0  0
  131.7960  131.0610   58.0790 O   0  0  0  0  0  0  0  0  0  0  0  0
  130.1620  131.1750   59.7830 C   0  0  0  0  0  0  0  0  0  0  0  0
  126.2140  131.4090   61.3870 C   0  0  0  0  0  0  0  0  0  0  0  0
  125.6460  131.5680   62.6520 C   0  0  0  0  0  0  0  0  0  0  0  0
  124.2550  131.5910   62.7770 C   0  0  0  0  0  0  0  0  0  0  0  0
  123.4440  131.4570   61.6450 C   0  0  0  0  0  0  0  0  0  0  0  0
  124.0190  131.2980   60.3810 C   0  0  0  0  0  0  0  0  0  0  0  0
  125.4100  131.2750   60.2630 C   0  0  0  0  0  0  0  0  0  0  0  0
  126.2690  131.1260   59.0700 C   0  0  0  0  0  0  0  0  0  0  0  0
  125.9560  130.9890   57.8880 O   0  0  0  0  0  0  0  0  0  0  0  0
  129.8800  128.7890   58.1400 C   0  0  0  0  0  0  0  0  0  0  0  0
  129.9120  127.6800   57.2990 C   0  0  0  0  0  0  0  0  0  0  0  0
  128.2880  124.1920   56.4540 N   0  0  0  0  0  0  0  0  0  0  0  0
  127.5660  124.8380   57.4130 C   0  0  0  0  0  0  0  0  0  0  0  0
  127.9870  125.6260   58.2620 O   0  0  0  0  0  0  0  0  0  0  0  0
  126.1640  124.3900   57.2210 C   0  0  0  0  0  0  0  0  0  0  0  0
  124.9980  124.7190   57.9130 C   0  0  0  0  0  0  0  0  0  0  0  0
  123.7920  124.1380   57.5050 C   0  0  0  0  0  0  0  0  0  0  0  0
  123.7670  123.2480   56.4240 C   0  0  0  0  0  0  0  0  0  0  0  0
  124.9470  122.9310   55.7430 C   0  0  0  0  0  0  0  0  0  0  0  0
  126.1400  123.5190   56.1660 C   0  0  0  0  0  0  0  0  0  0  0  0
  127.5260  123.3860   55.6530 C   0  0  0  0  0  0  0  0  0  0  0  0
  127.9070  122.6990   54.7040 O   0  0  0  0  0  0  0  0  0  0  0  0
  2  1  1  1
  2  3  1  0
  3  4  2  0
  3  5  1  0
  5  6  1  0
  6  7  2  0
  7  8  1  0
  8  9  2  0
 10  9  1  1
 10 11  1  0
 11 12  2  0
 12 13  1  0
 13 14  1  0
 14 15  1  0
 15 16  1  0
 16 17  2  0
 16 18  1  0
 18 19  1  0
 18 20  1  0
 20 21  2  0
 20 22  1  0
 12 23  1  0
 23 24  2  0
 24 25  1  0
 25 26  2  0
 26 27  1  0
 27 28  2  0
 28 29  1  0
 29 30  2  0
  9 31  1  0
 31 32  2  0
  2 33  1  0
 33 34  1  0
 34 35  2  0
 34 36  1  0
 36 37  2  0
 37 38  1  0
 38 39  2  0
 39 40  1  0
 40 41  2  0
 41 42  1  0
 42 43  2  0
 32  6  1  0
 42 33  1  0
 22 10  1  0
 28 23  1  0
 41 36  1  0
 29 11  1  0
 22 14  2  0
M  END
>  <Binding energies>  (76) 
[-11.9]

>  <Ligand effiencies>  (76) 
[-0.2644444444444444]

>  <Interactions>  (76) 
["V-B:ASP:366:CG:8185, V-B:TYR:539:CE2:9848, V-B:PRO:540:N:9856, V-B:ILE:538:CB:9834, V-A:ASP:366:CG:3211, V-B:ILE:369:CD1:8211, H-A:TYR:531:OH:4793, V-B:TYR:531:CE2:9765, V-B:PRO:540:CD:9859, V-B:PRO:540:CB:9857, V-A:TYR:539:CE2:4874, V-B:ILE:538:CG2:9835, V-A:TYR:539:CZ:4875, V-A:PRO:540:CA:4881, V-B:TYR:539:CZ:9849, H-A:GLU:543:OE2:4908, V-B:TYR:539:CE1:9847, V-A:ALA:541:CB:4890, V-A:GLU:543:CD:4906, V-B:ILE:538:CA:9832, V-B:LEU:363:CD1:8161, V-B:TYR:531:CZ:9766, H-A:GLU:543:OE1:4907, V-B:TYR:539:CD1:9845, V-A:ASN:362:CB:3174, V-A:PRO:540:CB:4883, H-A:ARG:545:NH2:4926, H-B:TYR:539:OH:9850, H-A:TYR:539:OH:4876, V-A:PRO:540:C:4879, V-A:LEU:363:CA:3183, V-B:LEU:363:CA:8157, H-B:TYR:539:N:9842, V-B:PRO:540:CG:9858, V-A:ASN:362:C:3170, V-A:ALA:541:C:4886, V-B:GLY:454:CA:9021, V-A:ALA:541:CA:4888, H-A:ASN:362:ND2:3177, H-A:ALA:541:O:4887"]

$$$$
RR25_Rahimova_2017
     RDKit          3D

 39 44  0  0  0  0  0  0  0  0999 V2000
  131.3670  125.9030   55.1020 O   0  0  0  0  0  0  0  0  0  0  0  0
  131.3670  125.5790   56.2900 C   0  0  0  0  0  0  0  0  0  0  0  0
  132.3770  124.7390   56.6910 O   0  0  0  0  0  0  0  0  0  0  0  0
  132.6320  124.5050   58.0300 C   0  0  0  0  0  0  0  0  0  0  0  0
  133.9330  124.1310   58.3640 C   0  0  0  0  0  0  0  0  0  0  0  0
  134.2580  123.8710   59.6930 C   0  0  0  0  0  0  0  0  0  0  0  0
  133.2910  123.9770   60.7040 C   0  0  0  0  0  0  0  0  0  0  0  0
  133.6420  123.7070   62.1200 N   0  0  0  0  0  0  0  0  0  0  0  0
  134.0500  124.6370   62.8120 O   0  0  0  0  0  0  0  0  0  0  0  0
  133.5140  122.5650   62.5500 O   0  0  0  0  0  0  0  0  0  0  0  0
  131.9840  124.3420   60.3450 C   0  0  0  0  0  0  0  0  0  0  0  0
  131.6390  124.5990   59.0150 C   0  0  0  0  0  0  0  0  0  0  0  0
  130.2440  125.0080   58.5780 C   0  0  0  0  0  0  0  0  0  0  0  0
  130.3400  125.9980   57.3820 C   0  0  2  0  0  0  0  0  0  0  0  0
  128.9260  126.3630   56.8430 C   0  0  0  0  0  0  0  0  0  0  0  0
  127.9910  125.6730   57.2600 O   0  0  0  0  0  0  0  0  0  0  0  0
  128.7090  127.4590   56.0550 N   0  0  0  0  0  0  0  0  0  0  0  0
  129.7850  128.1200   55.2870 C   0  0  0  0  0  0  0  0  0  0  0  0
  129.5420  129.6430   55.2910 C   0  0  0  0  0  0  0  0  0  0  0  0
  128.2040  129.9730   54.7930 N   0  0  0  0  0  0  0  0  0  0  0  0
  128.0180  131.4250   54.6700 C   0  0  0  0  0  0  0  0  0  0  0  0
  129.3310  132.2220   54.8940 C   0  0  0  0  0  0  0  0  0  0  0  0
  129.9990  132.0270   56.2140 N   0  0  0  0  0  0  0  0  0  0  0  0
  129.1570  132.0200   57.3050 C   0  0  0  0  0  0  0  0  0  0  0  0
  127.9360  132.1980   57.2190 O   0  0  0  0  0  0  0  0  0  0  0  0
  129.8430  131.7550   58.6310 C   0  0  0  0  0  0  0  0  0  0  0  0
  129.0770  131.7000   59.8030 C   0  0  0  0  0  0  0  0  0  0  0  0
  129.6740  131.4500   61.0380 C   0  0  0  0  0  0  0  0  0  0  0  0
  131.0490  131.2450   61.1410 C   0  0  0  0  0  0  0  0  0  0  0  0
  131.8630  131.2920   59.9840 C   0  0  0  0  0  0  0  0  0  0  0  0
  133.2630  131.0910   60.0160 C   0  0  0  0  0  0  0  0  0  0  0  0
  134.0050  131.1470   58.8380 C   0  0  0  0  0  0  0  0  0  0  0  0
  133.3890  131.4010   57.6150 C   0  0  0  0  0  0  0  0  0  0  0  0
  132.0050  131.6050   57.5340 C   0  0  0  0  0  0  0  0  0  0  0  0
  131.2430  131.5490   58.7290 C   0  0  0  0  0  0  0  0  0  0  0  0
  131.3700  131.8700   56.1830 C   0  0  0  0  0  0  0  0  0  0  0  0
  132.0370  131.9220   55.1440 O   0  0  0  0  0  0  0  0  0  0  0  0
  127.1890  129.3700   55.6580 C   0  0  0  0  0  0  0  0  0  0  0  0
  127.3190  127.8280   55.7020 C   0  0  0  0  0  0  0  0  0  0  0  0
  1  2  2  0
  2  3  1  0
  3  4  1  0
  4  5  2  0
  5  6  1  0
  6  7  2  0
  7  8  1  0
  8  9  2  0
  8 10  1  0
  7 11  1  0
 11 12  2  0
 12 13  1  0
 13 14  1  0
 14 15  1  6
 15 16  2  0
 15 17  1  0
 17 18  1  0
 18 19  1  0
 19 20  1  0
 20 21  1  0
 21 22  1  0
 22 23  1  0
 23 24  1  0
 24 25  2  0
 24 26  1  0
 26 27  2  0
 27 28  1  0
 28 29  2  0
 29 30  1  0
 30 31  2  0
 31 32  1  0
 32 33  2  0
 33 34  1  0
 34 35  2  0
 34 36  1  0
 36 37  2  0
 20 38  1  0
 38 39  1  0
 14  2  1  0
 39 17  1  0
 12  4  1  0
 36 23  1  0
 35 26  1  0
 35 30  1  0
M  CHG  2   8   1  10  -1
M  END
>  <Binding energies>  (77) 
[-11.13]

>  <Ligand effiencies>  (77) 
[-0.2853846153846154]

>  <Interactions>  (77) 
["V-A:PRO:540:CD:4885, V-A:PRO:540:N:4882, V-A:ILE:369:CG2:3235, V-A:ILE:538:CB:4860, V-A:ILE:538:CA:4858, V-A:ILE:369:CD1:3237, V-B:TYR:539:CE2:9848, V-A:ASP:366:CG:3211, H-A:TYR:531:OH:4793, V-A:TYR:539:CD2:4872, V-A:ASP:366:CB:3210, V-A:TYR:539:CZ:4875, V-A:PRO:540:CA:4881, V-B:TYR:539:CZ:9849, H-A:GLY:454:N:4048, V-A:ASN:362:CB:3174, V-A:PRO:540:CB:4883, V-A:TYR:539:C:4865, V-A:TYR:539:CG:4870, V-A:TYR:539:CE1:4873, V-A:TYR:539:CD1:4871, H-B:TYR:539:OH:9850, V-A:ILE:369:CB:3234, V-A:PRO:540:C:4879, V-A:GLY:454:CA:4047, V-A:LEU:363:CB:3185, V-A:LEU:363:CA:3183, V-A:ASP:366:CA:3208, V-A:ILE:538:C:4856, V-A:ASN:362:C:3170, H-A:ARG:545:NH1:4925, V-A:ASP:366:C:3206"]

$$$$
RR27_Rahimova_2017
     RDKit          3D

 39 44  0  0  0  0  0  0  0  0999 V2000
  126.6770  129.7440   58.8730 O   0  0  0  0  0  0  0  0  0  0  0  0
  127.5470  129.8520   59.7420 C   0  0  0  0  0  0  0  0  0  0  0  0
  128.2700  131.2210   59.8970 C   0  0  0  0  0  0  0  0  0  0  0  0
  127.3190  132.3660   60.2910 C   0  0  0  0  0  0  0  0  0  0  0  0
  125.9240  132.2120   60.2670 C   0  0  0  0  0  0  0  0  0  0  0  0
  125.0930  133.2670   60.6320 C   0  0  0  0  0  0  0  0  0  0  0  0
  125.6520  134.4810   61.0230 C   0  0  0  0  0  0  0  0  0  0  0  0
  127.0330  134.6500   61.0500 C   0  0  0  0  0  0  0  0  0  0  0  0
  127.8640  133.5950   60.6850 C   0  0  0  0  0  0  0  0  0  0  0  0
  129.1860  131.5230   58.6950 C   0  0  0  0  0  0  0  0  0  0  0  0
  128.6780  132.0310   57.4910 C   0  0  0  0  0  0  0  0  0  0  0  0
  129.5330  132.2820   56.4200 C   0  0  0  0  0  0  0  0  0  0  0  0
  130.8940  132.0220   56.5460 C   0  0  0  0  0  0  0  0  0  0  0  0
  131.4100  131.5070   57.7330 C   0  0  0  0  0  0  0  0  0  0  0  0
  130.5560  131.2560   58.8020 C   0  0  0  0  0  0  0  0  0  0  0  0
  127.7770  128.8620   60.6520 N   0  0  0  0  0  0  0  0  0  0  0  0
  128.9530  128.8280   61.5340 C   0  0  0  0  0  0  0  0  0  0  0  0
  130.0770  128.1110   60.7540 C   0  0  0  0  0  0  0  0  0  0  0  0
  129.6510  126.6990   60.2410 C   0  0  0  0  0  0  0  0  0  0  0  0
  130.6960  125.9890   59.3610 C   0  0  0  0  0  0  0  0  0  0  0  0
  130.6650  126.2790   58.0280 N   0  0  0  0  0  0  0  0  0  0  0  0
  131.5860  125.6980   57.2090 C   0  0  0  0  0  0  0  0  0  0  0  0
  131.6590  125.9140   55.8580 O   0  0  0  0  0  0  0  0  0  0  0  0
  132.5310  124.8190   57.7720 C   0  0  0  0  0  0  0  0  0  0  0  0
  133.5650  124.0930   57.2570 N   0  0  0  0  0  0  0  0  0  0  0  0
  134.1430  123.4010   58.3050 N   0  0  0  0  0  0  0  0  0  0  0  0
  133.4830  123.7020   59.4430 N   0  0  0  0  0  0  0  0  0  0  0  0
  133.8710  123.0870   60.7100 C   0  0  0  0  0  0  0  0  0  0  0  0
  132.8100  123.2010   61.7960 C   0  0  0  0  0  0  0  0  0  0  0  0
  131.7410  122.3000   61.8340 C   0  0  0  0  0  0  0  0  0  0  0  0
  130.7750  122.3980   62.8360 C   0  0  0  0  0  0  0  0  0  0  0  0
  130.8740  123.3930   63.8080 C   0  0  0  0  0  0  0  0  0  0  0  0
  131.9440  124.2890   63.7820 C   0  0  0  0  0  0  0  0  0  0  0  0
  132.0840  125.5050   64.9990 Cl  0  0  0  0  0  0  0  0  0  0  0  0
  132.9060  124.1960   62.7750 C   0  0  0  0  0  0  0  0  0  0  0  0
  132.4560  124.5880   59.1630 C   0  0  0  0  0  0  0  0  0  0  0  0
  131.5600  125.1380   59.9860 N   0  0  0  0  0  0  0  0  0  0  0  0
  128.2230  126.7140   59.6140 C   0  0  0  0  0  0  0  0  0  0  0  0
  127.1990  127.5240   60.4490 C   0  0  0  0  0  0  0  0  0  0  0  0
  1  2  2  0
  2  3  1  0
  3  4  1  0
  4  5  2  0
  5  6  1  0
  6  7  2  0
  7  8  1  0
  8  9  2  0
  3 10  1  0
 10 11  2  0
 11 12  1  0
 12 13  2  0
 13 14  1  0
 14 15  2  0
  2 16  1  0
 16 17  1  0
 17 18  1  0
 18 19  1  0
 19 20  1  0
 20 21  2  0
 21 22  1  0
 22 23  1  0
 22 24  2  0
 24 25  1  0
 25 26  2  0
 26 27  1  0
 27 28  1  0
 28 29  1  0
 29 30  2  0
 30 31  1  0
 31 32  2  0
 32 33  1  0
 33 34  1  0
 33 35  2  0
 27 36  1  0
 36 37  2  0
 19 38  1  0
 38 39  1  0
  9  4  1  0
 15 10  1  0
 39 16  1  0
 37 20  1  0
 36 24  1  0
 35 29  1  0
M  END
>  <Binding energies>  (78) 
[-10.6]

>  <Ligand effiencies>  (78) 
[-0.265]

>  <Interactions>  (78) 
["V-A:PRO:540:CD:4885, V-A:PRO:540:N:4882, V-A:LEU:475:CD2:4257, V-A:ILE:369:CG2:3235, V-B:ALA:541:CB:9864, V-A:ILE:369:CD1:3237, V-B:TYR:539:CE2:9848, V-A:ASP:366:CG:3211, H-A:TYR:531:OH:4793, V-A:TYR:539:CD2:4872, V-A:ASP:366:CB:3210, V-B:LEU:475:CD2:9231, V-A:TYR:539:CE2:4874, V-A:TYR:539:CZ:4875, V-B:TRP:381:CH2:8344, V-A:PRO:540:CA:4881, V-B:TYR:539:CZ:9849, V-A:ALA:541:CB:4890, V-A:GLU:543:CD:4906, V-A:HIS:456:CE1:4068, V-A:ARG:545:CZ:4924, V-A:PRO:540:CB:4883, V-A:TYR:539:C:4865, V-A:TYR:539:CG:4870, V-A:TYR:539:CD1:4871, H-B:TYR:539:OH:9850, V-A:ARG:545:CD:4921, V-A:TYR:539:CA:4867"]

$$$$
RR28_Rahimova_2017
     RDKit          3D

 46 49  0  0  0  0  0  0  0  0999 V2000
  127.5000  135.8000   61.0430 C   0  0  0  0  0  0  0  0  0  0  0  0
  127.2050  134.3160   60.8560 C   0  0  0  0  0  0  0  0  0  0  0  0
  126.0420  133.9190   60.8870 O   0  0  0  0  0  0  0  0  0  0  0  0
  128.2730  133.5140   60.6650 N   0  0  0  0  0  0  0  0  0  0  0  0
  128.2930  132.0470   60.4650 C   0  0  0  0  0  0  0  0  0  0  0  0
  127.5710  131.3820   61.6730 C   0  0  0  0  0  0  0  0  0  0  0  0
  127.4340  132.0990   62.8720 C   0  0  0  0  0  0  0  0  0  0  0  0
  126.7980  131.5340   63.9730 C   0  0  0  0  0  0  0  0  0  0  0  0
  126.2850  130.2380   63.9020 C   0  0  0  0  0  0  0  0  0  0  0  0
  125.5940  129.6330   65.1230 C   0  0  0  0  0  0  0  0  0  0  0  0
  125.6310  128.2990   65.1170 F   0  0  0  0  0  0  0  0  0  0  0  0
  126.1810  130.0560   66.2430 F   0  0  0  0  0  0  0  0  0  0  0  0
  124.3170  130.0150   65.1380 F   0  0  0  0  0  0  0  0  0  0  0  0
  126.4160  129.5140   62.7140 C   0  0  0  0  0  0  0  0  0  0  0  0
  127.0530  130.0790   61.6130 C   0  0  0  0  0  0  0  0  0  0  0  0
  129.7640  131.5410   60.2520 C   0  0  0  0  0  0  0  0  0  0  0  0
  130.4080  132.0630   58.9430 C   0  0  0  0  0  0  0  0  0  0  0  0
  129.5450  131.6050   57.8420 N   0  0  0  0  0  0  0  0  0  0  0  0
  129.8170  130.4380   57.1950 C   0  0  0  0  0  0  0  0  0  0  0  0
  130.8650  129.8160   57.3810 O   0  0  0  0  0  0  0  0  0  0  0  0
  128.8600  129.9640   56.0750 C   0  0  0  0  0  0  0  0  0  0  0  0
  127.5690  129.2390   56.5460 C   0  0  0  0  0  0  0  0  0  0  0  0
  127.4970  127.7340   56.1950 C   0  0  0  0  0  0  0  0  0  0  0  0
  126.8170  127.3990   55.2210 O   0  0  0  0  0  0  0  0  0  0  0  0
  128.2790  126.8450   56.8700 N   0  0  0  0  0  0  0  0  0  0  0  0
  128.8450  127.1120   58.1970 C   0  0  0  0  0  0  0  0  0  0  0  0
  127.7600  126.7230   59.2260 C   0  0  0  0  0  0  0  0  0  0  0  0
  127.2520  125.2430   59.1160 C   0  0  0  0  0  0  0  0  0  0  0  0
  125.9760  125.1130   59.8490 N   0  0  0  0  0  0  0  0  0  0  0  0
  125.6320  124.1820   60.7620 C   0  0  0  0  0  0  0  0  0  0  0  0
  124.2260  124.2910   61.3420 C   0  0  0  0  0  0  0  0  0  0  0  0
  126.3760  123.2750   61.1350 O   0  0  0  0  0  0  0  0  0  0  0  0
  128.3030  124.3330   59.8310 C   0  0  0  0  0  0  0  0  0  0  0  0
  128.9820  124.7260   60.9970 C   0  0  0  0  0  0  0  0  0  0  0  0
  129.9100  123.8840   61.6040 C   0  0  0  0  0  0  0  0  0  0  0  0
  130.1850  122.6280   61.0600 C   0  0  0  0  0  0  0  0  0  0  0  0
  131.1980  121.6910   61.7170 C   0  0  0  0  0  0  0  0  0  0  0  0
  131.2840  120.5430   61.0410 F   0  0  0  0  0  0  0  0  0  0  0  0
  132.3960  122.2750   61.7190 F   0  0  0  0  0  0  0  0  0  0  0  0
  130.8710  121.4020   62.9780 F   0  0  0  0  0  0  0  0  0  0  0  0
  129.5250  122.2260   59.8980 C   0  0  0  0  0  0  0  0  0  0  0  0
  128.5980  123.0700   59.2930 C   0  0  0  0  0  0  0  0  0  0  0  0
  127.0520  124.8810   57.5930 C   0  0  0  0  0  0  0  0  0  0  0  0
  128.1410  125.4040   56.6190 C   0  0  0  0  0  0  0  0  0  0  0  0
  128.2040  132.2040   57.8650 C   0  0  0  0  0  0  0  0  0  0  0  0
  127.5060  131.7070   59.1570 C   0  0  0  0  0  0  0  0  0  0  0  0
  1  2  1  0
  2  3  2  0
  2  4  1  0
  4  5  1  0
  5  6  1  0
  6  7  2  0
  7  8  1  0
  8  9  2  0
  9 10  1  0
 10 11  1  0
 10 12  1  0
 10 13  1  0
  9 14  1  0
 14 15  2  0
  5 16  1  0
 16 17  1  0
 17 18  1  0
 18 19  1  0
 19 20  2  0
 19 21  1  0
 21 22  1  0
 22 23  1  0
 23 24  2  0
 23 25  1  0
 25 26  1  0
 26 27  1  0
 27 28  1  0
 28 29  1  0
 29 30  1  0
 30 31  1  0
 30 32  2  0
 28 33  1  0
 33 34  2  0
 34 35  1  0
 35 36  2  0
 36 37  1  0
 37 38  1  0
 37 39  1  0
 37 40  1  0
 36 41  1  0
 41 42  2  0
 28 43  1  0
 43 44  1  0
 18 45  1  0
 45 46  1  0
 46  5  1  0
 15  6  1  0
 44 25  1  0
 42 33  1  0
M  END
>  <Binding energies>  (79) 
[-9.03]

>  <Ligand effiencies>  (79) 
[-0.188125]

>  <Interactions>  (79) 
["V-B:ASP:366:CG:8185, V-A:PRO:540:N:4882, V-B:TYR:539:CD2:9846, H-B:TYR:531:OH:9767, V-B:PRO:540:CA:9855, H-B:ALA:541:N:9863, V-B:ASN:362:CB:8148, V-A:LEU:475:CD2:4257, V-B:ALA:541:CB:9864, H-B:ASP:366:OD2:8187, V-A:TRP:381:CH2:3370, V-B:TYR:539:CE2:9848, H-A:TYR:531:OH:4793, V-A:TYR:539:CD2:4872, V-B:PRO:540:CB:9857, V-B:LEU:475:CD2:9231, V-A:TYR:539:CE2:4874, V-A:TYR:539:CZ:4875, V-B:TRP:381:CH2:8344, V-A:PRO:540:CA:4881, V-B:TRP:381:CZ2:8342, V-A:ALA:541:CB:4890, V-B:TYR:539:C:9839, V-B:GLU:543:CD:9880, V-B:ARG:545:CZ:9898, V-A:PRO:540:CB:4883, V-A:TYR:539:C:4865, V-A:TYR:539:CG:4870, V-A:TYR:539:CE1:4873, V-B:HIS:456:CE1:9042, V-A:PRO:540:C:4879, V-B:ARG:545:CG:9894, V-B:ARG:545:CD:9895, H-A:TYR:539:O:4866, V-B:TYR:484:CZ:9319, V-B:ASN:362:C:8144, V-B:GLY:454:CA:9021, V-B:GLY:453:CA:9016, V-B:PRO:482:CB:9298, V-B:PRO:482:CG:9299, V-B:TYR:484:CE1:9317, V-A:LEU:475:CD1:4256"]

$$$$
RR29_Rahimova_2017
     RDKit          3D

 18 19  0  0  0  0  0  0  0  0999 V2000
  130.9380  120.8450   61.0650 C   0  0  0  0  0  0  0  0  0  0  0  0
  130.3440  122.1170   61.6520 C   0  0  0  0  0  0  0  0  0  0  0  0
  128.9810  122.4900   61.0270 C   0  0  0  0  0  0  0  0  0  0  0  0
  129.1520  123.1920   59.6640 C   0  0  0  0  0  0  0  0  0  0  0  0
  127.8240  123.4040   58.9530 C   0  0  0  0  0  0  0  0  0  0  0  0
  126.7570  124.0310   59.6270 C   0  0  0  0  0  0  0  0  0  0  0  0
  125.5250  124.2370   58.9910 C   0  0  0  0  0  0  0  0  0  0  0  0
  125.3960  123.7900   57.6810 C   0  0  0  0  0  0  0  0  0  0  0  0
  126.4260  123.1790   57.0230 C   0  0  0  0  0  0  0  0  0  0  0  0
  127.6620  122.9710   57.6250 C   0  0  0  0  0  0  0  0  0  0  0  0
  126.0350  122.8790   55.7560 O   0  0  0  0  0  0  0  0  0  0  0  0
  124.6550  123.1310   55.7160 C   0  0  0  0  0  0  0  0  0  0  0  0
  124.3270  123.8930   56.8470 O   0  0  0  0  0  0  0  0  0  0  0  0
  131.0000  122.7390   62.5610 N   0  0  0  0  0  0  0  0  0  0  0  0
  130.5050  123.9350   63.0320 N   0  0  0  0  0  0  0  0  0  0  0  0
  131.1710  124.7460   63.8700 C   0  0  0  0  0  0  0  0  0  0  0  0
  132.3980  124.5150   64.3400 N   0  0  0  0  0  0  0  0  0  0  0  0
  130.5690  125.8590   64.2600 N   0  0  0  0  0  0  0  0  0  0  0  0
  1  2  1  0
  2  3  1  0
  3  4  1  0
  4  5  1  0
  5  6  2  0
  6  7  1  0
  7  8  2  0
  8  9  1  0
  9 10  2  0
  9 11  1  0
 11 12  1  0
 12 13  1  0
  2 14  2  0
 14 15  1  0
 15 16  1  0
 16 17  1  0
 16 18  2  0
 10  5  1  0
 13  8  1  0
M  CHG  1  18   1
M  END
>  <Binding energies>  (80) 
[-7.4]

>  <Ligand effiencies>  (80) 
[-0.32173913043478264]

>  <Interactions>  (80) 
["V-B:TYR:539:CD2:9846, H-B:TYR:531:OH:9767, V-B:PRO:540:CA:9855, V-A:LEU:475:CD2:4257, V-B:ALA:541:CB:9864, V-B:PRO:540:N:9856, V-B:ILE:538:CB:9834, V-B:TYR:531:CE2:9765, V-B:PRO:540:CD:9859, V-B:PRO:540:CB:9857, V-B:ILE:538:CG2:9835, H-B:GLU:543:OE2:9882, H-B:GLU:543:OE1:9881, H-A:GLU:543:OE2:4908, V-B:ILE:538:CA:9832, H-A:TYR:484:OH:4346, V-B:TYR:539:C:9839, V-B:GLU:543:CD:9880, V-A:TYR:484:CZ:4345, H-B:TYR:539:N:9842"]

$$$$
RR30_Rahimova_2017
     RDKit          3D

 18 19  0  0  0  0  0  0  0  0999 V2000
  133.8600  123.8060   75.2330 C   0  0  0  0  0  0  0  0  0  0  0  0
  133.5050  125.2400   74.8150 C   0  0  0  0  0  0  0  0  0  0  0  0
  132.2570  125.2960   73.9620 C   0  0  0  0  0  0  0  0  0  0  0  0
  131.2200  124.4970   73.9890 N   0  0  0  0  0  0  0  0  0  0  0  0
  130.3510  124.9650   73.0070 N   0  0  0  0  0  0  0  0  0  0  0  0
  130.9410  125.9990   72.4640 C   0  0  0  0  0  0  0  0  0  0  0  0
  130.3310  127.0280   71.1690 S   0  0  0  0  0  0  0  0  0  0  0  0
  128.5660  127.0820   71.6170 C   0  0  0  0  0  0  0  0  0  0  0  0
  128.2350  128.2740   72.5190 C   0  0  0  0  0  0  0  0  0  0  0  0
  129.0570  129.1840   72.6400 O   0  0  0  0  0  0  0  0  0  0  0  0
  127.0450  128.2180   73.1580 N   0  0  0  0  0  0  0  0  0  0  0  0
  126.5300  129.1710   74.0250 C   0  0  0  0  0  0  0  0  0  0  0  0
  127.1300  130.2300   74.5190 N   0  0  0  0  0  0  0  0  0  0  0  0
  126.3000  130.9630   75.3590 N   0  0  0  0  0  0  0  0  0  0  0  0
  125.0980  130.4480   75.4830 C   0  0  0  0  0  0  0  0  0  0  0  0
  124.0200  131.0610   76.3450 C   0  0  0  0  0  0  0  0  0  0  0  0
  124.8860  128.9900   74.5530 S   0  0  0  0  0  0  0  0  0  0  0  0
  132.1490  126.2690   73.0220 O   0  0  0  0  0  0  0  0  0  0  0  0
  1  2  1  0
  2  3  1  0
  3  4  2  0
  4  5  1  0
  5  6  2  0
  6  7  1  0
  7  8  1  0
  8  9  1  0
  9 10  2  0
  9 11  1  0
 11 12  1  0
 12 13  2  0
 13 14  1  0
 14 15  2  0
 15 16  1  0
 15 17  1  0
  6 18  1  0
 18  3  1  0
 17 12  1  0
M  END
>  <Binding energies>  (81) 
[-7.46]

>  <Ligand effiencies>  (81) 
[-0.39263157894736844]

>  <Interactions>  (81) 
["V-B:GLY:544:C:9884, V-B:HIS:456:CG:9038, V-B:LYS:547:CE:9922, V-A:HIS:456:CD2:4066, V-B:HIS:456:CD2:9040, V-A:HIS:456:CG:4064, H-B:GLY:544:O:9885, H-B:LYS:547:NZ:9923, H-A:LYS:547:NZ:4949, V-B:GLY:544:CA:9886, V-A:HIS:456:C:4059, V-B:VAL:458:CG2:9059, V-B:VAL:457:C:9045, V-B:HIS:456:CB:9037, V-A:LYS:471:CD:4217, V-A:HIS:456:CB:4063, V-B:HIS:456:CA:9035, V-B:HIS:456:C:9033, V-A:VAL:458:CG2:4085, V-A:LYS:471:CE:4218, V-B:LYS:471:CE:9192, V-B:LYS:471:CD:9191, V-B:LYS:471:CG:9190, V-A:LYS:471:CG:4216, V-B:LYS:471:CB:9189, V-B:LYS:471:C:9185"]

$$$$
RR31_Rahimova_2017
     RDKit          3D

 18 19  0  0  0  0  0  0  0  0999 V2000
  132.0500  131.9490   55.3980 C   0  0  0  0  0  0  0  0  0  0  0  0
  131.1160  131.8730   56.5990 C   0  0  0  0  0  0  0  0  0  0  0  0
  129.7710  132.2050   56.4380 C   0  0  0  0  0  0  0  0  0  0  0  0
  128.8910  132.1420   57.5160 C   0  0  0  0  0  0  0  0  0  0  0  0
  129.3280  131.7370   58.7870 C   0  0  0  0  0  0  0  0  0  0  0  0
  128.4600  131.6790   59.8800 N   0  0  0  0  0  0  0  0  0  0  0  0
  127.3080  130.7580   59.9160 C   0  0  0  0  0  0  0  0  0  0  0  0
  126.2480  131.1140   60.9850 C   0  0  0  0  0  0  0  0  0  0  0  0
  126.8540  131.1920   62.3170 N   0  0  0  0  0  0  0  0  0  0  0  0
  125.8670  131.4930   63.3580 C   0  0  0  0  0  0  0  0  0  0  0  0
  125.4850  130.2600   64.2010 C   0  0  0  0  0  0  0  0  0  0  0  0
  126.7170  129.5430   64.7760 C   0  0  0  0  0  0  0  0  0  0  0  0
  127.5080  128.8740   63.6460 N   0  0  0  0  0  0  0  0  0  0  0  0
  127.8650  132.2480   62.2760 C   0  0  0  0  0  0  0  0  0  0  0  0
  128.9680  131.9120   61.2470 C   0  0  0  0  0  0  0  0  0  0  0  0
  130.6850  131.4150   58.9380 C   0  0  0  0  0  0  0  0  0  0  0  0
  131.5790  131.4750   57.8630 C   0  0  0  0  0  0  0  0  0  0  0  0
  133.0420  131.1150   58.0930 C   0  0  0  0  0  0  0  0  0  0  0  0
  1  2  1  0
  2  3  2  0
  3  4  1  0
  4  5  2  0
  5  6  1  0
  6  7  1  0
  7  8  1  0
  8  9  1  0
  9 10  1  0
 10 11  1  0
 11 12  1  0
 12 13  1  0
  9 14  1  0
 14 15  1  0
  5 16  1  0
 16 17  2  0
 17 18  1  0
 17  2  1  0
 15  6  1  0
M  CHG  1  13   1
M  END
>  <Binding energies>  (82) 
[-7.2]

>  <Ligand effiencies>  (82) 
[-0.34285714285714286]

>  <Interactions>  (82) 
["V-A:ILE:538:CG2:4861, V-A:PRO:540:CD:4885, V-A:PRO:540:N:4882, V-A:ILE:538:CB:4860, V-A:ILE:538:CA:4858, V-A:TYR:531:CZ:4792, V-A:TYR:539:CD2:4872, V-A:TYR:539:CE2:4874, H-B:GLU:543:OE2:9882, V-A:PRO:540:CA:4881, H-B:GLU:543:OE1:9881, H-A:GLU:543:OE2:4908, V-A:ALA:541:CB:4890, V-A:GLU:543:CD:4906, H-A:GLU:543:OE1:4907, V-B:GLU:543:CD:9880, V-B:ARG:545:CZ:9898, V-A:PRO:540:CB:4883, V-A:TYR:539:C:4865, V-A:TYR:539:CG:4870, V-A:TYR:531:CE2:4791, V-A:TYR:539:CA:4867"]

$$$$
RR32_Rahimova_2017
     RDKit          3D

 18 20  0  0  0  0  0  0  0  0999 V2000
  125.6250  124.0680   61.1580 C   0  0  0  0  0  0  0  0  0  0  0  0
  126.5000  123.6570   59.9780 C   0  0  0  0  0  0  0  0  0  0  0  0
  127.8130  123.2600   60.2370 C   0  0  0  0  0  0  0  0  0  0  0  0
  128.6390  122.8750   59.1860 C   0  0  0  0  0  0  0  0  0  0  0  0
  129.9410  122.4820   59.4470 N   0  0  0  0  0  0  0  0  0  0  0  0
  130.9050  123.5370   59.8100 C   0  0  0  0  0  0  0  0  0  0  0  0
  132.3620  123.0260   59.9030 C   0  0  0  0  0  0  0  0  0  0  0  0
  132.4580  121.9480   60.8870 N   0  0  0  0  0  0  0  0  0  0  0  0
  133.8370  121.4880   60.9980 C   0  0  0  0  0  0  0  0  0  0  0  0
  131.5940  120.8550   60.4440 C   0  0  0  0  0  0  0  0  0  0  0  0
  130.1260  121.3340   60.3550 C   0  0  0  0  0  0  0  0  0  0  0  0
  128.2240  122.8680   57.8930 N   0  0  0  0  0  0  0  0  0  0  0  0
  126.9500  123.2520   57.6080 C   0  0  0  0  0  0  0  0  0  0  0  0
  126.5460  123.2380   56.2510 C   0  0  0  0  0  0  0  0  0  0  0  0
  125.2560  123.6210   55.9010 C   0  0  0  0  0  0  0  0  0  0  0  0
  124.3500  124.0200   56.8760 C   0  0  0  0  0  0  0  0  0  0  0  0
  124.7160  124.0460   58.2180 C   0  0  0  0  0  0  0  0  0  0  0  0
  126.0270  123.6630   58.6240 C   0  0  0  0  0  0  0  0  0  0  0  0
  1  2  1  0
  2  3  2  0
  3  4  1  0
  4  5  1  0
  5  6  1  0
  6  7  1  0
  7  8  1  0
  8  9  1  0
  8 10  1  0
 10 11  1  0
  4 12  2  0
 12 13  1  0
 13 14  2  0
 14 15  1  0
 15 16  2  0
 16 17  1  0
 17 18  2  0
 18  2  1  0
 11  5  1  0
 18 13  1  0
M  END
>  <Binding energies>  (83) 
[-6.62]

>  <Ligand effiencies>  (83) 
[-0.36777777777777776]

>  <Interactions>  (83) 
["V-B:TYR:539:CD2:9846, V-B:PRO:540:CA:9855, V-A:LEU:475:CD2:4257, V-A:ILE:369:CG2:3235, V-B:ALA:541:CB:9864, V-A:TRP:381:CH2:3370, V-A:ILE:369:CD1:3237, V-B:TYR:539:CE2:9848, V-B:PRO:540:N:9856, V-B:ILE:538:CB:9834, V-B:TYR:531:CE2:9765, V-B:PRO:540:CB:9857, V-B:ILE:538:CG2:9835, V-B:TYR:539:C:9839, V-B:TYR:531:CZ:9766, V-B:PRO:540:C:9853"]

$$$$
RR5_Rahimova_2017
     RDKit          3D

 45 50  0  0  0  0  0  0  0  0999 V2000
  128.6780  122.4990   57.3880 O   0  0  0  0  0  0  0  0  0  0  0  0
  128.6300  123.6840   57.0620 C   0  0  0  0  0  0  0  0  0  0  0  0
  128.7180  124.0700   55.5730 C   0  0  0  0  0  0  0  0  0  0  0  0
  127.3530  124.5410   54.9540 C   0  0  2  0  0  0  0  0  0  0  0  0
  126.9870  125.9410   55.2470 N   0  0  0  0  0  0  0  0  0  0  0  0
  127.9400  126.8800   55.6180 C   0  0  0  0  0  0  0  0  0  0  0  0
  129.1570  126.7000   55.7030 O   0  0  0  0  0  0  0  0  0  0  0  0
  127.3110  128.0370   55.8900 O   0  0  0  0  0  0  0  0  0  0  0  0
  127.2840  128.5750   57.2090 C   0  0  0  0  0  0  0  0  0  0  0  0
  127.2580  130.1190   57.1720 C   0  0  0  0  0  0  0  0  0  0  0  0
  127.3560  130.7630   58.5430 C   0  0  0  0  0  0  0  0  0  0  0  0
  126.5290  130.6100   59.6590 C   0  0  0  0  0  0  0  0  0  0  0  0
  126.8240  131.2910   60.8420 C   0  0  0  0  0  0  0  0  0  0  0  0
  127.9410  132.1260   60.9100 C   0  0  0  0  0  0  0  0  0  0  0  0
  128.7670  132.2830   59.7960 C   0  0  0  0  0  0  0  0  0  0  0  0
  128.4700  131.6010   58.6140 C   0  0  0  0  0  0  0  0  0  0  0  0
  129.1480  131.5860   57.3090 C   0  0  0  0  0  0  0  0  0  0  0  0
  130.2880  132.2560   56.8570 C   0  0  0  0  0  0  0  0  0  0  0  0
  130.7150  132.0800   55.5400 C   0  0  0  0  0  0  0  0  0  0  0  0
  130.0080  131.2370   54.6800 C   0  0  0  0  0  0  0  0  0  0  0  0
  128.8720  130.5670   55.1370 C   0  0  0  0  0  0  0  0  0  0  0  0
  128.4430  130.7370   56.4550 C   0  0  0  0  0  0  0  0  0  0  0  0
  126.2010  123.6000   55.3830 C   0  0  0  0  0  0  0  0  0  0  0  0
  126.3500  122.5420   55.9610 O   0  0  0  0  0  0  0  0  0  0  0  0
  125.0020  124.1510   55.0290 O   0  0  0  0  0  0  0  0  0  0  0  0
  128.4720  124.7160   57.9210 N   0  0  0  0  0  0  0  0  0  0  0  0
  128.3430  124.8040   59.4070 C   0  0  0  0  0  0  0  0  0  0  0  0
  126.8200  124.5050   59.6210 C   0  0  0  0  0  0  0  0  0  0  0  0
  125.9260  124.4450   58.5390 C   0  0  0  0  0  0  0  0  0  0  0  0
  124.5750  124.1770   58.7410 C   0  0  0  0  0  0  0  0  0  0  0  0
  124.0930  123.9750   60.0300 C   0  0  0  0  0  0  0  0  0  0  0  0
  124.9560  124.0270   61.1190 C   0  0  0  0  0  0  0  0  0  0  0  0
  126.3080  124.2850   60.9150 C   0  0  0  0  0  0  0  0  0  0  0  0
  129.2650  123.7000   60.0230 C   0  0  0  0  0  0  0  0  0  0  0  0
  128.8170  122.3820   60.2080 C   0  0  0  0  0  0  0  0  0  0  0  0
  129.6490  121.4200   60.7760 C   0  0  0  0  0  0  0  0  0  0  0  0
  130.9380  121.7640   61.1680 C   0  0  0  0  0  0  0  0  0  0  0  0
  131.4060  123.0610   60.9920 C   0  0  0  0  0  0  0  0  0  0  0  0
  130.5770  124.0190   60.4160 C   0  0  0  0  0  0  0  0  0  0  0  0
  128.7350  126.2710   59.7910 C   0  0  0  0  0  0  0  0  0  0  0  0
  129.6710  126.9930   59.0290 C   0  0  0  0  0  0  0  0  0  0  0  0
  130.0290  128.2940   59.3700 C   0  0  0  0  0  0  0  0  0  0  0  0
  129.4510  128.9010   60.4780 C   0  0  0  0  0  0  0  0  0  0  0  0
  128.5130  128.2180   61.2430 C   0  0  0  0  0  0  0  0  0  0  0  0
  128.1570  126.9170   60.8990 C   0  0  0  0  0  0  0  0  0  0  0  0
  1  2  2  0
  2  3  1  0
  4  3  1  1
  4  5  1  0
  5  6  1  0
  6  7  2  0
  6  8  1  0
  8  9  1  0
  9 10  1  0
 10 11  1  0
 11 12  2  0
 12 13  1  0
 13 14  2  0
 14 15  1  0
 15 16  2  0
 16 17  1  0
 17 18  2  0
 18 19  1  0
 19 20  2  0
 20 21  1  0
 21 22  2  0
  4 23  1  0
 23 24  2  0
 23 25  1  0
  2 26  1  0
 26 27  1  0
 27 28  1  0
 28 29  2  0
 29 30  1  0
 30 31  2  0
 31 32  1  0
 32 33  2  0
 27 34  1  0
 34 35  2  0
 35 36  1  0
 36 37  2  0
 37 38  1  0
 38 39  2  0
 27 40  1  0
 40 41  2  0
 41 42  1  0
 42 43  2  0
 43 44  1  0
 44 45  2  0
 22 10  1  0
 33 28  1  0
 39 34  1  0
 45 40  1  0
 16 11  1  0
 22 17  1  0
M  END
>  <Binding energies>  (84) 
[-10.55]

>  <Ligand effiencies>  (84) 
[-0.2197916666666667]

>  <Interactions>  (84) 
["V-A:ILE:538:CG2:4861, V-B:ASP:366:CG:8185, V-A:PRO:540:N:4882, V-B:TYR:539:CD2:9846, H-B:TYR:531:OH:9767, V-B:PRO:540:CA:9855, V-B:ASN:362:CB:8148, V-A:LEU:475:CD2:4257, V-B:ALA:541:CB:9864, V-A:ILE:538:CB:4860, V-A:ILE:538:CA:4858, V-B:TYR:539:CE2:9848, V-B:ILE:538:CB:9834, V-A:TYR:539:CD2:4872, V-B:PRO:540:CB:9857, V-A:TYR:539:CE2:4874, V-B:ILE:538:CG2:9835, V-A:TYR:539:CZ:4875, V-A:PRO:540:CA:4881, V-B:TYR:539:CZ:9849, V-B:TYR:539:CE1:9847, V-B:ILE:538:CA:9832, V-B:TYR:539:C:9839, V-B:TYR:531:CZ:9766, V-A:TYR:539:C:4865, H-B:TYR:539:N:9842, V-B:ASN:362:C:8144, V-A:TYR:539:CA:4867, H-B:MET:535:SD:9806"]

$$$$
