1a_Ghoteimi_2023
     RDKit          3D

 67 70  0  0  0  0  0  0  0  0999 V2000
  124.8290  131.3730   63.4110 C   0  0  0  0  0  0  0  0  0  0  0  0
  123.7950  132.0150   62.4810 C   0  0  0  0  0  0  0  0  0  0  0  0
  124.0530  133.4100   62.3820 O   0  0  0  0  0  0  0  0  0  0  0  0
  124.5570  133.9520   61.2440 C   0  0  0  0  0  0  0  0  0  0  0  0
  124.0680  134.9380   60.6850 O   0  0  0  0  0  0  0  0  0  0  0  0
  125.7730  133.2330   60.7340 C   0  0  0  0  0  0  0  0  0  0  0  0
  125.6750  132.0910   59.9250 C   0  0  0  0  0  0  0  0  0  0  0  0
  126.8210  131.4440   59.4700 C   0  0  0  0  0  0  0  0  0  0  0  0
  128.0910  131.9320   59.8140 C   0  0  0  0  0  0  0  0  0  0  0  0
  129.3120  131.3560   59.4150 N   0  0  0  0  0  0  0  0  0  0  0  0
  130.4450  131.1550   60.1220 C   0  0  0  0  0  0  0  0  0  0  0  0
  130.6110  131.4430   61.3070 O   0  0  0  0  0  0  0  0  0  0  0  0
  131.5940  130.5060   59.3500 C   0  0  0  0  0  0  0  0  0  0  0  0
  131.0070  129.6700   57.8470 S   0  0  0  0  0  0  0  0  0  0  0  0
  130.4600  128.0580   58.3590 C   0  0  0  0  0  0  0  0  0  0  0  0
  131.0970  127.5840   59.4570 N   0  0  0  0  0  0  0  0  0  0  0  0
  130.7680  126.3630   59.9550 C   0  0  0  0  0  0  0  0  0  0  0  0
  131.5040  125.9180   61.1850 C   0  0  0  0  0  0  0  0  0  0  0  0
  131.0580  126.2710   62.4700 C   0  0  0  0  0  0  0  0  0  0  0  0
  131.7420  125.8560   63.6090 C   0  0  0  0  0  0  0  0  0  0  0  0
  132.8920  125.0790   63.5010 C   0  0  0  0  0  0  0  0  0  0  0  0
  133.5050  124.7110   64.6840 O   0  0  0  0  0  0  0  0  0  0  0  0
  133.2060  125.4330   65.8740 C   0  0  0  0  0  0  0  0  0  0  0  0
  133.3530  124.7220   62.2260 C   0  0  0  0  0  0  0  0  0  0  0  0
  132.6670  125.1390   61.0900 C   0  0  0  0  0  0  0  0  0  0  0  0
  129.7760  125.5880   59.3410 C   0  0  0  0  0  0  0  0  0  0  0  0
  129.1210  126.0460   58.1900 C   0  0  0  0  0  0  0  0  0  0  0  0
  128.0970  125.1510   57.5710 C   0  0  0  0  0  0  0  0  0  0  0  0
  128.4710  124.1470   56.6720 C   0  0  0  0  0  0  0  0  0  0  0  0
  127.5120  123.3080   56.1110 C   0  0  0  0  0  0  0  0  0  0  0  0
  126.1640  123.4500   56.4420 C   0  0  0  0  0  0  0  0  0  0  0  0
  125.2860  122.5730   55.8380 O   0  0  0  0  0  0  0  0  0  0  0  0
  123.8940  122.8720   55.8400 C   0  0  0  0  0  0  0  0  0  0  0  0
  125.7870  124.4510   57.3510 C   0  0  0  0  0  0  0  0  0  0  0  0
  126.7470  125.2890   57.9100 C   0  0  0  0  0  0  0  0  0  0  0  0
  129.4660  127.3210   57.6800 C   0  0  0  0  0  0  0  0  0  0  0  0
  128.8050  127.8600   56.4880 C   0  0  0  0  0  0  0  0  0  0  0  0
  128.2820  128.2840   55.5470 N   0  0  0  0  0  0  0  0  0  0  0  0
  128.1910  133.0650   60.6220 C   0  0  0  0  0  0  0  0  0  0  0  0
  127.0440  133.7120   61.0760 C   0  0  0  0  0  0  0  0  0  0  0  0
  124.5416  131.5515   64.4577 H   0  0  0  0  0  0  0  0  0  0  0  0
  124.8702  130.2902   63.2216 H   0  0  0  0  0  0  0  0  0  0  0  0
  125.8178  131.8163   63.2216 H   0  0  0  0  0  0  0  0  0  0  0  0
  123.8639  131.5570   61.4833 H   0  0  0  0  0  0  0  0  0  0  0  0
  122.7852  131.8552   62.8870 H   0  0  0  0  0  0  0  0  0  0  0  0
  124.6837  131.7031   59.6476 H   0  0  0  0  0  0  0  0  0  0  0  0
  126.7305  130.5476   58.8389 H   0  0  0  0  0  0  0  0  0  0  0  0
  129.3160  131.0180   58.4640 H   0  0  0  0  0  0  0  0  0  0  0  0
  132.3169  131.2847   59.0654 H   0  0  0  0  0  0  0  0  0  0  0  0
  132.0617  129.7525   60.0008 H   0  0  0  0  0  0  0  0  0  0  0  0
  130.1524  126.8861   62.5776 H   0  0  0  0  0  0  0  0  0  0  0  0
  131.3705  126.1446   64.6033 H   0  0  0  0  0  0  0  0  0  0  0  0
  133.4607  124.8180   66.7498 H   0  0  0  0  0  0  0  0  0  0  0  0
  133.7930  126.3631   65.8959 H   0  0  0  0  0  0  0  0  0  0  0  0
  132.1333  125.6758   65.8959 H   0  0  0  0  0  0  0  0  0  0  0  0
  134.2610  124.1096   62.1235 H   0  0  0  0  0  0  0  0  0  0  0  0
  133.0439  124.8522   60.0972 H   0  0  0  0  0  0  0  0  0  0  0  0
  129.5083  124.6097   59.7667 H   0  0  0  0  0  0  0  0  0  0  0  0
  129.5307  124.0193   56.4062 H   0  0  0  0  0  0  0  0  0  0  0  0
  127.8197  122.5264   55.4007 H   0  0  0  0  0  0  0  0  0  0  0  0
  123.5369  122.9487   56.8776 H   0  0  0  0  0  0  0  0  0  0  0  0
  123.7234  123.8273   55.3220 H   0  0  0  0  0  0  0  0  0  0  0  0
  123.3462  122.0710   55.3220 H   0  0  0  0  0  0  0  0  0  0  0  0
  124.7281  124.5735   57.6226 H   0  0  0  0  0  0  0  0  0  0  0  0
  126.4414  126.0671   58.6250 H   0  0  0  0  0  0  0  0  0  0  0  0
  129.1825  133.4500   60.9025 H   0  0  0  0  0  0  0  0  0  0  0  0
  127.1372  134.6070   61.7087 H   0  0  0  0  0  0  0  0  0  0  0  0
  1  2  1  0
  2  3  1  0
  3  4  1  0
  4  5  2  0
  4  6  1  0
  6  7  2  0
  7  8  1  0
  8  9  2  0
  9 10  1  0
 10 11  1  0
 11 12  2  0
 11 13  1  0
 13 14  1  0
 14 15  1  0
 15 16  2  0
 16 17  1  0
 17 18  1  0
 18 19  2  0
 19 20  1  0
 20 21  2  0
 21 22  1  0
 22 23  1  0
 21 24  1  0
 24 25  2  0
 17 26  2  0
 26 27  1  0
 27 28  1  0
 28 29  2  0
 29 30  1  0
 30 31  2  0
 31 32  1  0
 32 33  1  0
 31 34  1  0
 34 35  2  0
 27 36  2  0
 36 37  1  0
 37 38  3  0
  9 39  1  0
 39 40  2  0
 40  6  1  0
 36 15  1  0
 25 18  1  0
 35 28  1  0
  1 41  1  0
  1 42  1  0
  1 43  1  0
  2 44  1  0
  2 45  1  0
  7 46  1  0
  8 47  1  0
 10 48  1  0
 13 49  1  0
 13 50  1  0
 19 51  1  0
 20 52  1  0
 23 53  1  0
 23 54  1  0
 23 55  1  0
 24 56  1  0
 25 57  1  0
 26 58  1  0
 29 59  1  0
 30 60  1  0
 33 61  1  0
 33 62  1  0
 33 63  1  0
 34 64  1  0
 35 65  1  0
 39 66  1  0
 40 67  1  0
M  END
>  <Binding energies>  (1) 
[-8.17]

>  <Ligand effiencies>  (1) 
[-0.19926829268292684]

>  <Interactions>  (1) 
["V-B:PRO:540:N:9856, V-B:ILE:538:CB:9834, V-A:ASP:366:CG:3211, V-B:ILE:369:CD1:8211, H-A:TYR:531:OH:4793, V-A:TYR:539:CD2:4872, V-B:TYR:531:CE2:9765, V-B:PRO:540:CD:9859, V-B:PRO:540:CB:9857, V-B:ILE:369:CG2:8209, V-B:LEU:475:CD2:9231, V-A:TYR:539:CE2:4874, V-B:ILE:538:CG2:9835, H-A:ALA:541:N:4889, V-A:PRO:540:CA:4881, V-A:ALA:541:CB:4890, V-A:HIS:456:CE1:4068, H-A:ARG:545:NE:4922, H-A:TYR:484:OH:4346, V-B:LEU:363:CD1:8161, H-A:GLY:454:N:4048, V-A:ARG:545:CZ:4924, H-B:GLY:454:N:9022, V-A:ARG:545:CD:4921, V-A:ARG:545:CG:4920, H-B:TYR:539:N:9842, V-B:ILE:538:CD1:9837, V-B:PRO:540:CG:9858, V-B:GLY:454:CA:9021, V-B:GLY:453:C:9014"]

$$$$
1a_Grossjean_2025
     RDKit          3D

 45 46  0  0  0  0  0  0  0  0999 V2000
  123.7490  123.5820   56.8420 C   0  0  0  0  0  0  0  0  0  0  0  0
  124.7480  123.5470   55.6830 C   0  0  0  0  0  0  0  0  0  0  0  0
  125.8380  122.6980   56.0210 O   0  0  0  0  0  0  0  0  0  0  0  0
  127.0630  123.2110   56.3070 C   0  0  0  0  0  0  0  0  0  0  0  0
  128.1200  122.6140   56.0790 O   0  0  0  0  0  0  0  0  0  0  0  0
  127.0040  124.5700   56.9440 C   0  0  0  0  0  0  0  0  0  0  0  0
  127.2190  125.7060   56.1530 C   0  0  0  0  0  0  0  0  0  0  0  0
  127.1750  126.9780   56.7150 C   0  0  0  0  0  0  0  0  0  0  0  0
  126.9180  127.1430   58.0760 C   0  0  0  0  0  0  0  0  0  0  0  0
  126.9000  128.4740   58.5370 N   0  0  0  0  0  0  0  0  0  0  0  0
  127.8510  129.4290   58.4700 C   0  0  0  0  0  0  0  0  0  0  0  0
  128.9650  129.2950   57.9620 O   0  0  0  0  0  0  0  0  0  0  0  0
  127.4720  130.7760   59.0890 C   0  0  0  0  0  0  0  0  0  0  0  0
  128.4540  132.1450   58.4040 S   0  0  0  0  0  0  0  0  0  0  0  0
  130.1690  131.7590   58.6730 C   0  0  0  0  0  0  0  0  0  0  0  0
  130.4670  131.4520   59.9610 N   0  0  0  0  0  0  0  0  0  0  0  0
  131.7470  131.1470   60.2780 C   0  0  0  0  0  0  0  0  0  0  0  0
  132.0060  130.8280   61.7390 C   0  0  0  0  0  0  0  0  0  0  0  0
  132.7710  131.1240   59.3340 C   0  0  0  0  0  0  0  0  0  0  0  0
  132.4710  131.4180   57.9990 C   0  0  0  0  0  0  0  0  0  0  0  0
  133.6060  131.3720   56.9790 C   0  0  0  0  0  0  0  0  0  0  0  0
  131.1400  131.7360   57.6430 C   0  0  0  0  0  0  0  0  0  0  0  0
  130.7930  132.0000   56.2440 C   0  0  0  0  0  0  0  0  0  0  0  0
  130.5220  132.2070   55.1390 N   0  0  0  0  0  0  0  0  0  0  0  0
  126.6930  126.0110   58.8750 C   0  0  0  0  0  0  0  0  0  0  0  0
  126.7380  124.7390   58.3120 C   0  0  0  0  0  0  0  0  0  0  0  0
  124.2945  123.5629   57.7970 H   0  0  0  0  0  0  0  0  0  0  0  0
  123.1487  124.5017   56.7810 H   0  0  0  0  0  0  0  0  0  0  0  0
  123.0858  122.7065   56.7810 H   0  0  0  0  0  0  0  0  0  0  0  0
  124.2496  123.1621   54.7811 H   0  0  0  0  0  0  0  0  0  0  0  0
  125.1215  124.5636   55.4905 H   0  0  0  0  0  0  0  0  0  0  0  0
  127.4244  125.5914   55.0784 H   0  0  0  0  0  0  0  0  0  0  0  0
  127.3443  127.8607   56.0809 H   0  0  0  0  0  0  0  0  0  0  0  0
  126.0230  128.7500   58.9540 H   0  0  0  0  0  0  0  0  0  0  0  0
  126.4074  130.9699   58.8917 H   0  0  0  0  0  0  0  0  0  0  0  0
  127.6746  130.7213   60.1688 H   0  0  0  0  0  0  0  0  0  0  0  0
  131.4393  131.5260   62.3728 H   0  0  0  0  0  0  0  0  0  0  0  0
  131.6860  129.7973   61.9516 H   0  0  0  0  0  0  0  0  0  0  0  0
  133.0805  130.9295   61.9516 H   0  0  0  0  0  0  0  0  0  0  0  0
  133.8005  130.8783   59.6335 H   0  0  0  0  0  0  0  0  0  0  0  0
  134.5709  131.3329   57.5057 H   0  0  0  0  0  0  0  0  0  0  0  0
  133.4961  130.4776   56.3482 H   0  0  0  0  0  0  0  0  0  0  0  0
  133.5688  132.2724   56.3482 H   0  0  0  0  0  0  0  0  0  0  0  0
  126.4808  126.1295   59.9478 H   0  0  0  0  0  0  0  0  0  0  0  0
  126.5633  123.8569   58.9455 H   0  0  0  0  0  0  0  0  0  0  0  0
  1  2  1  0
  2  3  1  0
  3  4  1  0
  4  5  2  0
  4  6  1  0
  6  7  2  0
  7  8  1  0
  8  9  2  0
  9 10  1  0
 10 11  1  0
 11 12  2  0
 11 13  1  0
 13 14  1  0
 14 15  1  0
 15 16  2  0
 16 17  1  0
 17 18  1  0
 17 19  2  0
 19 20  1  0
 20 21  1  0
 20 22  2  0
 22 23  1  0
 23 24  3  0
  9 25  1  0
 25 26  2  0
 26  6  1  0
 22 15  1  0
  1 27  1  0
  1 28  1  0
  1 29  1  0
  2 30  1  0
  2 31  1  0
  7 32  1  0
  8 33  1  0
 10 34  1  0
 13 35  1  0
 13 36  1  0
 18 37  1  0
 18 38  1  0
 18 39  1  0
 19 40  1  0
 21 41  1  0
 21 42  1  0
 21 43  1  0
 25 44  1  0
 26 45  1  0
M  END
>  <Binding energies>  (1) 
[-7.79]

>  <Ligand effiencies>  (1) 
[-0.2885185185185185]

>  <Interactions>  (1) 
["V-A:PRO:540:N:4882, H-B:ASP:366:OD2:8187, V-A:TYR:531:CZ:4792, V-B:PRO:540:N:9856, V-B:ILE:538:CB:9834, V-A:ASP:366:CG:3211, V-B:TYR:531:CE2:9765, V-B:PRO:540:CD:9859, V-B:PRO:540:CB:9857, V-B:ILE:538:CG2:9835, H-A:ALA:541:N:4889, V-A:PRO:540:CA:4881, V-A:GLU:543:CD:4906, V-B:TYR:539:C:9839, V-B:LEU:363:CD1:8161, V-B:TYR:531:CZ:9766, V-A:ARG:545:CZ:4924, V-A:PRO:540:CB:4883, V-A:LEU:363:CD1:3187, V-A:TYR:539:C:4865, V-A:TYR:531:CE2:4791, H-A:TYR:539:N:4868, V-A:LEU:363:CA:3183, V-B:LEU:363:CA:8157, H-B:TYR:539:N:9842, V-B:PRO:540:CG:9858, H-B:ASP:366:OD1:8186"]

$$$$
1aa_Ghoteimi_2023
     RDKit          3D

 67 70  0  0  0  0  0  0  0  0999 V2000
  130.8420  126.3080   72.5240 C   0  0  0  0  0  0  0  0  0  0  0  0
  129.5540  127.0400   72.9100 C   0  0  0  0  0  0  0  0  0  0  0  0
  129.2870  128.0630   71.9580 O   0  0  0  0  0  0  0  0  0  0  0  0
  128.2540  127.9540   71.0840 C   0  0  0  0  0  0  0  0  0  0  0  0
  127.0760  128.1550   71.3950 O   0  0  0  0  0  0  0  0  0  0  0  0
  128.6850  127.5640   69.6990 C   0  0  0  0  0  0  0  0  0  0  0  0
  127.7620  127.3830   68.6580 C   0  0  0  0  0  0  0  0  0  0  0  0
  128.1910  127.0220   67.3830 C   0  0  0  0  0  0  0  0  0  0  0  0
  129.5580  126.8380   67.1260 C   0  0  0  0  0  0  0  0  0  0  0  0
  130.1060  126.4730   65.8830 N   0  0  0  0  0  0  0  0  0  0  0  0
  130.6110  125.2910   65.4600 C   0  0  0  0  0  0  0  0  0  0  0  0
  130.6720  124.2680   66.1410 O   0  0  0  0  0  0  0  0  0  0  0  0
  131.1440  125.2280   64.0200 C   0  0  0  0  0  0  0  0  0  0  0  0
  130.8780  126.4570   63.3320 O   0  0  0  0  0  0  0  0  0  0  0  0
  129.7610  126.5780   62.5180 C   0  0  0  0  0  0  0  0  0  0  0  0
  128.8630  127.5620   62.8030 N   0  0  0  0  0  0  0  0  0  0  0  0
  127.7490  127.7030   62.0370 C   0  0  0  0  0  0  0  0  0  0  0  0
  126.8110  128.8130   62.4160 C   0  0  0  0  0  0  0  0  0  0  0  0
  126.7250  129.2640   63.7410 C   0  0  0  0  0  0  0  0  0  0  0  0
  125.8540  130.2910   64.0950 C   0  0  0  0  0  0  0  0  0  0  0  0
  125.0450  130.8990   63.1380 C   0  0  0  0  0  0  0  0  0  0  0  0
  124.2120  131.9090   63.5810 O   0  0  0  0  0  0  0  0  0  0  0  0
  123.8520  132.9550   62.6850 C   0  0  0  0  0  0  0  0  0  0  0  0
  125.1240  130.4620   61.8090 C   0  0  0  0  0  0  0  0  0  0  0  0
  125.9950  129.4360   61.4570 C   0  0  0  0  0  0  0  0  0  0  0  0
  127.5230  126.8590   60.9430 C   0  0  0  0  0  0  0  0  0  0  0  0
  128.4370  125.8460   60.6210 C   0  0  0  0  0  0  0  0  0  0  0  0
  128.1440  124.9850   59.4360 C   0  0  0  0  0  0  0  0  0  0  0  0
  129.0660  124.8950   58.3880 C   0  0  0  0  0  0  0  0  0  0  0  0
  128.8050  124.0880   57.2850 C   0  0  0  0  0  0  0  0  0  0  0  0
  127.6230  123.3510   57.2080 C   0  0  0  0  0  0  0  0  0  0  0  0
  127.4490  122.5780   56.0760 O   0  0  0  0  0  0  0  0  0  0  0  0
  127.2230  123.2190   54.8260 C   0  0  0  0  0  0  0  0  0  0  0  0
  126.7000  123.4330   58.2610 C   0  0  0  0  0  0  0  0  0  0  0  0
  126.9620  124.2410   59.3640 C   0  0  0  0  0  0  0  0  0  0  0  0
  129.5820  125.6970   61.4380 C   0  0  0  0  0  0  0  0  0  0  0  0
  130.5690  124.6400   61.2060 C   0  0  0  0  0  0  0  0  0  0  0  0
  131.3490  123.8060   61.0240 N   0  0  0  0  0  0  0  0  0  0  0  0
  130.4780  127.0150   68.1610 C   0  0  0  0  0  0  0  0  0  0  0  0
  130.0480  127.3750   69.4340 C   0  0  0  0  0  0  0  0  0  0  0  0
  131.3778  126.0035   73.4351 H   0  0  0  0  0  0  0  0  0  0  0  0
  130.5930  125.4164   71.9298 H   0  0  0  0  0  0  0  0  0  0  0  0
  131.4806  126.9781   71.9298 H   0  0  0  0  0  0  0  0  0  0  0  0
  128.7172  126.3262   72.9258 H   0  0  0  0  0  0  0  0  0  0  0  0
  129.6718  127.4887   73.9074 H   0  0  0  0  0  0  0  0  0  0  0  0
  126.6887  127.5276   68.8507 H   0  0  0  0  0  0  0  0  0  0  0  0
  127.4568  126.8809   66.5761 H   0  0  0  0  0  0  0  0  0  0  0  0
  130.1130  127.2200   65.2020 H   0  0  0  0  0  0  0  0  0  0  0  0
  132.2299  125.0539   64.0432 H   0  0  0  0  0  0  0  0  0  0  0  0
  130.6395  124.4070   63.4895 H   0  0  0  0  0  0  0  0  0  0  0  0
  127.3557  128.7990   64.5130 H   0  0  0  0  0  0  0  0  0  0  0  0
  125.8043  130.6258   65.1416 H   0  0  0  0  0  0  0  0  0  0  0  0
  123.5468  133.8416   63.2601 H   0  0  0  0  0  0  0  0  0  0  0  0
  124.7147  133.2081   62.0513 H   0  0  0  0  0  0  0  0  0  0  0  0
  123.0162  132.6235   62.0513 H   0  0  0  0  0  0  0  0  0  0  0  0
  124.4939  130.9327   61.0400 H   0  0  0  0  0  0  0  0  0  0  0  0
  126.0457  129.1065   60.4087 H   0  0  0  0  0  0  0  0  0  0  0  0
  126.6193  126.9921   60.3301 H   0  0  0  0  0  0  0  0  0  0  0  0
  130.0046  125.4666   58.4362 H   0  0  0  0  0  0  0  0  0  0  0  0
  129.5373  124.0306   56.4662 H   0  0  0  0  0  0  0  0  0  0  0  0
  126.8618  124.2435   54.9993 H   0  0  0  0  0  0  0  0  0  0  0  0
  128.1633  123.2532   54.2562 H   0  0  0  0  0  0  0  0  0  0  0  0
  126.4692  122.6559   54.2562 H   0  0  0  0  0  0  0  0  0  0  0  0
  125.7646  122.8561   58.2150 H   0  0  0  0  0  0  0  0  0  0  0  0
  126.2330  124.2947   60.1860 H   0  0  0  0  0  0  0  0  0  0  0  0
  131.5511  126.8687   67.9684 H   0  0  0  0  0  0  0  0  0  0  0  0
  130.7843  127.5125   70.2396 H   0  0  0  0  0  0  0  0  0  0  0  0
  1  2  1  0
  2  3  1  0
  3  4  1  0
  4  5  2  0
  4  6  1  0
  6  7  2  0
  7  8  1  0
  8  9  2  0
  9 10  1  0
 10 11  1  0
 11 12  2  0
 11 13  1  0
 13 14  1  0
 14 15  1  0
 15 16  2  0
 16 17  1  0
 17 18  1  0
 18 19  2  0
 19 20  1  0
 20 21  2  0
 21 22  1  0
 22 23  1  0
 21 24  1  0
 24 25  2  0
 17 26  2  0
 26 27  1  0
 27 28  1  0
 28 29  2  0
 29 30  1  0
 30 31  2  0
 31 32  1  0
 32 33  1  0
 31 34  1  0
 34 35  2  0
 27 36  2  0
 36 37  1  0
 37 38  3  0
  9 39  1  0
 39 40  2  0
 40  6  1  0
 36 15  1  0
 25 18  1  0
 35 28  1  0
  1 41  1  0
  1 42  1  0
  1 43  1  0
  2 44  1  0
  2 45  1  0
  7 46  1  0
  8 47  1  0
 10 48  1  0
 13 49  1  0
 13 50  1  0
 19 51  1  0
 20 52  1  0
 23 53  1  0
 23 54  1  0
 23 55  1  0
 24 56  1  0
 25 57  1  0
 26 58  1  0
 29 59  1  0
 30 60  1  0
 33 61  1  0
 33 62  1  0
 33 63  1  0
 34 64  1  0
 35 65  1  0
 39 66  1  0
 40 67  1  0
M  END
>  <Binding energies>  (1) 
[-8.16]

>  <Ligand effiencies>  (1) 
[-0.19902439024390245]

>  <Interactions>  (1) 
["V-B:ASP:366:CG:8185, V-B:PRO:540:CA:9855, V-B:TYR:539:CE2:9848, V-B:PRO:540:N:9856, V-B:ILE:538:CB:9834, V-B:ILE:369:CD1:8211, V-B:PRO:540:CB:9857, V-B:LEU:475:CD2:9231, V-B:ILE:538:CG2:9835, H-B:GLU:543:OE2:9882, H-B:GLU:543:OE1:9881, H-A:GLU:543:OE2:4908, V-A:GLU:543:CD:4906, V-B:ILE:538:CA:9832, V-A:HIS:456:CE1:4068, H-A:TYR:484:OH:4346, V-B:TYR:539:C:9839, H-A:GLU:543:OE1:4907, V-B:GLU:543:CD:9880, V-B:GLU:543:CB:9878, V-B:TYR:539:CD1:9845, V-B:GLU:543:CG:9879, H-B:GLY:454:N:9022, H-B:TYR:484:OH:9320, H-A:ARG:545:NH2:4926, V-B:HIS:456:CE1:9042, V-B:GLY:544:C:9884, V-A:LYS:547:CE:4948, V-A:GLY:544:C:4910, V-A:GLU:543:C:4900, V-B:LYS:547:CE:9922, V-A:HIS:456:CD2:4066, V-B:HIS:456:CD2:9040, V-B:GLU:543:C:9874, V-A:HIS:456:CG:4064, H-B:TYR:539:N:9842, V-B:GLY:454:CA:9021, V-B:ILE:538:C:9830, H-B:HIS:456:ND1:9039"]

$$$$
1b_Ghoteimi_2023
     RDKit          3D

 54 57  0  0  0  0  0  0  0  0999 V2000
  124.1300  129.7090   66.1640 C   0  0  0  0  0  0  0  0  0  0  0  0
  124.1250  130.2690   64.8560 O   0  0  0  0  0  0  0  0  0  0  0  0
  125.0500  129.8260   63.9300 C   0  0  0  0  0  0  0  0  0  0  0  0
  124.7030  129.9620   62.5870 C   0  0  0  0  0  0  0  0  0  0  0  0
  125.5710  129.5410   61.5840 C   0  0  0  0  0  0  0  0  0  0  0  0
  126.8170  128.9740   61.8930 C   0  0  0  0  0  0  0  0  0  0  0  0
  127.7510  128.5190   60.8070 C   0  0  0  0  0  0  0  0  0  0  0  0
  128.4300  129.4070   59.9660 C   0  0  0  0  0  0  0  0  0  0  0  0
  129.2930  128.9310   58.9710 C   0  0  0  0  0  0  0  0  0  0  0  0
  129.9810  129.9370   58.1060 C   0  0  0  0  0  0  0  0  0  0  0  0
  131.3230  130.2580   58.3290 C   0  0  0  0  0  0  0  0  0  0  0  0
  131.9660  131.2010   57.5320 C   0  0  0  0  0  0  0  0  0  0  0  0
  131.2800  131.8430   56.5000 C   0  0  0  0  0  0  0  0  0  0  0  0
  131.9980  132.7640   55.7610 O   0  0  0  0  0  0  0  0  0  0  0  0
  133.4200  132.6900   55.7530 C   0  0  0  0  0  0  0  0  0  0  0  0
  129.9310  131.5290   56.2780 C   0  0  0  0  0  0  0  0  0  0  0  0
  129.2910  130.5870   57.0780 C   0  0  0  0  0  0  0  0  0  0  0  0
  129.4710  127.5320   58.8450 C   0  0  0  0  0  0  0  0  0  0  0  0
  130.4350  126.9870   57.8840 C   0  0  0  0  0  0  0  0  0  0  0  0
  131.1960  126.5580   57.1250 N   0  0  0  0  0  0  0  0  0  0  0  0
  128.7390  126.6900   59.7120 C   0  0  0  0  0  0  0  0  0  0  0  0
  128.8300  124.9110   59.6920 S   0  0  0  0  0  0  0  0  0  0  0  0
  129.1330  124.3840   57.9720 C   0  0  0  0  0  0  0  0  0  0  0  0
  127.9840  123.6000   57.3210 C   0  0  0  0  0  0  0  0  0  0  0  0
  128.2110  122.5890   56.6530 O   0  0  0  0  0  0  0  0  0  0  0  0
  126.7540  124.1140   57.5450 N   0  0  0  0  0  0  0  0  0  0  0  0
  125.5390  123.6180   57.0850 C   0  0  0  0  0  0  0  0  0  0  0  0
  124.3070  124.0500   57.5740 C   0  0  0  0  0  0  0  0  0  0  0  0
  123.3700  123.3270   56.8710 C   0  0  0  0  0  0  0  0  0  0  0  0
  124.0060  122.5050   56.0020 O   0  0  0  0  0  0  0  0  0  0  0  0
  125.3800  122.6990   56.1470 N   0  0  0  0  0  0  0  0  0  0  0  0
  127.9210  127.1780   60.6760 N   0  0  0  0  0  0  0  0  0  0  0  0
  127.1550  128.8400   63.2490 C   0  0  0  0  0  0  0  0  0  0  0  0
  126.2890  129.2580   64.2550 C   0  0  0  0  0  0  0  0  0  0  0  0
  124.1228  130.5180   66.9093 H   0  0  0  0  0  0  0  0  0  0  0  0
  123.2374  129.0800   66.2970 H   0  0  0  0  0  0  0  0  0  0  0  0
  125.0337  129.0960   66.2970 H   0  0  0  0  0  0  0  0  0  0  0  0
  123.7336  130.4064   62.3172 H   0  0  0  0  0  0  0  0  0  0  0  0
  125.2753  129.6546   60.5306 H   0  0  0  0  0  0  0  0  0  0  0  0
  128.2846  130.4906   60.0875 H   0  0  0  0  0  0  0  0  0  0  0  0
  131.8753  129.7616   59.1405 H   0  0  0  0  0  0  0  0  0  0  0  0
  133.0232  131.4420   57.7171 H   0  0  0  0  0  0  0  0  0  0  0  0
  133.7920  132.6706   56.7880 H   0  0  0  0  0  0  0  0  0  0  0  0
  133.7366  131.7742   55.2324 H   0  0  0  0  0  0  0  0  0  0  0  0
  133.8299  133.5680   55.2324 H   0  0  0  0  0  0  0  0  0  0  0  0
  129.3774  132.0287   55.4694 H   0  0  0  0  0  0  0  0  0  0  0  0
  128.2314  130.3513   56.8998 H   0  0  0  0  0  0  0  0  0  0  0  0
  129.3178  125.2839   57.3670 H   0  0  0  0  0  0  0  0  0  0  0  0
  129.9918  123.6976   58.0077 H   0  0  0  0  0  0  0  0  0  0  0  0
  126.6960  124.9420   58.1180 H   0  0  0  0  0  0  0  0  0  0  0  0
  124.1235  124.8049   58.3527 H   0  0  0  0  0  0  0  0  0  0  0  0
  122.2797  123.4043   56.9949 H   0  0  0  0  0  0  0  0  0  0  0  0
  128.1236  128.3958   63.5217 H   0  0  0  0  0  0  0  0  0  0  0  0
  126.5784  129.1420   65.3099 H   0  0  0  0  0  0  0  0  0  0  0  0
  1  2  1  0
  2  3  1  0
  3  4  2  0
  4  5  1  0
  5  6  2  0
  6  7  1  0
  7  8  2  0
  8  9  1  0
  9 10  1  0
 10 11  2  0
 11 12  1  0
 12 13  2  0
 13 14  1  0
 14 15  1  0
 13 16  1  0
 16 17  2  0
  9 18  2  0
 18 19  1  0
 19 20  3  0
 18 21  1  0
 21 22  1  0
 22 23  1  0
 23 24  1  0
 24 25  2  0
 24 26  1  0
 26 27  1  0
 27 28  1  0
 28 29  2  0
 29 30  1  0
 30 31  1  0
 21 32  2  0
  6 33  1  0
 33 34  2  0
 34  3  1  0
 32  7  1  0
 17 10  1  0
 31 27  2  0
  1 35  1  0
  1 36  1  0
  1 37  1  0
  4 38  1  0
  5 39  1  0
  8 40  1  0
 11 41  1  0
 12 42  1  0
 15 43  1  0
 15 44  1  0
 15 45  1  0
 16 46  1  0
 17 47  1  0
 23 48  1  0
 23 49  1  0
 26 50  1  0
 28 51  1  0
 29 52  1  0
 33 53  1  0
 34 54  1  0
M  END
>  <Binding energies>  (1) 
[-8.24]

>  <Ligand effiencies>  (1) 
[-0.23542857142857143]

>  <Interactions>  (1) 
["V-A:ILE:538:CG2:4861, V-A:PRO:540:CD:4885, V-B:ASP:366:CG:8185, V-A:PRO:540:N:4882, V-B:PRO:540:CA:9855, V-A:ILE:538:CB:4860, V-B:PRO:540:N:9856, H-A:TYR:531:OH:4793, V-B:TYR:531:CE2:9765, V-B:PRO:540:CD:9859, V-B:PRO:540:CB:9857, V-A:PRO:540:CA:4881, V-A:GLU:543:CD:4906, V-B:TYR:539:C:9839, V-B:LEU:363:CD1:8161, V-B:ARG:545:CZ:9898, H-B:ARG:545:NE:9896, H-B:GLY:454:N:9022, V-A:PRO:540:CB:4883, V-A:LEU:363:CD1:3187, H-B:TYR:484:OH:9320, V-A:TYR:531:CE2:4791, V-B:HIS:456:CE1:9042, H-A:TYR:539:N:4868, V-B:ARG:545:CG:9894, V-B:ARG:545:CD:9895, V-B:LEU:363:CA:8157, H-B:TYR:539:N:9842, V-B:LEU:363:CB:8159, V-B:PRO:540:CG:9858, V-A:PRO:540:CG:4884, V-B:LEU:363:CG:8160, V-A:ILE:538:CD1:4863, V-A:ILE:538:CG1:4862"]

$$$$
1b_Grossjean_2025
     RDKit          3D

 42 43  0  0  0  0  0  0  0  0999 V2000
  124.8300  123.4420   55.7270 C   0  0  0  0  0  0  0  0  0  0  0  0
  125.9820  122.7760   56.2280 O   0  0  0  0  0  0  0  0  0  0  0  0
  127.2270  123.2650   55.9960 C   0  0  0  0  0  0  0  0  0  0  0  0
  128.2020  122.5520   55.7410 O   0  0  0  0  0  0  0  0  0  0  0  0
  127.3000  124.7640   56.0740 C   0  0  0  0  0  0  0  0  0  0  0  0
  126.8740  125.4700   57.2090 C   0  0  0  0  0  0  0  0  0  0  0  0
  126.9540  126.8580   57.2480 C   0  0  0  0  0  0  0  0  0  0  0  0
  127.4600  127.5700   56.1600 C   0  0  0  0  0  0  0  0  0  0  0  0
  127.4930  128.9690   56.3100 N   0  0  0  0  0  0  0  0  0  0  0  0
  128.1300  129.7320   57.2260 C   0  0  0  0  0  0  0  0  0  0  0  0
  128.8380  129.3110   58.1390 O   0  0  0  0  0  0  0  0  0  0  0  0
  127.9350  131.2410   57.0700 C   0  0  0  0  0  0  0  0  0  0  0  0
  128.5270  132.1620   58.5220 S   0  0  0  0  0  0  0  0  0  0  0  0
  130.2480  131.7600   58.7390 C   0  0  0  0  0  0  0  0  0  0  0  0
  130.5980  131.5390   60.0310 N   0  0  0  0  0  0  0  0  0  0  0  0
  131.8840  131.2240   60.3110 C   0  0  0  0  0  0  0  0  0  0  0  0
  132.2000  130.9760   61.7750 C   0  0  0  0  0  0  0  0  0  0  0  0
  132.8660  131.1280   59.3270 C   0  0  0  0  0  0  0  0  0  0  0  0
  132.5190  131.3760   57.9950 C   0  0  0  0  0  0  0  0  0  0  0  0
  133.6160  131.2810   56.9360 C   0  0  0  0  0  0  0  0  0  0  0  0
  131.1820  131.7070   57.6790 C   0  0  0  0  0  0  0  0  0  0  0  0
  130.8050  132.0140   56.2970 C   0  0  0  0  0  0  0  0  0  0  0  0
  130.5100  132.2550   55.2040 N   0  0  0  0  0  0  0  0  0  0  0  0
  127.8890  126.8710   55.0220 C   0  0  0  0  0  0  0  0  0  0  0  0
  127.8080  125.4820   54.9840 C   0  0  0  0  0  0  0  0  0  0  0  0
  124.2166  123.7966   56.5684 H   0  0  0  0  0  0  0  0  0  0  0  0
  125.1406  124.2999   55.1125 H   0  0  0  0  0  0  0  0  0  0  0  0
  124.2416  122.7447   55.1125 H   0  0  0  0  0  0  0  0  0  0  0  0
  126.4737  124.9217   58.0746 H   0  0  0  0  0  0  0  0  0  0  0  0
  126.6155  127.3989   58.1440 H   0  0  0  0  0  0  0  0  0  0  0  0
  126.9410  129.4670   55.6270 H   0  0  0  0  0  0  0  0  0  0  0  0
  128.4912  131.5806   56.1838 H   0  0  0  0  0  0  0  0  0  0  0  0
  126.8573  131.4337   56.9634 H   0  0  0  0  0  0  0  0  0  0  0  0
  131.4896  131.5336   62.4030 H   0  0  0  0  0  0  0  0  0  0  0  0
  132.1152  129.9008   61.9914 H   0  0  0  0  0  0  0  0  0  0  0  0
  133.2242  131.3139   61.9914 H   0  0  0  0  0  0  0  0  0  0  0  0
  133.8992  130.8610   59.5940 H   0  0  0  0  0  0  0  0  0  0  0  0
  134.5955  131.1962   57.4293 H   0  0  0  0  0  0  0  0  0  0  0  0
  133.4437  130.3944   56.3081 H   0  0  0  0  0  0  0  0  0  0  0  0
  133.5987  132.1840   56.3081 H   0  0  0  0  0  0  0  0  0  0  0  0
  128.2901  127.4215   54.1582 H   0  0  0  0  0  0  0  0  0  0  0  0
  128.1469  124.9420   54.0876 H   0  0  0  0  0  0  0  0  0  0  0  0
  1  2  1  0
  2  3  1  0
  3  4  2  0
  3  5  1  0
  5  6  2  0
  6  7  1  0
  7  8  2  0
  8  9  1  0
  9 10  1  0
 10 11  2  0
 10 12  1  0
 12 13  1  0
 13 14  1  0
 14 15  2  0
 15 16  1  0
 16 17  1  0
 16 18  2  0
 18 19  1  0
 19 20  1  0
 19 21  2  0
 21 22  1  0
 22 23  3  0
  8 24  1  0
 24 25  2  0
 25  5  1  0
 21 14  1  0
  1 26  1  0
  1 27  1  0
  1 28  1  0
  6 29  1  0
  7 30  1  0
  9 31  1  0
 12 32  1  0
 12 33  1  0
 17 34  1  0
 17 35  1  0
 17 36  1  0
 18 37  1  0
 20 38  1  0
 20 39  1  0
 20 40  1  0
 24 41  1  0
 25 42  1  0
M  END
>  <Binding energies>  (1) 
[-7.67]

>  <Ligand effiencies>  (1) 
[-0.295]

>  <Interactions>  (1) 
["V-A:PRO:540:N:4882, V-A:TYR:531:CZ:4792, V-B:ILE:538:CB:9834, V-A:ASP:366:CG:3211, V-A:TYR:539:CD2:4872, V-B:TYR:531:CE2:9765, V-B:PRO:540:CD:9859, V-A:TYR:539:CE2:4874, V-B:ILE:538:CG2:9835, V-A:TYR:539:CZ:4875, H-A:ALA:541:N:4889, V-A:PRO:540:CA:4881, V-A:GLU:543:CD:4906, V-B:TYR:531:CZ:9766, V-A:ARG:545:CZ:4924, V-A:ASN:362:CB:3174, V-A:PRO:540:CB:4883, V-A:LEU:363:CD1:3187, V-A:TYR:539:C:4865, V-A:TYR:539:CE1:4873, V-A:TYR:531:CE2:4791, H-A:TYR:539:N:4868, V-A:LEU:363:CA:3183, H-B:TYR:539:N:9842"]

$$$$
1c_Ghoteimi_2023
     RDKit          3D

 54 57  0  0  0  0  0  0  0  0999 V2000
  133.6640  125.1290   65.8450 C   0  0  0  0  0  0  0  0  0  0  0  0
  133.7400  124.6720   64.4990 O   0  0  0  0  0  0  0  0  0  0  0  0
  132.8030  125.1110   63.5830 C   0  0  0  0  0  0  0  0  0  0  0  0
  131.6320  125.6590   64.1000 C   0  0  0  0  0  0  0  0  0  0  0  0
  130.6330  126.1250   63.2490 C   0  0  0  0  0  0  0  0  0  0  0  0
  130.7750  126.0550   61.8550 C   0  0  0  0  0  0  0  0  0  0  0  0
  129.6970  126.5510   60.9340 C   0  0  0  0  0  0  0  0  0  0  0  0
  129.0280  125.7150   60.0340 C   0  0  0  0  0  0  0  0  0  0  0  0
  128.0100  126.2180   59.2140 C   0  0  0  0  0  0  0  0  0  0  0  0
  127.2930  125.2560   58.3260 C   0  0  0  0  0  0  0  0  0  0  0  0
  125.9720  124.8890   58.5960 C   0  0  0  0  0  0  0  0  0  0  0  0
  125.3120  123.9760   57.7800 C   0  0  0  0  0  0  0  0  0  0  0  0
  125.9600  123.4100   56.6820 C   0  0  0  0  0  0  0  0  0  0  0  0
  125.2270  122.5130   55.9280 O   0  0  0  0  0  0  0  0  0  0  0  0
  123.8260  122.7170   55.7730 C   0  0  0  0  0  0  0  0  0  0  0  0
  127.2890  123.7710   56.4120 C   0  0  0  0  0  0  0  0  0  0  0  0
  127.9470  124.6850   57.2300 C   0  0  0  0  0  0  0  0  0  0  0  0
  127.6980  127.5960   59.2970 C   0  0  0  0  0  0  0  0  0  0  0  0
  126.6660  128.1910   58.4420 C   0  0  0  0  0  0  0  0  0  0  0  0
  125.8510  128.6590   57.7660 N   0  0  0  0  0  0  0  0  0  0  0  0
  128.4000  128.3770   60.2380 C   0  0  0  0  0  0  0  0  0  0  0  0
  127.9960  130.0780   60.5690 S   0  0  0  0  0  0  0  0  0  0  0  0
  129.5950  130.8780   60.9190 C   0  0  0  0  0  0  0  0  0  0  0  0
  130.5540  130.8000   59.7250 C   0  0  0  0  0  0  0  0  0  0  0  0
  131.3770  129.8860   59.6660 O   0  0  0  0  0  0  0  0  0  0  0  0
  130.3790  131.7530   58.7830 N   0  0  0  0  0  0  0  0  0  0  0  0
  131.0010  131.8190   57.5470 C   0  0  0  0  0  0  0  0  0  0  0  0
  130.4870  132.2230   56.4050 N   0  0  0  0  0  0  0  0  0  0  0  0
  131.3810  132.1920   55.4350 C   0  0  0  0  0  0  0  0  0  0  0  0
  132.6550  131.7570   55.7860 C   0  0  0  0  0  0  0  0  0  0  0  0
  132.6740  131.3670   57.4800 S   0  0  0  0  0  0  0  0  0  0  0  0
  129.3650  127.8640   61.0390 N   0  0  0  0  0  0  0  0  0  0  0  0
  131.9610  125.5070   61.3450 C   0  0  0  0  0  0  0  0  0  0  0  0
  132.9620  125.0390   62.1920 C   0  0  0  0  0  0  0  0  0  0  0  0
  133.8053  124.2794   66.5292 H   0  0  0  0  0  0  0  0  0  0  0  0
  134.4500  125.8777   66.0229 H   0  0  0  0  0  0  0  0  0  0  0  0
  132.6780  125.5830   66.0229 H   0  0  0  0  0  0  0  0  0  0  0  0
  131.4949  125.7244   65.1895 H   0  0  0  0  0  0  0  0  0  0  0  0
  129.7160  126.5557   63.6775 H   0  0  0  0  0  0  0  0  0  0  0  0
  129.3041  124.6522   59.9696 H   0  0  0  0  0  0  0  0  0  0  0  0
  125.4501  125.3254   59.4604 H   0  0  0  0  0  0  0  0  0  0  0  0
  124.2711  123.6982   58.0023 H   0  0  0  0  0  0  0  0  0  0  0  0
  123.3536  122.7858   56.7640 H   0  0  0  0  0  0  0  0  0  0  0  0
  123.6506  123.6502   55.2176 H   0  0  0  0  0  0  0  0  0  0  0  0
  123.3917  121.8726   55.2176 H   0  0  0  0  0  0  0  0  0  0  0  0
  127.8126  123.3301   55.5509 H   0  0  0  0  0  0  0  0  0  0  0  0
  128.9896  124.9602   57.0125 H   0  0  0  0  0  0  0  0  0  0  0  0
  129.4165  131.9359   61.1617 H   0  0  0  0  0  0  0  0  0  0  0  0
  130.0611  130.3475   61.7624 H   0  0  0  0  0  0  0  0  0  0  0  0
  129.6730  132.4520   58.9560 H   0  0  0  0  0  0  0  0  0  0  0  0
  131.1329  132.4932   54.4065 H   0  0  0  0  0  0  0  0  0  0  0  0
  133.5122  131.6733   55.1018 H   0  0  0  0  0  0  0  0  0  0  0  0
  132.1029  125.4458   60.2559 H   0  0  0  0  0  0  0  0  0  0  0  0
  133.8821  124.6107   61.7677 H   0  0  0  0  0  0  0  0  0  0  0  0
  1  2  1  0
  2  3  1  0
  3  4  2  0
  4  5  1  0
  5  6  2  0
  6  7  1  0
  7  8  2  0
  8  9  1  0
  9 10  1  0
 10 11  2  0
 11 12  1  0
 12 13  2  0
 13 14  1  0
 14 15  1  0
 13 16  1  0
 16 17  2  0
  9 18  2  0
 18 19  1  0
 19 20  3  0
 18 21  1  0
 21 22  1  0
 22 23  1  0
 23 24  1  0
 24 25  2  0
 24 26  1  0
 26 27  1  0
 27 28  2  0
 28 29  1  0
 29 30  2  0
 30 31  1  0
 21 32  2  0
  6 33  1  0
 33 34  2  0
 34  3  1  0
 32  7  1  0
 17 10  1  0
 31 27  1  0
  1 35  1  0
  1 36  1  0
  1 37  1  0
  4 38  1  0
  5 39  1  0
  8 40  1  0
 11 41  1  0
 12 42  1  0
 15 43  1  0
 15 44  1  0
 15 45  1  0
 16 46  1  0
 17 47  1  0
 23 48  1  0
 23 49  1  0
 26 50  1  0
 29 51  1  0
 30 52  1  0
 33 53  1  0
 34 54  1  0
M  END
>  <Binding energies>  (1) 
[-7.95]

>  <Ligand effiencies>  (1) 
[-0.22714285714285715]

>  <Interactions>  (1) 
["V-A:ILE:538:CG2:4861, V-A:PRO:540:CD:4885, V-B:ASP:366:CG:8185, V-A:PRO:540:N:4882, H-B:TYR:531:OH:9767, V-B:PRO:540:CA:9855, V-A:ILE:538:CB:4860, V-A:ILE:538:CA:4858, V-A:TYR:531:CZ:4792, V-B:PRO:540:N:9856, V-B:ILE:538:CB:9834, V-A:ASP:366:CG:3211, V-B:TYR:531:CE2:9765, V-B:PRO:540:CD:9859, V-B:PRO:540:CB:9857, V-B:ILE:538:CG2:9835, V-A:PRO:540:CA:4881, V-A:HIS:456:CE1:4068, H-A:ARG:545:NE:4922, H-A:TYR:484:OH:4346, V-B:TYR:539:C:9839, V-B:LEU:363:CD1:8161, H-A:GLY:454:N:4048, V-B:GLU:543:CD:9880, V-A:ARG:545:CZ:4924, V-A:PRO:540:CB:4883, V-A:LEU:363:CD1:3187, V-A:TYR:539:C:4865, V-A:TYR:531:CE2:4791, H-A:TYR:539:N:4868, V-A:ARG:545:CD:4921, V-A:ARG:545:CG:4920, V-A:TYR:484:CZ:4345, H-A:TYR:539:O:4866, H-B:TYR:539:N:9842, V-B:ILE:538:CD1:9837, V-B:PRO:540:CG:9858, V-A:ILE:538:C:4856, V-B:ILE:538:CG1:9836"]

$$$$
1c_Grossjean_2025
     RDKit          3D

 40 41  0  0  0  0  0  0  0  0999 V2000
  123.9630  132.5250   76.0010 C   0  0  0  0  0  0  0  0  0  0  0  0
  123.8870  131.1140   76.1720 O   0  0  0  0  0  0  0  0  0  0  0  0
  124.7380  130.3010   75.4490 C   0  0  0  0  0  0  0  0  0  0  0  0
  124.1850  129.1350   74.9200 C   0  0  0  0  0  0  0  0  0  0  0  0
  124.9630  128.2520   74.1760 C   0  0  0  0  0  0  0  0  0  0  0  0
  126.3180  128.5340   73.9460 C   0  0  0  0  0  0  0  0  0  0  0  0
  127.1950  127.7080   73.2180 N   0  0  0  0  0  0  0  0  0  0  0  0
  128.3800  128.0100   72.6450 C   0  0  0  0  0  0  0  0  0  0  0  0
  128.9300  129.1100   72.6780 O   0  0  0  0  0  0  0  0  0  0  0  0
  129.0660  126.8560   71.9090 C   0  0  0  0  0  0  0  0  0  0  0  0
  130.8580  126.8340   72.2070 S   0  0  0  0  0  0  0  0  0  0  0  0
  131.2560  125.3650   73.1330 C   0  0  0  0  0  0  0  0  0  0  0  0
  130.3050  124.4010   73.0500 N   0  0  0  0  0  0  0  0  0  0  0  0
  130.4970  123.2370   73.7140 C   0  0  0  0  0  0  0  0  0  0  0  0
  129.3960  122.2040   73.5650 C   0  0  0  0  0  0  0  0  0  0  0  0
  131.6280  122.9920   74.4890 C   0  0  0  0  0  0  0  0  0  0  0  0
  132.6030  123.9880   74.6020 C   0  0  0  0  0  0  0  0  0  0  0  0
  133.8260  123.7020   75.4720 C   0  0  0  0  0  0  0  0  0  0  0  0
  132.4230  125.2130   73.9190 C   0  0  0  0  0  0  0  0  0  0  0  0
  133.4070  126.2880   74.0690 C   0  0  0  0  0  0  0  0  0  0  0  0
  134.1850  127.1360   74.1870 N   0  0  0  0  0  0  0  0  0  0  0  0
  126.8770  129.6940   74.4830 C   0  0  0  0  0  0  0  0  0  0  0  0
  126.0970  130.5740   75.2270 C   0  0  0  0  0  0  0  0  0  0  0  0
  123.9893  133.0129   76.9865 H   0  0  0  0  0  0  0  0  0  0  0  0
  124.8761  132.7780   75.4422 H   0  0  0  0  0  0  0  0  0  0  0  0
  123.0824  132.8746   75.4422 H   0  0  0  0  0  0  0  0  0  0  0  0
  123.1221  128.9104   75.0925 H   0  0  0  0  0  0  0  0  0  0  0  0
  124.5154  127.3335   73.7686 H   0  0  0  0  0  0  0  0  0  0  0  0
  126.9080  126.7420   73.1650 H   0  0  0  0  0  0  0  0  0  0  0  0
  128.6356  125.9057   72.2578 H   0  0  0  0  0  0  0  0  0  0  0  0
  128.9010  126.9932   70.8301 H   0  0  0  0  0  0  0  0  0  0  0  0
  129.0556  121.8846   74.5611 H   0  0  0  0  0  0  0  0  0  0  0  0
  128.5525  122.6442   73.0129 H   0  0  0  0  0  0  0  0  0  0  0  0
  129.7816  121.3342   73.0129 H   0  0  0  0  0  0  0  0  0  0  0  0
  131.7525  122.0285   75.0050 H   0  0  0  0  0  0  0  0  0  0  0  0
  133.5445  123.7678   76.5333 H   0  0  0  0  0  0  0  0  0  0  0  0
  134.2025  122.6916   75.2545 H   0  0  0  0  0  0  0  0  0  0  0  0
  134.6115  124.4407   75.2545 H   0  0  0  0  0  0  0  0  0  0  0  0
  127.9418  129.9145   74.3171 H   0  0  0  0  0  0  0  0  0  0  0  0
  126.5472  131.4874   75.6429 H   0  0  0  0  0  0  0  0  0  0  0  0
  1  2  1  0
  2  3  1  0
  3  4  2  0
  4  5  1  0
  5  6  2  0
  6  7  1  0
  7  8  1  0
  8  9  2  0
  8 10  1  0
 10 11  1  0
 11 12  1  0
 12 13  2  0
 13 14  1  0
 14 15  1  0
 14 16  2  0
 16 17  1  0
 17 18  1  0
 17 19  2  0
 19 20  1  0
 20 21  3  0
  6 22  1  0
 22 23  2  0
 23  3  1  0
 19 12  1  0
  1 24  1  0
  1 25  1  0
  1 26  1  0
  4 27  1  0
  5 28  1  0
  7 29  1  0
 10 30  1  0
 10 31  1  0
 15 32  1  0
 15 33  1  0
 15 34  1  0
 16 35  1  0
 18 36  1  0
 18 37  1  0
 18 38  1  0
 22 39  1  0
 23 40  1  0
M  END
>  <Binding energies>  (1) 
[-7.46]

>  <Ligand effiencies>  (1) 
[-0.31083333333333335]

>  <Interactions>  (1) 
["V-B:GLY:544:C:9884, V-B:HIS:456:CG:9038, V-B:LYS:547:CE:9922, V-A:HIS:456:CD2:4066, V-B:HIS:456:CD2:9040, V-A:HIS:456:CG:4064, H-B:GLY:544:O:9885, H-B:LYS:547:NZ:9923, H-A:LYS:547:NZ:4949, V-A:ASP:473:CG:4238, V-A:HIS:456:C:4059, V-B:VAL:458:CG2:9059, V-B:VAL:457:C:9045, V-B:HIS:456:CB:9037, V-A:LYS:471:CD:4217, V-A:HIS:456:CB:4063, V-B:HIS:456:CA:9035, V-B:HIS:456:C:9033, V-A:VAL:458:CG2:4085, V-A:LYS:471:CE:4218, V-B:LYS:471:CE:9192, V-B:LYS:471:CD:9191, V-B:LYS:471:CG:9190, V-B:ASP:473:CG:9212, V-B:VAL:457:CA:9047, V-A:LYS:471:CG:4216, V-B:LYS:471:CB:9189, V-B:ASP:473:CB:9211, V-B:LYS:471:C:9185, V-B:ASP:473:CA:9209, V-B:LEU:472:C:9198, V-B:LEU:472:CA:9200"]

$$$$
1d_Ghoteimi_2023
     RDKit          3D

 50 52  0  0  0  0  0  0  0  0999 V2000
  128.0100  123.5510   54.9590 C   0  0  0  0  0  0  0  0  0  0  0  0
  127.5140  122.8150   56.0660 O   0  0  0  0  0  0  0  0  0  0  0  0
  126.2120  122.8930   56.4130 C   0  0  0  0  0  0  0  0  0  0  0  0
  125.2540  122.5120   55.7380 O   0  0  0  0  0  0  0  0  0  0  0  0
  126.0150  123.5330   57.7840 C   0  0  0  0  0  0  0  0  0  0  0  0
  125.9620  125.3340   57.5450 S   0  0  0  0  0  0  0  0  0  0  0  0
  127.6430  125.9160   57.5960 C   0  0  0  0  0  0  0  0  0  0  0  0
  128.5160  125.0160   58.1080 N   0  0  0  0  0  0  0  0  0  0  0  0
  129.8330  125.3320   58.2080 C   0  0  0  0  0  0  0  0  0  0  0  0
  130.7350  124.2770   58.7810 C   0  0  0  0  0  0  0  0  0  0  0  0
  130.2160  123.1800   59.4870 C   0  0  0  0  0  0  0  0  0  0  0  0
  131.0540  122.2070   60.0230 C   0  0  0  0  0  0  0  0  0  0  0  0
  132.4350  122.3000   59.8730 C   0  0  0  0  0  0  0  0  0  0  0  0
  133.1890  121.2910   60.4410 O   0  0  0  0  0  0  0  0  0  0  0  0
  133.9560  121.5710   61.6070 C   0  0  0  0  0  0  0  0  0  0  0  0
  132.9690  123.3890   59.1710 C   0  0  0  0  0  0  0  0  0  0  0  0
  132.1270  124.3600   58.6350 C   0  0  0  0  0  0  0  0  0  0  0  0
  130.3020  126.5780   57.7760 C   0  0  0  0  0  0  0  0  0  0  0  0
  129.4190  127.5320   57.2570 C   0  0  0  0  0  0  0  0  0  0  0  0
  129.9860  128.8450   56.8220 C   0  0  0  0  0  0  0  0  0  0  0  0
  130.8580  129.5470   57.6590 C   0  0  0  0  0  0  0  0  0  0  0  0
  131.3910  130.7700   57.2600 C   0  0  0  0  0  0  0  0  0  0  0  0
  131.0680  131.3130   56.0170 C   0  0  0  0  0  0  0  0  0  0  0  0
  131.6370  132.5340   55.7090 O   0  0  0  0  0  0  0  0  0  0  0  0
  133.0530  132.6700   55.7480 C   0  0  0  0  0  0  0  0  0  0  0  0
  130.2030  130.6060   55.1680 C   0  0  0  0  0  0  0  0  0  0  0  0
  129.6730  129.3830   55.5680 C   0  0  0  0  0  0  0  0  0  0  0  0
  128.0420  127.2060   57.1800 C   0  0  0  0  0  0  0  0  0  0  0  0
  127.0600  128.2030   56.7420 C   0  0  0  0  0  0  0  0  0  0  0  0
  126.2860  128.9910   56.3960 N   0  0  0  0  0  0  0  0  0  0  0  0
  128.5904  124.4122   55.3217 H   0  0  0  0  0  0  0  0  0  0  0  0
  128.6569  122.9038   54.3486 H   0  0  0  0  0  0  0  0  0  0  0  0
  127.1673  123.9076   54.3486 H   0  0  0  0  0  0  0  0  0  0  0  0
  125.0707  123.1853   58.2284 H   0  0  0  0  0  0  0  0  0  0  0  0
  126.8361  123.2565   58.4618 H   0  0  0  0  0  0  0  0  0  0  0  0
  129.1278  123.0881   59.6187 H   0  0  0  0  0  0  0  0  0  0  0  0
  130.6213  121.3565   60.5703 H   0  0  0  0  0  0  0  0  0  0  0  0
  133.3556  121.3518   62.5022 H   0  0  0  0  0  0  0  0  0  0  0  0
  134.8606  120.9451   61.6099 H   0  0  0  0  0  0  0  0  0  0  0  0
  134.2446  122.6325   61.6099 H   0  0  0  0  0  0  0  0  0  0  0  0
  134.0579  123.4771   59.0428 H   0  0  0  0  0  0  0  0  0  0  0  0
  132.5623  125.2084   58.0866 H   0  0  0  0  0  0  0  0  0  0  0  0
  131.3751  126.8098   57.8450 H   0  0  0  0  0  0  0  0  0  0  0  0
  131.1254  129.1299   58.6411 H   0  0  0  0  0  0  0  0  0  0  0  0
  132.0729  131.3125   57.9313 H   0  0  0  0  0  0  0  0  0  0  0  0
  133.3896  132.7023   56.7948 H   0  0  0  0  0  0  0  0  0  0  0  0
  133.5179  131.8124   55.2397 H   0  0  0  0  0  0  0  0  0  0  0  0
  133.3461  133.6004   55.2397 H   0  0  0  0  0  0  0  0  0  0  0  0
  129.9429  131.0200   54.1826 H   0  0  0  0  0  0  0  0  0  0  0  0
  129.0014  128.8335   54.8921 H   0  0  0  0  0  0  0  0  0  0  0  0
  1  2  1  0
  2  3  1  0
  3  4  2  0
  3  5  1  0
  5  6  1  0
  6  7  1  0
  7  8  2  0
  8  9  1  0
  9 10  1  0
 10 11  2  0
 11 12  1  0
 12 13  2  0
 13 14  1  0
 14 15  1  0
 13 16  1  0
 16 17  2  0
  9 18  2  0
 18 19  1  0
 19 20  1  0
 20 21  2  0
 21 22  1  0
 22 23  2  0
 23 24  1  0
 24 25  1  0
 23 26  1  0
 26 27  2  0
 19 28  2  0
 28 29  1  0
 29 30  3  0
 28  7  1  0
 17 10  1  0
 27 20  1  0
  1 31  1  0
  1 32  1  0
  1 33  1  0
  5 34  1  0
  5 35  1  0
 11 36  1  0
 12 37  1  0
 15 38  1  0
 15 39  1  0
 15 40  1  0
 16 41  1  0
 17 42  1  0
 18 43  1  0
 21 44  1  0
 22 45  1  0
 25 46  1  0
 25 47  1  0
 25 48  1  0
 26 49  1  0
 27 50  1  0
M  END
>  <Binding energies>  (1) 
[-7.02]

>  <Ligand effiencies>  (1) 
[-0.23399999999999999]

>  <Interactions>  (1) 
["V-A:ILE:538:CG2:4861, V-A:PRO:540:CD:4885, V-A:PRO:540:N:4882, V-B:TYR:539:CD2:9846, H-B:TYR:531:OH:9767, V-B:PRO:540:CA:9855, V-A:LEU:475:CD2:4257, V-A:ILE:369:CG2:3235, V-A:ILE:538:CB:4860, V-A:ILE:538:CA:4858, V-A:ILE:369:CD1:3237, V-B:TYR:539:CE2:9848, V-B:PRO:540:N:9856, V-B:ILE:538:CB:9834, V-A:ASP:366:CG:3211, V-B:PRO:540:CD:9859, V-B:PRO:540:CB:9857, V-B:TYR:539:CE1:9847, V-B:ILE:538:CA:9832, V-B:TYR:539:C:9839, V-B:TYR:539:CA:9841, V-B:TYR:539:CD1:9845, V-A:PRO:540:CB:4883, V-A:LEU:363:CD1:3187, V-A:TYR:531:CE2:4791, H-A:TYR:539:N:4868, V-A:GLY:454:CA:4047, H-B:TYR:539:N:9842, V-A:PRO:540:CG:4884, V-A:ILE:538:CD1:4863, V-A:ILE:538:CG1:4862"]

$$$$
1d_Grossjean_2025
     RDKit          3D

 36 37  0  0  0  0  0  0  0  0999 V2000
  128.7270  132.5300   73.9020 C   0  0  0  0  0  0  0  0  0  0  0  0
  127.7130  131.4220   74.1130 C   0  0  0  0  0  0  0  0  0  0  0  0
  126.6140  131.5890   74.9540 C   0  0  0  0  0  0  0  0  0  0  0  0
  125.7060  130.5360   75.1020 C   0  0  0  0  0  0  0  0  0  0  0  0
  124.5010  130.7480   76.0170 C   0  0  0  0  0  0  0  0  0  0  0  0
  125.9280  129.3260   74.4040 C   0  0  0  0  0  0  0  0  0  0  0  0
  124.9650  128.2280   74.5070 C   0  0  0  0  0  0  0  0  0  0  0  0
  124.2020  127.3620   74.5900 N   0  0  0  0  0  0  0  0  0  0  0  0
  127.0830  129.2370   73.5920 C   0  0  0  0  0  0  0  0  0  0  0  0
  127.5190  127.7950   72.6470 S   0  0  0  0  0  0  0  0  0  0  0  0
  129.3040  127.8850   72.3100 C   0  0  0  0  0  0  0  0  0  0  0  0
  130.0460  126.6390   72.7970 C   0  0  0  0  0  0  0  0  0  0  0  0
  129.5150  125.5360   72.6700 O   0  0  0  0  0  0  0  0  0  0  0  0
  131.2710  126.8640   73.3200 N   0  0  0  0  0  0  0  0  0  0  0  0
  132.1970  125.9570   73.8680 C   0  0  0  0  0  0  0  0  0  0  0  0
  131.6670  124.7430   74.3140 C   0  0  0  0  0  0  0  0  0  0  0  0
  132.4980  123.7740   74.8680 C   0  0  0  0  0  0  0  0  0  0  0  0
  133.8650  124.0140   74.9710 C   0  0  0  0  0  0  0  0  0  0  0  0
  134.4090  125.2160   74.5230 C   0  0  0  0  0  0  0  0  0  0  0  0
  133.5800  126.1880   73.9700 C   0  0  0  0  0  0  0  0  0  0  0  0
  127.9470  130.2720   73.4380 N   0  0  0  0  0  0  0  0  0  0  0  0
  129.0695  132.9043   74.8780 H   0  0  0  0  0  0  0  0  0  0  0  0
  129.5860  132.1383   73.3375 H   0  0  0  0  0  0  0  0  0  0  0  0
  128.2609  133.3510   73.3375 H   0  0  0  0  0  0  0  0  0  0  0  0
  126.4632  132.5357   75.4935 H   0  0  0  0  0  0  0  0  0  0  0  0
  124.8235  130.6913   77.0671 H   0  0  0  0  0  0  0  0  0  0  0  0
  124.0616  131.7372   75.8213 H   0  0  0  0  0  0  0  0  0  0  0  0
  123.7503  129.9681   75.8213 H   0  0  0  0  0  0  0  0  0  0  0  0
  129.4553  127.9864   71.2252 H   0  0  0  0  0  0  0  0  0  0  0  0
  129.7074  128.7527   72.8525 H   0  0  0  0  0  0  0  0  0  0  0  0
  131.5890  127.8220   73.3110 H   0  0  0  0  0  0  0  0  0  0  0  0
  130.5871  124.5525   74.2266 H   0  0  0  0  0  0  0  0  0  0  0  0
  132.0761  122.8222   75.2231 H   0  0  0  0  0  0  0  0  0  0  0  0
  134.5216  123.2483   75.4098 H   0  0  0  0  0  0  0  0  0  0  0  0
  135.4909  125.3964   74.6061 H   0  0  0  0  0  0  0  0  0  0  0  0
  134.0070  127.1367   73.6129 H   0  0  0  0  0  0  0  0  0  0  0  0
  1  2  1  0
  2  3  2  0
  3  4  1  0
  4  5  1  0
  4  6  2  0
  6  7  1  0
  7  8  3  0
  6  9  1  0
  9 10  1  0
 10 11  1  0
 11 12  1  0
 12 13  2  0
 12 14  1  0
 14 15  1  0
 15 16  2  0
 16 17  1  0
 17 18  2  0
 18 19  1  0
 19 20  2  0
  9 21  2  0
 21  2  1  0
 20 15  1  0
  1 22  1  0
  1 23  1  0
  1 24  1  0
  3 25  1  0
  5 26  1  0
  5 27  1  0
  5 28  1  0
 11 29  1  0
 11 30  1  0
 14 31  1  0
 16 32  1  0
 17 33  1  0
 18 34  1  0
 19 35  1  0
 20 36  1  0
M  END
>  <Binding energies>  (1) 
[-8.46]

>  <Ligand effiencies>  (1) 
[-0.3845454545454546]

>  <Interactions>  (1) 
["V-A:LYS:547:CE:4948, V-B:HIS:456:CG:9038, V-A:GLY:544:C:4910, V-B:LYS:547:CE:9922, V-A:HIS:456:CD2:4066, V-B:HIS:456:CD2:9040, V-A:HIS:456:CG:4064, H-B:LYS:547:NZ:9923, H-A:LYS:547:NZ:4949, H-A:GLY:544:O:4911, V-B:LYS:547:CD:9921, V-A:HIS:456:C:4059, V-B:VAL:458:CG2:9059, V-B:HIS:456:CB:9037, V-A:HIS:456:CB:4063, V-B:HIS:456:C:9033, V-A:VAL:458:CG2:4085, V-A:LYS:471:CE:4218, V-A:VAL:457:C:4071, V-B:LYS:547:CG:9920, V-B:LYS:471:CE:9192, V-B:LYS:471:CD:9191, V-B:LYS:471:CG:9190, V-B:ASP:473:CG:9212, V-A:VAL:457:CA:4073, V-A:HIS:456:CA:4061"]

$$$$
1e_Grossjean_2025
     RDKit          3D

 38 39  0  0  0  0  0  0  0  0999 V2000
  126.8660  131.8800   75.6030 C   0  0  0  0  0  0  0  0  0  0  0  0
  126.2670  130.5680   75.1300 C   0  0  0  0  0  0  0  0  0  0  0  0
  124.9210  130.2600   75.3430 C   0  0  0  0  0  0  0  0  0  0  0  0
  124.4410  129.0340   74.8830 C   0  0  0  0  0  0  0  0  0  0  0  0
  125.3060  128.1540   74.2300 C   0  0  0  0  0  0  0  0  0  0  0  0
  126.6430  128.5270   74.0440 C   0  0  0  0  0  0  0  0  0  0  0  0
  127.4690  127.5960   73.3910 N   0  0  0  0  0  0  0  0  0  0  0  0
  128.6320  127.8150   72.7390 C   0  0  0  0  0  0  0  0  0  0  0  0
  129.1680  128.9160   72.6010 O   0  0  0  0  0  0  0  0  0  0  0  0
  129.2870  126.5820   72.1150 C   0  0  0  0  0  0  0  0  0  0  0  0
  131.0940  126.5940   72.3190 S   0  0  0  0  0  0  0  0  0  0  0  0
  131.5620  125.2130   73.3420 C   0  0  0  0  0  0  0  0  0  0  0  0
  130.6110  124.2460   73.4110 N   0  0  0  0  0  0  0  0  0  0  0  0
  130.8520  123.1460   74.1620 C   0  0  0  0  0  0  0  0  0  0  0  0
  129.7490  122.1060   74.1840 C   0  0  0  0  0  0  0  0  0  0  0  0
  132.0340  122.9700   74.8790 C   0  0  0  0  0  0  0  0  0  0  0  0
  133.0100  123.9710   74.8360 C   0  0  0  0  0  0  0  0  0  0  0  0
  134.2880  123.7620   75.6460 C   0  0  0  0  0  0  0  0  0  0  0  0
  132.7790  125.1300   74.0610 C   0  0  0  0  0  0  0  0  0  0  0  0
  133.7650  126.2130   74.0520 C   0  0  0  0  0  0  0  0  0  0  0  0
  134.5460  127.0670   74.0470 N   0  0  0  0  0  0  0  0  0  0  0  0
  127.1210  129.7240   74.4960 N   0  0  0  0  0  0  0  0  0  0  0  0
  126.8765  131.9029   76.7027 H   0  0  0  0  0  0  0  0  0  0  0  0
  127.8948  131.9709   75.2245 H   0  0  0  0  0  0  0  0  0  0  0  0
  126.2608  132.7170   75.2245 H   0  0  0  0  0  0  0  0  0  0  0  0
  124.2562  130.9671   75.8608 H   0  0  0  0  0  0  0  0  0  0  0  0
  123.3860  128.7617   75.0340 H   0  0  0  0  0  0  0  0  0  0  0  0
  124.9425  127.1814   73.8667 H   0  0  0  0  0  0  0  0  0  0  0  0
  127.1080  126.6530   73.3700 H   0  0  0  0  0  0  0  0  0  0  0  0
  128.8810  125.6812   72.5984 H   0  0  0  0  0  0  0  0  0  0  0  0
  129.0666  126.5888   71.0373 H   0  0  0  0  0  0  0  0  0  0  0  0
  129.4932  121.8648   75.2263 H   0  0  0  0  0  0  0  0  0  0  0  0
  128.8606  122.5028   73.6708 H   0  0  0  0  0  0  0  0  0  0  0  0
  130.0929  121.1958   73.6708 H   0  0  0  0  0  0  0  0  0  0  0  0
  132.1971  122.0569   75.4703 H   0  0  0  0  0  0  0  0  0  0  0  0
  134.0520  123.8006   76.7197 H   0  0  0  0  0  0  0  0  0  0  0  0
  134.7212  122.7811   75.4008 H   0  0  0  0  0  0  0  0  0  0  0  0
  135.0111  124.5538   75.4008 H   0  0  0  0  0  0  0  0  0  0  0  0
  1  2  1  0
  2  3  2  0
  3  4  1  0
  4  5  2  0
  5  6  1  0
  6  7  1  0
  7  8  1  0
  8  9  2  0
  8 10  1  0
 10 11  1  0
 11 12  1  0
 12 13  2  0
 13 14  1  0
 14 15  1  0
 14 16  2  0
 16 17  1  0
 17 18  1  0
 17 19  2  0
 19 20  1  0
 20 21  3  0
  6 22  2  0
 22  2  1  0
 19 12  1  0
  1 23  1  0
  1 24  1  0
  1 25  1  0
  3 26  1  0
  4 27  1  0
  5 28  1  0
  7 29  1  0
 10 30  1  0
 10 31  1  0
 15 32  1  0
 15 33  1  0
 15 34  1  0
 16 35  1  0
 18 36  1  0
 18 37  1  0
 18 38  1  0
M  END
>  <Binding energies>  (1) 
[-8.31]

>  <Ligand effiencies>  (1) 
[-0.361304347826087]

>  <Interactions>  (1) 
["V-B:GLY:544:C:9884, V-A:LYS:547:CE:4948, V-B:LYS:547:CE:9922, V-A:HIS:456:CD2:4066, V-A:HIS:456:CG:4064, H-B:GLY:544:O:9885, H-B:LYS:547:NZ:9923, H-A:LYS:547:NZ:4949, V-B:LYS:547:CD:9921, V-A:ASP:473:CG:4238, V-A:HIS:456:C:4059, V-B:VAL:458:CG2:9059, V-B:VAL:457:C:9045, V-B:HIS:456:CB:9037, V-A:LYS:471:CD:4217, V-A:HIS:456:CB:4063, V-B:HIS:456:CA:9035, V-B:HIS:456:C:9033, V-A:VAL:458:CG2:4085, V-A:LYS:471:CE:4218, V-A:VAL:457:C:4071, V-B:LYS:471:CE:9192, V-B:LYS:471:CD:9191, V-B:ASP:473:CG:9212, V-A:HIS:456:CA:4061, V-A:LYS:471:CG:4216, V-A:LYS:471:CB:4215"]

$$$$
1f_Grossjean_2025
     RDKit          3D

 35 36  0  0  0  0  0  0  0  0999 V2000
  128.8760  132.4810   73.8850 C   0  0  0  0  0  0  0  0  0  0  0  0
  127.8310  131.3950   74.0650 C   0  0  0  0  0  0  0  0  0  0  0  0
  126.7240  131.5770   74.8900 C   0  0  0  0  0  0  0  0  0  0  0  0
  125.8010  130.5360   75.0270 C   0  0  0  0  0  0  0  0  0  0  0  0
  124.6040  130.7520   75.9510 C   0  0  0  0  0  0  0  0  0  0  0  0
  126.0090  129.3290   74.3200 C   0  0  0  0  0  0  0  0  0  0  0  0
  125.0830  128.2070   74.4940 C   0  0  0  0  0  0  0  0  0  0  0  0
  124.3500  127.3220   74.6320 N   0  0  0  0  0  0  0  0  0  0  0  0
  127.1460  129.2420   73.4830 C   0  0  0  0  0  0  0  0  0  0  0  0
  127.5710  127.8060   72.5170 S   0  0  0  0  0  0  0  0  0  0  0  0
  129.3790  127.7950   72.2670 C   0  0  0  0  0  0  0  0  0  0  0  0
  130.0970  126.5420   72.7910 C   0  0  0  0  0  0  0  0  0  0  0  0
  129.5580  125.4370   72.7160 O   0  0  0  0  0  0  0  0  0  0  0  0
  131.3080  126.7770   73.3390 N   0  0  0  0  0  0  0  0  0  0  0  0
  132.2300  125.8740   73.9030 C   0  0  0  0  0  0  0  0  0  0  0  0
  131.9250  124.5890   74.3900 C   0  0  0  0  0  0  0  0  0  0  0  0
  132.9430  123.7920   74.9230 C   0  0  0  0  0  0  0  0  0  0  0  0
  134.2420  124.2990   74.9520 C   0  0  0  0  0  0  0  0  0  0  0  0
  134.5630  125.5310   74.4840 N   0  0  0  0  0  0  0  0  0  0  0  0
  133.5630  126.2930   73.9700 C   0  0  0  0  0  0  0  0  0  0  0  0
  128.0480  130.2500   73.3760 N   0  0  0  0  0  0  0  0  0  0  0  0
  129.2137  132.8320   74.8713 H   0  0  0  0  0  0  0  0  0  0  0  0
  129.7330  132.0763   73.3266 H   0  0  0  0  0  0  0  0  0  0  0  0
  128.4386  133.3218   73.3266 H   0  0  0  0  0  0  0  0  0  0  0  0
  126.5779  132.5263   75.4262 H   0  0  0  0  0  0  0  0  0  0  0  0
  124.9340  130.6924   76.9986 H   0  0  0  0  0  0  0  0  0  0  0  0
  124.1675  131.7434   75.7599 H   0  0  0  0  0  0  0  0  0  0  0  0
  123.8485  129.9757   75.7599 H   0  0  0  0  0  0  0  0  0  0  0  0
  129.5752  127.8749   71.1876 H   0  0  0  0  0  0  0  0  0  0  0  0
  129.7755  128.6423   72.8456 H   0  0  0  0  0  0  0  0  0  0  0  0
  131.6030  127.7420   73.3690 H   0  0  0  0  0  0  0  0  0  0  0  0
  130.8917  124.2138   74.3515 H   0  0  0  0  0  0  0  0  0  0  0  0
  132.7239  122.7864   75.3112 H   0  0  0  0  0  0  0  0  0  0  0  0
  135.0417  123.6719   75.3731 H   0  0  0  0  0  0  0  0  0  0  0  0
  133.8147  127.2926   73.5860 H   0  0  0  0  0  0  0  0  0  0  0  0
  1  2  1  0
  2  3  2  0
  3  4  1  0
  4  5  1  0
  4  6  2  0
  6  7  1  0
  7  8  3  0
  6  9  1  0
  9 10  1  0
 10 11  1  0
 11 12  1  0
 12 13  2  0
 12 14  1  0
 14 15  1  0
 15 16  2  0
 16 17  1  0
 17 18  2  0
 18 19  1  0
 19 20  2  0
  9 21  2  0
 21  2  1  0
 20 15  1  0
  1 22  1  0
  1 23  1  0
  1 24  1  0
  3 25  1  0
  5 26  1  0
  5 27  1  0
  5 28  1  0
 11 29  1  0
 11 30  1  0
 14 31  1  0
 16 32  1  0
 17 33  1  0
 18 34  1  0
 20 35  1  0
M  END
>  <Binding energies>  (1) 
[-8.07]

>  <Ligand effiencies>  (1) 
[-0.3668181818181818]

>  <Interactions>  (1) 
["V-A:LYS:547:CE:4948, V-B:HIS:456:CG:9038, V-A:GLY:544:C:4910, V-B:LYS:547:CE:9922, V-B:HIS:456:CD2:9040, V-A:HIS:456:CG:4064, H-B:LYS:547:NZ:9923, H-A:LYS:547:NZ:4949, H-A:GLY:544:O:4911, V-B:LYS:547:CD:9921, V-A:HIS:456:C:4059, V-B:VAL:458:CG2:9059, V-B:HIS:456:CB:9037, V-A:HIS:456:CB:4063, V-B:HIS:456:C:9033, V-A:VAL:458:CG2:4085, V-A:LYS:471:CE:4218, V-A:VAL:457:C:4071, V-B:LYS:547:CG:9920, V-B:LYS:471:CE:9192, V-B:LYS:471:CD:9191, V-B:LYS:471:CG:9190, V-B:ASP:473:CG:9212, V-A:HIS:456:CA:4061, H-A:VAL:457:N:4074"]

$$$$
1g_Grossjean_2025
     RDKit          3D

 39 40  0  0  0  0  0  0  0  0999 V2000
  127.1500  129.5780   56.8720 C   0  0  0  0  0  0  0  0  0  0  0  0
  126.4850  130.4260   57.9400 C   0  0  0  0  0  0  0  0  0  0  0  0
  125.1100  130.3740   58.1610 C   0  0  0  0  0  0  0  0  0  0  0  0
  124.5500  131.1910   59.1490 C   0  0  0  0  0  0  0  0  0  0  0  0
  123.0380  131.1280   59.3640 C   0  0  0  0  0  0  0  0  0  0  0  0
  125.3910  132.0410   59.9030 C   0  0  0  0  0  0  0  0  0  0  0  0
  124.8200  132.9430   60.9070 C   0  0  0  0  0  0  0  0  0  0  0  0
  124.3660  133.6550   61.6980 N   0  0  0  0  0  0  0  0  0  0  0  0
  126.7780  132.0090   59.6270 C   0  0  0  0  0  0  0  0  0  0  0  0
  127.9780  133.0030   60.4850 S   0  0  0  0  0  0  0  0  0  0  0  0
  128.8710  131.9070   61.6270 C   0  0  0  0  0  0  0  0  0  0  0  0
  130.1740  131.3850   61.0190 C   0  0  0  0  0  0  0  0  0  0  0  0
  131.2420  131.5560   61.6080 O   0  0  0  0  0  0  0  0  0  0  0  0
  130.0680  130.7550   59.8360 N   0  0  0  0  0  0  0  0  0  0  0  0
  131.1710  130.1290   59.1060 C   0  0  0  0  0  0  0  0  0  0  0  0
  131.6780  130.9410   57.9170 C   0  0  0  0  0  0  0  0  0  0  0  0
  133.0510  131.1420   57.7440 C   0  0  0  0  0  0  0  0  0  0  0  0
  133.5140  131.8820   56.6590 C   0  0  0  0  0  0  0  0  0  0  0  0
  132.6020  132.4130   55.7480 C   0  0  0  0  0  0  0  0  0  0  0  0
  131.2340  132.2120   55.9120 C   0  0  0  0  0  0  0  0  0  0  0  0
  130.7700  131.4740   56.9980 C   0  0  0  0  0  0  0  0  0  0  0  0
  127.3090  131.2300   58.6510 N   0  0  0  0  0  0  0  0  0  0  0  0
  127.7612  128.7986   57.3505 H   0  0  0  0  0  0  0  0  0  0  0  0
  126.3787  129.1061   56.2456 H   0  0  0  0  0  0  0  0  0  0  0  0
  127.7922  130.2145   56.2456 H   0  0  0  0  0  0  0  0  0  0  0  0
  124.4744  129.7005   57.5674 H   0  0  0  0  0  0  0  0  0  0  0  0
  122.8210  131.1190   60.4424 H   0  0  0  0  0  0  0  0  0  0  0  0
  122.5650  132.0072   58.9022 H   0  0  0  0  0  0  0  0  0  0  0  0
  122.6398  130.2125   58.9022 H   0  0  0  0  0  0  0  0  0  0  0  0
  129.1062  132.4660   62.5447 H   0  0  0  0  0  0  0  0  0  0  0  0
  128.2261  131.0423   61.8421 H   0  0  0  0  0  0  0  0  0  0  0  0
  129.1490  130.6410   59.4330 H   0  0  0  0  0  0  0  0  0  0  0  0
  132.0076  129.9825   59.8050 H   0  0  0  0  0  0  0  0  0  0  0  0
  130.7832  129.1833   58.6994 H   0  0  0  0  0  0  0  0  0  0  0  0
  133.7648  130.7159   58.4644 H   0  0  0  0  0  0  0  0  0  0  0  0
  134.5929  132.0466   56.5216 H   0  0  0  0  0  0  0  0  0  0  0  0
  132.9671  132.9971   54.8904 H   0  0  0  0  0  0  0  0  0  0  0  0
  130.5228  132.6343   55.1868 H   0  0  0  0  0  0  0  0  0  0  0  0
  129.6905  131.3108   57.1323 H   0  0  0  0  0  0  0  0  0  0  0  0
  1  2  1  0
  2  3  2  0
  3  4  1  0
  4  5  1  0
  4  6  2  0
  6  7  1  0
  7  8  3  0
  6  9  1  0
  9 10  1  0
 10 11  1  0
 11 12  1  0
 12 13  2  0
 12 14  1  0
 14 15  1  0
 15 16  1  0
 16 17  2  0
 17 18  1  0
 18 19  2  0
 19 20  1  0
 20 21  2  0
  9 22  2  0
 22  2  1  0
 21 16  1  0
  1 23  1  0
  1 24  1  0
  1 25  1  0
  3 26  1  0
  5 27  1  0
  5 28  1  0
  5 29  1  0
 11 30  1  0
 11 31  1  0
 14 32  1  0
 15 33  1  0
 15 34  1  0
 17 35  1  0
 18 36  1  0
 19 37  1  0
 20 38  1  0
 21 39  1  0
M  END
>  <Binding energies>  (1) 
[-6.89]

>  <Ligand effiencies>  (1) 
[-0.2995652173913043]

>  <Interactions>  (1) 
["V-A:ILE:538:CG2:4861, V-A:PRO:540:CD:4885, V-B:ASP:366:CG:8185, V-A:PRO:540:N:4882, V-A:ILE:538:CB:4860, V-A:ILE:538:CA:4858, V-B:ILE:369:CD1:8211, V-A:TYR:539:CD2:4872, V-B:ILE:369:CG2:8209, V-A:TYR:539:CE2:4874, V-A:TYR:539:CZ:4875, H-A:ALA:541:N:4889, V-A:PRO:540:CA:4881, V-A:ALA:541:CB:4890, V-A:PRO:540:CB:4883, V-A:LEU:363:CD1:3187, V-A:TYR:531:CE2:4791, V-B:ASP:366:C:8180, V-B:ASP:366:CB:8184, V-B:ILE:369:CB:8208, V-B:ASP:366:CA:8182, V-A:LEU:363:CA:3183, V-A:PRO:540:CG:4884"]

$$$$
1h_Grossjean_2025
     RDKit          3D

 51 52  0  0  0  0  0  0  0  0999 V2000
  123.4310  131.1670   59.2410 C   0  0  0  0  0  0  0  0  0  0  0  0
  124.4860  131.6720   60.0520 O   0  0  0  0  0  0  0  0  0  0  0  0
  125.0010  130.8820   61.0640 C   0  0  0  0  0  0  0  0  0  0  0  0
  126.0870  130.0080   60.9000 C   0  0  0  0  0  0  0  0  0  0  0  0
  126.5450  129.2300   61.9640 C   0  0  0  0  0  0  0  0  0  0  0  0
  127.7420  128.3020   61.7790 C   0  0  0  0  0  0  0  0  0  0  0  0
  127.4170  126.8810   61.9070 N   0  0  0  0  0  0  0  0  0  0  0  0
  126.9680  126.0940   60.9120 C   0  0  0  0  0  0  0  0  0  0  0  0
  126.8010  126.4820   59.7570 O   0  0  0  0  0  0  0  0  0  0  0  0
  126.6520  124.6440   61.2810 C   0  0  0  0  0  0  0  0  0  0  0  0
  127.4870  123.4640   60.1770 S   0  0  0  0  0  0  0  0  0  0  0  0
  126.8080  123.6640   58.5380 C   0  0  0  0  0  0  0  0  0  0  0  0
  125.4530  123.6050   58.4490 N   0  0  0  0  0  0  0  0  0  0  0  0
  124.8720  123.7530   57.2360 C   0  0  0  0  0  0  0  0  0  0  0  0
  123.3570  123.6800   57.2180 C   0  0  0  0  0  0  0  0  0  0  0  0
  125.6070  123.9620   56.0700 C   0  0  0  0  0  0  0  0  0  0  0  0
  127.0020  124.0230   56.1480 C   0  0  0  0  0  0  0  0  0  0  0  0
  127.7880  124.2550   54.8600 C   0  0  0  0  0  0  0  0  0  0  0  0
  127.6300  123.8710   57.4060 C   0  0  0  0  0  0  0  0  0  0  0  0
  129.0900  123.9280   57.5170 C   0  0  0  0  0  0  0  0  0  0  0  0
  130.2440  123.9720   57.6040 N   0  0  0  0  0  0  0  0  0  0  0  0
  125.9390  129.3490   63.2160 C   0  0  0  0  0  0  0  0  0  0  0  0
  124.8540  130.2190   63.4090 C   0  0  0  0  0  0  0  0  0  0  0  0
  124.2040  130.3850   64.6190 O   0  0  0  0  0  0  0  0  0  0  0  0
  124.6310  129.6340   65.7510 C   0  0  0  0  0  0  0  0  0  0  0  0
  124.3870  130.9720   62.3220 C   0  0  0  0  0  0  0  0  0  0  0  0
  123.3310  131.8320   62.4980 O   0  0  0  0  0  0  0  0  0  0  0  0
  123.6960  133.2050   62.4990 C   0  0  0  0  0  0  0  0  0  0  0  0
  122.6262  130.7818   59.8843 H   0  0  0  0  0  0  0  0  0  0  0  0
  123.0379  131.9746   58.6059 H   0  0  0  0  0  0  0  0  0  0  0  0
  123.8135  130.3544   58.6059 H   0  0  0  0  0  0  0  0  0  0  0  0
  126.5830  129.9355   59.9209 H   0  0  0  0  0  0  0  0  0  0  0  0
  128.1604  128.4724   60.7761 H   0  0  0  0  0  0  0  0  0  0  0  0
  128.4564  128.5393   62.5811 H   0  0  0  0  0  0  0  0  0  0  0  0
  127.5130  126.4840   62.8300 H   0  0  0  0  0  0  0  0  0  0  0  0
  126.9831  124.4599   62.3137 H   0  0  0  0  0  0  0  0  0  0  0  0
  125.5668  124.4957   61.1793 H   0  0  0  0  0  0  0  0  0  0  0  0
  122.9785  123.6618   58.2507 H   0  0  0  0  0  0  0  0  0  0  0  0
  122.9537  124.5598   56.6951 H   0  0  0  0  0  0  0  0  0  0  0  0
  123.0402  122.7655   56.6951 H   0  0  0  0  0  0  0  0  0  0  0  0
  125.0969  124.0773   55.1023 H   0  0  0  0  0  0  0  0  0  0  0  0
  128.8160  124.5584   55.1074 H   0  0  0  0  0  0  0  0  0  0  0  0
  127.8114  123.3255   54.2723 H   0  0  0  0  0  0  0  0  0  0  0  0
  127.3029  125.0483   54.2723 H   0  0  0  0  0  0  0  0  0  0  0  0
  126.3159  128.7543   64.0611 H   0  0  0  0  0  0  0  0  0  0  0  0
  124.3335  130.1573   66.6717 H   0  0  0  0  0  0  0  0  0  0  0  0
  124.1639  128.6384   65.7279 H   0  0  0  0  0  0  0  0  0  0  0  0
  125.7255  129.5262   65.7279 H   0  0  0  0  0  0  0  0  0  0  0  0
  123.7900  133.5586   63.5363 H   0  0  0  0  0  0  0  0  0  0  0  0
  124.6583  133.3290   61.9807 H   0  0  0  0  0  0  0  0  0  0  0  0
  122.9223  133.7905   61.9807 H   0  0  0  0  0  0  0  0  0  0  0  0
  1  2  1  0
  2  3  1  0
  3  4  2  0
  4  5  1  0
  5  6  1  0
  6  7  1  0
  7  8  1  0
  8  9  2  0
  8 10  1  0
 10 11  1  0
 11 12  1  0
 12 13  2  0
 13 14  1  0
 14 15  1  0
 14 16  2  0
 16 17  1  0
 17 18  1  0
 17 19  2  0
 19 20  1  0
 20 21  3  0
  5 22  2  0
 22 23  1  0
 23 24  1  0
 24 25  1  0
 23 26  2  0
 26 27  1  0
 27 28  1  0
 26  3  1  0
 19 12  1  0
  1 29  1  0
  1 30  1  0
  1 31  1  0
  4 32  1  0
  6 33  1  0
  6 34  1  0
  7 35  1  0
 10 36  1  0
 10 37  1  0
 15 38  1  0
 15 39  1  0
 15 40  1  0
 16 41  1  0
 18 42  1  0
 18 43  1  0
 18 44  1  0
 22 45  1  0
 25 46  1  0
 25 47  1  0
 25 48  1  0
 28 49  1  0
 28 50  1  0
 28 51  1  0
M  END
>  <Binding energies>  (1) 
[-6.98]

>  <Ligand effiencies>  (1) 
[-0.2406896551724138]

>  <Interactions>  (1) 
["V-B:ASP:366:CG:8185, V-B:TYR:539:CD2:9846, V-B:PRO:540:CA:9855, H-B:ALA:541:N:9863, V-B:TYR:539:CE2:9848, V-B:PRO:540:N:9856, V-B:ILE:369:CD1:8211, V-B:TYR:531:CE2:9765, V-B:PRO:540:CD:9859, V-B:PRO:540:CB:9857, V-B:ILE:369:CG2:8209, V-B:LEU:475:CD2:9231, H-B:GLU:543:OE2:9882, H-B:GLU:543:OE1:9881, V-B:TYR:539:CZ:9849, V-B:TYR:539:C:9839, V-B:LEU:363:CD1:8161, V-B:TYR:531:CZ:9766, V-B:GLU:543:CD:9880, V-B:ARG:545:CZ:9898, H-B:ARG:545:NE:9896, H-B:GLY:454:N:9022, H-B:TYR:484:OH:9320, V-B:HIS:456:CE1:9042, H-B:TYR:539:OH:9850, V-B:ASP:366:CB:8184, V-B:ILE:369:CB:8208, V-B:ASP:366:CA:8182, V-B:ARG:545:CG:9894, V-B:ARG:545:CD:9895, V-B:LEU:363:CA:8157, V-B:LEU:363:CB:8159, V-B:PRO:540:CG:9858, V-B:GLY:454:CA:9021"]

$$$$
1i_Grossjean_2025
     RDKit          3D

 32 33  0  0  0  0  0  0  0  0999 V2000
  132.4020  131.1030   62.1020 C   0  0  0  0  0  0  0  0  0  0  0  0
  131.7960  131.3690   60.7370 C   0  0  0  0  0  0  0  0  0  0  0  0
  132.5260  131.1800   59.5660 C   0  0  0  0  0  0  0  0  0  0  0  0
  131.9120  131.4310   58.3340 C   0  0  0  0  0  0  0  0  0  0  0  0
  132.7280  131.2010   57.0630 C   0  0  0  0  0  0  0  0  0  0  0  0
  130.5700  131.8770   58.3080 C   0  0  0  0  0  0  0  0  0  0  0  0
  129.8930  132.0980   57.0280 C   0  0  0  0  0  0  0  0  0  0  0  0
  129.3590  132.2700   56.0160 N   0  0  0  0  0  0  0  0  0  0  0  0
  129.9140  132.0650   59.5480 C   0  0  0  0  0  0  0  0  0  0  0  0
  128.2310  132.6200   59.7010 S   0  0  0  0  0  0  0  0  0  0  0  0
  127.9600  133.0800   61.4390 C   0  0  0  0  0  0  0  0  0  0  0  0
  126.7350  132.3830   62.0350 C   0  0  0  0  0  0  0  0  0  0  0  0
  125.6560  132.4470   61.4430 O   0  0  0  0  0  0  0  0  0  0  0  0
  126.9460  131.7290   63.1980 N   0  0  0  0  0  0  0  0  0  0  0  0
  126.0140  131.0240   63.9470 C   0  0  0  0  0  0  0  0  0  0  0  0
  126.3690  130.0690   64.8980 C   0  0  0  0  0  0  0  0  0  0  0  0
  125.1760  129.6100   65.4070 C   0  0  0  0  0  0  0  0  0  0  0  0
  124.1560  130.2540   64.7930 O   0  0  0  0  0  0  0  0  0  0  0  0
  124.7000  131.1470   63.8680 N   0  0  0  0  0  0  0  0  0  0  0  0
  130.5120  131.7990   60.7360 N   0  0  0  0  0  0  0  0  0  0  0  0
  131.6940  131.4138   62.8844 H   0  0  0  0  0  0  0  0  0  0  0  0
  132.6147  130.0288   62.2057 H   0  0  0  0  0  0  0  0  0  0  0  0
  133.3367  131.6736   62.2057 H   0  0  0  0  0  0  0  0  0  0  0  0
  133.5707  130.8382   59.6091 H   0  0  0  0  0  0  0  0  0  0  0  0
  133.7542  130.9117   57.3335 H   0  0  0  0  0  0  0  0  0  0  0  0
  132.2650  130.3984   56.4702 H   0  0  0  0  0  0  0  0  0  0  0  0
  132.7523  132.1273   56.4702 H   0  0  0  0  0  0  0  0  0  0  0  0
  128.8481  132.7973   62.0233 H   0  0  0  0  0  0  0  0  0  0  0  0
  127.7848  134.1652   61.4786 H   0  0  0  0  0  0  0  0  0  0  0  0
  127.8730  131.7780   63.5960 H   0  0  0  0  0  0  0  0  0  0  0  0
  127.3834  129.7510   65.1805 H   0  0  0  0  0  0  0  0  0  0  0  0
  125.0684  128.8427   66.1878 H   0  0  0  0  0  0  0  0  0  0  0  0
  1  2  1  0
  2  3  2  0
  3  4  1  0
  4  5  1  0
  4  6  2  0
  6  7  1  0
  7  8  3  0
  6  9  1  0
  9 10  1  0
 10 11  1  0
 11 12  1  0
 12 13  2  0
 12 14  1  0
 14 15  1  0
 15 16  1  0
 16 17  2  0
 17 18  1  0
 18 19  1  0
  9 20  2  0
 20  2  1  0
 19 15  2  0
  1 21  1  0
  1 22  1  0
  1 23  1  0
  3 24  1  0
  5 25  1  0
  5 26  1  0
  5 27  1  0
 11 28  1  0
 11 29  1  0
 14 30  1  0
 16 31  1  0
 17 32  1  0
M  END
>  <Binding energies>  (1) 
[-7.99]

>  <Ligand effiencies>  (1) 
[-0.38047619047619047]

>  <Interactions>  (1) 
["V-A:PRO:540:N:4882, H-A:ALA:541:N:4889, V-A:PRO:540:CA:4881, V-A:ALA:541:CB:4890, V-A:GLU:543:CD:4906, H-A:GLU:543:OE1:4907, V-A:ARG:545:CZ:4924, V-B:ARG:545:CZ:9898, V-A:ASN:362:CB:3174, H-B:ARG:545:NE:9896, H-B:GLY:454:N:9022, V-A:PRO:540:CB:4883, V-A:TYR:539:C:4865, H-B:TYR:484:OH:9320, V-A:TYR:531:CE2:4791, V-B:HIS:456:CE1:9042, V-A:PRO:540:C:4879, H-A:TYR:539:N:4868, V-B:ARG:545:CG:9894, V-B:ARG:545:CD:9895, V-A:ALA:541:C:4886"]

$$$$
1j_Grossjean_2025
     RDKit          3D

 32 33  0  0  0  0  0  0  0  0999 V2000
  128.8190  132.5220   73.8970 C   0  0  0  0  0  0  0  0  0  0  0  0
  127.7970  131.4180   74.0940 C   0  0  0  0  0  0  0  0  0  0  0  0
  126.7040  131.5790   74.9430 C   0  0  0  0  0  0  0  0  0  0  0  0
  125.7870  130.5320   75.0760 C   0  0  0  0  0  0  0  0  0  0  0  0
  124.5870  130.7390   75.9990 C   0  0  0  0  0  0  0  0  0  0  0  0
  125.9960  129.3350   74.3540 C   0  0  0  0  0  0  0  0  0  0  0  0
  125.0200  128.2450   74.4370 C   0  0  0  0  0  0  0  0  0  0  0  0
  124.2470  127.3870   74.5040 N   0  0  0  0  0  0  0  0  0  0  0  0
  127.1470  129.2490   73.5360 C   0  0  0  0  0  0  0  0  0  0  0  0
  127.5670  127.8210   72.5610 S   0  0  0  0  0  0  0  0  0  0  0  0
  129.3630  127.8470   72.2870 C   0  0  0  0  0  0  0  0  0  0  0  0
  130.0500  126.6070   72.8620 C   0  0  0  0  0  0  0  0  0  0  0  0
  129.4680  125.5220   72.8260 O   0  0  0  0  0  0  0  0  0  0  0  0
  131.2820  126.8100   73.3790 N   0  0  0  0  0  0  0  0  0  0  0  0
  132.1030  125.8560   73.9620 C   0  0  0  0  0  0  0  0  0  0  0  0
  131.7680  124.6590   74.3950 N   0  0  0  0  0  0  0  0  0  0  0  0
  132.8070  124.0170   74.8930 C   0  0  0  0  0  0  0  0  0  0  0  0
  134.0210  124.6970   74.8680 C   0  0  0  0  0  0  0  0  0  0  0  0
  133.7780  126.2620   74.1510 S   0  0  0  0  0  0  0  0  0  0  0  0
  128.0190  130.2790   73.3970 N   0  0  0  0  0  0  0  0  0  0  0  0
  129.1575  132.8876   74.8777 H   0  0  0  0  0  0  0  0  0  0  0  0
  129.6793  132.1293   73.3352 H   0  0  0  0  0  0  0  0  0  0  0  0
  128.3612  133.3495   73.3352 H   0  0  0  0  0  0  0  0  0  0  0  0
  126.5645  132.5167   75.5008 H   0  0  0  0  0  0  0  0  0  0  0  0
  124.9164  130.6822   77.0470 H   0  0  0  0  0  0  0  0  0  0  0  0
  124.1430  131.7270   75.8072 H   0  0  0  0  0  0  0  0  0  0  0  0
  123.8377  129.9568   75.8072 H   0  0  0  0  0  0  0  0  0  0  0  0
  129.5563  127.8901   71.2050 H   0  0  0  0  0  0  0  0  0  0  0  0
  129.7716  128.7298   72.8005 H   0  0  0  0  0  0  0  0  0  0  0  0
  131.6420  127.7530   73.3720 H   0  0  0  0  0  0  0  0  0  0  0  0
  132.7189  123.0009   75.3051 H   0  0  0  0  0  0  0  0  0  0  0  0
  134.9794  124.3072   75.2415 H   0  0  0  0  0  0  0  0  0  0  0  0
  1  2  1  0
  2  3  2  0
  3  4  1  0
  4  5  1  0
  4  6  2  0
  6  7  1  0
  7  8  3  0
  6  9  1  0
  9 10  1  0
 10 11  1  0
 11 12  1  0
 12 13  2  0
 12 14  1  0
 14 15  1  0
 15 16  2  0
 16 17  1  0
 17 18  2  0
 18 19  1  0
  9 20  2  0
 20  2  1  0
 19 15  1  0
  1 21  1  0
  1 22  1  0
  1 23  1  0
  3 24  1  0
  5 25  1  0
  5 26  1  0
  5 27  1  0
 11 28  1  0
 11 29  1  0
 14 30  1  0
 17 31  1  0
 18 32  1  0
M  END
>  <Binding energies>  (1) 
[-8.12]

>  <Ligand effiencies>  (1) 
[-0.3866666666666666]

>  <Interactions>  (1) 
["V-A:LYS:547:CE:4948, V-B:HIS:456:CG:9038, V-A:GLY:544:C:4910, V-B:LYS:547:CE:9922, V-B:HIS:456:CD2:9040, V-A:HIS:456:CG:4064, H-B:LYS:547:NZ:9923, H-A:LYS:547:NZ:4949, H-A:GLY:544:O:4911, V-B:LYS:547:CD:9921, V-A:HIS:456:C:4059, V-B:VAL:458:CG2:9059, V-B:HIS:456:CB:9037, V-A:HIS:456:CB:4063, V-B:HIS:456:C:9033, V-A:VAL:458:CG2:4085, V-A:LYS:471:CE:4218, V-A:VAL:457:C:4071, V-B:LYS:471:CE:9192, V-B:LYS:471:CD:9191, V-B:LYS:471:CG:9190, V-B:ASP:473:CG:9212, V-A:HIS:456:CA:4061"]

$$$$
1k_Grossjean_2025
     RDKit          3D

 50 50  0  0  0  0  0  0  0  0999 V2000
  130.7300  126.8480   77.2970 C   0  0  0  0  0  0  0  0  0  0  0  0
  130.5340  126.9790   75.8980 O   0  0  0  0  0  0  0  0  0  0  0  0
  131.5920  126.4300   75.1240 C   0  0  0  0  0  0  0  0  0  0  0  0
  131.2920  126.6280   73.6330 C   0  0  0  0  0  0  0  0  0  0  0  0
  129.8910  126.5300   73.4150 O   0  0  0  0  0  0  0  0  0  0  0  0
  129.3740  127.5380   72.5550 C   0  0  0  0  0  0  0  0  0  0  0  0
  127.9100  127.8150   72.9170 C   0  0  0  0  0  0  0  0  0  0  0  0
  127.8550  128.6530   74.0640 O   0  0  0  0  0  0  0  0  0  0  0  0
  126.6750  129.4430   74.1390 C   0  0  0  0  0  0  0  0  0  0  0  0
  126.9320  130.6720   75.0310 C   0  0  0  0  0  0  0  0  0  0  0  0
  127.2840  131.8830   74.2890 N   0  0  0  0  0  0  0  0  0  0  0  0
  128.2720  131.9760   73.3820 C   0  0  0  0  0  0  0  0  0  0  0  0
  128.9940  131.0260   73.0730 O   0  0  0  0  0  0  0  0  0  0  0  0
  128.4580  133.3620   72.7440 C   0  0  0  0  0  0  0  0  0  0  0  0
  129.2550  134.6190   73.8040 S   0  0  0  0  0  0  0  0  0  0  0  0
  131.0240  134.3610   73.7920 C   0  0  0  0  0  0  0  0  0  0  0  0
  131.5760  133.9870   74.9750 N   0  0  0  0  0  0  0  0  0  0  0  0
  132.9120  133.7850   75.0370 C   0  0  0  0  0  0  0  0  0  0  0  0
  133.4550  133.3790   76.3940 C   0  0  0  0  0  0  0  0  0  0  0  0
  133.7480  133.9360   73.9330 C   0  0  0  0  0  0  0  0  0  0  0  0
  133.1900  134.3130   72.7070 C   0  0  0  0  0  0  0  0  0  0  0  0
  134.1230  134.4730   71.5080 C   0  0  0  0  0  0  0  0  0  0  0  0
  131.7980  134.5340   72.6210 C   0  0  0  0  0  0  0  0  0  0  0  0
  131.1860  134.9330   71.3500 C   0  0  0  0  0  0  0  0  0  0  0  0
  130.7050  135.2490   70.3460 N   0  0  0  0  0  0  0  0  0  0  0  0
  129.9304  127.3824   77.8309 H   0  0  0  0  0  0  0  0  0  0  0  0
  130.7067  125.7833   77.5724 H   0  0  0  0  0  0  0  0  0  0  0  0
  131.7049  127.2767   77.5724 H   0  0  0  0  0  0  0  0  0  0  0  0
  132.5341  126.9375   75.3788 H   0  0  0  0  0  0  0  0  0  0  0  0
  131.6840  125.3553   75.3395 H   0  0  0  0  0  0  0  0  0  0  0  0
  131.6438  127.6211   73.3168 H   0  0  0  0  0  0  0  0  0  0  0  0
  131.8093  125.8528   73.0486 H   0  0  0  0  0  0  0  0  0  0  0  0
  129.9623  128.4597   72.6748 H   0  0  0  0  0  0  0  0  0  0  0  0
  129.4361  127.1973   71.5109 H   0  0  0  0  0  0  0  0  0  0  0  0
  127.4122  128.3154   72.0733 H   0  0  0  0  0  0  0  0  0  0  0  0
  127.3999  126.8646   73.1329 H   0  0  0  0  0  0  0  0  0  0  0  0
  126.3926  129.7760   73.1294 H   0  0  0  0  0  0  0  0  0  0  0  0
  125.8602  128.8427   74.5700 H   0  0  0  0  0  0  0  0  0  0  0  0
  126.0199  130.8749   75.6114 H   0  0  0  0  0  0  0  0  0  0  0  0
  127.7944  130.4276   75.6686 H   0  0  0  0  0  0  0  0  0  0  0  0
  126.7360  132.7060   74.4920 H   0  0  0  0  0  0  0  0  0  0  0  0
  129.0756  133.2392   71.8420 H   0  0  0  0  0  0  0  0  0  0  0  0
  127.4444  133.7383   72.5414 H   0  0  0  0  0  0  0  0  0  0  0  0
  132.8432  133.8364   77.1855 H   0  0  0  0  0  0  0  0  0  0  0  0
  133.4199  132.2838   76.4902 H   0  0  0  0  0  0  0  0  0  0  0  0
  134.4956  133.7224   76.4902 H   0  0  0  0  0  0  0  0  0  0  0  0
  134.8302  133.7615   74.0240 H   0  0  0  0  0  0  0  0  0  0  0  0
  135.1492  134.6490   71.8629 H   0  0  0  0  0  0  0  0  0  0  0  0
  134.0976  133.5574   70.8989 H   0  0  0  0  0  0  0  0  0  0  0  0
  133.7940  135.3278   70.8989 H   0  0  0  0  0  0  0  0  0  0  0  0
  1  2  1  0
  2  3  1  0
  3  4  1  0
  4  5  1  0
  5  6  1  0
  6  7  1  0
  7  8  1  0
  8  9  1  0
  9 10  1  0
 10 11  1  0
 11 12  1  0
 12 13  2  0
 12 14  1  0
 14 15  1  0
 15 16  1  0
 16 17  2  0
 17 18  1  0
 18 19  1  0
 18 20  2  0
 20 21  1  0
 21 22  1  0
 21 23  2  0
 23 24  1  0
 24 25  3  0
 23 16  1  0
  1 26  1  0
  1 27  1  0
  1 28  1  0
  3 29  1  0
  3 30  1  0
  4 31  1  0
  4 32  1  0
  6 33  1  0
  6 34  1  0
  7 35  1  0
  7 36  1  0
  9 37  1  0
  9 38  1  0
 10 39  1  0
 10 40  1  0
 11 41  1  0
 14 42  1  0
 14 43  1  0
 19 44  1  0
 19 45  1  0
 19 46  1  0
 20 47  1  0
 22 48  1  0
 22 49  1  0
 22 50  1  0
M  END
>  <Binding energies>  (1) 
[-6.81]

>  <Ligand effiencies>  (1) 
[-0.2619230769230769]

>  <Interactions>  (1) 
["V-B:TYR:484:CG:9314, V-B:GLY:544:C:9884, V-A:LYS:547:CE:4948, V-B:HIS:456:CG:9038, V-B:TYR:484:CB:9313, V-B:LYS:547:CE:9922, V-B:HIS:456:CD2:9040, H-B:LYS:547:NZ:9923, H-A:LYS:547:NZ:4949, V-B:HIS:456:CB:9037, V-A:LYS:547:CD:4947, V-A:LYS:547:CB:4945, V-A:LYS:547:CG:4946, V-B:LYS:471:CE:9192, V-B:ASP:473:CG:9212, V-A:VAL:542:CG1:4897, H-B:ASP:473:OD2:9214, H-B:TYR:484:N:9312, V-A:LYS:547:CA:4943, H-A:GLU:543:N:4903"]

$$$$
1l_Grossjean_2025
     RDKit          3D

 30 30  0  0  0  0  0  0  0  0999 V2000
  124.9040  128.3810   74.4910 C   0  0  0  0  0  0  0  0  0  0  0  0
  126.1360  128.9030   74.0150 O   0  0  0  0  0  0  0  0  0  0  0  0
  127.0200  127.8610   73.7400 N   0  0  0  0  0  0  0  0  0  0  0  0
  128.1890  128.1390   73.1320 C   0  0  0  0  0  0  0  0  0  0  0  0
  128.6370  129.2810   73.0020 O   0  0  0  0  0  0  0  0  0  0  0  0
  128.9590  126.9170   72.6110 C   0  0  0  0  0  0  0  0  0  0  0  0
  130.7700  126.9960   72.8270 S   0  0  0  0  0  0  0  0  0  0  0  0
  131.3170  125.4390   73.5060 C   0  0  0  0  0  0  0  0  0  0  0  0
  130.4540  124.3990   73.3660 N   0  0  0  0  0  0  0  0  0  0  0  0
  130.8050  123.1880   73.8600 C   0  0  0  0  0  0  0  0  0  0  0  0
  129.7910  122.0770   73.6650 C   0  0  0  0  0  0  0  0  0  0  0  0
  132.0190  122.9630   74.5070 C   0  0  0  0  0  0  0  0  0  0  0  0
  132.9160  124.0260   74.6550 C   0  0  0  0  0  0  0  0  0  0  0  0
  134.2410  123.7560   75.3670 C   0  0  0  0  0  0  0  0  0  0  0  0
  132.5690  125.2980   74.1480 C   0  0  0  0  0  0  0  0  0  0  0  0
  133.4900  126.4300   74.2900 C   0  0  0  0  0  0  0  0  0  0  0  0
  134.2170  127.3220   74.4030 N   0  0  0  0  0  0  0  0  0  0  0  0
  124.9060  128.3818   75.5910 H   0  0  0  0  0  0  0  0  0  0  0  0
  124.0755  129.0054   74.1253 H   0  0  0  0  0  0  0  0  0  0  0  0
  124.7763  127.3514   74.1253 H   0  0  0  0  0  0  0  0  0  0  0  0
  126.5490  126.9690   73.6730 H   0  0  0  0  0  0  0  0  0  0  0  0
  128.5902  126.0285   73.1445 H   0  0  0  0  0  0  0  0  0  0  0  0
  128.7803  126.8808   71.5262 H   0  0  0  0  0  0  0  0  0  0  0  0
  129.4560  121.7099   74.6463 H   0  0  0  0  0  0  0  0  0  0  0  0
  128.9274  122.4631   73.1036 H   0  0  0  0  0  0  0  0  0  0  0  0
  130.2542  121.2522   73.1036 H   0  0  0  0  0  0  0  0  0  0  0  0
  132.2679  121.9644   74.8954 H   0  0  0  0  0  0  0  0  0  0  0  0
  134.0855  123.7877   76.4555 H   0  0  0  0  0  0  0  0  0  0  0  0
  134.6163  122.7629   75.0790 H   0  0  0  0  0  0  0  0  0  0  0  0
  134.9750  124.5230   75.0790 H   0  0  0  0  0  0  0  0  0  0  0  0
  1  2  1  0
  2  3  1  0
  3  4  1  0
  4  5  2  0
  4  6  1  0
  6  7  1  0
  7  8  1  0
  8  9  2  0
  9 10  1  0
 10 11  1  0
 10 12  2  0
 12 13  1  0
 13 14  1  0
 13 15  2  0
 15 16  1  0
 16 17  3  0
 15  8  1  0
  1 18  1  0
  1 19  1  0
  1 20  1  0
  3 21  1  0
  6 22  1  0
  6 23  1  0
 11 24  1  0
 11 25  1  0
 11 26  1  0
 12 27  1  0
 14 28  1  0
 14 29  1  0
 14 30  1  0
M  END
>  <Binding energies>  (1) 
[-6.79]

>  <Ligand effiencies>  (1) 
[-0.37722222222222224]

>  <Interactions>  (1) 
["V-B:GLY:544:C:9884, V-A:LYS:547:CE:4948, V-B:LYS:547:CE:9922, V-A:HIS:456:CD2:4066, V-A:HIS:456:CG:4064, H-B:GLY:544:O:9885, H-B:LYS:547:NZ:9923, H-A:LYS:547:NZ:4949, V-B:LYS:547:CD:9921, V-A:ASP:473:CG:4238, V-A:HIS:456:C:4059, V-B:VAL:458:CG2:9059, V-B:HIS:456:CB:9037, V-A:LYS:471:CD:4217, V-A:HIS:456:CB:4063, V-B:HIS:456:C:9033, V-A:VAL:458:CG2:4085, V-A:LYS:471:CE:4218, V-A:LYS:547:CD:4947, V-A:LYS:547:CG:4946, V-A:LYS:471:CG:4216"]

$$$$
1m_Grossjean_2025
     RDKit          3D

 35 35  0  0  0  0  0  0  0  0999 V2000
  127.1380  129.1920   65.8640 C   0  0  0  0  0  0  0  0  0  0  0  0
  125.7970  129.6480   65.7500 O   0  0  0  0  0  0  0  0  0  0  0  0
  125.2510  129.8750   64.5370 C   0  0  0  0  0  0  0  0  0  0  0  0
  124.1480  130.3920   64.3320 O   0  0  0  0  0  0  0  0  0  0  0  0
  126.1860  129.4130   63.4000 C   0  0  0  0  0  0  0  0  0  0  0  0
  127.0600  130.4880   62.9090 N   0  0  0  0  0  0  0  0  0  0  0  0
  126.9280  131.1330   61.7340 C   0  0  0  0  0  0  0  0  0  0  0  0
  126.0430  130.8680   60.9180 O   0  0  0  0  0  0  0  0  0  0  0  0
  127.9660  132.2290   61.4610 C   0  0  0  0  0  0  0  0  0  0  0  0
  128.4420  132.4090   59.7080 S   0  0  0  0  0  0  0  0  0  0  0  0
  130.1430  131.9090   59.5450 C   0  0  0  0  0  0  0  0  0  0  0  0
  130.7690  131.7200   60.7340 N   0  0  0  0  0  0  0  0  0  0  0  0
  132.0650  131.3310   60.7330 C   0  0  0  0  0  0  0  0  0  0  0  0
  132.6920  131.1210   62.0980 C   0  0  0  0  0  0  0  0  0  0  0  0
  132.7880  131.1280   59.5590 C   0  0  0  0  0  0  0  0  0  0  0  0
  132.1610  131.3460   58.3280 C   0  0  0  0  0  0  0  0  0  0  0  0
  132.9780  131.1330   57.0560 C   0  0  0  0  0  0  0  0  0  0  0  0
  130.8070  131.7530   58.3040 C   0  0  0  0  0  0  0  0  0  0  0  0
  130.1460  132.0340   57.0280 C   0  0  0  0  0  0  0  0  0  0  0  0
  129.6230  132.2560   56.0200 N   0  0  0  0  0  0  0  0  0  0  0  0
  127.4053  129.1011   66.9272 H   0  0  0  0  0  0  0  0  0  0  0  0
  127.2343  128.2106   65.3765 H   0  0  0  0  0  0  0  0  0  0  0  0
  127.8126  129.9113   65.3765 H   0  0  0  0  0  0  0  0  0  0  0  0
  126.8151  128.5918   63.7741 H   0  0  0  0  0  0  0  0  0  0  0  0
  125.5524  129.0917   62.5602 H   0  0  0  0  0  0  0  0  0  0  0  0
  127.8280  130.7450   63.5120 H   0  0  0  0  0  0  0  0  0  0  0  0
  127.5498  133.1880   61.8033 H   0  0  0  0  0  0  0  0  0  0  0  0
  128.8776  131.9352   62.0019 H   0  0  0  0  0  0  0  0  0  0  0  0
  131.9585  131.3667   62.8801 H   0  0  0  0  0  0  0  0  0  0  0  0
  133.0008  130.0704   62.2019 H   0  0  0  0  0  0  0  0  0  0  0  0
  133.5713  131.7737   62.2019 H   0  0  0  0  0  0  0  0  0  0  0  0
  133.8374  130.8008   59.6000 H   0  0  0  0  0  0  0  0  0  0  0  0
  134.0103  130.8639   57.3240 H   0  0  0  0  0  0  0  0  0  0  0  0
  132.5296  130.3217   56.4637 H   0  0  0  0  0  0  0  0  0  0  0  0
  132.9827  132.0599   56.4637 H   0  0  0  0  0  0  0  0  0  0  0  0
  1  2  1  0
  2  3  1  0
  3  4  2  0
  3  5  1  0
  5  6  1  0
  6  7  1  0
  7  8  2  0
  7  9  1  0
  9 10  1  0
 10 11  1  0
 11 12  2  0
 12 13  1  0
 13 14  1  0
 13 15  2  0
 15 16  1  0
 16 17  1  0
 16 18  2  0
 18 19  1  0
 19 20  3  0
 18 11  1  0
  1 21  1  0
  1 22  1  0
  1 23  1  0
  5 24  1  0
  5 25  1  0
  6 26  1  0
  9 27  1  0
  9 28  1  0
 14 29  1  0
 14 30  1  0
 14 31  1  0
 15 32  1  0
 17 33  1  0
 17 34  1  0
 17 35  1  0
M  END
>  <Binding energies>  (1) 
[-7.01]

>  <Ligand effiencies>  (1) 
[-0.3338095238095238]

>  <Interactions>  (1) 
["V-A:PRO:540:N:4882, V-A:TYR:531:CZ:4792, H-A:ALA:541:N:4889, V-A:PRO:540:CA:4881, V-A:ALA:541:CB:4890, V-A:GLU:543:CD:4906, H-A:GLU:543:OE1:4907, V-A:ARG:545:CZ:4924, V-B:ARG:545:CZ:9898, V-A:ASN:362:CB:3174, H-B:ARG:545:NE:9896, H-B:GLY:454:N:9022, V-A:PRO:540:CB:4883, V-A:TYR:539:C:4865, H-B:TYR:484:OH:9320, V-A:GLU:543:CB:4904, V-A:TYR:531:CE2:4791, V-B:HIS:456:CE1:9042, V-A:PRO:540:C:4879, H-A:TYR:539:N:4868, V-A:ALA:541:C:4886, V-A:ASN:362:CG:3175"]

$$$$
1n_Grossjean_2025
     RDKit          3D

 48 49  0  0  0  0  0  0  0  0999 V2000
  123.7740  123.3160   56.8440 C   0  0  0  0  0  0  0  0  0  0  0  0
  124.7690  123.5220   55.6980 C   0  0  0  0  0  0  0  0  0  0  0  0
  125.8310  122.5830   55.8210 O   0  0  0  0  0  0  0  0  0  0  0  0
  127.0550  122.9640   56.2700 C   0  0  0  0  0  0  0  0  0  0  0  0
  127.9730  122.1700   56.4970 O   0  0  0  0  0  0  0  0  0  0  0  0
  127.1850  124.4490   56.4490 C   0  0  0  0  0  0  0  0  0  0  0  0
  126.8320  125.0860   57.6490 C   0  0  0  0  0  0  0  0  0  0  0  0
  126.9630  126.4650   57.7810 C   0  0  0  0  0  0  0  0  0  0  0  0
  127.4390  127.2360   56.7200 C   0  0  0  0  0  0  0  0  0  0  0  0
  127.5250  128.6220   56.9610 N   0  0  0  0  0  0  0  0  0  0  0  0
  126.7370  129.6260   56.5210 C   0  0  0  0  0  0  0  0  0  0  0  0
  125.7480  129.4930   55.7990 O   0  0  0  0  0  0  0  0  0  0  0  0
  127.1360  131.0330   56.9820 C   0  0  0  0  0  0  0  0  0  0  0  0
  127.3480  131.1330   58.5080 C   0  0  0  0  0  0  0  0  0  0  0  0
  128.3520  132.5530   59.0380 S   0  0  0  0  0  0  0  0  0  0  0  0
  130.0420  132.0060   59.1520 C   0  0  0  0  0  0  0  0  0  0  0  0
  130.4600  131.7930   60.4250 N   0  0  0  0  0  0  0  0  0  0  0  0
  131.7250  131.3580   60.6300 C   0  0  0  0  0  0  0  0  0  0  0  0
  132.1180  131.1320   62.0780 C   0  0  0  0  0  0  0  0  0  0  0  0
  132.6200  131.1270   59.5880 C   0  0  0  0  0  0  0  0  0  0  0  0
  132.2050  131.3630   58.2720 C   0  0  0  0  0  0  0  0  0  0  0  0
  133.2070  131.1150   57.1460 C   0  0  0  0  0  0  0  0  0  0  0  0
  130.8900  131.8220   58.0340 C   0  0  0  0  0  0  0  0  0  0  0  0
  130.4520  132.1250   56.6700 C   0  0  0  0  0  0  0  0  0  0  0  0
  130.1080  132.3650   55.5910 N   0  0  0  0  0  0  0  0  0  0  0  0
  127.8030  126.6060   55.5220 C   0  0  0  0  0  0  0  0  0  0  0  0
  127.6750  125.2260   55.3920 C   0  0  0  0  0  0  0  0  0  0  0  0
  124.2957  123.4240   57.8064 H   0  0  0  0  0  0  0  0  0  0  0  0
  122.9738  124.0675   56.7743 H   0  0  0  0  0  0  0  0  0  0  0  0
  123.3379  122.3085   56.7743 H   0  0  0  0  0  0  0  0  0  0  0  0
  124.2569  123.3732   54.7359 H   0  0  0  0  0  0  0  0  0  0  0  0
  125.1743  124.5437   55.7419 H   0  0  0  0  0  0  0  0  0  0  0  0
  126.4491  124.4908   58.4911 H   0  0  0  0  0  0  0  0  0  0  0  0
  126.6892  126.9510   58.7291 H   0  0  0  0  0  0  0  0  0  0  0  0
  128.2700  128.8850   57.5890 H   0  0  0  0  0  0  0  0  0  0  0  0
  128.0733  131.3135   56.4792 H   0  0  0  0  0  0  0  0  0  0  0  0
  126.3097  131.7104   56.7206 H   0  0  0  0  0  0  0  0  0  0  0  0
  126.3612  131.2118   58.9876 H   0  0  0  0  0  0  0  0  0  0  0  0
  127.9006  130.2301   58.8070 H   0  0  0  0  0  0  0  0  0  0  0  0
  131.3550  131.5708   62.7378 H   0  0  0  0  0  0  0  0  0  0  0  0
  132.1942  130.0521   62.2730 H   0  0  0  0  0  0  0  0  0  0  0  0
  133.0897  131.6093   62.2730 H   0  0  0  0  0  0  0  0  0  0  0  0
  133.6375  130.7646   59.7960 H   0  0  0  0  0  0  0  0  0  0  0  0
  134.1896  130.8718   57.5765 H   0  0  0  0  0  0  0  0  0  0  0  0
  132.8607  130.2755   56.5253 H   0  0  0  0  0  0  0  0  0  0  0  0
  133.2923  132.0191   56.5253 H   0  0  0  0  0  0  0  0  0  0  0  0
  128.1904  127.2030   54.6833 H   0  0  0  0  0  0  0  0  0  0  0  0
  127.9621  124.7401   54.4478 H   0  0  0  0  0  0  0  0  0  0  0  0
  1  2  1  0
  2  3  1  0
  3  4  1  0
  4  5  2  0
  4  6  1  0
  6  7  2  0
  7  8  1  0
  8  9  2  0
  9 10  1  0
 10 11  1  0
 11 12  2  0
 11 13  1  0
 13 14  1  0
 14 15  1  0
 15 16  1  0
 16 17  2  0
 17 18  1  0
 18 19  1  0
 18 20  2  0
 20 21  1  0
 21 22  1  0
 21 23  2  0
 23 24  1  0
 24 25  3  0
  9 26  1  0
 26 27  2  0
 27  6  1  0
 23 16  1  0
  1 28  1  0
  1 29  1  0
  1 30  1  0
  2 31  1  0
  2 32  1  0
  7 33  1  0
  8 34  1  0
 10 35  1  0
 13 36  1  0
 13 37  1  0
 14 38  1  0
 14 39  1  0
 19 40  1  0
 19 41  1  0
 19 42  1  0
 20 43  1  0
 22 44  1  0
 22 45  1  0
 22 46  1  0
 26 47  1  0
 27 48  1  0
M  END
>  <Binding energies>  (1) 
[-8.9]

>  <Ligand effiencies>  (1) 
[-0.3178571428571429]

>  <Interactions>  (1) 
["V-A:PRO:540:N:4882, H-B:TYR:531:OH:9767, V-B:PRO:540:CA:9855, V-A:TYR:531:CZ:4792, V-B:PRO:540:N:9856, V-B:ILE:538:CB:9834, V-A:TYR:539:CD2:4872, V-B:TYR:531:CE2:9765, V-B:PRO:540:CD:9859, V-B:PRO:540:CB:9857, V-A:TYR:539:CE2:4874, V-B:ILE:538:CG2:9835, V-A:TYR:539:CZ:4875, H-A:ALA:541:N:4889, V-A:PRO:540:CA:4881, V-A:GLU:543:CD:4906, V-B:TYR:539:C:9839, V-B:LEU:363:CD1:8161, V-B:TYR:539:CA:9841, V-B:TYR:531:CZ:9766, V-A:ARG:545:CZ:4924, V-A:PRO:540:CB:4883, V-A:TYR:539:C:4865, V-A:TYR:539:CE1:4873, V-A:TYR:531:CE2:4791, H-A:TYR:539:OH:4876, V-A:PRO:540:C:4879, H-A:TYR:539:N:4868, V-B:LEU:363:CA:8157, H-B:TYR:539:N:9842, V-B:PRO:540:CG:9858, V-A:ALA:541:C:4886"]

$$$$
1o_Grossjean_2025
     RDKit          3D

 45 46  0  0  0  0  0  0  0  0999 V2000
  127.3560  123.4640   54.9340 C   0  0  0  0  0  0  0  0  0  0  0  0
  126.7710  122.7300   56.0010 O   0  0  0  0  0  0  0  0  0  0  0  0
  126.2350  123.3650   57.0750 C   0  0  0  0  0  0  0  0  0  0  0  0
  125.1440  123.9430   57.0480 O   0  0  0  0  0  0  0  0  0  0  0  0
  127.0990  123.2920   58.3000 C   0  0  0  0  0  0  0  0  0  0  0  0
  128.4390  122.8810   58.2410 C   0  0  0  0  0  0  0  0  0  0  0  0
  129.2140  122.8270   59.3970 C   0  0  0  0  0  0  0  0  0  0  0  0
  128.6670  123.1740   60.6320 C   0  0  0  0  0  0  0  0  0  0  0  0
  129.5420  123.0920   61.7340 N   0  0  0  0  0  0  0  0  0  0  0  0
  130.5790  122.2540   61.9550 C   0  0  0  0  0  0  0  0  0  0  0  0
  130.9840  121.4020   61.1640 O   0  0  0  0  0  0  0  0  0  0  0  0
  131.3000  122.4350   63.2990 C   0  0  0  0  0  0  0  0  0  0  0  0
  132.4210  123.4920   63.2530 C   0  0  0  0  0  0  0  0  0  0  0  0
  133.1630  123.7100   61.6080 S   0  0  0  0  0  0  0  0  0  0  0  0
  132.0780  124.7290   60.6300 C   0  0  0  0  0  0  0  0  0  0  0  0
  131.1370  125.3750   61.3640 N   0  0  0  0  0  0  0  0  0  0  0  0
  130.2600  126.1880   60.7280 C   0  0  0  0  0  0  0  0  0  0  0  0
  129.2470  126.8870   61.6160 C   0  0  0  0  0  0  0  0  0  0  0  0
  130.2760  126.3780   59.3490 C   0  0  0  0  0  0  0  0  0  0  0  0
  131.2250  125.6970   58.5800 C   0  0  0  0  0  0  0  0  0  0  0  0
  131.2130  125.9120   57.0670 C   0  0  0  0  0  0  0  0  0  0  0  0
  132.1490  124.8400   59.2200 C   0  0  0  0  0  0  0  0  0  0  0  0
  133.1120  124.0740   58.4250 C   0  0  0  0  0  0  0  0  0  0  0  0
  133.8720  123.4700   57.7960 N   0  0  0  0  0  0  0  0  0  0  0  0
  127.3290  123.5910   60.6990 C   0  0  0  0  0  0  0  0  0  0  0  0
  126.5560  123.6460   59.5420 C   0  0  0  0  0  0  0  0  0  0  0  0
  127.9923  124.2623   55.3437 H   0  0  0  0  0  0  0  0  0  0  0  0
  127.9666  122.7891   54.3162 H   0  0  0  0  0  0  0  0  0  0  0  0
  126.5619  123.9087   54.3162 H   0  0  0  0  0  0  0  0  0  0  0  0
  128.8812  122.5991   57.2740 H   0  0  0  0  0  0  0  0  0  0  0  0
  130.2650  122.5084   59.3354 H   0  0  0  0  0  0  0  0  0  0  0  0
  129.3710  123.7830   62.4490 H   0  0  0  0  0  0  0  0  0  0  0  0
  130.5606  122.7430   64.0530 H   0  0  0  0  0  0  0  0  0  0  0  0
  131.7704  121.4724   63.5482 H   0  0  0  0  0  0  0  0  0  0  0  0
  132.0005  124.4566   63.5736 H   0  0  0  0  0  0  0  0  0  0  0  0
  133.2212  123.1370   63.9190 H   0  0  0  0  0  0  0  0  0  0  0  0
  129.5017  126.7112   62.6716 H   0  0  0  0  0  0  0  0  0  0  0  0
  129.2626  127.9674   61.4100 H   0  0  0  0  0  0  0  0  0  0  0  0
  128.2424  126.4890   61.4100 H   0  0  0  0  0  0  0  0  0  0  0  0
  129.5522  127.0544   58.8709 H   0  0  0  0  0  0  0  0  0  0  0  0
  131.1529  126.9887   56.8501 H   0  0  0  0  0  0  0  0  0  0  0  0
  132.1355  125.5011   56.6309 H   0  0  0  0  0  0  0  0  0  0  0  0
  130.3420  125.4010   56.6309 H   0  0  0  0  0  0  0  0  0  0  0  0
  126.8900  123.8749   61.6668 H   0  0  0  0  0  0  0  0  0  0  0  0
  125.5070  123.9711   59.6040 H   0  0  0  0  0  0  0  0  0  0  0  0
  1  2  1  0
  2  3  1  0
  3  4  2  0
  3  5  1  0
  5  6  2  0
  6  7  1  0
  7  8  2  0
  8  9  1  0
  9 10  1  0
 10 11  2  0
 10 12  1  0
 12 13  1  0
 13 14  1  0
 14 15  1  0
 15 16  2  0
 16 17  1  0
 17 18  1  0
 17 19  2  0
 19 20  1  0
 20 21  1  0
 20 22  2  0
 22 23  1  0
 23 24  3  0
  8 25  1  0
 25 26  2  0
 26  5  1  0
 22 15  1  0
  1 27  1  0
  1 28  1  0
  1 29  1  0
  6 30  1  0
  7 31  1  0
  9 32  1  0
 12 33  1  0
 12 34  1  0
 13 35  1  0
 13 36  1  0
 18 37  1  0
 18 38  1  0
 18 39  1  0
 19 40  1  0
 21 41  1  0
 21 42  1  0
 21 43  1  0
 25 44  1  0
 26 45  1  0
M  END
>  <Binding energies>  (1) 
[-7.44]

>  <Ligand effiencies>  (1) 
[-0.27555555555555555]

>  <Interactions>  (1) 
["V-B:TYR:539:CD2:9846, H-B:TYR:531:OH:9767, V-B:PRO:540:CA:9855, V-A:LEU:475:CD2:4257, V-B:ALA:541:CB:9864, V-B:TYR:539:CE2:9848, V-B:PRO:540:N:9856, V-A:ASP:366:CG:3211, V-B:PRO:540:CD:9859, V-B:PRO:540:CB:9857, V-A:ASP:366:CB:3210, H-B:GLU:543:OE1:9881, V-B:TYR:539:CZ:9849, V-B:ILE:538:CA:9832, V-B:TYR:539:CG:9844, V-B:TYR:539:C:9839, H-B:TYR:539:OH:9850, V-A:GLY:454:CA:4047, H-B:TYR:539:N:9842"]

$$$$
1p_Grossjean_2025
     RDKit          3D

 35 36  0  0  0  0  0  0  0  0999 V2000
  129.7910  122.0790   73.5130 C   0  0  0  0  0  0  0  0  0  0  0  0
  130.8120  123.1700   73.7750 C   0  0  0  0  0  0  0  0  0  0  0  0
  132.0220  122.8980   74.4110 C   0  0  0  0  0  0  0  0  0  0  0  0
  132.9210  123.9460   74.6380 C   0  0  0  0  0  0  0  0  0  0  0  0
  134.2340  123.6280   75.3500 C   0  0  0  0  0  0  0  0  0  0  0  0
  132.5840  125.2500   74.2100 C   0  0  0  0  0  0  0  0  0  0  0  0
  133.4860  126.3720   74.4790 C   0  0  0  0  0  0  0  0  0  0  0  0
  134.2000  127.2580   74.6920 N   0  0  0  0  0  0  0  0  0  0  0  0
  131.3440  125.4300   73.5520 C   0  0  0  0  0  0  0  0  0  0  0  0
  130.7710  126.9990   72.9430 S   0  0  0  0  0  0  0  0  0  0  0  0
  129.9790  126.6830   71.3390 C   0  0  0  0  0  0  0  0  0  0  0  0
  128.8860  127.7060   70.9730 C   0  0  0  0  0  0  0  0  0  0  0  0
  128.4240  128.5610   72.1620 C   0  0  0  0  0  0  0  0  0  0  0  0
  129.1350  129.4870   72.5580 O   0  0  0  0  0  0  0  0  0  0  0  0
  127.2250  128.2280   72.6910 N   0  0  0  0  0  0  0  0  0  0  0  0
  126.5800  128.8360   73.7610 C   0  0  0  0  0  0  0  0  0  0  0  0
  125.2610  128.5520   74.1160 C   0  0  0  0  0  0  0  0  0  0  0  0
  125.0060  129.3480   75.2090 C   0  0  0  0  0  0  0  0  0  0  0  0
  126.1110  130.0750   75.4960 O   0  0  0  0  0  0  0  0  0  0  0  0
  127.1020  129.7420   74.5700 N   0  0  0  0  0  0  0  0  0  0  0  0
  130.4700  124.4100   73.3550 N   0  0  0  0  0  0  0  0  0  0  0  0
  129.4218  121.6845   74.4712 H   0  0  0  0  0  0  0  0  0  0  0  0
  128.9496  122.4944   72.9389 H   0  0  0  0  0  0  0  0  0  0  0  0
  130.2612  121.2670   72.9389 H   0  0  0  0  0  0  0  0  0  0  0  0
  132.2668  121.8741   74.7300 H   0  0  0  0  0  0  0  0  0  0  0  0
  134.0793  123.6655   76.4384 H   0  0  0  0  0  0  0  0  0  0  0  0
  134.5728  122.6218   75.0622 H   0  0  0  0  0  0  0  0  0  0  0  0
  134.9956  124.3676   75.0622 H   0  0  0  0  0  0  0  0  0  0  0  0
  130.7537  126.7090   70.5585 H   0  0  0  0  0  0  0  0  0  0  0  0
  129.4878  125.7015   71.4120 H   0  0  0  0  0  0  0  0  0  0  0  0
  129.2824  128.3759   70.1957 H   0  0  0  0  0  0  0  0  0  0  0  0
  128.0120  127.1353   70.6261 H   0  0  0  0  0  0  0  0  0  0  0  0
  126.7370  127.4480   72.2770 H   0  0  0  0  0  0  0  0  0  0  0  0
  124.5739  127.8451   73.6280 H   0  0  0  0  0  0  0  0  0  0  0  0
  124.0556  129.3872   75.7615 H   0  0  0  0  0  0  0  0  0  0  0  0
  1  2  1  0
  2  3  2  0
  3  4  1  0
  4  5  1  0
  4  6  2  0
  6  7  1  0
  7  8  3  0
  6  9  1  0
  9 10  1  0
 10 11  1  0
 11 12  1  0
 12 13  1  0
 13 14  2  0
 13 15  1  0
 15 16  1  0
 16 17  1  0
 17 18  2  0
 18 19  1  0
 19 20  1  0
  9 21  2  0
 21  2  1  0
 20 16  2  0
  1 22  1  0
  1 23  1  0
  1 24  1  0
  3 25  1  0
  5 26  1  0
  5 27  1  0
  5 28  1  0
 11 29  1  0
 11 30  1  0
 12 31  1  0
 12 32  1  0
 15 33  1  0
 17 34  1  0
 18 35  1  0
M  END
>  <Binding energies>  (1) 
[-8.2]

>  <Ligand effiencies>  (1) 
[-0.3727272727272727]

>  <Interactions>  (1) 
["V-A:HIS:456:CE1:4068, V-B:GLY:544:C:9884, V-B:HIS:456:CG:9038, V-B:LYS:547:CE:9922, V-A:HIS:456:CD2:4066, V-B:HIS:456:CD2:9040, V-A:HIS:456:CG:4064, H-B:GLY:544:O:9885, H-B:LYS:547:NZ:9923, H-A:LYS:547:NZ:4949, V-A:ASP:473:CG:4238, V-A:HIS:456:C:4059, V-B:VAL:458:CG2:9059, V-B:HIS:456:CB:9037, V-A:LYS:471:CD:4217, V-A:HIS:456:CB:4063, V-B:HIS:456:CA:9035, V-B:HIS:456:C:9033, V-A:VAL:458:CG2:4085, V-A:LYS:471:CE:4218, V-A:LYS:547:CD:4947, V-A:LYS:547:CG:4946, V-A:LYS:471:CG:4216"]

$$$$
1q_Grossjean_2025
     RDKit          3D

 38 38  0  0  0  0  0  0  0  0999 V2000
  124.8670  131.3090   75.6500 C   0  0  0  0  0  0  0  0  0  0  0  0
  125.7290  130.4560   74.9100 O   0  0  0  0  0  0  0  0  0  0  0  0
  125.4880  129.1240   74.8440 C   0  0  0  0  0  0  0  0  0  0  0  0
  124.3770  128.6000   74.7540 O   0  0  0  0  0  0  0  0  0  0  0  0
  126.7590  128.2510   74.9250 C   0  0  0  0  0  0  0  0  0  0  0  0
  127.1890  127.7390   73.6150 N   0  0  0  0  0  0  0  0  0  0  0  0
  128.0260  128.3590   72.7620 C   0  0  0  0  0  0  0  0  0  0  0  0
  128.5390  129.4550   72.9970 O   0  0  0  0  0  0  0  0  0  0  0  0
  128.3320  127.6100   71.4570 C   0  0  0  0  0  0  0  0  0  0  0  0
  129.5860  126.7160   71.5190 C   0  0  0  0  0  0  0  0  0  0  0  0
  130.6540  127.0570   72.9490 S   0  0  0  0  0  0  0  0  0  0  0  0
  131.2840  125.5100   73.5690 C   0  0  0  0  0  0  0  0  0  0  0  0
  130.4540  124.4610   73.3420 N   0  0  0  0  0  0  0  0  0  0  0  0
  130.8240  123.2320   73.7700 C   0  0  0  0  0  0  0  0  0  0  0  0
  129.8370  122.1120   73.4950 C   0  0  0  0  0  0  0  0  0  0  0  0
  132.0300  122.9960   74.4270 C   0  0  0  0  0  0  0  0  0  0  0  0
  132.9050  124.0650   74.6440 C   0  0  0  0  0  0  0  0  0  0  0  0
  134.2290  123.7780   75.3500 C   0  0  0  0  0  0  0  0  0  0  0  0
  132.5410  125.3580   74.2040 C   0  0  0  0  0  0  0  0  0  0  0  0
  133.4690  126.4780   74.3720 C   0  0  0  0  0  0  0  0  0  0  0  0
  134.2060  127.3610   74.5060 N   0  0  0  0  0  0  0  0  0  0  0  0
  125.0285  131.1492   76.7263 H   0  0  0  0  0  0  0  0  0  0  0  0
  125.0843  132.3576   75.3983 H   0  0  0  0  0  0  0  0  0  0  0  0
  123.8208  131.0807   75.3983 H   0  0  0  0  0  0  0  0  0  0  0  0
  127.5736  128.8563   75.3493 H   0  0  0  0  0  0  0  0  0  0  0  0
  126.5215  127.3819   75.5561 H   0  0  0  0  0  0  0  0  0  0  0  0
  126.7920  126.8540   73.3340 H   0  0  0  0  0  0  0  0  0  0  0  0
  127.4676  126.9749   71.2133 H   0  0  0  0  0  0  0  0  0  0  0  0
  128.5282  128.3760   70.6923 H   0  0  0  0  0  0  0  0  0  0  0  0
  129.2621  125.6660   71.5696 H   0  0  0  0  0  0  0  0  0  0  0  0
  130.1782  126.9287   70.6167 H   0  0  0  0  0  0  0  0  0  0  0  0
  129.4744  121.7005   74.4485 H   0  0  0  0  0  0  0  0  0  0  0  0
  128.9869  122.5058   72.9186 H   0  0  0  0  0  0  0  0  0  0  0  0
  130.3345  121.3181   72.9186 H   0  0  0  0  0  0  0  0  0  0  0  0
  132.2899  121.9836   74.7699 H   0  0  0  0  0  0  0  0  0  0  0  0
  134.0784  123.8107   76.4391 H   0  0  0  0  0  0  0  0  0  0  0  0
  134.5907  122.7806   75.0596 H   0  0  0  0  0  0  0  0  0  0  0  0
  134.9713  124.5361   75.0596 H   0  0  0  0  0  0  0  0  0  0  0  0
  1  2  1  0
  2  3  1  0
  3  4  2  0
  3  5  1  0
  5  6  1  0
  6  7  1  0
  7  8  2  0
  7  9  1  0
  9 10  1  0
 10 11  1  0
 11 12  1  0
 12 13  2  0
 13 14  1  0
 14 15  1  0
 14 16  2  0
 16 17  1  0
 17 18  1  0
 17 19  2  0
 19 20  1  0
 20 21  3  0
 19 12  1  0
  1 22  1  0
  1 23  1  0
  1 24  1  0
  5 25  1  0
  5 26  1  0
  6 27  1  0
  9 28  1  0
  9 29  1  0
 10 30  1  0
 10 31  1  0
 15 32  1  0
 15 33  1  0
 15 34  1  0
 16 35  1  0
 18 36  1  0
 18 37  1  0
 18 38  1  0
M  END
>  <Binding energies>  (1) 
[-7.45]

>  <Ligand effiencies>  (1) 
[-0.3386363636363636]

>  <Interactions>  (1) 
["V-B:GLY:544:C:9884, V-B:LYS:547:CE:9922, V-A:HIS:456:CD2:4066, V-B:HIS:456:CD2:9040, V-A:HIS:456:CG:4064, H-B:GLY:544:O:9885, H-B:LYS:547:NZ:9923, H-A:LYS:547:NZ:4949, V-B:LYS:547:CD:9921, V-A:ASP:473:CG:4238, V-A:HIS:456:C:4059, V-B:VAL:458:CG2:9059, V-B:HIS:456:CB:9037, V-A:LYS:471:CD:4217, V-A:HIS:456:CB:4063, V-B:HIS:456:C:9033, V-A:VAL:458:CG2:4085, V-A:LYS:471:CE:4218, V-A:LYS:547:CD:4947, V-A:LYS:547:CG:4946, V-B:LYS:471:CE:9192, V-B:LYS:471:CD:9191, V-B:LYS:471:CG:9190, V-B:ASP:473:CG:9212, V-A:LYS:471:CG:4216, H-B:VAL:457:N:9048"]

$$$$
2a_Ghoteimi_2023
     RDKit          3D

 85 90  0  0  0  0  0  0  0  0999 V2000
  133.1710  131.5090   56.6310 C   0  0  0  0  0  0  0  0  0  0  0  0
  132.3270  132.6660   56.0890 C   0  0  0  0  0  0  0  0  0  0  0  0
  131.0500  132.1770   55.7020 O   0  0  0  0  0  0  0  0  0  0  0  0
  130.4680  131.1390   56.3560 C   0  0  0  0  0  0  0  0  0  0  0  0
  130.4510  129.9840   55.9190 O   0  0  0  0  0  0  0  0  0  0  0  0
  129.8520  131.5350   57.6670 C   0  0  0  0  0  0  0  0  0  0  0  0
  128.5820  132.1260   57.7430 C   0  0  0  0  0  0  0  0  0  0  0  0
  128.0400  132.4800   58.9750 C   0  0  0  0  0  0  0  0  0  0  0  0
  128.7500  132.2480   60.1550 C   0  0  0  0  0  0  0  0  0  0  0  0
  128.1090  132.6490   61.3430 N   0  0  0  0  0  0  0  0  0  0  0  0
  127.2410  133.6610   61.5580 C   0  0  0  0  0  0  0  0  0  0  0  0
  126.8810  134.4780   60.7100 O   0  0  0  0  0  0  0  0  0  0  0  0
  126.7240  133.7810   62.9980 C   0  0  0  0  0  0  0  0  0  0  0  0
  125.2680  132.7490   63.3650 S   0  0  0  0  0  0  0  0  0  0  0  0
  125.8440  131.0680   63.3030 C   0  0  0  0  0  0  0  0  0  0  0  0
  126.2090  130.5700   64.5070 N   0  0  0  0  0  0  0  0  0  0  0  0
  126.6750  129.2980   64.5890 C   0  0  0  0  0  0  0  0  0  0  0  0
  127.0690  128.8190   65.9490 C   0  0  0  0  0  0  0  0  0  0  0  0
  128.2550  129.2500   66.5550 C   0  0  0  0  0  0  0  0  0  0  0  0
  128.6230  128.7910   67.8170 C   0  0  0  0  0  0  0  0  0  0  0  0
  127.8150  127.8900   68.5240 C   0  0  0  0  0  0  0  0  0  0  0  0
  128.2120  127.4140   69.7780 N   0  0  0  0  0  0  0  0  0  0  0  0
  127.6590  127.9770   71.0260 C   0  0  0  0  0  0  0  0  0  0  0  0
  127.9240  127.1080   72.2740 C   0  0  0  0  0  0  0  0  0  0  0  0
  129.3130  126.8540   72.4030 O   0  0  0  0  0  0  0  0  0  0  0  0
  129.8200  126.1590   71.2760 C   0  0  0  0  0  0  0  0  0  0  0  0
  129.6130  126.9980   69.9970 C   0  0  0  0  0  0  0  0  0  0  0  0
  126.6320  127.4510   67.9070 C   0  0  0  0  0  0  0  0  0  0  0  0
  126.2640  127.9120   66.6470 C   0  0  0  0  0  0  0  0  0  0  0  0
  126.7710  128.4890   63.4540 C   0  0  0  0  0  0  0  0  0  0  0  0
  126.3980  128.9840   62.1960 C   0  0  0  0  0  0  0  0  0  0  0  0
  126.5320  128.0670   61.0240 C   0  0  0  0  0  0  0  0  0  0  0  0
  126.4200  128.5680   59.7240 C   0  0  0  0  0  0  0  0  0  0  0  0
  126.5240  127.7200   58.6260 C   0  0  0  0  0  0  0  0  0  0  0  0
  126.7450  126.3450   58.7940 C   0  0  0  0  0  0  0  0  0  0  0  0
  126.8330  125.4730   57.7050 N   0  0  0  0  0  0  0  0  0  0  0  0
  125.6820  124.6090   57.3740 C   0  0  0  0  0  0  0  0  0  0  0  0
  125.7610  124.0040   55.9560 C   0  0  0  0  0  0  0  0  0  0  0  0
  126.9820  123.2990   55.7960 O   0  0  0  0  0  0  0  0  0  0  0  0
  128.1050  124.1470   55.9740 C   0  0  0  0  0  0  0  0  0  0  0  0
  128.0870  124.7600   57.3890 C   0  0  0  0  0  0  0  0  0  0  0  0
  126.8430  125.8480   60.1020 C   0  0  0  0  0  0  0  0  0  0  0  0
  126.7380  126.6960   61.2000 C   0  0  0  0  0  0  0  0  0  0  0  0
  125.9130  130.3120   62.1120 C   0  0  0  0  0  0  0  0  0  0  0  0
  125.4550  130.8660   60.8340 C   0  0  0  0  0  0  0  0  0  0  0  0
  125.0950  131.3020   59.8240 N   0  0  0  0  0  0  0  0  0  0  0  0
  130.0240  131.6650   60.0860 C   0  0  0  0  0  0  0  0  0  0  0  0
  130.5650  131.3100   58.8530 C   0  0  0  0  0  0  0  0  0  0  0  0
  133.1568  131.5285   57.7307 H   0  0  0  0  0  0  0  0  0  0  0  0
  132.7557  130.5544   56.2758 H   0  0  0  0  0  0  0  0  0  0  0  0
  134.2069  131.6130   56.2758 H   0  0  0  0  0  0  0  0  0  0  0  0
  132.2060  133.4300   56.8711 H   0  0  0  0  0  0  0  0  0  0  0  0
  132.8297  133.1113   55.2178 H   0  0  0  0  0  0  0  0  0  0  0  0
  128.0101  132.3110   56.8217 H   0  0  0  0  0  0  0  0  0  0  0  0
  127.0447  132.9461   59.0197 H   0  0  0  0  0  0  0  0  0  0  0  0
  128.3650  132.1040   62.1520 H   0  0  0  0  0  0  0  0  0  0  0  0
  127.5351  133.4863   63.6802 H   0  0  0  0  0  0  0  0  0  0  0  0
  126.4089  134.8264   63.1317 H   0  0  0  0  0  0  0  0  0  0  0  0
  128.9059  129.9619   66.0263 H   0  0  0  0  0  0  0  0  0  0  0  0
  129.5637  129.1414   68.2667 H   0  0  0  0  0  0  0  0  0  0  0  0
  128.1111  128.9663   71.1901 H   0  0  0  0  0  0  0  0  0  0  0  0
  126.5677  128.0282   70.8978 H   0  0  0  0  0  0  0  0  0  0  0  0
  127.5660  127.6376   73.1692 H   0  0  0  0  0  0  0  0  0  0  0  0
  127.3908  126.1518   72.1676 H   0  0  0  0  0  0  0  0  0  0  0  0
  130.8945  125.9712   71.4177 H   0  0  0  0  0  0  0  0  0  0  0  0
  129.2834  125.2045   71.1708 H   0  0  0  0  0  0  0  0  0  0  0  0
  130.2359  127.9017   70.0702 H   0  0  0  0  0  0  0  0  0  0  0  0
  129.8952  126.3606   69.1460 H   0  0  0  0  0  0  0  0  0  0  0  0
  125.9854  126.7303   68.4290 H   0  0  0  0  0  0  0  0  0  0  0  0
  125.3266  127.5583   66.1929 H   0  0  0  0  0  0  0  0  0  0  0  0
  127.1414  127.4575   63.5477 H   0  0  0  0  0  0  0  0  0  0  0  0
  126.2480  129.6431   59.5675 H   0  0  0  0  0  0  0  0  0  0  0  0
  126.4316  128.1339   57.6110 H   0  0  0  0  0  0  0  0  0  0  0  0
  125.6419  123.7862   58.1030 H   0  0  0  0  0  0  0  0  0  0  0  0
  124.7808  125.2387   57.4100 H   0  0  0  0  0  0  0  0  0  0  0  0
  124.9188  123.3121   55.8078 H   0  0  0  0  0  0  0  0  0  0  0  0
  125.7127  124.8150   55.2144 H   0  0  0  0  0  0  0  0  0  0  0  0
  129.0272  123.5619   55.8426 H   0  0  0  0  0  0  0  0  0  0  0  0
  128.0664  124.9566   55.2303 H   0  0  0  0  0  0  0  0  0  0  0  0
  128.2213  123.9502   58.1212 H   0  0  0  0  0  0  0  0  0  0  0  0
  128.9000  125.4997   57.4321 H   0  0  0  0  0  0  0  0  0  0  0  0
  127.0053  124.7719   60.2620 H   0  0  0  0  0  0  0  0  0  0  0  0
  126.8179  126.2833   62.2165 H   0  0  0  0  0  0  0  0  0  0  0  0
  130.5970  131.4878   61.0081 H   0  0  0  0  0  0  0  0  0  0  0  0
  131.5624  130.8481   58.8090 H   0  0  0  0  0  0  0  0  0  0  0  0
  1  2  1  0
  2  3  1  0
  3  4  1  0
  4  5  2  0
  4  6  1  0
  6  7  2  0
  7  8  1  0
  8  9  2  0
  9 10  1  0
 10 11  1  0
 11 12  2  0
 11 13  1  0
 13 14  1  0
 14 15  1  0
 15 16  2  0
 16 17  1  0
 17 18  1  0
 18 19  2  0
 19 20  1  0
 20 21  2  0
 21 22  1  0
 22 23  1  0
 23 24  1  0
 24 25  1  0
 25 26  1  0
 26 27  1  0
 21 28  1  0
 28 29  2  0
 17 30  2  0
 30 31  1  0
 31 32  1  0
 32 33  2  0
 33 34  1  0
 34 35  2  0
 35 36  1  0
 36 37  1  0
 37 38  1  0
 38 39  1  0
 39 40  1  0
 40 41  1  0
 35 42  1  0
 42 43  2  0
 31 44  2  0
 44 45  1  0
 45 46  3  0
  9 47  1  0
 47 48  2  0
 48  6  1  0
 44 15  1  0
 29 18  1  0
 43 32  1  0
 27 22  1  0
 41 36  1  0
  1 49  1  0
  1 50  1  0
  1 51  1  0
  2 52  1  0
  2 53  1  0
  7 54  1  0
  8 55  1  0
 10 56  1  0
 13 57  1  0
 13 58  1  0
 19 59  1  0
 20 60  1  0
 23 61  1  0
 23 62  1  0
 24 63  1  0
 24 64  1  0
 26 65  1  0
 26 66  1  0
 27 67  1  0
 27 68  1  0
 28 69  1  0
 29 70  1  0
 30 71  1  0
 33 72  1  0
 34 73  1  0
 37 74  1  0
 37 75  1  0
 38 76  1  0
 38 77  1  0
 40 78  1  0
 40 79  1  0
 41 80  1  0
 41 81  1  0
 42 82  1  0
 43 83  1  0
 47 84  1  0
 48 85  1  0
M  END
>  <Binding energies>  (1) 
[-8.35]

>  <Ligand effiencies>  (1) 
[-0.1704081632653061]

>  <Interactions>  (1) 
["V-A:ILE:538:CG2:4861, V-A:PRO:540:CD:4885, V-B:ASP:366:CG:8185, V-A:PRO:540:N:4882, V-A:ILE:538:CB:4860, V-A:ILE:538:CA:4858, V-A:TYR:531:CZ:4792, H-A:TYR:531:OH:4793, V-A:TYR:539:CD2:4872, V-B:LEU:475:CD2:9231, V-A:TYR:539:CE2:4874, V-A:TYR:539:CZ:4875, V-A:PRO:540:CA:4881, V-A:ALA:541:CB:4890, V-A:GLU:543:CD:4906, V-A:HIS:456:CE1:4068, V-B:TYR:531:CZ:9766, H-A:GLU:543:OE1:4907, V-B:GLU:543:CD:9880, V-B:ARG:545:CZ:9898, V-B:GLU:543:CG:9879, V-A:GLU:543:CG:4905, V-A:PRO:540:CB:4883, V-A:LEU:363:CD1:3187, V-A:TYR:539:C:4865, V-A:TYR:539:CG:4870, H-B:TYR:484:OH:9320, V-A:GLU:543:CB:4904, V-A:TYR:531:CE2:4791, V-B:HIS:456:CE1:9042, V-B:GLY:544:C:9884, V-B:HIS:456:CG:9038, V-A:GLU:543:C:4900, V-B:LYS:547:CE:9922, V-A:HIS:456:CD2:4066, V-B:HIS:456:CD2:9040, V-B:GLU:543:C:9874, V-A:HIS:456:CG:4064, H-B:LYS:547:NZ:9923, V-B:GLY:544:CA:9886, H-A:TYR:539:N:4868, V-B:ARG:545:CG:9894, V-B:ARG:545:CD:9895, H-B:TYR:539:N:9842, V-A:PRO:540:CG:4884, V-A:GLU:543:CA:4902"]

$$$$
2a_Grossjean_2025
     RDKit          3D

 45 46  0  0  0  0  0  0  0  0999 V2000
  133.2190  132.2900   55.7600 C   0  0  0  0  0  0  0  0  0  0  0  0
  131.9540  131.7640   56.4450 C   0  0  0  0  0  0  0  0  0  0  0  0
  130.8150  132.1420   55.6820 O   0  0  0  0  0  0  0  0  0  0  0  0
  129.5620  132.0410   56.1960 C   0  0  0  0  0  0  0  0  0  0  0  0
  128.9820  132.9710   56.7640 O   0  0  0  0  0  0  0  0  0  0  0  0
  128.9440  130.6880   55.9850 C   0  0  0  0  0  0  0  0  0  0  0  0
  129.6690  129.6180   55.4390 C   0  0  0  0  0  0  0  0  0  0  0  0
  129.0660  128.3780   55.2550 C   0  0  0  0  0  0  0  0  0  0  0  0
  127.7290  128.1810   55.6040 C   0  0  0  0  0  0  0  0  0  0  0  0
  127.2200  126.8920   55.3610 N   0  0  0  0  0  0  0  0  0  0  0  0
  127.8660  125.7470   55.0520 C   0  0  0  0  0  0  0  0  0  0  0  0
  129.0820  125.6330   54.8960 O   0  0  0  0  0  0  0  0  0  0  0  0
  126.9770  124.5100   54.8870 C   0  0  0  0  0  0  0  0  0  0  0  0
  127.7000  123.0000   55.6100 S   0  0  0  0  0  0  0  0  0  0  0  0
  127.7670  123.1550   57.3910 C   0  0  0  0  0  0  0  0  0  0  0  0
  128.9570  122.8440   57.9640 N   0  0  0  0  0  0  0  0  0  0  0  0
  129.0770  122.9270   59.3080 C   0  0  0  0  0  0  0  0  0  0  0  0
  130.4290  122.5380   59.8770 C   0  0  0  0  0  0  0  0  0  0  0  0
  128.0290  123.3270   60.1320 C   0  0  0  0  0  0  0  0  0  0  0  0
  126.7910  123.6610   59.5610 C   0  0  0  0  0  0  0  0  0  0  0  0
  125.6420  124.1030   60.4860 C   0  0  0  0  0  0  0  0  0  0  0  0
  125.8000  123.5730   61.6990 F   0  0  0  0  0  0  0  0  0  0  0  0
  125.6280  125.4330   60.5920 F   0  0  0  0  0  0  0  0  0  0  0  0
  124.4430  123.7240   60.0350 F   0  0  0  0  0  0  0  0  0  0  0  0
  126.6520  123.5750   58.1520 C   0  0  0  0  0  0  0  0  0  0  0  0
  125.3800  123.9100   57.5020 C   0  0  0  0  0  0  0  0  0  0  0  0
  124.3760  124.1740   56.9890 N   0  0  0  0  0  0  0  0  0  0  0  0
  127.0000  129.2430   56.1580 C   0  0  0  0  0  0  0  0  0  0  0  0
  127.6060  130.4830   56.3450 C   0  0  0  0  0  0  0  0  0  0  0  0
  133.9501  132.5940   56.5236 H   0  0  0  0  0  0  0  0  0  0  0  0
  133.6525  131.4976   55.1322 H   0  0  0  0  0  0  0  0  0  0  0  0
  132.9629  133.1562   55.1322 H   0  0  0  0  0  0  0  0  0  0  0  0
  132.0025  130.6673   56.5142 H   0  0  0  0  0  0  0  0  0  0  0  0
  131.8782  132.1900   57.4563 H   0  0  0  0  0  0  0  0  0  0  0  0
  130.7219  129.7607   55.1544 H   0  0  0  0  0  0  0  0  0  0  0  0
  129.6475  127.5461   54.8311 H   0  0  0  0  0  0  0  0  0  0  0  0
  126.2210  126.8150   55.4820 H   0  0  0  0  0  0  0  0  0  0  0  0
  126.0125  124.7052   55.3786 H   0  0  0  0  0  0  0  0  0  0  0  0
  126.8636  124.3321   53.8074 H   0  0  0  0  0  0  0  0  0  0  0  0
  130.3820  122.5515   60.9759 H   0  0  0  0  0  0  0  0  0  0  0  0
  130.6942  121.5271   59.5338 H   0  0  0  0  0  0  0  0  0  0  0  0
  131.1909  123.2534   59.5338 H   0  0  0  0  0  0  0  0  0  0  0  0
  128.1698  123.3809   61.2216 H   0  0  0  0  0  0  0  0  0  0  0  0
  125.9483  129.0966   56.4452 H   0  0  0  0  0  0  0  0  0  0  0  0
  127.0272  131.3109   56.7804 H   0  0  0  0  0  0  0  0  0  0  0  0
  1  2  1  0
  2  3  1  0
  3  4  1  0
  4  5  2  0
  4  6  1  0
  6  7  2  0
  7  8  1  0
  8  9  2  0
  9 10  1  0
 10 11  1  0
 11 12  2  0
 11 13  1  0
 13 14  1  0
 14 15  1  0
 15 16  2  0
 16 17  1  0
 17 18  1  0
 17 19  2  0
 19 20  1  0
 20 21  1  0
 21 22  1  0
 21 23  1  0
 21 24  1  0
 20 25  2  0
 25 26  1  0
 26 27  3  0
  9 28  1  0
 28 29  2  0
 29  6  1  0
 25 15  1  0
  1 30  1  0
  1 31  1  0
  1 32  1  0
  2 33  1  0
  2 34  1  0
  7 35  1  0
  8 36  1  0
 10 37  1  0
 13 38  1  0
 13 39  1  0
 18 40  1  0
 18 41  1  0
 18 42  1  0
 19 43  1  0
 28 44  1  0
 29 45  1  0
M  END
>  <Binding energies>  (1) 
[-7.73]

>  <Ligand effiencies>  (1) 
[-0.25766666666666665]

>  <Interactions>  (1) 
["V-A:ILE:538:CG2:4861, V-A:PRO:540:CD:4885, V-B:ASP:366:CG:8185, V-A:PRO:540:N:4882, V-B:TYR:539:CD2:9846, H-B:TYR:531:OH:9767, V-B:PRO:540:CA:9855, V-A:ILE:538:CB:4860, V-B:TYR:539:CE2:9848, V-B:PRO:540:N:9856, V-B:PRO:540:CB:9857, V-A:TYR:539:CZ:4875, V-B:TYR:539:C:9839, V-B:TYR:531:CZ:9766, V-B:PRO:540:C:9853, V-B:GLU:543:CD:9880, V-A:PRO:540:CB:4883, V-A:LEU:363:CD1:3187, V-A:TYR:539:C:4865, V-A:TYR:531:CE2:4791, V-A:TYR:539:CD1:4871, H-A:TYR:539:N:4868, H-B:TYR:539:N:9842, V-B:ALA:541:CA:9862, V-B:ALA:541:C:9860, V-A:PRO:540:CG:4884, H-B:MET:535:SD:9806"]

$$$$
2aa_Ghoteimi_2023
     RDKit          3D

 85 90  0  0  0  0  0  0  0  0999 V2000
  132.8770  131.0940   57.2140 C   0  0  0  0  0  0  0  0  0  0  0  0
  131.4520  130.8850   57.7370 C   0  0  0  0  0  0  0  0  0  0  0  0
  130.7580  132.1250   57.7220 O   0  0  0  0  0  0  0  0  0  0  0  0
  129.5500  132.2470   57.1130 C   0  0  0  0  0  0  0  0  0  0  0  0
  129.4130  132.6150   55.9410 O   0  0  0  0  0  0  0  0  0  0  0  0
  128.3980  131.8750   58.0010 C   0  0  0  0  0  0  0  0  0  0  0  0
  127.3840  131.0050   57.5730 C   0  0  0  0  0  0  0  0  0  0  0  0
  126.3310  130.6750   58.4210 C   0  0  0  0  0  0  0  0  0  0  0  0
  126.2640  131.2130   59.7070 C   0  0  0  0  0  0  0  0  0  0  0  0
  125.1580  130.8110   60.4810 N   0  0  0  0  0  0  0  0  0  0  0  0
  124.2270  131.5570   61.1140 C   0  0  0  0  0  0  0  0  0  0  0  0
  124.1720  132.7880   61.0930 O   0  0  0  0  0  0  0  0  0  0  0  0
  123.1710  130.7480   61.8790 C   0  0  0  0  0  0  0  0  0  0  0  0
  123.6270  130.5040   63.2140 O   0  0  0  0  0  0  0  0  0  0  0  0
  124.8290  129.8450   63.4310 C   0  0  0  0  0  0  0  0  0  0  0  0
  125.5680  129.4850   62.3440 N   0  0  0  0  0  0  0  0  0  0  0  0
  126.7500  128.8430   62.5210 C   0  0  0  0  0  0  0  0  0  0  0  0
  127.5030  128.4750   61.2820 C   0  0  0  0  0  0  0  0  0  0  0  0
  126.8560  127.8440   60.2150 C   0  0  0  0  0  0  0  0  0  0  0  0
  127.5510  127.5040   59.0560 C   0  0  0  0  0  0  0  0  0  0  0  0
  128.9170  127.7970   58.9180 C   0  0  0  0  0  0  0  0  0  0  0  0
  129.6330  127.4510   57.7660 N   0  0  0  0  0  0  0  0  0  0  0  0
  130.5130  126.2650   57.7330 C   0  0  0  0  0  0  0  0  0  0  0  0
  131.4790  126.2390   56.5300 C   0  0  0  0  0  0  0  0  0  0  0  0
  130.7510  126.3650   55.3190 O   0  0  0  0  0  0  0  0  0  0  0  0
  130.0310  127.5870   55.2710 C   0  0  0  0  0  0  0  0  0  0  0  0
  129.0200  127.6520   56.4360 C   0  0  0  0  0  0  0  0  0  0  0  0
  129.5650  128.4100   59.9990 C   0  0  0  0  0  0  0  0  0  0  0  0
  128.8700  128.7460   61.1580 C   0  0  0  0  0  0  0  0  0  0  0  0
  127.2170  128.5300   63.8010 C   0  0  0  0  0  0  0  0  0  0  0  0
  126.4720  128.8790   64.9350 C   0  0  0  0  0  0  0  0  0  0  0  0
  127.0110  128.4940   66.2750 C   0  0  0  0  0  0  0  0  0  0  0  0
  128.2020  129.0540   66.7440 C   0  0  0  0  0  0  0  0  0  0  0  0
  128.7190  128.6860   67.9820 C   0  0  0  0  0  0  0  0  0  0  0  0
  128.0680  127.7340   68.7820 C   0  0  0  0  0  0  0  0  0  0  0  0
  128.5670  127.3520   70.0300 N   0  0  0  0  0  0  0  0  0  0  0  0
  127.9190  127.7850   71.2830 C   0  0  0  0  0  0  0  0  0  0  0  0
  128.3840  126.9900   72.5220 C   0  0  0  0  0  0  0  0  0  0  0  0
  129.7980  127.0520   72.6360 O   0  0  0  0  0  0  0  0  0  0  0  0
  130.4380  126.5020   71.4950 C   0  0  0  0  0  0  0  0  0  0  0  0
  130.0290  127.2840   70.2300 C   0  0  0  0  0  0  0  0  0  0  0  0
  126.8700  127.1830   68.3070 C   0  0  0  0  0  0  0  0  0  0  0  0
  126.3520  127.5520   67.0690 C   0  0  0  0  0  0  0  0  0  0  0  0
  125.2520  129.5680   64.7440 C   0  0  0  0  0  0  0  0  0  0  0  0
  124.4320  130.0170   65.8720 C   0  0  0  0  0  0  0  0  0  0  0  0
  123.7850  130.3710   66.7630 N   0  0  0  0  0  0  0  0  0  0  0  0
  127.2770  132.0780   60.1450 C   0  0  0  0  0  0  0  0  0  0  0  0
  128.3310  132.4040   59.2960 C   0  0  0  0  0  0  0  0  0  0  0  0
  133.5682  131.1954   58.0637 H   0  0  0  0  0  0  0  0  0  0  0  0
  133.1732  130.2297   56.6014 H   0  0  0  0  0  0  0  0  0  0  0  0
  132.9125  132.0070   56.6014 H   0  0  0  0  0  0  0  0  0  0  0  0
  130.9273  130.1628   57.0943 H   0  0  0  0  0  0  0  0  0  0  0  0
  131.4909  130.4977   58.7658 H   0  0  0  0  0  0  0  0  0  0  0  0
  127.4216  130.5803   56.5590 H   0  0  0  0  0  0  0  0  0  0  0  0
  125.5465  129.9857   58.0754 H   0  0  0  0  0  0  0  0  0  0  0  0
  125.0330  129.8100   60.5310 H   0  0  0  0  0  0  0  0  0  0  0  0
  122.2287  131.3146   61.9118 H   0  0  0  0  0  0  0  0  0  0  0  0
  123.0058  129.7879   61.3682 H   0  0  0  0  0  0  0  0  0  0  0  0
  125.7833  127.6127   60.2916 H   0  0  0  0  0  0  0  0  0  0  0  0
  127.0207  126.9978   58.2359 H   0  0  0  0  0  0  0  0  0  0  0  0
  131.1095  126.2501   58.6571 H   0  0  0  0  0  0  0  0  0  0  0  0
  129.8603  125.3846   57.6386 H   0  0  0  0  0  0  0  0  0  0  0  0
  132.1900  127.0739   56.6159 H   0  0  0  0  0  0  0  0  0  0  0  0
  132.0237  125.2833   56.5255 H   0  0  0  0  0  0  0  0  0  0  0  0
  130.7353  128.4279   55.3529 H   0  0  0  0  0  0  0  0  0  0  0  0
  129.4863  127.6472   54.3172 H   0  0  0  0  0  0  0  0  0  0  0  0
  128.5369  128.6401   56.4219 H   0  0  0  0  0  0  0  0  0  0  0  0
  128.3024  126.8320   56.2853 H   0  0  0  0  0  0  0  0  0  0  0  0
  130.6407  128.6294   59.9308 H   0  0  0  0  0  0  0  0  0  0  0  0
  129.4036  129.2316   61.9883 H   0  0  0  0  0  0  0  0  0  0  0  0
  128.1768  128.0057   63.9187 H   0  0  0  0  0  0  0  0  0  0  0  0
  128.7360  129.7929   66.1285 H   0  0  0  0  0  0  0  0  0  0  0  0
  129.6514  129.1477   68.3391 H   0  0  0  0  0  0  0  0  0  0  0  0
  128.1492  128.8484   71.4448 H   0  0  0  0  0  0  0  0  0  0  0  0
  126.8398  127.6051   71.1687 H   0  0  0  0  0  0  0  0  0  0  0  0
  127.9265  127.4215   73.4245 H   0  0  0  0  0  0  0  0  0  0  0  0
  128.0761  125.9395   72.4135 H   0  0  0  0  0  0  0  0  0  0  0  0
  131.5286  126.5638   71.6243 H   0  0  0  0  0  0  0  0  0  0  0  0
  130.1336  125.4509   71.3829 H   0  0  0  0  0  0  0  0  0  0  0  0
  130.4177  128.3097   70.3131 H   0  0  0  0  0  0  0  0  0  0  0  0
  130.4505  126.7486   69.3665 H   0  0  0  0  0  0  0  0  0  0  0  0
  126.3308  126.4476   68.9222 H   0  0  0  0  0  0  0  0  0  0  0  0
  125.4156  127.0980   66.7126 H   0  0  0  0  0  0  0  0  0  0  0  0
  127.2388  132.4994   61.1604 H   0  0  0  0  0  0  0  0  0  0  0  0
  129.1205  133.0851   59.6464 H   0  0  0  0  0  0  0  0  0  0  0  0
  1  2  1  0
  2  3  1  0
  3  4  1  0
  4  5  2  0
  4  6  1  0
  6  7  2  0
  7  8  1  0
  8  9  2  0
  9 10  1  0
 10 11  1  0
 11 12  2  0
 11 13  1  0
 13 14  1  0
 14 15  1  0
 15 16  2  0
 16 17  1  0
 17 18  1  0
 18 19  2  0
 19 20  1  0
 20 21  2  0
 21 22  1  0
 22 23  1  0
 23 24  1  0
 24 25  1  0
 25 26  1  0
 26 27  1  0
 21 28  1  0
 28 29  2  0
 17 30  2  0
 30 31  1  0
 31 32  1  0
 32 33  2  0
 33 34  1  0
 34 35  2  0
 35 36  1  0
 36 37  1  0
 37 38  1  0
 38 39  1  0
 39 40  1  0
 40 41  1  0
 35 42  1  0
 42 43  2  0
 31 44  2  0
 44 45  1  0
 45 46  3  0
  9 47  1  0
 47 48  2  0
 48  6  1  0
 44 15  1  0
 29 18  1  0
 43 32  1  0
 27 22  1  0
 41 36  1  0
  1 49  1  0
  1 50  1  0
  1 51  1  0
  2 52  1  0
  2 53  1  0
  7 54  1  0
  8 55  1  0
 10 56  1  0
 13 57  1  0
 13 58  1  0
 19 59  1  0
 20 60  1  0
 23 61  1  0
 23 62  1  0
 24 63  1  0
 24 64  1  0
 26 65  1  0
 26 66  1  0
 27 67  1  0
 27 68  1  0
 28 69  1  0
 29 70  1  0
 30 71  1  0
 33 72  1  0
 34 73  1  0
 37 74  1  0
 37 75  1  0
 38 76  1  0
 38 77  1  0
 40 78  1  0
 40 79  1  0
 41 80  1  0
 41 81  1  0
 42 82  1  0
 43 83  1  0
 47 84  1  0
 48 85  1  0
M  END
>  <Binding energies>  (1) 
[-8.48]

>  <Ligand effiencies>  (1) 
[-0.17306122448979594]

>  <Interactions>  (1) 
["V-B:ASP:366:CG:8185, V-A:PRO:540:N:4882, H-B:ASP:366:OD2:8187, V-A:TYR:531:CZ:4792, V-B:ILE:369:CD1:8211, H-A:TYR:531:OH:4793, V-A:TYR:539:CD2:4872, V-A:ASP:366:CB:3210, V-A:TYR:539:CE2:4874, V-A:TYR:539:CZ:4875, V-A:PRO:540:CA:4881, V-A:GLU:543:CD:4906, H-B:ARG:545:NH2:9900, V-A:HIS:456:CE1:4068, V-B:GLU:543:CD:9880, V-B:ARG:545:CZ:9898, V-B:GLU:543:CG:9879, V-A:GLU:543:CG:4905, H-B:GLY:454:N:9022, V-A:PRO:540:CB:4883, V-A:TYR:539:C:4865, V-A:TYR:539:CG:4870, H-B:TYR:484:OH:9320, V-A:GLU:543:CB:4904, V-A:TYR:531:CE2:4791, V-B:HIS:456:CE1:9042, V-B:GLY:544:C:9884, V-A:GLY:544:C:4910, V-A:GLU:543:C:4900, V-B:LYS:547:CE:9922, V-A:HIS:456:CD2:4066, V-B:HIS:456:CD2:9040, V-B:GLU:543:C:9874, V-A:HIS:456:CG:4064, H-B:LYS:547:NZ:9923, V-B:GLY:544:CA:9886, H-A:TYR:539:N:4868, V-B:ARG:545:CG:9894, V-B:ARG:545:CD:9895, V-B:TYR:484:CZ:9319, V-A:TYR:531:CE1:4790, H-B:HIS:456:ND1:9039, V-A:TYR:539:CA:4867, V-B:GLY:453:C:9014, V-B:GLY:453:CA:9016, H-B:ASP:366:OD1:8186, H-B:ARG:545:NH1:9899, V-A:GLU:543:CA:4902, H-B:ILE:455:N:9027, V-B:ARG:545:CA:9891"]

$$$$
2b_Ghoteimi_2023
     RDKit          3D

 72 77  0  0  0  0  0  0  0  0999 V2000
  134.5720  125.4560   65.7570 N   0  0  0  0  0  0  0  0  0  0  0  0
  133.7130  125.3340   64.9920 C   0  0  0  0  0  0  0  0  0  0  0  0
  132.6210  125.1820   64.0260 C   0  0  0  0  0  0  0  0  0  0  0  0
  131.2890  125.5020   64.3890 C   0  0  0  0  0  0  0  0  0  0  0  0
  130.8940  126.0070   65.7370 C   0  0  0  0  0  0  0  0  0  0  0  0
  129.7570  125.5040   66.3720 C   0  0  0  0  0  0  0  0  0  0  0  0
  129.3850  125.9720   67.6290 C   0  0  0  0  0  0  0  0  0  0  0  0
  130.1300  126.9690   68.2780 C   0  0  0  0  0  0  0  0  0  0  0  0
  129.7830  127.4450   69.5440 N   0  0  0  0  0  0  0  0  0  0  0  0
  128.3560  127.6300   69.8770 C   0  0  0  0  0  0  0  0  0  0  0  0
  128.1290  128.5010   71.1310 C   0  0  0  0  0  0  0  0  0  0  0  0
  128.8460  127.9660   72.2330 O   0  0  0  0  0  0  0  0  0  0  0  0
  130.2410  127.9180   71.9780 C   0  0  0  0  0  0  0  0  0  0  0  0
  130.5200  127.0250   70.7520 C   0  0  0  0  0  0  0  0  0  0  0  0
  131.2680  127.4700   67.6310 C   0  0  0  0  0  0  0  0  0  0  0  0
  131.6430  126.9990   66.3760 C   0  0  0  0  0  0  0  0  0  0  0  0
  130.2800  125.3450   63.4300 C   0  0  0  0  0  0  0  0  0  0  0  0
  130.5930  124.9120   62.1380 C   0  0  0  0  0  0  0  0  0  0  0  0
  129.5580  124.7570   61.0700 C   0  0  0  0  0  0  0  0  0  0  0  0
  128.6180  123.7220   61.1310 C   0  0  0  0  0  0  0  0  0  0  0  0
  127.6420  123.5810   60.1490 C   0  0  0  0  0  0  0  0  0  0  0  0
  127.5760  124.4640   59.0600 C   0  0  0  0  0  0  0  0  0  0  0  0
  126.5820  124.3530   58.0810 N   0  0  0  0  0  0  0  0  0  0  0  0
  126.8870  123.6970   56.7930 C   0  0  0  0  0  0  0  0  0  0  0  0
  125.8480  123.9900   55.6890 C   0  0  0  0  0  0  0  0  0  0  0  0
  124.5480  123.6440   56.1410 O   0  0  0  0  0  0  0  0  0  0  0  0
  124.1800  124.3920   57.2880 C   0  0  0  0  0  0  0  0  0  0  0  0
  125.1700  124.1150   58.4400 C   0  0  0  0  0  0  0  0  0  0  0  0
  128.5140  125.5040   59.0060 C   0  0  0  0  0  0  0  0  0  0  0  0
  129.4890  125.6460   59.9900 C   0  0  0  0  0  0  0  0  0  0  0  0
  131.8700  124.6070   61.7920 N   0  0  0  0  0  0  0  0  0  0  0  0
  132.8570  124.7190   62.7110 C   0  0  0  0  0  0  0  0  0  0  0  0
  134.4640  124.2740   62.0890 S   0  0  0  0  0  0  0  0  0  0  0  0
  134.2240  123.4680   60.4770 C   0  0  0  0  0  0  0  0  0  0  0  0
  133.6050  122.0760   60.6160 C   0  0  0  0  0  0  0  0  0  0  0  0
  134.3440  121.0970   60.7360 O   0  0  0  0  0  0  0  0  0  0  0  0
  132.2560  122.0340   60.5890 N   0  0  0  0  0  0  0  0  0  0  0  0
  131.4460  120.9130   60.7040 C   0  0  0  0  0  0  0  0  0  0  0  0
  130.0720  120.9880   60.9310 C   0  0  0  0  0  0  0  0  0  0  0  0
  129.6470  119.6810   60.9810 C   0  0  0  0  0  0  0  0  0  0  0  0
  130.7080  118.8620   60.7930 O   0  0  0  0  0  0  0  0  0  0  0  0
  131.8440  119.6550   60.6170 N   0  0  0  0  0  0  0  0  0  0  0  0
  129.1507  124.7322   65.8753 H   0  0  0  0  0  0  0  0  0  0  0  0
  128.4942  125.5544   68.1210 H   0  0  0  0  0  0  0  0  0  0  0  0
  127.8578  128.1116   69.0227 H   0  0  0  0  0  0  0  0  0  0  0  0
  127.9403  126.6346   70.0924 H   0  0  0  0  0  0  0  0  0  0  0  0
  128.4793  129.5244   70.9314 H   0  0  0  0  0  0  0  0  0  0  0  0
  127.0557  128.5129   71.3715 H   0  0  0  0  0  0  0  0  0  0  0  0
  130.6108  128.9349   71.7803 H   0  0  0  0  0  0  0  0  0  0  0  0
  130.7554  127.4994   72.8556 H   0  0  0  0  0  0  0  0  0  0  0  0
  131.5975  127.0591   70.5331 H   0  0  0  0  0  0  0  0  0  0  0  0
  130.1803  126.0097   71.0044 H   0  0  0  0  0  0  0  0  0  0  0  0
  131.8732  128.2463   68.1219 H   0  0  0  0  0  0  0  0  0  0  0  0
  132.5360  127.4108   65.8832 H   0  0  0  0  0  0  0  0  0  0  0  0
  129.2351  125.5637   63.6951 H   0  0  0  0  0  0  0  0  0  0  0  0
  128.6511  123.0090   61.9680 H   0  0  0  0  0  0  0  0  0  0  0  0
  126.9099  122.7637   60.2276 H   0  0  0  0  0  0  0  0  0  0  0  0
  127.8702  124.0491   56.4476 H   0  0  0  0  0  0  0  0  0  0  0  0
  126.8705  122.6117   56.9718 H   0  0  0  0  0  0  0  0  0  0  0  0
  125.8738  125.0611   55.4397 H   0  0  0  0  0  0  0  0  0  0  0  0
  126.0908  123.3932   54.7975 H   0  0  0  0  0  0  0  0  0  0  0  0
  124.1962  125.4645   57.0439 H   0  0  0  0  0  0  0  0  0  0  0  0
  123.1684  124.0958   57.6026 H   0  0  0  0  0  0  0  0  0  0  0  0
  124.9115  124.7704   59.2848 H   0  0  0  0  0  0  0  0  0  0  0  0
  125.0785  123.0482   58.6921 H   0  0  0  0  0  0  0  0  0  0  0  0
  128.4794  126.2204   58.1720 H   0  0  0  0  0  0  0  0  0  0  0  0
  130.2158  126.4686   59.9180 H   0  0  0  0  0  0  0  0  0  0  0  0
  133.5579  124.0927   59.8638 H   0  0  0  0  0  0  0  0  0  0  0  0
  135.2110  123.3542   60.0050 H   0  0  0  0  0  0  0  0  0  0  0  0
  131.7670  122.9130   60.5000 H   0  0  0  0  0  0  0  0  0  0  0  0
  129.4609  121.8955   61.0452 H   0  0  0  0  0  0  0  0  0  0  0  0
  128.6101  119.3535   61.1473 H   0  0  0  0  0  0  0  0  0  0  0  0
  1  2  3  0
  2  3  1  0
  3  4  2  0
  4  5  1  0
  5  6  2  0
  6  7  1  0
  7  8  2  0
  8  9  1  0
  9 10  1  0
 10 11  1  0
 11 12  1  0
 12 13  1  0
 13 14  1  0
  8 15  1  0
 15 16  2  0
  4 17  1  0
 17 18  2  0
 18 19  1  0
 19 20  2  0
 20 21  1  0
 21 22  2  0
 22 23  1  0
 23 24  1  0
 24 25  1  0
 25 26  1  0
 26 27  1  0
 27 28  1  0
 22 29  1  0
 29 30  2  0
 18 31  1  0
 31 32  2  0
 32 33  1  0
 33 34  1  0
 34 35  1  0
 35 36  2  0
 35 37  1  0
 37 38  1  0
 38 39  1  0
 39 40  2  0
 40 41  1  0
 41 42  1  0
 32  3  1  0
 42 38  2  0
 16  5  1  0
 30 19  1  0
 14  9  1  0
 28 23  1  0
  6 43  1  0
  7 44  1  0
 10 45  1  0
 10 46  1  0
 11 47  1  0
 11 48  1  0
 13 49  1  0
 13 50  1  0
 14 51  1  0
 14 52  1  0
 15 53  1  0
 16 54  1  0
 17 55  1  0
 20 56  1  0
 21 57  1  0
 24 58  1  0
 24 59  1  0
 25 60  1  0
 25 61  1  0
 27 62  1  0
 27 63  1  0
 28 64  1  0
 28 65  1  0
 29 66  1  0
 30 67  1  0
 34 68  1  0
 34 69  1  0
 37 70  1  0
 39 71  1  0
 40 72  1  0
M  END
>  <Binding energies>  (1) 
[-7.24]

>  <Ligand effiencies>  (1) 
[-0.16837209302325581]

>  <Interactions>  (1) 
["V-B:TYR:539:CD2:9846, H-B:TYR:531:OH:9767, V-B:PRO:540:CA:9855, V-A:LEU:475:CD2:4257, V-A:ILE:369:CG2:3235, V-B:ALA:541:CB:9864, V-A:ILE:369:CD1:3237, V-B:TYR:539:CE2:9848, V-B:TYR:531:CE2:9765, V-B:PRO:540:CB:9857, V-A:GLU:543:CD:4906, V-A:HIS:456:CE1:4068, H-A:ARG:545:NE:4922, H-A:TYR:484:OH:4346, H-A:GLY:454:N:4048, V-B:TYR:531:CZ:9766, V-B:GLU:543:CD:9880, V-A:ARG:545:CZ:4924, V-B:GLU:543:CB:9878, V-B:GLU:543:CG:9879, V-A:GLU:543:CG:4905, V-B:HIS:456:CE1:9042, V-A:LYS:547:CE:4948, V-B:HIS:456:CG:9038, V-A:GLY:544:C:4910, V-A:GLU:543:C:4900, V-A:HIS:456:CD2:4066, V-B:HIS:456:CD2:9040, V-B:GLU:543:C:9874, V-A:HIS:456:CG:4064, V-A:GLY:544:CA:4912, V-B:GLU:543:CA:9876, V-A:ARG:545:CD:4921, V-A:ARG:545:CG:4920, V-B:ALA:541:CA:9862, V-A:PRO:482:CG:4325, V-A:PRO:482:CB:4324, V-A:GLY:453:CA:4042"]

$$$$
2b_Grossjean_2025
     RDKit          3D

 42 43  0  0  0  0  0  0  0  0999 V2000
  124.4320  123.3020   55.8740 C   0  0  0  0  0  0  0  0  0  0  0  0
  125.6620  122.6380   56.1310 O   0  0  0  0  0  0  0  0  0  0  0  0
  126.8480  123.2800   55.9790 C   0  0  0  0  0  0  0  0  0  0  0  0
  127.8120  122.7940   55.3790 O   0  0  0  0  0  0  0  0  0  0  0  0
  126.8730  124.6390   56.6170 C   0  0  0  0  0  0  0  0  0  0  0  0
  126.4420  124.8480   57.9350 C   0  0  0  0  0  0  0  0  0  0  0  0
  126.4760  126.1220   58.4960 C   0  0  0  0  0  0  0  0  0  0  0  0
  126.9460  127.2080   57.7570 C   0  0  0  0  0  0  0  0  0  0  0  0
  126.9320  128.4510   58.4190 N   0  0  0  0  0  0  0  0  0  0  0  0
  127.5210  129.6160   58.0760 C   0  0  0  0  0  0  0  0  0  0  0  0
  128.2300  129.7920   57.0840 O   0  0  0  0  0  0  0  0  0  0  0  0
  127.2720  130.7810   59.0390 C   0  0  0  0  0  0  0  0  0  0  0  0
  128.3200  132.2330   58.6950 S   0  0  0  0  0  0  0  0  0  0  0  0
  130.0430  131.8030   58.8990 C   0  0  0  0  0  0  0  0  0  0  0  0
  130.4350  131.5270   60.1690 N   0  0  0  0  0  0  0  0  0  0  0  0
  131.7270  131.1990   60.3980 C   0  0  0  0  0  0  0  0  0  0  0  0
  132.0860  130.9190   61.8440 C   0  0  0  0  0  0  0  0  0  0  0  0
  132.6740  131.1240   59.3810 C   0  0  0  0  0  0  0  0  0  0  0  0
  132.2900  131.3980   58.0590 C   0  0  0  0  0  0  0  0  0  0  0  0
  133.3490  131.3050   56.9450 C   0  0  0  0  0  0  0  0  0  0  0  0
  134.0580  132.4340   56.8950 F   0  0  0  0  0  0  0  0  0  0  0  0
  134.1760  130.2860   57.1820 F   0  0  0  0  0  0  0  0  0  0  0  0
  132.8140  131.1140   55.7370 F   0  0  0  0  0  0  0  0  0  0  0  0
  130.9390  131.7490   57.8050 C   0  0  0  0  0  0  0  0  0  0  0  0
  130.4840  132.0520   56.4450 C   0  0  0  0  0  0  0  0  0  0  0  0
  130.1250  132.2890   55.3710 N   0  0  0  0  0  0  0  0  0  0  0  0
  127.3720  127.0090   56.4360 C   0  0  0  0  0  0  0  0  0  0  0  0
  127.3360  125.7350   55.8760 C   0  0  0  0  0  0  0  0  0  0  0  0
  123.9496  123.5624   56.8277 H   0  0  0  0  0  0  0  0  0  0  0  0
  124.6238  124.2191   55.2977 H   0  0  0  0  0  0  0  0  0  0  0  0
  123.7705  122.6384   55.2977 H   0  0  0  0  0  0  0  0  0  0  0  0
  126.0743  123.9991   58.5302 H   0  0  0  0  0  0  0  0  0  0  0  0
  126.1299  126.2732   59.5291 H   0  0  0  0  0  0  0  0  0  0  0  0
  126.4450  128.4430   59.3030 H   0  0  0  0  0  0  0  0  0  0  0  0
  126.2176  131.0834   58.9568 H   0  0  0  0  0  0  0  0  0  0  0  0
  127.5229  130.4287   60.0504 H   0  0  0  0  0  0  0  0  0  0  0  0
  131.3928  131.4597   62.5052 H   0  0  0  0  0  0  0  0  0  0  0  0
  132.0105  129.8389   62.0380 H   0  0  0  0  0  0  0  0  0  0  0  0
  133.1152  131.2553   62.0380 H   0  0  0  0  0  0  0  0  0  0  0  0
  133.7147  130.8523   59.6112 H   0  0  0  0  0  0  0  0  0  0  0  0
  127.7350  127.8604   55.8416 H   0  0  0  0  0  0  0  0  0  0  0  0
  127.6748  125.5867   54.8400 H   0  0  0  0  0  0  0  0  0  0  0  0
  1  2  1  0
  2  3  1  0
  3  4  2  0
  3  5  1  0
  5  6  2  0
  6  7  1  0
  7  8  2  0
  8  9  1  0
  9 10  1  0
 10 11  2  0
 10 12  1  0
 12 13  1  0
 13 14  1  0
 14 15  2  0
 15 16  1  0
 16 17  1  0
 16 18  2  0
 18 19  1  0
 19 20  1  0
 20 21  1  0
 20 22  1  0
 20 23  1  0
 19 24  2  0
 24 25  1  0
 25 26  3  0
  8 27  1  0
 27 28  2  0
 28  5  1  0
 24 14  1  0
  1 29  1  0
  1 30  1  0
  1 31  1  0
  6 32  1  0
  7 33  1  0
  9 34  1  0
 12 35  1  0
 12 36  1  0
 17 37  1  0
 17 38  1  0
 17 39  1  0
 18 40  1  0
 27 41  1  0
 28 42  1  0
M  END
>  <Binding energies>  (1) 
[-7.58]

>  <Ligand effiencies>  (1) 
[-0.2613793103448276]

>  <Interactions>  (1) 
["V-A:ILE:538:CG2:4861, V-A:PRO:540:CD:4885, V-A:PRO:540:N:4882, H-B:ASP:366:OD2:8187, V-A:TYR:531:CZ:4792, V-B:ILE:538:CB:9834, V-A:ASP:366:CG:3211, V-B:TYR:531:CE2:9765, V-B:PRO:540:CD:9859, V-A:ASP:366:CB:3210, V-A:TYR:539:CE2:4874, V-B:ILE:538:CG2:9835, H-A:ALA:541:N:4889, V-A:PRO:540:CA:4881, V-A:GLU:543:CD:4906, V-B:ILE:538:CA:9832, V-B:LEU:363:CD1:8161, V-B:TYR:531:CZ:9766, V-A:ARG:545:CZ:4924, V-A:PRO:540:CB:4883, V-A:LEU:363:CD1:3187, V-A:TYR:539:C:4865, V-A:TYR:531:CE2:4791, H-A:TYR:539:N:4868, V-A:LEU:363:CB:3185, V-A:LEU:363:CA:3183, H-B:TYR:539:N:9842, V-A:PRO:540:CG:4884, V-A:LEU:363:CG:3186, V-A:LEU:363:C:3181"]

$$$$
2c_Ghoteimi_2023
     RDKit          3D

 72 77  0  0  0  0  0  0  0  0999 V2000
  134.6130  125.3380   65.8080 N   0  0  0  0  0  0  0  0  0  0  0  0
  133.7800  125.2440   65.0120 C   0  0  0  0  0  0  0  0  0  0  0  0
  132.7200  125.1290   64.0050 C   0  0  0  0  0  0  0  0  0  0  0  0
  131.3830  125.4750   64.3230 C   0  0  0  0  0  0  0  0  0  0  0  0
  130.9480  125.9680   65.6640 C   0  0  0  0  0  0  0  0  0  0  0  0
  129.7860  125.4670   66.2540 C   0  0  0  0  0  0  0  0  0  0  0  0
  129.3760  125.9180   67.5060 C   0  0  0  0  0  0  0  0  0  0  0  0
  130.1090  126.8950   68.1980 C   0  0  0  0  0  0  0  0  0  0  0  0
  129.7280  127.3470   69.4630 N   0  0  0  0  0  0  0  0  0  0  0  0
  128.2940  127.3890   69.8130 C   0  0  0  0  0  0  0  0  0  0  0  0
  127.9960  128.2540   71.0560 C   0  0  0  0  0  0  0  0  0  0  0  0
  128.7730  127.8080   72.1570 O   0  0  0  0  0  0  0  0  0  0  0  0
  130.1630  127.8960   71.8870 C   0  0  0  0  0  0  0  0  0  0  0  0
  130.5190  127.0230   70.6660 C   0  0  0  0  0  0  0  0  0  0  0  0
  131.2730  127.3950   67.5950 C   0  0  0  0  0  0  0  0  0  0  0  0
  131.6830  126.9420   66.3450 C   0  0  0  0  0  0  0  0  0  0  0  0
  130.4070  125.3510   63.3260 C   0  0  0  0  0  0  0  0  0  0  0  0
  130.7560  124.9200   62.0430 C   0  0  0  0  0  0  0  0  0  0  0  0
  129.7550  124.7870   60.9400 C   0  0  0  0  0  0  0  0  0  0  0  0
  130.1490  124.3710   59.6640 C   0  0  0  0  0  0  0  0  0  0  0  0
  129.2210  124.2400   58.6340 C   0  0  0  0  0  0  0  0  0  0  0  0
  127.8630  124.5320   58.8400 C   0  0  0  0  0  0  0  0  0  0  0  0
  126.9140  124.3810   57.8240 N   0  0  0  0  0  0  0  0  0  0  0  0
  127.3170  123.8180   56.5190 C   0  0  0  0  0  0  0  0  0  0  0  0
  126.2890  124.0660   55.3940 C   0  0  0  0  0  0  0  0  0  0  0  0
  125.0170  123.5770   55.7820 O   0  0  0  0  0  0  0  0  0  0  0  0
  124.5440  124.2290   56.9500 C   0  0  0  0  0  0  0  0  0  0  0  0
  125.5200  123.9920   58.1220 C   0  0  0  0  0  0  0  0  0  0  0  0
  127.4710  124.9360   60.1240 C   0  0  0  0  0  0  0  0  0  0  0  0
  128.4000  125.0650   61.1540 C   0  0  0  0  0  0  0  0  0  0  0  0
  132.0380  124.5910   61.7400 N   0  0  0  0  0  0  0  0  0  0  0  0
  132.9940  124.6730   62.6960 C   0  0  0  0  0  0  0  0  0  0  0  0
  134.6100  124.1940   62.1290 S   0  0  0  0  0  0  0  0  0  0  0  0
  134.5210  124.0030   60.3230 C   0  0  0  0  0  0  0  0  0  0  0  0
  133.4470  122.9980   59.9040 C   0  0  0  0  0  0  0  0  0  0  0  0
  133.1820  122.8600   58.7090 O   0  0  0  0  0  0  0  0  0  0  0  0
  132.8560  122.3230   60.9140 N   0  0  0  0  0  0  0  0  0  0  0  0
  131.8720  121.3520   60.7980 C   0  0  0  0  0  0  0  0  0  0  0  0
  131.9390  120.2070   60.1560 N   0  0  0  0  0  0  0  0  0  0  0  0
  130.8160  119.5250   60.2600 C   0  0  0  0  0  0  0  0  0  0  0  0
  129.8010  120.1220   61.0030 C   0  0  0  0  0  0  0  0  0  0  0  0
  130.3610  121.6580   61.5920 S   0  0  0  0  0  0  0  0  0  0  0  0
  129.1891  124.7093   65.7251 H   0  0  0  0  0  0  0  0  0  0  0  0
  128.4641  125.5025   67.9596 H   0  0  0  0  0  0  0  0  0  0  0  0
  127.7376  127.8016   68.9585 H   0  0  0  0  0  0  0  0  0  0  0  0
  127.9852  126.3600   70.0495 H   0  0  0  0  0  0  0  0  0  0  0  0
  128.2434  129.3032   70.8371 H   0  0  0  0  0  0  0  0  0  0  0  0
  126.9290  128.1665   71.3088 H   0  0  0  0  0  0  0  0  0  0  0  0
  130.4277  128.9427   71.6762 H   0  0  0  0  0  0  0  0  0  0  0  0
  130.7245  127.5386   72.7628 H   0  0  0  0  0  0  0  0  0  0  0  0
  131.5841  127.1680   70.4324 H   0  0  0  0  0  0  0  0  0  0  0  0
  130.2901  125.9810   70.9341 H   0  0  0  0  0  0  0  0  0  0  0  0
  131.8702  128.1563   68.1182 H   0  0  0  0  0  0  0  0  0  0  0  0
  132.5947  127.3546   65.8883 H   0  0  0  0  0  0  0  0  0  0  0  0
  129.3588  125.5944   63.5543 H   0  0  0  0  0  0  0  0  0  0  0  0
  131.2079  124.1439   59.4712 H   0  0  0  0  0  0  0  0  0  0  0  0
  129.5573  123.9022   57.6426 H   0  0  0  0  0  0  0  0  0  0  0  0
  128.2728  124.2752   56.2234 H   0  0  0  0  0  0  0  0  0  0  0  0
  127.3963  122.7286   56.6487 H   0  0  0  0  0  0  0  0  0  0  0  0
  126.2191  125.1458   55.1962 H   0  0  0  0  0  0  0  0  0  0  0  0
  126.6155  123.5400   54.4848 H   0  0  0  0  0  0  0  0  0  0  0  0
  124.4633  125.3088   56.7565 H   0  0  0  0  0  0  0  0  0  0  0  0
  123.5573  123.8215   57.2152 H   0  0  0  0  0  0  0  0  0  0  0  0
  125.1734  124.5779   58.9861 H   0  0  0  0  0  0  0  0  0  0  0  0
  125.5246  122.9103   58.3219 H   0  0  0  0  0  0  0  0  0  0  0  0
  126.4113  125.1550   60.3216 H   0  0  0  0  0  0  0  0  0  0  0  0
  128.0639  125.3900   62.1497 H   0  0  0  0  0  0  0  0  0  0  0  0
  134.2876  124.9797   59.8739 H   0  0  0  0  0  0  0  0  0  0  0  0
  135.4934  123.6257   59.9735 H   0  0  0  0  0  0  0  0  0  0  0  0
  133.1690  122.5190   61.8540 H   0  0  0  0  0  0  0  0  0  0  0  0
  130.6879  118.5403   59.7868 H   0  0  0  0  0  0  0  0  0  0  0  0
  128.8058  119.6911   61.1873 H   0  0  0  0  0  0  0  0  0  0  0  0
  1  2  3  0
  2  3  1  0
  3  4  2  0
  4  5  1  0
  5  6  2  0
  6  7  1  0
  7  8  2  0
  8  9  1  0
  9 10  1  0
 10 11  1  0
 11 12  1  0
 12 13  1  0
 13 14  1  0
  8 15  1  0
 15 16  2  0
  4 17  1  0
 17 18  2  0
 18 19  1  0
 19 20  2  0
 20 21  1  0
 21 22  2  0
 22 23  1  0
 23 24  1  0
 24 25  1  0
 25 26  1  0
 26 27  1  0
 27 28  1  0
 22 29  1  0
 29 30  2  0
 18 31  1  0
 31 32  2  0
 32 33  1  0
 33 34  1  0
 34 35  1  0
 35 36  2  0
 35 37  1  0
 37 38  1  0
 38 39  2  0
 39 40  1  0
 40 41  2  0
 41 42  1  0
 32  3  1  0
 42 38  1  0
 16  5  1  0
 30 19  1  0
 14  9  1  0
 28 23  1  0
  6 43  1  0
  7 44  1  0
 10 45  1  0
 10 46  1  0
 11 47  1  0
 11 48  1  0
 13 49  1  0
 13 50  1  0
 14 51  1  0
 14 52  1  0
 15 53  1  0
 16 54  1  0
 17 55  1  0
 20 56  1  0
 21 57  1  0
 24 58  1  0
 24 59  1  0
 25 60  1  0
 25 61  1  0
 27 62  1  0
 27 63  1  0
 28 64  1  0
 28 65  1  0
 29 66  1  0
 30 67  1  0
 34 68  1  0
 34 69  1  0
 37 70  1  0
 40 71  1  0
 41 72  1  0
M  END
>  <Binding energies>  (1) 
[-7.61]

>  <Ligand effiencies>  (1) 
[-0.17697674418604653]

>  <Interactions>  (1) 
["V-B:TYR:539:CD2:9846, H-B:TYR:531:OH:9767, V-B:PRO:540:CA:9855, V-A:LEU:475:CD2:4257, V-A:ILE:369:CG2:3235, V-A:TRP:381:CZ2:3368, V-B:ALA:541:CB:9864, V-A:TRP:381:CH2:3370, V-A:ILE:369:CD1:3237, V-B:TYR:539:CE2:9848, V-B:PRO:540:N:9856, V-A:ASP:366:CG:3211, V-B:TYR:531:CE2:9765, V-B:PRO:540:CB:9857, V-A:GLU:543:CD:4906, V-A:HIS:456:CE1:4068, H-A:ARG:545:NE:4922, H-A:TYR:484:OH:4346, H-A:GLY:454:N:4048, V-B:TYR:531:CZ:9766, V-B:GLU:543:CD:9880, V-A:ARG:545:CZ:4924, V-B:GLU:543:CB:9878, V-B:GLU:543:CG:9879, V-A:GLU:543:CG:4905, V-B:HIS:456:CE1:9042, H-B:TYR:539:OH:9850, V-B:GLY:544:C:9884, V-A:LYS:547:CE:4948, V-B:HIS:456:CG:9038, V-A:GLY:544:C:4910, V-A:HIS:456:CD2:4066, V-B:HIS:456:CD2:9040, V-B:GLU:543:C:9874, V-A:HIS:456:CG:4064, V-A:GLY:544:CA:4912, V-B:GLU:543:CA:9876, V-A:ARG:545:CD:4921, V-A:ARG:545:CG:4920, V-A:ASP:366:CA:3208, V-B:ALA:541:CA:9862, V-A:PRO:482:CB:4324, V-A:GLY:453:C:4040, V-A:GLY:453:CA:4042, V-A:TRP:381:CZ3:3369"]

$$$$
2c_Grossjean_2025
     RDKit          3D

 40 41  0  0  0  0  0  0  0  0999 V2000
  124.7780  129.9370   65.0060 C   0  0  0  0  0  0  0  0  0  0  0  0
  124.1580  130.4970   63.8520 O   0  0  0  0  0  0  0  0  0  0  0  0
  124.8560  130.5280   62.6610 C   0  0  0  0  0  0  0  0  0  0  0  0
  124.1800  131.0470   61.5570 C   0  0  0  0  0  0  0  0  0  0  0  0
  124.8000  131.1190   60.3120 C   0  0  0  0  0  0  0  0  0  0  0  0
  126.1150  130.6560   60.1580 C   0  0  0  0  0  0  0  0  0  0  0  0
  126.8290  130.7030   58.9460 N   0  0  0  0  0  0  0  0  0  0  0  0
  126.4020  130.3910   57.7040 C   0  0  0  0  0  0  0  0  0  0  0  0
  125.2840  129.9450   57.4380 O   0  0  0  0  0  0  0  0  0  0  0  0
  127.4430  130.5930   56.5930 C   0  0  0  0  0  0  0  0  0  0  0  0
  128.4810  132.0890   56.7510 S   0  0  0  0  0  0  0  0  0  0  0  0
  129.9070  131.7180   57.7640 C   0  0  0  0  0  0  0  0  0  0  0  0
  129.6620  131.5640   59.0910 N   0  0  0  0  0  0  0  0  0  0  0  0
  130.6940  131.2920   59.9180 C   0  0  0  0  0  0  0  0  0  0  0  0
  130.3410  131.1510   61.3860 C   0  0  0  0  0  0  0  0  0  0  0  0
  132.0040  131.1530   59.4650 C   0  0  0  0  0  0  0  0  0  0  0  0
  132.2800  131.3000   58.0990 C   0  0  0  0  0  0  0  0  0  0  0  0
  133.7340  131.1420   57.6130 C   0  0  0  0  0  0  0  0  0  0  0  0
  134.5580  131.0580   58.6580 F   0  0  0  0  0  0  0  0  0  0  0  0
  133.8530  130.0360   56.8770 F   0  0  0  0  0  0  0  0  0  0  0  0
  134.1410  132.1690   56.8620 F   0  0  0  0  0  0  0  0  0  0  0  0
  131.2070  131.5910   57.2190 C   0  0  0  0  0  0  0  0  0  0  0  0
  131.4380  131.7580   55.7800 C   0  0  0  0  0  0  0  0  0  0  0  0
  131.6200  131.8890   54.6440 N   0  0  0  0  0  0  0  0  0  0  0  0
  126.8010  130.1500   61.2630 C   0  0  0  0  0  0  0  0  0  0  0  0
  126.1780  130.0810   62.5050 C   0  0  0  0  0  0  0  0  0  0  0  0
  124.3142  130.3559   65.9112 H   0  0  0  0  0  0  0  0  0  0  0  0
  124.6473  128.8448   64.9989 H   0  0  0  0  0  0  0  0  0  0  0  0
  125.8513  130.1779   64.9989 H   0  0  0  0  0  0  0  0  0  0  0  0
  123.1456  131.4034   61.6709 H   0  0  0  0  0  0  0  0  0  0  0  0
  124.2592  131.5383   59.4508 H   0  0  0  0  0  0  0  0  0  0  0  0
  127.8040  130.9450   59.0410 H   0  0  0  0  0  0  0  0  0  0  0  0
  128.1087  129.7173   56.5889 H   0  0  0  0  0  0  0  0  0  0  0  0
  126.8709  130.7190   55.6620 H   0  0  0  0  0  0  0  0  0  0  0  0
  131.1880  131.4893   62.0009 H   0  0  0  0  0  0  0  0  0  0  0  0
  129.4563  131.7648   61.6110 H   0  0  0  0  0  0  0  0  0  0  0  0
  130.1226  130.0966   61.6110 H   0  0  0  0  0  0  0  0  0  0  0  0
  132.8151  130.9297   60.1737 H   0  0  0  0  0  0  0  0  0  0  0  0
  127.8392  129.8041   61.1514 H   0  0  0  0  0  0  0  0  0  0  0  0
  126.7237  129.6743   63.3691 H   0  0  0  0  0  0  0  0  0  0  0  0
  1  2  1  0
  2  3  1  0
  3  4  2  0
  4  5  1  0
  5  6  2  0
  6  7  1  0
  7  8  1  0
  8  9  2  0
  8 10  1  0
 10 11  1  0
 11 12  1  0
 12 13  2  0
 13 14  1  0
 14 15  1  0
 14 16  2  0
 16 17  1  0
 17 18  1  0
 18 19  1  0
 18 20  1  0
 18 21  1  0
 17 22  2  0
 22 23  1  0
 23 24  3  0
  6 25  1  0
 25 26  2  0
 26  3  1  0
 22 12  1  0
  1 27  1  0
  1 28  1  0
  1 29  1  0
  4 30  1  0
  5 31  1  0
  7 32  1  0
 10 33  1  0
 10 34  1  0
 15 35  1  0
 15 36  1  0
 15 37  1  0
 16 38  1  0
 25 39  1  0
 26 40  1  0
M  END
>  <Binding energies>  (1) 
[-6.18]

>  <Ligand effiencies>  (1) 
[-0.2288888888888889]

>  <Interactions>  (1) 
["V-A:ILE:538:CG2:4861, V-A:PRO:540:CD:4885, V-B:ASP:366:CG:8185, V-A:PRO:540:N:4882, V-A:ILE:538:CB:4860, V-A:TYR:531:CZ:4792, V-A:ASP:366:CG:3211, H-A:TYR:531:OH:4793, V-A:ASP:366:CB:3210, V-A:TYR:539:CE2:4874, V-A:TYR:539:CZ:4875, V-A:PRO:540:CA:4881, V-A:GLU:543:CD:4906, V-B:ARG:545:CZ:9898, H-B:GLY:454:N:9022, V-A:PRO:540:CB:4883, V-A:LEU:363:CD1:3187, V-A:TYR:539:C:4865, V-A:TYR:539:CE1:4873, H-B:TYR:484:OH:9320, V-A:TYR:531:CE2:4791, H-A:TYR:539:OH:4876, V-B:ARG:545:CD:9895, V-A:LEU:363:CB:3185, V-A:LEU:363:CA:3183, V-A:ASN:362:C:3170, V-A:PRO:540:CG:4884, V-A:LEU:363:CG:3186, V-A:LEU:363:C:3181"]

$$$$
2d_Ghoteimi_2023
     RDKit          3D

 68 72  0  0  0  0  0  0  0  0999 V2000
  132.7500  124.5740   58.1270 C   0  0  0  0  0  0  0  0  0  0  0  0
  133.2400  123.2830   58.4590 O   0  0  0  0  0  0  0  0  0  0  0  0
  133.5910  122.9890   59.7280 C   0  0  0  0  0  0  0  0  0  0  0  0
  133.2030  122.0090   60.3700 O   0  0  0  0  0  0  0  0  0  0  0  0
  134.5610  124.0370   60.2960 C   0  0  0  0  0  0  0  0  0  0  0  0
  134.5640  124.0130   62.1210 S   0  0  0  0  0  0  0  0  0  0  0  0
  132.9580  124.5310   62.6910 C   0  0  0  0  0  0  0  0  0  0  0  0
  131.9860  124.3830   61.7580 N   0  0  0  0  0  0  0  0  0  0  0  0
  130.7120  124.7450   62.0540 C   0  0  0  0  0  0  0  0  0  0  0  0
  129.6980  124.5690   60.9700 C   0  0  0  0  0  0  0  0  0  0  0  0
  129.3110  125.6530   60.1740 C   0  0  0  0  0  0  0  0  0  0  0  0
  128.3670  125.4960   59.1620 C   0  0  0  0  0  0  0  0  0  0  0  0
  127.7840  124.2470   58.9030 C   0  0  0  0  0  0  0  0  0  0  0  0
  126.8200  124.0760   57.9020 N   0  0  0  0  0  0  0  0  0  0  0  0
  127.0680  123.2120   56.7310 C   0  0  0  0  0  0  0  0  0  0  0  0
  126.0720  123.4370   55.5750 C   0  0  0  0  0  0  0  0  0  0  0  0
  124.7420  123.2820   56.0450 O   0  0  0  0  0  0  0  0  0  0  0  0
  124.4380  124.2160   57.0680 C   0  0  0  0  0  0  0  0  0  0  0  0
  125.3900  124.0190   58.2670 C   0  0  0  0  0  0  0  0  0  0  0  0
  128.1640  123.1670   59.7120 C   0  0  0  0  0  0  0  0  0  0  0  0
  129.1060  123.3240   60.7250 C   0  0  0  0  0  0  0  0  0  0  0  0
  130.3830  125.2650   63.3080 C   0  0  0  0  0  0  0  0  0  0  0  0
  131.3620  125.3970   64.3010 C   0  0  0  0  0  0  0  0  0  0  0  0
  130.9320  125.9350   65.6270 C   0  0  0  0  0  0  0  0  0  0  0  0
  129.7660  125.4620   66.2310 C   0  0  0  0  0  0  0  0  0  0  0  0
  129.3630  125.9470   67.4720 C   0  0  0  0  0  0  0  0  0  0  0  0
  130.1170  126.9240   68.1440 C   0  0  0  0  0  0  0  0  0  0  0  0
  129.7380  127.4160   69.3960 N   0  0  0  0  0  0  0  0  0  0  0  0
  130.5080  127.0930   70.6140 C   0  0  0  0  0  0  0  0  0  0  0  0
  130.1630  127.9980   71.8160 C   0  0  0  0  0  0  0  0  0  0  0  0
  128.7680  127.9560   72.0720 O   0  0  0  0  0  0  0  0  0  0  0  0
  128.0160  128.4030   70.9540 C   0  0  0  0  0  0  0  0  0  0  0  0
  128.3040  127.5060   69.7310 C   0  0  0  0  0  0  0  0  0  0  0  0
  131.2950  127.3790   67.5370 C   0  0  0  0  0  0  0  0  0  0  0  0
  131.6980  126.8930   66.2970 C   0  0  0  0  0  0  0  0  0  0  0  0
  132.6910  125.0160   63.9920 C   0  0  0  0  0  0  0  0  0  0  0  0
  133.7480  125.1170   65.0040 C   0  0  0  0  0  0  0  0  0  0  0  0
  134.5790  125.1990   65.8060 N   0  0  0  0  0  0  0  0  0  0  0  0
  132.5375  125.1340   59.0496 H   0  0  0  0  0  0  0  0  0  0  0  0
  133.5062  125.1127   57.5371 H   0  0  0  0  0  0  0  0  0  0  0  0
  131.8268  124.4753   57.5371 H   0  0  0  0  0  0  0  0  0  0  0  0
  135.5764  123.8203   59.9326 H   0  0  0  0  0  0  0  0  0  0  0  0
  134.2335  125.0323   59.9613 H   0  0  0  0  0  0  0  0  0  0  0  0
  129.7584  126.6424   60.3499 H   0  0  0  0  0  0  0  0  0  0  0  0
  128.0739  126.3659   58.5559 H   0  0  0  0  0  0  0  0  0  0  0  0
  128.0835  123.4134   56.3592 H   0  0  0  0  0  0  0  0  0  0  0  0
  126.9435  122.1716   57.0659 H   0  0  0  0  0  0  0  0  0  0  0  0
  126.2012  124.4536   55.1752 H   0  0  0  0  0  0  0  0  0  0  0  0
  126.2642  122.6982   54.7830 H   0  0  0  0  0  0  0  0  0  0  0  0
  124.5546  125.2367   56.6749 H   0  0  0  0  0  0  0  0  0  0  0  0
  123.4017  124.0592   57.4019 H   0  0  0  0  0  0  0  0  0  0  0  0
  125.1877  124.8091   59.0052 H   0  0  0  0  0  0  0  0  0  0  0  0
  125.1993  123.0128   58.6684 H   0  0  0  0  0  0  0  0  0  0  0  0
  127.7104  122.1791   59.5436 H   0  0  0  0  0  0  0  0  0  0  0  0
  129.3891  122.4580   61.3414 H   0  0  0  0  0  0  0  0  0  0  0  0
  129.3479  125.5730   63.5171 H   0  0  0  0  0  0  0  0  0  0  0  0
  129.1597  124.6986   65.7215 H   0  0  0  0  0  0  0  0  0  0  0  0
  128.4420  125.5603   67.9328 H   0  0  0  0  0  0  0  0  0  0  0  0
  130.2990  126.0494   70.8920 H   0  0  0  0  0  0  0  0  0  0  0  0
  131.5702  127.2562   70.3792 H   0  0  0  0  0  0  0  0  0  0  0  0
  130.7070  127.6458   72.7048 H   0  0  0  0  0  0  0  0  0  0  0  0
  130.4560  129.0326   71.5841 H   0  0  0  0  0  0  0  0  0  0  0  0
  126.9436  128.3575   71.1946 H   0  0  0  0  0  0  0  0  0  0  0  0
  128.3017  129.4386   70.7175 H   0  0  0  0  0  0  0  0  0  0  0  0
  127.9317  126.4934   69.9457 H   0  0  0  0  0  0  0  0  0  0  0  0
  127.7964  127.9608   68.8676 H   0  0  0  0  0  0  0  0  0  0  0  0
  131.9113  128.1327   68.0490 H   0  0  0  0  0  0  0  0  0  0  0  0
  132.6268  127.2657   65.8405 H   0  0  0  0  0  0  0  0  0  0  0  0
  1  2  1  0
  2  3  1  0
  3  4  2  0
  3  5  1  0
  5  6  1  0
  6  7  1  0
  7  8  2  0
  8  9  1  0
  9 10  1  0
 10 11  2  0
 11 12  1  0
 12 13  2  0
 13 14  1  0
 14 15  1  0
 15 16  1  0
 16 17  1  0
 17 18  1  0
 18 19  1  0
 13 20  1  0
 20 21  2  0
  9 22  2  0
 22 23  1  0
 23 24  1  0
 24 25  2  0
 25 26  1  0
 26 27  2  0
 27 28  1  0
 28 29  1  0
 29 30  1  0
 30 31  1  0
 31 32  1  0
 32 33  1  0
 27 34  1  0
 34 35  2  0
 23 36  2  0
 36 37  1  0
 37 38  3  0
 36  7  1  0
 21 10  1  0
 35 24  1  0
 19 14  1  0
 33 28  1  0
  1 39  1  0
  1 40  1  0
  1 41  1  0
  5 42  1  0
  5 43  1  0
 11 44  1  0
 12 45  1  0
 15 46  1  0
 15 47  1  0
 16 48  1  0
 16 49  1  0
 18 50  1  0
 18 51  1  0
 19 52  1  0
 19 53  1  0
 20 54  1  0
 21 55  1  0
 22 56  1  0
 25 57  1  0
 26 58  1  0
 29 59  1  0
 29 60  1  0
 30 61  1  0
 30 62  1  0
 32 63  1  0
 32 64  1  0
 33 65  1  0
 33 66  1  0
 34 67  1  0
 35 68  1  0
M  END
>  <Binding energies>  (1) 
[-6.62]

>  <Ligand effiencies>  (1) 
[-0.17421052631578948]

>  <Interactions>  (1) 
["H-B:TYR:531:OH:9767, V-B:PRO:540:CA:9855, V-A:ILE:369:CG2:3235, V-A:ILE:369:CD1:3237, V-B:TYR:539:CE2:9848, V-B:PRO:540:N:9856, V-B:ILE:538:CB:9834, V-A:ASP:366:CG:3211, V-B:TYR:531:CE2:9765, V-B:PRO:540:CB:9857, V-A:ASP:366:CB:3210, V-B:ILE:538:CG2:9835, V-B:TYR:539:CZ:9849, V-A:GLU:543:CD:4906, V-B:ILE:538:CA:9832, V-A:HIS:456:CE1:4068, H-A:ARG:545:NE:4922, H-A:TYR:484:OH:4346, V-B:TYR:539:C:9839, H-A:GLY:454:N:4048, V-B:TYR:531:CZ:9766, V-B:GLU:543:CD:9880, V-A:ARG:545:CZ:4924, V-B:GLU:543:CB:9878, V-B:GLU:543:CG:9879, V-A:GLU:543:CG:4905, V-B:HIS:456:CE1:9042, H-B:TYR:539:OH:9850, V-A:ILE:369:CB:3234, V-A:LYS:547:CE:4948, V-B:HIS:456:CG:9038, V-A:GLY:544:C:4910, V-A:GLU:543:C:4900, V-A:HIS:456:CD2:4066, V-B:HIS:456:CD2:9040, V-B:GLU:543:C:9874, V-A:GLY:544:CA:4912, V-B:GLU:543:CA:9876, V-A:ARG:545:CD:4921, V-A:ARG:545:CG:4920, V-A:GLY:454:CA:4047, V-A:ASP:366:CA:3208, V-A:ILE:369:CG1:3236, V-A:GLY:453:C:4040, V-A:GLY:453:CA:4042, H-A:ILE:455:N:4053"]

$$$$
2d_Grossjean_2025
     RDKit          3D

 36 37  0  0  0  0  0  0  0  0999 V2000
  129.3870  122.1440   73.2880 C   0  0  0  0  0  0  0  0  0  0  0  0
  130.4170  123.2300   73.5370 C   0  0  0  0  0  0  0  0  0  0  0  0
  131.5400  123.0020   74.3290 C   0  0  0  0  0  0  0  0  0  0  0  0
  132.4660  124.0360   74.5260 C   0  0  0  0  0  0  0  0  0  0  0  0
  133.7070  123.7630   75.3970 C   0  0  0  0  0  0  0  0  0  0  0  0
  134.7560  124.4360   74.9220 F   0  0  0  0  0  0  0  0  0  0  0  0
  133.4790  124.1500   76.6540 F   0  0  0  0  0  0  0  0  0  0  0  0
  134.0410  122.4710   75.4300 F   0  0  0  0  0  0  0  0  0  0  0  0
  132.2210  125.2920   73.9130 C   0  0  0  0  0  0  0  0  0  0  0  0
  133.1810  126.3900   74.0500 C   0  0  0  0  0  0  0  0  0  0  0  0
  133.9410  127.2560   74.1580 N   0  0  0  0  0  0  0  0  0  0  0  0
  131.0410  125.4390   73.1460 C   0  0  0  0  0  0  0  0  0  0  0  0
  130.5630  126.9530   72.3350 S   0  0  0  0  0  0  0  0  0  0  0  0
  128.7450  127.0040   72.2150 C   0  0  0  0  0  0  0  0  0  0  0  0
  128.1370  128.2500   72.8670 C   0  0  0  0  0  0  0  0  0  0  0  0
  128.7310  129.3250   72.7730 O   0  0  0  0  0  0  0  0  0  0  0  0
  126.9810  128.0540   73.5350 N   0  0  0  0  0  0  0  0  0  0  0  0
  126.1850  128.9860   74.2270 C   0  0  0  0  0  0  0  0  0  0  0  0
  126.8220  130.1670   74.6150 C   0  0  0  0  0  0  0  0  0  0  0  0
  126.1200  131.1480   75.3090 C   0  0  0  0  0  0  0  0  0  0  0  0
  124.7790  130.9430   75.6250 C   0  0  0  0  0  0  0  0  0  0  0  0
  124.1360  129.7640   75.2550 C   0  0  0  0  0  0  0  0  0  0  0  0
  124.8350  128.7820   74.5600 C   0  0  0  0  0  0  0  0  0  0  0  0
  130.1670  124.4220   72.9490 N   0  0  0  0  0  0  0  0  0  0  0  0
  129.0210  121.7581   74.2509 H   0  0  0  0  0  0  0  0  0  0  0  0
  128.5450  122.5614   72.7163 H   0  0  0  0  0  0  0  0  0  0  0  0
  129.8483  121.3252   72.7163 H   0  0  0  0  0  0  0  0  0  0  0  0
  131.6989  122.0188   74.7960 H   0  0  0  0  0  0  0  0  0  0  0  0
  128.4634  126.9919   71.1517 H   0  0  0  0  0  0  0  0  0  0  0  0
  128.3549  126.1274   72.7530 H   0  0  0  0  0  0  0  0  0  0  0  0
  126.6590  127.0990   73.6020 H   0  0  0  0  0  0  0  0  0  0  0  0
  127.8833  130.3224   74.3709 H   0  0  0  0  0  0  0  0  0  0  0  0
  126.6217  132.0806   75.6065 H   0  0  0  0  0  0  0  0  0  0  0  0
  124.2229  131.7189   76.1715 H   0  0  0  0  0  0  0  0  0  0  0  0
  123.0776  129.6096   75.5118 H   0  0  0  0  0  0  0  0  0  0  0  0
  124.3317  127.8474   74.2716 H   0  0  0  0  0  0  0  0  0  0  0  0
  1  2  1  0
  2  3  2  0
  3  4  1  0
  4  5  1  0
  5  6  1  0
  5  7  1  0
  5  8  1  0
  4  9  2  0
  9 10  1  0
 10 11  3  0
  9 12  1  0
 12 13  1  0
 13 14  1  0
 14 15  1  0
 15 16  2  0
 15 17  1  0
 17 18  1  0
 18 19  2  0
 19 20  1  0
 20 21  2  0
 21 22  1  0
 22 23  2  0
 12 24  2  0
 24  2  1  0
 23 18  1  0
  1 25  1  0
  1 26  1  0
  1 27  1  0
  3 28  1  0
 14 29  1  0
 14 30  1  0
 17 31  1  0
 19 32  1  0
 20 33  1  0
 21 34  1  0
 22 35  1  0
 23 36  1  0
M  END
>  <Binding energies>  (1) 
[-7.92]

>  <Ligand effiencies>  (1) 
[-0.31679999999999997]

>  <Interactions>  (1) 
["V-B:GLY:544:C:9884, V-B:HIS:456:CG:9038, V-B:LYS:547:CE:9922, V-A:HIS:456:CD2:4066, V-B:HIS:456:CD2:9040, V-A:HIS:456:CG:4064, H-B:GLY:544:O:9885, H-B:LYS:547:NZ:9923, H-A:LYS:547:NZ:4949, V-A:ASP:473:CG:4238, V-A:HIS:456:C:4059, V-B:VAL:458:CG2:9059, V-B:VAL:457:C:9045, V-B:HIS:456:CB:9037, V-A:LYS:471:CD:4217, V-A:HIS:456:CB:4063, V-B:HIS:456:CA:9035, V-B:HIS:456:C:9033, V-A:VAL:458:CG2:4085, V-A:LYS:471:CE:4218, V-A:LYS:547:CD:4947, V-A:VAL:457:C:4071, V-B:LYS:471:CE:9192, V-B:LYS:471:CD:9191, V-B:LYS:471:CG:9190, V-B:ASP:473:CG:9212, V-B:VAL:457:CA:9047, V-A:VAL:457:CA:4073, V-A:HIS:456:CA:4061, V-A:LYS:471:CG:4216, V-A:ASP:473:CB:4237, V-A:LYS:471:CB:4215"]

$$$$
2e_Grossjean_2025
     RDKit          3D

 38 39  0  0  0  0  0  0  0  0999 V2000
  130.6770  126.6310   72.1910 C   0  0  0  0  0  0  0  0  0  0  0  0
  131.3690  125.6760   73.1450 C   0  0  0  0  0  0  0  0  0  0  0  0
  132.6040  125.9840   73.7210 C   0  0  0  0  0  0  0  0  0  0  0  0
  133.1760  125.0620   74.5990 C   0  0  0  0  0  0  0  0  0  0  0  0
  132.5070  123.8670   74.8770 C   0  0  0  0  0  0  0  0  0  0  0  0
  131.2760  123.6180   74.2580 C   0  0  0  0  0  0  0  0  0  0  0  0
  130.6270  122.4220   74.6070 N   0  0  0  0  0  0  0  0  0  0  0  0
  129.4110  121.9860   74.2070 C   0  0  0  0  0  0  0  0  0  0  0  0
  128.6900  122.5580   73.3880 O   0  0  0  0  0  0  0  0  0  0  0  0
  128.9090  120.7030   74.8770 C   0  0  0  0  0  0  0  0  0  0  0  0
  127.2860  120.9370   75.6700 S   0  0  0  0  0  0  0  0  0  0  0  0
  126.0850  120.6000   74.4010 C   0  0  0  0  0  0  0  0  0  0  0  0
  126.5920  120.5370   73.1450 N   0  0  0  0  0  0  0  0  0  0  0  0
  125.7410  120.3290   72.1150 C   0  0  0  0  0  0  0  0  0  0  0  0
  126.3740  120.2690   70.7390 C   0  0  0  0  0  0  0  0  0  0  0  0
  124.3660  120.1840   72.2930 C   0  0  0  0  0  0  0  0  0  0  0  0
  123.8240  120.2560   73.5850 C   0  0  0  0  0  0  0  0  0  0  0  0
  122.3010  120.1160   73.7620 C   0  0  0  0  0  0  0  0  0  0  0  0
  121.6810  120.3530   72.6060 F   0  0  0  0  0  0  0  0  0  0  0  0
  122.0020  118.8820   74.1680 F   0  0  0  0  0  0  0  0  0  0  0  0
  121.8070  120.9670   74.6640 F   0  0  0  0  0  0  0  0  0  0  0  0
  124.7040  120.4680   74.6750 C   0  0  0  0  0  0  0  0  0  0  0  0
  124.1970  120.5830   76.0470 C   0  0  0  0  0  0  0  0  0  0  0  0
  123.7970  120.6740   77.1290 N   0  0  0  0  0  0  0  0  0  0  0  0
  130.7070  124.5190   73.4050 N   0  0  0  0  0  0  0  0  0  0  0  0
  130.1270  127.3900   72.7667 H   0  0  0  0  0  0  0  0  0  0  0  0
  131.4284  127.1248   71.5572 H   0  0  0  0  0  0  0  0  0  0  0  0
  129.9738  126.0708   71.5572 H   0  0  0  0  0  0  0  0  0  0  0  0
  133.1135  126.9307   73.4881 H   0  0  0  0  0  0  0  0  0  0  0  0
  134.1474  125.2747   75.0692 H   0  0  0  0  0  0  0  0  0  0  0  0
  132.9410  123.1329   75.5718 H   0  0  0  0  0  0  0  0  0  0  0  0
  131.1600  121.8040   75.2000 H   0  0  0  0  0  0  0  0  0  0  0  0
  128.8213  119.9151   74.1144 H   0  0  0  0  0  0  0  0  0  0  0  0
  129.6313  120.4226   75.6578 H   0  0  0  0  0  0  0  0  0  0  0  0
  127.4644  120.1656   70.8412 H   0  0  0  0  0  0  0  0  0  0  0  0
  125.9737  119.4048   70.1886 H   0  0  0  0  0  0  0  0  0  0  0  0
  126.1433  121.1930   70.1886 H   0  0  0  0  0  0  0  0  0  0  0  0
  123.7104  120.0143   71.4262 H   0  0  0  0  0  0  0  0  0  0  0  0
  1  2  1  0
  2  3  2  0
  3  4  1  0
  4  5  2  0
  5  6  1  0
  6  7  1  0
  7  8  1  0
  8  9  2  0
  8 10  1  0
 10 11  1  0
 11 12  1  0
 12 13  2  0
 13 14  1  0
 14 15  1  0
 14 16  2  0
 16 17  1  0
 17 18  1  0
 18 19  1  0
 18 20  1  0
 18 21  1  0
 17 22  2  0
 22 23  1  0
 23 24  3  0
  6 25  2  0
 25  2  1  0
 22 12  1  0
  1 26  1  0
  1 27  1  0
  1 28  1  0
  3 29  1  0
  4 30  1  0
  5 31  1  0
  7 32  1  0
 10 33  1  0
 10 34  1  0
 15 35  1  0
 15 36  1  0
 15 37  1  0
 16 38  1  0
M  END
>  <Binding energies>  (1) 
[-7.12]

>  <Ligand effiencies>  (1) 
[-0.27384615384615385]

>  <Interactions>  (1) 
["V-A:GLY:544:C:4910, V-B:LYS:547:CE:9922, V-A:HIS:456:CD2:4066, V-B:GLU:543:C:9874, V-A:HIS:456:CG:4064, H-B:LYS:547:NZ:9923, V-B:GLY:544:CA:9886, V-B:GLU:543:CA:9876, V-A:ASP:473:CG:4238, V-A:HIS:456:C:4059, V-A:HIS:456:CB:4063, V-A:VAL:458:CG2:4085, V-A:LYS:471:CE:4218, V-B:LYS:547:CA:9917, V-B:PHE:548:CE2:9937, V-B:VAL:542:CG1:9871, V-B:PHE:548:CD2:9935, V-B:LYS:547:C:9915, H-B:PHE:548:N:9931, V-B:ARG:356:CB:8089, V-B:LYS:547:CG:9920, V-B:VAL:542:C:9866, V-B:LYS:547:CB:9919, H-A:ASP:473:OD2:4240, V-B:GLU:357:CB:8106, V-B:ILE:546:C:9906"]

$$$$
2f_Grossjean_2025
     RDKit          3D

 35 36  0  0  0  0  0  0  0  0999 V2000
  129.2510  122.1290   73.4590 C   0  0  0  0  0  0  0  0  0  0  0  0
  130.3200  123.1910   73.6310 C   0  0  0  0  0  0  0  0  0  0  0  0
  131.4640  122.9590   74.3900 C   0  0  0  0  0  0  0  0  0  0  0  0
  132.4210  123.9770   74.5260 C   0  0  0  0  0  0  0  0  0  0  0  0
  133.6740  123.7050   75.3800 C   0  0  0  0  0  0  0  0  0  0  0  0
  133.9880  122.4090   75.3330 F   0  0  0  0  0  0  0  0  0  0  0  0
  134.7030  124.4160   74.9170 F   0  0  0  0  0  0  0  0  0  0  0  0
  133.5060  124.0300   76.6640 F   0  0  0  0  0  0  0  0  0  0  0  0
  132.1900  125.2160   73.8740 C   0  0  0  0  0  0  0  0  0  0  0  0
  133.1310  126.3280   74.0320 C   0  0  0  0  0  0  0  0  0  0  0  0
  133.8750  127.2060   74.1560 N   0  0  0  0  0  0  0  0  0  0  0  0
  131.0110  125.3520   73.1020 C   0  0  0  0  0  0  0  0  0  0  0  0
  130.5680  126.8280   72.2080 S   0  0  0  0  0  0  0  0  0  0  0  0
  128.7490  126.9820   72.2360 C   0  0  0  0  0  0  0  0  0  0  0  0
  128.2120  128.2370   72.9380 C   0  0  0  0  0  0  0  0  0  0  0  0
  128.8650  129.2820   72.9430 O   0  0  0  0  0  0  0  0  0  0  0  0
  127.0140  128.0730   73.5390 N   0  0  0  0  0  0  0  0  0  0  0  0
  126.2370  129.0040   74.2540 C   0  0  0  0  0  0  0  0  0  0  0  0
  126.6640  130.2810   74.6630 C   0  0  0  0  0  0  0  0  0  0  0  0
  125.7880  131.1110   75.3650 C   0  0  0  0  0  0  0  0  0  0  0  0
  124.5020  130.6450   75.6380 C   0  0  0  0  0  0  0  0  0  0  0  0
  124.0620  129.4220   75.2480 N   0  0  0  0  0  0  0  0  0  0  0  0
  124.9260  128.6270   74.5660 C   0  0  0  0  0  0  0  0  0  0  0  0
  130.0880  124.3650   73.0010 N   0  0  0  0  0  0  0  0  0  0  0  0
  128.9091  121.7894   74.4478 H   0  0  0  0  0  0  0  0  0  0  0  0
  128.4013  122.5509   72.9022 H   0  0  0  0  0  0  0  0  0  0  0  0
  129.6673  121.2765   72.9022 H   0  0  0  0  0  0  0  0  0  0  0  0
  131.6167  121.9857   74.8792 H   0  0  0  0  0  0  0  0  0  0  0  0
  128.3921  126.9946   71.1956 H   0  0  0  0  0  0  0  0  0  0  0  0
  128.3781  126.1243   72.8163 H   0  0  0  0  0  0  0  0  0  0  0  0
  126.6210  127.1430   73.5060 H   0  0  0  0  0  0  0  0  0  0  0  0
  127.6831  130.6236   74.4307 H   0  0  0  0  0  0  0  0  0  0  0  0
  126.1052  132.1110   75.6957 H   0  0  0  0  0  0  0  0  0  0  0  0
  123.8136  131.2981   76.1944 H   0  0  0  0  0  0  0  0  0  0  0  0
  124.5774  127.6353   74.2420 H   0  0  0  0  0  0  0  0  0  0  0  0
  1  2  1  0
  2  3  2  0
  3  4  1  0
  4  5  1  0
  5  6  1  0
  5  7  1  0
  5  8  1  0
  4  9  2  0
  9 10  1  0
 10 11  3  0
  9 12  1  0
 12 13  1  0
 13 14  1  0
 14 15  1  0
 15 16  2  0
 15 17  1  0
 17 18  1  0
 18 19  2  0
 19 20  1  0
 20 21  2  0
 21 22  1  0
 22 23  2  0
 12 24  2  0
 24  2  1  0
 23 18  1  0
  1 25  1  0
  1 26  1  0
  1 27  1  0
  3 28  1  0
 14 29  1  0
 14 30  1  0
 17 31  1  0
 19 32  1  0
 20 33  1  0
 21 34  1  0
 23 35  1  0
M  END
>  <Binding energies>  (1) 
[-7.58]

>  <Ligand effiencies>  (1) 
[-0.3032]

>  <Interactions>  (1) 
["V-B:GLY:544:C:9884, V-A:LYS:547:CE:4948, V-B:HIS:456:CG:9038, V-B:LYS:547:CE:9922, V-A:HIS:456:CD2:4066, V-B:HIS:456:CD2:9040, V-A:HIS:456:CG:4064, H-B:GLY:544:O:9885, H-B:LYS:547:NZ:9923, H-A:LYS:547:NZ:4949, V-B:GLY:544:CA:9886, V-A:ASP:473:CG:4238, V-A:HIS:456:C:4059, V-B:VAL:458:CG2:9059, V-B:HIS:456:CB:9037, V-A:LYS:471:CD:4217, V-A:HIS:456:CB:4063, V-B:HIS:456:CA:9035, V-B:HIS:456:C:9033, V-A:VAL:458:CG2:4085, V-A:LYS:471:CE:4218, V-A:LYS:547:CD:4947, V-A:VAL:457:C:4071, V-B:LYS:471:CE:9192, V-B:LYS:471:CD:9191, V-B:LYS:471:CG:9190, V-B:ASP:473:CG:9212, V-A:VAL:457:CA:4073, V-A:HIS:456:CA:4061, V-A:LYS:471:CG:4216, H-B:VAL:458:N:9056, H-B:VAL:457:N:9048, V-A:ASP:473:CB:4237, V-A:LYS:471:CB:4215"]

$$$$
2g_Grossjean_2025
     RDKit          3D

 39 40  0  0  0  0  0  0  0  0999 V2000
  123.7300  122.9860   55.7590 C   0  0  0  0  0  0  0  0  0  0  0  0
  124.9030  123.2980   56.6680 C   0  0  0  0  0  0  0  0  0  0  0  0
  124.7180  123.6570   58.0010 C   0  0  0  0  0  0  0  0  0  0  0  0
  125.8360  123.9430   58.7990 C   0  0  0  0  0  0  0  0  0  0  0  0
  125.6110  124.3480   60.2700 C   0  0  0  0  0  0  0  0  0  0  0  0
  126.0150  125.6030   60.4710 F   0  0  0  0  0  0  0  0  0  0  0  0
  124.3140  124.2580   60.5700 F   0  0  0  0  0  0  0  0  0  0  0  0
  126.2780  123.5720   61.1270 F   0  0  0  0  0  0  0  0  0  0  0  0
  127.1270  123.8480   58.2200 C   0  0  0  0  0  0  0  0  0  0  0  0
  128.3230  124.1910   58.9930 C   0  0  0  0  0  0  0  0  0  0  0  0
  129.2670  124.4620   59.6050 N   0  0  0  0  0  0  0  0  0  0  0  0
  127.2190  123.4450   56.8650 C   0  0  0  0  0  0  0  0  0  0  0  0
  128.7570  123.2510   55.9900 S   0  0  0  0  0  0  0  0  0  0  0  0
  129.1910  124.8740   55.2770 C   0  0  0  0  0  0  0  0  0  0  0  0
  130.5250  125.4550   55.7680 C   0  0  0  0  0  0  0  0  0  0  0  0
  131.2710  126.0780   55.0110 O   0  0  0  0  0  0  0  0  0  0  0  0
  130.8110  125.2280   57.0630 N   0  0  0  0  0  0  0  0  0  0  0  0
  132.0140  125.6870   57.7600 C   0  0  0  0  0  0  0  0  0  0  0  0
  132.4490  124.7950   58.9180 C   0  0  0  0  0  0  0  0  0  0  0  0
  132.1020  125.1380   60.2280 C   0  0  0  0  0  0  0  0  0  0  0  0
  132.4650  124.3060   61.2840 C   0  0  0  0  0  0  0  0  0  0  0  0
  133.1640  123.1290   61.0260 C   0  0  0  0  0  0  0  0  0  0  0  0
  133.5010  122.7750   59.7210 C   0  0  0  0  0  0  0  0  0  0  0  0
  133.1380  123.6060   58.6650 C   0  0  0  0  0  0  0  0  0  0  0  0
  126.1270  123.1950   56.1020 N   0  0  0  0  0  0  0  0  0  0  0  0
  122.8456  122.7508   56.3693 H   0  0  0  0  0  0  0  0  0  0  0  0
  123.5159  123.8584   55.1241 H   0  0  0  0  0  0  0  0  0  0  0  0
  123.9776  122.1225   55.1241 H   0  0  0  0  0  0  0  0  0  0  0  0
  123.7044  123.7158   58.4243 H   0  0  0  0  0  0  0  0  0  0  0  0
  129.2469  124.7641   54.1839 H   0  0  0  0  0  0  0  0  0  0  0  0
  128.4084  125.5753   55.6022 H   0  0  0  0  0  0  0  0  0  0  0  0
  130.1370  124.7290   57.6250 H   0  0  0  0  0  0  0  0  0  0  0  0
  132.8375  125.7321   57.0321 H   0  0  0  0  0  0  0  0  0  0  0  0
  131.7711  126.6685   58.1933 H   0  0  0  0  0  0  0  0  0  0  0  0
  131.5426  126.0645   60.4245 H   0  0  0  0  0  0  0  0  0  0  0  0
  132.2010  124.5769   62.3169 H   0  0  0  0  0  0  0  0  0  0  0  0
  133.4527  122.4728   61.8603 H   0  0  0  0  0  0  0  0  0  0  0  0
  134.0515  121.8428   59.5262 H   0  0  0  0  0  0  0  0  0  0  0  0
  133.3933  123.3269   57.6321 H   0  0  0  0  0  0  0  0  0  0  0  0
  1  2  1  0
  2  3  2  0
  3  4  1  0
  4  5  1  0
  5  6  1  0
  5  7  1  0
  5  8  1  0
  4  9  2  0
  9 10  1  0
 10 11  3  0
  9 12  1  0
 12 13  1  0
 13 14  1  0
 14 15  1  0
 15 16  2  0
 15 17  1  0
 17 18  1  0
 18 19  1  0
 19 20  2  0
 20 21  1  0
 21 22  2  0
 22 23  1  0
 23 24  2  0
 12 25  2  0
 25  2  1  0
 24 19  1  0
  1 26  1  0
  1 27  1  0
  1 28  1  0
  3 29  1  0
 14 30  1  0
 14 31  1  0
 17 32  1  0
 18 33  1  0
 18 34  1  0
 20 35  1  0
 21 36  1  0
 22 37  1  0
 23 38  1  0
 24 39  1  0
M  END
>  <Binding energies>  (1) 
[-6.56]

>  <Ligand effiencies>  (1) 
[-0.2523076923076923]

>  <Interactions>  (1) 
["V-B:ASP:366:CG:8185, V-B:PRO:540:CA:9855, V-B:ASN:362:CB:8148, V-A:ILE:369:CG2:3235, V-A:ILE:369:CD1:3237, V-B:TYR:539:CE2:9848, V-B:PRO:540:N:9856, V-B:ILE:538:CB:9834, V-A:ASP:366:CG:3211, H-A:TYR:531:OH:4793, V-B:TYR:531:CE2:9765, V-B:PRO:540:CD:9859, V-B:PRO:540:CB:9857, V-A:ASP:366:CB:3210, V-B:ILE:538:CG2:9835, V-B:TYR:539:CZ:9849, V-B:TYR:539:CE1:9847, V-B:TYR:539:C:9839, V-B:LEU:363:CD1:8161, V-B:PRO:540:C:9853, H-B:TYR:539:OH:9850, V-A:ILE:369:CB:3234, H-B:TYR:539:N:9842, V-B:ILE:538:CD1:9837, V-B:ASN:362:C:8144"]

$$$$
2h_Grossjean_2025
     RDKit          3D

 51 52  0  0  0  0  0  0  0  0999 V2000
  127.9300  123.5330   55.0710 C   0  0  0  0  0  0  0  0  0  0  0  0
  127.0940  123.1910   56.1710 O   0  0  0  0  0  0  0  0  0  0  0  0
  127.6350  123.1300   57.4430 C   0  0  0  0  0  0  0  0  0  0  0  0
  129.0000  122.9270   57.7040 C   0  0  0  0  0  0  0  0  0  0  0  0
  129.4740  122.8860   59.0130 C   0  0  0  0  0  0  0  0  0  0  0  0
  128.5980  123.0460   60.0890 C   0  0  0  0  0  0  0  0  0  0  0  0
  129.1450  123.0180   61.5150 C   0  0  0  0  0  0  0  0  0  0  0  0
  130.6010  122.8920   61.5840 N   0  0  0  0  0  0  0  0  0  0  0  0
  131.3100  121.8660   61.0820 C   0  0  0  0  0  0  0  0  0  0  0  0
  130.7900  120.8700   60.5760 O   0  0  0  0  0  0  0  0  0  0  0  0
  132.8360  122.0100   61.1680 C   0  0  0  0  0  0  0  0  0  0  0  0
  133.4400  123.7230   61.3380 S   0  0  0  0  0  0  0  0  0  0  0  0
  132.3540  124.7500   60.3710 C   0  0  0  0  0  0  0  0  0  0  0  0
  131.4650  125.4550   61.1140 N   0  0  0  0  0  0  0  0  0  0  0  0
  130.5800  126.2540   60.4780 C   0  0  0  0  0  0  0  0  0  0  0  0
  129.6110  127.0060   61.3710 C   0  0  0  0  0  0  0  0  0  0  0  0
  130.5460  126.3860   59.0910 C   0  0  0  0  0  0  0  0  0  0  0  0
  131.4720  125.6800   58.3080 C   0  0  0  0  0  0  0  0  0  0  0  0
  131.4250  125.8470   56.7760 C   0  0  0  0  0  0  0  0  0  0  0  0
  132.6590  126.0120   56.2990 F   0  0  0  0  0  0  0  0  0  0  0  0
  130.8960  124.7890   56.1580 F   0  0  0  0  0  0  0  0  0  0  0  0
  130.6900  126.9110   56.4530 F   0  0  0  0  0  0  0  0  0  0  0  0
  132.4130  124.8430   58.9600 C   0  0  0  0  0  0  0  0  0  0  0  0
  133.4370  124.1310   58.1920 C   0  0  0  0  0  0  0  0  0  0  0  0
  134.2470  123.5720   57.5830 N   0  0  0  0  0  0  0  0  0  0  0  0
  127.2290  123.2260   59.8430 C   0  0  0  0  0  0  0  0  0  0  0  0
  126.3600  123.3820   60.8970 O   0  0  0  0  0  0  0  0  0  0  0  0
  126.1820  124.7290   61.3170 C   0  0  0  0  0  0  0  0  0  0  0  0
  126.7560  123.2870   58.5210 C   0  0  0  0  0  0  0  0  0  0  0  0
  125.4170  123.4820   58.2770 O   0  0  0  0  0  0  0  0  0  0  0  0
  125.1030  124.7630   57.7490 C   0  0  0  0  0  0  0  0  0  0  0  0
  128.8872  123.9246   55.4458 H   0  0  0  0  0  0  0  0  0  0  0  0
  128.1145  122.6381   54.4586 H   0  0  0  0  0  0  0  0  0  0  0  0
  127.4344  124.3006   54.4586 H   0  0  0  0  0  0  0  0  0  0  0  0
  129.7015  122.7991   56.8664 H   0  0  0  0  0  0  0  0  0  0  0  0
  130.5460  122.7264   59.2008 H   0  0  0  0  0  0  0  0  0  0  0  0
  128.8531  123.9520   62.0173 H   0  0  0  0  0  0  0  0  0  0  0  0
  128.7218  122.1283   62.0043 H   0  0  0  0  0  0  0  0  0  0  0  0
  131.0990  123.6890   61.9540 H   0  0  0  0  0  0  0  0  0  0  0  0
  133.1843  121.4372   62.0401 H   0  0  0  0  0  0  0  0  0  0  0  0
  133.2345  121.6367   60.2131 H   0  0  0  0  0  0  0  0  0  0  0  0
  129.8591  126.8135   62.4252 H   0  0  0  0  0  0  0  0  0  0  0  0
  129.6863  128.0844   61.1676 H   0  0  0  0  0  0  0  0  0  0  0  0
  128.5851  126.6653   61.1676 H   0  0  0  0  0  0  0  0  0  0  0  0
  129.7995  127.0382   58.6141 H   0  0  0  0  0  0  0  0  0  0  0  0
  126.1762  124.7726   62.4161 H   0  0  0  0  0  0  0  0  0  0  0  0
  127.0064  125.3458   60.9299 H   0  0  0  0  0  0  0  0  0  0  0  0
  125.2256  125.1105   60.9299 H   0  0  0  0  0  0  0  0  0  0  0  0
  124.9302  125.4680   58.5755 H   0  0  0  0  0  0  0  0  0  0  0  0
  125.9402  125.1203   57.1313 H   0  0  0  0  0  0  0  0  0  0  0  0
  124.1955  124.6926   57.1313 H   0  0  0  0  0  0  0  0  0  0  0  0
  1  2  1  0
  2  3  1  0
  3  4  2  0
  4  5  1  0
  5  6  2  0
  6  7  1  0
  7  8  1  0
  8  9  1  0
  9 10  2  0
  9 11  1  0
 11 12  1  0
 12 13  1  0
 13 14  2  0
 14 15  1  0
 15 16  1  0
 15 17  2  0
 17 18  1  0
 18 19  1  0
 19 20  1  0
 19 21  1  0
 19 22  1  0
 18 23  2  0
 23 24  1  0
 24 25  3  0
  6 26  1  0
 26 27  1  0
 27 28  1  0
 26 29  2  0
 29 30  1  0
 30 31  1  0
 29  3  1  0
 23 13  1  0
  1 32  1  0
  1 33  1  0
  1 34  1  0
  4 35  1  0
  5 36  1  0
  7 37  1  0
  7 38  1  0
  8 39  1  0
 11 40  1  0
 11 41  1  0
 16 42  1  0
 16 43  1  0
 16 44  1  0
 17 45  1  0
 28 46  1  0
 28 47  1  0
 28 48  1  0
 31 49  1  0
 31 50  1  0
 31 51  1  0
M  END
>  <Binding energies>  (1) 
[-6.5]

>  <Ligand effiencies>  (1) 
[-0.203125]

>  <Interactions>  (1) 
["V-B:TYR:539:CD2:9846, V-B:PRO:540:CA:9855, H-B:ALA:541:N:9863, V-A:LEU:475:CD2:4257, V-A:ILE:369:CG2:3235, V-B:ALA:541:CB:9864, V-A:TYR:531:CZ:4792, V-B:TYR:539:CE2:9848, V-B:PRO:540:N:9856, V-A:ASP:366:CG:3211, V-B:PRO:540:CB:9857, V-A:ASP:366:CB:3210, V-B:TYR:539:CZ:9849, V-B:TYR:539:CE1:9847, V-B:ILE:538:CA:9832, V-B:TYR:539:CG:9844, V-B:TYR:539:C:9839, V-B:PRO:540:C:9853, V-B:GLU:543:CD:9880, V-B:TYR:539:CD1:9845, H-A:ARG:545:NH2:4926, H-B:TYR:539:OH:9850, V-A:TYR:531:CE1:4790, V-A:ASP:366:CA:3208, H-B:TYR:539:N:9842"]

$$$$
2i_Grossjean_2025
     RDKit          3D

 32 33  0  0  0  0  0  0  0  0999 V2000
  132.4090  131.1010   62.1360 C   0  0  0  0  0  0  0  0  0  0  0  0
  131.7780  131.3660   60.7810 C   0  0  0  0  0  0  0  0  0  0  0  0
  132.4980  131.2190   59.5990 C   0  0  0  0  0  0  0  0  0  0  0  0
  131.8690  131.4740   58.3720 C   0  0  0  0  0  0  0  0  0  0  0  0
  132.6810  131.3070   57.0730 C   0  0  0  0  0  0  0  0  0  0  0  0
  133.7290  130.5100   57.2900 F   0  0  0  0  0  0  0  0  0  0  0  0
  131.9170  130.7680   56.1220 F   0  0  0  0  0  0  0  0  0  0  0  0
  133.1480  132.4660   56.6030 F   0  0  0  0  0  0  0  0  0  0  0  0
  130.5090  131.8760   58.3790 C   0  0  0  0  0  0  0  0  0  0  0  0
  129.8010  132.1540   57.1250 C   0  0  0  0  0  0  0  0  0  0  0  0
  129.2420  132.3730   56.1360 N   0  0  0  0  0  0  0  0  0  0  0  0
  129.8540  132.0030   59.6260 C   0  0  0  0  0  0  0  0  0  0  0  0
  128.1470  132.5090   59.7580 S   0  0  0  0  0  0  0  0  0  0  0  0
  127.8720  133.1360   61.4430 C   0  0  0  0  0  0  0  0  0  0  0  0
  126.6980  132.4420   62.1360 C   0  0  0  0  0  0  0  0  0  0  0  0
  125.5560  132.6360   61.7160 O   0  0  0  0  0  0  0  0  0  0  0  0
  127.0140  131.6710   63.1980 N   0  0  0  0  0  0  0  0  0  0  0  0
  126.1330  130.9590   63.9950 C   0  0  0  0  0  0  0  0  0  0  0  0
  126.3830  129.9700   64.9580 C   0  0  0  0  0  0  0  0  0  0  0  0
  125.1400  129.6220   65.4320 C   0  0  0  0  0  0  0  0  0  0  0  0
  124.1990  130.3630   64.7980 O   0  0  0  0  0  0  0  0  0  0  0  0
  124.8460  131.2100   63.8950 N   0  0  0  0  0  0  0  0  0  0  0  0
  130.4820  131.7500   60.8030 N   0  0  0  0  0  0  0  0  0  0  0  0
  131.7079  131.3954   62.9308 H   0  0  0  0  0  0  0  0  0  0  0  0
  132.6404  130.0297   62.2295 H   0  0  0  0  0  0  0  0  0  0  0  0
  133.3359  131.6859   62.2295 H   0  0  0  0  0  0  0  0  0  0  0  0
  133.5520  130.9053   59.6271 H   0  0  0  0  0  0  0  0  0  0  0  0
  128.7828  132.9674   62.0363 H   0  0  0  0  0  0  0  0  0  0  0  0
  127.6336  134.2073   61.3688 H   0  0  0  0  0  0  0  0  0  0  0  0
  127.9850  131.6240   63.4710 H   0  0  0  0  0  0  0  0  0  0  0  0
  127.3575  129.5630   65.2658 H   0  0  0  0  0  0  0  0  0  0  0  0
  124.9411  128.8630   66.2030 H   0  0  0  0  0  0  0  0  0  0  0  0
  1  2  1  0
  2  3  2  0
  3  4  1  0
  4  5  1  0
  5  6  1  0
  5  7  1  0
  5  8  1  0
  4  9  2  0
  9 10  1  0
 10 11  3  0
  9 12  1  0
 12 13  1  0
 13 14  1  0
 14 15  1  0
 15 16  2  0
 15 17  1  0
 17 18  1  0
 18 19  1  0
 19 20  2  0
 20 21  1  0
 21 22  1  0
 12 23  2  0
 23  2  1  0
 22 18  2  0
  1 24  1  0
  1 25  1  0
  1 26  1  0
  3 27  1  0
 14 28  1  0
 14 29  1  0
 17 30  1  0
 19 31  1  0
 20 32  1  0
M  END
>  <Binding energies>  (1) 
[-7.83]

>  <Ligand effiencies>  (1) 
[-0.32625]

>  <Interactions>  (1) 
["V-A:PRO:540:CD:4885, V-A:PRO:540:N:4882, V-A:ILE:538:CB:4860, V-A:TYR:531:CZ:4792, V-A:ASP:366:CG:3211, V-A:ASP:366:CB:3210, H-A:ALA:541:N:4889, V-A:PRO:540:CA:4881, V-A:ALA:541:CB:4890, V-A:GLU:543:CD:4906, H-A:GLU:543:OE1:4907, V-A:ARG:545:CZ:4924, V-B:ARG:545:CZ:9898, V-A:ASN:362:CB:3174, H-B:ARG:545:NE:9896, H-B:GLY:454:N:9022, V-A:PRO:540:CB:4883, V-A:LEU:363:CD1:3187, V-A:TYR:539:C:4865, H-B:TYR:484:OH:9320, V-A:TYR:531:CE2:4791, V-B:HIS:456:CE1:9042, V-A:PRO:540:C:4879, H-A:TYR:539:N:4868, V-B:ARG:545:CG:9894, V-B:ARG:545:CD:9895, V-A:LEU:363:CA:3183, V-A:ALA:541:C:4886, V-A:PRO:540:CG:4884"]

$$$$
2j_Grossjean_2025
     RDKit          3D

 32 33  0  0  0  0  0  0  0  0999 V2000
  129.0370  132.5810   73.5150 C   0  0  0  0  0  0  0  0  0  0  0  0
  128.0370  131.4730   73.7920 C   0  0  0  0  0  0  0  0  0  0  0  0
  126.9780  131.6510   74.6780 C   0  0  0  0  0  0  0  0  0  0  0  0
  126.0770  130.5980   74.8980 C   0  0  0  0  0  0  0  0  0  0  0  0
  124.9100  130.8130   75.8810 C   0  0  0  0  0  0  0  0  0  0  0  0
  125.2530  130.3820   77.0960 F   0  0  0  0  0  0  0  0  0  0  0  0
  124.6050  132.1090   75.9520 F   0  0  0  0  0  0  0  0  0  0  0  0
  123.8050  130.1590   75.5200 F   0  0  0  0  0  0  0  0  0  0  0  0
  126.2800  129.3790   74.2050 C   0  0  0  0  0  0  0  0  0  0  0  0
  125.3710  128.2450   74.3970 C   0  0  0  0  0  0  0  0  0  0  0  0
  124.6520  127.3500   74.5480 N   0  0  0  0  0  0  0  0  0  0  0  0
  127.3830  129.2850   73.3230 C   0  0  0  0  0  0  0  0  0  0  0  0
  127.7350  127.7980   72.3970 S   0  0  0  0  0  0  0  0  0  0  0  0
  129.5400  127.6880   72.1480 C   0  0  0  0  0  0  0  0  0  0  0  0
  130.1980  126.4350   72.7430 C   0  0  0  0  0  0  0  0  0  0  0  0
  129.6480  125.3350   72.6580 O   0  0  0  0  0  0  0  0  0  0  0  0
  131.3850  126.6530   73.3530 N   0  0  0  0  0  0  0  0  0  0  0  0
  132.1890  125.7030   73.9680 C   0  0  0  0  0  0  0  0  0  0  0  0
  131.8260  124.5440   74.4730 N   0  0  0  0  0  0  0  0  0  0  0  0
  132.8540  123.8920   74.9800 C   0  0  0  0  0  0  0  0  0  0  0  0
  134.0890  124.5270   74.8930 C   0  0  0  0  0  0  0  0  0  0  0  0
  133.8810  126.0600   74.1000 S   0  0  0  0  0  0  0  0  0  0  0  0
  128.2420  130.3170   73.1220 N   0  0  0  0  0  0  0  0  0  0  0  0
  129.4053  132.9891   74.4678 H   0  0  0  0  0  0  0  0  0  0  0  0
  129.8819  132.1766   72.9383 H   0  0  0  0  0  0  0  0  0  0  0  0
  128.5484  133.3801   72.9383 H   0  0  0  0  0  0  0  0  0  0  0  0
  126.8486  132.6097   75.2016 H   0  0  0  0  0  0  0  0  0  0  0  0
  129.7371  127.6966   71.0658 H   0  0  0  0  0  0  0  0  0  0  0  0
  129.9779  128.5477   72.6764 H   0  0  0  0  0  0  0  0  0  0  0  0
  131.7330  127.6010   73.3700 H   0  0  0  0  0  0  0  0  0  0  0  0
  132.7415  122.9017   75.4455 H   0  0  0  0  0  0  0  0  0  0  0  0
  135.0424  124.1243   75.2656 H   0  0  0  0  0  0  0  0  0  0  0  0
  1  2  1  0
  2  3  2  0
  3  4  1  0
  4  5  1  0
  5  6  1  0
  5  7  1  0
  5  8  1  0
  4  9  2  0
  9 10  1  0
 10 11  3  0
  9 12  1  0
 12 13  1  0
 13 14  1  0
 14 15  1  0
 15 16  2  0
 15 17  1  0
 17 18  1  0
 18 19  2  0
 19 20  1  0
 20 21  2  0
 21 22  1  0
 12 23  2  0
 23  2  1  0
 22 18  1  0
  1 24  1  0
  1 25  1  0
  1 26  1  0
  3 27  1  0
 14 28  1  0
 14 29  1  0
 17 30  1  0
 20 31  1  0
 21 32  1  0
M  END
>  <Binding energies>  (1) 
[-7.6]

>  <Ligand effiencies>  (1) 
[-0.31666666666666665]

>  <Interactions>  (1) 
["V-A:LYS:547:CE:4948, V-B:HIS:456:CG:9038, V-A:GLY:544:C:4910, V-B:LYS:547:CE:9922, V-A:HIS:456:CD2:4066, V-B:HIS:456:CD2:9040, V-A:HIS:456:CG:4064, H-B:LYS:547:NZ:9923, H-A:LYS:547:NZ:4949, H-A:GLY:544:O:4911, V-B:LYS:547:CD:9921, V-A:HIS:456:C:4059, V-B:VAL:458:CG2:9059, V-B:VAL:457:C:9045, V-B:HIS:456:CB:9037, V-A:HIS:456:CB:4063, V-B:HIS:456:CA:9035, V-B:HIS:456:C:9033, V-A:VAL:458:CG2:4085, V-A:LYS:471:CE:4218, V-A:VAL:457:C:4071, V-B:LYS:471:CE:9192, V-B:LYS:471:CD:9191, V-B:LYS:471:CG:9190, V-B:ASP:473:CG:9212, V-B:VAL:457:CA:9047, V-A:HIS:456:CA:4061, V-B:LYS:471:CB:9189, V-B:ASP:473:CB:9211"]

$$$$
2k_Grossjean_2025
     RDKit          3D

 50 50  0  0  0  0  0  0  0  0999 V2000
  123.6300  124.3520   57.7310 C   0  0  0  0  0  0  0  0  0  0  0  0
  123.4330  123.4040   56.6930 O   0  0  0  0  0  0  0  0  0  0  0  0
  124.5620  123.2540   55.8420 C   0  0  0  0  0  0  0  0  0  0  0  0
  125.8390  123.1600   56.6860 C   0  0  0  0  0  0  0  0  0  0  0  0
  126.9410  122.8930   55.8310 O   0  0  0  0  0  0  0  0  0  0  0  0
  128.0920  123.6850   56.0960 C   0  0  0  0  0  0  0  0  0  0  0  0
  127.8750  125.0760   55.4860 C   0  0  0  0  0  0  0  0  0  0  0  0
  129.1500  125.6260   55.1930 O   0  0  0  0  0  0  0  0  0  0  0  0
  129.1670  127.0300   54.9790 C   0  0  0  0  0  0  0  0  0  0  0  0
  129.6300  127.7260   56.2720 C   0  0  0  0  0  0  0  0  0  0  0  0
  129.0500  129.0610   56.4420 N   0  0  0  0  0  0  0  0  0  0  0  0
  128.0630  129.3830   57.3000 C   0  0  0  0  0  0  0  0  0  0  0  0
  127.5480  128.5750   58.0740 O   0  0  0  0  0  0  0  0  0  0  0  0
  127.5840  130.8410   57.2470 C   0  0  0  0  0  0  0  0  0  0  0  0
  128.2790  131.9400   58.5310 S   0  0  0  0  0  0  0  0  0  0  0  0
  130.0350  131.6380   58.6830 C   0  0  0  0  0  0  0  0  0  0  0  0
  130.4760  131.3410   59.9320 N   0  0  0  0  0  0  0  0  0  0  0  0
  131.7930  131.1060   60.1210 C   0  0  0  0  0  0  0  0  0  0  0  0
  132.2070  130.7930   61.5460 C   0  0  0  0  0  0  0  0  0  0  0  0
  132.7200  131.1440   59.0830 C   0  0  0  0  0  0  0  0  0  0  0  0
  132.2860  131.4410   57.7820 C   0  0  0  0  0  0  0  0  0  0  0  0
  133.3240  131.4730   56.6440 C   0  0  0  0  0  0  0  0  0  0  0  0
  133.8720  132.6780   56.4790 F   0  0  0  0  0  0  0  0  0  0  0  0
  134.3120  130.6160   56.9020 F   0  0  0  0  0  0  0  0  0  0  0  0
  132.7470  131.1330   55.4900 F   0  0  0  0  0  0  0  0  0  0  0  0
  130.9070  131.6980   57.5700 C   0  0  0  0  0  0  0  0  0  0  0  0
  130.3990  132.0170   56.2320 C   0  0  0  0  0  0  0  0  0  0  0  0
  129.9990  132.2680   55.1750 N   0  0  0  0  0  0  0  0  0  0  0  0
  123.5266  123.8544   58.7065 H   0  0  0  0  0  0  0  0  0  0  0  0
  124.6374  124.7854   57.6454 H   0  0  0  0  0  0  0  0  0  0  0  0
  122.8787  125.1509   57.6454 H   0  0  0  0  0  0  0  0  0  0  0  0
  124.4503  122.3368   55.2451 H   0  0  0  0  0  0  0  0  0  0  0  0
  124.6315  124.1247   55.1734 H   0  0  0  0  0  0  0  0  0  0  0  0
  126.0034  124.1115   57.2130 H   0  0  0  0  0  0  0  0  0  0  0  0
  125.7373  122.3508   57.4241 H   0  0  0  0  0  0  0  0  0  0  0  0
  128.2388  123.7748   57.1825 H   0  0  0  0  0  0  0  0  0  0  0  0
  128.9835  123.2146   55.6556 H   0  0  0  0  0  0  0  0  0  0  0  0
  127.2831  124.9913   54.5627 H   0  0  0  0  0  0  0  0  0  0  0  0
  127.3304  125.7229   56.1895 H   0  0  0  0  0  0  0  0  0  0  0  0
  129.8620  127.2704   54.1610 H   0  0  0  0  0  0  0  0  0  0  0  0
  128.1591  127.3780   54.7088 H   0  0  0  0  0  0  0  0  0  0  0  0
  129.3354  127.1038   57.1300 H   0  0  0  0  0  0  0  0  0  0  0  0
  130.7215  127.8467   56.2084 H   0  0  0  0  0  0  0  0  0  0  0  0
  129.4280  129.7880   55.8520 H   0  0  0  0  0  0  0  0  0  0  0  0
  127.8566  131.2525   56.2639 H   0  0  0  0  0  0  0  0  0  0  0  0
  126.4993  130.8110   57.4276 H   0  0  0  0  0  0  0  0  0  0  0  0
  131.5298  131.3050   62.2454 H   0  0  0  0  0  0  0  0  0  0  0  0
  132.1541  129.7070   61.7131 H   0  0  0  0  0  0  0  0  0  0  0  0
  133.2374  131.1399   61.7131 H   0  0  0  0  0  0  0  0  0  0  0  0
  133.7832  130.9430   59.2809 H   0  0  0  0  0  0  0  0  0  0  0  0
  1  2  1  0
  2  3  1  0
  3  4  1  0
  4  5  1  0
  5  6  1  0
  6  7  1  0
  7  8  1  0
  8  9  1  0
  9 10  1  0
 10 11  1  0
 11 12  1  0
 12 13  2  0
 12 14  1  0
 14 15  1  0
 15 16  1  0
 16 17  2  0
 17 18  1  0
 18 19  1  0
 18 20  2  0
 20 21  1  0
 21 22  1  0
 22 23  1  0
 22 24  1  0
 22 25  1  0
 21 26  2  0
 26 27  1  0
 27 28  3  0
 26 16  1  0
  1 29  1  0
  1 30  1  0
  1 31  1  0
  3 32  1  0
  3 33  1  0
  4 34  1  0
  4 35  1  0
  6 36  1  0
  6 37  1  0
  7 38  1  0
  7 39  1  0
  9 40  1  0
  9 41  1  0
 10 42  1  0
 10 43  1  0
 11 44  1  0
 14 45  1  0
 14 46  1  0
 19 47  1  0
 19 48  1  0
 19 49  1  0
 20 50  1  0
M  END
>  <Binding energies>  (1) 
[-5.86]

>  <Ligand effiencies>  (1) 
[-0.20206896551724138]

>  <Interactions>  (1) 
["V-A:ILE:538:CG2:4861, V-A:PRO:540:CD:4885, V-B:ASP:366:CG:8185, V-A:PRO:540:N:4882, H-B:TYR:531:OH:9767, V-B:PRO:540:CA:9855, V-A:ILE:538:CB:4860, V-A:TYR:531:CZ:4792, V-B:PRO:540:N:9856, V-B:ILE:538:CB:9834, V-A:ASP:366:CG:3211, H-A:TYR:531:OH:4793, V-B:TYR:531:CE2:9765, V-B:PRO:540:CD:9859, V-B:PRO:540:CB:9857, V-A:ASP:366:CB:3210, V-A:TYR:539:CE2:4874, V-B:ILE:538:CG2:9835, V-A:TYR:539:CZ:4875, V-A:PRO:540:CA:4881, V-B:TYR:539:CE1:9847, V-A:GLU:543:CD:4906, V-B:TYR:539:C:9839, V-B:LEU:363:CD1:8161, V-B:TYR:531:CZ:9766, V-A:ARG:545:CZ:4924, V-A:PRO:540:CB:4883, V-A:LEU:363:CD1:3187, V-A:TYR:539:C:4865, V-A:TYR:531:CE2:4791, V-B:ASP:366:CB:8184, H-A:TYR:539:N:4868, V-A:LEU:363:CB:3185, V-A:LEU:363:CA:3183, V-B:LEU:363:CA:8157, H-B:TYR:539:N:9842, V-A:PRO:540:CG:4884, V-A:LEU:363:CG:3186, V-A:LEU:363:C:3181"]

$$$$
3aa_Grossjean_2025
     RDKit          3D

 52 54  0  0  0  0  0  0  0  0999 V2000
  123.8370  123.2450   55.8660 C   0  0  0  0  0  0  0  0  0  0  0  0
  125.1700  123.1340   56.6110 C   0  0  0  0  0  0  0  0  0  0  0  0
  126.2350  123.0590   55.6710 O   0  0  0  0  0  0  0  0  0  0  0  0
  127.5270  123.1950   56.0650 C   0  0  0  0  0  0  0  0  0  0  0  0
  128.1870  122.2780   56.5610 O   0  0  0  0  0  0  0  0  0  0  0  0
  128.0690  124.5800   55.8520 C   0  0  0  0  0  0  0  0  0  0  0  0
  129.1380  124.8330   54.9800 C   0  0  0  0  0  0  0  0  0  0  0  0
  129.6140  126.1300   54.8030 C   0  0  0  0  0  0  0  0  0  0  0  0
  129.0300  127.1970   55.4860 C   0  0  0  0  0  0  0  0  0  0  0  0
  129.5840  128.4680   55.2320 N   0  0  0  0  0  0  0  0  0  0  0  0
  129.0340  129.6930   55.3850 C   0  0  0  0  0  0  0  0  0  0  0  0
  127.8870  129.9180   55.7720 O   0  0  0  0  0  0  0  0  0  0  0  0
  129.9400  130.8710   55.0270 C   0  0  0  0  0  0  0  0  0  0  0  0
  129.3790  132.4160   55.8050 S   0  0  0  0  0  0  0  0  0  0  0  0
  129.4200  132.1580   57.5640 C   0  0  0  0  0  0  0  0  0  0  0  0
  128.2510  132.4510   58.1830 N   0  0  0  0  0  0  0  0  0  0  0  0
  128.1460  132.3000   59.5290 C   0  0  0  0  0  0  0  0  0  0  0  0
  126.8170  132.6300   60.1380 C   0  0  0  0  0  0  0  0  0  0  0  0
  126.5540  133.9200   60.6250 C   0  0  0  0  0  0  0  0  0  0  0  0
  125.3210  134.2350   61.1910 C   0  0  0  0  0  0  0  0  0  0  0  0
  124.3330  133.2610   61.2770 C   0  0  0  0  0  0  0  0  0  0  0  0
  124.5670  131.9750   60.8000 C   0  0  0  0  0  0  0  0  0  0  0  0
  125.8000  131.6650   60.2320 C   0  0  0  0  0  0  0  0  0  0  0  0
  129.2270  131.8380   60.2870 C   0  0  0  0  0  0  0  0  0  0  0  0
  130.4530  131.5450   59.6700 C   0  0  0  0  0  0  0  0  0  0  0  0
  131.6230  131.0500   60.5410 C   0  0  0  0  0  0  0  0  0  0  0  0
  132.8120  131.4570   60.0900 F   0  0  0  0  0  0  0  0  0  0  0  0
  131.4940  131.5050   61.7880 F   0  0  0  0  0  0  0  0  0  0  0  0
  131.6380  129.7170   60.5670 F   0  0  0  0  0  0  0  0  0  0  0  0
  130.5630  131.7200   58.2690 C   0  0  0  0  0  0  0  0  0  0  0  0
  131.8350  131.4850   57.5800 C   0  0  0  0  0  0  0  0  0  0  0  0
  132.8400  131.3010   57.0360 N   0  0  0  0  0  0  0  0  0  0  0  0
  127.9690  126.9500   56.3700 C   0  0  0  0  0  0  0  0  0  0  0  0
  127.4970  125.6530   56.5480 C   0  0  0  0  0  0  0  0  0  0  0  0
  123.0149  123.3135   56.5936 H   0  0  0  0  0  0  0  0  0  0  0  0
  123.8437  124.1457   55.2346 H   0  0  0  0  0  0  0  0  0  0  0  0
  123.6947  122.3556   55.2346 H   0  0  0  0  0  0  0  0  0  0  0  0
  125.3072  124.0185   57.2504 H   0  0  0  0  0  0  0  0  0  0  0  0
  125.1669  122.2274   57.2340 H   0  0  0  0  0  0  0  0  0  0  0  0
  129.6040  124.0009   54.4318 H   0  0  0  0  0  0  0  0  0  0  0  0
  130.4563  126.3142   54.1199 H   0  0  0  0  0  0  0  0  0  0  0  0
  130.5120  128.4430   54.8350 H   0  0  0  0  0  0  0  0  0  0  0  0
  130.9620  130.6509   55.3691 H   0  0  0  0  0  0  0  0  0  0  0  0
  129.9087  131.0069   53.9359 H   0  0  0  0  0  0  0  0  0  0  0  0
  127.3332  134.6936   60.5586 H   0  0  0  0  0  0  0  0  0  0  0  0
  125.1298  135.2504   61.5684 H   0  0  0  0  0  0  0  0  0  0  0  0
  123.3595  133.5086   61.7252 H   0  0  0  0  0  0  0  0  0  0  0  0
  123.7823  131.2074   60.8712 H   0  0  0  0  0  0  0  0  0  0  0  0
  125.9806  130.6490   59.8510 H   0  0  0  0  0  0  0  0  0  0  0  0
  129.1155  131.7035   61.3730 H   0  0  0  0  0  0  0  0  0  0  0  0
  127.5096  127.7825   56.9231 H   0  0  0  0  0  0  0  0  0  0  0  0
  126.6650  125.4681   57.2434 H   0  0  0  0  0  0  0  0  0  0  0  0
  1  2  1  0
  2  3  1  0
  3  4  1  0
  4  5  2  0
  4  6  1  0
  6  7  2  0
  7  8  1  0
  8  9  2  0
  9 10  1  0
 10 11  1  0
 11 12  2  0
 11 13  1  0
 13 14  1  0
 14 15  1  0
 15 16  2  0
 16 17  1  0
 17 18  1  0
 18 19  2  0
 19 20  1  0
 20 21  2  0
 21 22  1  0
 22 23  2  0
 17 24  2  0
 24 25  1  0
 25 26  1  0
 26 27  1  0
 26 28  1  0
 26 29  1  0
 25 30  2  0
 30 31  1  0
 31 32  3  0
  9 33  1  0
 33 34  2  0
 34  6  1  0
 30 15  1  0
 23 18  1  0
  1 35  1  0
  1 36  1  0
  1 37  1  0
  2 38  1  0
  2 39  1  0
  7 40  1  0
  8 41  1  0
 10 42  1  0
 13 43  1  0
 13 44  1  0
 19 45  1  0
 20 46  1  0
 21 47  1  0
 22 48  1  0
 23 49  1  0
 24 50  1  0
 33 51  1  0
 34 52  1  0
M  END
>  <Binding energies>  (1) 
[-9.04]

>  <Ligand effiencies>  (1) 
[-0.2582857142857143]

>  <Interactions>  (1) 
["V-A:PRO:540:N:4882, V-B:PRO:540:CA:9855, V-B:PRO:540:N:9856, V-B:ILE:538:CB:9834, V-A:ASP:366:CG:3211, V-B:ILE:369:CD1:8211, H-A:TYR:531:OH:4793, V-A:TYR:539:CD2:4872, V-B:TYR:531:CE2:9765, V-B:PRO:540:CD:9859, V-B:PRO:540:CB:9857, V-B:ILE:369:CG2:8209, V-B:LEU:475:CD2:9231, V-A:TYR:539:CE2:4874, V-B:ILE:538:CG2:9835, V-B:TRP:381:CH2:8344, V-A:PRO:540:CA:4881, V-B:TYR:539:CZ:9849, V-B:TYR:539:CE1:9847, V-A:ALA:541:CB:4890, V-A:GLU:543:CD:4906, V-B:TYR:539:C:9839, V-B:LEU:363:CD1:8161, V-B:TYR:531:CZ:9766, V-B:TYR:539:CD1:9845, V-A:PRO:540:CB:4883, V-A:TYR:539:C:4865, V-A:PRO:540:C:4879, H-A:TYR:539:N:4868, H-B:TYR:539:N:9842, V-A:ALA:541:C:4886, V-A:ALA:541:CA:4888, H-A:MET:535:SD:4832"]

$$$$
3ab_Grossjean_2025
     RDKit          3D

 49 51  0  0  0  0  0  0  0  0999 V2000
  137.2570  136.2670   74.5740 C   0  0  0  0  0  0  0  0  0  0  0  0
  136.8340  136.0740   73.2310 O   0  0  0  0  0  0  0  0  0  0  0  0
  136.6120  134.8280   72.7400 C   0  0  0  0  0  0  0  0  0  0  0  0
  137.5010  134.1170   72.2620 O   0  0  0  0  0  0  0  0  0  0  0  0
  135.1770  134.3980   72.8400 C   0  0  0  0  0  0  0  0  0  0  0  0
  134.6130  133.9680   74.0510 C   0  0  0  0  0  0  0  0  0  0  0  0
  133.2790  133.5760   74.1140 C   0  0  0  0  0  0  0  0  0  0  0  0
  132.4810  133.6060   72.9590 C   0  0  0  0  0  0  0  0  0  0  0  0
  131.1230  133.2380   72.9080 N   0  0  0  0  0  0  0  0  0  0  0  0
  130.0150  134.0040   72.9900 C   0  0  0  0  0  0  0  0  0  0  0  0
  129.9980  135.2250   73.1460 O   0  0  0  0  0  0  0  0  0  0  0  0
  128.6870  133.2510   72.8780 C   0  0  0  0  0  0  0  0  0  0  0  0
  128.1710  132.5340   74.4660 S   0  0  0  0  0  0  0  0  0  0  0  0
  127.4730  130.9310   74.1270 C   0  0  0  0  0  0  0  0  0  0  0  0
  128.2540  130.1570   73.3370 N   0  0  0  0  0  0  0  0  0  0  0  0
  127.8460  128.9050   73.0020 C   0  0  0  0  0  0  0  0  0  0  0  0
  128.7700  128.1110   72.1270 C   0  0  0  0  0  0  0  0  0  0  0  0
  128.5940  128.0860   70.7340 C   0  0  0  0  0  0  0  0  0  0  0  0
  129.4490  127.3520   69.9160 C   0  0  0  0  0  0  0  0  0  0  0  0
  130.4940  126.6290   70.4820 C   0  0  0  0  0  0  0  0  0  0  0  0
  130.6880  126.6330   71.8590 C   0  0  0  0  0  0  0  0  0  0  0  0
  129.8310  127.3690   72.6730 C   0  0  0  0  0  0  0  0  0  0  0  0
  126.6150  128.4100   73.4470 C   0  0  0  0  0  0  0  0  0  0  0  0
  125.7800  129.2000   74.2500 C   0  0  0  0  0  0  0  0  0  0  0  0
  124.4300  128.6190   74.7140 C   0  0  0  0  0  0  0  0  0  0  0  0
  123.6980  128.1430   73.7050 F   0  0  0  0  0  0  0  0  0  0  0  0
  124.6310  127.6150   75.5690 F   0  0  0  0  0  0  0  0  0  0  0  0
  123.7130  129.5650   75.3210 F   0  0  0  0  0  0  0  0  0  0  0  0
  126.2110  130.5040   74.5990 C   0  0  0  0  0  0  0  0  0  0  0  0
  125.3530  131.3910   75.3880 C   0  0  0  0  0  0  0  0  0  0  0  0
  124.6720  132.0890   76.0120 N   0  0  0  0  0  0  0  0  0  0  0  0
  133.0380  134.0380   71.7550 C   0  0  0  0  0  0  0  0  0  0  0  0
  134.3720  134.4290   71.6940 C   0  0  0  0  0  0  0  0  0  0  0  0
  136.4745  135.9100   75.2598 H   0  0  0  0  0  0  0  0  0  0  0  0
  138.1848  135.7031   74.7508 H   0  0  0  0  0  0  0  0  0  0  0  0
  137.4391  137.3373   74.7508 H   0  0  0  0  0  0  0  0  0  0  0  0
  135.2318  133.9405   74.9600 H   0  0  0  0  0  0  0  0  0  0  0  0
  132.8492  133.2422   75.0700 H   0  0  0  0  0  0  0  0  0  0  0  0
  130.9700  132.2430   72.8310 H   0  0  0  0  0  0  0  0  0  0  0  0
  127.9103  133.9508   72.5358 H   0  0  0  0  0  0  0  0  0  0  0  0
  128.8247  132.4264   72.1631 H   0  0  0  0  0  0  0  0  0  0  0  0
  127.7681  128.6550   70.2821 H   0  0  0  0  0  0  0  0  0  0  0  0
  129.2987  127.3439   68.8264 H   0  0  0  0  0  0  0  0  0  0  0  0
  131.1711  126.0505   69.8363 H   0  0  0  0  0  0  0  0  0  0  0  0
  131.5140  126.0578   72.3028 H   0  0  0  0  0  0  0  0  0  0  0  0
  129.9872  127.3696   73.7619 H   0  0  0  0  0  0  0  0  0  0  0  0
  126.3003  127.3944   73.1650 H   0  0  0  0  0  0  0  0  0  0  0  0
  132.4179  134.0697   70.8470 H   0  0  0  0  0  0  0  0  0  0  0  0
  134.7982  134.7654   70.7374 H   0  0  0  0  0  0  0  0  0  0  0  0
  1  2  1  0
  2  3  1  0
  3  4  2  0
  3  5  1  0
  5  6  2  0
  6  7  1  0
  7  8  2  0
  8  9  1  0
  9 10  1  0
 10 11  2  0
 10 12  1  0
 12 13  1  0
 13 14  1  0
 14 15  2  0
 15 16  1  0
 16 17  1  0
 17 18  2  0
 18 19  1  0
 19 20  2  0
 20 21  1  0
 21 22  2  0
 16 23  2  0
 23 24  1  0
 24 25  1  0
 25 26  1  0
 25 27  1  0
 25 28  1  0
 24 29  2  0
 29 30  1  0
 30 31  3  0
  8 32  1  0
 32 33  2  0
 33  5  1  0
 29 14  1  0
 22 17  1  0
  1 34  1  0
  1 35  1  0
  1 36  1  0
  6 37  1  0
  7 38  1  0
  9 39  1  0
 12 40  1  0
 12 41  1  0
 18 42  1  0
 19 43  1  0
 20 44  1  0
 21 45  1  0
 22 46  1  0
 23 47  1  0
 32 48  1  0
 33 49  1  0
M  END
>  <Binding energies>  (1) 
[-8.81]

>  <Ligand effiencies>  (1) 
[-0.25911764705882356]

>  <Interactions>  (1) 
["V-A:HIS:456:CE1:4068, V-B:HIS:456:CE1:9042, V-B:TYR:484:CG:9314, V-B:GLY:544:C:9884, V-A:LYS:547:CE:4948, V-B:HIS:456:CG:9038, V-B:TYR:484:CB:9313, V-A:GLY:544:C:4910, V-B:LYS:547:CE:9922, V-A:HIS:456:CD2:4066, V-B:HIS:456:CD2:9040, V-A:HIS:456:CG:4064, H-A:LYS:547:NZ:4949, V-A:GLY:544:CA:4912, V-B:LYS:547:CD:9921, V-B:VAL:458:CG2:9059, V-B:VAL:457:C:9045, V-B:ARG:545:C:9889, V-B:HIS:456:CB:9037, V-B:HIS:456:CA:9035, V-B:HIS:456:C:9033, V-A:LYS:547:CG:4946, V-B:LYS:547:CG:9920, V-B:LYS:471:CE:9192, V-B:LYS:471:CD:9191, V-B:LYS:471:CG:9190, V-B:ASP:473:CG:9212, V-B:VAL:457:CA:9047, V-B:LYS:547:CB:9919, V-A:PHE:548:CD2:4961, V-A:VAL:542:CG1:4897, V-A:ARG:356:CB:3115, V-A:PHE:548:CE2:4963, V-A:GLU:357:CB:3132, V-A:LYS:547:CA:4943, V-B:ARG:545:CA:9891, H-A:GLU:357:N:3131, V-B:VAL:458:CB:9057"]

$$$$
3ac_Grossjean_2025
     RDKit          3D

 47 49  0  0  0  0  0  0  0  0999 V2000
  131.8870  131.1530   62.1040 C   0  0  0  0  0  0  0  0  0  0  0  0
  131.0090  131.7630   61.1630 O   0  0  0  0  0  0  0  0  0  0  0  0
  130.7970  131.1510   59.9420 C   0  0  0  0  0  0  0  0  0  0  0  0
  130.9960  129.7710   59.8950 C   0  0  0  0  0  0  0  0  0  0  0  0
  130.8030  129.0680   58.7100 C   0  0  0  0  0  0  0  0  0  0  0  0
  130.4150  129.7380   57.5480 C   0  0  0  0  0  0  0  0  0  0  0  0
  130.2250  128.9400   56.4050 N   0  0  0  0  0  0  0  0  0  0  0  0
  129.3050  127.9770   56.1830 C   0  0  0  0  0  0  0  0  0  0  0  0
  128.4110  127.6520   56.9660 O   0  0  0  0  0  0  0  0  0  0  0  0
  129.4140  127.2580   54.8380 C   0  0  0  0  0  0  0  0  0  0  0  0
  130.2540  125.6510   54.9820 S   0  0  0  0  0  0  0  0  0  0  0  0
  129.5920  124.7850   56.3930 C   0  0  0  0  0  0  0  0  0  0  0  0
  128.2540  124.5910   56.3200 N   0  0  0  0  0  0  0  0  0  0  0  0
  127.6080  123.9390   57.3210 C   0  0  0  0  0  0  0  0  0  0  0  0
  126.1260  123.7720   57.1650 C   0  0  0  0  0  0  0  0  0  0  0  0
  125.5850  123.2080   55.9980 C   0  0  0  0  0  0  0  0  0  0  0  0
  124.2100  123.0450   55.8510 C   0  0  0  0  0  0  0  0  0  0  0  0
  123.3540  123.4480   56.8710 C   0  0  0  0  0  0  0  0  0  0  0  0
  123.8630  124.0150   58.0340 C   0  0  0  0  0  0  0  0  0  0  0  0
  125.2390  124.1760   58.1780 C   0  0  0  0  0  0  0  0  0  0  0  0
  128.3060  123.4770   58.4410 C   0  0  0  0  0  0  0  0  0  0  0  0
  129.6880  123.6850   58.5520 C   0  0  0  0  0  0  0  0  0  0  0  0
  130.4170  123.1640   59.8070 C   0  0  0  0  0  0  0  0  0  0  0  0
  131.4290  122.3440   59.5150 F   0  0  0  0  0  0  0  0  0  0  0  0
  130.9210  124.1840   60.5040 F   0  0  0  0  0  0  0  0  0  0  0  0
  129.5640  122.4920   60.5800 F   0  0  0  0  0  0  0  0  0  0  0  0
  130.3570  124.3710   57.5080 C   0  0  0  0  0  0  0  0  0  0  0  0
  131.7850  124.6790   57.6150 C   0  0  0  0  0  0  0  0  0  0  0  0
  132.9130  124.9230   57.7010 N   0  0  0  0  0  0  0  0  0  0  0  0
  130.2060  131.1260   57.5900 C   0  0  0  0  0  0  0  0  0  0  0  0
  130.3990  131.8260   58.7770 C   0  0  0  0  0  0  0  0  0  0  0  0
  131.5503  131.3869   63.1247 H   0  0  0  0  0  0  0  0  0  0  0  0
  131.8819  130.0629   61.9570 H   0  0  0  0  0  0  0  0  0  0  0  0
  132.9069  131.5381   61.9570 H   0  0  0  0  0  0  0  0  0  0  0  0
  131.3082  129.2340   60.8028 H   0  0  0  0  0  0  0  0  0  0  0  0
  130.9568  127.9790   58.6884 H   0  0  0  0  0  0  0  0  0  0  0  0
  130.8380  129.1610   55.6340 H   0  0  0  0  0  0  0  0  0  0  0  0
  128.4012  127.0937   54.4413 H   0  0  0  0  0  0  0  0  0  0  0  0
  130.0107  127.8911   54.1648 H   0  0  0  0  0  0  0  0  0  0  0  0
  126.2578  122.8902   55.1878 H   0  0  0  0  0  0  0  0  0  0  0  0
  123.8021  122.5993   54.9318 H   0  0  0  0  0  0  0  0  0  0  0  0
  122.2678  123.3172   56.7567 H   0  0  0  0  0  0  0  0  0  0  0  0
  123.1822  124.3349   58.8366 H   0  0  0  0  0  0  0  0  0  0  0  0
  125.6379  124.6264   59.0989 H   0  0  0  0  0  0  0  0  0  0  0  0
  127.7673  122.9469   59.2402 H   0  0  0  0  0  0  0  0  0  0  0  0
  129.8890  131.6610   56.6826 H   0  0  0  0  0  0  0  0  0  0  0  0
  130.2389  132.9140   58.8027 H   0  0  0  0  0  0  0  0  0  0  0  0
  1  2  1  0
  2  3  1  0
  3  4  2  0
  4  5  1  0
  5  6  2  0
  6  7  1  0
  7  8  1  0
  8  9  2  0
  8 10  1  0
 10 11  1  0
 11 12  1  0
 12 13  2  0
 13 14  1  0
 14 15  1  0
 15 16  2  0
 16 17  1  0
 17 18  2  0
 18 19  1  0
 19 20  2  0
 14 21  2  0
 21 22  1  0
 22 23  1  0
 23 24  1  0
 23 25  1  0
 23 26  1  0
 22 27  2  0
 27 28  1  0
 28 29  3  0
  6 30  1  0
 30 31  2  0
 31  3  1  0
 27 12  1  0
 20 15  1  0
  1 32  1  0
  1 33  1  0
  1 34  1  0
  4 35  1  0
  5 36  1  0
  7 37  1  0
 10 38  1  0
 10 39  1  0
 16 40  1  0
 17 41  1  0
 18 42  1  0
 19 43  1  0
 20 44  1  0
 21 45  1  0
 30 46  1  0
 31 47  1  0
M  END
>  <Binding energies>  (1) 
[-7.49]

>  <Ligand effiencies>  (1) 
[-0.2340625]

>  <Interactions>  (1) 
["V-A:PRO:540:N:4882, V-B:TYR:539:CD2:9846, V-B:PRO:540:CA:9855, V-B:ALA:541:CB:9864, V-B:TYR:539:CE2:9848, V-B:PRO:540:N:9856, V-B:ILE:538:CB:9834, H-A:TYR:531:OH:4793, V-B:TYR:531:CE2:9765, V-B:PRO:540:CD:9859, V-B:PRO:540:CB:9857, V-B:ILE:538:CG2:9835, H-A:ALA:541:N:4889, V-A:PRO:540:CA:4881, V-B:TYR:539:CZ:9849, V-A:GLU:543:CD:4906, V-B:ILE:538:CA:9832, V-B:TYR:539:C:9839, V-B:LEU:363:CD1:8161, V-A:TYR:539:C:4865, H-B:TYR:539:OH:9850, V-B:LEU:363:CA:8157, V-B:LEU:363:CB:8159, V-B:PRO:540:CG:9858, V-A:ALA:541:C:4886"]

$$$$
3ad_Grossjean_2025
     RDKit          3D

 43 45  0  0  0  0  0  0  0  0999 V2000
  124.7320  127.3420   74.6760 N   0  0  0  0  0  0  0  0  0  0  0  0
  125.4580  128.2230   74.4830 C   0  0  0  0  0  0  0  0  0  0  0  0
  126.3750  129.3400   74.2400 C   0  0  0  0  0  0  0  0  0  0  0  0
  126.1760  130.5910   74.8750 C   0  0  0  0  0  0  0  0  0  0  0  0
  125.0340  130.8430   75.8770 C   0  0  0  0  0  0  0  0  0  0  0  0
  124.7310  132.1370   76.0020 F   0  0  0  0  0  0  0  0  0  0  0  0
  123.9300  130.2080   75.4770 F   0  0  0  0  0  0  0  0  0  0  0  0
  125.3760  130.3950   77.0860 F   0  0  0  0  0  0  0  0  0  0  0  0
  127.0550  131.6420   74.5730 C   0  0  0  0  0  0  0  0  0  0  0  0
  128.1000  131.4520   73.6620 C   0  0  0  0  0  0  0  0  0  0  0  0
  129.0590  132.5450   73.2920 C   0  0  0  0  0  0  0  0  0  0  0  0
  129.3780  132.7940   71.9480 C   0  0  0  0  0  0  0  0  0  0  0  0
  130.2660  133.8070   71.5980 C   0  0  0  0  0  0  0  0  0  0  0  0
  130.8480  134.5890   72.5920 C   0  0  0  0  0  0  0  0  0  0  0  0
  130.5460  134.3640   73.9300 C   0  0  0  0  0  0  0  0  0  0  0  0
  129.6570  133.3490   74.2760 C   0  0  0  0  0  0  0  0  0  0  0  0
  128.2820  130.2530   73.0520 N   0  0  0  0  0  0  0  0  0  0  0  0
  127.4600  129.2180   73.3430 C   0  0  0  0  0  0  0  0  0  0  0  0
  127.8540  127.7240   72.4620 S   0  0  0  0  0  0  0  0  0  0  0  0
  129.6560  127.6990   72.2210 C   0  0  0  0  0  0  0  0  0  0  0  0
  130.3020  126.4510   72.8280 C   0  0  0  0  0  0  0  0  0  0  0  0
  129.6930  125.3820   72.7890 O   0  0  0  0  0  0  0  0  0  0  0  0
  131.5240  126.6380   73.3720 N   0  0  0  0  0  0  0  0  0  0  0  0
  132.3860  125.7140   73.9910 C   0  0  0  0  0  0  0  0  0  0  0  0
  131.7990  124.5070   74.3820 C   0  0  0  0  0  0  0  0  0  0  0  0
  132.5620  123.5240   75.0070 C   0  0  0  0  0  0  0  0  0  0  0  0
  133.9140  123.7490   75.2460 C   0  0  0  0  0  0  0  0  0  0  0  0
  134.5100  124.9490   74.8690 C   0  0  0  0  0  0  0  0  0  0  0  0
  133.7510  125.9350   74.2430 C   0  0  0  0  0  0  0  0  0  0  0  0
  126.9218  132.6216   75.0554 H   0  0  0  0  0  0  0  0  0  0  0  0
  128.9193  132.1793   71.1595 H   0  0  0  0  0  0  0  0  0  0  0  0
  130.5070  133.9890   70.5403 H   0  0  0  0  0  0  0  0  0  0  0  0
  131.5507  135.3893   72.3170 H   0  0  0  0  0  0  0  0  0  0  0  0
  131.0071  134.9848   74.7123 H   0  0  0  0  0  0  0  0  0  0  0  0
  129.4198  133.1746   75.3359 H   0  0  0  0  0  0  0  0  0  0  0  0
  129.8697  127.7197   71.1422 H   0  0  0  0  0  0  0  0  0  0  0  0
  130.0774  128.5790   72.7289 H   0  0  0  0  0  0  0  0  0  0  0  0
  131.8680  127.5870   73.3740 H   0  0  0  0  0  0  0  0  0  0  0  0
  130.7291  124.3329   74.1950 H   0  0  0  0  0  0  0  0  0  0  0  0
  132.0979  122.5740   75.3104 H   0  0  0  0  0  0  0  0  0  0  0  0
  134.5174  122.9715   75.7373 H   0  0  0  0  0  0  0  0  0  0  0  0
  135.5790  125.1185   75.0652 H   0  0  0  0  0  0  0  0  0  0  0  0
  134.2191  126.8852   73.9463 H   0  0  0  0  0  0  0  0  0  0  0  0
  1  2  3  0
  2  3  1  0
  3  4  2  0
  4  5  1  0
  5  6  1  0
  5  7  1  0
  5  8  1  0
  4  9  1  0
  9 10  2  0
 10 11  1  0
 11 12  2  0
 12 13  1  0
 13 14  2  0
 14 15  1  0
 15 16  2  0
 10 17  1  0
 17 18  2  0
 18 19  1  0
 19 20  1  0
 20 21  1  0
 21 22  2  0
 21 23  1  0
 23 24  1  0
 24 25  2  0
 25 26  1  0
 26 27  2  0
 27 28  1  0
 28 29  2  0
 18  3  1  0
 29 24  1  0
 16 11  1  0
  9 30  1  0
 12 31  1  0
 13 32  1  0
 14 33  1  0
 15 34  1  0
 16 35  1  0
 20 36  1  0
 20 37  1  0
 23 38  1  0
 25 39  1  0
 26 40  1  0
 27 41  1  0
 28 42  1  0
 29 43  1  0
M  END
>  <Binding energies>  (1) 
[-9.46]

>  <Ligand effiencies>  (1) 
[-0.31533333333333335]

>  <Interactions>  (1) 
["V-B:TYR:484:CG:9314, V-A:LYS:547:CE:4948, V-B:HIS:456:CG:9038, V-B:TYR:484:CB:9313, V-A:GLY:544:C:4910, V-A:GLU:543:C:4900, V-B:LYS:547:CE:9922, V-A:HIS:456:CD2:4066, V-B:HIS:456:CD2:9040, V-A:HIS:456:CG:4064, H-B:LYS:547:NZ:9923, H-A:LYS:547:NZ:4949, V-A:GLY:544:CA:4912, H-A:GLY:544:O:4911, V-B:LYS:547:CD:9921, V-A:HIS:456:C:4059, V-B:VAL:458:CG2:9059, V-B:VAL:457:C:9045, V-B:HIS:456:CB:9037, V-A:LYS:471:CD:4217, V-A:HIS:456:CB:4063, V-B:HIS:456:CA:9035, V-B:HIS:456:C:9033, V-A:VAL:458:CG2:4085, V-A:LYS:471:CE:4218, V-A:VAL:457:C:4071, V-B:LYS:471:CE:9192, V-B:LYS:471:CD:9191, V-B:LYS:471:CG:9190, V-B:ASP:473:CG:9212, V-B:VAL:457:CA:9047, V-A:VAL:457:CA:4073, V-A:HIS:456:CA:4061, V-A:LYS:471:CG:4216, V-A:GLU:543:CA:4902, V-B:LYS:471:CB:9189, V-B:ASP:473:CB:9211"]

$$$$
3af_Grossjean_2025
     RDKit          3D

 42 44  0  0  0  0  0  0  0  0999 V2000
  133.7760  127.3100   74.2530 N   0  0  0  0  0  0  0  0  0  0  0  0
  133.0310  126.4390   74.0910 C   0  0  0  0  0  0  0  0  0  0  0  0
  132.0880  125.3360   73.8860 C   0  0  0  0  0  0  0  0  0  0  0  0
  132.3090  124.0750   74.4910 C   0  0  0  0  0  0  0  0  0  0  0  0
  133.5020  123.7990   75.4270 C   0  0  0  0  0  0  0  0  0  0  0  0
  133.7520  122.4960   75.5770 F   0  0  0  0  0  0  0  0  0  0  0  0
  134.6050  124.3670   74.9380 F   0  0  0  0  0  0  0  0  0  0  0  0
  133.2590  124.2990   76.6390 F   0  0  0  0  0  0  0  0  0  0  0  0
  131.4080  123.0340   74.2210 C   0  0  0  0  0  0  0  0  0  0  0  0
  130.3190  123.2450   73.3690 C   0  0  0  0  0  0  0  0  0  0  0  0
  129.3370  122.1630   73.0320 C   0  0  0  0  0  0  0  0  0  0  0  0
  129.0290  121.8650   71.6940 C   0  0  0  0  0  0  0  0  0  0  0  0
  128.1200  120.8600   71.3750 C   0  0  0  0  0  0  0  0  0  0  0  0
  127.5050  120.1380   72.3910 C   0  0  0  0  0  0  0  0  0  0  0  0
  127.7940  120.4110   73.7240 C   0  0  0  0  0  0  0  0  0  0  0  0
  128.7040  121.4160   74.0400 C   0  0  0  0  0  0  0  0  0  0  0  0
  130.1130  124.4540   72.7880 N   0  0  0  0  0  0  0  0  0  0  0  0
  130.9560  125.4810   73.0510 C   0  0  0  0  0  0  0  0  0  0  0  0
  130.5160  126.9890   72.2110 S   0  0  0  0  0  0  0  0  0  0  0  0
  128.7020  127.0970   72.1630 C   0  0  0  0  0  0  0  0  0  0  0  0
  128.1870  128.3440   72.8820 C   0  0  0  0  0  0  0  0  0  0  0  0
  128.8890  129.3550   72.9040 O   0  0  0  0  0  0  0  0  0  0  0  0
  126.9710  128.2200   73.4560 N   0  0  0  0  0  0  0  0  0  0  0  0
  126.2240  129.1620   74.1910 C   0  0  0  0  0  0  0  0  0  0  0  0
  126.6760  130.4310   74.5980 C   0  0  0  0  0  0  0  0  0  0  0  0
  125.8260  131.2650   75.3270 C   0  0  0  0  0  0  0  0  0  0  0  0
  124.5430  130.8100   75.6330 C   0  0  0  0  0  0  0  0  0  0  0  0
  124.0840  129.5920   75.2530 N   0  0  0  0  0  0  0  0  0  0  0  0
  124.9220  128.7930   74.5450 C   0  0  0  0  0  0  0  0  0  0  0  0
  131.5588  122.0466   74.6818 H   0  0  0  0  0  0  0  0  0  0  0  0
  129.5132  122.4341   70.8867 H   0  0  0  0  0  0  0  0  0  0  0  0
  127.8893  120.6381   70.3226 H   0  0  0  0  0  0  0  0  0  0  0  0
  126.7849  119.3454   72.1393 H   0  0  0  0  0  0  0  0  0  0  0  0
  127.3059  119.8356   74.5244 H   0  0  0  0  0  0  0  0  0  0  0  0
  128.9311  121.6287   75.0951 H   0  0  0  0  0  0  0  0  0  0  0  0
  128.3752  127.1311   71.1132 H   0  0  0  0  0  0  0  0  0  0  0  0
  128.2938  126.2139   72.6763 H   0  0  0  0  0  0  0  0  0  0  0  0
  126.5150  127.3270   73.3440 H   0  0  0  0  0  0  0  0  0  0  0  0
  127.6930  130.7639   74.3433 H   0  0  0  0  0  0  0  0  0  0  0  0
  126.1610  132.2606   75.6535 H   0  0  0  0  0  0  0  0  0  0  0  0
  123.8747  131.4681   76.2076 H   0  0  0  0  0  0  0  0  0  0  0  0
  124.5581  127.8029   74.2331 H   0  0  0  0  0  0  0  0  0  0  0  0
  1  2  3  0
  2  3  1  0
  3  4  2  0
  4  5  1  0
  5  6  1  0
  5  7  1  0
  5  8  1  0
  4  9  1  0
  9 10  2  0
 10 11  1  0
 11 12  2  0
 12 13  1  0
 13 14  2  0
 14 15  1  0
 15 16  2  0
 10 17  1  0
 17 18  2  0
 18 19  1  0
 19 20  1  0
 20 21  1  0
 21 22  2  0
 21 23  1  0
 23 24  1  0
 24 25  2  0
 25 26  1  0
 26 27  2  0
 27 28  1  0
 28 29  2  0
 18  3  1  0
 29 24  1  0
 16 11  1  0
  9 30  1  0
 12 31  1  0
 13 32  1  0
 14 33  1  0
 15 34  1  0
 16 35  1  0
 20 36  1  0
 20 37  1  0
 23 38  1  0
 25 39  1  0
 26 40  1  0
 27 41  1  0
 29 42  1  0
M  END
>  <Binding energies>  (1) 
[-9.08]

>  <Ligand effiencies>  (1) 
[-0.3026666666666667]

>  <Interactions>  (1) 
["V-B:GLY:544:C:9884, V-A:LYS:547:CE:4948, V-B:HIS:456:CG:9038, V-B:LYS:547:CE:9922, V-A:HIS:456:CD2:4066, V-B:HIS:456:CD2:9040, V-B:GLU:543:C:9874, V-A:HIS:456:CG:4064, H-B:GLY:544:O:9885, H-B:LYS:547:NZ:9923, H-A:LYS:547:NZ:4949, V-B:GLY:544:CA:9886, V-A:TYR:484:CD1:4341, V-A:TYR:484:CG:4340, V-B:GLU:543:CA:9876, V-A:TYR:484:CB:4339, V-A:ASP:473:CG:4238, V-A:HIS:456:C:4059, V-B:VAL:458:CG2:9059, V-B:HIS:456:CB:9037, V-A:LYS:471:CD:4217, V-A:HIS:456:CB:4063, V-B:HIS:456:CA:9035, V-B:HIS:456:C:9033, V-A:VAL:458:CG2:4085, V-A:LYS:471:CE:4218, V-A:LYS:547:CD:4947, V-A:VAL:457:C:4071, V-B:LYS:471:CE:9192, V-B:LYS:471:CD:9191, V-B:LYS:471:CG:9190, V-B:ASP:473:CG:9212, V-A:VAL:457:CA:4073, V-A:HIS:456:CA:4061, V-A:LYS:471:CG:4216, H-B:VAL:457:N:9048, V-A:ASP:473:CB:4237"]

$$$$
3ag_Grossjean_2025
     RDKit          3D

 46 48  0  0  0  0  0  0  0  0999 V2000
  133.1050  124.5570   57.8860 N   0  0  0  0  0  0  0  0  0  0  0  0
  131.9560  124.4400   57.8110 C   0  0  0  0  0  0  0  0  0  0  0  0
  130.5010  124.2900   57.7200 C   0  0  0  0  0  0  0  0  0  0  0  0
  129.7840  123.5700   58.7080 C   0  0  0  0  0  0  0  0  0  0  0  0
  130.4630  122.9600   59.9500 C   0  0  0  0  0  0  0  0  0  0  0  0
  129.6290  122.2230   60.6860 F   0  0  0  0  0  0  0  0  0  0  0  0
  131.4710  122.1730   59.5740 F   0  0  0  0  0  0  0  0  0  0  0  0
  130.9380  123.9280   60.7350 F   0  0  0  0  0  0  0  0  0  0  0  0
  128.3990  123.4090   58.5470 C   0  0  0  0  0  0  0  0  0  0  0  0
  127.7510  123.9390   57.4270 C   0  0  0  0  0  0  0  0  0  0  0  0
  126.2760  123.7940   57.2040 C   0  0  0  0  0  0  0  0  0  0  0  0
  125.7800  123.3000   55.9870 C   0  0  0  0  0  0  0  0  0  0  0  0
  124.4110  123.1630   55.7730 C   0  0  0  0  0  0  0  0  0  0  0  0
  123.5160  123.5190   56.7770 C   0  0  0  0  0  0  0  0  0  0  0  0
  123.9820  124.0140   57.9910 C   0  0  0  0  0  0  0  0  0  0  0  0
  125.3510  124.1510   58.2010 C   0  0  0  0  0  0  0  0  0  0  0  0
  128.4390  124.6390   56.4890 N   0  0  0  0  0  0  0  0  0  0  0  0
  129.7740  124.8250   56.6330 C   0  0  0  0  0  0  0  0  0  0  0  0
  130.5080  125.7660   55.3140 S   0  0  0  0  0  0  0  0  0  0  0  0
  129.4440  127.2110   55.0230 C   0  0  0  0  0  0  0  0  0  0  0  0
  129.7450  128.3540   55.9940 C   0  0  0  0  0  0  0  0  0  0  0  0
  130.3860  128.1330   57.0230 O   0  0  0  0  0  0  0  0  0  0  0  0
  129.2820  129.5680   55.6490 N   0  0  0  0  0  0  0  0  0  0  0  0
  129.4850  130.8010   56.4090 C   0  0  0  0  0  0  0  0  0  0  0  0
  130.9490  131.1860   56.5910 C   0  0  0  0  0  0  0  0  0  0  0  0
  131.6360  130.7810   57.7380 C   0  0  0  0  0  0  0  0  0  0  0  0
  132.9810  131.1050   57.8940 C   0  0  0  0  0  0  0  0  0  0  0  0
  133.6370  131.8260   56.8980 C   0  0  0  0  0  0  0  0  0  0  0  0
  132.9620  132.2200   55.7460 C   0  0  0  0  0  0  0  0  0  0  0  0
  131.6170  131.8960   55.5880 C   0  0  0  0  0  0  0  0  0  0  0  0
  127.8200  122.8628   59.3062 H   0  0  0  0  0  0  0  0  0  0  0  0
  126.4837  123.0169   55.1904 H   0  0  0  0  0  0  0  0  0  0  0  0
  124.0384  122.7747   54.8136 H   0  0  0  0  0  0  0  0  0  0  0  0
  122.4344  123.4085   56.6102 H   0  0  0  0  0  0  0  0  0  0  0  0
  123.2712  124.2960   58.7817 H   0  0  0  0  0  0  0  0  0  0  0  0
  125.7149  124.5446   59.1616 H   0  0  0  0  0  0  0  0  0  0  0  0
  129.6043  127.5679   53.9949 H   0  0  0  0  0  0  0  0  0  0  0  0
  128.4007  126.8998   55.1802 H   0  0  0  0  0  0  0  0  0  0  0  0
  128.7740  129.6610   54.7810 H   0  0  0  0  0  0  0  0  0  0  0  0
  128.9754  131.6203   55.8807 H   0  0  0  0  0  0  0  0  0  0  0  0
  129.0759  130.6248   57.4148 H   0  0  0  0  0  0  0  0  0  0  0  0
  131.1145  130.2063   58.5176 H   0  0  0  0  0  0  0  0  0  0  0  0
  133.5232  130.7934   58.7989 H   0  0  0  0  0  0  0  0  0  0  0  0
  134.6984  132.0863   57.0233 H   0  0  0  0  0  0  0  0  0  0  0  0
  133.4892  132.7852   54.9634 H   0  0  0  0  0  0  0  0  0  0  0  0
  131.0809  132.1978   54.6761 H   0  0  0  0  0  0  0  0  0  0  0  0
  1  2  3  0
  2  3  1  0
  3  4  2  0
  4  5  1  0
  5  6  1  0
  5  7  1  0
  5  8  1  0
  4  9  1  0
  9 10  2  0
 10 11  1  0
 11 12  2  0
 12 13  1  0
 13 14  2  0
 14 15  1  0
 15 16  2  0
 10 17  1  0
 17 18  2  0
 18 19  1  0
 19 20  1  0
 20 21  1  0
 21 22  2  0
 21 23  1  0
 23 24  1  0
 24 25  1  0
 25 26  2  0
 26 27  1  0
 27 28  2  0
 28 29  1  0
 29 30  2  0
 18  3  1  0
 30 25  1  0
 16 11  1  0
  9 31  1  0
 12 32  1  0
 13 33  1  0
 14 34  1  0
 15 35  1  0
 16 36  1  0
 20 37  1  0
 20 38  1  0
 23 39  1  0
 24 40  1  0
 24 41  1  0
 26 42  1  0
 27 43  1  0
 28 44  1  0
 29 45  1  0
 30 46  1  0
M  END
>  <Binding energies>  (1) 
[-8.13]

>  <Ligand effiencies>  (1) 
[-0.26225806451612904]

>  <Interactions>  (1) 
["V-A:ILE:538:CG2:4861, V-A:PRO:540:CD:4885, V-B:TYR:539:CD2:9846, V-B:PRO:540:CA:9855, V-B:ALA:541:CB:9864, V-A:ILE:538:CB:4860, V-A:ILE:538:CA:4858, V-B:TYR:539:CE2:9848, V-B:PRO:540:N:9856, V-B:ILE:538:CB:9834, H-A:TYR:531:OH:4793, V-B:TYR:531:CE2:9765, V-B:PRO:540:CD:9859, V-B:PRO:540:CB:9857, V-B:ILE:538:CG2:9835, V-A:PRO:540:CA:4881, V-B:TYR:539:CZ:9849, V-B:ILE:538:CA:9832, V-B:TYR:539:C:9839, V-B:LEU:363:CD1:8161, V-B:TYR:531:CZ:9766, V-A:PRO:540:CB:4883, V-A:LEU:363:CD1:3187, V-A:TYR:531:CE2:4791, H-B:TYR:539:OH:9850, V-A:LEU:363:CB:3185, V-A:LEU:363:CA:3183, V-B:LEU:363:CA:8157, V-B:LEU:363:CB:8159, V-B:PRO:540:CG:9858, V-A:PRO:540:CG:4884, H-A:MET:535:SD:4832"]

$$$$
3ai_Grossjean_2025
     RDKit          3D

 39 41  0  0  0  0  0  0  0  0999 V2000
  133.8020  127.3530   74.5040 N   0  0  0  0  0  0  0  0  0  0  0  0
  133.0770  126.4740   74.3010 C   0  0  0  0  0  0  0  0  0  0  0  0
  132.1590  125.3600   74.0450 C   0  0  0  0  0  0  0  0  0  0  0  0
  132.4520  124.0570   74.5170 C   0  0  0  0  0  0  0  0  0  0  0  0
  133.7070  123.7380   75.3530 C   0  0  0  0  0  0  0  0  0  0  0  0
  134.7790  124.4310   74.9620 F   0  0  0  0  0  0  0  0  0  0  0  0
  133.4850  124.0300   76.6350 F   0  0  0  0  0  0  0  0  0  0  0  0
  134.0100  122.4440   75.2500 F   0  0  0  0  0  0  0  0  0  0  0  0
  131.5660  123.0150   74.2040 C   0  0  0  0  0  0  0  0  0  0  0  0
  130.4210  123.2660   73.4400 C   0  0  0  0  0  0  0  0  0  0  0  0
  129.4460  122.1900   73.0680 C   0  0  0  0  0  0  0  0  0  0  0  0
  128.9090  121.3390   74.0470 C   0  0  0  0  0  0  0  0  0  0  0  0
  128.0000  120.3410   73.7100 C   0  0  0  0  0  0  0  0  0  0  0  0
  127.6130  120.1800   72.3830 C   0  0  0  0  0  0  0  0  0  0  0  0
  128.1280  121.0110   71.3940 C   0  0  0  0  0  0  0  0  0  0  0  0
  129.0370  122.0080   71.7360 C   0  0  0  0  0  0  0  0  0  0  0  0
  130.1480  124.5140   72.9830 N   0  0  0  0  0  0  0  0  0  0  0  0
  130.9760  125.5410   73.2920 C   0  0  0  0  0  0  0  0  0  0  0  0
  130.4460  127.1050   72.6260 S   0  0  0  0  0  0  0  0  0  0  0  0
  128.6310  127.0520   72.4490 C   0  0  0  0  0  0  0  0  0  0  0  0
  127.8790  128.2120   73.1180 C   0  0  0  0  0  0  0  0  0  0  0  0
  128.3110  129.3660   73.0500 O   0  0  0  0  0  0  0  0  0  0  0  0
  126.7460  127.8530   73.7630 N   0  0  0  0  0  0  0  0  0  0  0  0
  125.8680  128.6850   74.4470 C   0  0  0  0  0  0  0  0  0  0  0  0
  126.2870  129.7800   75.2010 C   0  0  0  0  0  0  0  0  0  0  0  0
  125.1320  130.3280   75.7090 C   0  0  0  0  0  0  0  0  0  0  0  0
  124.0720  129.6010   75.2820 O   0  0  0  0  0  0  0  0  0  0  0  0
  124.5510  128.5630   74.4830 N   0  0  0  0  0  0  0  0  0  0  0  0
  131.7727  121.9953   74.5612 H   0  0  0  0  0  0  0  0  0  0  0  0
  129.2117  121.4632   75.0972 H   0  0  0  0  0  0  0  0  0  0  0  0
  127.5890  119.6821   74.4891 H   0  0  0  0  0  0  0  0  0  0  0  0
  126.8954  119.3906   72.1148 H   0  0  0  0  0  0  0  0  0  0  0  0
  127.8185  120.8810   70.3465 H   0  0  0  0  0  0  0  0  0  0  0  0
  129.4417  122.6639   70.9511 H   0  0  0  0  0  0  0  0  0  0  0  0
  128.3924  127.0649   71.3753 H   0  0  0  0  0  0  0  0  0  0  0  0
  128.2992  126.1358   72.9594 H   0  0  0  0  0  0  0  0  0  0  0  0
  126.4960  126.8750   73.7510 H   0  0  0  0  0  0  0  0  0  0  0  0
  127.3182  130.1302   75.3562 H   0  0  0  0  0  0  0  0  0  0  0  0
  125.0780  131.2145   76.3580 H   0  0  0  0  0  0  0  0  0  0  0  0
  1  2  3  0
  2  3  1  0
  3  4  2  0
  4  5  1  0
  5  6  1  0
  5  7  1  0
  5  8  1  0
  4  9  1  0
  9 10  2  0
 10 11  1  0
 11 12  2  0
 12 13  1  0
 13 14  2  0
 14 15  1  0
 15 16  2  0
 10 17  1  0
 17 18  2  0
 18 19  1  0
 19 20  1  0
 20 21  1  0
 21 22  2  0
 21 23  1  0
 23 24  1  0
 24 25  1  0
 25 26  2  0
 26 27  1  0
 27 28  1  0
 18  3  1  0
 28 24  2  0
 16 11  1  0
  9 29  1  0
 12 30  1  0
 13 31  1  0
 14 32  1  0
 15 33  1  0
 16 34  1  0
 20 35  1  0
 20 36  1  0
 23 37  1  0
 25 38  1  0
 26 39  1  0
M  END
>  <Binding energies>  (1) 
[-8.7]

>  <Ligand effiencies>  (1) 
[-0.3]

>  <Interactions>  (1) 
["V-B:GLY:544:C:9884, V-A:LYS:547:CE:4948, V-B:LYS:547:CE:9922, V-A:HIS:456:CD2:4066, V-B:HIS:456:CD2:9040, V-B:GLU:543:C:9874, V-A:HIS:456:CG:4064, H-B:GLY:544:O:9885, H-B:LYS:547:NZ:9923, H-A:LYS:547:NZ:4949, V-B:GLY:544:CA:9886, V-A:TYR:484:CD1:4341, V-A:TYR:484:CG:4340, V-B:GLU:543:CA:9876, V-A:TYR:484:CB:4339, V-B:LYS:547:CD:9921, V-A:ASP:473:CG:4238, V-A:HIS:456:C:4059, V-B:VAL:458:CG2:9059, V-B:HIS:456:CB:9037, V-A:LYS:471:CD:4217, V-A:HIS:456:CB:4063, V-B:HIS:456:C:9033, V-A:VAL:458:CG2:4085, V-A:LYS:471:CE:4218, V-A:LYS:547:CD:4947, V-A:VAL:457:C:4071, V-A:LYS:547:CG:4946, V-B:LYS:471:CE:9192, V-B:LYS:471:CD:9191, V-A:VAL:457:CA:4073, V-A:HIS:456:CA:4061, V-A:LYS:471:CG:4216, H-B:VAL:457:N:9048, V-A:ASP:473:CB:4237, V-A:LYS:471:CB:4215"]

$$$$
3aj_Grossjean_2025
     RDKit          3D

 39 41  0  0  0  0  0  0  0  0999 V2000
  124.7390  127.3670   74.6400 N   0  0  0  0  0  0  0  0  0  0  0  0
  125.4740  128.2390   74.4450 C   0  0  0  0  0  0  0  0  0  0  0  0
  126.4040  129.3450   74.1990 C   0  0  0  0  0  0  0  0  0  0  0  0
  126.2220  130.5980   74.8330 C   0  0  0  0  0  0  0  0  0  0  0  0
  125.0840  130.8640   75.8370 C   0  0  0  0  0  0  0  0  0  0  0  0
  124.8240  132.1650   75.9920 F   0  0  0  0  0  0  0  0  0  0  0  0
  123.9620  130.2760   75.4220 F   0  0  0  0  0  0  0  0  0  0  0  0
  125.4090  130.3780   77.0360 F   0  0  0  0  0  0  0  0  0  0  0  0
  127.1120  131.6390   74.5280 C   0  0  0  0  0  0  0  0  0  0  0  0
  128.1510  131.4360   73.6130 C   0  0  0  0  0  0  0  0  0  0  0  0
  129.1220  132.5160   73.2440 C   0  0  0  0  0  0  0  0  0  0  0  0
  129.3830  132.8140   71.8980 C   0  0  0  0  0  0  0  0  0  0  0  0
  130.2820  133.8190   71.5480 C   0  0  0  0  0  0  0  0  0  0  0  0
  130.9350  134.5390   72.5440 C   0  0  0  0  0  0  0  0  0  0  0  0
  130.6920  134.2630   73.8850 C   0  0  0  0  0  0  0  0  0  0  0  0
  129.7920  133.2600   74.2300 C   0  0  0  0  0  0  0  0  0  0  0  0
  128.3160  130.2360   73.0020 N   0  0  0  0  0  0  0  0  0  0  0  0
  127.4850  129.2080   73.2980 C   0  0  0  0  0  0  0  0  0  0  0  0
  127.8690  127.7090   72.4190 S   0  0  0  0  0  0  0  0  0  0  0  0
  129.6800  127.6330   72.2070 C   0  0  0  0  0  0  0  0  0  0  0  0
  130.3510  126.3840   72.7960 C   0  0  0  0  0  0  0  0  0  0  0  0
  129.8120  125.2780   72.7110 O   0  0  0  0  0  0  0  0  0  0  0  0
  131.5430  126.6120   73.3920 N   0  0  0  0  0  0  0  0  0  0  0  0
  132.3620  125.6680   73.9960 C   0  0  0  0  0  0  0  0  0  0  0  0
  132.0210  124.4890   74.4720 N   0  0  0  0  0  0  0  0  0  0  0  0
  133.0590  123.8500   74.9750 C   0  0  0  0  0  0  0  0  0  0  0  0
  134.2810  124.5160   74.9130 C   0  0  0  0  0  0  0  0  0  0  0  0
  134.0440  126.0610   74.1550 S   0  0  0  0  0  0  0  0  0  0  0  0
  126.9923  132.6201   75.0109 H   0  0  0  0  0  0  0  0  0  0  0  0
  128.8704  132.2459   71.1077 H   0  0  0  0  0  0  0  0  0  0  0  0
  130.4750  134.0426   70.4884 H   0  0  0  0  0  0  0  0  0  0  0  0
  131.6473  135.3308   72.2689 H   0  0  0  0  0  0  0  0  0  0  0  0
  131.2091  134.8352   74.6694 H   0  0  0  0  0  0  0  0  0  0  0  0
  129.6017  133.0458   75.2920 H   0  0  0  0  0  0  0  0  0  0  0  0
  129.8988  127.6617   71.1294 H   0  0  0  0  0  0  0  0  0  0  0  0
  130.0902  128.4913   72.7593 H   0  0  0  0  0  0  0  0  0  0  0  0
  131.8880  127.5600   73.3950 H   0  0  0  0  0  0  0  0  0  0  0  0
  132.9653  122.8477   75.4185 H   0  0  0  0  0  0  0  0  0  0  0  0
  135.2406  124.1266   75.2839 H   0  0  0  0  0  0  0  0  0  0  0  0
  1  2  3  0
  2  3  1  0
  3  4  2  0
  4  5  1  0
  5  6  1  0
  5  7  1  0
  5  8  1  0
  4  9  1  0
  9 10  2  0
 10 11  1  0
 11 12  2  0
 12 13  1  0
 13 14  2  0
 14 15  1  0
 15 16  2  0
 10 17  1  0
 17 18  2  0
 18 19  1  0
 19 20  1  0
 20 21  1  0
 21 22  2  0
 21 23  1  0
 23 24  1  0
 24 25  2  0
 25 26  1  0
 26 27  2  0
 27 28  1  0
 18  3  1  0
 28 24  1  0
 16 11  1  0
  9 29  1  0
 12 30  1  0
 13 31  1  0
 14 32  1  0
 15 33  1  0
 16 34  1  0
 20 35  1  0
 20 36  1  0
 23 37  1  0
 26 38  1  0
 27 39  1  0
M  END
>  <Binding energies>  (1) 
[-9.02]

>  <Ligand effiencies>  (1) 
[-0.31103448275862067]

>  <Interactions>  (1) 
["V-B:TYR:484:CG:9314, V-A:LYS:547:CE:4948, V-B:HIS:456:CG:9038, V-B:TYR:484:CB:9313, V-A:GLY:544:C:4910, V-A:GLU:543:C:4900, V-B:LYS:547:CE:9922, V-A:HIS:456:CD2:4066, V-B:HIS:456:CD2:9040, V-A:HIS:456:CG:4064, H-B:LYS:547:NZ:9923, H-A:LYS:547:NZ:4949, V-A:GLY:544:CA:4912, H-A:GLY:544:O:4911, V-B:LYS:547:CD:9921, V-A:HIS:456:C:4059, V-B:VAL:458:CG2:9059, V-B:VAL:457:C:9045, V-B:HIS:456:CB:9037, V-A:HIS:456:CB:4063, V-B:HIS:456:CA:9035, V-B:HIS:456:C:9033, V-A:VAL:458:CG2:4085, V-A:LYS:471:CE:4218, V-A:VAL:457:C:4071, V-B:LYS:471:CE:9192, V-B:LYS:471:CD:9191, V-B:LYS:471:CG:9190, V-B:ASP:473:CG:9212, V-B:VAL:457:CA:9047, V-A:HIS:456:CA:4061, V-A:GLU:543:CA:4902, V-B:LYS:471:CB:9189, V-B:ASP:473:CB:9211"]

$$$$
3ak_Grossjean_2025
     RDKit          3D

 57 58  0  0  0  0  0  0  0  0999 V2000
  127.5780  127.7510   77.1040 C   0  0  0  0  0  0  0  0  0  0  0  0
  128.9470  127.3930   76.9970 O   0  0  0  0  0  0  0  0  0  0  0  0
  129.7280  127.8080   78.1090 C   0  0  0  0  0  0  0  0  0  0  0  0
  129.7690  126.6740   79.1420 C   0  0  0  0  0  0  0  0  0  0  0  0
  129.6040  125.4300   78.4700 O   0  0  0  0  0  0  0  0  0  0  0  0
  130.8100  124.7620   78.1080 C   0  0  0  0  0  0  0  0  0  0  0  0
  131.7460  125.6080   77.2240 C   0  0  0  0  0  0  0  0  0  0  0  0
  131.2900  125.5570   75.8800 O   0  0  0  0  0  0  0  0  0  0  0  0
  132.1160  124.7830   75.0200 C   0  0  0  0  0  0  0  0  0  0  0  0
  132.7180  125.6740   73.9180 C   0  0  0  0  0  0  0  0  0  0  0  0
  131.7710  126.6450   73.3670 N   0  0  0  0  0  0  0  0  0  0  0  0
  130.5490  126.3660   72.8750 C   0  0  0  0  0  0  0  0  0  0  0  0
  130.0830  125.2260   72.8550 O   0  0  0  0  0  0  0  0  0  0  0  0
  129.6950  127.5150   72.3140 C   0  0  0  0  0  0  0  0  0  0  0  0
  127.9180  127.5050   72.7530 S   0  0  0  0  0  0  0  0  0  0  0  0
  127.4920  129.0900   73.4570 C   0  0  0  0  0  0  0  0  0  0  0  0
  128.3260  130.1130   73.1460 N   0  0  0  0  0  0  0  0  0  0  0  0
  128.0900  131.3550   73.6390 C   0  0  0  0  0  0  0  0  0  0  0  0
  129.0620  132.4270   73.2430 C   0  0  0  0  0  0  0  0  0  0  0  0
  129.3090  132.7070   71.8900 C   0  0  0  0  0  0  0  0  0  0  0  0
  130.2080  133.7030   71.5160 C   0  0  0  0  0  0  0  0  0  0  0  0
  130.8720  134.4350   72.4940 C   0  0  0  0  0  0  0  0  0  0  0  0
  130.6430  134.1800   73.8420 C   0  0  0  0  0  0  0  0  0  0  0  0
  129.7440  133.1840   74.2120 C   0  0  0  0  0  0  0  0  0  0  0  0
  126.9820  131.6040   74.4560 C   0  0  0  0  0  0  0  0  0  0  0  0
  126.1020  130.5640   74.7920 C   0  0  0  0  0  0  0  0  0  0  0  0
  124.8940  130.8760   75.6960 C   0  0  0  0  0  0  0  0  0  0  0  0
  124.5860  132.1710   75.6170 F   0  0  0  0  0  0  0  0  0  0  0  0
  123.8380  130.1570   75.3120 F   0  0  0  0  0  0  0  0  0  0  0  0
  125.1220  130.5950   76.9810 F   0  0  0  0  0  0  0  0  0  0  0  0
  126.3610  129.2690   74.2830 C   0  0  0  0  0  0  0  0  0  0  0  0
  125.4760  128.1440   74.6010 C   0  0  0  0  0  0  0  0  0  0  0  0
  124.7780  127.2550   74.8530 N   0  0  0  0  0  0  0  0  0  0  0  0
  127.2999  127.8237   78.1658 H   0  0  0  0  0  0  0  0  0  0  0  0
  127.4137  128.7223   76.6146 H   0  0  0  0  0  0  0  0  0  0  0  0
  126.9592  126.9845   76.6146 H   0  0  0  0  0  0  0  0  0  0  0  0
  130.7502  128.0402   77.7756 H   0  0  0  0  0  0  0  0  0  0  0  0
  129.2828  128.7065   78.5611 H   0  0  0  0  0  0  0  0  0  0  0  0
  130.7370  126.6856   79.6644 H   0  0  0  0  0  0  0  0  0  0  0  0
  128.9613  126.8102   79.8763 H   0  0  0  0  0  0  0  0  0  0  0  0
  131.3492  124.4957   79.0290 H   0  0  0  0  0  0  0  0  0  0  0  0
  130.5233  123.8785   77.5187 H   0  0  0  0  0  0  0  0  0  0  0  0
  131.7411  126.6505   77.5750 H   0  0  0  0  0  0  0  0  0  0  0  0
  132.7698  125.2101   77.2826 H   0  0  0  0  0  0  0  0  0  0  0  0
  132.9294  124.3314   75.6069 H   0  0  0  0  0  0  0  0  0  0  0  0
  131.5081  123.9946   74.5522 H   0  0  0  0  0  0  0  0  0  0  0  0
  133.5716  126.2229   74.3422 H   0  0  0  0  0  0  0  0  0  0  0  0
  133.0159  125.0100   73.0931 H   0  0  0  0  0  0  0  0  0  0  0  0
  132.0740  127.6090   73.3670 H   0  0  0  0  0  0  0  0  0  0  0  0
  130.1240  128.4593   72.6803 H   0  0  0  0  0  0  0  0  0  0  0  0
  129.7246  127.3917   71.2213 H   0  0  0  0  0  0  0  0  0  0  0  0
  128.7846  132.1311   71.1132 H   0  0  0  0  0  0  0  0  0  0  0  0
  130.3919  133.9096   70.4513 H   0  0  0  0  0  0  0  0  0  0  0  0
  131.5831  135.2210   72.1997 H   0  0  0  0  0  0  0  0  0  0  0  0
  131.1699  134.7627   74.6120 H   0  0  0  0  0  0  0  0  0  0  0  0
  129.5642  132.9860   75.2790 H   0  0  0  0  0  0  0  0  0  0  0  0
  126.7998  132.6198   74.8368 H   0  0  0  0  0  0  0  0  0  0  0  0
  1  2  1  0
  2  3  1  0
  3  4  1  0
  4  5  1  0
  5  6  1  0
  6  7  1  0
  7  8  1  0
  8  9  1  0
  9 10  1  0
 10 11  1  0
 11 12  1  0
 12 13  2  0
 12 14  1  0
 14 15  1  0
 15 16  1  0
 16 17  2  0
 17 18  1  0
 18 19  1  0
 19 20  2  0
 20 21  1  0
 21 22  2  0
 22 23  1  0
 23 24  2  0
 18 25  2  0
 25 26  1  0
 26 27  1  0
 27 28  1  0
 27 29  1  0
 27 30  1  0
 26 31  2  0
 31 32  1  0
 32 33  3  0
 31 16  1  0
 24 19  1  0
  1 34  1  0
  1 35  1  0
  1 36  1  0
  3 37  1  0
  3 38  1  0
  4 39  1  0
  4 40  1  0
  6 41  1  0
  6 42  1  0
  7 43  1  0
  7 44  1  0
  9 45  1  0
  9 46  1  0
 10 47  1  0
 10 48  1  0
 11 49  1  0
 14 50  1  0
 14 51  1  0
 20 52  1  0
 21 53  1  0
 22 54  1  0
 23 55  1  0
 24 56  1  0
 25 57  1  0
M  END
>  <Binding energies>  (1) 
[-7.64]

>  <Ligand effiencies>  (1) 
[-0.22470588235294117]

>  <Interactions>  (1) 
["V-B:TYR:484:CG:9314, V-A:LYS:547:CE:4948, V-B:HIS:456:CG:9038, V-B:TYR:484:CB:9313, V-A:GLY:544:C:4910, V-A:GLU:543:C:4900, V-B:LYS:547:CE:9922, V-A:HIS:456:CD2:4066, V-B:HIS:456:CD2:9040, V-A:HIS:456:CG:4064, H-B:LYS:547:NZ:9923, H-A:LYS:547:NZ:4949, V-A:GLY:544:CA:4912, H-A:GLY:544:O:4911, V-B:LYS:547:CD:9921, V-B:VAL:458:CG2:9059, V-B:VAL:457:C:9045, V-B:HIS:456:CB:9037, V-A:LYS:471:CD:4217, V-A:HIS:456:CB:4063, V-B:HIS:456:CA:9035, V-B:HIS:456:C:9033, V-A:VAL:458:CG2:4085, V-A:LYS:471:CE:4218, V-B:LYS:547:CG:9920, V-B:LYS:471:CE:9192, V-B:LYS:471:CD:9191, V-B:LYS:471:CG:9190, V-B:ASP:473:CG:9212, V-B:VAL:457:CA:9047, V-A:GLU:543:CA:4902, V-B:TYR:484:CD1:9315, V-B:LYS:471:CB:9189, V-B:ASP:473:CB:9211"]

$$$$
3bc_Grossjean_2025
     RDKit          3D

 47 49  0  0  0  0  0  0  0  0999 V2000
  123.9430  132.5140   75.9980 C   0  0  0  0  0  0  0  0  0  0  0  0
  123.7850  131.1200   76.2370 O   0  0  0  0  0  0  0  0  0  0  0  0
  124.5430  130.2210   75.5090 C   0  0  0  0  0  0  0  0  0  0  0  0
  125.9080  130.4920   75.4170 C   0  0  0  0  0  0  0  0  0  0  0  0
  126.7520  129.6440   74.7040 C   0  0  0  0  0  0  0  0  0  0  0  0
  126.2370  128.5150   74.0650 C   0  0  0  0  0  0  0  0  0  0  0  0
  127.1680  127.7110   73.3790 N   0  0  0  0  0  0  0  0  0  0  0  0
  128.2980  128.0760   72.7380 C   0  0  0  0  0  0  0  0  0  0  0  0
  128.7330  129.2280   72.6820 O   0  0  0  0  0  0  0  0  0  0  0  0
  129.0680  126.9180   72.0860 C   0  0  0  0  0  0  0  0  0  0  0  0
  130.8630  126.8980   72.4140 S   0  0  0  0  0  0  0  0  0  0  0  0
  131.2460  125.3760   73.2520 C   0  0  0  0  0  0  0  0  0  0  0  0
  130.3460  124.3880   73.0260 N   0  0  0  0  0  0  0  0  0  0  0  0
  130.5190  123.1700   73.6030 C   0  0  0  0  0  0  0  0  0  0  0  0
  129.4670  122.1390   73.3200 C   0  0  0  0  0  0  0  0  0  0  0  0
  129.1390  121.7930   72.0010 C   0  0  0  0  0  0  0  0  0  0  0  0
  128.1640  120.8360   71.7300 C   0  0  0  0  0  0  0  0  0  0  0  0
  127.5010  120.2120   72.7810 C   0  0  0  0  0  0  0  0  0  0  0  0
  127.8050  120.5380   74.0990 C   0  0  0  0  0  0  0  0  0  0  0  0
  128.7800  121.4960   74.3640 C   0  0  0  0  0  0  0  0  0  0  0  0
  131.6160  122.9170   74.4320 C   0  0  0  0  0  0  0  0  0  0  0  0
  132.5670  123.9190   74.6570 C   0  0  0  0  0  0  0  0  0  0  0  0
  133.7590  123.5930   75.5560 C   0  0  0  0  0  0  0  0  0  0  0  0
  132.3960  125.1820   74.0500 C   0  0  0  0  0  0  0  0  0  0  0  0
  133.4040  126.2290   74.2310 C   0  0  0  0  0  0  0  0  0  0  0  0
  134.2010  127.0560   74.3770 N   0  0  0  0  0  0  0  0  0  0  0  0
  124.8680  128.2280   74.1640 C   0  0  0  0  0  0  0  0  0  0  0  0
  124.0270  129.0790   74.8780 C   0  0  0  0  0  0  0  0  0  0  0  0
  124.0033  133.0462   76.9588 H   0  0  0  0  0  0  0  0  0  0  0  0
  124.8663  132.6855   75.4252 H   0  0  0  0  0  0  0  0  0  0  0  0
  123.0815  132.8878   75.4252 H   0  0  0  0  0  0  0  0  0  0  0  0
  126.3216  131.3831   75.9118 H   0  0  0  0  0  0  0  0  0  0  0  0
  127.8280  129.8647   74.6443 H   0  0  0  0  0  0  0  0  0  0  0  0
  126.9820  126.7200   73.4320 H   0  0  0  0  0  0  0  0  0  0  0  0
  128.6432  125.9742   72.4586 H   0  0  0  0  0  0  0  0  0  0  0  0
  128.9572  127.0505   70.9996 H   0  0  0  0  0  0  0  0  0  0  0  0
  129.6603  122.2855   71.1669 H   0  0  0  0  0  0  0  0  0  0  0  0
  127.9197  120.5751   70.6897 H   0  0  0  0  0  0  0  0  0  0  0  0
  126.7310  119.4556   72.5690 H   0  0  0  0  0  0  0  0  0  0  0  0
  127.2779  120.0416   74.9271 H   0  0  0  0  0  0  0  0  0  0  0  0
  129.0163  121.7537   75.4069 H   0  0  0  0  0  0  0  0  0  0  0  0
  131.7316  121.9315   74.9069 H   0  0  0  0  0  0  0  0  0  0  0  0
  133.4565  123.6757   76.6104 H   0  0  0  0  0  0  0  0  0  0  0  0
  134.1023  122.5680   75.3524 H   0  0  0  0  0  0  0  0  0  0  0  0
  134.5762  124.3006   75.3524 H   0  0  0  0  0  0  0  0  0  0  0  0
  124.4579  127.3306   73.6777 H   0  0  0  0  0  0  0  0  0  0  0  0
  122.9524  128.8543   74.9474 H   0  0  0  0  0  0  0  0  0  0  0  0
  1  2  1  0
  2  3  1  0
  3  4  2  0
  4  5  1  0
  5  6  2  0
  6  7  1  0
  7  8  1  0
  8  9  2  0
  8 10  1  0
 10 11  1  0
 11 12  1  0
 12 13  2  0
 13 14  1  0
 14 15  1  0
 15 16  2  0
 16 17  1  0
 17 18  2  0
 18 19  1  0
 19 20  2  0
 14 21  2  0
 21 22  1  0
 22 23  1  0
 22 24  2  0
 24 25  1  0
 25 26  3  0
  6 27  1  0
 27 28  2  0
 28  3  1  0
 24 12  1  0
 20 15  1  0
  1 29  1  0
  1 30  1  0
  1 31  1  0
  4 32  1  0
  5 33  1  0
  7 34  1  0
 10 35  1  0
 10 36  1  0
 16 37  1  0
 17 38  1  0
 18 39  1  0
 19 40  1  0
 20 41  1  0
 21 42  1  0
 23 43  1  0
 23 44  1  0
 23 45  1  0
 27 46  1  0
 28 47  1  0
M  END
>  <Binding energies>  (1) 
[-8.87]

>  <Ligand effiencies>  (1) 
[-0.3058620689655172]

>  <Interactions>  (1) 
["V-B:GLY:544:C:9884, V-B:HIS:456:CG:9038, V-B:LYS:547:CE:9922, V-A:HIS:456:CD2:4066, V-B:HIS:456:CD2:9040, V-B:GLU:543:C:9874, V-A:HIS:456:CG:4064, H-B:GLY:544:O:9885, H-B:LYS:547:NZ:9923, H-A:LYS:547:NZ:4949, V-B:GLY:544:CA:9886, V-A:TYR:484:CG:4340, V-A:TYR:484:CB:4339, V-A:ASP:473:CG:4238, V-A:HIS:456:C:4059, V-B:VAL:458:CG2:9059, V-B:VAL:457:C:9045, V-B:HIS:456:CB:9037, V-A:LYS:471:CD:4217, V-A:HIS:456:CB:4063, V-B:HIS:456:CA:9035, V-B:HIS:456:C:9033, V-A:VAL:458:CG2:4085, V-A:LYS:471:CE:4218, V-B:LYS:471:CE:9192, V-B:LYS:471:CD:9191, V-B:LYS:471:CG:9190, V-B:ASP:473:CG:9212, V-B:VAL:457:CA:9047, V-A:LYS:471:CG:4216, V-B:LYS:471:CB:9189, V-B:ASP:473:CB:9211, V-B:LYS:471:C:9185, V-B:ASP:473:CA:9209, V-B:LEU:472:C:9198, V-B:LEU:472:CA:9200"]

$$$$
3bd_Grossjean_2025
     RDKit          3D

 43 45  0  0  0  0  0  0  0  0999 V2000
  133.7890  123.6770   75.4150 C   0  0  0  0  0  0  0  0  0  0  0  0
  132.5640  123.9830   74.5550 C   0  0  0  0  0  0  0  0  0  0  0  0
  131.6650  122.9430   74.2910 C   0  0  0  0  0  0  0  0  0  0  0  0
  130.5320  123.1810   73.5040 C   0  0  0  0  0  0  0  0  0  0  0  0
  129.5270  122.1140   73.1860 C   0  0  0  0  0  0  0  0  0  0  0  0
  129.1220  121.1960   74.1670 C   0  0  0  0  0  0  0  0  0  0  0  0
  128.1900  120.2020   73.8790 C   0  0  0  0  0  0  0  0  0  0  0  0
  127.6500  120.1120   72.6000 C   0  0  0  0  0  0  0  0  0  0  0  0
  128.0370  121.0080   71.6090 C   0  0  0  0  0  0  0  0  0  0  0  0
  128.9680  122.0000   71.9010 C   0  0  0  0  0  0  0  0  0  0  0  0
  130.2840  124.4180   73.0000 N   0  0  0  0  0  0  0  0  0  0  0  0
  131.1450  125.4380   73.2450 C   0  0  0  0  0  0  0  0  0  0  0  0
  130.7110  127.0090   72.5170 S   0  0  0  0  0  0  0  0  0  0  0  0
  128.9100  127.0380   72.2710 C   0  0  0  0  0  0  0  0  0  0  0  0
  128.2560  128.2330   72.9660 C   0  0  0  0  0  0  0  0  0  0  0  0
  128.8400  129.3170   72.9700 O   0  0  0  0  0  0  0  0  0  0  0  0
  127.0620  127.9890   73.5490 N   0  0  0  0  0  0  0  0  0  0  0  0
  126.2120  128.8790   74.2330 C   0  0  0  0  0  0  0  0  0  0  0  0
  126.7810  130.0940   74.6220 C   0  0  0  0  0  0  0  0  0  0  0  0
  126.0200  131.0350   75.3120 C   0  0  0  0  0  0  0  0  0  0  0  0
  124.6920  130.7560   75.6220 C   0  0  0  0  0  0  0  0  0  0  0  0
  124.1180  129.5420   75.2510 C   0  0  0  0  0  0  0  0  0  0  0  0
  124.8750  128.6000   74.5600 C   0  0  0  0  0  0  0  0  0  0  0  0
  132.3100  125.2650   74.0230 C   0  0  0  0  0  0  0  0  0  0  0  0
  133.2320  126.3750   74.2820 C   0  0  0  0  0  0  0  0  0  0  0  0
  133.9600  127.2510   74.4890 N   0  0  0  0  0  0  0  0  0  0  0  0
  133.5166  123.7450   76.4786 H   0  0  0  0  0  0  0  0  0  0  0  0
  134.1486  122.6614   75.1928 H   0  0  0  0  0  0  0  0  0  0  0  0
  134.5839  124.4042   75.1928 H   0  0  0  0  0  0  0  0  0  0  0  0
  131.8487  121.9392   74.7017 H   0  0  0  0  0  0  0  0  0  0  0  0
  129.5473  121.2625   75.1793 H   0  0  0  0  0  0  0  0  0  0  0  0
  127.8821  119.4909   74.6597 H   0  0  0  0  0  0  0  0  0  0  0  0
  126.9130  119.3281   72.3712 H   0  0  0  0  0  0  0  0  0  0  0  0
  127.6088  120.9327   70.5986 H   0  0  0  0  0  0  0  0  0  0  0  0
  129.2714  122.7062   71.1141 H   0  0  0  0  0  0  0  0  0  0  0  0
  128.6997  127.0955   71.1928 H   0  0  0  0  0  0  0  0  0  0  0  0
  128.4924  126.1197   72.7094 H   0  0  0  0  0  0  0  0  0  0  0  0
  126.7490  127.0290   73.5450 H   0  0  0  0  0  0  0  0  0  0  0  0
  127.8331  130.3084   74.3828 H   0  0  0  0  0  0  0  0  0  0  0  0
  126.4668  131.9948   75.6107 H   0  0  0  0  0  0  0  0  0  0  0  0
  124.0907  131.5004   76.1645 H   0  0  0  0  0  0  0  0  0  0  0  0
  123.0689  129.3283   75.5035 H   0  0  0  0  0  0  0  0  0  0  0  0
  124.4265  127.6382   74.2704 H   0  0  0  0  0  0  0  0  0  0  0  0
  1  2  1  0
  2  3  2  0
  3  4  1  0
  4  5  1  0
  5  6  2  0
  6  7  1  0
  7  8  2  0
  8  9  1  0
  9 10  2  0
  4 11  2  0
 11 12  1  0
 12 13  1  0
 13 14  1  0
 14 15  1  0
 15 16  2  0
 15 17  1  0
 17 18  1  0
 18 19  2  0
 19 20  1  0
 20 21  2  0
 21 22  1  0
 22 23  2  0
 12 24  2  0
 24 25  1  0
 25 26  3  0
 24  2  1  0
 10  5  1  0
 23 18  1  0
  1 27  1  0
  1 28  1  0
  1 29  1  0
  3 30  1  0
  6 31  1  0
  7 32  1  0
  8 33  1  0
  9 34  1  0
 10 35  1  0
 14 36  1  0
 14 37  1  0
 17 38  1  0
 19 39  1  0
 20 40  1  0
 21 41  1  0
 22 42  1  0
 23 43  1  0
M  END
>  <Binding energies>  (1) 
[-9.85]

>  <Ligand effiencies>  (1) 
[-0.3648148148148148]

>  <Interactions>  (1) 
["V-B:GLY:544:C:9884, V-A:LYS:547:CE:4948, V-B:HIS:456:CG:9038, V-B:LYS:547:CE:9922, V-A:HIS:456:CD2:4066, V-B:HIS:456:CD2:9040, V-B:GLU:543:C:9874, V-A:HIS:456:CG:4064, H-B:GLY:544:O:9885, H-B:LYS:547:NZ:9923, H-A:LYS:547:NZ:4949, V-B:GLY:544:CA:9886, V-B:GLU:543:CA:9876, V-A:TYR:484:CB:4339, V-A:ASP:473:CG:4238, V-A:HIS:456:C:4059, V-B:VAL:458:CG2:9059, V-B:VAL:457:C:9045, V-B:HIS:456:CB:9037, V-A:LYS:471:CD:4217, V-A:HIS:456:CB:4063, V-B:HIS:456:CA:9035, V-B:HIS:456:C:9033, V-A:VAL:458:CG2:4085, V-A:LYS:471:CE:4218, V-A:LYS:547:CD:4947, V-B:LYS:471:CE:9192, V-B:LYS:471:CD:9191, V-B:LYS:471:CG:9190, V-B:VAL:457:CA:9047, V-A:LYS:471:CG:4216"]

$$$$
3be_Grossjean_2025
     RDKit          3D

 45 47  0  0  0  0  0  0  0  0999 V2000
  126.3340  131.8710   75.2160 C   0  0  0  0  0  0  0  0  0  0  0  0
  126.1060  130.4080   74.8890 C   0  0  0  0  0  0  0  0  0  0  0  0
  124.9180  129.7580   75.2310 C   0  0  0  0  0  0  0  0  0  0  0  0
  124.7780  128.4100   74.9010 C   0  0  0  0  0  0  0  0  0  0  0  0
  125.8200  127.7500   74.2430 C   0  0  0  0  0  0  0  0  0  0  0  0
  126.9830  128.4610   73.9260 C   0  0  0  0  0  0  0  0  0  0  0  0
  127.9980  127.7370   73.2740 N   0  0  0  0  0  0  0  0  0  0  0  0
  128.1480  127.4930   71.9540 C   0  0  0  0  0  0  0  0  0  0  0  0
  127.3740  127.8830   71.0780 O   0  0  0  0  0  0  0  0  0  0  0  0
  129.3930  126.6690   71.5900 C   0  0  0  0  0  0  0  0  0  0  0  0
  130.8630  126.9860   72.6240 S   0  0  0  0  0  0  0  0  0  0  0  0
  131.3540  125.4480   73.3730 C   0  0  0  0  0  0  0  0  0  0  0  0
  130.4980  124.4260   73.1270 N   0  0  0  0  0  0  0  0  0  0  0  0
  130.7520  123.1910   73.6360 C   0  0  0  0  0  0  0  0  0  0  0  0
  129.7480  122.1200   73.3300 C   0  0  0  0  0  0  0  0  0  0  0  0
  129.2120  121.9870   72.0390 C   0  0  0  0  0  0  0  0  0  0  0  0
  128.2780  120.9970   71.7480 C   0  0  0  0  0  0  0  0  0  0  0  0
  127.8660  120.1220   72.7480 C   0  0  0  0  0  0  0  0  0  0  0  0
  128.3800  120.2330   74.0350 C   0  0  0  0  0  0  0  0  0  0  0  0
  129.3130  121.2260   74.3220 C   0  0  0  0  0  0  0  0  0  0  0  0
  131.8890  122.9580   74.4180 C   0  0  0  0  0  0  0  0  0  0  0  0
  132.7950  123.9960   74.6610 C   0  0  0  0  0  0  0  0  0  0  0  0
  134.0310  123.6900   75.5050 C   0  0  0  0  0  0  0  0  0  0  0  0
  132.5400  125.2750   74.1220 C   0  0  0  0  0  0  0  0  0  0  0  0
  133.5030  126.3620   74.3180 C   0  0  0  0  0  0  0  0  0  0  0  0
  134.2650  127.2180   74.4740 N   0  0  0  0  0  0  0  0  0  0  0  0
  127.1260  129.7800   74.2500 N   0  0  0  0  0  0  0  0  0  0  0  0
  126.3547  132.0038   76.3078 H   0  0  0  0  0  0  0  0  0  0  0  0
  127.2938  132.1970   74.7887 H   0  0  0  0  0  0  0  0  0  0  0  0
  125.5189  132.4736   74.7887 H   0  0  0  0  0  0  0  0  0  0  0  0
  124.1110  130.2970   75.7489 H   0  0  0  0  0  0  0  0  0  0  0  0
  123.8543  127.8701   75.1567 H   0  0  0  0  0  0  0  0  0  0  0  0
  125.7271  126.6864   73.9781 H   0  0  0  0  0  0  0  0  0  0  0  0
  128.6870  127.3300   73.8900 H   0  0  0  0  0  0  0  0  0  0  0  0
  129.1351  125.6036   71.6823 H   0  0  0  0  0  0  0  0  0  0  0  0
  129.6685  126.9669   70.5676 H   0  0  0  0  0  0  0  0  0  0  0  0
  129.5354  122.6762   71.2450 H   0  0  0  0  0  0  0  0  0  0  0  0
  127.8673  120.9068   70.7315 H   0  0  0  0  0  0  0  0  0  0  0  0
  127.1293  119.3378   72.5191 H   0  0  0  0  0  0  0  0  0  0  0  0
  128.0511  119.5395   74.8230 H   0  0  0  0  0  0  0  0  0  0  0  0
  129.7158  121.3116   75.3420 H   0  0  0  0  0  0  0  0  0  0  0  0
  132.0703  121.9591   74.8414 H   0  0  0  0  0  0  0  0  0  0  0  0
  133.7715  123.7543   76.5720 H   0  0  0  0  0  0  0  0  0  0  0  0
  134.3899  122.6759   75.2754 H   0  0  0  0  0  0  0  0  0  0  0  0
  134.8216  124.4195   75.2754 H   0  0  0  0  0  0  0  0  0  0  0  0
  1  2  1  0
  2  3  2  0
  3  4  1  0
  4  5  2  0
  5  6  1  0
  6  7  1  0
  7  8  1  0
  8  9  2  0
  8 10  1  0
 10 11  1  0
 11 12  1  0
 12 13  2  0
 13 14  1  0
 14 15  1  0
 15 16  2  0
 16 17  1  0
 17 18  2  0
 18 19  1  0
 19 20  2  0
 14 21  2  0
 21 22  1  0
 22 23  1  0
 22 24  2  0
 24 25  1  0
 25 26  3  0
  6 27  2  0
 27  2  1  0
 24 12  1  0
 20 15  1  0
  1 28  1  0
  1 29  1  0
  1 30  1  0
  3 31  1  0
  4 32  1  0
  5 33  1  0
  7 34  1  0
 10 35  1  0
 10 36  1  0
 16 37  1  0
 17 38  1  0
 18 39  1  0
 19 40  1  0
 20 41  1  0
 21 42  1  0
 23 43  1  0
 23 44  1  0
 23 45  1  0
M  END
>  <Binding energies>  (1) 
[-8.95]

>  <Ligand effiencies>  (1) 
[-0.3196428571428571]

>  <Interactions>  (1) 
["V-B:GLY:544:C:9884, V-B:HIS:456:CG:9038, V-B:LYS:547:CE:9922, V-A:HIS:456:CD2:4066, V-B:GLU:543:C:9874, V-A:HIS:456:CG:4064, H-B:LYS:547:NZ:9923, H-A:LYS:547:NZ:4949, V-B:GLY:544:CA:9886, V-A:TYR:484:CB:4339, V-B:LYS:547:CD:9921, V-A:ASP:473:CG:4238, V-A:HIS:456:C:4059, V-B:VAL:458:CG2:9059, V-B:VAL:457:C:9045, V-B:HIS:456:CB:9037, V-A:LYS:471:CD:4217, V-A:HIS:456:CB:4063, V-B:HIS:456:CA:9035, V-B:HIS:456:C:9033, V-A:VAL:458:CG2:4085, V-A:LYS:471:CE:4218, H-B:HIS:456:ND1:9039, V-A:LYS:547:CD:4947, V-B:LYS:547:CG:9920, V-B:LYS:471:CE:9192, V-B:ASP:473:CG:9212, V-A:LYS:471:CG:4216, V-B:ASP:473:CB:9211"]

$$$$
3bf_Grossjean_2025
     RDKit          3D

 42 44  0  0  0  0  0  0  0  0999 V2000
  125.1360  131.0900   75.7480 C   0  0  0  0  0  0  0  0  0  0  0  0
  126.2610  130.7500   74.7730 C   0  0  0  0  0  0  0  0  0  0  0  0
  127.1720  131.7590   74.4410 C   0  0  0  0  0  0  0  0  0  0  0  0
  128.2270  131.4870   73.5630 C   0  0  0  0  0  0  0  0  0  0  0  0
  129.2480  132.5170   73.1840 C   0  0  0  0  0  0  0  0  0  0  0  0
  130.1260  133.0420   74.1450 C   0  0  0  0  0  0  0  0  0  0  0  0
  131.0770  133.9990   73.8010 C   0  0  0  0  0  0  0  0  0  0  0  0
  131.1620  134.4450   72.4860 C   0  0  0  0  0  0  0  0  0  0  0  0
  130.3030  133.9420   71.5150 C   0  0  0  0  0  0  0  0  0  0  0  0
  129.3530  132.9860   71.8640 C   0  0  0  0  0  0  0  0  0  0  0  0
  128.3830  130.2490   73.0220 N   0  0  0  0  0  0  0  0  0  0  0  0
  127.4940  129.2680   73.3150 C   0  0  0  0  0  0  0  0  0  0  0  0
  127.8520  127.7190   72.5140 S   0  0  0  0  0  0  0  0  0  0  0  0
  129.6500  127.6400   72.2120 C   0  0  0  0  0  0  0  0  0  0  0  0
  130.3570  126.4080   72.7960 C   0  0  0  0  0  0  0  0  0  0  0  0
  129.8560  125.2870   72.6880 O   0  0  0  0  0  0  0  0  0  0  0  0
  131.5440  126.6660   73.3860 N   0  0  0  0  0  0  0  0  0  0  0  0
  132.4280  125.7730   74.0200 C   0  0  0  0  0  0  0  0  0  0  0  0
  131.8860  124.5790   74.5100 C   0  0  0  0  0  0  0  0  0  0  0  0
  132.7140  123.6460   75.1380 C   0  0  0  0  0  0  0  0  0  0  0  0
  134.0740  123.9330   75.2530 C   0  0  0  0  0  0  0  0  0  0  0  0
  134.6280  125.0770   74.7780 N   0  0  0  0  0  0  0  0  0  0  0  0
  133.8110  125.9750   74.1700 C   0  0  0  0  0  0  0  0  0  0  0  0
  126.4180  129.4660   74.2080 C   0  0  0  0  0  0  0  0  0  0  0  0
  125.5050  128.3820   74.5810 C   0  0  0  0  0  0  0  0  0  0  0  0
  124.7820  127.5270   74.8760 N   0  0  0  0  0  0  0  0  0  0  0  0
  125.4997  130.9801   76.7803 H   0  0  0  0  0  0  0  0  0  0  0  0
  124.8088  132.1272   75.5830 H   0  0  0  0  0  0  0  0  0  0  0  0
  124.2891  130.4077   75.5830 H   0  0  0  0  0  0  0  0  0  0  0  0
  127.0588  132.7655   74.8701 H   0  0  0  0  0  0  0  0  0  0  0  0
  130.0618  132.6920   75.1859 H   0  0  0  0  0  0  0  0  0  0  0  0
  131.7581  134.4007   74.5657 H   0  0  0  0  0  0  0  0  0  0  0  0
  131.9135  135.2003   72.2126 H   0  0  0  0  0  0  0  0  0  0  0  0
  130.3737  134.2976   70.4765 H   0  0  0  0  0  0  0  0  0  0  0  0
  128.6738  132.5916   71.0939 H   0  0  0  0  0  0  0  0  0  0  0  0
  129.8129  127.6422   71.1241 H   0  0  0  0  0  0  0  0  0  0  0  0
  130.0842  128.5121   72.7227 H   0  0  0  0  0  0  0  0  0  0  0  0
  131.8770  127.6170   73.3320 H   0  0  0  0  0  0  0  0  0  0  0  0
  130.8104  124.3761   74.4007 H   0  0  0  0  0  0  0  0  0  0  0  0
  132.3026  122.7055   75.5332 H   0  0  0  0  0  0  0  0  0  0  0  0
  134.7260  123.1999   75.7505 H   0  0  0  0  0  0  0  0  0  0  0  0
  134.2515  126.9031   73.7768 H   0  0  0  0  0  0  0  0  0  0  0  0
  1  2  1  0
  2  3  2  0
  3  4  1  0
  4  5  1  0
  5  6  2  0
  6  7  1  0
  7  8  2  0
  8  9  1  0
  9 10  2  0
  4 11  2  0
 11 12  1  0
 12 13  1  0
 13 14  1  0
 14 15  1  0
 15 16  2  0
 15 17  1  0
 17 18  1  0
 18 19  2  0
 19 20  1  0
 20 21  2  0
 21 22  1  0
 22 23  2  0
 12 24  2  0
 24 25  1  0
 25 26  3  0
 24  2  1  0
 10  5  1  0
 23 18  1  0
  1 27  1  0
  1 28  1  0
  1 29  1  0
  3 30  1  0
  6 31  1  0
  7 32  1  0
  8 33  1  0
  9 34  1  0
 10 35  1  0
 14 36  1  0
 14 37  1  0
 17 38  1  0
 19 39  1  0
 20 40  1  0
 21 41  1  0
 23 42  1  0
M  END
>  <Binding energies>  (1) 
[-9.55]

>  <Ligand effiencies>  (1) 
[-0.35370370370370374]

>  <Interactions>  (1) 
["V-B:TYR:484:CG:9314, V-A:LYS:547:CE:4948, V-B:HIS:456:CG:9038, V-B:TYR:484:CB:9313, V-A:GLY:544:C:4910, V-A:GLU:543:C:4900, V-A:HIS:456:CD2:4066, V-B:HIS:456:CD2:9040, V-A:HIS:456:CG:4064, H-B:LYS:547:NZ:9923, H-A:LYS:547:NZ:4949, V-A:GLY:544:CA:4912, H-A:GLY:544:O:4911, V-B:LYS:547:CD:9921, V-A:HIS:456:C:4059, V-B:VAL:458:CG2:9059, V-B:HIS:456:CB:9037, V-A:LYS:471:CD:4217, V-A:HIS:456:CB:4063, V-B:HIS:456:C:9033, V-A:VAL:458:CG2:4085, V-A:LYS:471:CE:4218, V-A:VAL:457:C:4071, V-B:LYS:471:CE:9192, V-B:LYS:471:CD:9191, V-B:LYS:471:CG:9190, V-B:ASP:473:CG:9212, V-A:HIS:456:CA:4061, V-A:LYS:471:CG:4216, H-A:VAL:457:N:4074, H-A:VAL:458:N:4082, V-A:GLU:543:CA:4902, V-B:TYR:484:CD1:9315"]

$$$$
3bg_Grossjean_2025
     RDKit          3D

 46 48  0  0  0  0  0  0  0  0999 V2000
  124.7970  124.0230   59.7530 C   0  0  0  0  0  0  0  0  0  0  0  0
  126.1630  123.6240   59.1990 C   0  0  0  0  0  0  0  0  0  0  0  0
  127.1910  123.3530   60.1070 C   0  0  0  0  0  0  0  0  0  0  0  0
  128.4580  122.9760   59.6410 C   0  0  0  0  0  0  0  0  0  0  0  0
  129.6030  122.6600   60.5630 C   0  0  0  0  0  0  0  0  0  0  0  0
  129.7460  123.3220   61.7940 C   0  0  0  0  0  0  0  0  0  0  0  0
  130.7940  123.0200   62.6580 C   0  0  0  0  0  0  0  0  0  0  0  0
  131.7240  122.0480   62.3030 C   0  0  0  0  0  0  0  0  0  0  0  0
  131.6150  121.3850   61.0860 C   0  0  0  0  0  0  0  0  0  0  0  0
  130.5660  121.6920   60.2250 C   0  0  0  0  0  0  0  0  0  0  0  0
  128.6950  122.8520   58.3080 N   0  0  0  0  0  0  0  0  0  0  0  0
  127.7060  123.1080   57.4130 C   0  0  0  0  0  0  0  0  0  0  0  0
  128.1380  122.8740   55.6960 S   0  0  0  0  0  0  0  0  0  0  0  0
  128.4320  124.5120   54.9530 C   0  0  0  0  0  0  0  0  0  0  0  0
  129.4450  125.3300   55.7600 C   0  0  0  0  0  0  0  0  0  0  0  0
  129.0650  126.2940   56.4240 O   0  0  0  0  0  0  0  0  0  0  0  0
  130.7300  124.9470   55.6700 N   0  0  0  0  0  0  0  0  0  0  0  0
  131.8760  125.6850   56.2030 C   0  0  0  0  0  0  0  0  0  0  0  0
  132.3210  125.1410   57.5550 C   0  0  0  0  0  0  0  0  0  0  0  0
  131.5520  125.3900   58.6970 C   0  0  0  0  0  0  0  0  0  0  0  0
  131.9630  124.9010   59.9340 C   0  0  0  0  0  0  0  0  0  0  0  0
  133.1360  124.1530   60.0240 C   0  0  0  0  0  0  0  0  0  0  0  0
  133.8960  123.8840   58.8890 C   0  0  0  0  0  0  0  0  0  0  0  0
  133.4840  124.3740   57.6510 C   0  0  0  0  0  0  0  0  0  0  0  0
  126.4150  123.5080   57.8160 C   0  0  0  0  0  0  0  0  0  0  0  0
  125.3560  123.7780   56.8400 C   0  0  0  0  0  0  0  0  0  0  0  0
  124.5180  123.9910   56.0710 N   0  0  0  0  0  0  0  0  0  0  0  0
  124.8302  124.0133   60.8525 H   0  0  0  0  0  0  0  0  0  0  0  0
  124.5403  125.0337   59.4028 H   0  0  0  0  0  0  0  0  0  0  0  0
  124.0366  123.3094   59.4028 H   0  0  0  0  0  0  0  0  0  0  0  0
  127.0053  123.4357   61.1881 H   0  0  0  0  0  0  0  0  0  0  0  0
  129.0158  124.0934   62.0800 H   0  0  0  0  0  0  0  0  0  0  0  0
  130.8869  123.5480   63.6185 H   0  0  0  0  0  0  0  0  0  0  0  0
  132.5490  121.8031   62.9882 H   0  0  0  0  0  0  0  0  0  0  0  0
  132.3548  120.6210   60.8049 H   0  0  0  0  0  0  0  0  0  0  0  0
  130.4882  121.1675   59.2612 H   0  0  0  0  0  0  0  0  0  0  0  0
  128.8174  124.3756   53.9318 H   0  0  0  0  0  0  0  0  0  0  0  0
  127.4783  125.0601   54.9461 H   0  0  0  0  0  0  0  0  0  0  0  0
  130.9500  124.1470   55.0960 H   0  0  0  0  0  0  0  0  0  0  0  0
  132.7128  125.6037   55.4937 H   0  0  0  0  0  0  0  0  0  0  0  0
  131.5735  126.7337   56.3395 H   0  0  0  0  0  0  0  0  0  0  0  0
  130.6222  125.9724   58.6174 H   0  0  0  0  0  0  0  0  0  0  0  0
  131.3656  125.1037   60.8352 H   0  0  0  0  0  0  0  0  0  0  0  0
  133.4645  123.7714   61.0020 H   0  0  0  0  0  0  0  0  0  0  0  0
  134.8169  123.2878   58.9689 H   0  0  0  0  0  0  0  0  0  0  0  0
  134.0751  124.1565   56.7492 H   0  0  0  0  0  0  0  0  0  0  0  0
  1  2  1  0
  2  3  2  0
  3  4  1  0
  4  5  1  0
  5  6  2  0
  6  7  1  0
  7  8  2  0
  8  9  1  0
  9 10  2  0
  4 11  2  0
 11 12  1  0
 12 13  1  0
 13 14  1  0
 14 15  1  0
 15 16  2  0
 15 17  1  0
 17 18  1  0
 18 19  1  0
 19 20  2  0
 20 21  1  0
 21 22  2  0
 22 23  1  0
 23 24  2  0
 12 25  2  0
 25 26  1  0
 26 27  3  0
 25  2  1  0
 10  5  1  0
 24 19  1  0
  1 28  1  0
  1 29  1  0
  1 30  1  0
  3 31  1  0
  6 32  1  0
  7 33  1  0
  8 34  1  0
  9 35  1  0
 10 36  1  0
 14 37  1  0
 14 38  1  0
 17 39  1  0
 18 40  1  0
 18 41  1  0
 20 42  1  0
 21 43  1  0
 22 44  1  0
 23 45  1  0
 24 46  1  0
M  END
>  <Binding energies>  (1) 
[-7.68]

>  <Ligand effiencies>  (1) 
[-0.2742857142857143]

>  <Interactions>  (1) 
["V-B:TYR:539:CD2:9846, H-B:TYR:531:OH:9767, V-B:PRO:540:CA:9855, V-A:LEU:475:CD2:4257, V-A:ILE:369:CG2:3235, V-B:ALA:541:CB:9864, V-A:TYR:531:CZ:4792, V-A:ILE:369:CD1:3237, V-B:TYR:539:CE2:9848, V-B:PRO:540:N:9856, V-A:ASP:366:CG:3211, V-B:PRO:540:CB:9857, V-A:ASP:366:CB:3210, V-B:TYR:539:CZ:9849, V-B:TYR:539:CE1:9847, V-B:TYR:539:C:9839, V-B:PRO:540:C:9853, H-B:TYR:539:OH:9850, V-A:ILE:369:CB:3234, V-A:TYR:531:CE1:4790, V-A:ASP:366:CA:3208, H-B:TYR:539:N:9842, V-A:ASP:366:C:3206"]

$$$$
3bk_Grossjean_2025
     RDKit          3D

 57 58  0  0  0  0  0  0  0  0999 V2000
  129.3570  123.4940   78.4270 C   0  0  0  0  0  0  0  0  0  0  0  0
  130.1310  124.1390   77.4270 O   0  0  0  0  0  0  0  0  0  0  0  0
  130.9560  125.1790   77.9330 C   0  0  0  0  0  0  0  0  0  0  0  0
  131.0930  126.2870   76.8800 C   0  0  0  0  0  0  0  0  0  0  0  0
  129.8640  126.9910   76.7740 O   0  0  0  0  0  0  0  0  0  0  0  0
  129.1200  127.0320   77.9850 C   0  0  0  0  0  0  0  0  0  0  0  0
  127.7830  127.7410   77.7330 C   0  0  0  0  0  0  0  0  0  0  0  0
  127.5460  127.8190   76.3340 O   0  0  0  0  0  0  0  0  0  0  0  0
  126.2500  128.2950   75.9950 C   0  0  0  0  0  0  0  0  0  0  0  0
  126.2070  128.6410   74.5000 C   0  0  0  0  0  0  0  0  0  0  0  0
  127.0530  127.7540   73.6980 N   0  0  0  0  0  0  0  0  0  0  0  0
  128.1460  128.1290   73.0110 C   0  0  0  0  0  0  0  0  0  0  0  0
  128.5800  129.2820   72.9920 O   0  0  0  0  0  0  0  0  0  0  0  0
  128.8790  127.0270   72.2440 C   0  0  0  0  0  0  0  0  0  0  0  0
  130.6630  127.0150   72.6080 S   0  0  0  0  0  0  0  0  0  0  0  0
  131.1110  125.4190   73.2710 C   0  0  0  0  0  0  0  0  0  0  0  0
  130.2400  124.4080   73.0230 N   0  0  0  0  0  0  0  0  0  0  0  0
  130.4960  123.1590   73.4920 C   0  0  0  0  0  0  0  0  0  0  0  0
  129.4940  122.0970   73.1550 C   0  0  0  0  0  0  0  0  0  0  0  0
  129.0280  121.9410   71.8400 C   0  0  0  0  0  0  0  0  0  0  0  0
  128.0920  120.9590   71.5220 C   0  0  0  0  0  0  0  0  0  0  0  0
  127.6090  120.1180   72.5180 C   0  0  0  0  0  0  0  0  0  0  0  0
  128.0570  120.2490   73.8290 C   0  0  0  0  0  0  0  0  0  0  0  0
  128.9930  121.2300   74.1420 C   0  0  0  0  0  0  0  0  0  0  0  0
  131.6570  122.8930   74.2280 C   0  0  0  0  0  0  0  0  0  0  0  0
  132.5660  123.9230   74.4940 C   0  0  0  0  0  0  0  0  0  0  0  0
  133.8190  123.5900   75.3010 C   0  0  0  0  0  0  0  0  0  0  0  0
  132.2970  125.2210   74.0100 C   0  0  0  0  0  0  0  0  0  0  0  0
  133.2320  126.3200   74.2720 C   0  0  0  0  0  0  0  0  0  0  0  0
  133.9700  127.1870   74.4790 N   0  0  0  0  0  0  0  0  0  0  0  0
  129.7183  123.7951   79.4214 H   0  0  0  0  0  0  0  0  0  0  0  0
  128.3015  123.7835   78.3173 H   0  0  0  0  0  0  0  0  0  0  0  0
  129.4514  122.4036   78.3173 H   0  0  0  0  0  0  0  0  0  0  0  0
  130.5027  125.5948   78.8449 H   0  0  0  0  0  0  0  0  0  0  0  0
  131.9513  124.7737   78.1680 H   0  0  0  0  0  0  0  0  0  0  0  0
  131.8899  126.9829   77.1810 H   0  0  0  0  0  0  0  0  0  0  0  0
  131.3459  125.8403   75.9071 H   0  0  0  0  0  0  0  0  0  0  0  0
  128.9321  126.0066   78.3360 H   0  0  0  0  0  0  0  0  0  0  0  0
  129.6899  127.5797   78.7500 H   0  0  0  0  0  0  0  0  0  0  0  0
  126.9710  127.1739   78.2116 H   0  0  0  0  0  0  0  0  0  0  0  0
  127.8198  128.7556   78.1564 H   0  0  0  0  0  0  0  0  0  0  0  0
  125.5046  127.5159   76.2127 H   0  0  0  0  0  0  0  0  0  0  0  0
  126.0234  129.1945   76.5863 H   0  0  0  0  0  0  0  0  0  0  0  0
  125.1689  128.5539   74.1468 H   0  0  0  0  0  0  0  0  0  0  0  0
  126.5879  129.6661   74.3814 H   0  0  0  0  0  0  0  0  0  0  0  0
  126.8010  126.7770   73.7090 H   0  0  0  0  0  0  0  0  0  0  0  0
  128.4522  126.0533   72.5264 H   0  0  0  0  0  0  0  0  0  0  0  0
  128.7526  127.2194   71.1684 H   0  0  0  0  0  0  0  0  0  0  0  0
  129.4075  122.6041   71.0486 H   0  0  0  0  0  0  0  0  0  0  0  0
  127.7366  120.8496   70.4868 H   0  0  0  0  0  0  0  0  0  0  0  0
  126.8681  119.3442   72.2683 H   0  0  0  0  0  0  0  0  0  0  0  0
  127.6732  119.5806   74.6138 H   0  0  0  0  0  0  0  0  0  0  0  0
  129.3468  121.3288   75.1788 H   0  0  0  0  0  0  0  0  0  0  0  0
  131.8543  121.8756   74.5967 H   0  0  0  0  0  0  0  0  0  0  0  0
  133.5902  123.6508   76.3752 H   0  0  0  0  0  0  0  0  0  0  0  0
  134.1540  122.5717   75.0545 H   0  0  0  0  0  0  0  0  0  0  0  0
  134.6154  124.3077   75.0545 H   0  0  0  0  0  0  0  0  0  0  0  0
  1  2  1  0
  2  3  1  0
  3  4  1  0
  4  5  1  0
  5  6  1  0
  6  7  1  0
  7  8  1  0
  8  9  1  0
  9 10  1  0
 10 11  1  0
 11 12  1  0
 12 13  2  0
 12 14  1  0
 14 15  1  0
 15 16  1  0
 16 17  2  0
 17 18  1  0
 18 19  1  0
 19 20  2  0
 20 21  1  0
 21 22  2  0
 22 23  1  0
 23 24  2  0
 18 25  2  0
 25 26  1  0
 26 27  1  0
 26 28  2  0
 28 29  1  0
 29 30  3  0
 28 16  1  0
 24 19  1  0
  1 31  1  0
  1 32  1  0
  1 33  1  0
  3 34  1  0
  3 35  1  0
  4 36  1  0
  4 37  1  0
  6 38  1  0
  6 39  1  0
  7 40  1  0
  7 41  1  0
  9 42  1  0
  9 43  1  0
 10 44  1  0
 10 45  1  0
 11 46  1  0
 14 47  1  0
 14 48  1  0
 20 49  1  0
 21 50  1  0
 22 51  1  0
 23 52  1  0
 24 53  1  0
 25 54  1  0
 27 55  1  0
 27 56  1  0
 27 57  1  0
M  END
>  <Binding energies>  (1) 
[-9.1]

>  <Ligand effiencies>  (1) 
[-0.29354838709677417]

>  <Interactions>  (1) 
["V-B:GLY:544:C:9884, V-B:LYS:547:CE:9922, V-A:HIS:456:CD2:4066, V-B:GLU:543:C:9874, V-A:HIS:456:CG:4064, H-B:GLY:544:O:9885, H-B:LYS:547:NZ:9923, H-A:LYS:547:NZ:4949, V-B:GLY:544:CA:9886, V-A:TYR:484:CG:4340, V-B:GLU:543:CA:9876, V-A:TYR:484:CB:4339, V-B:LYS:547:CD:9921, V-A:ASP:473:CG:4238, V-A:HIS:456:C:4059, V-B:VAL:458:CG2:9059, V-B:HIS:456:CB:9037, V-A:LYS:471:CD:4217, V-A:HIS:456:CB:4063, V-A:VAL:458:CG2:4085, V-A:LYS:471:CE:4218, V-A:LYS:547:CD:4947, V-A:LYS:471:CG:4216"]

$$$$
3ca_Grossjean_2025
     RDKit          3D

 52 54  0  0  0  0  0  0  0  0999 V2000
  123.6130  123.5530   56.9600 C   0  0  0  0  0  0  0  0  0  0  0  0
  124.5690  123.3460   55.7810 C   0  0  0  0  0  0  0  0  0  0  0  0
  125.6420  122.5040   56.1840 O   0  0  0  0  0  0  0  0  0  0  0  0
  126.8590  123.0180   56.4930 C   0  0  0  0  0  0  0  0  0  0  0  0
  127.9210  122.5580   56.0620 O   0  0  0  0  0  0  0  0  0  0  0  0
  126.7870  124.2070   57.4070 C   0  0  0  0  0  0  0  0  0  0  0  0
  126.6270  124.0040   58.7840 C   0  0  0  0  0  0  0  0  0  0  0  0
  126.5570  125.0860   59.6560 C   0  0  0  0  0  0  0  0  0  0  0  0
  126.6370  126.3920   59.1710 C   0  0  0  0  0  0  0  0  0  0  0  0
  126.5560  127.4120   60.1390 N   0  0  0  0  0  0  0  0  0  0  0  0
  127.5430  128.0360   60.8170 C   0  0  0  0  0  0  0  0  0  0  0  0
  128.7470  127.8200   60.6830 O   0  0  0  0  0  0  0  0  0  0  0  0
  127.0780  129.1080   61.8090 C   0  0  0  0  0  0  0  0  0  0  0  0
  127.1820  130.8010   61.1370 S   0  0  0  0  0  0  0  0  0  0  0  0
  127.8130  130.7520   59.4650 C   0  0  0  0  0  0  0  0  0  0  0  0
  126.9180  130.3930   58.5100 N   0  0  0  0  0  0  0  0  0  0  0  0
  127.3200  130.3550   57.2210 C   0  0  0  0  0  0  0  0  0  0  0  0
  126.2590  129.9630   56.2120 C   0  0  0  0  0  0  0  0  0  0  0  0
  128.6230  130.6560   56.8330 C   0  0  0  0  0  0  0  0  0  0  0  0
  129.5700  131.0120   57.8020 C   0  0  0  0  0  0  0  0  0  0  0  0
  130.9590  131.3130   57.3400 C   0  0  0  0  0  0  0  0  0  0  0  0
  132.0570  130.7630   58.0120 C   0  0  0  0  0  0  0  0  0  0  0  0
  133.3550  131.0450   57.5960 C   0  0  0  0  0  0  0  0  0  0  0  0
  133.5610  131.8850   56.5040 C   0  0  0  0  0  0  0  0  0  0  0  0
  132.4800  132.4460   55.8280 C   0  0  0  0  0  0  0  0  0  0  0  0
  131.1830  132.1610   56.2490 C   0  0  0  0  0  0  0  0  0  0  0  0
  129.1570  131.0720   59.1570 C   0  0  0  0  0  0  0  0  0  0  0  0
  130.0900  131.4880   60.2090 C   0  0  0  0  0  0  0  0  0  0  0  0
  130.8270  131.8170   61.0390 N   0  0  0  0  0  0  0  0  0  0  0  0
  126.8050  126.6060   57.7940 C   0  0  0  0  0  0  0  0  0  0  0  0
  126.8770  125.5210   56.9240 C   0  0  0  0  0  0  0  0  0  0  0  0
  124.1643  123.4336   57.9044 H   0  0  0  0  0  0  0  0  0  0  0  0
  123.1842  124.5648   56.9111 H   0  0  0  0  0  0  0  0  0  0  0  0
  122.8041  122.8092   56.9111 H   0  0  0  0  0  0  0  0  0  0  0  0
  124.0269  122.8758   54.9473 H   0  0  0  0  0  0  0  0  0  0  0  0
  124.9675  124.3185   55.4565 H   0  0  0  0  0  0  0  0  0  0  0  0
  126.5561  122.9799   59.1793 H   0  0  0  0  0  0  0  0  0  0  0  0
  126.4377  124.9107   60.7354 H   0  0  0  0  0  0  0  0  0  0  0  0
  125.6200  127.7510   60.3050 H   0  0  0  0  0  0  0  0  0  0  0  0
  126.0319  128.9031   62.0805 H   0  0  0  0  0  0  0  0  0  0  0  0
  127.7476  129.0600   62.6804 H   0  0  0  0  0  0  0  0  0  0  0  0
  125.3548  129.6289   56.7418 H   0  0  0  0  0  0  0  0  0  0  0  0
  126.0149  130.8303   55.5810 H   0  0  0  0  0  0  0  0  0  0  0  0
  126.6374  129.1453   55.5810 H   0  0  0  0  0  0  0  0  0  0  0  0
  128.9072  130.6145   55.7712 H   0  0  0  0  0  0  0  0  0  0  0  0
  131.8926  130.1024   58.8761 H   0  0  0  0  0  0  0  0  0  0  0  0
  134.2133  130.6070   58.1266 H   0  0  0  0  0  0  0  0  0  0  0  0
  134.5861  132.1072   56.1727 H   0  0  0  0  0  0  0  0  0  0  0  0
  132.6494  133.1097   54.9673 H   0  0  0  0  0  0  0  0  0  0  0  0
  130.3276  132.6061   55.7196 H   0  0  0  0  0  0  0  0  0  0  0  0
  126.8798  127.6310   57.4020 H   0  0  0  0  0  0  0  0  0  0  0  0
  127.0059  125.6963   55.8457 H   0  0  0  0  0  0  0  0  0  0  0  0
  1  2  1  0
  2  3  1  0
  3  4  1  0
  4  5  2  0
  4  6  1  0
  6  7  2  0
  7  8  1  0
  8  9  2  0
  9 10  1  0
 10 11  1  0
 11 12  2  0
 11 13  1  0
 13 14  1  0
 14 15  1  0
 15 16  2  0
 16 17  1  0
 17 18  1  0
 17 19  2  0
 19 20  1  0
 20 21  1  0
 21 22  2  0
 22 23  1  0
 23 24  2  0
 24 25  1  0
 25 26  2  0
 20 27  2  0
 27 28  1  0
 28 29  3  0
  9 30  1  0
 30 31  2  0
 31  6  1  0
 27 15  1  0
 26 21  1  0
  1 32  1  0
  1 33  1  0
  1 34  1  0
  2 35  1  0
  2 36  1  0
  7 37  1  0
  8 38  1  0
 10 39  1  0
 13 40  1  0
 13 41  1  0
 18 42  1  0
 18 43  1  0
 18 44  1  0
 19 45  1  0
 22 46  1  0
 23 47  1  0
 24 48  1  0
 25 49  1  0
 26 50  1  0
 30 51  1  0
 31 52  1  0
M  END
>  <Binding energies>  (1) 
[-9.15]

>  <Ligand effiencies>  (1) 
[-0.2859375]

>  <Interactions>  (1) 
["V-A:ILE:538:CG2:4861, V-A:PRO:540:CD:4885, V-B:ASP:366:CG:8185, V-A:PRO:540:N:4882, V-B:PRO:540:CA:9855, H-B:ASP:366:OD2:8187, V-A:ILE:538:CB:4860, V-A:ILE:538:CA:4858, V-B:PRO:540:N:9856, V-B:ILE:538:CB:9834, V-B:TYR:531:CE2:9765, V-B:PRO:540:CD:9859, V-B:PRO:540:CB:9857, V-A:TYR:539:CE2:4874, V-B:ILE:538:CG2:9835, V-A:TYR:539:CZ:4875, H-A:ALA:541:N:4889, V-A:PRO:540:CA:4881, V-B:TYR:539:C:9839, V-B:LEU:363:CD1:8161, V-B:TYR:539:CA:9841, V-B:TYR:531:CZ:9766, V-A:PRO:540:CB:4883, V-A:LEU:363:CD1:3187, V-A:TYR:539:C:4865, V-A:TYR:531:CE2:4791, V-A:LEU:363:CA:3183, V-B:LEU:363:CA:8157, H-B:TYR:539:N:9842, V-B:LEU:363:CB:8159, V-B:PRO:540:CG:9858, H-B:ASP:366:OD1:8186, V-A:PRO:540:CG:4884"]

$$$$
3cb_Grossjean_2025
     RDKit          3D

 49 51  0  0  0  0  0  0  0  0999 V2000
  124.5410  123.2960   56.2210 C   0  0  0  0  0  0  0  0  0  0  0  0
  125.8040  122.8610   55.7400 O   0  0  0  0  0  0  0  0  0  0  0  0
  126.9450  123.1340   56.4250 C   0  0  0  0  0  0  0  0  0  0  0  0
  127.9960  122.5050   56.2740 O   0  0  0  0  0  0  0  0  0  0  0  0
  126.8000  124.2780   57.3870 C   0  0  0  0  0  0  0  0  0  0  0  0
  126.9410  125.6140   56.9810 C   0  0  0  0  0  0  0  0  0  0  0  0
  126.7980  126.6510   57.8980 C   0  0  0  0  0  0  0  0  0  0  0  0
  126.5170  126.3790   59.2380 C   0  0  0  0  0  0  0  0  0  0  0  0
  126.3900  127.5030   60.0780 N   0  0  0  0  0  0  0  0  0  0  0  0
  127.3270  128.3760   60.5080 C   0  0  0  0  0  0  0  0  0  0  0  0
  128.5200  128.3380   60.2010 O   0  0  0  0  0  0  0  0  0  0  0  0
  126.7920  129.4810   61.4310 C   0  0  0  0  0  0  0  0  0  0  0  0
  127.0980  131.1850   60.8490 S   0  0  0  0  0  0  0  0  0  0  0  0
  127.8680  131.0820   59.2460 C   0  0  0  0  0  0  0  0  0  0  0  0
  127.0100  130.7300   58.2570 N   0  0  0  0  0  0  0  0  0  0  0  0
  127.4840  130.6220   56.9960 C   0  0  0  0  0  0  0  0  0  0  0  0
  126.4660  130.2360   55.9400 C   0  0  0  0  0  0  0  0  0  0  0  0
  128.8180  130.8520   56.6740 C   0  0  0  0  0  0  0  0  0  0  0  0
  129.7260  131.2010   57.6820 C   0  0  0  0  0  0  0  0  0  0  0  0
  131.1490  131.4320   57.2860 C   0  0  0  0  0  0  0  0  0  0  0  0
  131.4510  132.2490   56.1890 C   0  0  0  0  0  0  0  0  0  0  0  0
  132.7740  132.4790   55.8190 C   0  0  0  0  0  0  0  0  0  0  0  0
  133.8040  131.8940   56.5510 C   0  0  0  0  0  0  0  0  0  0  0  0
  133.5230  131.0860   57.6480 C   0  0  0  0  0  0  0  0  0  0  0  0
  132.2000  130.8590   58.0170 C   0  0  0  0  0  0  0  0  0  0  0  0
  129.2470  131.3060   59.0140 C   0  0  0  0  0  0  0  0  0  0  0  0
  130.1700  131.5770   60.1210 C   0  0  0  0  0  0  0  0  0  0  0  0
  130.8980  131.7910   60.9940 N   0  0  0  0  0  0  0  0  0  0  0  0
  126.3710  125.0460   59.6510 C   0  0  0  0  0  0  0  0  0  0  0  0
  126.5140  124.0090   58.7330 C   0  0  0  0  0  0  0  0  0  0  0  0
  124.5470  123.2939   57.3210 H   0  0  0  0  0  0  0  0  0  0  0  0
  124.3412  124.3147   55.8573 H   0  0  0  0  0  0  0  0  0  0  0  0
  123.7562  122.6164   55.8573 H   0  0  0  0  0  0  0  0  0  0  0  0
  127.1664  125.8434   55.9291 H   0  0  0  0  0  0  0  0  0  0  0  0
  126.9073  127.6934   57.5642 H   0  0  0  0  0  0  0  0  0  0  0  0
  125.4430  127.6880   60.3760 H   0  0  0  0  0  0  0  0  0  0  0  0
  125.7052  129.3447   61.5327 H   0  0  0  0  0  0  0  0  0  0  0  0
  127.3349  129.3779   62.3821 H   0  0  0  0  0  0  0  0  0  0  0  0
  125.5447  129.8867   56.4292 H   0  0  0  0  0  0  0  0  0  0  0  0
  126.2390  131.1105   55.3125 H   0  0  0  0  0  0  0  0  0  0  0  0
  126.8759  129.4309   55.3125 H   0  0  0  0  0  0  0  0  0  0  0  0
  129.1582  130.7601   55.6320 H   0  0  0  0  0  0  0  0  0  0  0  0
  130.6359  132.7132   55.6145 H   0  0  0  0  0  0  0  0  0  0  0  0
  133.0037  133.1187   54.9541 H   0  0  0  0  0  0  0  0  0  0  0  0
  134.8495  132.0724   56.2591 H   0  0  0  0  0  0  0  0  0  0  0  0
  134.3427  130.6284   58.2214 H   0  0  0  0  0  0  0  0  0  0  0  0
  131.9772  130.2256   58.8883 H   0  0  0  0  0  0  0  0  0  0  0  0
  126.1429  124.8196   60.7030 H   0  0  0  0  0  0  0  0  0  0  0  0
  126.4014  122.9671   59.0674 H   0  0  0  0  0  0  0  0  0  0  0  0
  1  2  1  0
  2  3  1  0
  3  4  2  0
  3  5  1  0
  5  6  2  0
  6  7  1  0
  7  8  2  0
  8  9  1  0
  9 10  1  0
 10 11  2  0
 10 12  1  0
 12 13  1  0
 13 14  1  0
 14 15  2  0
 15 16  1  0
 16 17  1  0
 16 18  2  0
 18 19  1  0
 19 20  1  0
 20 21  2  0
 21 22  1  0
 22 23  2  0
 23 24  1  0
 24 25  2  0
 19 26  2  0
 26 27  1  0
 27 28  3  0
  8 29  1  0
 29 30  2  0
 30  5  1  0
 26 14  1  0
 25 20  1  0
  1 31  1  0
  1 32  1  0
  1 33  1  0
  6 34  1  0
  7 35  1  0
  9 36  1  0
 12 37  1  0
 12 38  1  0
 17 39  1  0
 17 40  1  0
 17 41  1  0
 18 42  1  0
 21 43  1  0
 22 44  1  0
 23 45  1  0
 24 46  1  0
 25 47  1  0
 29 48  1  0
 30 49  1  0
M  END
>  <Binding energies>  (1) 
[-8.93]

>  <Ligand effiencies>  (1) 
[-0.2880645161290322]

>  <Interactions>  (1) 
["V-A:ILE:538:CG2:4861, V-A:PRO:540:CD:4885, V-B:ASP:366:CG:8185, V-A:PRO:540:N:4882, V-B:PRO:540:CA:9855, H-B:ASP:366:OD2:8187, V-A:ILE:538:CB:4860, V-A:ILE:538:CA:4858, V-B:PRO:540:N:9856, V-B:ILE:538:CB:9834, V-B:TYR:531:CE2:9765, V-B:PRO:540:CD:9859, V-B:PRO:540:CB:9857, V-A:TYR:539:CE2:4874, V-B:ILE:538:CG2:9835, V-A:TYR:539:CZ:4875, H-A:ALA:541:N:4889, V-A:PRO:540:CA:4881, V-B:TYR:539:C:9839, V-A:PRO:540:CB:4883, V-A:LEU:363:CD1:3187, V-A:TYR:539:C:4865, V-A:TYR:539:CE1:4873, V-A:TYR:531:CE2:4791, V-A:LEU:363:CB:3185, V-A:LEU:363:CA:3183, H-B:TYR:539:N:9842, H-B:ASP:366:OD1:8186, V-A:PRO:540:CG:4884"]

$$$$
3ce_Grossjean_2025
     RDKit          3D

 45 47  0  0  0  0  0  0  0  0999 V2000
  124.7950  130.0450   64.3790 C   0  0  0  0  0  0  0  0  0  0  0  0
  124.5810  130.8970   63.1430 C   0  0  0  0  0  0  0  0  0  0  0  0
  124.1440  132.2210   63.2340 C   0  0  0  0  0  0  0  0  0  0  0  0
  123.9780  132.9480   62.0550 C   0  0  0  0  0  0  0  0  0  0  0  0
  124.2490  132.3410   60.8260 C   0  0  0  0  0  0  0  0  0  0  0  0
  124.6730  131.0080   60.8060 C   0  0  0  0  0  0  0  0  0  0  0  0
  124.9490  130.4570   59.5430 N   0  0  0  0  0  0  0  0  0  0  0  0
  124.3580  130.7380   58.3610 C   0  0  0  0  0  0  0  0  0  0  0  0
  123.4530  131.5580   58.2010 O   0  0  0  0  0  0  0  0  0  0  0  0
  124.8860  129.9630   57.1540 C   0  0  0  0  0  0  0  0  0  0  0  0
  126.4000  129.0390   57.5510 S   0  0  0  0  0  0  0  0  0  0  0  0
  127.6170  130.2630   57.9740 C   0  0  0  0  0  0  0  0  0  0  0  0
  127.1810  131.1910   58.8610 N   0  0  0  0  0  0  0  0  0  0  0  0
  128.0390  132.1580   59.2600 C   0  0  0  0  0  0  0  0  0  0  0  0
  127.4900  133.1540   60.2630 C   0  0  0  0  0  0  0  0  0  0  0  0
  129.3450  132.2440   58.7860 C   0  0  0  0  0  0  0  0  0  0  0  0
  129.8060  131.3100   57.8490 C   0  0  0  0  0  0  0  0  0  0  0  0
  131.2060  131.4580   57.3500 C   0  0  0  0  0  0  0  0  0  0  0  0
  132.2800  130.9930   58.1190 C   0  0  0  0  0  0  0  0  0  0  0  0
  133.5880  131.1340   57.6640 C   0  0  0  0  0  0  0  0  0  0  0  0
  133.8300  131.7480   56.4380 C   0  0  0  0  0  0  0  0  0  0  0  0
  132.7740  132.2250   55.6660 C   0  0  0  0  0  0  0  0  0  0  0  0
  131.4670  132.0820   56.1230 C   0  0  0  0  0  0  0  0  0  0  0  0
  128.9230  130.2830   57.4290 C   0  0  0  0  0  0  0  0  0  0  0  0
  129.3550  129.2690   56.4620 C   0  0  0  0  0  0  0  0  0  0  0  0
  129.6960  128.4690   55.6990 N   0  0  0  0  0  0  0  0  0  0  0  0
  124.8450  130.2930   61.9560 N   0  0  0  0  0  0  0  0  0  0  0  0
  124.6408  130.6589   65.2787 H   0  0  0  0  0  0  0  0  0  0  0  0
  124.0786  129.2103   64.3775 H   0  0  0  0  0  0  0  0  0  0  0  0
  125.8208  129.6478   64.3775 H   0  0  0  0  0  0  0  0  0  0  0  0
  123.9358  132.6792   64.2121 H   0  0  0  0  0  0  0  0  0  0  0  0
  123.6358  133.9928   62.0927 H   0  0  0  0  0  0  0  0  0  0  0  0
  124.1307  132.9031   59.8879 H   0  0  0  0  0  0  0  0  0  0  0  0
  125.7480  129.8400   59.5140 H   0  0  0  0  0  0  0  0  0  0  0  0
  124.1137  129.2540   56.8211 H   0  0  0  0  0  0  0  0  0  0  0  0
  125.1268  130.6878   56.3624 H   0  0  0  0  0  0  0  0  0  0  0  0
  127.6884  132.7941   61.2833 H   0  0  0  0  0  0  0  0  0  0  0  0
  127.9782  134.1288   60.1166 H   0  0  0  0  0  0  0  0  0  0  0  0
  126.4051  133.2617   60.1166 H   0  0  0  0  0  0  0  0  0  0  0  0
  130.0119  133.0415   59.1454 H   0  0  0  0  0  0  0  0  0  0  0  0
  132.0886  130.5127   59.0899 H   0  0  0  0  0  0  0  0  0  0  0  0
  134.4269  130.7619   58.2705 H   0  0  0  0  0  0  0  0  0  0  0  0
  134.8632  131.8571   56.0766 H   0  0  0  0  0  0  0  0  0  0  0  0
  132.9716  132.7124   54.6999 H   0  0  0  0  0  0  0  0  0  0  0  0
  130.6322  132.4620   55.5158 H   0  0  0  0  0  0  0  0  0  0  0  0
  1  2  1  0
  2  3  2  0
  3  4  1  0
  4  5  2  0
  5  6  1  0
  6  7  1  0
  7  8  1  0
  8  9  2  0
  8 10  1  0
 10 11  1  0
 11 12  1  0
 12 13  2  0
 13 14  1  0
 14 15  1  0
 14 16  2  0
 16 17  1  0
 17 18  1  0
 18 19  2  0
 19 20  1  0
 20 21  2  0
 21 22  1  0
 22 23  2  0
 17 24  2  0
 24 25  1  0
 25 26  3  0
  6 27  2  0
 27  2  1  0
 24 12  1  0
 23 18  1  0
  1 28  1  0
  1 29  1  0
  1 30  1  0
  3 31  1  0
  4 32  1  0
  5 33  1  0
  7 34  1  0
 10 35  1  0
 10 36  1  0
 15 37  1  0
 15 38  1  0
 15 39  1  0
 16 40  1  0
 19 41  1  0
 20 42  1  0
 21 43  1  0
 22 44  1  0
 23 45  1  0
M  END
>  <Binding energies>  (1) 
[-8.23]

>  <Ligand effiencies>  (1) 
[-0.29392857142857143]

>  <Interactions>  (1) 
["V-A:ILE:538:CG2:4861, V-A:PRO:540:CD:4885, V-B:ASP:366:CG:8185, V-A:PRO:540:N:4882, H-B:TYR:531:OH:9767, V-A:ILE:538:CB:4860, V-A:TYR:531:CZ:4792, V-B:ILE:369:CD1:8211, H-A:TYR:531:OH:4793, V-A:TYR:539:CD2:4872, V-B:ILE:369:CG2:8209, V-B:LEU:475:CD2:9231, V-A:TYR:539:CE2:4874, V-A:TYR:539:CZ:4875, V-A:PRO:540:CA:4881, H-B:ARG:545:NH2:9900, V-B:ARG:545:CZ:9898, V-A:PRO:540:CB:4883, V-A:LEU:363:CD1:3187, V-A:TYR:539:C:4865, V-A:TYR:531:CE2:4791, V-B:ASP:366:CB:8184, H-A:TYR:539:OH:4876, V-B:ASP:366:CA:8182, V-A:LEU:363:CB:3185, V-A:LEU:363:CA:3183, V-B:GLY:454:CA:9021, V-B:GLY:453:C:9014, H-B:ASP:366:OD1:8186, V-A:PRO:540:CG:4884"]

$$$$
3ch_Grossjean_2025
     RDKit          3D

 55 57  0  0  0  0  0  0  0  0999 V2000
  123.7210  124.3210   57.6150 C   0  0  0  0  0  0  0  0  0  0  0  0
  124.9030  123.6140   57.9780 O   0  0  0  0  0  0  0  0  0  0  0  0
  126.1070  124.2910   58.0530 C   0  0  0  0  0  0  0  0  0  0  0  0
  126.3670  125.3340   58.9560 C   0  0  0  0  0  0  0  0  0  0  0  0
  127.6180  125.9690   58.9810 C   0  0  0  0  0  0  0  0  0  0  0  0
  127.9730  127.0170   59.8510 N   0  0  0  0  0  0  0  0  0  0  0  0
  127.2100  127.7040   60.7310 C   0  0  0  0  0  0  0  0  0  0  0  0
  126.0130  127.5100   60.9420 O   0  0  0  0  0  0  0  0  0  0  0  0
  127.9410  128.7730   61.5420 C   0  0  0  0  0  0  0  0  0  0  0  0
  127.5110  130.4550   61.0050 S   0  0  0  0  0  0  0  0  0  0  0  0
  128.1650  130.6320   59.3600 C   0  0  0  0  0  0  0  0  0  0  0  0
  127.2510  130.4250   58.3800 N   0  0  0  0  0  0  0  0  0  0  0  0
  127.6500  130.5280   57.0920 C   0  0  0  0  0  0  0  0  0  0  0  0
  126.5800  130.2790   56.0470 C   0  0  0  0  0  0  0  0  0  0  0  0
  128.9600  130.8370   56.7340 C   0  0  0  0  0  0  0  0  0  0  0  0
  129.9180  131.0620   57.7330 C   0  0  0  0  0  0  0  0  0  0  0  0
  131.3140  131.3800   57.3030 C   0  0  0  0  0  0  0  0  0  0  0  0
  132.4040  130.8290   57.9870 C   0  0  0  0  0  0  0  0  0  0  0  0
  133.7070  131.1270   57.5970 C   0  0  0  0  0  0  0  0  0  0  0  0
  133.9250  131.9840   56.5200 C   0  0  0  0  0  0  0  0  0  0  0  0
  132.8520  132.5450   55.8340 C   0  0  0  0  0  0  0  0  0  0  0  0
  131.5500  132.2450   56.2280 C   0  0  0  0  0  0  0  0  0  0  0  0
  129.5100  130.9760   59.0890 C   0  0  0  0  0  0  0  0  0  0  0  0
  130.4450  131.2940   60.1730 C   0  0  0  0  0  0  0  0  0  0  0  0
  131.1830  131.5430   61.0290 N   0  0  0  0  0  0  0  0  0  0  0  0
  128.6030  125.5640   58.0790 C   0  0  0  0  0  0  0  0  0  0  0  0
  128.3670  124.5250   57.1660 C   0  0  0  0  0  0  0  0  0  0  0  0
  129.3030  124.0720   56.2520 O   0  0  0  0  0  0  0  0  0  0  0  0
  129.9690  125.0060   55.4090 C   0  0  0  0  0  0  0  0  0  0  0  0
  127.1140  123.8990   57.1610 C   0  0  0  0  0  0  0  0  0  0  0  0
  126.8760  122.8680   56.2830 O   0  0  0  0  0  0  0  0  0  0  0  0
  126.5040  123.2920   54.9790 C   0  0  0  0  0  0  0  0  0  0  0  0
  123.1899  124.6387   58.5244 H   0  0  0  0  0  0  0  0  0  0  0  0
  123.9912  125.2060   57.0201 H   0  0  0  0  0  0  0  0  0  0  0  0
  123.0691  123.6644   57.0201 H   0  0  0  0  0  0  0  0  0  0  0  0
  125.5799  125.6576   59.6529 H   0  0  0  0  0  0  0  0  0  0  0  0
  128.9540  127.2550   59.8340 H   0  0  0  0  0  0  0  0  0  0  0  0
  127.6710  128.6597   62.6023 H   0  0  0  0  0  0  0  0  0  0  0  0
  129.0212  128.6347   61.3872 H   0  0  0  0  0  0  0  0  0  0  0  0
  125.6251  130.0568   56.5457 H   0  0  0  0  0  0  0  0  0  0  0  0
  126.4658  131.1746   55.4186 H   0  0  0  0  0  0  0  0  0  0  0  0
  126.8729  129.4250   55.4186 H   0  0  0  0  0  0  0  0  0  0  0  0
  129.2418  130.9042   55.6728 H   0  0  0  0  0  0  0  0  0  0  0  0
  132.2298  130.1555   58.8391 H   0  0  0  0  0  0  0  0  0  0  0  0
  134.5596  130.6883   58.1361 H   0  0  0  0  0  0  0  0  0  0  0  0
  134.9538  132.2190   56.2095 H   0  0  0  0  0  0  0  0  0  0  0  0
  133.0310  133.2216   54.9854 H   0  0  0  0  0  0  0  0  0  0  0  0
  130.7006  132.6913   55.6901 H   0  0  0  0  0  0  0  0  0  0  0  0
  129.5808  126.0678   58.0839 H   0  0  0  0  0  0  0  0  0  0  0  0
  130.4971  125.7466   56.0276 H   0  0  0  0  0  0  0  0  0  0  0  0
  130.6935  124.4751   54.7740 H   0  0  0  0  0  0  0  0  0  0  0  0
  129.2310  125.5180   54.7740 H   0  0  0  0  0  0  0  0  0  0  0  0
  125.7802  124.1169   55.0542 H   0  0  0  0  0  0  0  0  0  0  0  0
  127.3970  123.6360   54.4366 H   0  0  0  0  0  0  0  0  0  0  0  0
  126.0467  122.4513   54.4366 H   0  0  0  0  0  0  0  0  0  0  0  0
  1  2  1  0
  2  3  1  0
  3  4  2  0
  4  5  1  0
  5  6  1  0
  6  7  1  0
  7  8  2  0
  7  9  1  0
  9 10  1  0
 10 11  1  0
 11 12  2  0
 12 13  1  0
 13 14  1  0
 13 15  2  0
 15 16  1  0
 16 17  1  0
 17 18  2  0
 18 19  1  0
 19 20  2  0
 20 21  1  0
 21 22  2  0
 16 23  2  0
 23 24  1  0
 24 25  3  0
  5 26  2  0
 26 27  1  0
 27 28  1  0
 28 29  1  0
 27 30  2  0
 30 31  1  0
 31 32  1  0
 30  3  1  0
 23 11  1  0
 22 17  1  0
  1 33  1  0
  1 34  1  0
  1 35  1  0
  4 36  1  0
  6 37  1  0
  9 38  1  0
  9 39  1  0
 14 40  1  0
 14 41  1  0
 14 42  1  0
 15 43  1  0
 18 44  1  0
 19 45  1  0
 20 46  1  0
 21 47  1  0
 22 48  1  0
 26 49  1  0
 29 50  1  0
 29 51  1  0
 29 52  1  0
 32 53  1  0
 32 54  1  0
 32 55  1  0
M  END
>  <Binding energies>  (1) 
[-7.56]

>  <Ligand effiencies>  (1) 
[-0.22909090909090907]

>  <Interactions>  (1) 
["V-A:ILE:538:CG2:4861, V-A:PRO:540:CD:4885, V-A:PRO:540:N:4882, V-B:PRO:540:CA:9855, V-A:ILE:538:CB:4860, V-A:ILE:538:CA:4858, V-B:ILE:538:CB:9834, V-B:TYR:531:CE2:9765, V-B:PRO:540:CB:9857, V-A:TYR:539:CE2:4874, V-B:ILE:538:CG2:9835, V-A:TYR:539:CZ:4875, H-A:ALA:541:N:4889, V-A:PRO:540:CA:4881, V-B:TYR:539:CZ:9849, V-B:TYR:539:CE1:9847, H-B:ARG:545:NH2:9900, V-B:ILE:538:CA:9832, V-B:TYR:531:CZ:9766, V-A:PRO:540:CB:4883, V-A:LEU:363:CD1:3187, V-A:TYR:539:C:4865, V-A:TYR:539:CE1:4873, V-A:TYR:531:CE2:4791, H-B:TYR:539:OH:9850, V-B:ASP:366:CB:8184, V-A:LEU:363:CB:3185, V-A:LEU:363:CA:3183, V-B:LEU:363:CA:8157, H-B:TYR:539:N:9842, V-B:ILE:538:C:9830, V-A:PRO:540:CG:4884, V-A:LEU:363:CG:3186"]

$$$$
3ci_Grossjean_2025
     RDKit          3D

 39 41  0  0  0  0  0  0  0  0999 V2000
  127.7630  133.0120   61.5960 C   0  0  0  0  0  0  0  0  0  0  0  0
  127.6650  132.3390   60.2400 C   0  0  0  0  0  0  0  0  0  0  0  0
  128.7380  132.3220   59.3530 C   0  0  0  0  0  0  0  0  0  0  0  0
  128.6040  131.6730   58.1180 C   0  0  0  0  0  0  0  0  0  0  0  0
  129.7860  131.6660   57.2040 C   0  0  0  0  0  0  0  0  0  0  0  0
  129.6340  131.9140   55.8340 C   0  0  0  0  0  0  0  0  0  0  0  0
  130.7380  131.8980   54.9850 C   0  0  0  0  0  0  0  0  0  0  0  0
  132.0010  131.6280   55.5040 C   0  0  0  0  0  0  0  0  0  0  0  0
  132.1680  131.3710   56.8620 C   0  0  0  0  0  0  0  0  0  0  0  0
  131.0620  131.3880   57.7080 C   0  0  0  0  0  0  0  0  0  0  0  0
  127.3620  131.0610   57.8080 C   0  0  0  0  0  0  0  0  0  0  0  0
  127.1500  130.4050   56.5140 C   0  0  0  0  0  0  0  0  0  0  0  0
  126.9840  129.8870   55.4920 N   0  0  0  0  0  0  0  0  0  0  0  0
  126.3250  131.1210   58.7700 C   0  0  0  0  0  0  0  0  0  0  0  0
  124.7280  130.3660   58.4950 S   0  0  0  0  0  0  0  0  0  0  0  0
  123.4610  131.2510   59.4610 C   0  0  0  0  0  0  0  0  0  0  0  0
  123.8680  131.4940   60.9190 C   0  0  0  0  0  0  0  0  0  0  0  0
  123.8870  132.6460   61.3550 O   0  0  0  0  0  0  0  0  0  0  0  0
  124.1970  130.3910   61.6270 N   0  0  0  0  0  0  0  0  0  0  0  0
  124.5710  130.3290   62.9630 C   0  0  0  0  0  0  0  0  0  0  0  0
  125.9010  130.3350   63.3820 C   0  0  0  0  0  0  0  0  0  0  0  0
  125.8440  130.2600   64.7550 C   0  0  0  0  0  0  0  0  0  0  0  0
  124.5460  130.2130   65.1420 O   0  0  0  0  0  0  0  0  0  0  0  0
  123.7490  130.2560   63.9970 N   0  0  0  0  0  0  0  0  0  0  0  0
  126.4790  131.7570   59.9600 N   0  0  0  0  0  0  0  0  0  0  0  0
  127.6531  132.2573   62.3887 H   0  0  0  0  0  0  0  0  0  0  0  0
  128.7422  133.5039   61.6913 H   0  0  0  0  0  0  0  0  0  0  0  0
  126.9647  133.7628   61.6913 H   0  0  0  0  0  0  0  0  0  0  0  0
  129.6847  132.8147   59.6197 H   0  0  0  0  0  0  0  0  0  0  0  0
  128.6345  132.1231   55.4251 H   0  0  0  0  0  0  0  0  0  0  0  0
  130.6125  132.0976   53.9106 H   0  0  0  0  0  0  0  0  0  0  0  0
  132.8745  131.6176   54.8355 H   0  0  0  0  0  0  0  0  0  0  0  0
  133.1687  131.1556   57.2648 H   0  0  0  0  0  0  0  0  0  0  0  0
  131.1921  131.1814   58.7806 H   0  0  0  0  0  0  0  0  0  0  0  0
  123.2753  132.2245   58.9837 H   0  0  0  0  0  0  0  0  0  0  0  0
  122.5619  130.6175   59.4756 H   0  0  0  0  0  0  0  0  0  0  0  0
  124.1460  129.5030   61.1500 H   0  0  0  0  0  0  0  0  0  0  0  0
  126.8009  130.3882   62.7516 H   0  0  0  0  0  0  0  0  0  0  0  0
  126.7124  130.2412   65.4299 H   0  0  0  0  0  0  0  0  0  0  0  0
  1  2  1  0
  2  3  2  0
  3  4  1  0
  4  5  1  0
  5  6  2  0
  6  7  1  0
  7  8  2  0
  8  9  1  0
  9 10  2  0
  4 11  2  0
 11 12  1  0
 12 13  3  0
 11 14  1  0
 14 15  1  0
 15 16  1  0
 16 17  1  0
 17 18  2  0
 17 19  1  0
 19 20  1  0
 20 21  1  0
 21 22  2  0
 22 23  1  0
 23 24  1  0
 14 25  2  0
 25  2  1  0
 10  5  1  0
 24 20  2  0
  1 26  1  0
  1 27  1  0
  1 28  1  0
  3 29  1  0
  6 30  1  0
  7 31  1  0
  8 32  1  0
  9 33  1  0
 10 34  1  0
 16 35  1  0
 16 36  1  0
 19 37  1  0
 21 38  1  0
 22 39  1  0
M  END
>  <Binding energies>  (1) 
[-8.67]

>  <Ligand effiencies>  (1) 
[-0.3334615384615385]

>  <Interactions>  (1) 
["V-A:ILE:538:CG2:4861, V-B:ASP:366:CG:8185, V-A:PRO:540:N:4882, H-B:ASP:366:OD2:8187, V-A:ILE:538:CB:4860, V-A:ILE:538:CA:4858, V-A:TYR:531:CZ:4792, V-B:ILE:369:CD1:8211, V-A:TYR:539:CD2:4872, V-B:ILE:369:CG2:8209, V-A:TYR:539:CE2:4874, V-A:TYR:539:CZ:4875, V-A:PRO:540:CA:4881, V-A:ALA:541:CB:4890, V-B:ARG:545:CZ:9898, H-B:ARG:545:NE:9896, H-B:GLY:454:N:9022, V-A:PRO:540:CB:4883, V-A:TYR:539:C:4865, H-B:TYR:484:OH:9320, V-A:TYR:531:CE2:4791, V-B:ASP:366:CB:8184, V-B:ILE:369:CB:8208, H-A:TYR:539:OH:4876, V-B:ASP:366:CA:8182, H-B:ASP:366:OD1:8186, H-B:ARG:545:NH1:9899"]

$$$$
3cj_Grossjean_2025
     RDKit          3D

 39 41  0  0  0  0  0  0  0  0999 V2000
  127.7150  133.4320   61.3690 C   0  0  0  0  0  0  0  0  0  0  0  0
  127.5070  132.6280   60.1000 C   0  0  0  0  0  0  0  0  0  0  0  0
  128.4820  132.5700   59.1070 C   0  0  0  0  0  0  0  0  0  0  0  0
  128.2580  131.7970   57.9600 C   0  0  0  0  0  0  0  0  0  0  0  0
  129.3550  131.7110   56.9530 C   0  0  0  0  0  0  0  0  0  0  0  0
  129.1050  131.9850   55.6030 C   0  0  0  0  0  0  0  0  0  0  0  0
  130.1270  131.8920   54.6620 C   0  0  0  0  0  0  0  0  0  0  0  0
  131.4050  131.5180   55.0690 C   0  0  0  0  0  0  0  0  0  0  0  0
  131.6670  131.2340   56.4060 C   0  0  0  0  0  0  0  0  0  0  0  0
  130.6430  131.3280   57.3450 C   0  0  0  0  0  0  0  0  0  0  0  0
  127.0190  131.1200   57.8350 C   0  0  0  0  0  0  0  0  0  0  0  0
  126.7130  130.3190   56.6460 C   0  0  0  0  0  0  0  0  0  0  0  0
  126.4720  129.6850   55.7070 N   0  0  0  0  0  0  0  0  0  0  0  0
  126.0890  131.2320   58.8930 C   0  0  0  0  0  0  0  0  0  0  0  0
  124.5550  130.3290   58.9250 S   0  0  0  0  0  0  0  0  0  0  0  0
  123.4540  131.3160   59.9870 C   0  0  0  0  0  0  0  0  0  0  0  0
  123.9840  131.4180   61.4210 C   0  0  0  0  0  0  0  0  0  0  0  0
  123.9380  132.5000   62.0100 O   0  0  0  0  0  0  0  0  0  0  0  0
  124.4420  130.2640   61.9520 N   0  0  0  0  0  0  0  0  0  0  0  0
  124.8460  130.0580   63.2610 C   0  0  0  0  0  0  0  0  0  0  0  0
  124.0940  129.9930   64.3380 N   0  0  0  0  0  0  0  0  0  0  0  0
  124.8150  129.7540   65.4160 C   0  0  0  0  0  0  0  0  0  0  0  0
  126.1870  129.6220   65.2240 C   0  0  0  0  0  0  0  0  0  0  0  0
  126.5440  129.8230   63.5340 S   0  0  0  0  0  0  0  0  0  0  0  0
  126.3340  131.9640   60.0090 N   0  0  0  0  0  0  0  0  0  0  0  0
  127.5479  132.7863   62.2437 H   0  0  0  0  0  0  0  0  0  0  0  0
  128.7435  133.8215   61.3919 H   0  0  0  0  0  0  0  0  0  0  0  0
  127.0044  134.2714   61.3919 H   0  0  0  0  0  0  0  0  0  0  0  0
  129.4228  133.1281   59.2226 H   0  0  0  0  0  0  0  0  0  0  0  0
  128.0935  132.2760   55.2833 H   0  0  0  0  0  0  0  0  0  0  0  0
  129.9260  132.1127   53.6033 H   0  0  0  0  0  0  0  0  0  0  0  0
  132.2144  131.4464   54.3275 H   0  0  0  0  0  0  0  0  0  0  0  0
  132.6785  130.9366   56.7196 H   0  0  0  0  0  0  0  0  0  0  0  0
  130.8476  131.0998   58.4015 H   0  0  0  0  0  0  0  0  0  0  0  0
  123.3685  132.3289   59.5666 H   0  0  0  0  0  0  0  0  0  0  0  0
  122.4745  130.8164   60.0203 H   0  0  0  0  0  0  0  0  0  0  0  0
  124.4100  129.4400   61.3680 H   0  0  0  0  0  0  0  0  0  0  0  0
  124.3571  129.6639   66.4121 H   0  0  0  0  0  0  0  0  0  0  0  0
  126.9263  129.4227   66.0138 H   0  0  0  0  0  0  0  0  0  0  0  0
  1  2  1  0
  2  3  2  0
  3  4  1  0
  4  5  1  0
  5  6  2  0
  6  7  1  0
  7  8  2  0
  8  9  1  0
  9 10  2  0
  4 11  2  0
 11 12  1  0
 12 13  3  0
 11 14  1  0
 14 15  1  0
 15 16  1  0
 16 17  1  0
 17 18  2  0
 17 19  1  0
 19 20  1  0
 20 21  2  0
 21 22  1  0
 22 23  2  0
 23 24  1  0
 14 25  2  0
 25  2  1  0
 10  5  1  0
 24 20  1  0
  1 26  1  0
  1 27  1  0
  1 28  1  0
  3 29  1  0
  6 30  1  0
  7 31  1  0
  8 32  1  0
  9 33  1  0
 10 34  1  0
 16 35  1  0
 16 36  1  0
 19 37  1  0
 22 38  1  0
 23 39  1  0
M  END
>  <Binding energies>  (1) 
[-8.27]

>  <Ligand effiencies>  (1) 
[-0.31807692307692303]

>  <Interactions>  (1) 
["V-A:ILE:538:CG2:4861, V-B:ASP:366:CG:8185, H-B:TYR:531:OH:9767, H-B:ASP:366:OD2:8187, V-A:ILE:538:CB:4860, V-A:ILE:538:CA:4858, V-A:TYR:531:CZ:4792, V-B:ILE:369:CD1:8211, V-A:TYR:539:CD2:4872, V-B:ILE:369:CG2:8209, V-A:TYR:539:CE2:4874, V-A:TYR:539:CZ:4875, V-A:ALA:541:CB:4890, H-B:ARG:545:NH2:9900, V-B:ARG:545:CZ:9898, H-B:ARG:545:NE:9896, H-B:GLY:454:N:9022, V-A:TYR:539:C:4865, V-A:TYR:539:CG:4870, V-A:TYR:539:CE1:4873, H-B:TYR:484:OH:9320, V-A:TYR:531:CE2:4791, V-A:TYR:539:CD1:4871, V-B:HIS:456:CE1:9042, V-B:ASP:366:CB:8184, V-B:ILE:369:CB:8208, H-A:TYR:539:OH:4876, V-B:ASP:366:CA:8182, V-B:ARG:545:CG:9894, V-B:ARG:545:CD:9895, H-B:ASP:366:OD1:8186, H-B:ARG:545:NH1:9899"]

$$$$
3ck_Grossjean_2025
     RDKit          3D

 57 58  0  0  0  0  0  0  0  0999 V2000
  131.5870  125.9090   73.2570 C   0  0  0  0  0  0  0  0  0  0  0  0
  130.2260  125.5190   73.3520 O   0  0  0  0  0  0  0  0  0  0  0  0
  129.4530  125.8790   72.2150 C   0  0  0  0  0  0  0  0  0  0  0  0
  130.1710  126.9880   71.4360 C   0  0  0  0  0  0  0  0  0  0  0  0
  129.2170  127.9440   70.9910 O   0  0  0  0  0  0  0  0  0  0  0  0
  128.1620  127.3880   70.2170 C   0  0  0  0  0  0  0  0  0  0  0  0
  128.5780  127.3720   68.7410 C   0  0  0  0  0  0  0  0  0  0  0  0
  127.4200  127.5880   67.9480 O   0  0  0  0  0  0  0  0  0  0  0  0
  127.5540  128.6020   66.9630 C   0  0  0  0  0  0  0  0  0  0  0  0
  126.2100  128.7930   66.2350 C   0  0  0  0  0  0  0  0  0  0  0  0
  126.3480  129.0480   64.7980 N   0  0  0  0  0  0  0  0  0  0  0  0
  125.5110  129.7880   64.0480 C   0  0  0  0  0  0  0  0  0  0  0  0
  124.5250  130.3670   64.5080 O   0  0  0  0  0  0  0  0  0  0  0  0
  125.8640  129.8770   62.5550 C   0  0  0  0  0  0  0  0  0  0  0  0
  127.2080  131.0400   62.1360 S   0  0  0  0  0  0  0  0  0  0  0  0
  127.5310  130.9540   60.3810 C   0  0  0  0  0  0  0  0  0  0  0  0
  126.4620  130.6500   59.6030 N   0  0  0  0  0  0  0  0  0  0  0  0
  126.6350  130.5640   58.2650 C   0  0  0  0  0  0  0  0  0  0  0  0
  125.3970  130.2180   57.4610 C   0  0  0  0  0  0  0  0  0  0  0  0
  127.8680  130.7730   57.6530 C   0  0  0  0  0  0  0  0  0  0  0  0
  128.9880  131.0820   58.4370 C   0  0  0  0  0  0  0  0  0  0  0  0
  130.2940  131.2750   57.7400 C   0  0  0  0  0  0  0  0  0  0  0  0
  131.4510  130.6580   58.2310 C   0  0  0  0  0  0  0  0  0  0  0  0
  132.6750  130.8420   57.5910 C   0  0  0  0  0  0  0  0  0  0  0  0
  132.7470  131.6500   56.4600 C   0  0  0  0  0  0  0  0  0  0  0  0
  131.6060  132.2770   55.9640 C   0  0  0  0  0  0  0  0  0  0  0  0
  130.3850  132.0910   56.6050 C   0  0  0  0  0  0  0  0  0  0  0  0
  128.8170  131.1880   59.8420 C   0  0  0  0  0  0  0  0  0  0  0  0
  129.9450  131.5490   60.7090 C   0  0  0  0  0  0  0  0  0  0  0  0
  130.8340  131.8350   61.3920 N   0  0  0  0  0  0  0  0  0  0  0  0
  132.0054  126.0289   74.2672 H   0  0  0  0  0  0  0  0  0  0  0  0
  132.1527  125.1368   72.7151 H   0  0  0  0  0  0  0  0  0  0  0  0
  131.6579  126.8636   72.7151 H   0  0  0  0  0  0  0  0  0  0  0  0
  129.3245  125.0000   71.5663 H   0  0  0  0  0  0  0  0  0  0  0  0
  128.4675  126.2415   72.5427 H   0  0  0  0  0  0  0  0  0  0  0  0
  130.9060  127.4797   72.0902 H   0  0  0  0  0  0  0  0  0  0  0  0
  130.6883  126.5527   70.5683 H   0  0  0  0  0  0  0  0  0  0  0  0
  127.9597  126.3606   70.5540 H   0  0  0  0  0  0  0  0  0  0  0  0
  127.2526  127.9947   70.3395 H   0  0  0  0  0  0  0  0  0  0  0  0
  129.3116  128.1698   68.5528 H   0  0  0  0  0  0  0  0  0  0  0  0
  129.0356  126.4044   68.4871 H   0  0  0  0  0  0  0  0  0  0  0  0
  127.8464  129.5459   67.4462 H   0  0  0  0  0  0  0  0  0  0  0  0
  128.3254  128.3071   66.2364 H   0  0  0  0  0  0  0  0  0  0  0  0
  125.6097  127.8811   66.3696 H   0  0  0  0  0  0  0  0  0  0  0  0
  125.7305  129.6804   66.6739 H   0  0  0  0  0  0  0  0  0  0  0  0
  127.1430  128.6200   64.3460 H   0  0  0  0  0  0  0  0  0  0  0  0
  126.1651  128.8744   62.2171 H   0  0  0  0  0  0  0  0  0  0  0  0
  124.9636  130.2607   62.0530 H   0  0  0  0  0  0  0  0  0  0  0  0
  124.5680  129.9863   58.1458 H   0  0  0  0  0  0  0  0  0  0  0  0
  125.1207  131.0733   56.8269 H   0  0  0  0  0  0  0  0  0  0  0  0
  125.6042  129.3433   56.8269 H   0  0  0  0  0  0  0  0  0  0  0  0
  127.9627  130.6960   56.5598 H   0  0  0  0  0  0  0  0  0  0  0  0
  131.3933  130.0238   59.1279 H   0  0  0  0  0  0  0  0  0  0  0  0
  133.5801  130.3510   57.9778 H   0  0  0  0  0  0  0  0  0  0  0  0
  133.7127  131.7947   55.9536 H   0  0  0  0  0  0  0  0  0  0  0  0
  131.6700  132.9156   55.0706 H   0  0  0  0  0  0  0  0  0  0  0  0
  129.4839  132.5888   56.2173 H   0  0  0  0  0  0  0  0  0  0  0  0
  1  2  1  0
  2  3  1  0
  3  4  1  0
  4  5  1  0
  5  6  1  0
  6  7  1  0
  7  8  1  0
  8  9  1  0
  9 10  1  0
 10 11  1  0
 11 12  1  0
 12 13  2  0
 12 14  1  0
 14 15  1  0
 15 16  1  0
 16 17  2  0
 17 18  1  0
 18 19  1  0
 18 20  2  0
 20 21  1  0
 21 22  1  0
 22 23  2  0
 23 24  1  0
 24 25  2  0
 25 26  1  0
 26 27  2  0
 21 28  2  0
 28 29  1  0
 29 30  3  0
 28 16  1  0
 27 22  1  0
  1 31  1  0
  1 32  1  0
  1 33  1  0
  3 34  1  0
  3 35  1  0
  4 36  1  0
  4 37  1  0
  6 38  1  0
  6 39  1  0
  7 40  1  0
  7 41  1  0
  9 42  1  0
  9 43  1  0
 10 44  1  0
 10 45  1  0
 11 46  1  0
 14 47  1  0
 14 48  1  0
 19 49  1  0
 19 50  1  0
 19 51  1  0
 20 52  1  0
 23 53  1  0
 24 54  1  0
 25 55  1  0
 26 56  1  0
 27 57  1  0
M  END
>  <Binding energies>  (1) 
[-8.53]

>  <Ligand effiencies>  (1) 
[-0.27516129032258063]

>  <Interactions>  (1) 
["V-A:ILE:538:CG2:4861, V-A:PRO:540:CD:4885, V-A:PRO:540:N:4882, V-A:ILE:538:CB:4860, V-A:ILE:538:CA:4858, V-A:TYR:531:CZ:4792, V-A:TYR:539:CE2:4874, V-A:TYR:539:CZ:4875, H-B:GLU:543:OE2:9882, H-A:ALA:541:N:4889, V-A:PRO:540:CA:4881, H-A:GLU:543:OE2:4908, V-A:GLU:543:CD:4906, V-A:HIS:456:CE1:4068, H-A:GLU:543:OE1:4907, V-B:ARG:545:CZ:9898, V-A:GLU:543:CG:4905, H-B:GLY:454:N:9022, V-A:PRO:540:CB:4883, V-A:TYR:539:C:4865, H-B:TYR:484:OH:9320, V-A:GLU:543:CB:4904, V-A:TYR:531:CE2:4791, V-B:HIS:456:CE1:9042, V-B:GLY:544:C:9884, V-A:GLY:544:C:4910, V-B:LYS:547:CE:9922, V-A:HIS:456:CD2:4066, V-B:GLU:543:C:9874, V-A:HIS:456:CG:4064, H-B:LYS:547:NZ:9923, V-B:GLY:544:CA:9886, V-B:ARG:545:CG:9894, V-B:ARG:545:CD:9895, V-A:HIS:456:CB:4063"]

$$$$
4aa_Grossjean_2025
     RDKit          3D

 45 47  0  0  0  0  0  0  0  0999 V2000
  129.3580  125.9190   72.2760 C   0  0  0  0  0  0  0  0  0  0  0  0
  130.0800  127.2510   72.4990 C   0  0  0  0  0  0  0  0  0  0  0  0
  129.3610  128.2940   71.8530 O   0  0  0  0  0  0  0  0  0  0  0  0
  128.3150  128.0190   71.0320 C   0  0  0  0  0  0  0  0  0  0  0  0
  127.1330  128.1080   71.3810 O   0  0  0  0  0  0  0  0  0  0  0  0
  128.7370  127.5900   69.6560 C   0  0  0  0  0  0  0  0  0  0  0  0
  130.0980  127.3920   69.3890 C   0  0  0  0  0  0  0  0  0  0  0  0
  130.5220  126.9990   68.1220 C   0  0  0  0  0  0  0  0  0  0  0  0
  129.5950  126.7880   67.1010 C   0  0  0  0  0  0  0  0  0  0  0  0
  130.1330  126.4020   65.8580 N   0  0  0  0  0  0  0  0  0  0  0  0
  131.3970  126.0440   65.5260 C   0  0  0  0  0  0  0  0  0  0  0  0
  132.3450  126.0450   66.3120 O   0  0  0  0  0  0  0  0  0  0  0  0
  131.5930  125.6670   64.1250 C   0  0  0  0  0  0  0  0  0  0  0  0
  133.0300  124.7650   63.6380 S   0  0  0  0  0  0  0  0  0  0  0  0
  132.5290  124.7800   61.9630 C   0  0  0  0  0  0  0  0  0  0  0  0
  133.2570  124.2060   61.0030 N   0  0  0  0  0  0  0  0  0  0  0  0
  132.7580  124.2930   59.7460 C   0  0  0  0  0  0  0  0  0  0  0  0
  133.6040  123.6380   58.6690 C   0  0  0  0  0  0  0  0  0  0  0  0
  131.5600  124.9290   59.4300 C   0  0  0  0  0  0  0  0  0  0  0  0
  130.7980  125.5280   60.4390 C   0  0  0  0  0  0  0  0  0  0  0  0
  129.4970  126.2110   60.0440 C   0  0  0  0  0  0  0  0  0  0  0  0
  131.2910  125.4620   61.7700 C   0  0  0  0  0  0  0  0  0  0  0  0
  130.7810  125.9620   63.0190 C   0  0  0  0  0  0  0  0  0  0  0  0
  129.6020  126.6600   63.1000 N   0  0  0  0  0  0  0  0  0  0  0  0
  128.2310  126.9900   67.3560 C   0  0  0  0  0  0  0  0  0  0  0  0
  127.8090  127.3860   68.6230 C   0  0  0  0  0  0  0  0  0  0  0  0
  129.1132  125.4673   73.2486 H   0  0  0  0  0  0  0  0  0  0  0  0
  128.4315  126.0945   71.7096 H   0  0  0  0  0  0  0  0  0  0  0  0
  130.0107  125.2385   71.7096 H   0  0  0  0  0  0  0  0  0  0  0  0
  130.1393  127.4599   73.5774 H   0  0  0  0  0  0  0  0  0  0  0  0
  131.0956  127.1921   72.0805 H   0  0  0  0  0  0  0  0  0  0  0  0
  130.8384  127.5484   70.1873 H   0  0  0  0  0  0  0  0  0  0  0  0
  131.5945  126.8541   67.9251 H   0  0  0  0  0  0  0  0  0  0  0  0
  129.4650  126.4080   65.1000 H   0  0  0  0  0  0  0  0  0  0  0  0
  134.3901  123.0294   59.1398 H   0  0  0  0  0  0  0  0  0  0  0  0
  132.9676  122.9948   58.0434 H   0  0  0  0  0  0  0  0  0  0  0  0
  134.0673  124.4152   58.0434 H   0  0  0  0  0  0  0  0  0  0  0  0
  131.2127  124.9604   58.3867 H   0  0  0  0  0  0  0  0  0  0  0  0
  128.9451  126.5007   60.9503 H   0  0  0  0  0  0  0  0  0  0  0  0
  129.7201  127.1082   59.4480 H   0  0  0  0  0  0  0  0  0  0  0  0
  128.8852  125.5178   59.4480 H   0  0  0  0  0  0  0  0  0  0  0  0
  129.5820  127.6560   63.2640 H   0  0  0  0  0  0  0  0  0  0  0  0
  128.7090  126.1970   63.0020 H   0  0  0  0  0  0  0  0  0  0  0  0
  127.4935  126.8356   66.5546 H   0  0  0  0  0  0  0  0  0  0  0  0
  126.7371  127.5405   68.8160 H   0  0  0  0  0  0  0  0  0  0  0  0
  1  2  1  0
  2  3  1  0
  3  4  1  0
  4  5  2  0
  4  6  1  0
  6  7  2  0
  7  8  1  0
  8  9  2  0
  9 10  1  0
 10 11  1  0
 11 12  2  0
 11 13  1  0
 13 14  1  0
 14 15  1  0
 15 16  2  0
 16 17  1  0
 17 18  1  0
 17 19  2  0
 19 20  1  0
 20 21  1  0
 20 22  2  0
 22 23  1  0
 23 24  1  0
  9 25  1  0
 25 26  2  0
 26  6  1  0
 23 13  2  0
 22 15  1  0
  1 27  1  0
  1 28  1  0
  1 29  1  0
  2 30  1  0
  2 31  1  0
  7 32  1  0
  8 33  1  0
 10 34  1  0
 18 35  1  0
 18 36  1  0
 18 37  1  0
 19 38  1  0
 21 39  1  0
 21 40  1  0
 21 41  1  0
 24 42  1  0
 24 43  1  0
 25 44  1  0
 26 45  1  0
M  END
>  <Binding energies>  (1) 
[-7.14]

>  <Ligand effiencies>  (1) 
[-0.24620689655172412]

>  <Interactions>  (1) 
["V-A:ILE:369:CG2:3235, V-A:ILE:369:CD1:3237, V-B:TYR:539:CE2:9848, V-A:ASP:366:CG:3211, H-B:GLU:543:OE2:9882, H-B:GLU:543:OE1:9881, H-A:GLU:543:OE2:4908, V-A:GLU:543:CD:4906, V-A:HIS:456:CE1:4068, H-A:ARG:545:NE:4922, H-A:TYR:484:OH:4346, H-A:GLU:543:OE1:4907, V-B:GLU:543:CD:9880, V-A:ARG:545:CZ:4924, V-B:GLU:543:CB:9878, V-B:GLU:543:CG:9879, V-B:HIS:456:CE1:9042, V-A:ILE:369:CB:3234, V-A:LYS:547:CE:4948, V-A:GLY:544:C:4910, V-A:GLU:543:C:4900, V-B:LYS:547:CE:9922, V-A:HIS:456:CD2:4066, V-B:HIS:456:CD2:9040, V-B:GLU:543:C:9874, V-B:GLY:544:CA:9886, V-A:ARG:545:CG:4920, V-A:ASP:366:CA:3208, H-A:HIS:456:ND1:4065, H-B:HIS:456:ND1:9039"]

$$$$
4ab_Grossjean_2025
     RDKit          3D

 42 44  0  0  0  0  0  0  0  0999 V2000
  128.2160  127.4410   72.6620 C   0  0  0  0  0  0  0  0  0  0  0  0
  128.7990  126.3760   71.9250 O   0  0  0  0  0  0  0  0  0  0  0  0
  129.8100  126.6040   71.0490 C   0  0  0  0  0  0  0  0  0  0  0  0
  131.0020  126.4300   71.3230 O   0  0  0  0  0  0  0  0  0  0  0  0
  129.3350  127.0990   69.7130 C   0  0  0  0  0  0  0  0  0  0  0  0
  127.9630  127.2920   69.5040 C   0  0  0  0  0  0  0  0  0  0  0  0
  127.4920  127.7480   68.2750 C   0  0  0  0  0  0  0  0  0  0  0  0
  128.3790  128.0270   67.2360 C   0  0  0  0  0  0  0  0  0  0  0  0
  127.7930  128.4740   66.0370 N   0  0  0  0  0  0  0  0  0  0  0  0
  127.2340  129.6700   65.7310 C   0  0  0  0  0  0  0  0  0  0  0  0
  127.1100  130.6010   66.5280 O   0  0  0  0  0  0  0  0  0  0  0  0
  126.7440  129.7970   64.3570 C   0  0  0  0  0  0  0  0  0  0  0  0
  125.4410  130.9260   63.9770 S   0  0  0  0  0  0  0  0  0  0  0  0
  125.4510  130.4470   62.2950 C   0  0  0  0  0  0  0  0  0  0  0  0
  124.6200  130.9850   61.4020 N   0  0  0  0  0  0  0  0  0  0  0  0
  124.7290  130.5230   60.1330 C   0  0  0  0  0  0  0  0  0  0  0  0
  123.7710  131.1440   59.1340 C   0  0  0  0  0  0  0  0  0  0  0  0
  125.6430  129.5480   59.7390 C   0  0  0  0  0  0  0  0  0  0  0  0
  126.5140  128.9850   60.6790 C   0  0  0  0  0  0  0  0  0  0  0  0
  127.4930  127.9230   60.2000 C   0  0  0  0  0  0  0  0  0  0  0  0
  126.4270  129.4410   62.0220 C   0  0  0  0  0  0  0  0  0  0  0  0
  127.1450  129.0850   63.2160 C   0  0  0  0  0  0  0  0  0  0  0  0
  128.1340  128.1340   63.2180 N   0  0  0  0  0  0  0  0  0  0  0  0
  129.7540  127.8310   67.4340 C   0  0  0  0  0  0  0  0  0  0  0  0
  130.2240  127.3730   68.6620 C   0  0  0  0  0  0  0  0  0  0  0  0
  128.3239  127.2439   73.7388 H   0  0  0  0  0  0  0  0  0  0  0  0
  128.7241  128.3832   72.4090 H   0  0  0  0  0  0  0  0  0  0  0  0
  127.1485  127.5207   72.4090 H   0  0  0  0  0  0  0  0  0  0  0  0
  127.2523  127.0818   70.3168 H   0  0  0  0  0  0  0  0  0  0  0  0
  126.4117  127.8891   68.1229 H   0  0  0  0  0  0  0  0  0  0  0  0
  127.7820  127.7840   65.3020 H   0  0  0  0  0  0  0  0  0  0  0  0
  122.9664  131.6656   59.6730 H   0  0  0  0  0  0  0  0  0  0  0  0
  124.3145  131.8620   58.5023 H   0  0  0  0  0  0  0  0  0  0  0  0
  123.3375  130.3547   58.5023 H   0  0  0  0  0  0  0  0  0  0  0  0
  125.6801  129.2208   58.6895 H   0  0  0  0  0  0  0  0  0  0  0  0
  127.9501  127.4271   61.0690 H   0  0  0  0  0  0  0  0  0  0  0  0
  126.9579  127.1784   59.5924 H   0  0  0  0  0  0  0  0  0  0  0  0
  128.2786  128.3959   59.5924 H   0  0  0  0  0  0  0  0  0  0  0  0
  127.9250  127.1460   63.1970 H   0  0  0  0  0  0  0  0  0  0  0  0
  129.1110  128.3930   63.2470 H   0  0  0  0  0  0  0  0  0  0  0  0
  130.4617  128.0394   66.6181 H   0  0  0  0  0  0  0  0  0  0  0  0
  131.3038  127.2243   68.8101 H   0  0  0  0  0  0  0  0  0  0  0  0
  1  2  1  0
  2  3  1  0
  3  4  2  0
  3  5  1  0
  5  6  2  0
  6  7  1  0
  7  8  2  0
  8  9  1  0
  9 10  1  0
 10 11  2  0
 10 12  1  0
 12 13  1  0
 13 14  1  0
 14 15  2  0
 15 16  1  0
 16 17  1  0
 16 18  2  0
 18 19  1  0
 19 20  1  0
 19 21  2  0
 21 22  1  0
 22 23  1  0
  8 24  1  0
 24 25  2  0
 25  5  1  0
 22 12  2  0
 21 14  1  0
  1 26  1  0
  1 27  1  0
  1 28  1  0
  6 29  1  0
  7 30  1  0
  9 31  1  0
 17 32  1  0
 17 33  1  0
 17 34  1  0
 18 35  1  0
 20 36  1  0
 20 37  1  0
 20 38  1  0
 23 39  1  0
 23 40  1  0
 24 41  1  0
 25 42  1  0
M  END
>  <Binding energies>  (1) 
[-6.89]

>  <Ligand effiencies>  (1) 
[-0.24607142857142855]

>  <Interactions>  (1) 
["V-B:ASP:366:CG:8185, V-B:ILE:369:CG2:8209, V-A:TYR:539:CE2:4874, H-B:GLU:543:OE2:9882, H-B:GLU:543:OE1:9881, H-A:GLU:543:OE2:4908, V-A:GLU:543:CD:4906, V-A:HIS:456:CE1:4068, H-A:GLU:543:OE1:4907, V-B:GLU:543:CD:9880, V-B:GLU:543:CG:9879, V-A:GLU:543:CG:4905, H-B:TYR:484:OH:9320, V-A:GLU:543:CB:4904, V-B:HIS:456:CE1:9042, V-B:ASP:366:CB:8184, V-B:ASP:366:CA:8182, V-B:GLY:544:C:9884, V-A:GLU:543:C:4900, V-B:LYS:547:CE:9922, V-A:HIS:456:CD2:4066, V-B:GLU:543:C:9874, V-B:ARG:545:CG:9894, H-A:HIS:456:ND1:4065"]

$$$$
4ac_Grossjean_2025
     RDKit          3D

 40 42  0  0  0  0  0  0  0  0999 V2000
  123.4460  129.9980   66.9350 C   0  0  0  0  0  0  0  0  0  0  0  0
  123.3430  129.6820   65.5510 O   0  0  0  0  0  0  0  0  0  0  0  0
  124.4230  129.9200   64.7230 C   0  0  0  0  0  0  0  0  0  0  0  0
  124.1340  130.1960   63.3870 C   0  0  0  0  0  0  0  0  0  0  0  0
  125.1570  130.4490   62.4770 C   0  0  0  0  0  0  0  0  0  0  0  0
  126.4880  130.4370   62.8970 C   0  0  0  0  0  0  0  0  0  0  0  0
  127.4550  130.6900   61.9060 N   0  0  0  0  0  0  0  0  0  0  0  0
  127.5160  131.7020   61.0070 C   0  0  0  0  0  0  0  0  0  0  0  0
  126.6600  132.5830   60.9010 O   0  0  0  0  0  0  0  0  0  0  0  0
  128.6890  131.6910   60.1290 C   0  0  0  0  0  0  0  0  0  0  0  0
  128.5140  132.0110   58.4030 S   0  0  0  0  0  0  0  0  0  0  0  0
  130.2320  131.8140   58.1430 C   0  0  0  0  0  0  0  0  0  0  0  0
  130.7830  131.9440   56.9360 N   0  0  0  0  0  0  0  0  0  0  0  0
  132.1250  131.7660   56.8720 C   0  0  0  0  0  0  0  0  0  0  0  0
  132.7330  131.9190   55.4900 C   0  0  0  0  0  0  0  0  0  0  0  0
  132.9200  131.4620   57.9760 C   0  0  0  0  0  0  0  0  0  0  0  0
  132.3380  131.3260   59.2410 C   0  0  0  0  0  0  0  0  0  0  0  0
  133.2480  130.9940   60.4140 C   0  0  0  0  0  0  0  0  0  0  0  0
  130.9330  131.5080   59.3470 C   0  0  0  0  0  0  0  0  0  0  0  0
  130.0300  131.4460   60.4650 C   0  0  0  0  0  0  0  0  0  0  0  0
  130.4590  131.1680   61.7380 N   0  0  0  0  0  0  0  0  0  0  0  0
  126.7890  130.1470   64.2360 C   0  0  0  0  0  0  0  0  0  0  0  0
  125.7620  129.8950   65.1420 C   0  0  0  0  0  0  0  0  0  0  0  0
  123.1600  129.1206   67.5337 H   0  0  0  0  0  0  0  0  0  0  0  0
  124.4827  130.2805   67.1704 H   0  0  0  0  0  0  0  0  0  0  0  0
  122.7749  130.8371   67.1704 H   0  0  0  0  0  0  0  0  0  0  0  0
  123.0875  130.2140   63.0487 H   0  0  0  0  0  0  0  0  0  0  0  0
  124.9156  130.6588   61.4245 H   0  0  0  0  0  0  0  0  0  0  0  0
  128.1840  129.9940   61.8450 H   0  0  0  0  0  0  0  0  0  0  0  0
  133.7958  132.1864   55.5845 H   0  0  0  0  0  0  0  0  0  0  0  0
  132.6411  130.9697   54.9419 H   0  0  0  0  0  0  0  0  0  0  0  0
  132.2028  132.7117   54.9419 H   0  0  0  0  0  0  0  0  0  0  0  0
  134.0049  131.3290   57.8526 H   0  0  0  0  0  0  0  0  0  0  0  0
  132.7161  131.1881   61.3571 H   0  0  0  0  0  0  0  0  0  0  0  0
  133.5351  129.9332   60.3665 H   0  0  0  0  0  0  0  0  0  0  0  0
  134.1508  131.6207   60.3665 H   0  0  0  0  0  0  0  0  0  0  0  0
  131.3890  131.4050   62.0510 H   0  0  0  0  0  0  0  0  0  0  0  0
  129.8530  130.7170   62.4090 H   0  0  0  0  0  0  0  0  0  0  0  0
  127.8365  130.1186   64.5704 H   0  0  0  0  0  0  0  0  0  0  0  0
  126.0019  129.6750   66.1927 H   0  0  0  0  0  0  0  0  0  0  0  0
  1  2  1  0
  2  3  1  0
  3  4  2  0
  4  5  1  0
  5  6  2  0
  6  7  1  0
  7  8  1  0
  8  9  2  0
  8 10  1  0
 10 11  1  0
 11 12  1  0
 12 13  2  0
 13 14  1  0
 14 15  1  0
 14 16  2  0
 16 17  1  0
 17 18  1  0
 17 19  2  0
 19 20  1  0
 20 21  1  0
  6 22  1  0
 22 23  2  0
 23  3  1  0
 20 10  2  0
 19 12  1  0
  1 24  1  0
  1 25  1  0
  1 26  1  0
  4 27  1  0
  5 28  1  0
  7 29  1  0
 15 30  1  0
 15 31  1  0
 15 32  1  0
 16 33  1  0
 18 34  1  0
 18 35  1  0
 18 36  1  0
 21 37  1  0
 21 38  1  0
 22 39  1  0
 23 40  1  0
M  END
>  <Binding energies>  (1) 
[-7.21]

>  <Ligand effiencies>  (1) 
[-0.2773076923076923]

>  <Interactions>  (1) 
["V-A:ILE:538:CG2:4861, V-A:PRO:540:CD:4885, V-A:PRO:540:N:4882, V-A:ILE:538:CB:4860, V-A:TYR:531:CZ:4792, V-A:ASP:366:CG:3211, V-A:TYR:539:CD2:4872, V-A:TYR:539:CE2:4874, V-A:PRO:540:CA:4881, H-A:GLU:543:OE2:4908, V-A:ALA:541:CB:4890, V-A:GLU:543:CD:4906, H-A:GLU:543:OE1:4907, V-B:ARG:545:CZ:9898, V-A:ASN:362:CB:3174, H-B:ARG:545:NE:9896, H-B:GLY:454:N:9022, V-A:PRO:540:CB:4883, V-A:LEU:363:CD1:3187, V-A:TYR:539:C:4865, H-B:TYR:484:OH:9320, V-A:TYR:531:CE2:4791, V-B:HIS:456:CE1:9042, V-B:ARG:545:CG:9894, V-B:ARG:545:CD:9895, V-B:TYR:484:CZ:9319, V-A:ASN:362:C:3170, V-B:GLY:454:CA:9021, V-B:GLY:453:C:9014, V-B:GLY:453:CA:9016, H-B:ARG:545:NH1:9899, H-A:ALA:541:O:4887, V-B:ARG:545:CB:9893, V-B:ILE:455:C:9024, V-B:GLY:454:C:9019"]

$$$$
4ad_Grossjean_2025
     RDKit          3D

 36 38  0  0  0  0  0  0  0  0999 V2000
  132.2750  137.8820   70.8050 C   0  0  0  0  0  0  0  0  0  0  0  0
  131.5330  136.9660   71.7600 C   0  0  0  0  0  0  0  0  0  0  0  0
  131.3380  137.3240   73.0920 C   0  0  0  0  0  0  0  0  0  0  0  0
  130.6530  136.4600   73.9560 C   0  0  0  0  0  0  0  0  0  0  0  0
  130.4660  136.8940   75.4020 C   0  0  0  0  0  0  0  0  0  0  0  0
  130.1770  135.2310   73.4250 C   0  0  0  0  0  0  0  0  0  0  0  0
  129.4520  134.1370   74.0120 C   0  0  0  0  0  0  0  0  0  0  0  0
  129.0700  134.1370   75.3300 N   0  0  0  0  0  0  0  0  0  0  0  0
  129.1780  133.0890   73.1190 C   0  0  0  0  0  0  0  0  0  0  0  0
  128.4810  131.8280   73.3790 C   0  0  0  0  0  0  0  0  0  0  0  0
  128.9300  130.7620   72.9520 O   0  0  0  0  0  0  0  0  0  0  0  0
  127.3470  131.9320   74.1150 N   0  0  0  0  0  0  0  0  0  0  0  0
  126.4340  130.9310   74.5000 C   0  0  0  0  0  0  0  0  0  0  0  0
  126.7400  129.6320   74.0830 C   0  0  0  0  0  0  0  0  0  0  0  0
  125.9040  128.5710   74.4220 C   0  0  0  0  0  0  0  0  0  0  0  0
  124.7650  128.8070   75.1870 C   0  0  0  0  0  0  0  0  0  0  0  0
  124.4570  130.0950   75.6210 C   0  0  0  0  0  0  0  0  0  0  0  0
  125.2900  131.1570   75.2820 C   0  0  0  0  0  0  0  0  0  0  0  0
  129.8140  133.4400   71.5110 S   0  0  0  0  0  0  0  0  0  0  0  0
  130.4430  134.9820   72.0440 C   0  0  0  0  0  0  0  0  0  0  0  0
  131.0950  135.8030   71.2190 N   0  0  0  0  0  0  0  0  0  0  0  0
  132.8652  138.6107   71.3800 H   0  0  0  0  0  0  0  0  0  0  0  0
  132.9468  137.2844   70.1713 H   0  0  0  0  0  0  0  0  0  0  0  0
  131.5510  138.4151   70.1713 H   0  0  0  0  0  0  0  0  0  0  0  0
  131.7218  138.2849   73.4653 H   0  0  0  0  0  0  0  0  0  0  0  0
  130.8110  136.0933   76.0727 H   0  0  0  0  0  0  0  0  0  0  0  0
  131.0507  137.8067   75.5894 H   0  0  0  0  0  0  0  0  0  0  0  0
  129.4011  137.0959   75.5894 H   0  0  0  0  0  0  0  0  0  0  0  0
  128.1010  134.0770   75.6060 H   0  0  0  0  0  0  0  0  0  0  0  0
  129.7530  134.1910   76.0740 H   0  0  0  0  0  0  0  0  0  0  0  0
  127.1220  132.8550   74.4560 H   0  0  0  0  0  0  0  0  0  0  0  0
  127.6445  129.4474   73.4849 H   0  0  0  0  0  0  0  0  0  0  0  0
  126.1426  127.5509   74.0868 H   0  0  0  0  0  0  0  0  0  0  0  0
  124.1024  127.9696   75.4512 H   0  0  0  0  0  0  0  0  0  0  0  0
  123.5580  130.2717   76.2298 H   0  0  0  0  0  0  0  0  0  0  0  0
  125.0520  132.1741   75.6269 H   0  0  0  0  0  0  0  0  0  0  0  0
  1  2  1  0
  2  3  2  0
  3  4  1  0
  4  5  1  0
  4  6  2  0
  6  7  1  0
  7  8  1  0
  7  9  2  0
  9 10  1  0
 10 11  2  0
 10 12  1  0
 12 13  1  0
 13 14  2  0
 14 15  1  0
 15 16  2  0
 16 17  1  0
 17 18  2  0
  9 19  1  0
 19 20  1  0
 20 21  2  0
 21  2  1  0
 20  6  1  0
 18 13  1  0
  1 22  1  0
  1 23  1  0
  1 24  1  0
  3 25  1  0
  5 26  1  0
  5 27  1  0
  5 28  1  0
  8 29  1  0
  8 30  1  0
 12 31  1  0
 14 32  1  0
 15 33  1  0
 16 34  1  0
 17 35  1  0
 18 36  1  0
M  END
>  <Binding energies>  (1) 
[-7.21]

>  <Ligand effiencies>  (1) 
[-0.30041666666666667]

>  <Interactions>  (1) 
["V-B:TYR:484:CG:9314, V-A:LYS:547:CE:4948, V-B:HIS:456:CG:9038, V-B:TYR:484:CB:9313, V-A:GLU:543:C:4900, V-B:HIS:456:CD2:9040, H-A:LYS:547:NZ:4949, V-A:GLY:544:CA:4912, V-B:VAL:458:CG2:9059, V-B:VAL:457:C:9045, V-B:HIS:456:CB:9037, V-B:HIS:456:C:9033, V-B:LYS:471:CE:9192, V-B:ASP:473:CG:9212, V-A:VAL:542:CG1:4897, H-B:ASP:473:OD2:9214, V-A:GLU:543:CA:4902, V-B:TYR:484:CD1:9315, V-B:SER:483:CB:9305, H-B:TYR:484:N:9312, V-B:SER:483:CA:9303"]

$$$$
4ae_Grossjean_2025
     RDKit          3D

 38 40  0  0  0  0  0  0  0  0999 V2000
  131.9730  127.0050   74.1190 C   0  0  0  0  0  0  0  0  0  0  0  0
  132.3520  125.5510   74.3170 C   0  0  0  0  0  0  0  0  0  0  0  0
  133.5820  125.1840   74.8690 C   0  0  0  0  0  0  0  0  0  0  0  0
  133.8650  123.8260   75.0140 C   0  0  0  0  0  0  0  0  0  0  0  0
  132.9250  122.8770   74.6070 C   0  0  0  0  0  0  0  0  0  0  0  0
  131.7090  123.3130   74.0700 C   0  0  0  0  0  0  0  0  0  0  0  0
  130.8110  122.3120   73.6600 N   0  0  0  0  0  0  0  0  0  0  0  0
  129.6670  122.4400   72.9420 C   0  0  0  0  0  0  0  0  0  0  0  0
  129.2310  123.5180   72.5340 O   0  0  0  0  0  0  0  0  0  0  0  0
  128.9520  121.1910   72.6740 C   0  0  0  0  0  0  0  0  0  0  0  0
  128.1780  120.9260   71.1100 S   0  0  0  0  0  0  0  0  0  0  0  0
  127.5820  119.3620   71.6160 C   0  0  0  0  0  0  0  0  0  0  0  0
  126.8520  118.5910   70.8090 N   0  0  0  0  0  0  0  0  0  0  0  0
  126.4480  117.4050   71.3250 C   0  0  0  0  0  0  0  0  0  0  0  0
  125.6130  116.5460   70.3930 C   0  0  0  0  0  0  0  0  0  0  0  0
  126.7560  116.9750   72.6150 C   0  0  0  0  0  0  0  0  0  0  0  0
  127.5230  117.7870   73.4580 C   0  0  0  0  0  0  0  0  0  0  0  0
  127.8290  117.2760   74.8580 C   0  0  0  0  0  0  0  0  0  0  0  0
  127.9640  119.0400   72.9520 C   0  0  0  0  0  0  0  0  0  0  0  0
  128.7460  120.0990   73.5330 C   0  0  0  0  0  0  0  0  0  0  0  0
  129.2370  120.0320   74.8120 N   0  0  0  0  0  0  0  0  0  0  0  0
  131.4270  124.6400   73.9180 N   0  0  0  0  0  0  0  0  0  0  0  0
  131.8471  127.4879   75.0993 H   0  0  0  0  0  0  0  0  0  0  0  0
  132.7675  127.5178   73.5570 H   0  0  0  0  0  0  0  0  0  0  0  0
  131.0293  127.0647   73.5570 H   0  0  0  0  0  0  0  0  0  0  0  0
  134.3095  125.9476   75.1816 H   0  0  0  0  0  0  0  0  0  0  0  0
  134.8237  123.5042   75.4467 H   0  0  0  0  0  0  0  0  0  0  0  0
  133.1375  121.8024   74.7072 H   0  0  0  0  0  0  0  0  0  0  0  0
  131.0320  121.3840   73.9920 H   0  0  0  0  0  0  0  0  0  0  0  0
  124.9674  115.8819   70.9864 H   0  0  0  0  0  0  0  0  0  0  0  0
  124.9892  117.1928   69.7586 H   0  0  0  0  0  0  0  0  0  0  0  0
  126.2772  115.9408   69.7586 H   0  0  0  0  0  0  0  0  0  0  0  0
  126.3963  115.9980   72.9699 H   0  0  0  0  0  0  0  0  0  0  0  0
  127.4125  117.9716   75.6014 H   0  0  0  0  0  0  0  0  0  0  0  0
  127.3773  116.2820   74.9924 H   0  0  0  0  0  0  0  0  0  0  0  0
  128.9184  117.2049   74.9924 H   0  0  0  0  0  0  0  0  0  0  0  0
  128.6330  119.8880   75.6090 H   0  0  0  0  0  0  0  0  0  0  0  0
  130.2260  120.1230   75.0000 H   0  0  0  0  0  0  0  0  0  0  0  0
  1  2  1  0
  2  3  2  0
  3  4  1  0
  4  5  2  0
  5  6  1  0
  6  7  1  0
  7  8  1  0
  8  9  2  0
  8 10  1  0
 10 11  1  0
 11 12  1  0
 12 13  2  0
 13 14  1  0
 14 15  1  0
 14 16  2  0
 16 17  1  0
 17 18  1  0
 17 19  2  0
 19 20  1  0
 20 21  1  0
  6 22  2  0
 22  2  1  0
 20 10  2  0
 19 12  1  0
  1 23  1  0
  1 24  1  0
  1 25  1  0
  3 26  1  0
  4 27  1  0
  5 28  1  0
  7 29  1  0
 15 30  1  0
 15 31  1  0
 15 32  1  0
 16 33  1  0
 18 34  1  0
 18 35  1  0
 18 36  1  0
 21 37  1  0
 21 38  1  0
M  END
>  <Binding energies>  (1) 
[-7.21]

>  <Ligand effiencies>  (1) 
[-0.2884]

>  <Interactions>  (1) 
["V-A:LYS:547:CE:4948, V-A:GLY:544:C:4910, V-B:LYS:547:CE:9922, V-A:HIS:456:CD2:4066, V-B:GLU:543:C:9874, V-A:HIS:456:CG:4064, H-B:LYS:547:NZ:9923, V-B:GLY:544:CA:9886, V-A:TYR:484:CD1:4341, V-A:TYR:484:CG:4340, V-B:GLU:543:CA:9876, V-A:TYR:484:CB:4339, V-A:ASP:473:CG:4238, V-A:HIS:456:C:4059, V-A:LYS:471:CD:4217, V-A:HIS:456:CB:4063, V-A:VAL:458:CG2:4085, V-A:LYS:471:CE:4218, V-A:LYS:547:CD:4947, V-B:VAL:542:CG1:9871, V-A:LYS:547:CG:4946, V-A:HIS:456:CA:4061, V-A:LYS:471:CG:4216, V-A:ASP:473:CB:4237, H-A:ASP:473:OD2:4240, V-A:SER:483:CB:4331, V-A:SER:483:CA:4329, H-A:TYR:484:N:4338"]

$$$$
4af_Grossjean_2025
     RDKit          3D

 35 37  0  0  0  0  0  0  0  0999 V2000
  132.1980  131.9620   55.4850 C   0  0  0  0  0  0  0  0  0  0  0  0
  131.6220  131.7500   56.8730 C   0  0  0  0  0  0  0  0  0  0  0  0
  132.4520  131.5030   57.9640 C   0  0  0  0  0  0  0  0  0  0  0  0
  131.8980  131.3070   59.2350 C   0  0  0  0  0  0  0  0  0  0  0  0
  132.8440  131.0390   60.3940 C   0  0  0  0  0  0  0  0  0  0  0  0
  130.4830  131.3710   59.3590 C   0  0  0  0  0  0  0  0  0  0  0  0
  129.6010  131.2190   60.4850 C   0  0  0  0  0  0  0  0  0  0  0  0
  130.0660  130.9630   61.7500 N   0  0  0  0  0  0  0  0  0  0  0  0
  128.2410  131.3580   60.1660 C   0  0  0  0  0  0  0  0  0  0  0  0
  127.0800  131.2360   61.0500 C   0  0  0  0  0  0  0  0  0  0  0  0
  125.9840  131.6850   60.7120 O   0  0  0  0  0  0  0  0  0  0  0  0
  127.3090  130.5950   62.2220 N   0  0  0  0  0  0  0  0  0  0  0  0
  126.4340  130.3550   63.2980 C   0  0  0  0  0  0  0  0  0  0  0  0
  126.8050  129.8380   64.5520 C   0  0  0  0  0  0  0  0  0  0  0  0
  125.8310  129.6310   65.5300 C   0  0  0  0  0  0  0  0  0  0  0  0
  124.5040  129.9440   65.2300 C   0  0  0  0  0  0  0  0  0  0  0  0
  124.1190  130.4360   64.0250 N   0  0  0  0  0  0  0  0  0  0  0  0
  125.0780  130.6310   63.0850 C   0  0  0  0  0  0  0  0  0  0  0  0
  128.0200  131.6810   58.4440 S   0  0  0  0  0  0  0  0  0  0  0  0
  129.7460  131.6310   58.1650 C   0  0  0  0  0  0  0  0  0  0  0  0
  130.2700  131.8180   56.9530 N   0  0  0  0  0  0  0  0  0  0  0  0
  133.2273  132.3408   55.5691 H   0  0  0  0  0  0  0  0  0  0  0  0
  132.2023  131.0065   54.9399 H   0  0  0  0  0  0  0  0  0  0  0  0
  131.5819  132.6923   54.9399 H   0  0  0  0  0  0  0  0  0  0  0  0
  133.5427  131.4619   57.8271 H   0  0  0  0  0  0  0  0  0  0  0  0
  132.3113  131.1899   61.3445 H   0  0  0  0  0  0  0  0  0  0  0  0
  133.2079  130.0024   60.3382 H   0  0  0  0  0  0  0  0  0  0  0  0
  133.6975  131.7307   60.3382 H   0  0  0  0  0  0  0  0  0  0  0  0
  130.0590  130.0320   62.1430 H   0  0  0  0  0  0  0  0  0  0  0  0
  130.4370  131.7020   62.3310 H   0  0  0  0  0  0  0  0  0  0  0  0
  128.2400  130.2250   62.3520 H   0  0  0  0  0  0  0  0  0  0  0  0
  127.8579  129.5979   64.7612 H   0  0  0  0  0  0  0  0  0  0  0  0
  126.1034  129.2294   66.5172 H   0  0  0  0  0  0  0  0  0  0  0  0
  123.7378  129.7851   66.0031 H   0  0  0  0  0  0  0  0  0  0  0  0
  124.7742  131.0265   62.1046 H   0  0  0  0  0  0  0  0  0  0  0  0
  1  2  1  0
  2  3  2  0
  3  4  1  0
  4  5  1  0
  4  6  2  0
  6  7  1  0
  7  8  1  0
  7  9  2  0
  9 10  1  0
 10 11  2  0
 10 12  1  0
 12 13  1  0
 13 14  2  0
 14 15  1  0
 15 16  2  0
 16 17  1  0
 17 18  2  0
  9 19  1  0
 19 20  1  0
 20 21  2  0
 21  2  1  0
 20  6  1  0
 18 13  1  0
  1 22  1  0
  1 23  1  0
  1 24  1  0
  3 25  1  0
  5 26  1  0
  5 27  1  0
  5 28  1  0
  8 29  1  0
  8 30  1  0
 12 31  1  0
 14 32  1  0
 15 33  1  0
 16 34  1  0
 18 35  1  0
M  END
>  <Binding energies>  (1) 
[-7.25]

>  <Ligand effiencies>  (1) 
[-0.3020833333333333]

>  <Interactions>  (1) 
["V-A:ILE:538:CG2:4861, V-A:PRO:540:CD:4885, V-A:PRO:540:N:4882, V-A:ILE:538:CB:4860, V-A:ILE:538:CA:4858, V-A:TYR:531:CZ:4792, V-A:TYR:539:CD2:4872, V-A:TYR:539:CE2:4874, V-A:TYR:539:CZ:4875, V-A:PRO:540:CA:4881, H-A:GLU:543:OE2:4908, V-A:GLU:543:CD:4906, H-A:GLU:543:OE1:4907, V-B:ARG:545:CZ:9898, V-A:ASN:362:CB:3174, H-B:GLY:454:N:9022, V-A:PRO:540:CB:4883, V-A:TYR:539:C:4865, H-B:TYR:484:OH:9320, V-A:TYR:531:CE2:4791, V-B:HIS:456:CE1:9042, V-B:ARG:545:CD:9895, H-A:ALA:541:O:4887"]

$$$$
4ag_Grossjean_2025
     RDKit          3D

 39 41  0  0  0  0  0  0  0  0999 V2000
  134.2390  119.9530   60.6320 C   0  0  0  0  0  0  0  0  0  0  0  0
  133.2210  121.0360   60.9390 C   0  0  0  0  0  0  0  0  0  0  0  0
  133.5930  122.2000   61.6090 C   0  0  0  0  0  0  0  0  0  0  0  0
  132.6380  123.1870   61.8810 C   0  0  0  0  0  0  0  0  0  0  0  0
  133.0930  124.4400   62.6140 C   0  0  0  0  0  0  0  0  0  0  0  0
  131.3040  122.9540   61.4540 C   0  0  0  0  0  0  0  0  0  0  0  0
  130.1010  123.7330   61.5640 C   0  0  0  0  0  0  0  0  0  0  0  0
  130.0770  124.9630   62.1730 N   0  0  0  0  0  0  0  0  0  0  0  0
  128.9720  123.1210   61.0000 C   0  0  0  0  0  0  0  0  0  0  0  0
  127.6030  123.6320   60.9260 C   0  0  0  0  0  0  0  0  0  0  0  0
  126.8430  123.5740   61.8950 O   0  0  0  0  0  0  0  0  0  0  0  0
  127.2240  124.1460   59.7370 N   0  0  0  0  0  0  0  0  0  0  0  0
  125.9170  124.7330   59.4460 C   0  0  0  0  0  0  0  0  0  0  0  0
  125.2740  124.2090   58.1670 C   0  0  0  0  0  0  0  0  0  0  0  0
  126.0800  123.7730   57.1120 C   0  0  0  0  0  0  0  0  0  0  0  0
  125.4950  123.2690   55.9520 C   0  0  0  0  0  0  0  0  0  0  0  0
  124.1070  123.1930   55.8570 C   0  0  0  0  0  0  0  0  0  0  0  0
  123.2980  123.6120   56.9110 C   0  0  0  0  0  0  0  0  0  0  0  0
  123.8830  124.1140   58.0710 C   0  0  0  0  0  0  0  0  0  0  0  0
  129.3770  121.5540   60.3010 S   0  0  0  0  0  0  0  0  0  0  0  0
  131.0520  121.7230   60.7770 C   0  0  0  0  0  0  0  0  0  0  0  0
  131.9590  120.7810   60.5150 N   0  0  0  0  0  0  0  0  0  0  0  0
  134.6286  119.5385   61.5735 H   0  0  0  0  0  0  0  0  0  0  0  0
  133.7587  119.1526   60.0500 H   0  0  0  0  0  0  0  0  0  0  0  0
  135.0675  120.3829   60.0500 H   0  0  0  0  0  0  0  0  0  0  0  0
  134.6371  122.3433   61.9242 H   0  0  0  0  0  0  0  0  0  0  0  0
  133.0321  124.2723   63.6994 H   0  0  0  0  0  0  0  0  0  0  0  0
  134.1322  124.6703   62.3363 H   0  0  0  0  0  0  0  0  0  0  0  0
  132.4437  125.2834   62.3363 H   0  0  0  0  0  0  0  0  0  0  0  0
  129.3400  125.2280   62.8110 H   0  0  0  0  0  0  0  0  0  0  0  0
  130.8020  125.6470   62.0050 H   0  0  0  0  0  0  0  0  0  0  0  0
  127.9160  124.2140   59.0050 H   0  0  0  0  0  0  0  0  0  0  0  0
  125.2436  124.5126   60.2874 H   0  0  0  0  0  0  0  0  0  0  0  0
  126.0768  125.8120   59.3035 H   0  0  0  0  0  0  0  0  0  0  0  0
  127.1753  123.8276   57.1971 H   0  0  0  0  0  0  0  0  0  0  0  0
  126.1257  122.9329   55.1158 H   0  0  0  0  0  0  0  0  0  0  0  0
  123.6451  122.7980   54.9401 H   0  0  0  0  0  0  0  0  0  0  0  0
  122.2031  123.5467   56.8275 H   0  0  0  0  0  0  0  0  0  0  0  0
  123.2503  124.4356   58.9114 H   0  0  0  0  0  0  0  0  0  0  0  0
  1  2  1  0
  2  3  2  0
  3  4  1  0
  4  5  1  0
  4  6  2  0
  6  7  1  0
  7  8  1  0
  7  9  2  0
  9 10  1  0
 10 11  2  0
 10 12  1  0
 12 13  1  0
 13 14  1  0
 14 15  2  0
 15 16  1  0
 16 17  2  0
 17 18  1  0
 18 19  2  0
  9 20  1  0
 20 21  1  0
 21 22  2  0
 22  2  1  0
 21  6  1  0
 19 14  1  0
  1 23  1  0
  1 24  1  0
  1 25  1  0
  3 26  1  0
  5 27  1  0
  5 28  1  0
  5 29  1  0
  8 30  1  0
  8 31  1  0
 12 32  1  0
 13 33  1  0
 13 34  1  0
 15 35  1  0
 16 36  1  0
 17 37  1  0
 18 38  1  0
 19 39  1  0
M  END
>  <Binding energies>  (1) 
[-7.35]

>  <Ligand effiencies>  (1) 
[-0.294]

>  <Interactions>  (1) 
["V-B:TYR:539:CD2:9846, V-B:PRO:540:CA:9855, H-B:ALA:541:N:9863, V-A:LEU:475:CD2:4257, V-A:ILE:369:CG2:3235, V-A:TRP:381:CZ2:3368, V-B:ALA:541:CB:9864, V-A:TRP:381:CH2:3370, V-A:ILE:369:CD1:3237, V-B:PRO:540:N:9856, V-B:ILE:538:CB:9834, V-B:TYR:531:CE2:9765, V-B:PRO:540:CD:9859, V-B:PRO:540:CB:9857, V-B:ILE:538:CG2:9835, H-B:GLU:543:OE2:9882, H-B:GLU:543:OE1:9881, V-B:ILE:538:CA:9832, V-B:TYR:539:C:9839, V-B:LEU:363:CD1:8161, V-B:TYR:531:CZ:9766, V-B:GLU:543:CD:9880, V-A:ARG:545:CZ:4924, V-A:GLY:454:CA:4047, V-B:LEU:363:CA:8157, V-B:LEU:363:CB:8159, V-B:PRO:540:CG:9858, V-A:SER:385:C:3403, V-A:SER:385:CA:3405, V-A:SER:385:CB:3407"]

$$$$
4ah_Grossjean_2025
     RDKit          3D

 51 53  0  0  0  0  0  0  0  0999 V2000
  128.9720  123.9690   55.6490 C   0  0  0  0  0  0  0  0  0  0  0  0
  128.6630  123.0940   56.7280 O   0  0  0  0  0  0  0  0  0  0  0  0
  127.7430  123.4910   57.6820 C   0  0  0  0  0  0  0  0  0  0  0  0
  128.0920  124.0180   58.9360 C   0  0  0  0  0  0  0  0  0  0  0  0
  127.1090  124.3970   59.8510 C   0  0  0  0  0  0  0  0  0  0  0  0
  127.5070  125.0100   61.1890 C   0  0  0  0  0  0  0  0  0  0  0  0
  127.0720  126.3970   61.3490 N   0  0  0  0  0  0  0  0  0  0  0  0
  126.9200  127.2890   60.3480 C   0  0  0  0  0  0  0  0  0  0  0  0
  127.1780  127.0200   59.1730 O   0  0  0  0  0  0  0  0  0  0  0  0
  126.4680  128.6230   60.7410 C   0  0  0  0  0  0  0  0  0  0  0  0
  125.5500  129.6180   59.6090 S   0  0  0  0  0  0  0  0  0  0  0  0
  125.4680  130.9320   60.7610 C   0  0  0  0  0  0  0  0  0  0  0  0
  124.8430  132.0760   60.4830 N   0  0  0  0  0  0  0  0  0  0  0  0
  124.8520  133.0130   61.4630 C   0  0  0  0  0  0  0  0  0  0  0  0
  124.1380  134.3080   61.1250 C   0  0  0  0  0  0  0  0  0  0  0  0
  125.4630  132.8330   62.7010 C   0  0  0  0  0  0  0  0  0  0  0  0
  126.1210  131.6310   62.9900 C   0  0  0  0  0  0  0  0  0  0  0  0
  126.7740  131.4820   64.3550 C   0  0  0  0  0  0  0  0  0  0  0  0
  126.1350  130.6250   61.9860 C   0  0  0  0  0  0  0  0  0  0  0  0
  126.7070  129.3060   61.9430 C   0  0  0  0  0  0  0  0  0  0  0  0
  127.4110  128.7760   62.9940 N   0  0  0  0  0  0  0  0  0  0  0  0
  125.7630  124.2760   59.5040 C   0  0  0  0  0  0  0  0  0  0  0  0
  125.3840  123.7480   58.2600 C   0  0  0  0  0  0  0  0  0  0  0  0
  124.0710  123.5870   57.8570 O   0  0  0  0  0  0  0  0  0  0  0  0
  123.2630  124.7380   57.6340 C   0  0  0  0  0  0  0  0  0  0  0  0
  126.3850  123.3530   57.3600 C   0  0  0  0  0  0  0  0  0  0  0  0
  126.0290  122.8520   56.1310 O   0  0  0  0  0  0  0  0  0  0  0  0
  125.6190  123.8420   55.1980 C   0  0  0  0  0  0  0  0  0  0  0  0
  129.3134  124.9359   56.0472 H   0  0  0  0  0  0  0  0  0  0  0  0
  129.7676  123.5247   55.0329 H   0  0  0  0  0  0  0  0  0  0  0  0
  128.0738  124.1228   55.0329 H   0  0  0  0  0  0  0  0  0  0  0  0
  129.1535  124.1335   59.2003 H   0  0  0  0  0  0  0  0  0  0  0  0
  127.0583  124.4095   61.9940 H   0  0  0  0  0  0  0  0  0  0  0  0
  128.6062  125.0094   61.2303 H   0  0  0  0  0  0  0  0  0  0  0  0
  126.7640  126.6610   62.2730 H   0  0  0  0  0  0  0  0  0  0  0  0
  123.8538  134.8234   62.0543 H   0  0  0  0  0  0  0  0  0  0  0  0
  124.8077  134.9535   60.5378 H   0  0  0  0  0  0  0  0  0  0  0  0
  123.2347  134.0862   60.5378 H   0  0  0  0  0  0  0  0  0  0  0  0
  125.4289  133.6354   63.4526 H   0  0  0  0  0  0  0  0  0  0  0  0
  126.0238  131.6532   65.1410 H   0  0  0  0  0  0  0  0  0  0  0  0
  127.1855  130.4669   64.4558 H   0  0  0  0  0  0  0  0  0  0  0  0
  127.5851  132.2181   64.4558 H   0  0  0  0  0  0  0  0  0  0  0  0
  128.2480  129.2130   63.3490 H   0  0  0  0  0  0  0  0  0  0  0  0
  127.1130  127.9230   63.4460 H   0  0  0  0  0  0  0  0  0  0  0  0
  124.9883  124.5988   60.2151 H   0  0  0  0  0  0  0  0  0  0  0  0
  122.9616  125.1673   58.6009 H   0  0  0  0  0  0  0  0  0  0  0  0
  123.8367  125.4840   57.0644 H   0  0  0  0  0  0  0  0  0  0  0  0
  122.3665  124.4519   57.0644 H   0  0  0  0  0  0  0  0  0  0  0  0
  125.2526  124.7267   55.7394 H   0  0  0  0  0  0  0  0  0  0  0  0
  126.4733  124.1265   54.5661 H   0  0  0  0  0  0  0  0  0  0  0  0
  124.8137  123.4392   54.5661 H   0  0  0  0  0  0  0  0  0  0  0  0
  1  2  1  0
  2  3  1  0
  3  4  2  0
  4  5  1  0
  5  6  1  0
  6  7  1  0
  7  8  1  0
  8  9  2  0
  8 10  1  0
 10 11  1  0
 11 12  1  0
 12 13  2  0
 13 14  1  0
 14 15  1  0
 14 16  2  0
 16 17  1  0
 17 18  1  0
 17 19  2  0
 19 20  1  0
 20 21  1  0
  5 22  2  0
 22 23  1  0
 23 24  1  0
 24 25  1  0
 23 26  2  0
 26 27  1  0
 27 28  1  0
 26  3  1  0
 20 10  2  0
 19 12  1  0
  1 29  1  0
  1 30  1  0
  1 31  1  0
  4 32  1  0
  6 33  1  0
  6 34  1  0
  7 35  1  0
 15 36  1  0
 15 37  1  0
 15 38  1  0
 16 39  1  0
 18 40  1  0
 18 41  1  0
 18 42  1  0
 21 43  1  0
 21 44  1  0
 22 45  1  0
 25 46  1  0
 25 47  1  0
 25 48  1  0
 28 49  1  0
 28 50  1  0
 28 51  1  0
M  END
>  <Binding energies>  (1) 
[-6.97]

>  <Ligand effiencies>  (1) 
[-0.22483870967741934]

>  <Interactions>  (1) 
["V-B:ASP:366:CG:8185, V-B:PRO:540:CA:9855, V-B:TYR:539:CE2:9848, V-B:PRO:540:N:9856, V-B:ILE:538:CB:9834, V-B:ILE:369:CD1:8211, V-B:TYR:531:CE2:9765, V-B:PRO:540:CD:9859, V-B:PRO:540:CB:9857, V-B:ILE:369:CG2:8209, V-B:LEU:475:CD2:9231, V-B:ILE:538:CG2:9835, V-B:TRP:381:CH2:8344, H-B:GLU:543:OE2:9882, H-B:GLU:543:OE1:9881, V-B:TYR:539:CZ:9849, H-A:GLU:543:OE2:4908, V-B:TYR:539:CE1:9847, V-A:GLU:543:CD:4906, V-B:ILE:538:CA:9832, V-B:TYR:539:C:9839, V-B:LEU:363:CD1:8161, V-B:TYR:531:CZ:9766, H-A:GLU:543:OE1:4907, V-B:GLU:543:CD:9880, V-B:TYR:539:CD1:9845, V-B:ASP:366:CB:8184, V-B:TYR:484:CZ:9319, V-B:LEU:363:CA:8157, H-B:TYR:539:N:9842, V-B:TYR:484:CE1:9317"]

$$$$
4ai_Grossjean_2025
     RDKit          3D

 32 34  0  0  0  0  0  0  0  0999 V2000
  132.2200  131.9130   55.5010 C   0  0  0  0  0  0  0  0  0  0  0  0
  131.6220  131.7150   56.8820 C   0  0  0  0  0  0  0  0  0  0  0  0
  132.4370  131.4940   57.9910 C   0  0  0  0  0  0  0  0  0  0  0  0
  131.8640  131.3200   59.2560 C   0  0  0  0  0  0  0  0  0  0  0  0
  132.7950  131.0840   60.4360 C   0  0  0  0  0  0  0  0  0  0  0  0
  130.4480  131.3760   59.3570 C   0  0  0  0  0  0  0  0  0  0  0  0
  129.5490  131.2430   60.4710 C   0  0  0  0  0  0  0  0  0  0  0  0
  129.9960  131.0080   61.7480 N   0  0  0  0  0  0  0  0  0  0  0  0
  128.1940  131.3820   60.1320 C   0  0  0  0  0  0  0  0  0  0  0  0
  127.0220  131.2950   61.0060 C   0  0  0  0  0  0  0  0  0  0  0  0
  125.9210  131.6950   60.6240 O   0  0  0  0  0  0  0  0  0  0  0  0
  127.2460  130.7390   62.2230 N   0  0  0  0  0  0  0  0  0  0  0  0
  126.3200  130.5260   63.2360 C   0  0  0  0  0  0  0  0  0  0  0  0
  126.6410  129.9040   64.4430 C   0  0  0  0  0  0  0  0  0  0  0  0
  125.4660  129.8830   65.1590 C   0  0  0  0  0  0  0  0  0  0  0  0
  124.4890  130.4640   64.4230 O   0  0  0  0  0  0  0  0  0  0  0  0
  125.0420  130.8680   63.2070 N   0  0  0  0  0  0  0  0  0  0  0  0
  127.9970  131.6580   58.4000 S   0  0  0  0  0  0  0  0  0  0  0  0
  129.7270  131.6080   58.1460 C   0  0  0  0  0  0  0  0  0  0  0  0
  130.2690  131.7730   56.9390 N   0  0  0  0  0  0  0  0  0  0  0  0
  133.2602  132.2574   55.5978 H   0  0  0  0  0  0  0  0  0  0  0  0
  132.1989  130.9599   54.9522 H   0  0  0  0  0  0  0  0  0  0  0  0
  131.6343  132.6652   54.9522 H   0  0  0  0  0  0  0  0  0  0  0  0
  133.5299  131.4564   57.8720 H   0  0  0  0  0  0  0  0  0  0  0  0
  132.2397  131.2248   61.3751 H   0  0  0  0  0  0  0  0  0  0  0  0
  133.1885  130.0577   60.3930 H   0  0  0  0  0  0  0  0  0  0  0  0
  133.6299  131.7989   60.3930 H   0  0  0  0  0  0  0  0  0  0  0  0
  130.1500  130.0730   62.0940 H   0  0  0  0  0  0  0  0  0  0  0  0
  130.1800  131.7690   62.3870 H   0  0  0  0  0  0  0  0  0  0  0  0
  128.1860  130.4340   62.4240 H   0  0  0  0  0  0  0  0  0  0  0  0
  127.6214  129.5146   64.7548 H   0  0  0  0  0  0  0  0  0  0  0  0
  125.3405  129.4618   66.1674 H   0  0  0  0  0  0  0  0  0  0  0  0
  1  2  1  0
  2  3  2  0
  3  4  1  0
  4  5  1  0
  4  6  2  0
  6  7  1  0
  7  8  1  0
  7  9  2  0
  9 10  1  0
 10 11  2  0
 10 12  1  0
 12 13  1  0
 13 14  1  0
 14 15  2  0
 15 16  1  0
 16 17  1  0
  9 18  1  0
 18 19  1  0
 19 20  2  0
 20  2  1  0
 19  6  1  0
 17 13  2  0
  1 21  1  0
  1 22  1  0
  1 23  1  0
  3 24  1  0
  5 25  1  0
  5 26  1  0
  5 27  1  0
  8 28  1  0
  8 29  1  0
 12 30  1  0
 14 31  1  0
 15 32  1  0
M  END
>  <Binding energies>  (1) 
[-6.98]

>  <Ligand effiencies>  (1) 
[-0.30347826086956525]

>  <Interactions>  (1) 
["V-A:ILE:538:CG2:4861, V-A:PRO:540:CD:4885, V-A:PRO:540:N:4882, V-A:ILE:538:CB:4860, V-A:ILE:538:CA:4858, V-A:TYR:531:CZ:4792, V-A:TYR:539:CD2:4872, V-A:TYR:539:CE2:4874, V-A:TYR:539:CZ:4875, V-A:PRO:540:CA:4881, H-A:GLU:543:OE2:4908, V-A:GLU:543:CD:4906, H-A:GLU:543:OE1:4907, V-B:ARG:545:CZ:9898, V-A:ASN:362:CB:3174, H-B:GLY:454:N:9022, V-A:PRO:540:CB:4883, V-A:TYR:539:C:4865, H-B:TYR:484:OH:9320, V-A:TYR:531:CE2:4791, V-B:HIS:456:CE1:9042, H-A:ALA:541:O:4887"]

$$$$
4aj_Grossjean_2025
     RDKit          3D

 32 34  0  0  0  0  0  0  0  0999 V2000
  125.9430  116.4680   70.7500 C   0  0  0  0  0  0  0  0  0  0  0  0
  126.7300  117.4150   71.6370 C   0  0  0  0  0  0  0  0  0  0  0  0
  127.0700  117.0610   72.9410 C   0  0  0  0  0  0  0  0  0  0  0  0
  127.7920  117.9520   73.7430 C   0  0  0  0  0  0  0  0  0  0  0  0
  128.1380  117.5180   75.1600 C   0  0  0  0  0  0  0  0  0  0  0  0
  128.1560  119.2050   73.1820 C   0  0  0  0  0  0  0  0  0  0  0  0
  128.8780  120.3310   73.7100 C   0  0  0  0  0  0  0  0  0  0  0  0
  129.3730  120.3490   74.9890 N   0  0  0  0  0  0  0  0  0  0  0  0
  129.0290  121.3880   72.8000 C   0  0  0  0  0  0  0  0  0  0  0  0
  129.6930  122.6780   73.0040 C   0  0  0  0  0  0  0  0  0  0  0  0
  129.2340  123.7080   72.5060 O   0  0  0  0  0  0  0  0  0  0  0  0
  130.8100  122.6420   73.7710 N   0  0  0  0  0  0  0  0  0  0  0  0
  131.6130  123.7170   74.1250 C   0  0  0  0  0  0  0  0  0  0  0  0
  131.3590  125.0000   73.9730 N   0  0  0  0  0  0  0  0  0  0  0  0
  132.3470  125.7470   74.4270 C   0  0  0  0  0  0  0  0  0  0  0  0
  133.4370  125.0660   74.9630 C   0  0  0  0  0  0  0  0  0  0  0  0
  133.1410  123.3560   74.8620 S   0  0  0  0  0  0  0  0  0  0  0  0
  128.2570  121.0170   71.2570 S   0  0  0  0  0  0  0  0  0  0  0  0
  127.7500  119.4460   71.8350 C   0  0  0  0  0  0  0  0  0  0  0  0
  127.0610  118.6000   71.0670 N   0  0  0  0  0  0  0  0  0  0  0  0
  125.3654  115.7730   71.3772 H   0  0  0  0  0  0  0  0  0  0  0  0
  125.2558  117.0463   70.1149 H   0  0  0  0  0  0  0  0  0  0  0  0
  126.6373  115.8982   70.1149 H   0  0  0  0  0  0  0  0  0  0  0  0
  126.7708  116.0807   73.3403 H   0  0  0  0  0  0  0  0  0  0  0  0
  127.6194  118.1685   75.8797 H   0  0  0  0  0  0  0  0  0  0  0  0
  127.8201  116.4760   75.3123 H   0  0  0  0  0  0  0  0  0  0  0  0
  129.2246  117.5958   75.3123 H   0  0  0  0  0  0  0  0  0  0  0  0
  130.3610  120.2600   75.1800 H   0  0  0  0  0  0  0  0  0  0  0  0
  128.7620  120.4500   75.7870 H   0  0  0  0  0  0  0  0  0  0  0  0
  131.0940  121.7440   74.1340 H   0  0  0  0  0  0  0  0  0  0  0  0
  132.3118  126.8456   74.3846 H   0  0  0  0  0  0  0  0  0  0  0  0
  134.3395  125.5344   75.3825 H   0  0  0  0  0  0  0  0  0  0  0  0
  1  2  1  0
  2  3  2  0
  3  4  1  0
  4  5  1  0
  4  6  2  0
  6  7  1  0
  7  8  1  0
  7  9  2  0
  9 10  1  0
 10 11  2  0
 10 12  1  0
 12 13  1  0
 13 14  2  0
 14 15  1  0
 15 16  2  0
 16 17  1  0
  9 18  1  0
 18 19  1  0
 19 20  2  0
 20  2  1  0
 19  6  1  0
 17 13  1  0
  1 21  1  0
  1 22  1  0
  1 23  1  0
  3 24  1  0
  5 25  1  0
  5 26  1  0
  5 27  1  0
  8 28  1  0
  8 29  1  0
 12 30  1  0
 15 31  1  0
 16 32  1  0
M  END
>  <Binding energies>  (1) 
[-6.76]

>  <Ligand effiencies>  (1) 
[-0.29391304347826086]

>  <Interactions>  (1) 
["V-B:LYS:547:CE:9922, V-A:HIS:456:CD2:4066, V-B:GLU:543:C:9874, V-A:HIS:456:CG:4064, H-B:LYS:547:NZ:9923, V-B:GLY:544:CA:9886, V-A:TYR:484:CD1:4341, V-A:TYR:484:CG:4340, V-B:GLU:543:CA:9876, V-A:TYR:484:CB:4339, V-A:ASP:473:CG:4238, V-A:HIS:456:C:4059, V-A:LYS:471:CD:4217, V-A:HIS:456:CB:4063, V-A:VAL:458:CG2:4085, V-A:LYS:471:CE:4218, V-B:VAL:542:CG1:9871, H-A:ASP:473:OD2:4240, V-A:SER:483:CB:4331, H-A:TYR:484:N:4338"]

$$$$
4ak_Grossjean_2025
     RDKit          3D

 50 51  0  0  0  0  0  0  0  0999 V2000
  126.8590  128.8830   73.7810 C   0  0  0  0  0  0  0  0  0  0  0  0
  128.1870  129.1610   73.3670 O   0  0  0  0  0  0  0  0  0  0  0  0
  128.5570  128.4960   72.1660 C   0  0  0  0  0  0  0  0  0  0  0  0
  128.5460  126.9800   72.3960 C   0  0  0  0  0  0  0  0  0  0  0  0
  129.5600  126.6390   73.3330 O   0  0  0  0  0  0  0  0  0  0  0  0
  130.8700  127.0000   72.9170 C   0  0  0  0  0  0  0  0  0  0  0  0
  131.8980  126.3040   73.8180 C   0  0  0  0  0  0  0  0  0  0  0  0
  131.2320  125.7320   74.9360 O   0  0  0  0  0  0  0  0  0  0  0  0
  131.9670  124.6980   75.5760 C   0  0  0  0  0  0  0  0  0  0  0  0
  132.5370  123.7440   74.5100 C   0  0  0  0  0  0  0  0  0  0  0  0
  131.5880  122.7220   74.0690 N   0  0  0  0  0  0  0  0  0  0  0  0
  130.4490  122.9580   73.3860 C   0  0  0  0  0  0  0  0  0  0  0  0
  130.1070  124.0910   73.0430 O   0  0  0  0  0  0  0  0  0  0  0  0
  129.6380  121.7850   73.0640 C   0  0  0  0  0  0  0  0  0  0  0  0
  129.0570  121.5300   71.4180 S   0  0  0  0  0  0  0  0  0  0  0  0
  128.2670  120.0390   71.8790 C   0  0  0  0  0  0  0  0  0  0  0  0
  127.5830  119.3030   71.0020 N   0  0  0  0  0  0  0  0  0  0  0  0
  127.0170  118.1720   71.4900 C   0  0  0  0  0  0  0  0  0  0  0  0
  126.2450  117.3460   70.4760 C   0  0  0  0  0  0  0  0  0  0  0  0
  127.1180  117.7640   72.8180 C   0  0  0  0  0  0  0  0  0  0  0  0
  127.8370  118.5400   73.7360 C   0  0  0  0  0  0  0  0  0  0  0  0
  127.9160  118.0560   75.1760 C   0  0  0  0  0  0  0  0  0  0  0  0
  128.4440  119.7340   73.2620 C   0  0  0  0  0  0  0  0  0  0  0  0
  129.2350  120.7430   73.9130 C   0  0  0  0  0  0  0  0  0  0  0  0
  129.5550  120.6790   75.2460 N   0  0  0  0  0  0  0  0  0  0  0  0
  126.8120  128.8732   74.8800 H   0  0  0  0  0  0  0  0  0  0  0  0
  126.1836  129.6592   73.3920 H   0  0  0  0  0  0  0  0  0  0  0  0
  126.5516  127.9010   73.3920 H   0  0  0  0  0  0  0  0  0  0  0  0
  127.8416  128.7512   71.3704 H   0  0  0  0  0  0  0  0  0  0  0  0
  129.5668  128.8139   71.8674 H   0  0  0  0  0  0  0  0  0  0  0  0
  127.5649  126.6752   72.7892 H   0  0  0  0  0  0  0  0  0  0  0  0
  128.7346  126.4617   71.4443 H   0  0  0  0  0  0  0  0  0  0  0  0
  131.0237  126.6865   71.8739 H   0  0  0  0  0  0  0  0  0  0  0  0
  130.9929  128.0905   72.9919 H   0  0  0  0  0  0  0  0  0  0  0  0
  132.4083  125.5123   73.2498 H   0  0  0  0  0  0  0  0  0  0  0  0
  132.6392  127.0382   74.1667 H   0  0  0  0  0  0  0  0  0  0  0  0
  132.7927  125.1380   76.1545 H   0  0  0  0  0  0  0  0  0  0  0  0
  131.3041  124.1398   76.2535 H   0  0  0  0  0  0  0  0  0  0  0  0
  132.8373  124.3398   73.6354 H   0  0  0  0  0  0  0  0  0  0  0  0
  133.3861  123.2176   74.9702 H   0  0  0  0  0  0  0  0  0  0  0  0
  131.8130  121.7680   74.3140 H   0  0  0  0  0  0  0  0  0  0  0  0
  125.5858  116.6407   71.0033 H   0  0  0  0  0  0  0  0  0  0  0  0
  125.6388  118.0128   69.8452 H   0  0  0  0  0  0  0  0  0  0  0  0
  126.9512  116.7862   69.8452 H   0  0  0  0  0  0  0  0  0  0  0  0
  126.6332  116.8326   73.1457 H   0  0  0  0  0  0  0  0  0  0  0  0
  127.7769  118.9082   75.8574 H   0  0  0  0  0  0  0  0  0  0  0  0
  127.1277  117.3102   75.3559 H   0  0  0  0  0  0  0  0  0  0  0  0
  128.9005  117.5996   75.3559 H   0  0  0  0  0  0  0  0  0  0  0  0
  128.8450  120.6770   75.9650 H   0  0  0  0  0  0  0  0  0  0  0  0
  130.5150  120.6270   75.5530 H   0  0  0  0  0  0  0  0  0  0  0  0
  1  2  1  0
  2  3  1  0
  3  4  1  0
  4  5  1  0
  5  6  1  0
  6  7  1  0
  7  8  1  0
  8  9  1  0
  9 10  1  0
 10 11  1  0
 11 12  1  0
 12 13  2  0
 12 14  1  0
 14 15  1  0
 15 16  1  0
 16 17  2  0
 17 18  1  0
 18 19  1  0
 18 20  2  0
 20 21  1  0
 21 22  1  0
 21 23  2  0
 23 24  1  0
 24 25  1  0
 24 14  2  0
 23 16  1  0
  1 26  1  0
  1 27  1  0
  1 28  1  0
  3 29  1  0
  3 30  1  0
  4 31  1  0
  4 32  1  0
  6 33  1  0
  6 34  1  0
  7 35  1  0
  7 36  1  0
  9 37  1  0
  9 38  1  0
 10 39  1  0
 10 40  1  0
 11 41  1  0
 19 42  1  0
 19 43  1  0
 19 44  1  0
 20 45  1  0
 22 46  1  0
 22 47  1  0
 22 48  1  0
 25 49  1  0
 25 50  1  0
M  END
>  <Binding energies>  (1) 
[-6.94]

>  <Ligand effiencies>  (1) 
[-0.24785714285714286]

>  <Interactions>  (1) 
["V-B:GLY:544:C:9884, V-A:LYS:547:CE:4948, V-B:HIS:456:CG:9038, V-A:GLY:544:C:4910, V-B:LYS:547:CE:9922, V-A:HIS:456:CD2:4066, V-B:HIS:456:CD2:9040, V-B:GLU:543:C:9874, V-A:HIS:456:CG:4064, H-B:LYS:547:NZ:9923, H-A:LYS:547:NZ:4949, V-B:GLY:544:CA:9886, V-A:TYR:484:CD1:4341, V-A:TYR:484:CG:4340, V-B:GLU:543:CA:9876, V-A:TYR:484:CB:4339, V-A:ASP:473:CG:4238, V-B:HIS:456:CB:9037, V-A:HIS:456:CB:4063, V-A:VAL:458:CG2:4085, V-A:LYS:471:CE:4218, V-B:VAL:542:CG1:9871, H-A:ASP:473:OD2:4240, V-A:SER:483:CB:4331, V-A:SER:483:CA:4329, H-A:TYR:484:N:4338, V-B:VAL:542:CB:9870"]

$$$$
4al_Grossjean_2025
     RDKit          3D

 28 29  0  0  0  0  0  0  0  0999 V2000
  126.9090  130.0250   55.5680 C   0  0  0  0  0  0  0  0  0  0  0  0
  127.4470  131.1830   56.1860 O   0  0  0  0  0  0  0  0  0  0  0  0
  128.6490  131.6840   55.8010 C   0  0  0  0  0  0  0  0  0  0  0  0
  128.8680  132.1760   54.6910 O   0  0  0  0  0  0  0  0  0  0  0  0
  129.6810  131.5810   56.8560 C   0  0  0  0  0  0  0  0  0  0  0  0
  129.2230  131.7350   58.5540 S   0  0  0  0  0  0  0  0  0  0  0  0
  130.8810  131.5100   59.0640 C   0  0  0  0  0  0  0  0  0  0  0  0
  131.2300  131.5220   60.3510 N   0  0  0  0  0  0  0  0  0  0  0  0
  132.5480  131.3360   60.6120 C   0  0  0  0  0  0  0  0  0  0  0  0
  132.9240  131.3520   62.0820 C   0  0  0  0  0  0  0  0  0  0  0  0
  133.5130  131.1420   59.6260 C   0  0  0  0  0  0  0  0  0  0  0  0
  133.1430  131.1300   58.2770 C   0  0  0  0  0  0  0  0  0  0  0  0
  134.2320  130.9150   57.2370 C   0  0  0  0  0  0  0  0  0  0  0  0
  131.7700  131.3220   57.9650 C   0  0  0  0  0  0  0  0  0  0  0  0
  131.0570  131.3670   56.7180 C   0  0  0  0  0  0  0  0  0  0  0  0
  131.6790  131.2130   55.5060 N   0  0  0  0  0  0  0  0  0  0  0  0
  126.5796  129.3159   56.3418 H   0  0  0  0  0  0  0  0  0  0  0  0
  126.0506  130.3090   54.9415 H   0  0  0  0  0  0  0  0  0  0  0  0
  127.6797  129.5521   54.9415 H   0  0  0  0  0  0  0  0  0  0  0  0
  132.0111  131.3132   62.6944 H   0  0  0  0  0  0  0  0  0  0  0  0
  133.5549  130.4799   62.3086 H   0  0  0  0  0  0  0  0  0  0  0  0
  133.4786  132.2746   62.3086 H   0  0  0  0  0  0  0  0  0  0  0  0
  134.5664  130.9982   59.9084 H   0  0  0  0  0  0  0  0  0  0  0  0
  135.1902  130.7258   57.7431 H   0  0  0  0  0  0  0  0  0  0  0  0
  133.9727  130.0507   56.6079 H   0  0  0  0  0  0  0  0  0  0  0  0
  134.3206  131.8130   56.6079 H   0  0  0  0  0  0  0  0  0  0  0  0
  131.2720  131.5590   54.6480 H   0  0  0  0  0  0  0  0  0  0  0  0
  132.5720  130.7460   55.4290 H   0  0  0  0  0  0  0  0  0  0  0  0
  1  2  1  0
  2  3  1  0
  3  4  2  0
  3  5  1  0
  5  6  1  0
  6  7  1  0
  7  8  2  0
  8  9  1  0
  9 10  1  0
  9 11  2  0
 11 12  1  0
 12 13  1  0
 12 14  2  0
 14 15  1  0
 15 16  1  0
 15  5  2  0
 14  7  1  0
  1 17  1  0
  1 18  1  0
  1 19  1  0
 10 20  1  0
 10 21  1  0
 10 22  1  0
 11 23  1  0
 13 24  1  0
 13 25  1  0
 13 26  1  0
 16 27  1  0
 16 28  1  0
M  END
>  <Binding energies>  (1) 
[-5.42]

>  <Ligand effiencies>  (1) 
[-0.3011111111111111]

>  <Interactions>  (1) 
["V-A:ILE:538:CG2:4861, V-A:PRO:540:N:4882, V-A:TYR:531:CZ:4792, V-A:ASP:366:CG:3211, H-A:TYR:531:OH:4793, V-A:ASP:366:CB:3210, V-A:TYR:539:CZ:4875, H-A:ALA:541:N:4889, V-A:PRO:540:CA:4881, V-A:ARG:545:CZ:4924, V-A:ASN:362:CB:3174, V-A:PRO:540:CB:4883, V-A:LEU:363:CD1:3187, V-A:TYR:539:C:4865, V-A:TYR:539:CE1:4873, V-A:TYR:531:CE2:4791, V-A:TYR:539:CD1:4871, H-A:TYR:539:OH:4876, V-A:PRO:540:C:4879, H-A:TYR:539:N:4868, V-A:LEU:363:CB:3185, V-A:LEU:363:CA:3183, V-A:ASN:362:C:3170, V-A:ALA:541:C:4886, V-A:ASN:362:CG:3175, V-A:LEU:363:C:3181"]

$$$$
4ba_Grossjean_2025
     RDKit          3D

 44 46  0  0  0  0  0  0  0  0999 V2000
  130.1560  126.9470   72.7250 C   0  0  0  0  0  0  0  0  0  0  0  0
  129.5050  128.2220   72.1570 C   0  0  0  0  0  0  0  0  0  0  0  0
  128.3650  127.9790   71.1470 C   0  0  0  0  0  0  0  0  0  0  0  0
  127.1940  128.1260   71.5060 O   0  0  0  0  0  0  0  0  0  0  0  0
  128.7420  127.5750   69.7510 C   0  0  0  0  0  0  0  0  0  0  0  0
  130.0930  127.3860   69.4320 C   0  0  0  0  0  0  0  0  0  0  0  0
  130.4720  127.0120   68.1460 C   0  0  0  0  0  0  0  0  0  0  0  0
  129.5100  126.8150   67.1540 C   0  0  0  0  0  0  0  0  0  0  0  0
  130.0030  126.4480   65.8880 N   0  0  0  0  0  0  0  0  0  0  0  0
  130.6050  125.3010   65.4850 C   0  0  0  0  0  0  0  0  0  0  0  0
  130.8650  124.3570   66.2330 O   0  0  0  0  0  0  0  0  0  0  0  0
  130.9660  125.2490   64.0670 C   0  0  0  0  0  0  0  0  0  0  0  0
  132.2320  124.1550   63.5140 S   0  0  0  0  0  0  0  0  0  0  0  0
  132.0690  124.7230   61.8700 C   0  0  0  0  0  0  0  0  0  0  0  0
  132.8270  124.2350   60.8880 N   0  0  0  0  0  0  0  0  0  0  0  0
  132.6100  124.7520   59.6580 C   0  0  0  0  0  0  0  0  0  0  0  0
  133.4900  124.1890   58.5560 C   0  0  0  0  0  0  0  0  0  0  0  0
  131.6610  125.7340   59.3860 C   0  0  0  0  0  0  0  0  0  0  0  0
  130.8590  126.2520   60.4160 C   0  0  0  0  0  0  0  0  0  0  0  0
  129.8260  127.3290   60.0680 C   0  0  0  0  0  0  0  0  0  0  0  0
  130.0210  128.4720   60.7290 F   0  0  0  0  0  0  0  0  0  0  0  0
  129.8830  127.6070   58.7650 F   0  0  0  0  0  0  0  0  0  0  0  0
  128.6030  126.8950   60.3730 F   0  0  0  0  0  0  0  0  0  0  0  0
  131.0670  125.7310   61.7280 C   0  0  0  0  0  0  0  0  0  0  0  0
  130.4600  126.0170   63.0050 C   0  0  0  0  0  0  0  0  0  0  0  0
  129.4730  126.9570   63.1610 N   0  0  0  0  0  0  0  0  0  0  0  0
  128.1550  127.0090   67.4640 C   0  0  0  0  0  0  0  0  0  0  0  0
  127.7780  127.3830   68.7510 C   0  0  0  0  0  0  0  0  0  0  0  0
  130.1371  126.9841   73.8242 H   0  0  0  0  0  0  0  0  0  0  0  0
  129.5980  126.0647   72.3782 H   0  0  0  0  0  0  0  0  0  0  0  0
  131.1979  126.8816   72.3782 H   0  0  0  0  0  0  0  0  0  0  0  0
  129.0971  128.8006   72.9989 H   0  0  0  0  0  0  0  0  0  0  0  0
  130.2962  128.7508   71.6053 H   0  0  0  0  0  0  0  0  0  0  0  0
  130.8614  127.5345   70.2050 H   0  0  0  0  0  0  0  0  0  0  0  0
  131.5370  126.8707   67.9098 H   0  0  0  0  0  0  0  0  0  0  0  0
  129.8990  127.1610   65.1830 H   0  0  0  0  0  0  0  0  0  0  0  0
  134.3365  123.6474   59.0034 H   0  0  0  0  0  0  0  0  0  0  0  0
  132.9015  123.4993   57.9331 H   0  0  0  0  0  0  0  0  0  0  0  0
  133.8695  125.0124   57.9331 H   0  0  0  0  0  0  0  0  0  0  0  0
  131.5387  126.1063   58.3582 H   0  0  0  0  0  0  0  0  0  0  0  0
  129.6760  127.9460   63.1920 H   0  0  0  0  0  0  0  0  0  0  0  0
  128.5030  126.6900   63.2590 H   0  0  0  0  0  0  0  0  0  0  0  0
  127.3888  126.8652   66.6880 H   0  0  0  0  0  0  0  0  0  0  0  0
  126.7133  127.5293   68.9857 H   0  0  0  0  0  0  0  0  0  0  0  0
  1  2  1  0
  2  3  1  0
  3  4  2  0
  3  5  1  0
  5  6  2  0
  6  7  1  0
  7  8  2  0
  8  9  1  0
  9 10  1  0
 10 11  2  0
 10 12  1  0
 12 13  1  0
 13 14  1  0
 14 15  2  0
 15 16  1  0
 16 17  1  0
 16 18  2  0
 18 19  1  0
 19 20  1  0
 20 21  1  0
 20 22  1  0
 20 23  1  0
 19 24  2  0
 24 25  1  0
 25 26  1  0
  8 27  1  0
 27 28  2  0
 28  5  1  0
 25 12  2  0
 24 14  1  0
  1 29  1  0
  1 30  1  0
  1 31  1  0
  2 32  1  0
  2 33  1  0
  6 34  1  0
  7 35  1  0
  9 36  1  0
 17 37  1  0
 17 38  1  0
 17 39  1  0
 18 40  1  0
 26 41  1  0
 26 42  1  0
 27 43  1  0
 28 44  1  0
M  END
>  <Binding energies>  (1) 
[-6.98]

>  <Ligand effiencies>  (1) 
[-0.22516129032258067]

>  <Interactions>  (1) 
["V-A:ILE:369:CG2:3235, V-B:TYR:539:CE2:9848, V-A:ASP:366:CG:3211, V-A:ASP:366:CB:3210, H-B:GLU:543:OE2:9882, H-B:GLU:543:OE1:9881, H-A:GLU:543:OE2:4908, V-A:GLU:543:CD:4906, V-A:HIS:456:CE1:4068, H-A:TYR:484:OH:4346, H-A:GLU:543:OE1:4907, V-B:GLU:543:CD:9880, V-B:GLU:543:CB:9878, V-B:GLU:543:CG:9879, V-B:HIS:456:CE1:9042, V-A:LYS:547:CE:4948, V-A:GLY:544:C:4910, V-A:GLU:543:C:4900, V-B:HIS:456:CD2:9040, V-B:GLU:543:C:9874, V-A:GLY:544:CA:4912, V-A:ASP:366:CA:3208, H-B:HIS:456:ND1:9039"]

$$$$
4bb_Grossjean_2025
     RDKit          3D

 41 43  0  0  0  0  0  0  0  0999 V2000
  128.8980  126.1510   72.0030 C   0  0  0  0  0  0  0  0  0  0  0  0
  129.9100  126.6410   70.9660 C   0  0  0  0  0  0  0  0  0  0  0  0
  131.1050  126.6260   71.2690 O   0  0  0  0  0  0  0  0  0  0  0  0
  129.3960  127.1200   69.6420 C   0  0  0  0  0  0  0  0  0  0  0  0
  128.0200  127.3180   69.4700 C   0  0  0  0  0  0  0  0  0  0  0  0
  127.5160  127.7620   68.2510 C   0  0  0  0  0  0  0  0  0  0  0  0
  128.3770  128.0250   67.1840 C   0  0  0  0  0  0  0  0  0  0  0  0
  127.7610  128.4670   65.9960 N   0  0  0  0  0  0  0  0  0  0  0  0
  126.4910  128.8880   65.7770 C   0  0  0  0  0  0  0  0  0  0  0  0
  125.6160  128.9230   66.6420 O   0  0  0  0  0  0  0  0  0  0  0  0
  126.1940  129.2850   64.3990 C   0  0  0  0  0  0  0  0  0  0  0  0
  124.7470  130.2240   64.0390 S   0  0  0  0  0  0  0  0  0  0  0  0
  125.1120  130.2200   62.3290 C   0  0  0  0  0  0  0  0  0  0  0  0
  124.3200  130.8270   61.4470 N   0  0  0  0  0  0  0  0  0  0  0  0
  124.7070  130.7540   60.1530 C   0  0  0  0  0  0  0  0  0  0  0  0
  123.7910  131.4550   59.1650 C   0  0  0  0  0  0  0  0  0  0  0  0
  125.8540  130.0940   59.7230 C   0  0  0  0  0  0  0  0  0  0  0  0
  126.6930  129.4530   60.6470 C   0  0  0  0  0  0  0  0  0  0  0  0
  127.9450  128.7390   60.1270 C   0  0  0  0  0  0  0  0  0  0  0  0
  128.0860  128.8310   58.8030 F   0  0  0  0  0  0  0  0  0  0  0  0
  129.0330  129.2750   60.6830 F   0  0  0  0  0  0  0  0  0  0  0  0
  127.8870  127.4430   60.4330 F   0  0  0  0  0  0  0  0  0  0  0  0
  126.3140  129.5100   62.0230 C   0  0  0  0  0  0  0  0  0  0  0  0
  126.9070  128.9830   63.2260 C   0  0  0  0  0  0  0  0  0  0  0  0
  128.0710  128.2570   63.2220 N   0  0  0  0  0  0  0  0  0  0  0  0
  129.7560  127.8220   67.3460 C   0  0  0  0  0  0  0  0  0  0  0  0
  130.2570  127.3760   68.5660 C   0  0  0  0  0  0  0  0  0  0  0  0
  129.2882  126.3400   73.0139 H   0  0  0  0  0  0  0  0  0  0  0  0
  127.9476  126.6887   71.8704 H   0  0  0  0  0  0  0  0  0  0  0  0
  128.7304  125.0720   71.8704 H   0  0  0  0  0  0  0  0  0  0  0  0
  127.3320  127.1209   70.3054 H   0  0  0  0  0  0  0  0  0  0  0  0
  126.4326  127.9066   68.1275 H   0  0  0  0  0  0  0  0  0  0  0  0
  128.3630  128.4410   65.1860 H   0  0  0  0  0  0  0  0  0  0  0  0
  123.0341  132.0343   59.7141 H   0  0  0  0  0  0  0  0  0  0  0  0
  124.3836  132.1325   58.5326 H   0  0  0  0  0  0  0  0  0  0  0  0
  123.2919  130.7060   58.5326 H   0  0  0  0  0  0  0  0  0  0  0  0
  126.1045  130.0747   58.6521 H   0  0  0  0  0  0  0  0  0  0  0  0
  128.0710  127.2480   63.2580 H   0  0  0  0  0  0  0  0  0  0  0  0
  128.9740  128.7110   63.1840 H   0  0  0  0  0  0  0  0  0  0  0  0
  130.4419  128.0155   66.5081 H   0  0  0  0  0  0  0  0  0  0  0  0
  131.3396  127.2230   68.6867 H   0  0  0  0  0  0  0  0  0  0  0  0
  1  2  1  0
  2  3  2  0
  2  4  1  0
  4  5  2  0
  5  6  1  0
  6  7  2  0
  7  8  1  0
  8  9  1  0
  9 10  2  0
  9 11  1  0
 11 12  1  0
 12 13  1  0
 13 14  2  0
 14 15  1  0
 15 16  1  0
 15 17  2  0
 17 18  1  0
 18 19  1  0
 19 20  1  0
 19 21  1  0
 19 22  1  0
 18 23  2  0
 23 24  1  0
 24 25  1  0
  7 26  1  0
 26 27  2  0
 27  4  1  0
 24 11  2  0
 23 13  1  0
  1 28  1  0
  1 29  1  0
  1 30  1  0
  5 31  1  0
  6 32  1  0
  8 33  1  0
 16 34  1  0
 16 35  1  0
 16 36  1  0
 17 37  1  0
 25 38  1  0
 25 39  1  0
 26 40  1  0
 27 41  1  0
M  END
>  <Binding energies>  (1) 
[-6.84]

>  <Ligand effiencies>  (1) 
[-0.228]

>  <Interactions>  (1) 
["V-B:ASP:366:CG:8185, V-B:ILE:369:CG2:8209, V-A:TYR:539:CE2:4874, H-B:GLU:543:OE2:9882, H-B:GLU:543:OE1:9881, H-A:GLU:543:OE2:4908, V-A:GLU:543:CD:4906, V-A:HIS:456:CE1:4068, H-A:GLU:543:OE1:4907, V-B:GLU:543:CD:9880, V-B:ARG:545:CZ:9898, V-B:GLU:543:CG:9879, H-B:ARG:545:NE:9896, V-A:GLU:543:CG:4905, H-B:TYR:484:OH:9320, V-A:GLU:543:CB:4904, V-B:HIS:456:CE1:9042, V-B:ASP:366:CB:8184, V-B:ILE:369:CB:8208, V-B:ASP:366:CA:8182, V-B:GLY:544:C:9884, V-A:GLU:543:C:4900, V-B:LYS:547:CE:9922, V-A:HIS:456:CD2:4066, V-B:GLU:543:C:9874, V-B:GLY:544:CA:9886, V-B:ARG:545:CG:9894, H-A:HIS:456:ND1:4065, H-B:HIS:456:ND1:9039"]

$$$$
4bc_Grossjean_2025
     RDKit          3D

 40 42  0  0  0  0  0  0  0  0999 V2000
  123.4670  130.0020   66.9730 C   0  0  0  0  0  0  0  0  0  0  0  0
  123.3350  129.6680   65.5960 O   0  0  0  0  0  0  0  0  0  0  0  0
  124.3960  129.9000   64.7420 C   0  0  0  0  0  0  0  0  0  0  0  0
  124.0780  130.1520   63.4080 C   0  0  0  0  0  0  0  0  0  0  0  0
  125.0810  130.3970   62.4730 C   0  0  0  0  0  0  0  0  0  0  0  0
  126.4210  130.4000   62.8650 C   0  0  0  0  0  0  0  0  0  0  0  0
  127.3650  130.6410   61.8500 N   0  0  0  0  0  0  0  0  0  0  0  0
  127.2750  131.4590   60.7730 C   0  0  0  0  0  0  0  0  0  0  0  0
  126.2760  132.1240   60.4960 O   0  0  0  0  0  0  0  0  0  0  0  0
  128.4660  131.5090   59.9200 C   0  0  0  0  0  0  0  0  0  0  0  0
  128.3050  131.7790   58.1860 S   0  0  0  0  0  0  0  0  0  0  0  0
  130.0360  131.6960   57.9650 C   0  0  0  0  0  0  0  0  0  0  0  0
  130.5920  131.8410   56.7620 N   0  0  0  0  0  0  0  0  0  0  0  0
  131.9410  131.7560   56.7160 C   0  0  0  0  0  0  0  0  0  0  0  0
  132.5530  131.9290   55.3390 C   0  0  0  0  0  0  0  0  0  0  0  0
  132.7410  131.5300   57.8340 C   0  0  0  0  0  0  0  0  0  0  0  0
  132.1620  131.3760   59.1030 C   0  0  0  0  0  0  0  0  0  0  0  0
  133.0830  131.1280   60.3030 C   0  0  0  0  0  0  0  0  0  0  0  0
  133.1300  132.1590   61.1480 F   0  0  0  0  0  0  0  0  0  0  0  0
  132.6540  130.0690   60.9880 F   0  0  0  0  0  0  0  0  0  0  0  0
  134.3270  130.9030   59.8780 F   0  0  0  0  0  0  0  0  0  0  0  0
  130.7400  131.4630   59.1870 C   0  0  0  0  0  0  0  0  0  0  0  0
  129.8130  131.3630   60.2880 C   0  0  0  0  0  0  0  0  0  0  0  0
  130.2190  131.1450   61.5800 N   0  0  0  0  0  0  0  0  0  0  0  0
  126.7500  130.1330   64.2030 C   0  0  0  0  0  0  0  0  0  0  0  0
  125.7450  129.8890   65.1340 C   0  0  0  0  0  0  0  0  0  0  0  0
  123.1322  129.1548   67.5895 H   0  0  0  0  0  0  0  0  0  0  0  0
  124.5207  130.2246   67.1969 H   0  0  0  0  0  0  0  0  0  0  0  0
  122.8502  130.8848   67.1969 H   0  0  0  0  0  0  0  0  0  0  0  0
  123.0247  130.1574   63.0909 H   0  0  0  0  0  0  0  0  0  0  0  0
  124.8165  130.5887   61.4226 H   0  0  0  0  0  0  0  0  0  0  0  0
  128.2120  130.0980   61.9290 H   0  0  0  0  0  0  0  0  0  0  0  0
  133.6070  132.2269   55.4410 H   0  0  0  0  0  0  0  0  0  0  0  0
  132.4923  130.9785   54.7887 H   0  0  0  0  0  0  0  0  0  0  0  0
  132.0036  132.7070   54.7887 H   0  0  0  0  0  0  0  0  0  0  0  0
  133.8337  131.4719   57.7213 H   0  0  0  0  0  0  0  0  0  0  0  0
  129.6210  130.7030   62.2620 H   0  0  0  0  0  0  0  0  0  0  0  0
  131.1400  131.4200   61.8920 H   0  0  0  0  0  0  0  0  0  0  0  0
  127.8043  130.1166   64.5163 H   0  0  0  0  0  0  0  0  0  0  0  0
  126.0083  129.6864   66.1826 H   0  0  0  0  0  0  0  0  0  0  0  0
  1  2  1  0
  2  3  1  0
  3  4  2  0
  4  5  1  0
  5  6  2  0
  6  7  1  0
  7  8  1  0
  8  9  2  0
  8 10  1  0
 10 11  1  0
 11 12  1  0
 12 13  2  0
 13 14  1  0
 14 15  1  0
 14 16  2  0
 16 17  1  0
 17 18  1  0
 18 19  1  0
 18 20  1  0
 18 21  1  0
 17 22  2  0
 22 23  1  0
 23 24  1  0
  6 25  1  0
 25 26  2  0
 26  3  1  0
 23 10  2  0
 22 12  1  0
  1 27  1  0
  1 28  1  0
  1 29  1  0
  4 30  1  0
  5 31  1  0
  7 32  1  0
 15 33  1  0
 15 34  1  0
 15 35  1  0
 16 36  1  0
 24 37  1  0
 24 38  1  0
 25 39  1  0
 26 40  1  0
M  END
>  <Binding energies>  (1) 
[-6.79]

>  <Ligand effiencies>  (1) 
[-0.23413793103448277]

>  <Interactions>  (1) 
["V-A:ILE:538:CG2:4861, V-A:PRO:540:CD:4885, V-A:PRO:540:N:4882, V-A:ILE:538:CB:4860, V-A:ILE:538:CA:4858, V-A:TYR:531:CZ:4792, V-A:ASP:366:CG:3211, V-A:TYR:539:CD2:4872, V-A:TYR:539:CE2:4874, V-A:TYR:539:CZ:4875, V-A:PRO:540:CA:4881, H-A:GLU:543:OE2:4908, V-A:GLU:543:CD:4906, H-A:GLU:543:OE1:4907, V-A:ARG:545:CZ:4924, V-B:ARG:545:CZ:9898, V-A:ASN:362:CB:3174, H-B:ARG:545:NE:9896, H-B:GLY:454:N:9022, V-A:PRO:540:CB:4883, V-A:LEU:363:CD1:3187, V-A:TYR:539:C:4865, H-B:TYR:484:OH:9320, V-A:TYR:531:CE2:4791, V-B:HIS:456:CE1:9042, V-A:PRO:540:C:4879, V-B:ARG:545:CG:9894, V-B:ARG:545:CD:9895, V-B:TYR:484:CZ:9319, V-A:LEU:363:CA:3183, V-A:ASN:362:C:3170, V-A:ALA:541:C:4886, V-B:GLY:454:CA:9021, V-A:ALA:541:CA:4888, V-B:GLY:453:C:9014, V-B:GLY:453:CA:9016, H-B:ARG:545:NH1:9899, H-A:ALA:541:O:4887, V-B:ARG:545:CB:9893, V-A:ASN:362:CA:3172, V-B:ILE:455:C:9024, V-B:GLY:454:C:9019"]

$$$$
4bd_Grossjean_2025
     RDKit          3D

 36 38  0  0  0  0  0  0  0  0999 V2000
  132.2050  137.8770   70.7730 C   0  0  0  0  0  0  0  0  0  0  0  0
  131.5020  136.9510   71.7490 C   0  0  0  0  0  0  0  0  0  0  0  0
  131.3790  137.2860   73.0950 C   0  0  0  0  0  0  0  0  0  0  0  0
  130.7280  136.4200   73.9870 C   0  0  0  0  0  0  0  0  0  0  0  0
  130.6200  136.8290   75.4600 C   0  0  0  0  0  0  0  0  0  0  0  0
  131.1300  135.9200   76.2930 F   0  0  0  0  0  0  0  0  0  0  0  0
  131.2790  137.9690   75.6610 F   0  0  0  0  0  0  0  0  0  0  0  0
  129.3390  136.9960   75.7890 F   0  0  0  0  0  0  0  0  0  0  0  0
  130.2070  135.2030   73.4530 C   0  0  0  0  0  0  0  0  0  0  0  0
  129.4950  134.0970   74.0440 C   0  0  0  0  0  0  0  0  0  0  0  0
  129.1700  134.0530   75.3750 N   0  0  0  0  0  0  0  0  0  0  0  0
  129.1680  133.0740   73.1370 C   0  0  0  0  0  0  0  0  0  0  0  0
  128.4700  131.8120   73.3970 C   0  0  0  0  0  0  0  0  0  0  0  0
  128.9300  130.7440   72.9910 O   0  0  0  0  0  0  0  0  0  0  0  0
  127.3210  131.9190   74.1110 N   0  0  0  0  0  0  0  0  0  0  0  0
  126.4060  130.9190   74.4880 C   0  0  0  0  0  0  0  0  0  0  0  0
  126.6940  129.6260   74.0430 C   0  0  0  0  0  0  0  0  0  0  0  0
  125.8540  128.5660   74.3740 C   0  0  0  0  0  0  0  0  0  0  0  0
  124.7270  128.7970   75.1580 C   0  0  0  0  0  0  0  0  0  0  0  0
  124.4360  130.0780   75.6180 C   0  0  0  0  0  0  0  0  0  0  0  0
  125.2740  131.1410   75.2900 C   0  0  0  0  0  0  0  0  0  0  0  0
  129.7310  133.4590   71.5120 S   0  0  0  0  0  0  0  0  0  0  0  0
  130.4010  134.9800   72.0550 C   0  0  0  0  0  0  0  0  0  0  0  0
  131.0190  135.8060   71.2130 N   0  0  0  0  0  0  0  0  0  0  0  0
  132.7780  138.6318   71.3316 H   0  0  0  0  0  0  0  0  0  0  0  0
  132.8886  137.2920   70.1401 H   0  0  0  0  0  0  0  0  0  0  0  0
  131.4579  138.3782   70.1401 H   0  0  0  0  0  0  0  0  0  0  0  0
  131.7950  138.2360   73.4616 H   0  0  0  0  0  0  0  0  0  0  0  0
  129.8740  133.9780   76.0960 H   0  0  0  0  0  0  0  0  0  0  0  0
  128.2090  134.1020   75.6830 H   0  0  0  0  0  0  0  0  0  0  0  0
  127.0870  132.8450   74.4380 H   0  0  0  0  0  0  0  0  0  0  0  0
  127.5882  129.4448   73.4285 H   0  0  0  0  0  0  0  0  0  0  0  0
  126.0800  127.5502   74.0175 H   0  0  0  0  0  0  0  0  0  0  0  0
  124.0611  127.9603   75.4160 H   0  0  0  0  0  0  0  0  0  0  0  0
  123.5452  130.2506   76.2399 H   0  0  0  0  0  0  0  0  0  0  0  0
  125.0499  132.1530   75.6584 H   0  0  0  0  0  0  0  0  0  0  0  0
  1  2  1  0
  2  3  2  0
  3  4  1  0
  4  5  1  0
  5  6  1  0
  5  7  1  0
  5  8  1  0
  4  9  2  0
  9 10  1  0
 10 11  1  0
 10 12  2  0
 12 13  1  0
 13 14  2  0
 13 15  1  0
 15 16  1  0
 16 17  2  0
 17 18  1  0
 18 19  2  0
 19 20  1  0
 20 21  2  0
 12 22  1  0
 22 23  1  0
 23 24  2  0
 24  2  1  0
 23  9  1  0
 21 16  1  0
  1 25  1  0
  1 26  1  0
  1 27  1  0
  3 28  1  0
 11 29  1  0
 11 30  1  0
 15 31  1  0
 17 32  1  0
 18 33  1  0
 19 34  1  0
 20 35  1  0
 21 36  1  0
M  END
>  <Binding energies>  (1) 
[-6.87]

>  <Ligand effiencies>  (1) 
[-0.2544444444444445]

>  <Interactions>  (1) 
["V-B:TYR:484:CG:9314, V-A:LYS:547:CE:4948, V-B:HIS:456:CG:9038, V-B:TYR:484:CB:9313, V-A:GLU:543:C:4900, V-B:HIS:456:CD2:9040, H-A:LYS:547:NZ:4949, V-A:GLY:544:CA:4912, V-B:VAL:458:CG2:9059, V-B:VAL:457:C:9045, V-B:HIS:456:CB:9037, V-B:HIS:456:C:9033, V-B:LYS:471:CE:9192, V-B:ASP:473:CG:9212, V-A:VAL:542:CG1:4897, H-B:ASP:473:OD2:9214, V-A:GLU:543:CA:4902, V-B:TYR:484:CD1:9315, V-B:SER:483:CB:9305, H-B:TYR:484:N:9312, V-B:SER:483:CA:9303"]

$$$$
4be_Grossjean_2025
     RDKit          3D

 38 40  0  0  0  0  0  0  0  0999 V2000
  131.8390  127.0020   74.1230 C   0  0  0  0  0  0  0  0  0  0  0  0
  132.2610  125.5600   74.3320 C   0  0  0  0  0  0  0  0  0  0  0  0
  133.5020  125.2350   74.8860 C   0  0  0  0  0  0  0  0  0  0  0  0
  133.8240  123.8870   75.0470 C   0  0  0  0  0  0  0  0  0  0  0  0
  132.9090  122.9080   74.6530 C   0  0  0  0  0  0  0  0  0  0  0  0
  131.6820  123.3030   74.1100 C   0  0  0  0  0  0  0  0  0  0  0  0
  130.8080  122.2690   73.7280 N   0  0  0  0  0  0  0  0  0  0  0  0
  129.6650  122.3440   73.0010 C   0  0  0  0  0  0  0  0  0  0  0  0
  129.2110  123.3940   72.5430 O   0  0  0  0  0  0  0  0  0  0  0  0
  128.9630  121.0730   72.8000 C   0  0  0  0  0  0  0  0  0  0  0  0
  128.1090  120.7640   71.2890 S   0  0  0  0  0  0  0  0  0  0  0  0
  127.5820  119.1960   71.8560 C   0  0  0  0  0  0  0  0  0  0  0  0
  126.8330  118.3990   71.0960 N   0  0  0  0  0  0  0  0  0  0  0  0
  126.4890  117.2090   71.6430 C   0  0  0  0  0  0  0  0  0  0  0  0
  125.6330  116.3170   70.7630 C   0  0  0  0  0  0  0  0  0  0  0  0
  126.8750  116.8030   72.9170 C   0  0  0  0  0  0  0  0  0  0  0  0
  127.6650  117.6380   73.7220 C   0  0  0  0  0  0  0  0  0  0  0  0
  128.0670  117.1460   75.1160 C   0  0  0  0  0  0  0  0  0  0  0  0
  127.6080  117.9270   76.0980 F   0  0  0  0  0  0  0  0  0  0  0  0
  127.5800  115.9220   75.3210 F   0  0  0  0  0  0  0  0  0  0  0  0
  129.3950  117.1140   75.2180 F   0  0  0  0  0  0  0  0  0  0  0  0
  128.0410  118.9020   73.1770 C   0  0  0  0  0  0  0  0  0  0  0  0
  128.8200  120.0010   73.6940 C   0  0  0  0  0  0  0  0  0  0  0  0
  129.3760  119.9900   74.9480 N   0  0  0  0  0  0  0  0  0  0  0  0
  131.3620  124.6200   73.9450 N   0  0  0  0  0  0  0  0  0  0  0  0
  131.6969  127.4877   75.0997 H   0  0  0  0  0  0  0  0  0  0  0  0
  132.6191  127.5342   73.5589 H   0  0  0  0  0  0  0  0  0  0  0  0
  130.8951  127.0297   73.5589 H   0  0  0  0  0  0  0  0  0  0  0  0
  134.2079  126.0228   75.1878 H   0  0  0  0  0  0  0  0  0  0  0  0
  134.7921  123.5971   75.4814 H   0  0  0  0  0  0  0  0  0  0  0  0
  133.1501  121.8409   74.7682 H   0  0  0  0  0  0  0  0  0  0  0  0
  131.0560  121.3570   74.0820 H   0  0  0  0  0  0  0  0  0  0  0  0
  125.0098  115.6675   71.3953 H   0  0  0  0  0  0  0  0  0  0  0  0
  124.9863  116.9403   70.1279 H   0  0  0  0  0  0  0  0  0  0  0  0
  126.2824  115.6966   70.1279 H   0  0  0  0  0  0  0  0  0  0  0  0
  126.5584  115.8200   73.2959 H   0  0  0  0  0  0  0  0  0  0  0  0
  130.3310  120.2730   75.1120 H   0  0  0  0  0  0  0  0  0  0  0  0
  128.8460  119.6880   75.7540 H   0  0  0  0  0  0  0  0  0  0  0  0
  1  2  1  0
  2  3  2  0
  3  4  1  0
  4  5  2  0
  5  6  1  0
  6  7  1  0
  7  8  1  0
  8  9  2  0
  8 10  1  0
 10 11  1  0
 11 12  1  0
 12 13  2  0
 13 14  1  0
 14 15  1  0
 14 16  2  0
 16 17  1  0
 17 18  1  0
 18 19  1  0
 18 20  1  0
 18 21  1  0
 17 22  2  0
 22 23  1  0
 23 24  1  0
  6 25  2  0
 25  2  1  0
 23 10  2  0
 22 12  1  0
  1 26  1  0
  1 27  1  0
  1 28  1  0
  3 29  1  0
  4 30  1  0
  5 31  1  0
  7 32  1  0
 15 33  1  0
 15 34  1  0
 15 35  1  0
 16 36  1  0
 24 37  1  0
 24 38  1  0
M  END
>  <Binding energies>  (1) 
[-6.86]

>  <Ligand effiencies>  (1) 
[-0.24500000000000002]

>  <Interactions>  (1) 
["V-A:LYS:547:CE:4948, V-B:LYS:547:CE:9922, V-A:HIS:456:CD2:4066, V-B:GLU:543:C:9874, V-A:HIS:456:CG:4064, H-B:LYS:547:NZ:9923, V-B:GLY:544:CA:9886, V-A:TYR:484:CD1:4341, V-A:TYR:484:CG:4340, V-B:GLU:543:CA:9876, V-A:TYR:484:CB:4339, V-A:ASP:473:CG:4238, V-A:HIS:456:C:4059, V-A:LYS:471:CD:4217, V-A:HIS:456:CB:4063, V-A:VAL:458:CG2:4085, V-A:LYS:471:CE:4218, V-A:LYS:547:CD:4947, V-B:VAL:542:CG1:9871, V-A:LYS:547:CG:4946, V-A:LYS:471:CG:4216, V-A:ASP:473:CB:4237, H-A:ASP:473:OD2:4240, V-A:SER:483:CB:4331, H-A:TYR:484:N:4338, V-A:PRO:486:CD:4364"]

$$$$
4bf_Grossjean_2025
     RDKit          3D

 35 37  0  0  0  0  0  0  0  0999 V2000
  131.8250  131.9220   55.3860 C   0  0  0  0  0  0  0  0  0  0  0  0
  131.3130  131.7070   56.7990 C   0  0  0  0  0  0  0  0  0  0  0  0
  132.1940  131.5170   57.8600 C   0  0  0  0  0  0  0  0  0  0  0  0
  131.7070  131.3160   59.1610 C   0  0  0  0  0  0  0  0  0  0  0  0
  132.7150  131.1090   60.2960 C   0  0  0  0  0  0  0  0  0  0  0  0
  133.9720  130.9820   59.8630 F   0  0  0  0  0  0  0  0  0  0  0  0
  132.6830  132.1520   61.1250 F   0  0  0  0  0  0  0  0  0  0  0  0
  132.4130  129.9990   60.9720 F   0  0  0  0  0  0  0  0  0  0  0  0
  130.2910  131.3160   59.3350 C   0  0  0  0  0  0  0  0  0  0  0  0
  129.4440  131.1440   60.4890 C   0  0  0  0  0  0  0  0  0  0  0  0
  129.9460  130.9320   61.7490 N   0  0  0  0  0  0  0  0  0  0  0  0
  128.0700  131.2150   60.2100 C   0  0  0  0  0  0  0  0  0  0  0  0
  126.9400  131.0550   61.1310 C   0  0  0  0  0  0  0  0  0  0  0  0
  125.8050  131.3950   60.7970 O   0  0  0  0  0  0  0  0  0  0  0  0
  127.2450  130.5050   62.3320 N   0  0  0  0  0  0  0  0  0  0  0  0
  126.4150  130.2620   63.4430 C   0  0  0  0  0  0  0  0  0  0  0  0
  126.8360  129.7320   64.6750 C   0  0  0  0  0  0  0  0  0  0  0  0
  125.9030  129.5260   65.6940 C   0  0  0  0  0  0  0  0  0  0  0  0
  124.5680  129.8520   65.4540 C   0  0  0  0  0  0  0  0  0  0  0  0
  124.1350  130.3590   64.2730 N   0  0  0  0  0  0  0  0  0  0  0  0
  125.0540  130.5530   63.2910 C   0  0  0  0  0  0  0  0  0  0  0  0
  127.7830  131.4960   58.4940 S   0  0  0  0  0  0  0  0  0  0  0  0
  129.4990  131.5210   58.1630 C   0  0  0  0  0  0  0  0  0  0  0  0
  129.9660  131.7130   56.9300 N   0  0  0  0  0  0  0  0  0  0  0  0
  132.8386  132.3476   55.4241 H   0  0  0  0  0  0  0  0  0  0  0  0
  131.8514  130.9590   54.8551 H   0  0  0  0  0  0  0  0  0  0  0  0
  131.1559  132.6152   54.8551 H   0  0  0  0  0  0  0  0  0  0  0  0
  133.2788  131.5244   57.6776 H   0  0  0  0  0  0  0  0  0  0  0  0
  130.1830  131.6970   62.3640 H   0  0  0  0  0  0  0  0  0  0  0  0
  130.0930  129.9990   62.1060 H   0  0  0  0  0  0  0  0  0  0  0  0
  128.2030  130.2150   62.4580 H   0  0  0  0  0  0  0  0  0  0  0  0
  127.8948  129.4808   64.8358 H   0  0  0  0  0  0  0  0  0  0  0  0
  126.2146  129.1152   66.6657 H   0  0  0  0  0  0  0  0  0  0  0  0
  123.8345  129.6908   66.2577 H   0  0  0  0  0  0  0  0  0  0  0  0
  124.7113  130.9592   62.3279 H   0  0  0  0  0  0  0  0  0  0  0  0
  1  2  1  0
  2  3  2  0
  3  4  1  0
  4  5  1  0
  5  6  1  0
  5  7  1  0
  5  8  1  0
  4  9  2  0
  9 10  1  0
 10 11  1  0
 10 12  2  0
 12 13  1  0
 13 14  2  0
 13 15  1  0
 15 16  1  0
 16 17  2  0
 17 18  1  0
 18 19  2  0
 19 20  1  0
 20 21  2  0
 12 22  1  0
 22 23  1  0
 23 24  2  0
 24  2  1  0
 23  9  1  0
 21 16  1  0
  1 25  1  0
  1 26  1  0
  1 27  1  0
  3 28  1  0
 11 29  1  0
 11 30  1  0
 15 31  1  0
 17 32  1  0
 18 33  1  0
 19 34  1  0
 21 35  1  0
M  END
>  <Binding energies>  (1) 
[-6.96]

>  <Ligand effiencies>  (1) 
[-0.2577777777777778]

>  <Interactions>  (1) 
["V-A:ILE:538:CG2:4861, V-A:PRO:540:CD:4885, V-A:PRO:540:N:4882, V-A:ILE:538:CB:4860, V-A:ILE:538:CA:4858, V-A:ASP:366:CG:3211, V-A:TYR:539:CD2:4872, V-A:TYR:539:CE2:4874, V-A:TYR:539:CZ:4875, V-A:PRO:540:CA:4881, H-A:GLU:543:OE2:4908, V-A:GLU:543:CD:4906, H-A:GLU:543:OE1:4907, V-A:ARG:545:CZ:4924, V-B:ARG:545:CZ:9898, V-A:ASN:362:CB:3174, H-B:GLY:454:N:9022, V-A:PRO:540:CB:4883, H-B:TYR:484:OH:9320, V-A:TYR:531:CE2:4791, V-B:HIS:456:CE1:9042, V-A:PRO:540:C:4879, V-B:ARG:545:CG:9894, V-B:ARG:545:CD:9895, V-A:LEU:363:CA:3183, V-A:ASN:362:C:3170, V-A:ALA:541:C:4886, V-A:ALA:541:CA:4888, H-A:ALA:541:O:4887, V-A:ASN:362:CA:3172"]

$$$$
4bg_Grossjean_2025
     RDKit          3D

 39 41  0  0  0  0  0  0  0  0999 V2000
  134.2360  120.0190   60.6050 C   0  0  0  0  0  0  0  0  0  0  0  0
  133.2210  121.1080   60.9010 C   0  0  0  0  0  0  0  0  0  0  0  0
  133.5950  122.2780   61.5560 C   0  0  0  0  0  0  0  0  0  0  0  0
  132.6450  123.2750   61.8280 C   0  0  0  0  0  0  0  0  0  0  0  0
  133.1030  124.5460   62.5520 C   0  0  0  0  0  0  0  0  0  0  0  0
  132.5870  125.6600   62.0270 F   0  0  0  0  0  0  0  0  0  0  0  0
  132.7280  124.4960   63.8300 F   0  0  0  0  0  0  0  0  0  0  0  0
  134.4300  124.6500   62.4850 F   0  0  0  0  0  0  0  0  0  0  0  0
  131.3040  123.0310   61.4050 C   0  0  0  0  0  0  0  0  0  0  0  0
  130.0870  123.7970   61.5120 C   0  0  0  0  0  0  0  0  0  0  0  0
  130.0310  125.0240   62.1230 N   0  0  0  0  0  0  0  0  0  0  0  0
  128.9700  123.1790   60.9270 C   0  0  0  0  0  0  0  0  0  0  0  0
  127.5870  123.6530   60.8790 C   0  0  0  0  0  0  0  0  0  0  0  0
  126.8360  123.5450   61.8500 O   0  0  0  0  0  0  0  0  0  0  0  0
  127.2060  124.2440   59.7280 N   0  0  0  0  0  0  0  0  0  0  0  0
  125.8720  124.7780   59.4480 C   0  0  0  0  0  0  0  0  0  0  0  0
  125.2340  124.1980   58.1930 C   0  0  0  0  0  0  0  0  0  0  0  0
  123.8420  124.1600   58.0670 C   0  0  0  0  0  0  0  0  0  0  0  0
  123.2630  123.6650   56.9020 C   0  0  0  0  0  0  0  0  0  0  0  0
  124.0750  123.2220   55.8600 C   0  0  0  0  0  0  0  0  0  0  0  0
  125.4630  123.2740   55.9720 C   0  0  0  0  0  0  0  0  0  0  0  0
  126.0430  123.7670   57.1380 C   0  0  0  0  0  0  0  0  0  0  0  0
  129.3850  121.6040   60.2580 S   0  0  0  0  0  0  0  0  0  0  0  0
  131.0550  121.7920   60.7370 C   0  0  0  0  0  0  0  0  0  0  0  0
  131.9610  120.8480   60.4830 N   0  0  0  0  0  0  0  0  0  0  0  0
  134.6191  119.6080   61.5507 H   0  0  0  0  0  0  0  0  0  0  0  0
  133.7552  119.2175   60.0249 H   0  0  0  0  0  0  0  0  0  0  0  0
  135.0693  120.4423   60.0249 H   0  0  0  0  0  0  0  0  0  0  0  0
  134.6416  122.4222   61.8624 H   0  0  0  0  0  0  0  0  0  0  0  0
  130.6620  125.7720   61.8770 H   0  0  0  0  0  0  0  0  0  0  0  0
  129.3580  125.2170   62.8520 H   0  0  0  0  0  0  0  0  0  0  0  0
  127.8470  124.2260   58.9480 H   0  0  0  0  0  0  0  0  0  0  0  0
  125.2204  124.5529   60.3052 H   0  0  0  0  0  0  0  0  0  0  0  0
  125.9859  125.8593   59.2816 H   0  0  0  0  0  0  0  0  0  0  0  0
  123.2050  124.5210   58.8879 H   0  0  0  0  0  0  0  0  0  0  0  0
  122.1681  123.6237   56.8043 H   0  0  0  0  0  0  0  0  0  0  0  0
  123.6165  122.8278   54.9411 H   0  0  0  0  0  0  0  0  0  0  0  0
  126.0976  122.9272   55.1431 H   0  0  0  0  0  0  0  0  0  0  0  0
  127.1381  123.8172   57.2287 H   0  0  0  0  0  0  0  0  0  0  0  0
  1  2  1  0
  2  3  2  0
  3  4  1  0
  4  5  1  0
  5  6  1  0
  5  7  1  0
  5  8  1  0
  4  9  2  0
  9 10  1  0
 10 11  1  0
 10 12  2  0
 12 13  1  0
 13 14  2  0
 13 15  1  0
 15 16  1  0
 16 17  1  0
 17 18  2  0
 18 19  1  0
 19 20  2  0
 20 21  1  0
 21 22  2  0
 12 23  1  0
 23 24  1  0
 24 25  2  0
 25  2  1  0
 24  9  1  0
 22 17  1  0
  1 26  1  0
  1 27  1  0
  1 28  1  0
  3 29  1  0
 11 30  1  0
 11 31  1  0
 15 32  1  0
 16 33  1  0
 16 34  1  0
 18 35  1  0
 19 36  1  0
 20 37  1  0
 21 38  1  0
 22 39  1  0
M  END
>  <Binding energies>  (1) 
[-7.11]

>  <Ligand effiencies>  (1) 
[-0.25392857142857145]

>  <Interactions>  (1) 
["V-B:ASP:366:CG:8185, V-B:TYR:539:CD2:9846, V-B:PRO:540:CA:9855, H-B:ALA:541:N:9863, V-A:LEU:475:CD2:4257, V-A:ILE:369:CG2:3235, V-A:TRP:381:CZ2:3368, V-B:ALA:541:CB:9864, V-A:TRP:381:CH2:3370, V-A:ILE:369:CD1:3237, V-B:TYR:539:CE2:9848, V-B:PRO:540:N:9856, V-B:ILE:538:CB:9834, V-A:ASP:366:CG:3211, V-B:TYR:531:CE2:9765, V-B:PRO:540:CD:9859, V-B:PRO:540:CB:9857, V-B:ILE:538:CG2:9835, H-B:GLU:543:OE2:9882, H-B:GLU:543:OE1:9881, V-B:ILE:538:CA:9832, V-B:TYR:539:C:9839, V-B:LEU:363:CD1:8161, V-B:TYR:531:CZ:9766, V-B:GLU:543:CD:9880, V-A:ARG:545:CZ:4924, V-A:GLY:454:CA:4047, V-B:LEU:363:CA:8157, V-B:LEU:363:CB:8159, V-A:GLY:453:C:4040, V-A:GLY:453:CA:4042, V-A:SER:385:C:3403, V-A:SER:385:CA:3405, V-A:SER:385:CB:3407"]

$$$$
4bh_Grossjean_2025
     RDKit          3D

 51 53  0  0  0  0  0  0  0  0999 V2000
  123.0560  124.6510   57.6100 C   0  0  0  0  0  0  0  0  0  0  0  0
  124.0010  123.5870   57.6210 O   0  0  0  0  0  0  0  0  0  0  0  0
  125.2920  123.8300   58.0530 C   0  0  0  0  0  0  0  0  0  0  0  0
  125.6080  124.4650   59.2640 C   0  0  0  0  0  0  0  0  0  0  0  0
  126.9350  124.6800   59.6360 C   0  0  0  0  0  0  0  0  0  0  0  0
  127.2590  125.3290   60.9760 C   0  0  0  0  0  0  0  0  0  0  0  0
  127.1090  126.7850   60.9710 N   0  0  0  0  0  0  0  0  0  0  0  0
  128.0710  127.6710   61.3050 C   0  0  0  0  0  0  0  0  0  0  0  0
  129.1860  127.3220   61.6960 O   0  0  0  0  0  0  0  0  0  0  0  0
  127.7000  129.0840   61.2210 C   0  0  0  0  0  0  0  0  0  0  0  0
  128.9500  130.3240   61.2190 S   0  0  0  0  0  0  0  0  0  0  0  0
  127.7490  131.5940   61.1510 C   0  0  0  0  0  0  0  0  0  0  0  0
  128.0980  132.8790   61.1190 N   0  0  0  0  0  0  0  0  0  0  0  0
  127.0810  133.7690   61.0650 C   0  0  0  0  0  0  0  0  0  0  0  0
  127.5000  135.2280   61.0310 C   0  0  0  0  0  0  0  0  0  0  0  0
  125.7360  133.4090   61.0400 C   0  0  0  0  0  0  0  0  0  0  0  0
  125.3620  132.0560   61.0750 C   0  0  0  0  0  0  0  0  0  0  0  0
  123.8700  131.7080   61.0420 C   0  0  0  0  0  0  0  0  0  0  0  0
  123.4980  130.9060   62.0430 F   0  0  0  0  0  0  0  0  0  0  0  0
  123.1450  132.8220   61.1340 F   0  0  0  0  0  0  0  0  0  0  0  0
  123.5780  131.0850   59.9010 F   0  0  0  0  0  0  0  0  0  0  0  0
  126.4110  131.0910   61.1350 C   0  0  0  0  0  0  0  0  0  0  0  0
  126.4160  129.6500   61.1900 C   0  0  0  0  0  0  0  0  0  0  0  0
  125.2670  128.9030   61.2020 N   0  0  0  0  0  0  0  0  0  0  0  0
  127.9630  124.2310   58.8050 C   0  0  0  0  0  0  0  0  0  0  0  0
  127.6780  123.6000   57.5840 C   0  0  0  0  0  0  0  0  0  0  0  0
  128.6450  123.1440   56.7060 O   0  0  0  0  0  0  0  0  0  0  0  0
  129.0010  123.9450   55.5840 C   0  0  0  0  0  0  0  0  0  0  0  0
  126.3370  123.4110   57.2170 C   0  0  0  0  0  0  0  0  0  0  0  0
  126.0440  122.7780   56.0320 O   0  0  0  0  0  0  0  0  0  0  0  0
  125.6130  123.6540   55.0000 C   0  0  0  0  0  0  0  0  0  0  0  0
  122.8072  124.9311   58.6442 H   0  0  0  0  0  0  0  0  0  0  0  0
  123.4867  125.5186   57.0886 H   0  0  0  0  0  0  0  0  0  0  0  0
  122.1437  124.3257   57.0886 H   0  0  0  0  0  0  0  0  0  0  0  0
  124.7977  124.7979   59.9292 H   0  0  0  0  0  0  0  0  0  0  0  0
  126.5833  124.9120   61.7373 H   0  0  0  0  0  0  0  0  0  0  0  0
  128.3156  125.1133   61.1929 H   0  0  0  0  0  0  0  0  0  0  0  0
  126.2490  127.1410   60.5800 H   0  0  0  0  0  0  0  0  0  0  0  0
  127.6076  135.6027   62.0596 H   0  0  0  0  0  0  0  0  0  0  0  0
  128.4612  135.3213   60.5044 H   0  0  0  0  0  0  0  0  0  0  0  0
  126.7347  135.8171   60.5044 H   0  0  0  0  0  0  0  0  0  0  0  0
  124.9620  134.1892   60.9926 H   0  0  0  0  0  0  0  0  0  0  0  0
  124.4590  129.1730   61.7470 H   0  0  0  0  0  0  0  0  0  0  0  0
  125.1900  128.0480   60.6700 H   0  0  0  0  0  0  0  0  0  0  0  0
  129.0099  124.3736   59.1110 H   0  0  0  0  0  0  0  0  0  0  0  0
  129.4246  124.8981   55.9335 H   0  0  0  0  0  0  0  0  0  0  0  0
  129.7475  123.4131   54.9758 H   0  0  0  0  0  0  0  0  0  0  0  0
  128.1060  124.1426   54.9758 H   0  0  0  0  0  0  0  0  0  0  0  0
  125.1692  124.5561   55.4464 H   0  0  0  0  0  0  0  0  0  0  0  0
  126.4739  123.9386   54.3773 H   0  0  0  0  0  0  0  0  0  0  0  0
  124.8622  123.1456   54.3773 H   0  0  0  0  0  0  0  0  0  0  0  0
  1  2  1  0
  2  3  1  0
  3  4  2  0
  4  5  1  0
  5  6  1  0
  6  7  1  0
  7  8  1  0
  8  9  2  0
  8 10  1  0
 10 11  1  0
 11 12  1  0
 12 13  2  0
 13 14  1  0
 14 15  1  0
 14 16  2  0
 16 17  1  0
 17 18  1  0
 18 19  1  0
 18 20  1  0
 18 21  1  0
 17 22  2  0
 22 23  1  0
 23 24  1  0
  5 25  2  0
 25 26  1  0
 26 27  1  0
 27 28  1  0
 26 29  2  0
 29 30  1  0
 30 31  1  0
 29  3  1  0
 23 10  2  0
 22 12  1  0
  1 32  1  0
  1 33  1  0
  1 34  1  0
  4 35  1  0
  6 36  1  0
  6 37  1  0
  7 38  1  0
 15 39  1  0
 15 40  1  0
 15 41  1  0
 16 42  1  0
 24 43  1  0
 24 44  1  0
 25 45  1  0
 28 46  1  0
 28 47  1  0
 28 48  1  0
 31 49  1  0
 31 50  1  0
 31 51  1  0
M  END
>  <Binding energies>  (1) 
[-6.19]

>  <Ligand effiencies>  (1) 
[-0.18205882352941177]

>  <Interactions>  (1) 
["V-B:ASP:366:CG:8185, V-B:PRO:540:CA:9855, H-B:ASP:366:OD2:8187, V-B:TYR:539:CE2:9848, V-B:PRO:540:N:9856, V-B:ILE:538:CB:9834, V-B:ILE:369:CD1:8211, V-A:TYR:539:CD2:4872, V-B:TYR:531:CE2:9765, V-B:PRO:540:CD:9859, V-B:PRO:540:CB:9857, V-B:ILE:369:CG2:8209, V-B:LEU:475:CD2:9231, V-A:TYR:539:CE2:4874, V-B:ILE:538:CG2:9835, V-B:TRP:381:CH2:8344, V-B:TYR:539:CZ:9849, V-B:TYR:539:CE1:9847, V-A:ALA:541:CB:4890, V-A:GLU:543:CD:4906, V-B:ILE:538:CA:9832, V-B:TYR:539:C:9839, V-B:LEU:363:CD1:8161, V-B:TYR:531:CZ:9766, V-B:GLU:543:CD:9880, V-B:ARG:545:CZ:9898, V-B:TYR:539:CD1:9845, V-B:ASP:366:CB:8184, V-B:ILE:369:CB:8208, V-B:ASP:366:CA:8182, V-B:ILE:369:CG1:8210, V-B:LEU:363:CA:8157, H-B:TYR:539:N:9842, V-B:LEU:363:CB:8159, V-B:GLY:453:CA:9016, H-B:ASP:366:OD1:8186, V-B:PRO:482:CB:9298, V-B:LEU:363:C:8155"]

$$$$
4bi_Grossjean_2025
     RDKit          3D

 32 34  0  0  0  0  0  0  0  0999 V2000
  131.9790  131.9440   55.4090 C   0  0  0  0  0  0  0  0  0  0  0  0
  131.4370  131.7500   56.8140 C   0  0  0  0  0  0  0  0  0  0  0  0
  132.2940  131.5320   57.8890 C   0  0  0  0  0  0  0  0  0  0  0  0
  131.7790  131.3580   59.1850 C   0  0  0  0  0  0  0  0  0  0  0  0
  132.7620  131.1290   60.3380 C   0  0  0  0  0  0  0  0  0  0  0  0
  132.7690  132.1260   61.2250 F   0  0  0  0  0  0  0  0  0  0  0  0
  132.4360  130.0150   60.9930 F   0  0  0  0  0  0  0  0  0  0  0  0
  134.0010  131.0120   59.8590 F   0  0  0  0  0  0  0  0  0  0  0  0
  130.3620  131.4130   59.3360 C   0  0  0  0  0  0  0  0  0  0  0  0
  129.4910  131.2800   60.4780 C   0  0  0  0  0  0  0  0  0  0  0  0
  129.9600  131.0440   61.7450 N   0  0  0  0  0  0  0  0  0  0  0  0
  128.1250  131.4200   60.1790 C   0  0  0  0  0  0  0  0  0  0  0  0
  126.9770  131.3300   61.0850 C   0  0  0  0  0  0  0  0  0  0  0  0
  125.8800  131.7890   60.7590 O   0  0  0  0  0  0  0  0  0  0  0  0
  127.2150  130.7050   62.2650 N   0  0  0  0  0  0  0  0  0  0  0  0
  126.3130  130.4710   63.2950 C   0  0  0  0  0  0  0  0  0  0  0  0
  126.6570  129.8140   64.4750 C   0  0  0  0  0  0  0  0  0  0  0  0
  125.5010  129.7860   65.2210 C   0  0  0  0  0  0  0  0  0  0  0  0
  124.5110  130.3960   64.5260 O   0  0  0  0  0  0  0  0  0  0  0  0
  125.0390  130.8260   63.3060 N   0  0  0  0  0  0  0  0  0  0  0  0
  127.8760  131.6980   58.4570 S   0  0  0  0  0  0  0  0  0  0  0  0
  129.5960  131.6440   58.1520 C   0  0  0  0  0  0  0  0  0  0  0  0
  130.0900  131.8100   56.9250 N   0  0  0  0  0  0  0  0  0  0  0  0
  133.0134  132.3143   55.4629 H   0  0  0  0  0  0  0  0  0  0  0  0
  131.9608  130.9835   54.8731 H   0  0  0  0  0  0  0  0  0  0  0  0
  131.3555  132.6748   54.8731 H   0  0  0  0  0  0  0  0  0  0  0  0
  133.3808  131.4957   57.7231 H   0  0  0  0  0  0  0  0  0  0  0  0
  130.1760  131.7970   62.3830 H   0  0  0  0  0  0  0  0  0  0  0  0
  130.1130  130.1040   62.0830 H   0  0  0  0  0  0  0  0  0  0  0  0
  128.1500  130.3560   62.4200 H   0  0  0  0  0  0  0  0  0  0  0  0
  127.6406  129.4058   64.7506 H   0  0  0  0  0  0  0  0  0  0  0  0
  125.3974  129.3399   66.2211 H   0  0  0  0  0  0  0  0  0  0  0  0
  1  2  1  0
  2  3  2  0
  3  4  1  0
  4  5  1  0
  5  6  1  0
  5  7  1  0
  5  8  1  0
  4  9  2  0
  9 10  1  0
 10 11  1  0
 10 12  2  0
 12 13  1  0
 13 14  2  0
 13 15  1  0
 15 16  1  0
 16 17  1  0
 17 18  2  0
 18 19  1  0
 19 20  1  0
 12 21  1  0
 21 22  1  0
 22 23  2  0
 23  2  1  0
 22  9  1  0
 20 16  2  0
  1 24  1  0
  1 25  1  0
  1 26  1  0
  3 27  1  0
 11 28  1  0
 11 29  1  0
 15 30  1  0
 17 31  1  0
 18 32  1  0
M  END
>  <Binding energies>  (1) 
[-6.7]

>  <Ligand effiencies>  (1) 
[-0.2576923076923077]

>  <Interactions>  (1) 
["V-A:ILE:538:CG2:4861, V-A:PRO:540:CD:4885, V-A:PRO:540:N:4882, V-A:ILE:538:CB:4860, V-A:ILE:538:CA:4858, V-A:TYR:531:CZ:4792, V-A:ASP:366:CG:3211, V-A:TYR:539:CD2:4872, V-A:TYR:539:CE2:4874, V-A:TYR:539:CZ:4875, V-A:PRO:540:CA:4881, H-A:GLU:543:OE2:4908, V-A:ALA:541:CB:4890, V-A:GLU:543:CD:4906, H-A:GLU:543:OE1:4907, V-A:ARG:545:CZ:4924, V-B:ARG:545:CZ:9898, V-A:ASN:362:CB:3174, H-B:GLY:454:N:9022, V-A:PRO:540:CB:4883, V-A:TYR:539:C:4865, H-B:TYR:484:OH:9320, V-A:TYR:531:CE2:4791, V-B:HIS:456:CE1:9042, V-A:PRO:540:C:4879, V-A:LEU:363:CA:3183, V-A:ASN:362:C:3170, V-A:ALA:541:C:4886, V-A:ALA:541:CA:4888, H-A:ALA:541:O:4887, V-A:ASN:362:CA:3172"]

$$$$
4bj_Grossjean_2025
     RDKit          3D

 32 34  0  0  0  0  0  0  0  0999 V2000
  125.9590  116.4530   70.7520 C   0  0  0  0  0  0  0  0  0  0  0  0
  126.7480  117.3900   71.6480 C   0  0  0  0  0  0  0  0  0  0  0  0
  127.1000  117.0170   72.9420 C   0  0  0  0  0  0  0  0  0  0  0  0
  127.8250  117.8960   73.7620 C   0  0  0  0  0  0  0  0  0  0  0  0
  128.1870  117.4420   75.1810 C   0  0  0  0  0  0  0  0  0  0  0  0
  127.7640  116.2080   75.4580 F   0  0  0  0  0  0  0  0  0  0  0  0
  129.5110  117.4560   75.3350 F   0  0  0  0  0  0  0  0  0  0  0  0
  127.6320  118.2650   76.0720 F   0  0  0  0  0  0  0  0  0  0  0  0
  128.1780  119.1630   73.2100 C   0  0  0  0  0  0  0  0  0  0  0  0
  128.8960  120.2980   73.7360 C   0  0  0  0  0  0  0  0  0  0  0  0
  129.4060  120.3270   75.0090 N   0  0  0  0  0  0  0  0  0  0  0  0
  129.0310  121.3620   72.8300 C   0  0  0  0  0  0  0  0  0  0  0  0
  129.6860  122.6560   73.0330 C   0  0  0  0  0  0  0  0  0  0  0  0
  129.2070  123.6880   72.5560 O   0  0  0  0  0  0  0  0  0  0  0  0
  130.8180  122.6260   73.7780 N   0  0  0  0  0  0  0  0  0  0  0  0
  131.6170  123.7070   74.1250 C   0  0  0  0  0  0  0  0  0  0  0  0
  131.3640  124.9870   73.9550 N   0  0  0  0  0  0  0  0  0  0  0  0
  132.3450  125.7400   74.4100 C   0  0  0  0  0  0  0  0  0  0  0  0
  133.4300  125.0680   74.9660 C   0  0  0  0  0  0  0  0  0  0  0  0
  133.1390  123.3560   74.8800 S   0  0  0  0  0  0  0  0  0  0  0  0
  128.2480  120.9960   71.2940 S   0  0  0  0  0  0  0  0  0  0  0  0
  127.7590  119.4190   71.8680 C   0  0  0  0  0  0  0  0  0  0  0  0
  127.0680  118.5820   71.0940 N   0  0  0  0  0  0  0  0  0  0  0  0
  125.3740  115.7583   71.3726 H   0  0  0  0  0  0  0  0  0  0  0  0
  125.2785  117.0393   70.1170 H   0  0  0  0  0  0  0  0  0  0  0  0
  126.6526  115.8823   70.1170 H   0  0  0  0  0  0  0  0  0  0  0  0
  126.8084  116.0277   73.3243 H   0  0  0  0  0  0  0  0  0  0  0  0
  128.8110  120.3870   75.8230 H   0  0  0  0  0  0  0  0  0  0  0  0
  130.4030  120.2950   75.1760 H   0  0  0  0  0  0  0  0  0  0  0  0
  131.1190  121.7290   74.1280 H   0  0  0  0  0  0  0  0  0  0  0  0
  132.3086  126.8380   74.3536 H   0  0  0  0  0  0  0  0  0  0  0  0
  134.3264  125.5432   75.3910 H   0  0  0  0  0  0  0  0  0  0  0  0
  1  2  1  0
  2  3  2  0
  3  4  1  0
  4  5  1  0
  5  6  1  0
  5  7  1  0
  5  8  1  0
  4  9  2  0
  9 10  1  0
 10 11  1  0
 10 12  2  0
 12 13  1  0
 13 14  2  0
 13 15  1  0
 15 16  1  0
 16 17  2  0
 17 18  1  0
 18 19  2  0
 19 20  1  0
 12 21  1  0
 21 22  1  0
 22 23  2  0
 23  2  1  0
 22  9  1  0
 20 16  1  0
  1 24  1  0
  1 25  1  0
  1 26  1  0
  3 27  1  0
 11 28  1  0
 11 29  1  0
 15 30  1  0
 18 31  1  0
 19 32  1  0
M  END
>  <Binding energies>  (1) 
[-6.44]

>  <Ligand effiencies>  (1) 
[-0.2476923076923077]

>  <Interactions>  (1) 
["V-B:LYS:547:CE:9922, V-A:HIS:456:CD2:4066, V-B:GLU:543:C:9874, V-A:HIS:456:CG:4064, H-B:LYS:547:NZ:9923, V-B:GLY:544:CA:9886, V-A:TYR:484:CD1:4341, V-A:TYR:484:CG:4340, V-B:GLU:543:CA:9876, V-A:TYR:484:CB:4339, V-A:ASP:473:CG:4238, V-A:HIS:456:C:4059, V-A:LYS:471:CD:4217, V-A:HIS:456:CB:4063, V-A:VAL:458:CG2:4085, V-A:LYS:471:CE:4218, V-B:VAL:542:CG1:9871, H-A:ASP:473:OD2:4240, V-A:SER:483:CB:4331, H-A:TYR:484:N:4338"]

$$$$
4bk_Grossjean_2025
     RDKit          3D

 50 51  0  0  0  0  0  0  0  0999 V2000
  129.3830  124.9440   72.2570 C   0  0  0  0  0  0  0  0  0  0  0  0
  130.4970  125.1760   73.1040 O   0  0  0  0  0  0  0  0  0  0  0  0
  130.8730  126.5450   73.1820 C   0  0  0  0  0  0  0  0  0  0  0  0
  129.8700  127.3970   72.3940 C   0  0  0  0  0  0  0  0  0  0  0  0
  128.9870  128.0460   73.2990 O   0  0  0  0  0  0  0  0  0  0  0  0
  127.6130  127.8900   72.9720 C   0  0  0  0  0  0  0  0  0  0  0  0
  126.7610  128.1130   74.2290 C   0  0  0  0  0  0  0  0  0  0  0  0
  127.4850  128.9140   75.1510 O   0  0  0  0  0  0  0  0  0  0  0  0
  126.6770  129.8400   75.8670 C   0  0  0  0  0  0  0  0  0  0  0  0
  126.0440  130.8350   74.8790 C   0  0  0  0  0  0  0  0  0  0  0  0
  126.9580  131.8910   74.4420 N   0  0  0  0  0  0  0  0  0  0  0  0
  128.0940  131.6980   73.7400 C   0  0  0  0  0  0  0  0  0  0  0  0
  128.4630  130.5800   73.3760 O   0  0  0  0  0  0  0  0  0  0  0  0
  128.8670  132.9000   73.4220 C   0  0  0  0  0  0  0  0  0  0  0  0
  129.3760  133.2100   71.7640 S   0  0  0  0  0  0  0  0  0  0  0  0
  130.1370  134.7110   72.2320 C   0  0  0  0  0  0  0  0  0  0  0  0
  130.7580  135.4830   71.3420 N   0  0  0  0  0  0  0  0  0  0  0  0
  131.3080  136.6230   71.8230 C   0  0  0  0  0  0  0  0  0  0  0  0
  132.0080  137.4880   70.7910 C   0  0  0  0  0  0  0  0  0  0  0  0
  131.2520  137.0030   73.1610 C   0  0  0  0  0  0  0  0  0  0  0  0
  130.6010  136.1940   74.1050 C   0  0  0  0  0  0  0  0  0  0  0  0
  130.5690  136.6530   75.5660 C   0  0  0  0  0  0  0  0  0  0  0  0
  129.3300  136.7800   76.0470 F   0  0  0  0  0  0  0  0  0  0  0  0
  131.2060  135.7670   76.3310 F   0  0  0  0  0  0  0  0  0  0  0  0
  131.1640  137.8400   75.6800 F   0  0  0  0  0  0  0  0  0  0  0  0
  130.0090  134.9860   73.6300 C   0  0  0  0  0  0  0  0  0  0  0  0
  129.2730  133.9310   74.2820 C   0  0  0  0  0  0  0  0  0  0  0  0
  128.9980  133.9390   75.6250 N   0  0  0  0  0  0  0  0  0  0  0  0
  128.4888  124.7578   72.8700 H   0  0  0  0  0  0  0  0  0  0  0  0
  129.2150  125.8264   71.6221 H   0  0  0  0  0  0  0  0  0  0  0  0
  129.5813  124.0679   71.6221 H   0  0  0  0  0  0  0  0  0  0  0  0
  130.8779  126.8644   74.2346 H   0  0  0  0  0  0  0  0  0  0  0  0
  131.8784  126.6738   72.7548 H   0  0  0  0  0  0  0  0  0  0  0  0
  130.4124  128.1519   71.8058 H   0  0  0  0  0  0  0  0  0  0  0  0
  129.2919  126.7510   71.7169 H   0  0  0  0  0  0  0  0  0  0  0  0
  127.3329  128.6256   72.2036 H   0  0  0  0  0  0  0  0  0  0  0  0
  127.4402  126.8743   72.5866 H   0  0  0  0  0  0  0  0  0  0  0  0
  125.8264  128.6236   73.9535 H   0  0  0  0  0  0  0  0  0  0  0  0
  126.5243  127.1429   74.6904 H   0  0  0  0  0  0  0  0  0  0  0  0
  125.8830  129.2979   76.4015 H   0  0  0  0  0  0  0  0  0  0  0  0
  127.2981  130.3864   76.5920 H   0  0  0  0  0  0  0  0  0  0  0  0
  125.7077  130.2777   73.9923 H   0  0  0  0  0  0  0  0  0  0  0  0
  125.2127  131.3265   75.4056 H   0  0  0  0  0  0  0  0  0  0  0  0
  126.7120  132.8320   74.7090 H   0  0  0  0  0  0  0  0  0  0  0  0
  132.6208  138.2452   71.3021 H   0  0  0  0  0  0  0  0  0  0  0  0
  132.6535  136.8579   70.1615 H   0  0  0  0  0  0  0  0  0  0  0  0
  131.2571  137.9879   70.1615 H   0  0  0  0  0  0  0  0  0  0  0  0
  131.7217  137.9448   73.4809 H   0  0  0  0  0  0  0  0  0  0  0  0
  129.7260  133.8500   76.3210 H   0  0  0  0  0  0  0  0  0  0  0  0
  128.0520  134.0400   75.9680 H   0  0  0  0  0  0  0  0  0  0  0  0
  1  2  1  0
  2  3  1  0
  3  4  1  0
  4  5  1  0
  5  6  1  0
  6  7  1  0
  7  8  1  0
  8  9  1  0
  9 10  1  0
 10 11  1  0
 11 12  1  0
 12 13  2  0
 12 14  1  0
 14 15  1  0
 15 16  1  0
 16 17  2  0
 17 18  1  0
 18 19  1  0
 18 20  2  0
 20 21  1  0
 21 22  1  0
 22 23  1  0
 22 24  1  0
 22 25  1  0
 21 26  2  0
 26 27  1  0
 27 28  1  0
 27 14  2  0
 26 16  1  0
  1 29  1  0
  1 30  1  0
  1 31  1  0
  3 32  1  0
  3 33  1  0
  4 34  1  0
  4 35  1  0
  6 36  1  0
  6 37  1  0
  7 38  1  0
  7 39  1  0
  9 40  1  0
  9 41  1  0
 10 42  1  0
 10 43  1  0
 11 44  1  0
 19 45  1  0
 19 46  1  0
 19 47  1  0
 20 48  1  0
 28 49  1  0
 28 50  1  0
M  END
>  <Binding energies>  (1) 
[-6.35]

>  <Ligand effiencies>  (1) 
[-0.20483870967741935]

>  <Interactions>  (1) 
["V-B:TYR:484:CG:9314, V-B:GLY:544:C:9884, V-A:LYS:547:CE:4948, V-B:HIS:456:CG:9038, V-B:TYR:484:CB:9313, V-A:GLY:544:C:4910, V-A:GLU:543:C:4900, V-B:LYS:547:CE:9922, V-A:HIS:456:CD2:4066, V-B:HIS:456:CD2:9040, V-B:GLU:543:C:9874, H-B:LYS:547:NZ:9923, H-A:LYS:547:NZ:4949, V-A:GLY:544:CA:4912, V-B:GLY:544:CA:9886, V-B:LYS:547:CD:9921, V-B:VAL:458:CG2:9059, V-B:HIS:456:CB:9037, V-B:LYS:471:CE:9192, V-B:ASP:473:CG:9212, V-A:VAL:542:CG1:4897, H-B:ASP:473:OD1:9213, H-B:ASP:473:OD2:9214, V-B:TYR:484:CD1:9315, V-B:SER:483:CB:9305, H-B:TYR:484:N:9312, V-B:SER:483:CA:9303"]

$$$$
4ca_Grossjean_2025
     RDKit          3D

 52 55  0  0  0  0  0  0  0  0999 V2000
  130.6440  126.2730   72.5640 C   0  0  0  0  0  0  0  0  0  0  0  0
  129.3320  125.7650   71.9580 C   0  0  0  0  0  0  0  0  0  0  0  0
  128.4030  126.8390   71.8760 O   0  0  0  0  0  0  0  0  0  0  0  0
  128.6460  127.9180   71.0880 C   0  0  0  0  0  0  0  0  0  0  0  0
  128.6530  129.0800   71.5100 O   0  0  0  0  0  0  0  0  0  0  0  0
  128.9090  127.5590   69.6550 C   0  0  0  0  0  0  0  0  0  0  0  0
  130.2310  127.3770   69.2260 C   0  0  0  0  0  0  0  0  0  0  0  0
  130.5060  127.0390   67.9040 C   0  0  0  0  0  0  0  0  0  0  0  0
  129.4700  126.8830   66.9840 C   0  0  0  0  0  0  0  0  0  0  0  0
  129.8610  126.5310   65.6770 N   0  0  0  0  0  0  0  0  0  0  0  0
  130.8750  125.7370   65.2530 C   0  0  0  0  0  0  0  0  0  0  0  0
  131.6320  125.1220   66.0040 O   0  0  0  0  0  0  0  0  0  0  0  0
  131.0180  125.6280   63.7990 C   0  0  0  0  0  0  0  0  0  0  0  0
  129.9960  126.5900   62.7340 S   0  0  0  0  0  0  0  0  0  0  0  0
  130.7880  125.9430   61.3170 C   0  0  0  0  0  0  0  0  0  0  0  0
  130.4330  126.3210   60.0910 N   0  0  0  0  0  0  0  0  0  0  0  0
  131.1150  125.7750   59.0510 C   0  0  0  0  0  0  0  0  0  0  0  0
  130.6980  126.2290   57.6810 C   0  0  0  0  0  0  0  0  0  0  0  0
  130.0930  127.4810   57.4920 C   0  0  0  0  0  0  0  0  0  0  0  0
  129.6990  127.9050   56.2250 C   0  0  0  0  0  0  0  0  0  0  0  0
  129.9040  127.0780   55.1260 C   0  0  0  0  0  0  0  0  0  0  0  0
  130.4980  125.8310   55.2850 C   0  0  0  0  0  0  0  0  0  0  0  0
  130.8910  125.4110   56.5540 C   0  0  0  0  0  0  0  0  0  0  0  0
  132.1340  124.8370   59.2460 C   0  0  0  0  0  0  0  0  0  0  0  0
  132.5120  124.4290   60.5340 C   0  0  0  0  0  0  0  0  0  0  0  0
  133.6400  123.4000   60.6760 C   0  0  0  0  0  0  0  0  0  0  0  0
  134.6240  123.8090   61.4780 F   0  0  0  0  0  0  0  0  0  0  0  0
  133.1560  122.2670   61.1840 F   0  0  0  0  0  0  0  0  0  0  0  0
  134.1780  123.1530   59.4810 F   0  0  0  0  0  0  0  0  0  0  0  0
  131.8160  125.0080   61.6330 C   0  0  0  0  0  0  0  0  0  0  0  0
  131.9260  124.8490   63.0630 C   0  0  0  0  0  0  0  0  0  0  0  0
  132.8390  124.0080   63.6460 N   0  0  0  0  0  0  0  0  0  0  0  0
  128.1440  127.0570   67.4040 C   0  0  0  0  0  0  0  0  0  0  0  0
  127.8700  127.3930   68.7270 C   0  0  0  0  0  0  0  0  0  0  0  0
  130.5754  126.2465   73.6615 H   0  0  0  0  0  0  0  0  0  0  0  0
  131.4736  125.6311   72.2328 H   0  0  0  0  0  0  0  0  0  0  0  0
  130.8250  127.3062   72.2328 H   0  0  0  0  0  0  0  0  0  0  0  0
  129.5229  125.3670   70.9504 H   0  0  0  0  0  0  0  0  0  0  0  0
  128.9178  124.9683   72.5933 H   0  0  0  0  0  0  0  0  0  0  0  0
  131.0582  127.5024   69.9402 H   0  0  0  0  0  0  0  0  0  0  0  0
  131.5480  126.8939   67.5828 H   0  0  0  0  0  0  0  0  0  0  0  0
  129.2830  126.9300   64.9520 H   0  0  0  0  0  0  0  0  0  0  0  0
  129.9272  128.1382   58.3584 H   0  0  0  0  0  0  0  0  0  0  0  0
  129.2275  128.8902   56.0943 H   0  0  0  0  0  0  0  0  0  0  0  0
  129.5944  127.4124   54.1249 H   0  0  0  0  0  0  0  0  0  0  0  0
  130.6569  125.1793   54.4132 H   0  0  0  0  0  0  0  0  0  0  0  0
  131.3599  124.4234   56.6761 H   0  0  0  0  0  0  0  0  0  0  0  0
  132.6491  124.4109   58.3724 H   0  0  0  0  0  0  0  0  0  0  0  0
  133.5520  123.5350   63.1060 H   0  0  0  0  0  0  0  0  0  0  0  0
  132.8330  123.8320   64.6410 H   0  0  0  0  0  0  0  0  0  0  0  0
  127.3192  126.9280   66.6877 H   0  0  0  0  0  0  0  0  0  0  0  0
  126.8269  127.5299   69.0484 H   0  0  0  0  0  0  0  0  0  0  0  0
  1  2  1  0
  2  3  1  0
  3  4  1  0
  4  5  2  0
  4  6  1  0
  6  7  2  0
  7  8  1  0
  8  9  2  0
  9 10  1  0
 10 11  1  0
 11 12  2  0
 11 13  1  0
 13 14  1  0
 14 15  1  0
 15 16  2  0
 16 17  1  0
 17 18  1  0
 18 19  2  0
 19 20  1  0
 20 21  2  0
 21 22  1  0
 22 23  2  0
 17 24  2  0
 24 25  1  0
 25 26  1  0
 26 27  1  0
 26 28  1  0
 26 29  1  0
 25 30  2  0
 30 31  1  0
 31 32  1  0
  9 33  1  0
 33 34  2  0
 34  6  1  0
 31 13  2  0
 30 15  1  0
 23 18  1  0
  1 35  1  0
  1 36  1  0
  1 37  1  0
  2 38  1  0
  2 39  1  0
  7 40  1  0
  8 41  1  0
 10 42  1  0
 19 43  1  0
 20 44  1  0
 21 45  1  0
 22 46  1  0
 23 47  1  0
 24 48  1  0
 32 49  1  0
 32 50  1  0
 33 51  1  0
 34 52  1  0
M  END
>  <Binding energies>  (1) 
[-6.91]

>  <Ligand effiencies>  (1) 
[-0.18675675675675676]

>  <Interactions>  (1) 
["V-A:LEU:475:CD2:4257, V-A:ILE:369:CG2:3235, V-A:ILE:369:CD1:3237, V-A:ASP:366:CG:3211, H-B:GLU:543:OE2:9882, H-B:GLU:543:OE1:9881, V-B:TYR:539:CZ:9849, H-A:GLU:543:OE2:4908, V-A:GLU:543:CD:4906, V-A:HIS:456:CE1:4068, H-A:TYR:484:OH:4346, V-B:GLU:543:CD:9880, V-B:GLU:543:CB:9878, V-B:GLU:543:CG:9879, V-A:GLU:543:CG:4905, V-B:HIS:456:CE1:9042, V-A:ILE:369:CB:3234, V-A:GLY:544:C:4910, V-A:GLU:543:C:4900, V-B:LYS:547:CE:9922, V-A:HIS:456:CD2:4066, V-B:HIS:456:CD2:9040, V-B:GLU:543:C:9874, V-A:HIS:456:CG:4064, V-B:GLY:544:CA:9886, V-A:ARG:545:CG:4920, V-A:GLY:454:CA:4047, V-A:ILE:369:CG1:3236, V-A:GLY:453:C:4040, V-A:GLY:453:CA:4042"]

$$$$
4cb_Grossjean_2025
     RDKit          3D

 49 52  0  0  0  0  0  0  0  0999 V2000
  130.3240  126.7650   72.3540 C   0  0  0  0  0  0  0  0  0  0  0  0
  129.7540  127.9620   71.8430 O   0  0  0  0  0  0  0  0  0  0  0  0
  128.6330  127.9310   71.0780 C   0  0  0  0  0  0  0  0  0  0  0  0
  127.5030  128.1670   71.5150 O   0  0  0  0  0  0  0  0  0  0  0  0
  128.9040  127.5800   69.6420 C   0  0  0  0  0  0  0  0  0  0  0  0
  130.2260  127.3830   69.2240 C   0  0  0  0  0  0  0  0  0  0  0  0
  130.5090  127.0490   67.9020 C   0  0  0  0  0  0  0  0  0  0  0  0
  129.4790  126.9130   66.9710 C   0  0  0  0  0  0  0  0  0  0  0  0
  129.8770  126.5590   65.6680 N   0  0  0  0  0  0  0  0  0  0  0  0
  130.8680  125.7330   65.2520 C   0  0  0  0  0  0  0  0  0  0  0  0
  131.5920  125.0850   66.0090 O   0  0  0  0  0  0  0  0  0  0  0  0
  131.0280  125.6310   63.7990 C   0  0  0  0  0  0  0  0  0  0  0  0
  129.9820  126.5570   62.7240 S   0  0  0  0  0  0  0  0  0  0  0  0
  130.8090  125.9410   61.3130 C   0  0  0  0  0  0  0  0  0  0  0  0
  130.4520  126.3040   60.0840 N   0  0  0  0  0  0  0  0  0  0  0  0
  131.1610  125.7800   59.0500 C   0  0  0  0  0  0  0  0  0  0  0  0
  130.7380  126.2140   57.6760 C   0  0  0  0  0  0  0  0  0  0  0  0
  130.9760  125.3950   56.5600 C   0  0  0  0  0  0  0  0  0  0  0  0
  130.5900  125.7920   55.2820 C   0  0  0  0  0  0  0  0  0  0  0  0
  129.9590  127.0190   55.1020 C   0  0  0  0  0  0  0  0  0  0  0  0
  129.7140  127.8510   56.1900 C   0  0  0  0  0  0  0  0  0  0  0  0
  130.1030  127.4500   57.4650 C   0  0  0  0  0  0  0  0  0  0  0  0
  132.2090  124.8770   59.2560 C   0  0  0  0  0  0  0  0  0  0  0  0
  132.5910  124.4850   60.5470 C   0  0  0  0  0  0  0  0  0  0  0  0
  133.7510  123.4930   60.7010 C   0  0  0  0  0  0  0  0  0  0  0  0
  133.3850  122.3460   61.2790 F   0  0  0  0  0  0  0  0  0  0  0  0
  134.2490  123.1930   59.5010 F   0  0  0  0  0  0  0  0  0  0  0  0
  134.7090  124.0310   61.4540 F   0  0  0  0  0  0  0  0  0  0  0  0
  131.8650  125.0410   61.6400 C   0  0  0  0  0  0  0  0  0  0  0  0
  131.9710  124.8870   63.0700 C   0  0  0  0  0  0  0  0  0  0  0  0
  132.9100  124.0820   63.6620 N   0  0  0  0  0  0  0  0  0  0  0  0
  128.1510  127.1050   67.3820 C   0  0  0  0  0  0  0  0  0  0  0  0
  127.8700  127.4370   68.7040 C   0  0  0  0  0  0  0  0  0  0  0  0
  130.3107  126.7929   73.4536 H   0  0  0  0  0  0  0  0  0  0  0  0
  129.7404  125.9016   72.0020 H   0  0  0  0  0  0  0  0  0  0  0  0
  131.3622  126.6739   72.0020 H   0  0  0  0  0  0  0  0  0  0  0  0
  131.0482  127.4931   69.9464 H   0  0  0  0  0  0  0  0  0  0  0  0
  131.5519  126.8913   67.5897 H   0  0  0  0  0  0  0  0  0  0  0  0
  129.3250  126.9870   64.9380 H   0  0  0  0  0  0  0  0  0  0  0  0
  131.4752  124.4245   56.6975 H   0  0  0  0  0  0  0  0  0  0  0  0
  130.7832  125.1383   54.4186 H   0  0  0  0  0  0  0  0  0  0  0  0
  129.6520  127.3331   54.0935 H   0  0  0  0  0  0  0  0  0  0  0  0
  129.2155  128.8206   56.0434 H   0  0  0  0  0  0  0  0  0  0  0  0
  129.9101  128.1119   58.3222 H   0  0  0  0  0  0  0  0  0  0  0  0
  132.7445  124.4659   58.3875 H   0  0  0  0  0  0  0  0  0  0  0  0
  132.9010  123.8890   64.6530 H   0  0  0  0  0  0  0  0  0  0  0  0
  133.6460  123.6480   63.1220 H   0  0  0  0  0  0  0  0  0  0  0  0
  127.3306  126.9929   66.6579 H   0  0  0  0  0  0  0  0  0  0  0  0
  126.8265  127.5889   69.0170 H   0  0  0  0  0  0  0  0  0  0  0  0
  1  2  1  0
  2  3  1  0
  3  4  2  0
  3  5  1  0
  5  6  2  0
  6  7  1  0
  7  8  2  0
  8  9  1  0
  9 10  1  0
 10 11  2  0
 10 12  1  0
 12 13  1  0
 13 14  1  0
 14 15  2  0
 15 16  1  0
 16 17  1  0
 17 18  2  0
 18 19  1  0
 19 20  2  0
 20 21  1  0
 21 22  2  0
 16 23  2  0
 23 24  1  0
 24 25  1  0
 25 26  1  0
 25 27  1  0
 25 28  1  0
 24 29  2  0
 29 30  1  0
 30 31  1  0
  8 32  1  0
 32 33  2  0
 33  5  1  0
 30 12  2  0
 29 14  1  0
 22 17  1  0
  1 34  1  0
  1 35  1  0
  1 36  1  0
  6 37  1  0
  7 38  1  0
  9 39  1  0
 18 40  1  0
 19 41  1  0
 20 42  1  0
 21 43  1  0
 22 44  1  0
 23 45  1  0
 31 46  1  0
 31 47  1  0
 32 48  1  0
 33 49  1  0
M  END
>  <Binding energies>  (1) 
[-6.77]

>  <Ligand effiencies>  (1) 
[-0.18805555555555553]

>  <Interactions>  (1) 
["V-A:LEU:475:CD2:4257, V-A:ILE:369:CG2:3235, V-A:ILE:369:CD1:3237, V-A:ASP:366:CG:3211, H-B:GLU:543:OE2:9882, H-B:GLU:543:OE1:9881, V-B:TYR:539:CZ:9849, H-A:GLU:543:OE2:4908, V-A:GLU:543:CD:4906, V-A:HIS:456:CE1:4068, H-A:TYR:484:OH:4346, H-A:GLU:543:OE1:4907, V-B:GLU:543:CD:9880, V-B:GLU:543:CB:9878, V-B:GLU:543:CG:9879, V-A:GLU:543:CG:4905, V-B:HIS:456:CE1:9042, V-A:ILE:369:CB:3234, V-A:GLY:544:C:4910, V-A:GLU:543:C:4900, V-A:HIS:456:CD2:4066, V-B:HIS:456:CD2:9040, V-B:GLU:543:C:9874, V-A:ARG:545:CG:4920, V-A:GLY:454:CA:4047, V-A:TYR:531:CE1:4790, H-B:HIS:456:ND1:9039, V-A:ILE:369:CG1:3236, V-A:GLY:453:C:4040, V-A:GLY:453:CA:4042"]

$$$$
4cc_Grossjean_2025
     RDKit          3D

 47 50  0  0  0  0  0  0  0  0999 V2000
  128.8070  127.4260   71.9990 C   0  0  0  0  0  0  0  0  0  0  0  0
  129.4700  126.7650   70.9260 O   0  0  0  0  0  0  0  0  0  0  0  0
  129.1980  127.1480   69.6270 C   0  0  0  0  0  0  0  0  0  0  0  0
  127.8570  127.3590   69.3080 C   0  0  0  0  0  0  0  0  0  0  0  0
  127.4860  127.7490   68.0240 C   0  0  0  0  0  0  0  0  0  0  0  0
  128.4560  127.9230   67.0350 C   0  0  0  0  0  0  0  0  0  0  0  0
  127.9880  128.3330   65.7720 N   0  0  0  0  0  0  0  0  0  0  0  0
  127.0550  129.2660   65.4660 C   0  0  0  0  0  0  0  0  0  0  0  0
  126.4740  129.9590   66.3030 O   0  0  0  0  0  0  0  0  0  0  0  0
  126.7620  129.4180   64.0380 C   0  0  0  0  0  0  0  0  0  0  0  0
  127.6990  128.5270   62.8390 S   0  0  0  0  0  0  0  0  0  0  0  0
  126.7700  129.2220   61.5320 C   0  0  0  0  0  0  0  0  0  0  0  0
  127.0190  128.9110   60.2620 N   0  0  0  0  0  0  0  0  0  0  0  0
  126.2380  129.4940   59.3150 C   0  0  0  0  0  0  0  0  0  0  0  0
  126.5440  129.1270   57.8920 C   0  0  0  0  0  0  0  0  0  0  0  0
  127.2460  127.9490   57.5890 C   0  0  0  0  0  0  0  0  0  0  0  0
  127.5350  127.6040   56.2710 C   0  0  0  0  0  0  0  0  0  0  0  0
  127.1260  128.4350   55.2340 C   0  0  0  0  0  0  0  0  0  0  0  0
  126.4320  129.6090   55.5070 C   0  0  0  0  0  0  0  0  0  0  0  0
  126.1460  129.9520   56.8260 C   0  0  0  0  0  0  0  0  0  0  0  0
  125.2240  130.3970   59.6470 C   0  0  0  0  0  0  0  0  0  0  0  0
  124.9540  130.7330   60.9840 C   0  0  0  0  0  0  0  0  0  0  0  0
  123.8230  131.7250   61.2760 C   0  0  0  0  0  0  0  0  0  0  0  0
  122.9070  131.2430   62.1210 F   0  0  0  0  0  0  0  0  0  0  0  0
  124.3240  132.8320   61.8220 F   0  0  0  0  0  0  0  0  0  0  0  0
  123.1940  132.0380   60.1430 F   0  0  0  0  0  0  0  0  0  0  0  0
  125.7600  130.1210   61.9850 C   0  0  0  0  0  0  0  0  0  0  0  0
  125.7830  130.2150   63.4240 C   0  0  0  0  0  0  0  0  0  0  0  0
  124.9180  131.0160   64.1270 N   0  0  0  0  0  0  0  0  0  0  0  0
  129.8080  127.7240   67.3510 C   0  0  0  0  0  0  0  0  0  0  0  0
  130.1740  127.3360   68.6370 C   0  0  0  0  0  0  0  0  0  0  0  0
  129.1897  127.0445   72.9571 H   0  0  0  0  0  0  0  0  0  0  0  0
  128.9937  128.5081   71.9344 H   0  0  0  0  0  0  0  0  0  0  0  0
  127.7255  127.2360   71.9344 H   0  0  0  0  0  0  0  0  0  0  0  0
  127.0848  127.2159   70.0783 H   0  0  0  0  0  0  0  0  0  0  0  0
  126.4254  127.9206   67.7880 H   0  0  0  0  0  0  0  0  0  0  0  0
  128.4390  127.8800   64.9920 H   0  0  0  0  0  0  0  0  0  0  0  0
  127.5728  127.2884   58.4056 H   0  0  0  0  0  0  0  0  0  0  0  0
  128.0850  126.6771   56.0511 H   0  0  0  0  0  0  0  0  0  0  0  0
  127.3524  128.1626   54.1926 H   0  0  0  0  0  0  0  0  0  0  0  0
  126.1102  130.2641   54.6840 H   0  0  0  0  0  0  0  0  0  0  0  0
  125.6000  130.8833   57.0369 H   0  0  0  0  0  0  0  0  0  0  0  0
  124.6254  130.8537   58.8451 H   0  0  0  0  0  0  0  0  0  0  0  0
  125.0450  131.2040   65.1120 H   0  0  0  0  0  0  0  0  0  0  0  0
  124.1180  131.4440   63.6820 H   0  0  0  0  0  0  0  0  0  0  0  0
  130.5799  127.8747   66.5819 H   0  0  0  0  0  0  0  0  0  0  0  0
  131.2352  127.1758   68.8783 H   0  0  0  0  0  0  0  0  0  0  0  0
  1  2  1  0
  2  3  1  0
  3  4  2  0
  4  5  1  0
  5  6  2  0
  6  7  1  0
  7  8  1  0
  8  9  2  0
  8 10  1  0
 10 11  1  0
 11 12  1  0
 12 13  2  0
 13 14  1  0
 14 15  1  0
 15 16  2  0
 16 17  1  0
 17 18  2  0
 18 19  1  0
 19 20  2  0
 14 21  2  0
 21 22  1  0
 22 23  1  0
 23 24  1  0
 23 25  1  0
 23 26  1  0
 22 27  2  0
 27 28  1  0
 28 29  1  0
  6 30  1  0
 30 31  2  0
 31  3  1  0
 28 10  2  0
 27 12  1  0
 20 15  1  0
  1 32  1  0
  1 33  1  0
  1 34  1  0
  4 35  1  0
  5 36  1  0
  7 37  1  0
 16 38  1  0
 17 39  1  0
 18 40  1  0
 19 41  1  0
 20 42  1  0
 21 43  1  0
 29 44  1  0
 29 45  1  0
 30 46  1  0
 31 47  1  0
M  END
>  <Binding energies>  (1) 
[-6.18]

>  <Ligand effiencies>  (1) 
[-0.18176470588235294]

>  <Interactions>  (1) 
["V-B:ASP:366:CG:8185, V-B:ILE:369:CD1:8211, V-B:ILE:369:CG2:8209, V-B:LEU:475:CD2:9231, V-A:TYR:539:CZ:4875, H-B:GLU:543:OE2:9882, H-B:GLU:543:OE1:9881, H-A:GLU:543:OE2:4908, V-A:GLU:543:CD:4906, V-A:HIS:456:CE1:4068, H-A:GLU:543:OE1:4907, V-B:GLU:543:CD:9880, V-B:GLU:543:CG:9879, V-A:GLU:543:CG:4905, H-B:TYR:484:OH:9320, V-A:GLU:543:CB:4904, V-B:HIS:456:CE1:9042, V-B:ILE:369:CB:8208, V-B:ILE:369:CG1:8210, V-B:GLY:544:C:9884, V-A:GLU:543:C:4900, V-B:GLU:543:C:9874, V-B:TYR:531:CE1:9764, V-B:ARG:545:CG:9894, V-B:GLY:454:CA:9021, V-B:GLY:453:C:9014, V-B:GLY:453:CA:9016"]

$$$$
4cd_Grossjean_2025
     RDKit          3D

 43 46  0  0  0  0  0  0  0  0999 V2000
  129.4680  120.4840   75.2260 N   0  0  0  0  0  0  0  0  0  0  0  0
  128.7870  120.5440   74.0370 C   0  0  0  0  0  0  0  0  0  0  0  0
  128.9250  121.6000   73.1220 C   0  0  0  0  0  0  0  0  0  0  0  0
  129.7560  122.8030   73.2350 C   0  0  0  0  0  0  0  0  0  0  0  0
  129.4040  123.8610   72.7130 O   0  0  0  0  0  0  0  0  0  0  0  0
  130.9000  122.6540   73.9470 N   0  0  0  0  0  0  0  0  0  0  0  0
  131.9280  123.5820   74.1980 C   0  0  0  0  0  0  0  0  0  0  0  0
  131.6960  124.8860   73.7530 C   0  0  0  0  0  0  0  0  0  0  0  0
  132.6470  125.8800   73.9660 C   0  0  0  0  0  0  0  0  0  0  0  0
  133.8310  125.5710   74.6310 C   0  0  0  0  0  0  0  0  0  0  0  0
  134.0690  124.2790   75.0910 C   0  0  0  0  0  0  0  0  0  0  0  0
  133.1190  123.2820   74.8800 C   0  0  0  0  0  0  0  0  0  0  0  0
  127.9140  121.3480   71.7010 S   0  0  0  0  0  0  0  0  0  0  0  0
  127.3090  119.8400   72.3430 C   0  0  0  0  0  0  0  0  0  0  0  0
  126.4240  119.1050   71.6740 N   0  0  0  0  0  0  0  0  0  0  0  0
  126.0010  117.9550   72.2600 C   0  0  0  0  0  0  0  0  0  0  0  0
  125.0020  117.1490   71.4830 C   0  0  0  0  0  0  0  0  0  0  0  0
  125.4090  116.0430   70.7180 C   0  0  0  0  0  0  0  0  0  0  0  0
  124.4860  115.2910   69.9950 C   0  0  0  0  0  0  0  0  0  0  0  0
  123.1390  115.6350   70.0280 C   0  0  0  0  0  0  0  0  0  0  0  0
  122.7090  116.7220   70.7800 C   0  0  0  0  0  0  0  0  0  0  0  0
  123.6330  117.4700   71.5030 C   0  0  0  0  0  0  0  0  0  0  0  0
  126.4840  117.5390   73.5050 C   0  0  0  0  0  0  0  0  0  0  0  0
  127.4210  118.3050   74.2170 C   0  0  0  0  0  0  0  0  0  0  0  0
  127.9050  117.7920   75.5790 C   0  0  0  0  0  0  0  0  0  0  0  0
  127.7000  118.6630   76.5700 F   0  0  0  0  0  0  0  0  0  0  0  0
  127.2580  116.6690   75.8940 F   0  0  0  0  0  0  0  0  0  0  0  0
  129.2140  117.5460   75.5280 F   0  0  0  0  0  0  0  0  0  0  0  0
  127.8610  119.5190   73.6180 C   0  0  0  0  0  0  0  0  0  0  0  0
  129.0180  120.6790   76.1090 H   0  0  0  0  0  0  0  0  0  0  0  0
  130.4480  120.2400   75.2590 H   0  0  0  0  0  0  0  0  0  0  0  0
  131.0410  121.7520   74.3780 H   0  0  0  0  0  0  0  0  0  0  0  0
  130.7579  125.1282   73.2321 H   0  0  0  0  0  0  0  0  0  0  0  0
  132.4641  126.9048   73.6107 H   0  0  0  0  0  0  0  0  0  0  0  0
  134.5850  126.3551   74.7942 H   0  0  0  0  0  0  0  0  0  0  0  0
  135.0049  124.0457   75.6198 H   0  0  0  0  0  0  0  0  0  0  0  0
  133.3013  122.2612   75.2470 H   0  0  0  0  0  0  0  0  0  0  0  0
  126.4733  115.7666   70.6896 H   0  0  0  0  0  0  0  0  0  0  0  0
  124.8212  114.4285   69.4003 H   0  0  0  0  0  0  0  0  0  0  0  0
  122.4095  115.0433   69.4556 H   0  0  0  0  0  0  0  0  0  0  0  0
  121.6424  116.9899   70.8035 H   0  0  0  0  0  0  0  0  0  0  0  0
  123.2869  118.3266   72.1001 H   0  0  0  0  0  0  0  0  0  0  0  0
  126.1227  116.5931   73.9348 H   0  0  0  0  0  0  0  0  0  0  0  0
  1  2  1  0
  2  3  2  0
  3  4  1  0
  4  5  2  0
  4  6  1  0
  6  7  1  0
  7  8  2  0
  8  9  1  0
  9 10  2  0
 10 11  1  0
 11 12  2  0
  3 13  1  0
 13 14  1  0
 14 15  2  0
 15 16  1  0
 16 17  1  0
 17 18  2  0
 18 19  1  0
 19 20  2  0
 20 21  1  0
 21 22  2  0
 16 23  2  0
 23 24  1  0
 24 25  1  0
 25 26  1  0
 25 27  1  0
 25 28  1  0
 24 29  2  0
 29  2  1  0
 12  7  1  0
 29 14  1  0
 22 17  1  0
  1 30  1  0
  1 31  1  0
  6 32  1  0
  8 33  1  0
  9 34  1  0
 10 35  1  0
 11 36  1  0
 12 37  1  0
 18 38  1  0
 19 39  1  0
 20 40  1  0
 21 41  1  0
 22 42  1  0
 23 43  1  0
M  END
>  <Binding energies>  (1) 
[-6.74]

>  <Ligand effiencies>  (1) 
[-0.210625]

>  <Interactions>  (1) 
["V-B:LYS:547:CE:9922, V-A:HIS:456:CD2:4066, V-B:GLU:543:C:9874, V-A:HIS:456:CG:4064, H-B:LYS:547:NZ:9923, V-B:GLY:544:CA:9886, V-B:GLU:543:CA:9876, V-A:TYR:484:CB:4339, V-A:ASP:473:CG:4238, V-A:HIS:456:C:4059, V-A:LYS:471:CD:4217, V-A:HIS:456:CB:4063, V-A:VAL:458:CG2:4085, V-A:LYS:471:CE:4218, V-B:ARG:356:CD:8091, V-A:VAL:457:C:4071, V-B:VAL:542:CG1:9871, V-A:HIS:456:CA:4061, H-A:ASP:473:OD2:4240, H-A:ASP:473:OD1:4239, V-A:SER:483:CB:4331"]

$$$$
4ce_Grossjean_2025
     RDKit          3D

 45 48  0  0  0  0  0  0  0  0999 V2000
  131.8310  127.0040   74.1070 C   0  0  0  0  0  0  0  0  0  0  0  0
  132.2120  125.5520   74.3250 C   0  0  0  0  0  0  0  0  0  0  0  0
  133.4510  125.1950   74.8610 C   0  0  0  0  0  0  0  0  0  0  0  0
  133.7310  123.8390   75.0410 C   0  0  0  0  0  0  0  0  0  0  0  0
  132.7750  122.8850   74.6860 C   0  0  0  0  0  0  0  0  0  0  0  0
  131.5550  123.3120   74.1480 C   0  0  0  0  0  0  0  0  0  0  0  0
  130.6250  122.3050   73.8330 N   0  0  0  0  0  0  0  0  0  0  0  0
  129.4810  122.4030   73.1100 C   0  0  0  0  0  0  0  0  0  0  0  0
  129.0890  123.4470   72.5860 O   0  0  0  0  0  0  0  0  0  0  0  0
  128.7130  121.1630   72.9770 C   0  0  0  0  0  0  0  0  0  0  0  0
  127.4740  121.0170   71.7330 S   0  0  0  0  0  0  0  0  0  0  0  0
  127.1270  119.3720   72.2090 C   0  0  0  0  0  0  0  0  0  0  0  0
  126.2000  118.6500   71.5840 N   0  0  0  0  0  0  0  0  0  0  0  0
  126.0120  117.3740   72.0150 C   0  0  0  0  0  0  0  0  0  0  0  0
  124.9640  116.5860   71.2870 C   0  0  0  0  0  0  0  0  0  0  0  0
  125.3070  115.4260   70.5740 C   0  0  0  0  0  0  0  0  0  0  0  0
  124.3410  114.6920   69.8890 C   0  0  0  0  0  0  0  0  0  0  0  0
  123.0150  115.1090   69.9110 C   0  0  0  0  0  0  0  0  0  0  0  0
  122.6480  116.2550   70.6090 C   0  0  0  0  0  0  0  0  0  0  0  0
  123.6180  116.9870   71.2900 C   0  0  0  0  0  0  0  0  0  0  0  0
  126.7390  116.8390   73.0830 C   0  0  0  0  0  0  0  0  0  0  0  0
  127.7150  117.5950   73.7520 C   0  0  0  0  0  0  0  0  0  0  0  0
  128.4770  116.9460   74.9130 C   0  0  0  0  0  0  0  0  0  0  0  0
  129.8000  116.9480   74.7390 F   0  0  0  0  0  0  0  0  0  0  0  0
  128.2220  117.6050   76.0440 F   0  0  0  0  0  0  0  0  0  0  0  0
  128.0940  115.6760   75.0490 F   0  0  0  0  0  0  0  0  0  0  0  0
  127.9320  118.9280   73.2990 C   0  0  0  0  0  0  0  0  0  0  0  0
  128.8300  119.9760   73.7190 C   0  0  0  0  0  0  0  0  0  0  0  0
  129.7190  119.8210   74.7520 N   0  0  0  0  0  0  0  0  0  0  0  0
  131.2730  124.6360   73.9740 N   0  0  0  0  0  0  0  0  0  0  0  0
  131.7011  127.4991   75.0806 H   0  0  0  0  0  0  0  0  0  0  0  0
  132.6266  127.5109   73.5411 H   0  0  0  0  0  0  0  0  0  0  0  0
  130.8891  127.0549   73.5411 H   0  0  0  0  0  0  0  0  0  0  0  0
  134.1887  125.9636   75.1349 H   0  0  0  0  0  0  0  0  0  0  0  0
  134.6983  123.5243   75.4597 H   0  0  0  0  0  0  0  0  0  0  0  0
  132.9776  121.8131   74.8271 H   0  0  0  0  0  0  0  0  0  0  0  0
  130.8720  121.3840   74.1630 H   0  0  0  0  0  0  0  0  0  0  0  0
  126.3548  115.0915   70.5560 H   0  0  0  0  0  0  0  0  0  0  0  0
  124.6262  113.7866   69.3333 H   0  0  0  0  0  0  0  0  0  0  0  0
  122.2509  114.5289   69.3729 H   0  0  0  0  0  0  0  0  0  0  0  0
  121.5976  116.5814   70.6231 H   0  0  0  0  0  0  0  0  0  0  0  0
  123.3250  117.8940   71.8391 H   0  0  0  0  0  0  0  0  0  0  0  0
  126.5425  115.8058   73.4053 H   0  0  0  0  0  0  0  0  0  0  0  0
  130.1030  120.6120   75.2500 H   0  0  0  0  0  0  0  0  0  0  0  0
  130.0240  118.9050   75.0500 H   0  0  0  0  0  0  0  0  0  0  0  0
  1  2  1  0
  2  3  2  0
  3  4  1  0
  4  5  2  0
  5  6  1  0
  6  7  1  0
  7  8  1  0
  8  9  2  0
  8 10  1  0
 10 11  1  0
 11 12  1  0
 12 13  2  0
 13 14  1  0
 14 15  1  0
 15 16  2  0
 16 17  1  0
 17 18  2  0
 18 19  1  0
 19 20  2  0
 14 21  2  0
 21 22  1  0
 22 23  1  0
 23 24  1  0
 23 25  1  0
 23 26  1  0
 22 27  2  0
 27 28  1  0
 28 29  1  0
  6 30  2  0
 30  2  1  0
 28 10  2  0
 27 12  1  0
 20 15  1  0
  1 31  1  0
  1 32  1  0
  1 33  1  0
  3 34  1  0
  4 35  1  0
  5 36  1  0
  7 37  1  0
 16 38  1  0
 17 39  1  0
 18 40  1  0
 19 41  1  0
 20 42  1  0
 21 43  1  0
 29 44  1  0
 29 45  1  0
M  END
>  <Binding energies>  (1) 
[-7.0]

>  <Ligand effiencies>  (1) 
[-0.21212121212121213]

>  <Interactions>  (1) 
["V-A:LYS:547:CE:4948, V-B:LYS:547:CE:9922, V-A:HIS:456:CD2:4066, V-B:GLU:543:C:9874, V-A:HIS:456:CG:4064, H-B:LYS:547:NZ:9923, V-B:GLY:544:CA:9886, V-A:TYR:484:CB:4339, V-A:ASP:473:CG:4238, V-A:HIS:456:C:4059, V-A:LYS:471:CD:4217, V-A:HIS:456:CB:4063, V-A:VAL:458:CG2:4085, V-A:LYS:471:CE:4218, V-A:LYS:547:CD:4947, V-B:ARG:356:CD:8091, V-B:VAL:542:CG1:9871, V-A:LYS:547:CG:4946, V-A:LYS:471:CG:4216, V-A:ASP:473:CB:4237, H-A:ASP:473:OD2:4240, V-A:TYR:484:C:4335, V-A:SER:483:CB:4331, V-A:PRO:486:CD:4364, H-A:TYR:484:O:4336, V-A:ASP:485:CA:4351"]

$$$$
4cf_Grossjean_2025
     RDKit          3D

 42 45  0  0  0  0  0  0  0  0999 V2000
  126.0530  132.7310   63.8020 N   0  0  0  0  0  0  0  0  0  0  0  0
  126.6270  131.7520   63.0300 C   0  0  0  0  0  0  0  0  0  0  0  0
  126.8110  130.4320   63.4730 C   0  0  0  0  0  0  0  0  0  0  0  0
  126.4890  129.8540   64.7810 C   0  0  0  0  0  0  0  0  0  0  0  0
  125.3790  130.0270   65.2860 O   0  0  0  0  0  0  0  0  0  0  0  0
  127.4790  129.1300   65.3550 N   0  0  0  0  0  0  0  0  0  0  0  0
  127.5140  128.4920   66.6100 C   0  0  0  0  0  0  0  0  0  0  0  0
  126.4690  127.7320   67.1690 C   0  0  0  0  0  0  0  0  0  0  0  0
  126.6290  127.1640   68.4350 C   0  0  0  0  0  0  0  0  0  0  0  0
  127.8310  127.3690   69.1130 C   0  0  0  0  0  0  0  0  0  0  0  0
  128.8510  128.1020   68.5990 N   0  0  0  0  0  0  0  0  0  0  0  0
  128.6790  128.6500   67.3680 C   0  0  0  0  0  0  0  0  0  0  0  0
  127.5700  129.4440   62.2270 S   0  0  0  0  0  0  0  0  0  0  0  0
  127.6420  130.8020   61.1300 C   0  0  0  0  0  0  0  0  0  0  0  0
  128.1660  130.6840   59.9110 N   0  0  0  0  0  0  0  0  0  0  0  0
  128.1920  131.8010   59.1370 C   0  0  0  0  0  0  0  0  0  0  0  0
  128.7950  131.6390   57.7720 C   0  0  0  0  0  0  0  0  0  0  0  0
  130.1420  131.9590   57.5390 C   0  0  0  0  0  0  0  0  0  0  0  0
  130.7090  131.8120   56.2760 C   0  0  0  0  0  0  0  0  0  0  0  0
  129.9330  131.3370   55.2240 C   0  0  0  0  0  0  0  0  0  0  0  0
  128.5970  131.0090   55.4260 C   0  0  0  0  0  0  0  0  0  0  0  0
  128.0350  131.1580   56.6910 C   0  0  0  0  0  0  0  0  0  0  0  0
  127.6720  133.0200   59.5790 C   0  0  0  0  0  0  0  0  0  0  0  0
  127.1140  133.1540   60.8600 C   0  0  0  0  0  0  0  0  0  0  0  0
  126.5660  134.5220   61.2830 C   0  0  0  0  0  0  0  0  0  0  0  0
  126.8130  135.4840   60.3900 F   0  0  0  0  0  0  0  0  0  0  0  0
  125.2440  134.4510   61.4370 F   0  0  0  0  0  0  0  0  0  0  0  0
  127.1240  134.8960   62.4340 F   0  0  0  0  0  0  0  0  0  0  0  0
  127.0970  131.9950   61.6880 C   0  0  0  0  0  0  0  0  0  0  0  0
  125.9850  133.6880   63.4860 H   0  0  0  0  0  0  0  0  0  0  0  0
  125.6760  132.5250   64.7170 H   0  0  0  0  0  0  0  0  0  0  0  0
  128.3230  129.0210   64.8110 H   0  0  0  0  0  0  0  0  0  0  0  0
  125.5318  127.5863   66.6119 H   0  0  0  0  0  0  0  0  0  0  0  0
  125.8237  126.5672   68.8882 H   0  0  0  0  0  0  0  0  0  0  0  0
  127.9575  126.9167   70.1077 H   0  0  0  0  0  0  0  0  0  0  0  0
  129.4987  129.2494   66.9451 H   0  0  0  0  0  0  0  0  0  0  0  0
  130.7601  132.3324   58.3688 H   0  0  0  0  0  0  0  0  0  0  0  0
  131.7654  132.0702   56.1109 H   0  0  0  0  0  0  0  0  0  0  0  0
  130.3793  131.2200   54.2254 H   0  0  0  0  0  0  0  0  0  0  0  0
  127.9874  130.6338   54.5908 H   0  0  0  0  0  0  0  0  0  0  0  0
  126.9784  130.8950   56.8476 H   0  0  0  0  0  0  0  0  0  0  0  0
  127.7004  133.8924   58.9096 H   0  0  0  0  0  0  0  0  0  0  0  0
  1  2  1  0
  2  3  2  0
  3  4  1  0
  4  5  2  0
  4  6  1  0
  6  7  1  0
  7  8  2  0
  8  9  1  0
  9 10  2  0
 10 11  1  0
 11 12  2  0
  3 13  1  0
 13 14  1  0
 14 15  2  0
 15 16  1  0
 16 17  1  0
 17 18  2  0
 18 19  1  0
 19 20  2  0
 20 21  1  0
 21 22  2  0
 16 23  2  0
 23 24  1  0
 24 25  1  0
 25 26  1  0
 25 27  1  0
 25 28  1  0
 24 29  2  0
 29  2  1  0
 12  7  1  0
 29 14  1  0
 22 17  1  0
  1 30  1  0
  1 31  1  0
  6 32  1  0
  8 33  1  0
  9 34  1  0
 10 35  1  0
 12 36  1  0
 18 37  1  0
 19 38  1  0
 20 39  1  0
 21 40  1  0
 22 41  1  0
 23 42  1  0
M  END
>  <Binding energies>  (1) 
[-6.39]

>  <Ligand effiencies>  (1) 
[-0.1996875]

>  <Interactions>  (1) 
["V-A:PRO:540:N:4882, V-A:TYR:539:CD2:4872, V-B:LEU:475:CD2:9231, V-A:TYR:539:CE2:4874, V-A:TYR:539:CZ:4875, V-B:TRP:381:CH2:8344, H-B:GLU:543:OE2:9882, V-A:PRO:540:CA:4881, H-A:GLU:543:OE2:4908, V-B:TRP:381:CZ2:8342, V-A:ALA:541:CB:4890, V-A:GLU:543:CD:4906, H-A:GLU:543:OE1:4907, V-B:GLU:543:CD:9880, V-B:GLU:543:CG:9879, H-B:ARG:545:NE:9896, V-A:GLU:543:CG:4905, V-A:TYR:539:C:4865, V-A:TYR:539:CG:4870, V-A:TYR:539:CE1:4873, H-B:TYR:484:OH:9320, V-A:GLU:543:CB:4904, V-B:HIS:456:CE1:9042, V-B:GLY:544:C:9884, V-A:GLU:543:C:4900, V-B:GLU:543:C:9874, V-B:ARG:545:CG:9894, V-B:ARG:545:CD:9895, V-B:TYR:484:CZ:9319, V-B:PRO:482:CB:9298, V-B:ARG:545:CB:9893, V-B:TRP:381:CZ3:8343, V-B:LEU:475:CD1:9230, V-B:LEU:475:CG:9229, V-B:ARG:545:CA:9891"]

$$$$
4cg_Grossjean_2025
     RDKit          3D

 46 49  0  0  0  0  0  0  0  0999 V2000
  125.8400  132.6000   63.7710 N   0  0  0  0  0  0  0  0  0  0  0  0
  126.5660  131.6540   63.0930 C   0  0  0  0  0  0  0  0  0  0  0  0
  126.7390  130.3420   63.5570 C   0  0  0  0  0  0  0  0  0  0  0  0
  126.1820  129.7170   64.7560 C   0  0  0  0  0  0  0  0  0  0  0  0
  125.0320  129.9580   65.1310 O   0  0  0  0  0  0  0  0  0  0  0  0
  127.0130  128.9020   65.4380 N   0  0  0  0  0  0  0  0  0  0  0  0
  126.6650  128.1570   66.6470 C   0  0  0  0  0  0  0  0  0  0  0  0
  127.8650  127.8480   67.5350 C   0  0  0  0  0  0  0  0  0  0  0  0
  127.6810  127.6530   68.9070 C   0  0  0  0  0  0  0  0  0  0  0  0
  128.7700  127.3400   69.7170 C   0  0  0  0  0  0  0  0  0  0  0  0
  130.0370  127.2140   69.1510 C   0  0  0  0  0  0  0  0  0  0  0  0
  130.2240  127.3910   67.7820 C   0  0  0  0  0  0  0  0  0  0  0  0
  129.1350  127.7020   66.9710 C   0  0  0  0  0  0  0  0  0  0  0  0
  127.7050  129.3870   62.4350 S   0  0  0  0  0  0  0  0  0  0  0  0
  127.8900  130.7570   61.3650 C   0  0  0  0  0  0  0  0  0  0  0  0
  128.5860  130.6660   60.2350 N   0  0  0  0  0  0  0  0  0  0  0  0
  128.6720  131.7810   59.4640 C   0  0  0  0  0  0  0  0  0  0  0  0
  129.4660  131.6450   58.1960 C   0  0  0  0  0  0  0  0  0  0  0  0
  130.7920  131.1830   58.2210 C   0  0  0  0  0  0  0  0  0  0  0  0
  131.5320  131.0570   57.0490 C   0  0  0  0  0  0  0  0  0  0  0  0
  130.9550  131.3940   55.8290 C   0  0  0  0  0  0  0  0  0  0  0  0
  129.6450  131.8570   55.7750 C   0  0  0  0  0  0  0  0  0  0  0  0
  128.9090  131.9820   56.9490 C   0  0  0  0  0  0  0  0  0  0  0  0
  128.0730  132.9880   59.8430 C   0  0  0  0  0  0  0  0  0  0  0  0
  127.3380  133.0960   61.0340 C   0  0  0  0  0  0  0  0  0  0  0  0
  126.7090  134.4480   61.3890 C   0  0  0  0  0  0  0  0  0  0  0  0
  127.0280  135.4160   60.5280 F   0  0  0  0  0  0  0  0  0  0  0  0
  125.3800  134.3400   61.3940 F   0  0  0  0  0  0  0  0  0  0  0  0
  127.1230  134.8350   62.5940 F   0  0  0  0  0  0  0  0  0  0  0  0
  127.2290  131.9270   61.8420 C   0  0  0  0  0  0  0  0  0  0  0  0
  125.7510  133.5490   63.4350 H   0  0  0  0  0  0  0  0  0  0  0  0
  125.3610  132.3760   64.6330 H   0  0  0  0  0  0  0  0  0  0  0  0
  127.9130  128.6940   65.0330 H   0  0  0  0  0  0  0  0  0  0  0  0
  125.9454  128.7523   67.2282 H   0  0  0  0  0  0  0  0  0  0  0  0
  126.2435  127.1935   66.3243 H   0  0  0  0  0  0  0  0  0  0  0  0
  126.6770  127.7467   69.3465 H   0  0  0  0  0  0  0  0  0  0  0  0
  128.6305  127.1930   70.7982 H   0  0  0  0  0  0  0  0  0  0  0  0
  130.8980  126.9724   69.7915 H   0  0  0  0  0  0  0  0  0  0  0  0
  131.2272  127.2856   67.3433 H   0  0  0  0  0  0  0  0  0  0  0  0
  129.2747  127.8325   65.8877 H   0  0  0  0  0  0  0  0  0  0  0  0
  131.2536  130.9162   59.1832 H   0  0  0  0  0  0  0  0  0  0  0  0
  132.5691  130.6923   57.0873 H   0  0  0  0  0  0  0  0  0  0  0  0
  131.5383  131.2937   54.9018 H   0  0  0  0  0  0  0  0  0  0  0  0
  129.1926  132.1233   54.8083 H   0  0  0  0  0  0  0  0  0  0  0  0
  127.8737  132.3507   56.9013 H   0  0  0  0  0  0  0  0  0  0  0  0
  128.1804  133.8699   59.1943 H   0  0  0  0  0  0  0  0  0  0  0  0
  1  2  1  0
  2  3  2  0
  3  4  1  0
  4  5  2  0
  4  6  1  0
  6  7  1  0
  7  8  1  0
  8  9  2  0
  9 10  1  0
 10 11  2  0
 11 12  1  0
 12 13  2  0
  3 14  1  0
 14 15  1  0
 15 16  2  0
 16 17  1  0
 17 18  1  0
 18 19  2  0
 19 20  1  0
 20 21  2  0
 21 22  1  0
 22 23  2  0
 17 24  2  0
 24 25  1  0
 25 26  1  0
 26 27  1  0
 26 28  1  0
 26 29  1  0
 25 30  2  0
 30  2  1  0
 13  8  1  0
 30 15  1  0
 23 18  1  0
  1 31  1  0
  1 32  1  0
  6 33  1  0
  7 34  1  0
  7 35  1  0
  9 36  1  0
 10 37  1  0
 11 38  1  0
 12 39  1  0
 13 40  1  0
 19 41  1  0
 20 42  1  0
 21 43  1  0
 22 44  1  0
 23 45  1  0
 24 46  1  0
M  END
>  <Binding energies>  (1) 
[-8.11]

>  <Ligand effiencies>  (1) 
[-0.24575757575757573]

>  <Interactions>  (1) 
["V-A:TYR:539:CD2:4872, V-B:LEU:475:CD2:9231, V-A:TYR:539:CE2:4874, V-A:TYR:539:CZ:4875, V-B:TRP:381:CH2:8344, H-B:GLU:543:OE2:9882, V-A:PRO:540:CA:4881, H-A:GLU:543:OE2:4908, V-B:TRP:381:CZ2:8342, V-A:ALA:541:CB:4890, V-A:GLU:543:CD:4906, V-A:HIS:456:CE1:4068, H-A:GLU:543:OE1:4907, V-B:GLU:543:CD:9880, V-B:GLU:543:CG:9879, H-B:ARG:545:NE:9896, V-A:GLU:543:CG:4905, V-A:TYR:539:C:4865, V-A:TYR:539:CG:4870, V-A:TYR:539:CE1:4873, H-B:TYR:484:OH:9320, V-A:GLU:543:CB:4904, V-A:TYR:539:CD1:4871, V-B:HIS:456:CE1:9042, V-B:ARG:545:CG:9894, V-B:ARG:545:CD:9895, V-B:TYR:484:CZ:9319, V-B:PRO:482:CB:9298, V-B:TRP:381:CZ3:8343, V-B:LEU:475:CD1:9230, V-B:LEU:475:CG:9229"]

$$$$
4ch_Grossjean_2025
     RDKit          3D

 58 61  0  0  0  0  0  0  0  0999 V2000
  131.6220  126.6100   66.2640 C   0  0  0  0  0  0  0  0  0  0  0  0
  131.3610  127.3500   67.4530 O   0  0  0  0  0  0  0  0  0  0  0  0
  130.0580  127.4840   67.8960 C   0  0  0  0  0  0  0  0  0  0  0  0
  128.9600  127.7020   67.0480 C   0  0  0  0  0  0  0  0  0  0  0  0
  127.6700  127.8260   67.5650 C   0  0  0  0  0  0  0  0  0  0  0  0
  126.4940  128.0900   66.6320 C   0  0  0  0  0  0  0  0  0  0  0  0
  126.8450  128.8300   65.4190 N   0  0  0  0  0  0  0  0  0  0  0  0
  126.0660  129.7460   64.8060 C   0  0  0  0  0  0  0  0  0  0  0  0
  124.9600  130.0740   65.2420 O   0  0  0  0  0  0  0  0  0  0  0  0
  126.6250  130.3620   63.6030 C   0  0  0  0  0  0  0  0  0  0  0  0
  127.6240  129.4120   62.5070 S   0  0  0  0  0  0  0  0  0  0  0  0
  127.8230  130.7770   61.4350 C   0  0  0  0  0  0  0  0  0  0  0  0
  128.5490  130.6870   60.3240 N   0  0  0  0  0  0  0  0  0  0  0  0
  128.6430  131.8000   59.5500 C   0  0  0  0  0  0  0  0  0  0  0  0
  129.4740  131.6670   58.3060 C   0  0  0  0  0  0  0  0  0  0  0  0
  128.9440  131.9980   57.0480 C   0  0  0  0  0  0  0  0  0  0  0  0
  129.7100  131.8760   55.8910 C   0  0  0  0  0  0  0  0  0  0  0  0
  131.0200  131.4200   55.9760 C   0  0  0  0  0  0  0  0  0  0  0  0
  131.5690  131.0810   57.2080 C   0  0  0  0  0  0  0  0  0  0  0  0
  130.7990  131.2030   58.3620 C   0  0  0  0  0  0  0  0  0  0  0  0
  128.0200  133.0010   59.9040 C   0  0  0  0  0  0  0  0  0  0  0  0
  127.2530  133.1080   61.0750 C   0  0  0  0  0  0  0  0  0  0  0  0
  126.5980  134.4530   61.4050 C   0  0  0  0  0  0  0  0  0  0  0  0
  127.1090  135.0320   62.4940 F   0  0  0  0  0  0  0  0  0  0  0  0
  126.7660  135.2980   60.3880 F   0  0  0  0  0  0  0  0  0  0  0  0
  125.2940  134.2800   61.6200 F   0  0  0  0  0  0  0  0  0  0  0  0
  127.1380  131.9430   61.8880 C   0  0  0  0  0  0  0  0  0  0  0  0
  126.4510  131.6710   63.1270 C   0  0  0  0  0  0  0  0  0  0  0  0
  125.7020  132.6140   63.7840 N   0  0  0  0  0  0  0  0  0  0  0  0
  127.4710  127.7510   68.9440 C   0  0  0  0  0  0  0  0  0  0  0  0
  128.5510  127.5350   69.8160 C   0  0  0  0  0  0  0  0  0  0  0  0
  128.4270  127.4480   71.1910 O   0  0  0  0  0  0  0  0  0  0  0  0
  127.4750  128.2680   71.8600 C   0  0  0  0  0  0  0  0  0  0  0  0
  129.8390  127.3970   69.2780 C   0  0  0  0  0  0  0  0  0  0  0  0
  130.9060  127.2010   70.1200 O   0  0  0  0  0  0  0  0  0  0  0  0
  130.6230  126.3530   71.2250 C   0  0  0  0  0  0  0  0  0  0  0  0
  131.9771  125.6032   66.5292 H   0  0  0  0  0  0  0  0  0  0  0  0
  130.6982  126.5289   65.6723 H   0  0  0  0  0  0  0  0  0  0  0  0
  132.3922  127.1264   65.6723 H   0  0  0  0  0  0  0  0  0  0  0  0
  129.1190  127.7760   65.9621 H   0  0  0  0  0  0  0  0  0  0  0  0
  126.0662  127.1215   66.3336 H   0  0  0  0  0  0  0  0  0  0  0  0
  125.7824  128.7165   67.1898 H   0  0  0  0  0  0  0  0  0  0  0  0
  127.7150  128.5720   64.9770 H   0  0  0  0  0  0  0  0  0  0  0  0
  127.9076  132.3593   56.9754 H   0  0  0  0  0  0  0  0  0  0  0  0
  129.2796  132.1396   54.9136 H   0  0  0  0  0  0  0  0  0  0  0  0
  131.6265  131.3266   55.0631 H   0  0  0  0  0  0  0  0  0  0  0  0
  132.6057  130.7185   57.2706 H   0  0  0  0  0  0  0  0  0  0  0  0
  131.2358  130.9313   59.3343 H   0  0  0  0  0  0  0  0  0  0  0  0
  128.1332  133.8795   59.2518 H   0  0  0  0  0  0  0  0  0  0  0  0
  125.6050  133.5580   63.4360 H   0  0  0  0  0  0  0  0  0  0  0  0
  125.2150  132.3940   64.6420 H   0  0  0  0  0  0  0  0  0  0  0  0
  126.4561  127.8624   69.3533 H   0  0  0  0  0  0  0  0  0  0  0  0
  127.5991  128.1611   72.9477 H   0  0  0  0  0  0  0  0  0  0  0  0
  127.6313  129.3188   71.5746 H   0  0  0  0  0  0  0  0  0  0  0  0
  126.4590  127.9578   71.5746 H   0  0  0  0  0  0  0  0  0  0  0  0
  130.8052  126.8990   72.1624 H   0  0  0  0  0  0  0  0  0  0  0  0
  129.5704  126.0362   71.1839 H   0  0  0  0  0  0  0  0  0  0  0  0
  131.2743  125.4675   71.1839 H   0  0  0  0  0  0  0  0  0  0  0  0
  1  2  1  0
  2  3  1  0
  3  4  2  0
  4  5  1  0
  5  6  1  0
  6  7  1  0
  7  8  1  0
  8  9  2  0
  8 10  1  0
 10 11  1  0
 11 12  1  0
 12 13  2  0
 13 14  1  0
 14 15  1  0
 15 16  2  0
 16 17  1  0
 17 18  2  0
 18 19  1  0
 19 20  2  0
 14 21  2  0
 21 22  1  0
 22 23  1  0
 23 24  1  0
 23 25  1  0
 23 26  1  0
 22 27  2  0
 27 28  1  0
 28 29  1  0
  5 30  2  0
 30 31  1  0
 31 32  1  0
 32 33  1  0
 31 34  2  0
 34 35  1  0
 35 36  1  0
 34  3  1  0
 28 10  2  0
 27 12  1  0
 20 15  1  0
  1 37  1  0
  1 38  1  0
  1 39  1  0
  4 40  1  0
  6 41  1  0
  6 42  1  0
  7 43  1  0
 16 44  1  0
 17 45  1  0
 18 46  1  0
 19 47  1  0
 20 48  1  0
 21 49  1  0
 29 50  1  0
 29 51  1  0
 30 52  1  0
 33 53  1  0
 33 54  1  0
 33 55  1  0
 36 56  1  0
 36 57  1  0
 36 58  1  0
M  END
>  <Binding energies>  (1) 
[-7.27]

>  <Ligand effiencies>  (1) 
[-0.1864102564102564]

>  <Interactions>  (1) 
["V-A:PRO:540:N:4882, V-A:TYR:539:CD2:4872, V-B:LEU:475:CD2:9231, V-A:TYR:539:CE2:4874, V-A:TYR:539:CZ:4875, V-B:TRP:381:CH2:8344, H-B:GLU:543:OE2:9882, V-A:PRO:540:CA:4881, H-A:GLU:543:OE2:4908, V-B:TRP:381:CZ2:8342, V-A:ALA:541:CB:4890, V-A:GLU:543:CD:4906, V-A:HIS:456:CE1:4068, H-A:GLU:543:OE1:4907, V-B:GLU:543:CD:9880, V-B:ARG:545:CZ:9898, V-B:GLU:543:CG:9879, H-B:ARG:545:NE:9896, V-A:GLU:543:CG:4905, H-B:GLY:454:N:9022, V-A:TYR:539:C:4865, V-A:TYR:539:CG:4870, H-B:TYR:484:OH:9320, V-A:GLU:543:CB:4904, V-A:TYR:539:CD1:4871, V-B:HIS:456:CE1:9042, V-B:GLY:544:C:9884, V-B:HIS:456:CG:9038, V-A:GLY:544:C:4910, V-A:GLU:543:C:4900, V-A:HIS:456:CD2:4066, V-B:HIS:456:CD2:9040, V-A:HIS:456:CG:4064, V-B:ARG:545:CG:9894, V-B:ARG:545:CD:9895, V-A:ARG:545:CD:4921, V-A:ARG:545:CG:4920, V-B:TYR:484:CZ:9319, H-A:HIS:456:ND1:4065, V-B:GLY:454:CA:9021, V-B:PRO:482:CB:9298, H-A:ARG:545:N:4918, V-B:TRP:381:CZ3:8343, V-B:LEU:475:CD1:9230, V-B:LEU:475:CG:9229"]

$$$$
4ci_Grossjean_2025
     RDKit          3D

 39 42  0  0  0  0  0  0  0  0999 V2000
  124.8880  129.9940   58.8340 N   0  0  0  0  0  0  0  0  0  0  0  0
  126.0830  130.4340   59.3410 C   0  0  0  0  0  0  0  0  0  0  0  0
  126.2720  130.7590   60.6940 C   0  0  0  0  0  0  0  0  0  0  0  0
  125.3030  130.6940   61.7920 C   0  0  0  0  0  0  0  0  0  0  0  0
  124.1560  131.1230   61.6460 O   0  0  0  0  0  0  0  0  0  0  0  0
  125.7660  130.1530   62.9470 N   0  0  0  0  0  0  0  0  0  0  0  0
  125.0700  129.9740   64.1360 C   0  0  0  0  0  0  0  0  0  0  0  0
  125.6970  129.7530   65.3610 C   0  0  0  0  0  0  0  0  0  0  0  0
  124.6730  129.6270   66.2710 C   0  0  0  0  0  0  0  0  0  0  0  0
  123.4890  129.7660   65.6260 O   0  0  0  0  0  0  0  0  0  0  0  0
  123.7540  129.9850   64.2740 N   0  0  0  0  0  0  0  0  0  0  0  0
  127.9280  131.2770   61.0000 S   0  0  0  0  0  0  0  0  0  0  0  0
  128.3530  131.0640   59.3180 C   0  0  0  0  0  0  0  0  0  0  0  0
  129.5820  131.3160   58.8740 N   0  0  0  0  0  0  0  0  0  0  0  0
  129.8190  131.1180   57.5510 C   0  0  0  0  0  0  0  0  0  0  0  0
  131.2130  131.4160   57.0790 C   0  0  0  0  0  0  0  0  0  0  0  0
  132.3240  131.1410   57.8940 C   0  0  0  0  0  0  0  0  0  0  0  0
  133.6190  131.4140   57.4620 C   0  0  0  0  0  0  0  0  0  0  0  0
  133.8230  131.9710   56.2030 C   0  0  0  0  0  0  0  0  0  0  0  0
  132.7420  132.2580   55.3780 C   0  0  0  0  0  0  0  0  0  0  0  0
  131.4480  131.9840   55.8140 C   0  0  0  0  0  0  0  0  0  0  0  0
  128.8150  130.6840   56.6790 C   0  0  0  0  0  0  0  0  0  0  0  0
  127.5150  130.4140   57.1370 C   0  0  0  0  0  0  0  0  0  0  0  0
  126.4650  129.9400   56.1250 C   0  0  0  0  0  0  0  0  0  0  0  0
  125.2280  130.3370   56.4300 F   0  0  0  0  0  0  0  0  0  0  0  0
  126.7530  130.4260   54.9180 F   0  0  0  0  0  0  0  0  0  0  0  0
  126.4560  128.6080   56.0740 F   0  0  0  0  0  0  0  0  0  0  0  0
  127.2600  130.6070   58.5240 C   0  0  0  0  0  0  0  0  0  0  0  0
  124.0070  130.1990   59.2860 H   0  0  0  0  0  0  0  0  0  0  0  0
  124.8470  129.4530   57.9810 H   0  0  0  0  0  0  0  0  0  0  0  0
  126.7260  129.8430   62.9570 H   0  0  0  0  0  0  0  0  0  0  0  0
  126.7776  129.6924   65.5577 H   0  0  0  0  0  0  0  0  0  0  0  0
  124.7954  129.4431   67.3486 H   0  0  0  0  0  0  0  0  0  0  0  0
  132.1679  130.7024   58.8906 H   0  0  0  0  0  0  0  0  0  0  0  0
  134.4772  131.1905   58.1128 H   0  0  0  0  0  0  0  0  0  0  0  0
  134.8456  132.1853   55.8589 H   0  0  0  0  0  0  0  0  0  0  0  0
  132.9078  132.6999   54.3844 H   0  0  0  0  0  0  0  0  0  0  0  0
  130.5958  132.2156   55.1582 H   0  0  0  0  0  0  0  0  0  0  0  0
  129.0485  130.5514   55.6123 H   0  0  0  0  0  0  0  0  0  0  0  0
  1  2  1  0
  2  3  2  0
  3  4  1  0
  4  5  2  0
  4  6  1  0
  6  7  1  0
  7  8  1  0
  8  9  2  0
  9 10  1  0
 10 11  1  0
  3 12  1  0
 12 13  1  0
 13 14  2  0
 14 15  1  0
 15 16  1  0
 16 17  2  0
 17 18  1  0
 18 19  2  0
 19 20  1  0
 20 21  2  0
 15 22  2  0
 22 23  1  0
 23 24  1  0
 24 25  1  0
 24 26  1  0
 24 27  1  0
 23 28  2  0
 28  2  1  0
 11  7  2  0
 28 13  1  0
 21 16  1  0
  1 29  1  0
  1 30  1  0
  6 31  1  0
  8 32  1  0
  9 33  1  0
 17 34  1  0
 18 35  1  0
 19 36  1  0
 20 37  1  0
 21 38  1  0
 22 39  1  0
M  END
>  <Binding energies>  (1) 
[-7.16]

>  <Ligand effiencies>  (1) 
[-0.2309677419354839]

>  <Interactions>  (1) 
["V-A:ILE:538:CG2:4861, V-A:PRO:540:CD:4885, V-B:ASP:366:CG:8185, V-A:PRO:540:N:4882, H-B:ASP:366:OD2:8187, V-A:ILE:538:CB:4860, V-A:ILE:538:CA:4858, V-A:TYR:531:CZ:4792, V-A:TYR:539:CE2:4874, V-A:TYR:539:CZ:4875, V-A:PRO:540:CA:4881, H-B:ARG:545:NH2:9900, V-B:TYR:531:CZ:9766, H-A:GLU:543:OE1:4907, V-B:ARG:545:CZ:9898, H-B:ARG:545:NE:9896, H-B:GLY:454:N:9022, V-A:PRO:540:CB:4883, V-A:LEU:363:CD1:3187, V-A:TYR:539:CE1:4873, H-B:TYR:484:OH:9320, V-A:TYR:531:CE2:4791, V-B:HIS:456:CE1:9042, V-B:ASP:366:CB:8184, V-B:TYR:531:CE1:9764, V-B:ARG:545:CG:9894, V-B:ARG:545:CD:9895, V-B:TYR:484:CZ:9319, V-A:LEU:363:CB:3185, V-A:LEU:363:CA:3183, H-B:ASP:366:OD1:8186, V-A:PRO:540:CG:4884, H-B:ARG:545:NH1:9899, V-A:LEU:363:CG:3186"]

$$$$
4cj_Grossjean_2025
     RDKit          3D

 39 42  0  0  0  0  0  0  0  0999 V2000
  126.1460  132.6330   63.8790 N   0  0  0  0  0  0  0  0  0  0  0  0
  126.6680  131.6580   63.0670 C   0  0  0  0  0  0  0  0  0  0  0  0
  126.8340  130.3250   63.4760 C   0  0  0  0  0  0  0  0  0  0  0  0
  126.5030  129.7180   64.7670 C   0  0  0  0  0  0  0  0  0  0  0  0
  125.3830  129.8610   65.2630 O   0  0  0  0  0  0  0  0  0  0  0  0
  127.5040  129.0170   65.3550 N   0  0  0  0  0  0  0  0  0  0  0  0
  127.4520  128.3480   66.5710 C   0  0  0  0  0  0  0  0  0  0  0  0
  126.4220  127.7290   67.1070 N   0  0  0  0  0  0  0  0  0  0  0  0
  126.7310  127.1990   68.2750 C   0  0  0  0  0  0  0  0  0  0  0  0
  128.0400  127.3840   68.7080 C   0  0  0  0  0  0  0  0  0  0  0  0
  128.9070  128.3040   67.5140 S   0  0  0  0  0  0  0  0  0  0  0  0
  127.5170  129.3430   62.1820 S   0  0  0  0  0  0  0  0  0  0  0  0
  127.5770  130.7210   61.1080 C   0  0  0  0  0  0  0  0  0  0  0  0
  128.0350  130.6110   59.8640 N   0  0  0  0  0  0  0  0  0  0  0  0
  128.0360  131.7340   59.1000 C   0  0  0  0  0  0  0  0  0  0  0  0
  128.5470  131.5720   57.6970 C   0  0  0  0  0  0  0  0  0  0  0  0
  129.8340  132.0120   57.3460 C   0  0  0  0  0  0  0  0  0  0  0  0
  130.3120  131.8710   56.0460 C   0  0  0  0  0  0  0  0  0  0  0  0
  129.5050  131.2880   55.0730 C   0  0  0  0  0  0  0  0  0  0  0  0
  128.2270  130.8460   55.3940 C   0  0  0  0  0  0  0  0  0  0  0  0
  127.7540  130.9880   56.6950 C   0  0  0  0  0  0  0  0  0  0  0  0
  127.6010  132.9660   59.5980 C   0  0  0  0  0  0  0  0  0  0  0  0
  127.1170  133.0940   60.9100 C   0  0  0  0  0  0  0  0  0  0  0  0
  126.6520  134.4730   61.3900 C   0  0  0  0  0  0  0  0  0  0  0  0
  127.0490  135.4670   60.5930 F   0  0  0  0  0  0  0  0  0  0  0  0
  125.3210  134.5070   61.4380 F   0  0  0  0  0  0  0  0  0  0  0  0
  127.1420  134.7170   62.6060 F   0  0  0  0  0  0  0  0  0  0  0  0
  127.0940  131.9180   61.7130 C   0  0  0  0  0  0  0  0  0  0  0  0
  125.9010  133.5490   63.5260 H   0  0  0  0  0  0  0  0  0  0  0  0
  125.9820  132.4660   64.8620 H   0  0  0  0  0  0  0  0  0  0  0  0
  128.3890  128.9770   64.8700 H   0  0  0  0  0  0  0  0  0  0  0  0
  125.9947  126.6420   68.8730 H   0  0  0  0  0  0  0  0  0  0  0  0
  128.4591  127.0088   69.6533 H   0  0  0  0  0  0  0  0  0  0  0  0
  130.4746  132.4755   58.1107 H   0  0  0  0  0  0  0  0  0  0  0  0
  131.3233  132.2189   55.7888 H   0  0  0  0  0  0  0  0  0  0  0  0
  129.8806  131.1766   54.0451 H   0  0  0  0  0  0  0  0  0  0  0  0
  127.5919  130.3858   54.6227 H   0  0  0  0  0  0  0  0  0  0  0  0
  126.7415  130.6369   56.9432 H   0  0  0  0  0  0  0  0  0  0  0  0
  127.6387  133.8532   58.9487 H   0  0  0  0  0  0  0  0  0  0  0  0
  1  2  1  0
  2  3  2  0
  3  4  1  0
  4  5  2  0
  4  6  1  0
  6  7  1  0
  7  8  2  0
  8  9  1  0
  9 10  2  0
 10 11  1  0
  3 12  1  0
 12 13  1  0
 13 14  2  0
 14 15  1  0
 15 16  1  0
 16 17  2  0
 17 18  1  0
 18 19  2  0
 19 20  1  0
 20 21  2  0
 15 22  2  0
 22 23  1  0
 23 24  1  0
 24 25  1  0
 24 26  1  0
 24 27  1  0
 23 28  2  0
 28  2  1  0
 11  7  1  0
 28 13  1  0
 21 16  1  0
  1 29  1  0
  1 30  1  0
  6 31  1  0
  9 32  1  0
 10 33  1  0
 17 34  1  0
 18 35  1  0
 19 36  1  0
 20 37  1  0
 21 38  1  0
 22 39  1  0
M  END
>  <Binding energies>  (1) 
[-6.62]

>  <Ligand effiencies>  (1) 
[-0.2135483870967742]

>  <Interactions>  (1) 
["V-A:PRO:540:N:4882, V-A:TYR:539:CD2:4872, V-B:LEU:475:CD2:9231, V-A:TYR:539:CE2:4874, V-A:TYR:539:CZ:4875, V-B:TRP:381:CH2:8344, H-B:GLU:543:OE2:9882, V-A:PRO:540:CA:4881, H-A:GLU:543:OE2:4908, V-B:TRP:381:CZ2:8342, V-A:ALA:541:CB:4890, V-A:GLU:543:CD:4906, H-A:GLU:543:OE1:4907, V-B:GLU:543:CD:9880, V-B:GLU:543:CG:9879, H-B:ARG:545:NE:9896, V-A:GLU:543:CG:4905, V-A:TYR:539:C:4865, V-A:TYR:539:CE1:4873, H-B:TYR:484:OH:9320, V-A:GLU:543:CB:4904, V-B:HIS:456:CE1:9042, V-B:GLY:544:C:9884, V-A:GLU:543:C:4900, V-B:GLU:543:C:9874, V-B:ARG:545:CG:9894, V-B:TYR:484:CZ:9319, V-B:PRO:482:CB:9298, V-B:TYR:484:CE1:9317, V-B:TRP:381:CZ3:8343, V-B:LEU:475:CD1:9230, V-B:LEU:475:CG:9229, V-B:ARG:545:CA:9891"]

$$$$
4ck_Grossjean_2025
     RDKit          3D

 57 59  0  0  0  0  0  0  0  0999 V2000
  126.8690  128.5520   73.3470 C   0  0  0  0  0  0  0  0  0  0  0  0
  128.2360  128.9240   73.2580 O   0  0  0  0  0  0  0  0  0  0  0  0
  128.7770  128.7790   71.9530 C   0  0  0  0  0  0  0  0  0  0  0  0
  128.3660  127.4120   71.3890 C   0  0  0  0  0  0  0  0  0  0  0  0
  127.8620  127.5860   70.0720 O   0  0  0  0  0  0  0  0  0  0  0  0
  128.8760  127.6130   69.0760 C   0  0  0  0  0  0  0  0  0  0  0  0
  128.3230  127.0090   67.7790 C   0  0  0  0  0  0  0  0  0  0  0  0
  129.4050  126.4880   67.0190 O   0  0  0  0  0  0  0  0  0  0  0  0
  130.5910  127.2670   67.1000 C   0  0  0  0  0  0  0  0  0  0  0  0
  131.7100  126.5870   66.2960 C   0  0  0  0  0  0  0  0  0  0  0  0
  131.1970  125.9050   65.1070 N   0  0  0  0  0  0  0  0  0  0  0  0
  131.9160  125.1320   64.2680 C   0  0  0  0  0  0  0  0  0  0  0  0
  133.1120  124.8940   64.4430 O   0  0  0  0  0  0  0  0  0  0  0  0
  131.1860  124.5740   63.1290 C   0  0  0  0  0  0  0  0  0  0  0  0
  130.1260  125.6030   62.1690 S   0  0  0  0  0  0  0  0  0  0  0  0
  129.7470  124.2800   61.0910 C   0  0  0  0  0  0  0  0  0  0  0  0
  128.9210  124.4380   60.0610 N   0  0  0  0  0  0  0  0  0  0  0  0
  128.6860  123.3510   59.2790 C   0  0  0  0  0  0  0  0  0  0  0  0
  127.7640  123.5680   58.1140 C   0  0  0  0  0  0  0  0  0  0  0  0
  126.4360  123.9810   58.3140 C   0  0  0  0  0  0  0  0  0  0  0  0
  125.5750  124.1810   57.2380 C   0  0  0  0  0  0  0  0  0  0  0  0
  126.0310  123.9700   55.9410 C   0  0  0  0  0  0  0  0  0  0  0  0
  127.3420  123.5660   55.7140 C   0  0  0  0  0  0  0  0  0  0  0  0
  128.2000  123.3680   56.7920 C   0  0  0  0  0  0  0  0  0  0  0  0
  129.2890  122.1150   59.5310 C   0  0  0  0  0  0  0  0  0  0  0  0
  130.1620  121.9370   60.6160 C   0  0  0  0  0  0  0  0  0  0  0  0
  130.7850  120.5530   60.8360 C   0  0  0  0  0  0  0  0  0  0  0  0
  130.4230  119.6620   59.9120 F   0  0  0  0  0  0  0  0  0  0  0  0
  132.1140  120.6470   60.8020 F   0  0  0  0  0  0  0  0  0  0  0  0
  130.4090  120.0740   62.0220 F   0  0  0  0  0  0  0  0  0  0  0  0
  130.4130  123.0690   61.4440 C   0  0  0  0  0  0  0  0  0  0  0  0
  131.2370  123.2700   62.6110 C   0  0  0  0  0  0  0  0  0  0  0  0
  131.9970  122.2730   63.1660 N   0  0  0  0  0  0  0  0  0  0  0  0
  126.5786  128.4730   74.4050 H   0  0  0  0  0  0  0  0  0  0  0  0
  126.2487  129.3140   72.8525 H   0  0  0  0  0  0  0  0  0  0  0  0
  126.7204  127.5807   72.8525 H   0  0  0  0  0  0  0  0  0  0  0  0
  128.3899  129.5774   71.3028 H   0  0  0  0  0  0  0  0  0  0  0  0
  129.8740  128.8478   71.9964 H   0  0  0  0  0  0  0  0  0  0  0  0
  129.2408  126.7456   71.3638 H   0  0  0  0  0  0  0  0  0  0  0  0
  127.5895  126.9655   72.0275 H   0  0  0  0  0  0  0  0  0  0  0  0
  129.1866  128.6526   68.8949 H   0  0  0  0  0  0  0  0  0  0  0  0
  129.7442  127.0291   69.4156 H   0  0  0  0  0  0  0  0  0  0  0  0
  127.6168  126.2006   68.0193 H   0  0  0  0  0  0  0  0  0  0  0  0
  127.7981  127.7832   67.2001 H   0  0  0  0  0  0  0  0  0  0  0  0
  130.4001  128.2685   66.6870 H   0  0  0  0  0  0  0  0  0  0  0  0
  130.8990  127.3553   68.1523 H   0  0  0  0  0  0  0  0  0  0  0  0
  132.4354  127.3516   65.9811 H   0  0  0  0  0  0  0  0  0  0  0  0
  132.1812  125.8322   66.9427 H   0  0  0  0  0  0  0  0  0  0  0  0
  130.2020  125.9820   64.9480 H   0  0  0  0  0  0  0  0  0  0  0  0
  126.0703  124.1492   59.3377 H   0  0  0  0  0  0  0  0  0  0  0  0
  124.5383  124.5046   57.4131 H   0  0  0  0  0  0  0  0  0  0  0  0
  125.3508  124.1236   55.0902 H   0  0  0  0  0  0  0  0  0  0  0  0
  127.6997  123.4035   54.6865 H   0  0  0  0  0  0  0  0  0  0  0  0
  129.2365  123.0497   56.6068 H   0  0  0  0  0  0  0  0  0  0  0  0
  129.0752  121.2652   58.8660 H   0  0  0  0  0  0  0  0  0  0  0  0
  132.5340  122.4140   64.0100 H   0  0  0  0  0  0  0  0  0  0  0  0
  132.0410  121.3520   62.7480 H   0  0  0  0  0  0  0  0  0  0  0  0
  1  2  1  0
  2  3  1  0
  3  4  1  0
  4  5  1  0
  5  6  1  0
  6  7  1  0
  7  8  1  0
  8  9  1  0
  9 10  1  0
 10 11  1  0
 11 12  1  0
 12 13  2  0
 12 14  1  0
 14 15  1  0
 15 16  1  0
 16 17  2  0
 17 18  1  0
 18 19  1  0
 19 20  2  0
 20 21  1  0
 21 22  2  0
 22 23  1  0
 23 24  2  0
 18 25  2  0
 25 26  1  0
 26 27  1  0
 27 28  1  0
 27 29  1  0
 27 30  1  0
 26 31  2  0
 31 32  1  0
 32 33  1  0
 32 14  2  0
 31 16  1  0
 24 19  1  0
  1 34  1  0
  1 35  1  0
  1 36  1  0
  3 37  1  0
  3 38  1  0
  4 39  1  0
  4 40  1  0
  6 41  1  0
  6 42  1  0
  7 43  1  0
  7 44  1  0
  9 45  1  0
  9 46  1  0
 10 47  1  0
 10 48  1  0
 11 49  1  0
 20 50  1  0
 21 51  1  0
 22 52  1  0
 23 53  1  0
 24 54  1  0
 25 55  1  0
 33 56  1  0
 33 57  1  0
M  END
>  <Binding energies>  (1) 
[-7.25]

>  <Ligand effiencies>  (1) 
[-0.2013888888888889]

>  <Interactions>  (1) 
["V-B:TYR:539:CD2:9846, V-B:PRO:540:CA:9855, V-A:LEU:475:CD2:4257, V-A:TRP:381:CZ2:3368, V-B:ALA:541:CB:9864, V-A:TRP:381:CH2:3370, V-B:TYR:539:CE2:9848, V-B:PRO:540:N:9856, H-B:GLU:543:OE2:9882, H-B:GLU:543:OE1:9881, H-A:GLU:543:OE2:4908, V-A:GLU:543:CD:4906, V-A:HIS:456:CE1:4068, V-B:TYR:539:CG:9844, H-A:ARG:545:NE:4922, H-A:TYR:484:OH:4346, V-B:TYR:539:C:9839, H-A:GLY:454:N:4048, V-B:GLU:543:CD:9880, V-A:ARG:545:CZ:4924, V-B:GLU:543:CB:9878, V-B:GLU:543:CG:9879, V-A:GLU:543:CG:4905, V-B:HIS:456:CE1:9042, V-B:GLY:544:C:9884, V-A:LYS:547:CE:4948, V-B:HIS:456:CG:9038, V-B:HIS:456:CD2:9040, V-B:GLU:543:C:9874, H-A:LYS:547:NZ:4949, V-A:GLY:544:CA:4912, V-A:ARG:545:CD:4921, V-A:ARG:545:CG:4920, V-A:GLY:454:CA:4047, V-B:HIS:456:CB:9037, V-A:PRO:482:CB:4324, V-A:LEU:475:CG:4255, V-A:LEU:475:CD1:4256, V-B:TYR:539:CB:9843, V-A:TRP:381:CZ3:3369"]

$$$$
4dd_Grossjean_2025
     RDKit          3D

 43 46  0  0  0  0  0  0  0  0999 V2000
  130.8300  136.7820   75.8220 C   0  0  0  0  0  0  0  0  0  0  0  0
  131.1810  136.3120   74.4190 C   0  0  0  0  0  0  0  0  0  0  0  0
  132.0710  137.0870   73.6650 C   0  0  0  0  0  0  0  0  0  0  0  0
  132.4340  136.7080   72.3670 C   0  0  0  0  0  0  0  0  0  0  0  0
  133.3800  137.5220   71.5350 C   0  0  0  0  0  0  0  0  0  0  0  0
  132.9170  138.6020   70.7670 C   0  0  0  0  0  0  0  0  0  0  0  0
  133.7900  139.3640   69.9950 C   0  0  0  0  0  0  0  0  0  0  0  0
  135.1450  139.0530   69.9780 C   0  0  0  0  0  0  0  0  0  0  0  0
  135.6320  137.9890   70.7300 C   0  0  0  0  0  0  0  0  0  0  0  0
  134.7550  137.2320   71.5030 C   0  0  0  0  0  0  0  0  0  0  0  0
  131.9340  135.5860   71.7790 N   0  0  0  0  0  0  0  0  0  0  0  0
  131.0920  134.8440   72.4980 C   0  0  0  0  0  0  0  0  0  0  0  0
  130.3900  133.3690   71.8730 S   0  0  0  0  0  0  0  0  0  0  0  0
  129.5040  133.0980   73.3750 C   0  0  0  0  0  0  0  0  0  0  0  0
  128.6550  131.9160   73.5320 C   0  0  0  0  0  0  0  0  0  0  0  0
  128.9470  130.8550   72.9790 O   0  0  0  0  0  0  0  0  0  0  0  0
  127.5630  132.0860   74.3170 N   0  0  0  0  0  0  0  0  0  0  0  0
  126.5310  131.1810   74.6250 C   0  0  0  0  0  0  0  0  0  0  0  0
  126.7180  129.8670   74.1850 C   0  0  0  0  0  0  0  0  0  0  0  0
  125.7600  128.8930   74.4530 C   0  0  0  0  0  0  0  0  0  0  0  0
  124.6150  129.2310   75.1690 C   0  0  0  0  0  0  0  0  0  0  0  0
  124.4210  130.5320   75.6240 C   0  0  0  0  0  0  0  0  0  0  0  0
  125.3780  131.5090   75.3580 C   0  0  0  0  0  0  0  0  0  0  0  0
  129.7540  134.1230   74.3010 C   0  0  0  0  0  0  0  0  0  0  0  0
  129.1950  134.1750   75.5530 N   0  0  0  0  0  0  0  0  0  0  0  0
  130.6620  135.1330   73.8240 C   0  0  0  0  0  0  0  0  0  0  0  0
  131.3179  136.1287   76.5603 H   0  0  0  0  0  0  0  0  0  0  0  0
  131.1787  137.8161   75.9603 H   0  0  0  0  0  0  0  0  0  0  0  0
  129.7395  136.7412   75.9603 H   0  0  0  0  0  0  0  0  0  0  0  0
  132.4908  138.0066   74.0987 H   0  0  0  0  0  0  0  0  0  0  0  0
  131.8455  138.8507   70.7752 H   0  0  0  0  0  0  0  0  0  0  0  0
  133.4094  140.2082   69.4013 H   0  0  0  0  0  0  0  0  0  0  0  0
  135.8359  139.6518   69.3663 H   0  0  0  0  0  0  0  0  0  0  0  0
  136.7048  137.7466   70.7142 H   0  0  0  0  0  0  0  0  0  0  0  0
  135.1449  136.3932   72.0984 H   0  0  0  0  0  0  0  0  0  0  0  0
  127.4730  132.9870   74.7630 H   0  0  0  0  0  0  0  0  0  0  0  0
  127.6264  129.6016   73.6244 H   0  0  0  0  0  0  0  0  0  0  0  0
  125.9071  127.8614   74.1007 H   0  0  0  0  0  0  0  0  0  0  0  0
  123.8561  128.4624   75.3772 H   0  0  0  0  0  0  0  0  0  0  0  0
  123.5145  130.7881   76.1921 H   0  0  0  0  0  0  0  0  0  0  0  0
  125.2310  132.5367   75.7217 H   0  0  0  0  0  0  0  0  0  0  0  0
  129.7600  134.2250   76.3890 H   0  0  0  0  0  0  0  0  0  0  0  0
  128.1930  134.1690   75.6800 H   0  0  0  0  0  0  0  0  0  0  0  0
  1  2  1  0
  2  3  2  0
  3  4  1  0
  4  5  1  0
  5  6  2  0
  6  7  1  0
  7  8  2  0
  8  9  1  0
  9 10  2  0
  4 11  2  0
 11 12  1  0
 12 13  1  0
 13 14  1  0
 14 15  1  0
 15 16  2  0
 15 17  1  0
 17 18  1  0
 18 19  2  0
 19 20  1  0
 20 21  2  0
 21 22  1  0
 22 23  2  0
 14 24  2  0
 24 25  1  0
 24 26  1  0
 26  2  1  0
 10  5  1  0
 26 12  2  0
 23 18  1  0
  1 27  1  0
  1 28  1  0
  1 29  1  0
  3 30  1  0
  6 31  1  0
  7 32  1  0
  8 33  1  0
  9 34  1  0
 10 35  1  0
 17 36  1  0
 19 37  1  0
 20 38  1  0
 21 39  1  0
 22 40  1  0
 23 41  1  0
 25 42  1  0
 25 43  1  0
M  END
>  <Binding energies>  (1) 
[-7.11]

>  <Ligand effiencies>  (1) 
[-0.24517241379310345]

>  <Interactions>  (1) 
["V-A:LYS:547:CE:4948, V-B:HIS:456:CG:9038, V-B:TYR:484:CB:9313, V-A:GLU:543:C:4900, V-B:HIS:456:CD2:9040, H-A:LYS:547:NZ:4949, V-A:GLY:544:CA:4912, V-B:VAL:458:CG2:9059, V-B:VAL:457:C:9045, V-B:HIS:456:CB:9037, V-B:HIS:456:CA:9035, V-B:HIS:456:C:9033, V-B:LYS:471:CE:9192, V-B:LYS:471:CD:9191, V-B:LYS:471:CG:9190, V-B:ASP:473:CG:9212, V-A:VAL:542:CG1:4897, H-B:ASP:473:OD2:9214, V-A:GLU:543:CA:4902, V-B:SER:483:CB:9305, V-A:ARG:356:CD:3117"]

$$$$
4dg_Grossjean_2025
     RDKit          3D

 46 49  0  0  0  0  0  0  0  0999 V2000
  130.8920  120.7410   61.3210 C   0  0  0  0  0  0  0  0  0  0  0  0
  130.2310  122.0790   61.0290 C   0  0  0  0  0  0  0  0  0  0  0  0
  129.4070  122.1760   59.9010 C   0  0  0  0  0  0  0  0  0  0  0  0
  128.7700  123.3800   59.5770 C   0  0  0  0  0  0  0  0  0  0  0  0
  127.8790  123.5150   58.3740 C   0  0  0  0  0  0  0  0  0  0  0  0
  126.5590  123.9770   58.5030 C   0  0  0  0  0  0  0  0  0  0  0  0
  125.7280  124.1000   57.3920 C   0  0  0  0  0  0  0  0  0  0  0  0
  126.2060  123.7600   56.1310 C   0  0  0  0  0  0  0  0  0  0  0  0
  127.5090  123.2950   55.9750 C   0  0  0  0  0  0  0  0  0  0  0  0
  128.3350  123.1740   57.0880 C   0  0  0  0  0  0  0  0  0  0  0  0
  128.9060  124.4950   60.3460 N   0  0  0  0  0  0  0  0  0  0  0  0
  129.6910  124.4040   61.4190 C   0  0  0  0  0  0  0  0  0  0  0  0
  129.9580  125.7610   62.4880 S   0  0  0  0  0  0  0  0  0  0  0  0
  131.0160  124.7980   63.5180 C   0  0  0  0  0  0  0  0  0  0  0  0
  131.6650  125.4070   64.6780 C   0  0  0  0  0  0  0  0  0  0  0  0
  132.8420  125.1650   64.9550 O   0  0  0  0  0  0  0  0  0  0  0  0
  130.8880  126.2090   65.4350 N   0  0  0  0  0  0  0  0  0  0  0  0
  131.3290  126.9380   66.6240 C   0  0  0  0  0  0  0  0  0  0  0  0
  130.2060  127.2120   67.6170 C   0  0  0  0  0  0  0  0  0  0  0  0
  128.8790  127.2390   67.1760 C   0  0  0  0  0  0  0  0  0  0  0  0
  127.8490  127.4570   68.0850 C   0  0  0  0  0  0  0  0  0  0  0  0
  128.1460  127.6380   69.4340 C   0  0  0  0  0  0  0  0  0  0  0  0
  129.4640  127.5960   69.8840 C   0  0  0  0  0  0  0  0  0  0  0  0
  130.4950  127.3760   68.9750 C   0  0  0  0  0  0  0  0  0  0  0  0
  131.1530  123.4910   63.0270 C   0  0  0  0  0  0  0  0  0  0  0  0
  131.9290  122.5290   63.6230 N   0  0  0  0  0  0  0  0  0  0  0  0
  130.3940  123.2370   61.8320 C   0  0  0  0  0  0  0  0  0  0  0  0
  130.9632  120.5969   62.4092 H   0  0  0  0  0  0  0  0  0  0  0  0
  130.2902  119.9313   60.8825 H   0  0  0  0  0  0  0  0  0  0  0  0
  131.9007  120.7269   60.8825 H   0  0  0  0  0  0  0  0  0  0  0  0
  129.2581  121.2941   59.2606 H   0  0  0  0  0  0  0  0  0  0  0  0
  126.1750  124.2462   59.4980 H   0  0  0  0  0  0  0  0  0  0  0  0
  124.6972  124.4648   57.5115 H   0  0  0  0  0  0  0  0  0  0  0  0
  125.5514  123.8590   55.2526 H   0  0  0  0  0  0  0  0  0  0  0  0
  127.8836  123.0246   54.9767 H   0  0  0  0  0  0  0  0  0  0  0  0
  129.3633  122.8050   56.9598 H   0  0  0  0  0  0  0  0  0  0  0  0
  129.9590  126.4230   65.1040 H   0  0  0  0  0  0  0  0  0  0  0  0
  132.1044  126.3438   67.1297 H   0  0  0  0  0  0  0  0  0  0  0  0
  131.7079  127.9134   66.2849 H   0  0  0  0  0  0  0  0  0  0  0  0
  128.6500  127.0879   66.1108 H   0  0  0  0  0  0  0  0  0  0  0  0
  126.8048  127.4863   67.7403 H   0  0  0  0  0  0  0  0  0  0  0  0
  127.3314  127.8160   70.1515 H   0  0  0  0  0  0  0  0  0  0  0  0
  129.6886  127.7359   70.9517 H   0  0  0  0  0  0  0  0  0  0  0  0
  131.5368  127.3312   69.3251 H   0  0  0  0  0  0  0  0  0  0  0  0
  132.5710  122.7490   64.3710 H   0  0  0  0  0  0  0  0  0  0  0  0
  131.8770  121.5620   63.3350 H   0  0  0  0  0  0  0  0  0  0  0  0
  1  2  1  0
  2  3  2  0
  3  4  1  0
  4  5  1  0
  5  6  2  0
  6  7  1  0
  7  8  2  0
  8  9  1  0
  9 10  2  0
  4 11  2  0
 11 12  1  0
 12 13  1  0
 13 14  1  0
 14 15  1  0
 15 16  2  0
 15 17  1  0
 17 18  1  0
 18 19  1  0
 19 20  2  0
 20 21  1  0
 21 22  2  0
 22 23  1  0
 23 24  2  0
 14 25  2  0
 25 26  1  0
 25 27  1  0
 27  2  1  0
 10  5  1  0
 27 12  2  0
 24 19  1  0
  1 28  1  0
  1 29  1  0
  1 30  1  0
  3 31  1  0
  6 32  1  0
  7 33  1  0
  8 34  1  0
  9 35  1  0
 10 36  1  0
 17 37  1  0
 18 38  1  0
 18 39  1  0
 20 40  1  0
 21 41  1  0
 22 42  1  0
 23 43  1  0
 24 44  1  0
 26 45  1  0
 26 46  1  0
M  END
>  <Binding energies>  (1) 
[-8.42]

>  <Ligand effiencies>  (1) 
[-0.2806666666666667]

>  <Interactions>  (1) 
["V-B:TYR:539:CD2:9846, V-B:PRO:540:CA:9855, V-A:LEU:475:CD2:4257, V-B:ALA:541:CB:9864, V-B:TYR:539:CE2:9848, V-B:PRO:540:N:9856, H-B:GLU:543:OE2:9882, H-B:GLU:543:OE1:9881, V-B:TYR:539:CZ:9849, H-A:GLU:543:OE2:4908, V-A:GLU:543:CD:4906, V-A:HIS:456:CE1:4068, V-B:TYR:539:CG:9844, H-A:ARG:545:NE:4922, H-A:TYR:484:OH:4346, V-B:TYR:539:C:9839, V-B:GLU:543:CD:9880, V-A:ARG:545:CZ:4924, V-B:GLU:543:CB:9878, V-B:TYR:539:CD1:9845, V-B:GLU:543:CG:9879, V-A:GLU:543:CG:4905, V-B:HIS:456:CE1:9042, V-A:GLY:544:C:4910, V-A:GLU:543:C:4900, V-A:ARG:545:CD:4921, V-A:ARG:545:CG:4920, V-A:GLY:454:CA:4047, V-A:TYR:484:CZ:4345, V-A:TYR:484:CE1:4343"]

$$$$
4dj_Grossjean_2025
     RDKit          3D

 39 42  0  0  0  0  0  0  0  0999 V2000
  130.5120  120.6350   61.3160 C   0  0  0  0  0  0  0  0  0  0  0  0
  130.2230  122.0380   60.8040 C   0  0  0  0  0  0  0  0  0  0  0  0
  129.7470  122.1780   59.4950 C   0  0  0  0  0  0  0  0  0  0  0  0
  129.4630  123.4420   58.9640 C   0  0  0  0  0  0  0  0  0  0  0  0
  128.9470  123.6220   57.5640 C   0  0  0  0  0  0  0  0  0  0  0  0
  129.6900  124.3330   56.6080 C   0  0  0  0  0  0  0  0  0  0  0  0
  129.2170  124.5040   55.3100 C   0  0  0  0  0  0  0  0  0  0  0  0
  127.9850  123.9670   54.9480 C   0  0  0  0  0  0  0  0  0  0  0  0
  127.2260  123.2620   55.8760 C   0  0  0  0  0  0  0  0  0  0  0  0
  127.7040  123.0930   57.1720 C   0  0  0  0  0  0  0  0  0  0  0  0
  129.6190  124.5800   59.6940 N   0  0  0  0  0  0  0  0  0  0  0  0
  130.0720  124.4490   60.9390 C   0  0  0  0  0  0  0  0  0  0  0  0
  130.3270  125.8280   61.9850 S   0  0  0  0  0  0  0  0  0  0  0  0
  130.8780  124.7890   63.3000 C   0  0  0  0  0  0  0  0  0  0  0  0
  131.2920  125.3690   64.5780 C   0  0  0  0  0  0  0  0  0  0  0  0
  132.4560  125.2610   64.9730 O   0  0  0  0  0  0  0  0  0  0  0  0
  130.3180  126.0070   65.2720 N   0  0  0  0  0  0  0  0  0  0  0  0
  130.4440  126.6370   66.5030 C   0  0  0  0  0  0  0  0  0  0  0  0
  131.4970  127.2620   66.9860 N   0  0  0  0  0  0  0  0  0  0  0  0
  131.2630  127.7440   68.1910 C   0  0  0  0  0  0  0  0  0  0  0  0
  129.9930  127.5140   68.7100 C   0  0  0  0  0  0  0  0  0  0  0  0
  129.0620  126.6150   67.5500 S   0  0  0  0  0  0  0  0  0  0  0  0
  130.8600  123.4380   62.9190 C   0  0  0  0  0  0  0  0  0  0  0  0
  131.2420  122.4080   63.7410 N   0  0  0  0  0  0  0  0  0  0  0  0
  130.4010  123.2170   61.5740 C   0  0  0  0  0  0  0  0  0  0  0  0
  130.5112  120.6387   62.4160 H   0  0  0  0  0  0  0  0  0  0  0  0
  129.7372  119.9447   60.9511 H   0  0  0  0  0  0  0  0  0  0  0  0
  131.4965  120.3071   60.9511 H   0  0  0  0  0  0  0  0  0  0  0  0
  129.5940  121.2824   58.8749 H   0  0  0  0  0  0  0  0  0  0  0  0
  130.6628  124.7624   56.8896 H   0  0  0  0  0  0  0  0  0  0  0  0
  129.8145  125.0612   54.5734 H   0  0  0  0  0  0  0  0  0  0  0  0
  127.6097  124.1009   53.9227 H   0  0  0  0  0  0  0  0  0  0  0  0
  126.2522  122.8399   55.5869 H   0  0  0  0  0  0  0  0  0  0  0  0
  127.0992  122.5360   57.9027 H   0  0  0  0  0  0  0  0  0  0  0  0
  129.3950  126.0300   64.8620 H   0  0  0  0  0  0  0  0  0  0  0  0
  132.0292  128.2970   68.7542 H   0  0  0  0  0  0  0  0  0  0  0  0
  129.6357  127.8473   69.6955 H   0  0  0  0  0  0  0  0  0  0  0  0
  131.5540  122.5670   64.6870 H   0  0  0  0  0  0  0  0  0  0  0  0
  131.2220  121.4490   63.4230 H   0  0  0  0  0  0  0  0  0  0  0  0
  1  2  1  0
  2  3  2  0
  3  4  1  0
  4  5  1  0
  5  6  2  0
  6  7  1  0
  7  8  2  0
  8  9  1  0
  9 10  2  0
  4 11  2  0
 11 12  1  0
 12 13  1  0
 13 14  1  0
 14 15  1  0
 15 16  2  0
 15 17  1  0
 17 18  1  0
 18 19  2  0
 19 20  1  0
 20 21  2  0
 21 22  1  0
 14 23  2  0
 23 24  1  0
 23 25  1  0
 25  2  1  0
 10  5  1  0
 25 12  2  0
 22 18  1  0
  1 26  1  0
  1 27  1  0
  1 28  1  0
  3 29  1  0
  6 30  1  0
  7 31  1  0
  8 32  1  0
  9 33  1  0
 10 34  1  0
 17 35  1  0
 20 36  1  0
 21 37  1  0
 24 38  1  0
 24 39  1  0
M  END
>  <Binding energies>  (1) 
[-7.11]

>  <Ligand effiencies>  (1) 
[-0.25392857142857145]

>  <Interactions>  (1) 
["V-B:TYR:539:CD2:9846, V-A:LEU:475:CD2:4257, V-B:ALA:541:CB:9864, V-B:TYR:539:CE2:9848, V-B:PRO:540:N:9856, H-B:GLU:543:OE2:9882, H-B:GLU:543:OE1:9881, V-B:TYR:539:CZ:9849, H-A:GLU:543:OE2:4908, V-B:TYR:539:CE1:9847, V-A:GLU:543:CD:4906, V-B:ILE:538:CA:9832, V-A:HIS:456:CE1:4068, H-A:ARG:545:NE:4922, H-A:TYR:484:OH:4346, V-B:TYR:539:C:9839, V-B:GLU:543:CD:9880, V-B:GLU:543:CB:9878, V-B:GLU:543:CG:9879, V-A:GLU:543:CG:4905, V-A:GLY:544:C:4910, V-A:GLU:543:C:4900, V-B:GLU:543:C:9874, V-A:ARG:545:CG:4920, V-A:TYR:484:CZ:4345, V-A:TYR:484:CE1:4343, V-A:ARG:545:CA:4917"]

$$$$
4ea_Grossjean_2025
     RDKit          3D

 52 55  0  0  0  0  0  0  0  0999 V2000
  128.9650  129.0800   72.2590 C   0  0  0  0  0  0  0  0  0  0  0  0
  128.0970  127.9000   72.7050 C   0  0  0  0  0  0  0  0  0  0  0  0
  128.3720  126.7740   71.8820 O   0  0  0  0  0  0  0  0  0  0  0  0
  129.4600  126.7470   71.0690 C   0  0  0  0  0  0  0  0  0  0  0  0
  130.5860  126.4140   71.4510 O   0  0  0  0  0  0  0  0  0  0  0  0
  129.1560  127.1640   69.6590 C   0  0  0  0  0  0  0  0  0  0  0  0
  127.8240  127.3710   69.2800 C   0  0  0  0  0  0  0  0  0  0  0  0
  127.5090  127.7570   67.9800 C   0  0  0  0  0  0  0  0  0  0  0  0
  128.5170  127.9450   67.0340 C   0  0  0  0  0  0  0  0  0  0  0  0
  128.0810  128.3350   65.7530 N   0  0  0  0  0  0  0  0  0  0  0  0
  127.1750  129.2720   65.3810 C   0  0  0  0  0  0  0  0  0  0  0  0
  126.5460  129.9790   66.1690 O   0  0  0  0  0  0  0  0  0  0  0  0
  126.9730  129.4070   63.9360 C   0  0  0  0  0  0  0  0  0  0  0  0
  127.4870  128.1230   62.8390 S   0  0  0  0  0  0  0  0  0  0  0  0
  126.9240  129.0190   61.4470 C   0  0  0  0  0  0  0  0  0  0  0  0
  127.0370  128.5400   60.2070 N   0  0  0  0  0  0  0  0  0  0  0  0
  126.5610  129.3340   59.2170 C   0  0  0  0  0  0  0  0  0  0  0  0
  126.6990  128.7700   57.8140 C   0  0  0  0  0  0  0  0  0  0  0  0
  125.9800  130.5810   59.4340 C   0  0  0  0  0  0  0  0  0  0  0  0
  125.8640  131.0800   60.7360 C   0  0  0  0  0  0  0  0  0  0  0  0
  125.2450  132.4070   60.9510 C   0  0  0  0  0  0  0  0  0  0  0  0
  125.9380  133.5710   60.6030 C   0  0  0  0  0  0  0  0  0  0  0  0
  125.3560  134.8200   60.8030 C   0  0  0  0  0  0  0  0  0  0  0  0
  124.0800  134.9050   61.3560 C   0  0  0  0  0  0  0  0  0  0  0  0
  123.3830  133.7520   61.7110 C   0  0  0  0  0  0  0  0  0  0  0  0
  123.9670  132.5050   61.5100 C   0  0  0  0  0  0  0  0  0  0  0  0
  126.3520  130.2770   61.8050 C   0  0  0  0  0  0  0  0  0  0  0  0
  126.3930  130.4730   63.2310 C   0  0  0  0  0  0  0  0  0  0  0  0
  125.9030  131.6060   63.8280 N   0  0  0  0  0  0  0  0  0  0  0  0
  129.8550  127.7390   67.4050 C   0  0  0  0  0  0  0  0  0  0  0  0
  130.1680  127.3530   68.7050 C   0  0  0  0  0  0  0  0  0  0  0  0
  129.3518  129.6059   73.1443 H   0  0  0  0  0  0  0  0  0  0  0  0
  129.8068  128.7087   71.6561 H   0  0  0  0  0  0  0  0  0  0  0  0
  128.3599  129.7731   71.6561 H   0  0  0  0  0  0  0  0  0  0  0  0
  128.3237  127.6530   73.7527 H   0  0  0  0  0  0  0  0  0  0  0  0
  127.0346  128.1705   72.6146 H   0  0  0  0  0  0  0  0  0  0  0  0
  127.0193  127.2273   70.0160 H   0  0  0  0  0  0  0  0  0  0  0  0
  126.4579  127.9149   67.6967 H   0  0  0  0  0  0  0  0  0  0  0  0
  128.5220  127.8290   64.9990 H   0  0  0  0  0  0  0  0  0  0  0  0
  126.9601  127.7030   57.8718 H   0  0  0  0  0  0  0  0  0  0  0  0
  125.7460  128.8857   57.2769 H   0  0  0  0  0  0  0  0  0  0  0  0
  127.4909  129.3127   57.2769 H   0  0  0  0  0  0  0  0  0  0  0  0
  125.6127  131.1730   58.5827 H   0  0  0  0  0  0  0  0  0  0  0  0
  126.9465  133.4995   60.1697 H   0  0  0  0  0  0  0  0  0  0  0  0
  125.9007  135.7346   60.5259 H   0  0  0  0  0  0  0  0  0  0  0  0
  123.6188  135.8911   61.5137 H   0  0  0  0  0  0  0  0  0  0  0  0
  122.3763  133.8270   62.1479 H   0  0  0  0  0  0  0  0  0  0  0  0
  123.4211  131.5926   61.7920 H   0  0  0  0  0  0  0  0  0  0  0  0
  125.8800  131.7120   64.8330 H   0  0  0  0  0  0  0  0  0  0  0  0
  125.5480  132.3790   63.2800 H   0  0  0  0  0  0  0  0  0  0  0  0
  130.6577  127.8829   66.6668 H   0  0  0  0  0  0  0  0  0  0  0  0
  131.2192  127.1944   68.9877 H   0  0  0  0  0  0  0  0  0  0  0  0
  1  2  1  0
  2  3  1  0
  3  4  1  0
  4  5  2  0
  4  6  1  0
  6  7  2  0
  7  8  1  0
  8  9  2  0
  9 10  1  0
 10 11  1  0
 11 12  2  0
 11 13  1  0
 13 14  1  0
 14 15  1  0
 15 16  2  0
 16 17  1  0
 17 18  1  0
 17 19  2  0
 19 20  1  0
 20 21  1  0
 21 22  2  0
 22 23  1  0
 23 24  2  0
 24 25  1  0
 25 26  2  0
 20 27  2  0
 27 28  1  0
 28 29  1  0
  9 30  1  0
 30 31  2  0
 31  6  1  0
 28 13  2  0
 27 15  1  0
 26 21  1  0
  1 32  1  0
  1 33  1  0
  1 34  1  0
  2 35  1  0
  2 36  1  0
  7 37  1  0
  8 38  1  0
 10 39  1  0
 18 40  1  0
 18 41  1  0
 18 42  1  0
 19 43  1  0
 22 44  1  0
 23 45  1  0
 24 46  1  0
 25 47  1  0
 26 48  1  0
 29 49  1  0
 29 50  1  0
 30 51  1  0
 31 52  1  0
M  END
>  <Binding energies>  (1) 
[-7.25]

>  <Ligand effiencies>  (1) 
[-0.21323529411764705]

>  <Interactions>  (1) 
["V-B:ILE:369:CD1:8211, V-A:TYR:539:CD2:4872, V-B:ILE:369:CG2:8209, V-B:LEU:475:CD2:9231, V-A:TYR:539:CE2:4874, V-B:TRP:381:CH2:8344, H-B:GLU:543:OE2:9882, H-B:GLU:543:OE1:9881, H-A:GLU:543:OE2:4908, V-B:TRP:381:CZ2:8342, V-A:GLU:543:CD:4906, V-A:HIS:456:CE1:4068, H-A:GLU:543:OE1:4907, V-B:GLU:543:CD:9880, V-B:GLU:543:CG:9879, V-A:GLU:543:CG:4905, H-B:TYR:484:OH:9320, V-A:GLU:543:CB:4904, V-B:HIS:456:CE1:9042, V-B:ILE:369:CG1:8210, V-B:GLY:544:C:9884, V-A:LYS:547:CE:4948, V-A:GLU:543:C:4900, V-B:LYS:547:CE:9922, V-A:HIS:456:CD2:4066, V-B:HIS:456:CD2:9040, V-B:GLU:543:C:9874, V-A:GLY:544:CA:4912, V-B:ARG:545:CG:9894, V-B:GLY:454:CA:9021"]

$$$$
4eb_Grossjean_2025
     RDKit          3D

 49 52  0  0  0  0  0  0  0  0999 V2000
  130.3550  126.6010   72.2810 C   0  0  0  0  0  0  0  0  0  0  0  0
  129.8440  127.8380   71.8060 O   0  0  0  0  0  0  0  0  0  0  0  0
  128.7100  127.8840   71.0580 C   0  0  0  0  0  0  0  0  0  0  0  0
  127.6050  128.1830   71.5180 O   0  0  0  0  0  0  0  0  0  0  0  0
  128.9370  127.5360   69.6150 C   0  0  0  0  0  0  0  0  0  0  0  0
  130.2470  127.3450   69.1560 C   0  0  0  0  0  0  0  0  0  0  0  0
  130.4900  127.0210   67.8240 C   0  0  0  0  0  0  0  0  0  0  0  0
  129.4320  126.8820   66.9250 C   0  0  0  0  0  0  0  0  0  0  0  0
  129.7970  126.5530   65.6050 N   0  0  0  0  0  0  0  0  0  0  0  0
  130.5980  125.5650   65.1350 C   0  0  0  0  0  0  0  0  0  0  0  0
  131.1730  124.7410   65.8470 O   0  0  0  0  0  0  0  0  0  0  0  0
  130.7520  125.5240   63.6790 C   0  0  0  0  0  0  0  0  0  0  0  0
  130.2170  126.8830   62.6870 S   0  0  0  0  0  0  0  0  0  0  0  0
  130.7260  126.0750   61.2210 C   0  0  0  0  0  0  0  0  0  0  0  0
  130.5790  126.6360   60.0200 N   0  0  0  0  0  0  0  0  0  0  0  0
  131.0140  125.9060   58.9640 C   0  0  0  0  0  0  0  0  0  0  0  0
  130.8360  126.5630   57.6070 C   0  0  0  0  0  0  0  0  0  0  0  0
  131.5860  124.6420   59.0790 C   0  0  0  0  0  0  0  0  0  0  0  0
  131.7390  124.0570   60.3420 C   0  0  0  0  0  0  0  0  0  0  0  0
  132.3490  122.7120   60.4480 C   0  0  0  0  0  0  0  0  0  0  0  0
  131.6100  121.5760   60.1040 C   0  0  0  0  0  0  0  0  0  0  0  0
  132.1840  120.3100   60.2020 C   0  0  0  0  0  0  0  0  0  0  0  0
  133.4980  120.1820   60.6480 C   0  0  0  0  0  0  0  0  0  0  0  0
  134.2410  121.3080   60.9970 C   0  0  0  0  0  0  0  0  0  0  0  0
  133.6660  122.5720   60.8980 C   0  0  0  0  0  0  0  0  0  0  0  0
  131.2950  124.7910   61.4750 C   0  0  0  0  0  0  0  0  0  0  0  0
  131.2970  124.5020   62.8850 C   0  0  0  0  0  0  0  0  0  0  0  0
  131.7920  123.3270   63.3920 N   0  0  0  0  0  0  0  0  0  0  0  0
  128.1170  127.0710   67.3750 C   0  0  0  0  0  0  0  0  0  0  0  0
  127.8760  127.3950   68.7080 C   0  0  0  0  0  0  0  0  0  0  0  0
  130.3545  126.6022   73.3810 H   0  0  0  0  0  0  0  0  0  0  0  0
  129.7230  125.7784   71.9150 H   0  0  0  0  0  0  0  0  0  0  0  0
  131.3833  126.4642   71.9150 H   0  0  0  0  0  0  0  0  0  0  0  0
  131.0905  127.4519   69.8539 H   0  0  0  0  0  0  0  0  0  0  0  0
  131.5236  126.8735   67.4778 H   0  0  0  0  0  0  0  0  0  0  0  0
  129.3910  127.1560   64.9050 H   0  0  0  0  0  0  0  0  0  0  0  0
  130.5506  127.6164   57.7443 H   0  0  0  0  0  0  0  0  0  0  0  0
  131.7811  126.5092   57.0468 H   0  0  0  0  0  0  0  0  0  0  0  0
  130.0473  126.0394   57.0468 H   0  0  0  0  0  0  0  0  0  0  0  0
  131.9173  124.1035   58.1789 H   0  0  0  0  0  0  0  0  0  0  0  0
  130.5723  121.6820   59.7549 H   0  0  0  0  0  0  0  0  0  0  0  0
  131.6031  119.4167   59.9288 H   0  0  0  0  0  0  0  0  0  0  0  0
  133.9527  119.1834   60.7252 H   0  0  0  0  0  0  0  0  0  0  0  0
  135.2773  121.1986   61.3492 H   0  0  0  0  0  0  0  0  0  0  0  0
  134.2489  123.4630   61.1744 H   0  0  0  0  0  0  0  0  0  0  0  0
  132.1210  122.5870   62.7880 H   0  0  0  0  0  0  0  0  0  0  0  0
  131.8440  123.1620   64.3880 H   0  0  0  0  0  0  0  0  0  0  0  0
  127.2756  126.9633   66.6747 H   0  0  0  0  0  0  0  0  0  0  0  0
  126.8421  127.5420   69.0535 H   0  0  0  0  0  0  0  0  0  0  0  0
  1  2  1  0
  2  3  1  0
  3  4  2  0
  3  5  1  0
  5  6  2  0
  6  7  1  0
  7  8  2  0
  8  9  1  0
  9 10  1  0
 10 11  2  0
 10 12  1  0
 12 13  1  0
 13 14  1  0
 14 15  2  0
 15 16  1  0
 16 17  1  0
 16 18  2  0
 18 19  1  0
 19 20  1  0
 20 21  2  0
 21 22  1  0
 22 23  2  0
 23 24  1  0
 24 25  2  0
 19 26  2  0
 26 27  1  0
 27 28  1  0
  8 29  1  0
 29 30  2  0
 30  5  1  0
 27 12  2  0
 26 14  1  0
 25 20  1  0
  1 31  1  0
  1 32  1  0
  1 33  1  0
  6 34  1  0
  7 35  1  0
  9 36  1  0
 17 37  1  0
 17 38  1  0
 17 39  1  0
 18 40  1  0
 21 41  1  0
 22 42  1  0
 23 43  1  0
 24 44  1  0
 25 45  1  0
 28 46  1  0
 28 47  1  0
 29 48  1  0
 30 49  1  0
M  END
>  <Binding energies>  (1) 
[-7.12]

>  <Ligand effiencies>  (1) 
[-0.21575757575757576]

>  <Interactions>  (1) 
["V-B:TYR:539:CD2:9846, V-A:LEU:475:CD2:4257, V-A:ILE:369:CG2:3235, V-A:TRP:381:CZ2:3368, V-A:TRP:381:CH2:3370, V-A:ILE:369:CD1:3237, V-B:TYR:539:CE2:9848, V-A:ASP:366:CG:3211, H-B:GLU:543:OE2:9882, H-B:GLU:543:OE1:9881, H-A:GLU:543:OE2:4908, V-A:GLU:543:CD:4906, V-A:HIS:456:CE1:4068, H-A:TYR:484:OH:4346, H-A:GLU:543:OE1:4907, V-B:GLU:543:CD:9880, V-B:GLU:543:CB:9878, V-B:GLU:543:CG:9879, V-A:GLU:543:CG:4905, V-B:HIS:456:CE1:9042, V-A:GLY:544:C:4910, V-A:GLU:543:C:4900, V-A:HIS:456:CD2:4066, V-B:HIS:456:CD2:9040, V-B:GLU:543:C:9874, V-A:ARG:545:CG:4920, V-A:GLY:454:CA:4047, H-B:HIS:456:ND1:9039, V-A:ILE:369:CG1:3236"]

$$$$
8a_Ghoteimi_2023
     RDKit          3D

 67 71  0  0  0  0  0  0  0  0999 V2000
  133.9150  121.0710   60.9790 C   0  0  0  0  0  0  0  0  0  0  0  0
  132.9470  120.4450   59.9710 C   0  0  0  0  0  0  0  0  0  0  0  0
  132.1220  119.4960   60.6350 O   0  0  0  0  0  0  0  0  0  0  0  0
  130.8040  119.7440   60.8530 C   0  0  0  0  0  0  0  0  0  0  0  0
  129.9500  118.8560   60.9370 O   0  0  0  0  0  0  0  0  0  0  0  0
  130.4880  121.2070   60.9760 C   0  0  0  0  0  0  0  0  0  0  0  0
  130.0040  121.8980   59.8590 C   0  0  0  0  0  0  0  0  0  0  0  0
  129.7040  123.2540   59.9400 C   0  0  0  0  0  0  0  0  0  0  0  0
  129.8810  123.9490   61.1380 C   0  0  0  0  0  0  0  0  0  0  0  0
  129.5490  125.3180   61.1010 N   0  0  0  0  0  0  0  0  0  0  0  0
  129.9030  126.3290   61.9330 C   0  0  0  0  0  0  0  0  0  0  0  0
  130.6210  126.1930   62.9230 O   0  0  0  0  0  0  0  0  0  0  0  0
  129.3710  127.6470   61.5750 C   0  0  0  0  0  0  0  0  0  0  0  0
  127.9620  128.2960   62.4120 S   0  0  0  0  0  0  0  0  0  0  0  0
  127.9980  129.7520   61.4430 C   0  0  0  0  0  0  0  0  0  0  0  0
  127.0910  130.7160   61.5940 N   0  0  0  0  0  0  0  0  0  0  0  0
  127.2070  131.8040   60.7870 C   0  0  0  0  0  0  0  0  0  0  0  0
  126.1670  132.8640   60.9590 C   0  0  0  0  0  0  0  0  0  0  0  0
  124.8210  132.5310   61.1660 C   0  0  0  0  0  0  0  0  0  0  0  0
  123.8560  133.5230   61.3150 C   0  0  0  0  0  0  0  0  0  0  0  0
  124.2100  134.8690   61.2630 C   0  0  0  0  0  0  0  0  0  0  0  0
  123.1850  135.7840   61.4180 O   0  0  0  0  0  0  0  0  0  0  0  0
  122.6210  136.3950   60.2630 C   0  0  0  0  0  0  0  0  0  0  0  0
  125.5540  135.2130   61.0620 C   0  0  0  0  0  0  0  0  0  0  0  0
  126.5180  134.2190   60.9110 C   0  0  0  0  0  0  0  0  0  0  0  0
  128.2280  131.9260   59.8420 C   0  0  0  0  0  0  0  0  0  0  0  0
  129.1920  130.9230   59.6910 C   0  0  0  0  0  0  0  0  0  0  0  0
  130.2750  131.1180   58.6930 C   0  0  0  0  0  0  0  0  0  0  0  0
  129.9650  131.4930   57.3840 C   0  0  0  0  0  0  0  0  0  0  0  0
  130.9770  131.6970   56.4510 C   0  0  0  0  0  0  0  0  0  0  0  0
  132.3160  131.5350   56.8110 C   0  0  0  0  0  0  0  0  0  0  0  0
  133.2520  131.7580   55.8200 O   0  0  0  0  0  0  0  0  0  0  0  0
  133.8730  133.0350   55.7270 C   0  0  0  0  0  0  0  0  0  0  0  0
  132.6300  131.1650   58.1280 C   0  0  0  0  0  0  0  0  0  0  0  0
  131.6140  130.9640   59.0600 C   0  0  0  0  0  0  0  0  0  0  0  0
  129.0770  129.7650   60.5110 C   0  0  0  0  0  0  0  0  0  0  0  0
  129.8340  128.5400   60.5960 C   0  0  0  0  0  0  0  0  0  0  0  0
  130.9020  128.2760   59.7740 N   0  0  0  0  0  0  0  0  0  0  0  0
  130.3610  123.2630   62.2640 C   0  0  0  0  0  0  0  0  0  0  0  0
  130.6610  121.9060   62.1810 C   0  0  0  0  0  0  0  0  0  0  0  0
  133.5735  120.8502   62.0011 H   0  0  0  0  0  0  0  0  0  0  0  0
  134.9211  120.6521   60.8300 H   0  0  0  0  0  0  0  0  0  0  0  0
  133.9457  122.1604   60.8300 H   0  0  0  0  0  0  0  0  0  0  0  0
  132.3184  121.2318   59.5285 H   0  0  0  0  0  0  0  0  0  0  0  0
  133.5181  119.9429   59.1762 H   0  0  0  0  0  0  0  0  0  0  0  0
  129.8595  121.3638   58.9083 H   0  0  0  0  0  0  0  0  0  0  0  0
  129.3244  123.7828   59.0533 H   0  0  0  0  0  0  0  0  0  0  0  0
  128.9620  125.5770   60.3220 H   0  0  0  0  0  0  0  0  0  0  0  0
  124.5239  131.4729   61.2112 H   0  0  0  0  0  0  0  0  0  0  0  0
  122.8048  133.2414   61.4752 H   0  0  0  0  0  0  0  0  0  0  0  0
  121.9048  137.1709   60.5714 H   0  0  0  0  0  0  0  0  0  0  0  0
  123.4211  136.8524   59.6625 H   0  0  0  0  0  0  0  0  0  0  0  0
  122.1012  135.6340   59.6625 H   0  0  0  0  0  0  0  0  0  0  0  0
  125.8485  136.2721   61.0234 H   0  0  0  0  0  0  0  0  0  0  0  0
  127.5690  134.5020   60.7519 H   0  0  0  0  0  0  0  0  0  0  0  0
  128.2751  132.8232   59.2074 H   0  0  0  0  0  0  0  0  0  0  0  0
  128.9140  131.6280   57.0886 H   0  0  0  0  0  0  0  0  0  0  0  0
  130.7199  131.9882   55.4219 H   0  0  0  0  0  0  0  0  0  0  0  0
  134.0626  133.4250   56.7379 H   0  0  0  0  0  0  0  0  0  0  0  0
  134.8259  132.9408   55.1856 H   0  0  0  0  0  0  0  0  0  0  0  0
  133.2105  133.7263   55.1856 H   0  0  0  0  0  0  0  0  0  0  0  0
  133.6809  131.0334   58.4251 H   0  0  0  0  0  0  0  0  0  0  0  0
  131.8682  130.6820   60.0924 H   0  0  0  0  0  0  0  0  0  0  0  0
  131.8380  128.5670   60.0180 H   0  0  0  0  0  0  0  0  0  0  0  0
  130.7910  127.7780   58.9030 H   0  0  0  0  0  0  0  0  0  0  0  0
  130.5006  123.7987   63.2146 H   0  0  0  0  0  0  0  0  0  0  0  0
  131.0374  121.3763   63.0686 H   0  0  0  0  0  0  0  0  0  0  0  0
  1  2  1  0
  2  3  1  0
  3  4  1  0
  4  5  2  0
  4  6  1  0
  6  7  2  0
  7  8  1  0
  8  9  2  0
  9 10  1  0
 10 11  1  0
 11 12  2  0
 11 13  1  0
 13 14  1  0
 14 15  1  0
 15 16  2  0
 16 17  1  0
 17 18  1  0
 18 19  2  0
 19 20  1  0
 20 21  2  0
 21 22  1  0
 22 23  1  0
 21 24  1  0
 24 25  2  0
 17 26  2  0
 26 27  1  0
 27 28  1  0
 28 29  2  0
 29 30  1  0
 30 31  2  0
 31 32  1  0
 32 33  1  0
 31 34  1  0
 34 35  2  0
 27 36  2  0
 36 37  1  0
 37 38  1  0
  9 39  1  0
 39 40  2  0
 40  6  1  0
 37 13  2  0
 36 15  1  0
 25 18  1  0
 35 28  1  0
  1 41  1  0
  1 42  1  0
  1 43  1  0
  2 44  1  0
  2 45  1  0
  7 46  1  0
  8 47  1  0
 10 48  1  0
 19 49  1  0
 20 50  1  0
 23 51  1  0
 23 52  1  0
 23 53  1  0
 24 54  1  0
 25 55  1  0
 26 56  1  0
 29 57  1  0
 30 58  1  0
 33 59  1  0
 33 60  1  0
 33 61  1  0
 34 62  1  0
 35 63  1  0
 38 64  1  0
 38 65  1  0
 39 66  1  0
 40 67  1  0
M  END
>  <Binding energies>  (1) 
[-5.69]

>  <Ligand effiencies>  (1) 
[-0.13232558139534883]

>  <Interactions>  (1) 
["V-A:ILE:538:CG2:4861, V-A:PRO:540:CD:4885, V-A:PRO:540:N:4882, V-B:TYR:539:CD2:9846, V-A:LEU:475:CD2:4257, V-A:ILE:369:CG2:3235, V-A:TRP:381:CZ2:3368, V-B:ALA:541:CB:9864, V-A:ILE:538:CB:4860, V-A:TRP:381:CH2:3370, V-A:ILE:369:CD1:3237, V-B:TYR:539:CE2:9848, H-A:ASP:366:OD1:3212, V-A:ASP:366:CG:3211, V-B:ILE:369:CD1:8211, H-A:TYR:531:OH:4793, V-A:TYR:539:CD2:4872, V-B:ILE:369:CG2:8209, V-B:LEU:475:CD2:9231, V-A:TYR:539:CE2:4874, H-A:ASP:366:OD2:3213, V-B:TRP:381:CH2:8344, V-A:PRO:540:CA:4881, V-B:TRP:381:CZ2:8342, V-A:GLU:543:CD:4906, V-A:PRO:540:CB:4883, V-A:LEU:363:CD1:3187, H-A:ARG:545:NH2:4926, V-A:TYR:531:CE2:4791, V-A:LEU:363:CB:3185, V-A:PRO:482:CB:4324, V-A:PRO:540:CG:4884, V-A:LEU:363:CG:3186, V-B:TRP:381:CZ3:8343, V-A:ILE:538:CD1:4863, V-B:SER:385:C:8377, V-A:ILE:538:CG1:4862, V-B:SER:385:CB:8381, V-B:SER:385:CA:8379, V-B:VAL:384:C:8369"]

$$$$
8b_Ghoteimi_2023
     RDKit          3D

 54 58  0  0  0  0  0  0  0  0999 V2000
  134.6080  125.0720   66.6120 C   0  0  0  0  0  0  0  0  0  0  0  0
  134.2110  124.4120   65.4150 O   0  0  0  0  0  0  0  0  0  0  0  0
  133.1320  124.9010   64.7020 C   0  0  0  0  0  0  0  0  0  0  0  0
  133.2530  124.9050   63.3140 C   0  0  0  0  0  0  0  0  0  0  0  0
  132.2190  125.3800   62.5150 C   0  0  0  0  0  0  0  0  0  0  0  0
  131.0320  125.8640   63.0850 C   0  0  0  0  0  0  0  0  0  0  0  0
  129.9170  126.3780   62.2300 C   0  0  0  0  0  0  0  0  0  0  0  0
  129.3390  125.5960   61.2250 C   0  0  0  0  0  0  0  0  0  0  0  0
  128.2970  126.0990   60.4400 C   0  0  0  0  0  0  0  0  0  0  0  0
  127.7140  125.2490   59.3770 C   0  0  0  0  0  0  0  0  0  0  0  0
  128.3980  125.0570   58.1750 C   0  0  0  0  0  0  0  0  0  0  0  0
  127.8520  124.2500   57.1810 C   0  0  0  0  0  0  0  0  0  0  0  0
  126.6190  123.6250   57.3700 C   0  0  0  0  0  0  0  0  0  0  0  0
  126.1570  122.8420   56.3300 O   0  0  0  0  0  0  0  0  0  0  0  0
  125.2020  123.3830   55.4230 C   0  0  0  0  0  0  0  0  0  0  0  0
  125.9310  123.8230   58.5780 C   0  0  0  0  0  0  0  0  0  0  0  0
  126.4780  124.6300   59.5720 C   0  0  0  0  0  0  0  0  0  0  0  0
  127.8410  127.4190   60.7010 C   0  0  0  0  0  0  0  0  0  0  0  0
  126.8110  128.2320   60.1070 C   0  0  0  0  0  0  0  0  0  0  0  0
  126.0270  127.7840   59.0750 N   0  0  0  0  0  0  0  0  0  0  0  0
  126.6910  129.5060   60.6830 C   0  0  0  0  0  0  0  0  0  0  0  0
  125.7570  130.5790   60.3340 C   0  0  0  0  0  0  0  0  0  0  0  0
  125.0200  130.4770   59.3500 O   0  0  0  0  0  0  0  0  0  0  0  0
  125.7740  131.6570   61.1590 N   0  0  0  0  0  0  0  0  0  0  0  0
  124.9980  132.8040   61.0670 C   0  0  0  0  0  0  0  0  0  0  0  0
  123.8490  133.0090   61.8300 C   0  0  0  0  0  0  0  0  0  0  0  0
  123.3780  134.2430   61.4430 C   0  0  0  0  0  0  0  0  0  0  0  0
  124.2020  134.7560   60.5000 O   0  0  0  0  0  0  0  0  0  0  0  0
  125.2270  133.8360   60.2700 N   0  0  0  0  0  0  0  0  0  0  0  0
  127.8600  129.7300   61.9860 S   0  0  0  0  0  0  0  0  0  0  0  0
  128.5000  128.1200   61.7520 C   0  0  0  0  0  0  0  0  0  0  0  0
  129.4950  127.6430   62.4980 N   0  0  0  0  0  0  0  0  0  0  0  0
  130.9160  125.8550   64.4810 C   0  0  0  0  0  0  0  0  0  0  0  0
  131.9500  125.3810   65.2840 C   0  0  0  0  0  0  0  0  0  0  0  0
  134.2607  124.4947   67.4815 H   0  0  0  0  0  0  0  0  0  0  0  0
  135.7047  125.1527   66.6398 H   0  0  0  0  0  0  0  0  0  0  0  0
  134.1654  126.0786   66.6398 H   0  0  0  0  0  0  0  0  0  0  0  0
  134.1748  124.5290   62.8461 H   0  0  0  0  0  0  0  0  0  0  0  0
  132.3332  125.3762   61.4210 H   0  0  0  0  0  0  0  0  0  0  0  0
  129.7079  124.5746   61.0502 H   0  0  0  0  0  0  0  0  0  0  0  0
  129.3706  125.5446   58.0132 H   0  0  0  0  0  0  0  0  0  0  0  0
  128.3979  124.1036   56.2373 H   0  0  0  0  0  0  0  0  0  0  0  0
  124.3813  123.8479   55.9889 H   0  0  0  0  0  0  0  0  0  0  0  0
  125.6862  124.1410   54.7897 H   0  0  0  0  0  0  0  0  0  0  0  0
  124.8008  122.5780   54.7897 H   0  0  0  0  0  0  0  0  0  0  0  0
  124.9566  123.3389   58.7395 H   0  0  0  0  0  0  0  0  0  0  0  0
  125.9335  124.7806   60.5158 H   0  0  0  0  0  0  0  0  0  0  0  0
  125.9290  126.7980   58.8790 H   0  0  0  0  0  0  0  0  0  0  0  0
  125.5230  128.4220   58.4750 H   0  0  0  0  0  0  0  0  0  0  0  0
  126.4200  131.6300   61.9330 H   0  0  0  0  0  0  0  0  0  0  0  0
  123.4134  132.3313   62.5790 H   0  0  0  0  0  0  0  0  0  0  0  0
  122.4759  134.7338   61.8372 H   0  0  0  0  0  0  0  0  0  0  0  0
  129.9937  126.2282   64.9501 H   0  0  0  0  0  0  0  0  0  0  0  0
  131.8393  125.3831   66.3784 H   0  0  0  0  0  0  0  0  0  0  0  0
  1  2  1  0
  2  3  1  0
  3  4  2  0
  4  5  1  0
  5  6  2  0
  6  7  1  0
  7  8  2  0
  8  9  1  0
  9 10  1  0
 10 11  2  0
 11 12  1  0
 12 13  2  0
 13 14  1  0
 14 15  1  0
 13 16  1  0
 16 17  2  0
  9 18  2  0
 18 19  1  0
 19 20  1  0
 19 21  2  0
 21 22  1  0
 22 23  2  0
 22 24  1  0
 24 25  1  0
 25 26  1  0
 26 27  2  0
 27 28  1  0
 28 29  1  0
 21 30  1  0
 30 31  1  0
 31 32  2  0
  6 33  1  0
 33 34  2  0
 34  3  1  0
 32  7  1  0
 17 10  1  0
 31 18  1  0
 29 25  2  0
  1 35  1  0
  1 36  1  0
  1 37  1  0
  4 38  1  0
  5 39  1  0
  8 40  1  0
 11 41  1  0
 12 42  1  0
 15 43  1  0
 15 44  1  0
 15 45  1  0
 16 46  1  0
 17 47  1  0
 20 48  1  0
 20 49  1  0
 24 50  1  0
 26 51  1  0
 27 52  1  0
 33 53  1  0
 34 54  1  0
M  END
>  <Binding energies>  (1) 
[-6.47]

>  <Ligand effiencies>  (1) 
[-0.17486486486486486]

>  <Interactions>  (1) 
["V-B:ASP:366:CG:8185, H-B:TYR:531:OH:9767, V-B:PRO:540:CA:9855, H-B:ASP:366:OD2:8187, V-B:PRO:540:N:9856, V-B:ILE:538:CB:9834, V-B:ILE:369:CD1:8211, V-B:TYR:531:CE2:9765, V-B:PRO:540:CB:9857, V-B:ILE:369:CG2:8209, V-B:LEU:475:CD2:9231, V-B:ILE:538:CG2:9835, V-A:GLU:543:CD:4906, V-B:ILE:538:CA:9832, V-A:HIS:456:CE1:4068, H-A:TYR:484:OH:4346, V-B:TYR:539:C:9839, H-A:GLY:454:N:4048, V-B:GLU:543:CD:9880, V-A:ARG:545:CZ:4924, V-B:ASP:366:CB:8184, V-B:ILE:369:CG1:8210, V-A:ARG:545:CD:4921, V-A:ARG:545:CG:4920, H-B:TYR:539:N:9842, V-B:GLY:454:CA:9021, H-B:ASP:366:OD1:8186, V-A:GLY:453:C:4040, V-B:SER:385:C:8377, V-A:ARG:545:CB:4919, V-A:ILE:455:C:4050, H-A:ILE:455:N:4053"]

$$$$
8c_Ghoteimi_2023
     RDKit          3D

 54 58  0  0  0  0  0  0  0  0999 V2000
  134.6130  125.0740   66.6120 C   0  0  0  0  0  0  0  0  0  0  0  0
  134.2170  124.4210   65.4120 O   0  0  0  0  0  0  0  0  0  0  0  0
  133.1360  124.9110   64.7030 C   0  0  0  0  0  0  0  0  0  0  0  0
  133.2460  124.9040   63.3140 C   0  0  0  0  0  0  0  0  0  0  0  0
  132.2080  125.3810   62.5200 C   0  0  0  0  0  0  0  0  0  0  0  0
  131.0290  125.8780   63.0960 C   0  0  0  0  0  0  0  0  0  0  0  0
  129.9110  126.3950   62.2480 C   0  0  0  0  0  0  0  0  0  0  0  0
  129.3250  125.6170   61.2450 C   0  0  0  0  0  0  0  0  0  0  0  0
  128.2780  126.1240   60.4680 C   0  0  0  0  0  0  0  0  0  0  0  0
  127.6860  125.2770   59.4080 C   0  0  0  0  0  0  0  0  0  0  0  0
  128.3850  125.0410   58.2220 C   0  0  0  0  0  0  0  0  0  0  0  0
  127.8310  124.2370   57.2310 C   0  0  0  0  0  0  0  0  0  0  0  0
  126.5720  123.6600   57.4060 C   0  0  0  0  0  0  0  0  0  0  0  0
  126.1030  122.8750   56.3710 O   0  0  0  0  0  0  0  0  0  0  0  0
  124.8900  123.2350   55.7200 C   0  0  0  0  0  0  0  0  0  0  0  0
  125.8690  123.9010   58.5970 C   0  0  0  0  0  0  0  0  0  0  0  0
  126.4250  124.7060   59.5880 C   0  0  0  0  0  0  0  0  0  0  0  0
  127.8290  127.4450   60.7330 C   0  0  0  0  0  0  0  0  0  0  0  0
  126.8000  128.2610   60.1450 C   0  0  0  0  0  0  0  0  0  0  0  0
  126.0080  127.8190   59.1150 N   0  0  0  0  0  0  0  0  0  0  0  0
  126.6870  129.5370   60.7220 C   0  0  0  0  0  0  0  0  0  0  0  0
  125.7550  130.6130   60.3790 C   0  0  0  0  0  0  0  0  0  0  0  0
  124.9640  130.4880   59.4410 O   0  0  0  0  0  0  0  0  0  0  0  0
  125.8380  131.7230   61.1550 N   0  0  0  0  0  0  0  0  0  0  0  0
  125.0740  132.8760   61.0450 C   0  0  0  0  0  0  0  0  0  0  0  0
  125.2650  133.8980   60.2390 N   0  0  0  0  0  0  0  0  0  0  0  0
  124.3400  134.8230   60.4020 C   0  0  0  0  0  0  0  0  0  0  0  0
  123.3680  134.5600   61.3620 C   0  0  0  0  0  0  0  0  0  0  0  0
  123.6940  133.0130   62.0860 S   0  0  0  0  0  0  0  0  0  0  0  0
  127.8610  129.7550   62.0200 S   0  0  0  0  0  0  0  0  0  0  0  0
  128.4950  128.1430   61.7810 C   0  0  0  0  0  0  0  0  0  0  0  0
  129.4940  127.6610   62.5210 N   0  0  0  0  0  0  0  0  0  0  0  0
  130.9240  125.8780   64.4940 C   0  0  0  0  0  0  0  0  0  0  0  0
  131.9620  125.4030   65.2910 C   0  0  0  0  0  0  0  0  0  0  0  0
  134.2614  124.4942   67.4782 H   0  0  0  0  0  0  0  0  0  0  0  0
  135.7099  125.1507   66.6429 H   0  0  0  0  0  0  0  0  0  0  0  0
  134.1740  126.0821   66.6429 H   0  0  0  0  0  0  0  0  0  0  0  0
  134.1612  124.5181   62.8413 H   0  0  0  0  0  0  0  0  0  0  0  0
  132.3130  125.3684   61.4251 H   0  0  0  0  0  0  0  0  0  0  0  0
  129.6911  124.5955   61.0649 H   0  0  0  0  0  0  0  0  0  0  0  0
  129.3767  125.4923   58.0711 H   0  0  0  0  0  0  0  0  0  0  0  0
  128.3900  124.0544   56.3014 H   0  0  0  0  0  0  0  0  0  0  0  0
  124.1226  123.4628   56.4744 H   0  0  0  0  0  0  0  0  0  0  0  0
  125.0604  124.1213   55.0912 H   0  0  0  0  0  0  0  0  0  0  0  0
  124.5493  122.3992   55.0912 H   0  0  0  0  0  0  0  0  0  0  0  0
  124.8759  123.4526   58.7479 H   0  0  0  0  0  0  0  0  0  0  0  0
  125.8675  124.8929   60.5176 H   0  0  0  0  0  0  0  0  0  0  0  0
  125.9400  126.8360   58.8880 H   0  0  0  0  0  0  0  0  0  0  0  0
  125.4680  128.4570   58.5490 H   0  0  0  0  0  0  0  0  0  0  0  0
  126.5210  131.7180   61.8980 H   0  0  0  0  0  0  0  0  0  0  0  0
  124.3368  135.7512   59.8118 H   0  0  0  0  0  0  0  0  0  0  0  0
  122.5294  135.2231   61.6210 H   0  0  0  0  0  0  0  0  0  0  0  0
  130.0076  126.2591   64.9684 H   0  0  0  0  0  0  0  0  0  0  0  0
  131.8607  125.4137   66.3863 H   0  0  0  0  0  0  0  0  0  0  0  0
  1  2  1  0
  2  3  1  0
  3  4  2  0
  4  5  1  0
  5  6  2  0
  6  7  1  0
  7  8  2  0
  8  9  1  0
  9 10  1  0
 10 11  2  0
 11 12  1  0
 12 13  2  0
 13 14  1  0
 14 15  1  0
 13 16  1  0
 16 17  2  0
  9 18  2  0
 18 19  1  0
 19 20  1  0
 19 21  2  0
 21 22  1  0
 22 23  2  0
 22 24  1  0
 24 25  1  0
 25 26  2  0
 26 27  1  0
 27 28  2  0
 28 29  1  0
 21 30  1  0
 30 31  1  0
 31 32  2  0
  6 33  1  0
 33 34  2  0
 34  3  1  0
 32  7  1  0
 17 10  1  0
 31 18  1  0
 29 25  1  0
  1 35  1  0
  1 36  1  0
  1 37  1  0
  4 38  1  0
  5 39  1  0
  8 40  1  0
 11 41  1  0
 12 42  1  0
 15 43  1  0
 15 44  1  0
 15 45  1  0
 16 46  1  0
 17 47  1  0
 20 48  1  0
 20 49  1  0
 24 50  1  0
 27 51  1  0
 28 52  1  0
 33 53  1  0
 34 54  1  0
M  END
>  <Binding energies>  (1) 
[-6.52]

>  <Ligand effiencies>  (1) 
[-0.1762162162162162]

>  <Interactions>  (1) 
["V-B:ASP:366:CG:8185, H-B:TYR:531:OH:9767, V-B:PRO:540:CA:9855, H-B:ASP:366:OD2:8187, V-B:PRO:540:N:9856, V-B:ILE:538:CB:9834, V-B:ILE:369:CD1:8211, V-A:TYR:539:CD2:4872, V-B:TYR:531:CE2:9765, V-B:PRO:540:CD:9859, V-B:PRO:540:CB:9857, V-B:ILE:369:CG2:8209, V-B:LEU:475:CD2:9231, V-A:TYR:539:CE2:4874, V-B:ILE:538:CG2:9835, V-B:TRP:381:CH2:8344, V-B:TRP:381:CZ2:8342, V-A:GLU:543:CD:4906, V-B:ILE:538:CA:9832, V-A:HIS:456:CE1:4068, H-A:TYR:484:OH:4346, V-B:TYR:539:C:9839, H-A:GLY:454:N:4048, V-B:GLU:543:CD:9880, V-A:ARG:545:CZ:4924, V-B:ASP:366:CB:8184, V-B:ILE:369:CG1:8210, V-A:ARG:545:CD:4921, V-A:ARG:545:CG:4920, H-B:TYR:539:N:9842, V-B:GLY:454:CA:9021, H-B:ASP:366:OD1:8186, V-A:GLY:453:C:4040, V-B:SER:385:C:8377, V-A:ARG:545:CB:4919, V-A:ILE:455:C:4050, V-B:SER:385:CA:8379, H-A:ILE:455:N:4053"]

$$$$
8d_Ghoteimi_2023
     RDKit          3D

 50 53  0  0  0  0  0  0  0  0999 V2000
  129.5210  131.8400   54.9470 C   0  0  0  0  0  0  0  0  0  0  0  0
  130.5280  132.6230   55.5730 O   0  0  0  0  0  0  0  0  0  0  0  0
  131.3330  132.0890   56.5280 C   0  0  0  0  0  0  0  0  0  0  0  0
  132.5640  132.1540   56.5070 O   0  0  0  0  0  0  0  0  0  0  0  0
  130.5780  131.4140   57.6060 C   0  0  0  0  0  0  0  0  0  0  0  0
  129.2950  132.2780   58.4550 S   0  0  0  0  0  0  0  0  0  0  0  0
  128.9710  130.8860   59.4630 C   0  0  0  0  0  0  0  0  0  0  0  0
  128.0220  130.9000   60.3990 N   0  0  0  0  0  0  0  0  0  0  0  0
  127.8520  129.7630   61.1250 C   0  0  0  0  0  0  0  0  0  0  0  0
  126.7840  129.8070   62.1720 C   0  0  0  0  0  0  0  0  0  0  0  0
  125.5220  130.3540   61.8970 C   0  0  0  0  0  0  0  0  0  0  0  0
  124.5320  130.3930   62.8740 C   0  0  0  0  0  0  0  0  0  0  0  0
  124.7760  129.8890   64.1510 C   0  0  0  0  0  0  0  0  0  0  0  0
  123.7360  129.9690   65.0560 O   0  0  0  0  0  0  0  0  0  0  0  0
  124.0270  129.9790   66.4500 C   0  0  0  0  0  0  0  0  0  0  0  0
  126.0330  129.3380   64.4360 C   0  0  0  0  0  0  0  0  0  0  0  0
  127.0210  129.3000   63.4550 C   0  0  0  0  0  0  0  0  0  0  0  0
  128.6330  128.6220   60.9190 C   0  0  0  0  0  0  0  0  0  0  0  0
  129.6260  128.6060   59.9360 C   0  0  0  0  0  0  0  0  0  0  0  0
  130.4320  127.3790   59.7360 C   0  0  0  0  0  0  0  0  0  0  0  0
  130.4150  126.7210   58.5040 C   0  0  0  0  0  0  0  0  0  0  0  0
  131.1650  125.5630   58.3190 C   0  0  0  0  0  0  0  0  0  0  0  0
  131.9440  125.0490   59.3570 C   0  0  0  0  0  0  0  0  0  0  0  0
  132.6530  123.8960   59.0820 O   0  0  0  0  0  0  0  0  0  0  0  0
  133.9690  124.0000   58.5500 C   0  0  0  0  0  0  0  0  0  0  0  0
  131.9620  125.7150   60.5930 C   0  0  0  0  0  0  0  0  0  0  0  0
  131.2110  126.8730   60.7770 C   0  0  0  0  0  0  0  0  0  0  0  0
  129.8190  129.7820   59.1630 C   0  0  0  0  0  0  0  0  0  0  0  0
  130.7270  130.1130   58.0990 C   0  0  0  0  0  0  0  0  0  0  0  0
  131.6580  129.2260   57.6200 N   0  0  0  0  0  0  0  0  0  0  0  0
  128.9005  131.3575   55.7165 H   0  0  0  0  0  0  0  0  0  0  0  0
  128.8902  132.4872   54.3200 H   0  0  0  0  0  0  0  0  0  0  0  0
  129.9928  131.0691   54.3200 H   0  0  0  0  0  0  0  0  0  0  0  0
  125.3121  130.7576   60.8955 H   0  0  0  0  0  0  0  0  0  0  0  0
  123.5486  130.8251   62.6370 H   0  0  0  0  0  0  0  0  0  0  0  0
  123.0873  129.9467   67.0210 H   0  0  0  0  0  0  0  0  0  0  0  0
  124.6401  129.1014   66.7029 H   0  0  0  0  0  0  0  0  0  0  0  0
  124.5784  130.8966   66.7029 H   0  0  0  0  0  0  0  0  0  0  0  0
  126.2399  128.9342   65.4381 H   0  0  0  0  0  0  0  0  0  0  0  0
  128.0030  128.8647   63.6922 H   0  0  0  0  0  0  0  0  0  0  0  0
  128.4641  127.7278   61.5369 H   0  0  0  0  0  0  0  0  0  0  0  0
  129.8074  127.1189   57.6779 H   0  0  0  0  0  0  0  0  0  0  0  0
  131.1436  125.0487   57.3468 H   0  0  0  0  0  0  0  0  0  0  0  0
  134.6945  124.0573   59.3749 H   0  0  0  0  0  0  0  0  0  0  0  0
  134.1856  123.1162   57.9320 H   0  0  0  0  0  0  0  0  0  0  0  0
  134.0441  124.9069   57.9320 H   0  0  0  0  0  0  0  0  0  0  0  0
  132.5718  125.3204   61.4191 H   0  0  0  0  0  0  0  0  0  0  0  0
  131.2320  127.3910   61.7472 H   0  0  0  0  0  0  0  0  0  0  0  0
  131.9780  129.2640   56.6620 H   0  0  0  0  0  0  0  0  0  0  0  0
  132.0600  128.5100   58.2070 H   0  0  0  0  0  0  0  0  0  0  0  0
  1  2  1  0
  2  3  1  0
  3  4  2  0
  3  5  1  0
  5  6  1  0
  6  7  1  0
  7  8  2  0
  8  9  1  0
  9 10  1  0
 10 11  2  0
 11 12  1  0
 12 13  2  0
 13 14  1  0
 14 15  1  0
 13 16  1  0
 16 17  2  0
  9 18  2  0
 18 19  1  0
 19 20  1  0
 20 21  2  0
 21 22  1  0
 22 23  2  0
 23 24  1  0
 24 25  1  0
 23 26  1  0
 26 27  2  0
 19 28  2  0
 28 29  1  0
 29 30  1  0
 29  5  2  0
 28  7  1  0
 17 10  1  0
 27 20  1  0
  1 31  1  0
  1 32  1  0
  1 33  1  0
 11 34  1  0
 12 35  1  0
 15 36  1  0
 15 37  1  0
 15 38  1  0
 16 39  1  0
 17 40  1  0
 18 41  1  0
 21 42  1  0
 22 43  1  0
 25 44  1  0
 25 45  1  0
 25 46  1  0
 26 47  1  0
 27 48  1  0
 30 49  1  0
 30 50  1  0
M  END
>  <Binding energies>  (1) 
[-7.07]

>  <Ligand effiencies>  (1) 
[-0.2209375]

>  <Interactions>  (1) 
["V-A:PRO:540:CD:4885, V-A:PRO:540:N:4882, V-A:ILE:369:CG2:3235, V-A:ILE:538:CA:4858, V-A:TYR:531:CZ:4792, V-A:ILE:369:CD1:3237, V-B:TYR:539:CE2:9848, V-A:ASP:366:CG:3211, H-A:TYR:531:OH:4793, V-A:TYR:539:CD2:4872, V-A:ASP:366:CB:3210, H-A:ASP:366:OD2:3213, V-A:PRO:540:CA:4881, V-A:GLU:543:CD:4906, V-B:ARG:545:CZ:9898, H-B:ARG:545:NE:9896, H-B:GLY:454:N:9022, V-A:TYR:539:C:4865, V-A:TYR:539:CE1:4873, H-B:TYR:484:OH:9320, V-A:TYR:539:CD1:4871, V-B:HIS:456:CE1:9042, V-A:ILE:369:CB:3234, H-A:TYR:539:N:4868, V-B:ARG:545:CG:9894, V-B:ARG:545:CD:9895, V-B:TYR:484:CZ:9319, V-A:ASP:366:CA:3208, V-B:GLY:454:CA:9021, H-B:ARG:545:NH1:9899"]

$$$$
9a_Ghoteimi_2023
     RDKit          3D

 85 91  0  0  0  0  0  0  0  0999 V2000
  126.4230  130.5940   57.2600 C   0  0  0  0  0  0  0  0  0  0  0  0
  125.3290  129.7900   56.5500 C   0  0  0  0  0  0  0  0  0  0  0  0
  124.0960  129.9560   57.2390 O   0  0  0  0  0  0  0  0  0  0  0  0
  123.9480  130.9130   58.1900 C   0  0  0  0  0  0  0  0  0  0  0  0
  123.3280  131.9650   58.0060 O   0  0  0  0  0  0  0  0  0  0  0  0
  124.6210  130.5690   59.4880 C   0  0  0  0  0  0  0  0  0  0  0  0
  125.2850  129.3420   59.6120 C   0  0  0  0  0  0  0  0  0  0  0  0
  125.9160  128.9940   60.8020 C   0  0  0  0  0  0  0  0  0  0  0  0
  125.8990  129.8630   61.8930 C   0  0  0  0  0  0  0  0  0  0  0  0
  126.5690  129.4070   63.0440 N   0  0  0  0  0  0  0  0  0  0  0  0
  126.8330  130.0370   64.2160 C   0  0  0  0  0  0  0  0  0  0  0  0
  126.4980  131.1950   64.4690 O   0  0  0  0  0  0  0  0  0  0  0  0
  127.5590  129.2380   65.2070 C   0  0  0  0  0  0  0  0  0  0  0  0
  127.4460  129.6310   66.9230 S   0  0  0  0  0  0  0  0  0  0  0  0
  128.4990  128.3010   67.3440 C   0  0  0  0  0  0  0  0  0  0  0  0
  128.8130  128.0320   68.6100 N   0  0  0  0  0  0  0  0  0  0  0  0
  129.6300  126.9680   68.8310 C   0  0  0  0  0  0  0  0  0  0  0  0
  129.9590  126.6780   70.2590 C   0  0  0  0  0  0  0  0  0  0  0  0
  131.2900  126.6570   70.6920 C   0  0  0  0  0  0  0  0  0  0  0  0
  131.6050  126.3890   72.0220 C   0  0  0  0  0  0  0  0  0  0  0  0
  130.6010  126.1440   72.9710 C   0  0  0  0  0  0  0  0  0  0  0  0
  130.9030  125.8540   74.3050 N   0  0  0  0  0  0  0  0  0  0  0  0
  131.5790  124.5980   74.6890 C   0  0  0  0  0  0  0  0  0  0  0  0
  131.5040  124.2860   76.1980 C   0  0  0  0  0  0  0  0  0  0  0  0
  132.0050  125.3820   76.9460 O   0  0  0  0  0  0  0  0  0  0  0  0
  131.2530  126.5610   76.7070 C   0  0  0  0  0  0  0  0  0  0  0  0
  131.3270  126.9400   75.2140 C   0  0  0  0  0  0  0  0  0  0  0  0
  129.2700  126.1510   72.5280 C   0  0  0  0  0  0  0  0  0  0  0  0
  128.9550  126.4170   71.1990 C   0  0  0  0  0  0  0  0  0  0  0  0
  130.1510  126.1990   67.7880 C   0  0  0  0  0  0  0  0  0  0  0  0
  129.8400  126.4910   66.4550 C   0  0  0  0  0  0  0  0  0  0  0  0
  130.4490  125.6640   65.3820 C   0  0  0  0  0  0  0  0  0  0  0  0
  131.1860  126.2600   64.3560 C   0  0  0  0  0  0  0  0  0  0  0  0
  131.7680  125.4820   63.3600 C   0  0  0  0  0  0  0  0  0  0  0  0
  131.6440  124.0830   63.3730 C   0  0  0  0  0  0  0  0  0  0  0  0
  132.2100  123.2820   62.3780 N   0  0  0  0  0  0  0  0  0  0  0  0
  131.3270  122.6330   61.3880 C   0  0  0  0  0  0  0  0  0  0  0  0
  132.0820  122.1070   60.1490 C   0  0  0  0  0  0  0  0  0  0  0  0
  133.1250  121.2320   60.5490 O   0  0  0  0  0  0  0  0  0  0  0  0
  134.0640  121.8840   61.3880 C   0  0  0  0  0  0  0  0  0  0  0  0
  133.3630  122.4040   62.6610 C   0  0  0  0  0  0  0  0  0  0  0  0
  130.9050  123.4950   64.4090 C   0  0  0  0  0  0  0  0  0  0  0  0
  130.3190  124.2740   65.4030 C   0  0  0  0  0  0  0  0  0  0  0  0
  128.9560  127.5790   66.2030 C   0  0  0  0  0  0  0  0  0  0  0  0
  128.3830  128.1220   64.9960 C   0  0  0  0  0  0  0  0  0  0  0  0
  128.6180  127.5790   63.7580 N   0  0  0  0  0  0  0  0  0  0  0  0
  125.2390  131.0970   61.7780 C   0  0  0  0  0  0  0  0  0  0  0  0
  124.6070  131.4430   60.5860 C   0  0  0  0  0  0  0  0  0  0  0  0
  126.2975  130.5018   58.3489 H   0  0  0  0  0  0  0  0  0  0  0  0
  127.4103  130.2050   56.9704 H   0  0  0  0  0  0  0  0  0  0  0  0
  126.3466  131.6524   56.9704 H   0  0  0  0  0  0  0  0  0  0  0  0
  125.2225  130.1495   55.5159 H   0  0  0  0  0  0  0  0  0  0  0  0
  125.6038  128.7249   56.5415 H   0  0  0  0  0  0  0  0  0  0  0  0
  125.3078  128.6466   58.7600 H   0  0  0  0  0  0  0  0  0  0  0  0
  126.4323  128.0261   60.8832 H   0  0  0  0  0  0  0  0  0  0  0  0
  126.8990  128.4550   62.9760 H   0  0  0  0  0  0  0  0  0  0  0  0
  132.0980  126.8548   69.9722 H   0  0  0  0  0  0  0  0  0  0  0  0
  132.6597  126.3691   72.3339 H   0  0  0  0  0  0  0  0  0  0  0  0
  131.1085  123.7691   74.1398 H   0  0  0  0  0  0  0  0  0  0  0  0
  132.6436  124.7182   74.4395 H   0  0  0  0  0  0  0  0  0  0  0  0
  130.4570  124.1009   76.4800 H   0  0  0  0  0  0  0  0  0  0  0  0
  132.1117  123.3946   76.4128 H   0  0  0  0  0  0  0  0  0  0  0  0
  130.2036  126.3868   76.9871 H   0  0  0  0  0  0  0  0  0  0  0  0
  131.6683  127.3825   77.3092 H   0  0  0  0  0  0  0  0  0  0  0  0
  130.6758  127.8100   75.0436 H   0  0  0  0  0  0  0  0  0  0  0  0
  132.3818  127.1556   74.9883 H   0  0  0  0  0  0  0  0  0  0  0  0
  128.4612  125.9426   73.2438 H   0  0  0  0  0  0  0  0  0  0  0  0
  127.9016  126.4223   70.8824 H   0  0  0  0  0  0  0  0  0  0  0  0
  130.8148  125.3523   68.0173 H   0  0  0  0  0  0  0  0  0  0  0  0
  131.3073  127.3531   64.3352 H   0  0  0  0  0  0  0  0  0  0  0  0
  132.3328  125.9692   62.5515 H   0  0  0  0  0  0  0  0  0  0  0  0
  130.8207  121.7860   61.8740 H   0  0  0  0  0  0  0  0  0  0  0  0
  130.6156  123.3950   61.0369 H   0  0  0  0  0  0  0  0  0  0  0  0
  131.3804  121.5637   59.4989 H   0  0  0  0  0  0  0  0  0  0  0  0
  132.5153  122.9580   59.6031 H   0  0  0  0  0  0  0  0  0  0  0  0
  134.8540  121.1732   61.6718 H   0  0  0  0  0  0  0  0  0  0  0  0
  134.5039  122.7338   60.8454 H   0  0  0  0  0  0  0  0  0  0  0  0
  133.0089  121.5396   63.2419 H   0  0  0  0  0  0  0  0  0  0  0  0
  134.0997  123.0038   63.2156 H   0  0  0  0  0  0  0  0  0  0  0  0
  130.7863  122.4018   64.4370 H   0  0  0  0  0  0  0  0  0  0  0  0
  129.7495  123.7909   66.2107 H   0  0  0  0  0  0  0  0  0  0  0  0
  129.5190  127.6510   63.3070 H   0  0  0  0  0  0  0  0  0  0  0  0
  127.8930  127.0880   63.2540 H   0  0  0  0  0  0  0  0  0  0  0  0
  125.2210  131.7916   62.6307 H   0  0  0  0  0  0  0  0  0  0  0  0
  124.0916  132.4113   60.5044 H   0  0  0  0  0  0  0  0  0  0  0  0
  1  2  1  0
  2  3  1  0
  3  4  1  0
  4  5  2  0
  4  6  1  0
  6  7  2  0
  7  8  1  0
  8  9  2  0
  9 10  1  0
 10 11  1  0
 11 12  2  0
 11 13  1  0
 13 14  1  0
 14 15  1  0
 15 16  2  0
 16 17  1  0
 17 18  1  0
 18 19  2  0
 19 20  1  0
 20 21  2  0
 21 22  1  0
 22 23  1  0
 23 24  1  0
 24 25  1  0
 25 26  1  0
 26 27  1  0
 21 28  1  0
 28 29  2  0
 17 30  2  0
 30 31  1  0
 31 32  1  0
 32 33  2  0
 33 34  1  0
 34 35  2  0
 35 36  1  0
 36 37  1  0
 37 38  1  0
 38 39  1  0
 39 40  1  0
 40 41  1  0
 35 42  1  0
 42 43  2  0
 31 44  2  0
 44 45  1  0
 45 46  1  0
  9 47  1  0
 47 48  2  0
 48  6  1  0
 45 13  2  0
 44 15  1  0
 29 18  1  0
 43 32  1  0
 27 22  1  0
 41 36  1  0
  1 49  1  0
  1 50  1  0
  1 51  1  0
  2 52  1  0
  2 53  1  0
  7 54  1  0
  8 55  1  0
 10 56  1  0
 19 57  1  0
 20 58  1  0
 23 59  1  0
 23 60  1  0
 24 61  1  0
 24 62  1  0
 26 63  1  0
 26 64  1  0
 27 65  1  0
 27 66  1  0
 28 67  1  0
 29 68  1  0
 30 69  1  0
 33 70  1  0
 34 71  1  0
 37 72  1  0
 37 73  1  0
 38 74  1  0
 38 75  1  0
 40 76  1  0
 40 77  1  0
 41 78  1  0
 41 79  1  0
 42 80  1  0
 43 81  1  0
 46 82  1  0
 46 83  1  0
 47 84  1  0
 48 85  1  0
M  END
>  <Binding energies>  (1) 
[1.15]

>  <Ligand effiencies>  (1) 
[0.022549019607843137]

>  <Interactions>  (1) 
["V-B:ASP:366:CG:8185, V-B:TYR:539:CD2:9846, H-B:TYR:531:OH:9767, V-A:LEU:475:CD2:4257, V-A:ILE:369:CG2:3235, V-A:ILE:369:CD1:3237, V-B:TYR:539:CE2:9848, V-A:TYR:539:CE2:4874, V-A:TYR:539:CZ:4875, H-B:GLU:543:OE2:9882, H-B:GLU:543:OE1:9881, H-A:GLU:543:OE2:4908, V-A:GLU:543:CD:4906, V-A:HIS:456:CE1:4068, H-A:GLU:543:OE1:4907, V-B:GLU:543:CD:9880, V-A:ARG:545:CZ:4924, V-B:GLU:543:CB:9878, V-B:GLU:543:CG:9879, V-A:GLU:543:CG:4905, H-B:TYR:484:OH:9320, V-A:GLU:543:CB:4904, V-B:HIS:456:CE1:9042, V-B:ASP:366:CB:8184, H-A:TYR:539:OH:4876, V-B:ASP:366:CA:8182, V-B:GLY:544:C:9884, V-A:LYS:547:CE:4948, V-A:GLY:544:C:4910, V-B:LYS:547:CE:9922, V-A:HIS:456:CD2:4066, V-B:GLU:543:C:9874, V-A:HIS:456:CG:4064, V-B:GLY:544:CA:9886, V-B:TYR:531:CE1:9764, V-A:GLY:454:CA:4047, V-A:TYR:484:CZ:4345, V-B:TYR:484:CZ:9319, V-A:LYS:471:CD:4217, V-A:HIS:456:CB:4063, V-A:LYS:471:CE:4218, V-A:LYS:547:CD:4947, V-A:TYR:484:CE1:4343, V-A:ARG:545:CA:4917"]

$$$$
9b_Ghoteimi_2023
     RDKit          3D

 72 78  0  0  0  0  0  0  0  0999 V2000
  128.4610  128.1950   63.3480 N   0  0  0  0  0  0  0  0  0  0  0  0
  128.0450  128.5120   64.6160 C   0  0  0  0  0  0  0  0  0  0  0  0
  127.0420  129.4560   64.8880 C   0  0  0  0  0  0  0  0  0  0  0  0
  126.2490  130.2440   63.9410 C   0  0  0  0  0  0  0  0  0  0  0  0
  125.0250  130.1080   63.8790 O   0  0  0  0  0  0  0  0  0  0  0  0
  126.9550  131.1030   63.1630 N   0  0  0  0  0  0  0  0  0  0  0  0
  126.4640  131.9550   62.1820 C   0  0  0  0  0  0  0  0  0  0  0  0
  125.2780  132.6740   62.3230 C   0  0  0  0  0  0  0  0  0  0  0  0
  125.1520  133.3880   61.1530 C   0  0  0  0  0  0  0  0  0  0  0  0
  126.2070  133.1120   60.3500 O   0  0  0  0  0  0  0  0  0  0  0  0
  127.0320  132.2030   61.0130 N   0  0  0  0  0  0  0  0  0  0  0  0
  126.7870  129.6330   66.6230 S   0  0  0  0  0  0  0  0  0  0  0  0
  128.0330  128.4590   66.9730 C   0  0  0  0  0  0  0  0  0  0  0  0
  128.3650  128.1450   68.2240 N   0  0  0  0  0  0  0  0  0  0  0  0
  129.3600  127.2330   68.3870 C   0  0  0  0  0  0  0  0  0  0  0  0
  129.7270  126.9140   69.8000 C   0  0  0  0  0  0  0  0  0  0  0  0
  131.0640  126.9030   70.2160 C   0  0  0  0  0  0  0  0  0  0  0  0
  131.4000  126.5910   71.5300 C   0  0  0  0  0  0  0  0  0  0  0  0
  130.4140  126.2640   72.4730 C   0  0  0  0  0  0  0  0  0  0  0  0
  130.7370  125.9510   73.7980 N   0  0  0  0  0  0  0  0  0  0  0  0
  131.2710  126.9720   74.7210 C   0  0  0  0  0  0  0  0  0  0  0  0
  131.2410  126.5480   76.2040 C   0  0  0  0  0  0  0  0  0  0  0  0
  131.9160  125.3130   76.3690 O   0  0  0  0  0  0  0  0  0  0  0  0
  131.3040  124.2800   75.6140 C   0  0  0  0  0  0  0  0  0  0  0  0
  131.3310  124.6340   74.1110 C   0  0  0  0  0  0  0  0  0  0  0  0
  129.0760  126.2960   72.0560 C   0  0  0  0  0  0  0  0  0  0  0  0
  128.7380  126.6130   70.7430 C   0  0  0  0  0  0  0  0  0  0  0  0
  129.9970  126.6220   67.3050 C   0  0  0  0  0  0  0  0  0  0  0  0
  129.6370  126.9340   65.9890 C   0  0  0  0  0  0  0  0  0  0  0  0
  130.3250  126.2350   64.8740 C   0  0  0  0  0  0  0  0  0  0  0  0
  129.8090  126.2960   63.5790 C   0  0  0  0  0  0  0  0  0  0  0  0
  130.4610  125.6580   62.5290 C   0  0  0  0  0  0  0  0  0  0  0  0
  131.6480  124.9390   62.7450 C   0  0  0  0  0  0  0  0  0  0  0  0
  132.3270  124.3040   61.7030 N   0  0  0  0  0  0  0  0  0  0  0  0
  132.5530  122.8470   61.7700 C   0  0  0  0  0  0  0  0  0  0  0  0
  133.6360  122.3530   60.7860 C   0  0  0  0  0  0  0  0  0  0  0  0
  133.3060  122.7490   59.4630 O   0  0  0  0  0  0  0  0  0  0  0  0
  133.2140  124.1610   59.3450 C   0  0  0  0  0  0  0  0  0  0  0  0
  132.1250  124.7020   60.2950 C   0  0  0  0  0  0  0  0  0  0  0  0
  132.1660  124.9000   64.0480 C   0  0  0  0  0  0  0  0  0  0  0  0
  131.5140  125.5390   65.0980 C   0  0  0  0  0  0  0  0  0  0  0  0
  128.6220  127.9120   65.7940 C   0  0  0  0  0  0  0  0  0  0  0  0
  129.2630  128.6410   62.9230 H   0  0  0  0  0  0  0  0  0  0  0  0
  127.9780  127.5020   62.7930 H   0  0  0  0  0  0  0  0  0  0  0  0
  127.9530  131.1370   63.3070 H   0  0  0  0  0  0  0  0  0  0  0  0
  124.5918  132.6713   63.1827 H   0  0  0  0  0  0  0  0  0  0  0  0
  124.3266  134.0731   60.9093 H   0  0  0  0  0  0  0  0  0  0  0  0
  131.8590  127.1441   69.4949 H   0  0  0  0  0  0  0  0  0  0  0  0
  132.4570  126.6009   71.8345 H   0  0  0  0  0  0  0  0  0  0  0  0
  132.3141  127.1808   74.4411 H   0  0  0  0  0  0  0  0  0  0  0  0
  130.6246  127.8572   74.6279 H   0  0  0  0  0  0  0  0  0  0  0  0
  131.7367  127.3182   76.8131 H   0  0  0  0  0  0  0  0  0  0  0  0
  130.1953  126.4336   76.5256 H   0  0  0  0  0  0  0  0  0  0  0  0
  131.8497  123.3387   75.7760 H   0  0  0  0  0  0  0  0  0  0  0  0
  130.2591  124.1674   75.9387 H   0  0  0  0  0  0  0  0  0  0  0  0
  132.3781  124.6368   73.7740 H   0  0  0  0  0  0  0  0  0  0  0  0
  130.7241  123.8772   73.5924 H   0  0  0  0  0  0  0  0  0  0  0  0
  128.2791  126.0666   72.7788 H   0  0  0  0  0  0  0  0  0  0  0  0
  127.6798  126.6270   70.4431 H   0  0  0  0  0  0  0  0  0  0  0  0
  130.7927  125.8853   67.4895 H   0  0  0  0  0  0  0  0  0  0  0  0
  128.8799  126.8527   63.3871 H   0  0  0  0  0  0  0  0  0  0  0  0
  130.0407  125.7175   61.5142 H   0  0  0  0  0  0  0  0  0  0  0  0
  132.8656  122.5884   62.7925 H   0  0  0  0  0  0  0  0  0  0  0  0
  131.6090  122.3567   61.4899 H   0  0  0  0  0  0  0  0  0  0  0  0
  134.6073  122.7875   61.0649 H   0  0  0  0  0  0  0  0  0  0  0  0
  133.6920  121.2554   60.8314 H   0  0  0  0  0  0  0  0  0  0  0  0
  134.1824  124.6120   59.6072 H   0  0  0  0  0  0  0  0  0  0  0  0
  132.9493  124.4195   58.3091 H   0  0  0  0  0  0  0  0  0  0  0  0
  132.1274  125.8006   60.2390 H   0  0  0  0  0  0  0  0  0  0  0  0
  131.1662  124.2722   59.9695 H   0  0  0  0  0  0  0  0  0  0  0  0
  133.1020  124.3559   64.2427 H   0  0  0  0  0  0  0  0  0  0  0  0
  131.9386  125.4954   66.1118 H   0  0  0  0  0  0  0  0  0  0  0  0
  1  2  1  0
  2  3  2  0
  3  4  1  0
  4  5  2  0
  4  6  1  0
  6  7  1  0
  7  8  1  0
  8  9  2  0
  9 10  1  0
 10 11  1  0
  3 12  1  0
 12 13  1  0
 13 14  2  0
 14 15  1  0
 15 16  1  0
 16 17  2  0
 17 18  1  0
 18 19  2  0
 19 20  1  0
 20 21  1  0
 21 22  1  0
 22 23  1  0
 23 24  1  0
 24 25  1  0
 19 26  1  0
 26 27  2  0
 15 28  2  0
 28 29  1  0
 29 30  1  0
 30 31  2  0
 31 32  1  0
 32 33  2  0
 33 34  1  0
 34 35  1  0
 35 36  1  0
 36 37  1  0
 37 38  1  0
 38 39  1  0
 33 40  1  0
 40 41  2  0
 29 42  2  0
 42  2  1  0
 11  7  2  0
 42 13  1  0
 27 16  1  0
 41 30  1  0
 25 20  1  0
 39 34  1  0
  1 43  1  0
  1 44  1  0
  6 45  1  0
  8 46  1  0
  9 47  1  0
 17 48  1  0
 18 49  1  0
 21 50  1  0
 21 51  1  0
 22 52  1  0
 22 53  1  0
 24 54  1  0
 24 55  1  0
 25 56  1  0
 25 57  1  0
 26 58  1  0
 27 59  1  0
 28 60  1  0
 31 61  1  0
 32 62  1  0
 35 63  1  0
 35 64  1  0
 36 65  1  0
 36 66  1  0
 38 67  1  0
 38 68  1  0
 39 69  1  0
 39 70  1  0
 40 71  1  0
 41 72  1  0
M  END
>  <Binding energies>  (1) 
[-1.85]

>  <Ligand effiencies>  (1) 
[-0.04111111111111111]

>  <Interactions>  (1) 
["V-A:ILE:369:CG2:3235, V-A:ILE:369:CD1:3237, V-A:ASP:366:CG:3211, V-A:ASP:366:CB:3210, V-B:LEU:475:CD2:9231, V-A:TYR:539:CE2:4874, H-B:GLU:543:OE2:9882, H-B:GLU:543:OE1:9881, H-A:GLU:543:OE2:4908, V-A:GLU:543:CD:4906, H-B:ARG:545:NH2:9900, V-A:HIS:456:CE1:4068, H-A:GLU:543:OE1:4907, V-B:GLU:543:CD:9880, V-A:ARG:545:CZ:4924, V-B:GLU:543:CB:9878, V-B:GLU:543:CG:9879, V-A:GLU:543:CG:4905, H-B:TYR:484:OH:9320, V-A:GLU:543:CB:4904, V-B:HIS:456:CE1:9042, V-B:GLY:544:C:9884, V-A:LYS:547:CE:4948, V-A:GLY:544:C:4910, V-B:LYS:547:CE:9922, V-A:HIS:456:CD2:4066, V-B:GLU:543:C:9874, V-A:HIS:456:CG:4064, H-B:LYS:547:NZ:9923, V-B:GLY:544:CA:9886, V-B:TYR:484:CZ:9319, V-A:HIS:456:CB:4063, V-A:LYS:471:CE:4218, V-A:LYS:547:CD:4947, V-A:ARG:545:CA:4917"]

$$$$
9c_Ghoteimi_2023
     RDKit          3D

 72 78  0  0  0  0  0  0  0  0999 V2000
  128.4360  128.1780   63.3480 N   0  0  0  0  0  0  0  0  0  0  0  0
  128.0160  128.4940   64.6150 C   0  0  0  0  0  0  0  0  0  0  0  0
  127.0040  129.4280   64.8840 C   0  0  0  0  0  0  0  0  0  0  0  0
  126.2060  130.2090   63.9340 C   0  0  0  0  0  0  0  0  0  0  0  0
  125.0410  129.8960   63.6830 O   0  0  0  0  0  0  0  0  0  0  0  0
  126.8410  131.2660   63.3710 N   0  0  0  0  0  0  0  0  0  0  0  0
  126.3220  132.1510   62.4370 C   0  0  0  0  0  0  0  0  0  0  0  0
  125.0640  132.4920   62.2590 N   0  0  0  0  0  0  0  0  0  0  0  0
  124.9320  133.3580   61.2720 C   0  0  0  0  0  0  0  0  0  0  0  0
  126.1040  133.7370   60.6250 C   0  0  0  0  0  0  0  0  0  0  0  0
  127.4470  132.9100   61.3560 S   0  0  0  0  0  0  0  0  0  0  0  0
  126.7450  129.6070   66.6190 S   0  0  0  0  0  0  0  0  0  0  0  0
  128.0030  128.4470   66.9720 C   0  0  0  0  0  0  0  0  0  0  0  0
  128.3360  128.1370   68.2250 N   0  0  0  0  0  0  0  0  0  0  0  0
  129.3400  127.2370   68.3910 C   0  0  0  0  0  0  0  0  0  0  0  0
  129.7070  126.9240   69.8050 C   0  0  0  0  0  0  0  0  0  0  0  0
  131.0420  126.9400   70.2280 C   0  0  0  0  0  0  0  0  0  0  0  0
  131.3800  126.6390   71.5430 C   0  0  0  0  0  0  0  0  0  0  0  0
  130.3950  126.2980   72.4840 C   0  0  0  0  0  0  0  0  0  0  0  0
  130.7180  126.0000   73.8130 N   0  0  0  0  0  0  0  0  0  0  0  0
  131.2690  127.0280   74.7200 C   0  0  0  0  0  0  0  0  0  0  0  0
  131.2340  126.6280   76.2100 C   0  0  0  0  0  0  0  0  0  0  0  0
  131.8930  125.3850   76.3930 O   0  0  0  0  0  0  0  0  0  0  0  0
  131.2630  124.3510   75.6540 C   0  0  0  0  0  0  0  0  0  0  0  0
  131.2930  124.6800   74.1460 C   0  0  0  0  0  0  0  0  0  0  0  0
  129.0580  126.3030   72.0610 C   0  0  0  0  0  0  0  0  0  0  0  0
  128.7210  126.6080   70.7450 C   0  0  0  0  0  0  0  0  0  0  0  0
  129.9850  126.6290   67.3110 C   0  0  0  0  0  0  0  0  0  0  0  0
  129.6230  126.9350   65.9940 C   0  0  0  0  0  0  0  0  0  0  0  0
  130.3160  126.2400   64.8810 C   0  0  0  0  0  0  0  0  0  0  0  0
  131.5030  125.5440   65.1160 C   0  0  0  0  0  0  0  0  0  0  0  0
  132.1480  124.8760   64.0780 C   0  0  0  0  0  0  0  0  0  0  0  0
  131.6230  124.8890   62.7760 C   0  0  0  0  0  0  0  0  0  0  0  0
  132.2470  124.2160   61.7210 N   0  0  0  0  0  0  0  0  0  0  0  0
  132.3130  122.7410   61.7470 C   0  0  0  0  0  0  0  0  0  0  0  0
  133.3450  122.1620   60.7560 C   0  0  0  0  0  0  0  0  0  0  0  0
  133.0740  122.6300   59.4430 O   0  0  0  0  0  0  0  0  0  0  0  0
  133.1400  124.0450   59.3670 C   0  0  0  0  0  0  0  0  0  0  0  0
  132.1060  124.6750   60.3260 C   0  0  0  0  0  0  0  0  0  0  0  0
  130.4180  125.5740   62.5570 C   0  0  0  0  0  0  0  0  0  0  0  0
  129.7740  126.2420   63.5950 C   0  0  0  0  0  0  0  0  0  0  0  0
  128.5980  127.9030   65.7950 C   0  0  0  0  0  0  0  0  0  0  0  0
  127.9950  127.4470   62.8080 H   0  0  0  0  0  0  0  0  0  0  0  0
  129.2040  128.6670   62.9110 H   0  0  0  0  0  0  0  0  0  0  0  0
  127.7950  131.4390   63.6560 H   0  0  0  0  0  0  0  0  0  0  0  0
  123.9505  133.7578   60.9774 H   0  0  0  0  0  0  0  0  0  0  0  0
  126.1701  134.4456   59.7863 H   0  0  0  0  0  0  0  0  0  0  0  0
  131.8350  127.1944   69.5094 H   0  0  0  0  0  0  0  0  0  0  0  0
  132.4356  126.6685   71.8509 H   0  0  0  0  0  0  0  0  0  0  0  0
  132.3149  127.2163   74.4360 H   0  0  0  0  0  0  0  0  0  0  0  0
  130.6362  127.9214   74.6134 H   0  0  0  0  0  0  0  0  0  0  0  0
  131.7408  127.4006   76.8068 H   0  0  0  0  0  0  0  0  0  0  0  0
  130.1872  126.5336   76.5346 H   0  0  0  0  0  0  0  0  0  0  0  0
  131.7934  123.4035   75.8299 H   0  0  0  0  0  0  0  0  0  0  0  0
  130.2167  124.2617   75.9814 H   0  0  0  0  0  0  0  0  0  0  0  0
  132.3395  124.6620   73.8077 H   0  0  0  0  0  0  0  0  0  0  0  0
  130.6746  123.9238   73.6403 H   0  0  0  0  0  0  0  0  0  0  0  0
  128.2621  126.0619   72.7810 H   0  0  0  0  0  0  0  0  0  0  0  0
  127.6641  126.6003   70.4403 H   0  0  0  0  0  0  0  0  0  0  0  0
  130.7876  125.9005   67.4981 H   0  0  0  0  0  0  0  0  0  0  0  0
  131.9322  125.5230   66.1286 H   0  0  0  0  0  0  0  0  0  0  0  0
  133.0815  124.3308   64.2811 H   0  0  0  0  0  0  0  0  0  0  0  0
  132.5862  122.4209   62.7633 H   0  0  0  0  0  0  0  0  0  0  0  0
  131.3241  122.3638   61.4474 H   0  0  0  0  0  0  0  0  0  0  0  0
  134.3548  122.4799   61.0547 H   0  0  0  0  0  0  0  0  0  0  0  0
  133.2803  121.0640   60.7682 H   0  0  0  0  0  0  0  0  0  0  0  0
  134.1494  124.3782   59.6500 H   0  0  0  0  0  0  0  0  0  0  0  0
  132.9171  124.3618   58.3375 H   0  0  0  0  0  0  0  0  0  0  0  0
  132.2301  125.7678   60.3040 H   0  0  0  0  0  0  0  0  0  0  0  0
  131.1094  124.3634   59.9801 H   0  0  0  0  0  0  0  0  0  0  0  0
  129.9755  125.5833   61.5500 H   0  0  0  0  0  0  0  0  0  0  0  0
  128.8317  126.7749   63.4001 H   0  0  0  0  0  0  0  0  0  0  0  0
  1  2  1  0
  2  3  2  0
  3  4  1  0
  4  5  2  0
  4  6  1  0
  6  7  1  0
  7  8  2  0
  8  9  1  0
  9 10  2  0
 10 11  1  0
  3 12  1  0
 12 13  1  0
 13 14  2  0
 14 15  1  0
 15 16  1  0
 16 17  2  0
 17 18  1  0
 18 19  2  0
 19 20  1  0
 20 21  1  0
 21 22  1  0
 22 23  1  0
 23 24  1  0
 24 25  1  0
 19 26  1  0
 26 27  2  0
 15 28  2  0
 28 29  1  0
 29 30  1  0
 30 31  2  0
 31 32  1  0
 32 33  2  0
 33 34  1  0
 34 35  1  0
 35 36  1  0
 36 37  1  0
 37 38  1  0
 38 39  1  0
 33 40  1  0
 40 41  2  0
 29 42  2  0
 42  2  1  0
 11  7  1  0
 42 13  1  0
 27 16  1  0
 41 30  1  0
 25 20  1  0
 39 34  1  0
  1 43  1  0
  1 44  1  0
  6 45  1  0
  9 46  1  0
 10 47  1  0
 17 48  1  0
 18 49  1  0
 21 50  1  0
 21 51  1  0
 22 52  1  0
 22 53  1  0
 24 54  1  0
 24 55  1  0
 25 56  1  0
 25 57  1  0
 26 58  1  0
 27 59  1  0
 28 60  1  0
 31 61  1  0
 32 62  1  0
 35 63  1  0
 35 64  1  0
 36 65  1  0
 36 66  1  0
 38 67  1  0
 38 68  1  0
 39 69  1  0
 39 70  1  0
 40 71  1  0
 41 72  1  0
M  END
>  <Binding energies>  (1) 
[-1.93]

>  <Ligand effiencies>  (1) 
[-0.042888888888888886]

>  <Interactions>  (1) 
["V-A:LEU:475:CD2:4257, V-A:ILE:369:CG2:3235, V-A:ILE:369:CD1:3237, V-A:ASP:366:CG:3211, V-A:TYR:539:CD2:4872, V-B:LEU:475:CD2:9231, V-A:TYR:539:CE2:4874, H-B:GLU:543:OE2:9882, H-B:GLU:543:OE1:9881, H-A:GLU:543:OE2:4908, V-A:ALA:541:CB:4890, V-A:GLU:543:CD:4906, H-B:ARG:545:NH2:9900, V-A:HIS:456:CE1:4068, H-A:GLU:543:OE1:4907, V-B:GLU:543:CD:9880, V-A:ARG:545:CZ:4924, V-B:GLU:543:CB:9878, V-B:GLU:543:CG:9879, H-B:ARG:545:NE:9896, V-A:GLU:543:CG:4905, V-A:GLU:543:CB:4904, V-B:HIS:456:CE1:9042, V-B:GLY:544:C:9884, V-A:LYS:547:CE:4948, V-A:GLY:544:C:4910, V-B:LYS:547:CE:9922, V-A:HIS:456:CD2:4066, V-B:GLU:543:C:9874, V-A:HIS:456:CG:4064, H-B:LYS:547:NZ:9923, V-B:GLY:544:CA:9886, V-B:TYR:484:CZ:9319, V-A:HIS:456:CB:4063, V-A:LYS:471:CE:4218, V-A:LYS:547:CD:4947, V-A:ARG:545:CA:4917"]

$$$$
9d_Ghoteimi_2023
     RDKit          3D

 68 73  0  0  0  0  0  0  0  0999 V2000
  123.0020  131.1310   59.2350 C   0  0  0  0  0  0  0  0  0  0  0  0
  123.8220  132.2410   59.5680 O   0  0  0  0  0  0  0  0  0  0  0  0
  123.9220  132.6730   60.8520 C   0  0  0  0  0  0  0  0  0  0  0  0
  123.3940  133.7040   61.2770 O   0  0  0  0  0  0  0  0  0  0  0  0
  124.7410  131.7770   61.6990 C   0  0  0  0  0  0  0  0  0  0  0  0
  124.6290  131.8850   63.4560 S   0  0  0  0  0  0  0  0  0  0  0  0
  125.7820  130.5860   63.6490 C   0  0  0  0  0  0  0  0  0  0  0  0
  126.1280  130.1330   64.8530 N   0  0  0  0  0  0  0  0  0  0  0  0
  127.0190  129.1080   64.8950 C   0  0  0  0  0  0  0  0  0  0  0  0
  127.3730  128.6000   66.2560 C   0  0  0  0  0  0  0  0  0  0  0  0
  126.4550  127.8430   66.9910 C   0  0  0  0  0  0  0  0  0  0  0  0
  126.7730  127.3670   68.2600 C   0  0  0  0  0  0  0  0  0  0  0  0
  128.0290  127.6200   68.8350 C   0  0  0  0  0  0  0  0  0  0  0  0
  128.3570  127.1630   70.1160 N   0  0  0  0  0  0  0  0  0  0  0  0
  129.7030  126.6370   70.4230 C   0  0  0  0  0  0  0  0  0  0  0  0
  129.7830  125.8680   71.7580 C   0  0  0  0  0  0  0  0  0  0  0  0
  129.3020  126.6800   72.8160 O   0  0  0  0  0  0  0  0  0  0  0  0
  127.9480  127.0510   72.6120 C   0  0  0  0  0  0  0  0  0  0  0  0
  127.8090  127.8550   71.3020 C   0  0  0  0  0  0  0  0  0  0  0  0
  128.9400  128.3920   68.1000 C   0  0  0  0  0  0  0  0  0  0  0  0
  128.6190  128.8710   66.8320 C   0  0  0  0  0  0  0  0  0  0  0  0
  127.5840  128.5640   63.7390 C   0  0  0  0  0  0  0  0  0  0  0  0
  127.2390  129.0490   62.4720 C   0  0  0  0  0  0  0  0  0  0  0  0
  127.8910  128.4530   61.2760 C   0  0  0  0  0  0  0  0  0  0  0  0
  127.2600  127.4400   60.5510 C   0  0  0  0  0  0  0  0  0  0  0  0
  127.8670  126.8980   59.4210 C   0  0  0  0  0  0  0  0  0  0  0  0
  129.1140  127.3670   58.9770 C   0  0  0  0  0  0  0  0  0  0  0  0
  129.7470  126.8340   57.8530 N   0  0  0  0  0  0  0  0  0  0  0  0
  131.2200  126.7380   57.8360 C   0  0  0  0  0  0  0  0  0  0  0  0
  131.7570  125.7950   56.7380 C   0  0  0  0  0  0  0  0  0  0  0  0
  131.2600  126.1930   55.4690 O   0  0  0  0  0  0  0  0  0  0  0  0
  129.8410  126.1560   55.4260 C   0  0  0  0  0  0  0  0  0  0  0  0
  129.2580  127.1130   56.4890 C   0  0  0  0  0  0  0  0  0  0  0  0
  129.7380  128.3840   59.7150 C   0  0  0  0  0  0  0  0  0  0  0  0
  129.1320  128.9240   60.8450 C   0  0  0  0  0  0  0  0  0  0  0  0
  126.2760  130.0940   62.4040 C   0  0  0  0  0  0  0  0  0  0  0  0
  125.6460  130.7830   61.3070 C   0  0  0  0  0  0  0  0  0  0  0  0
  125.8950  130.4770   59.9940 N   0  0  0  0  0  0  0  0  0  0  0  0
  122.6457  130.6486   60.1572 H   0  0  0  0  0  0  0  0  0  0  0  0
  122.1401  131.4758   58.6449 H   0  0  0  0  0  0  0  0  0  0  0  0
  123.5849  130.4085   58.6449 H   0  0  0  0  0  0  0  0  0  0  0  0
  125.4676  127.6205   66.5602 H   0  0  0  0  0  0  0  0  0  0  0  0
  126.0285  126.7833   68.8213 H   0  0  0  0  0  0  0  0  0  0  0  0
  130.0022  125.9562   69.6125 H   0  0  0  0  0  0  0  0  0  0  0  0
  130.3725  127.5051   70.5134 H   0  0  0  0  0  0  0  0  0  0  0  0
  129.1702  124.9570   71.6907 H   0  0  0  0  0  0  0  0  0  0  0  0
  130.8309  125.5994   71.9573 H   0  0  0  0  0  0  0  0  0  0  0  0
  127.3280  126.1445   72.5499 H   0  0  0  0  0  0  0  0  0  0  0  0
  127.6154  127.6755   73.4543 H   0  0  0  0  0  0  0  0  0  0  0  0
  126.7408  128.0504   71.1267 H   0  0  0  0  0  0  0  0  0  0  0  0
  128.3907  128.7797   71.4305 H   0  0  0  0  0  0  0  0  0  0  0  0
  129.9248  128.6233   68.5320 H   0  0  0  0  0  0  0  0  0  0  0  0
  129.3550  129.4704   66.2760 H   0  0  0  0  0  0  0  0  0  0  0  0
  128.3105  127.7426   63.8256 H   0  0  0  0  0  0  0  0  0  0  0  0
  126.2768  127.0677   60.8747 H   0  0  0  0  0  0  0  0  0  0  0  0
  127.3628  126.0914   58.8686 H   0  0  0  0  0  0  0  0  0  0  0  0
  131.6336  127.7430   57.6662 H   0  0  0  0  0  0  0  0  0  0  0  0
  131.5309  126.3206   58.8051 H   0  0  0  0  0  0  0  0  0  0  0  0
  132.8562  125.8366   56.7279 H   0  0  0  0  0  0  0  0  0  0  0  0
  131.4240  124.7683   56.9499 H   0  0  0  0  0  0  0  0  0  0  0  0
  129.4981  126.4668   54.4281 H   0  0  0  0  0  0  0  0  0  0  0  0
  129.4988  125.1315   55.6343 H   0  0  0  0  0  0  0  0  0  0  0  0
  129.5359  128.1433   56.2219 H   0  0  0  0  0  0  0  0  0  0  0  0
  128.1676  126.9679   56.4966 H   0  0  0  0  0  0  0  0  0  0  0  0
  130.7211  128.7601   59.3954 H   0  0  0  0  0  0  0  0  0  0  0  0
  129.6346  129.7279   61.4027 H   0  0  0  0  0  0  0  0  0  0  0  0
  126.4940  129.7070   59.7320 H   0  0  0  0  0  0  0  0  0  0  0  0
  125.4810  131.0090   59.2410 H   0  0  0  0  0  0  0  0  0  0  0  0
  1  2  1  0
  2  3  1  0
  3  4  2  0
  3  5  1  0
  5  6  1  0
  6  7  1  0
  7  8  2  0
  8  9  1  0
  9 10  1  0
 10 11  2  0
 11 12  1  0
 12 13  2  0
 13 14  1  0
 14 15  1  0
 15 16  1  0
 16 17  1  0
 17 18  1  0
 18 19  1  0
 13 20  1  0
 20 21  2  0
  9 22  2  0
 22 23  1  0
 23 24  1  0
 24 25  2  0
 25 26  1  0
 26 27  2  0
 27 28  1  0
 28 29  1  0
 29 30  1  0
 30 31  1  0
 31 32  1  0
 32 33  1  0
 27 34  1  0
 34 35  2  0
 23 36  2  0
 36 37  1  0
 37 38  1  0
 37  5  2  0
 36  7  1  0
 21 10  1  0
 35 24  1  0
 19 14  1  0
 33 28  1  0
  1 39  1  0
  1 40  1  0
  1 41  1  0
 11 42  1  0
 12 43  1  0
 15 44  1  0
 15 45  1  0
 16 46  1  0
 16 47  1  0
 18 48  1  0
 18 49  1  0
 19 50  1  0
 19 51  1  0
 20 52  1  0
 21 53  1  0
 22 54  1  0
 25 55  1  0
 26 56  1  0
 29 57  1  0
 29 58  1  0
 30 59  1  0
 30 60  1  0
 32 61  1  0
 32 62  1  0
 33 63  1  0
 33 64  1  0
 34 65  1  0
 35 66  1  0
 38 67  1  0
 38 68  1  0
M  END
>  <Binding energies>  (1) 
[-5.96]

>  <Ligand effiencies>  (1) 
[-0.149]

>  <Interactions>  (1) 
["V-B:ASP:366:CG:8185, V-A:ASP:366:CG:3211, V-B:ILE:369:CD1:8211, H-A:TYR:531:OH:4793, V-B:ILE:369:CG2:8209, V-A:ASP:366:CB:3210, V-A:GLU:543:CD:4906, V-A:HIS:456:CE1:4068, V-B:GLU:543:CD:9880, V-B:GLU:543:CG:9879, V-A:GLU:543:CG:4905, H-B:TYR:484:OH:9320, V-A:GLU:543:CB:4904, V-B:HIS:456:CE1:9042, H-B:TYR:539:OH:9850, V-B:ASP:366:C:8180, V-B:ASP:366:CB:8184, V-B:ILE:369:CB:8208, V-B:ASP:366:CA:8182, V-B:GLY:544:C:9884, V-B:HIS:456:CG:9038, V-A:GLU:543:C:4900, V-B:LYS:547:CE:9922, V-A:HIS:456:CD2:4066, V-B:HIS:456:CD2:9040, V-B:GLU:543:C:9874, V-A:HIS:456:CG:4064, H-B:LYS:547:NZ:9923, V-B:GLY:544:CA:9886, V-B:ARG:545:CG:9894, V-B:ARG:545:CD:9895, V-B:GLY:454:CA:9021, V-B:ARG:545:CA:9891"]

$$$$
RR10_Rahimova_2017
     RDKit          3D

 66 70  0  0  0  0  0  0  0  0999 V2000
  134.1620  123.9790   59.1640 C   0  0  0  0  0  0  0  0  0  0  0  0
  133.6510  123.6690   60.5820 C   0  0  1  0  0  0  0  0  0  0  0  0
  132.7290  124.7880   61.1200 C   0  0  0  0  0  0  0  0  0  0  0  0
  132.2560  124.4730   62.5570 C   0  0  0  0  0  0  0  0  0  0  0  0
  131.5110  123.1160   62.6430 C   0  0  1  0  0  0  0  0  0  0  0  0
  130.2250  123.1830   61.9360 N   0  0  0  0  0  0  0  0  0  0  0  0
  129.6420  122.1630   61.2790 C   0  0  0  0  0  0  0  0  0  0  0  0
  130.1330  121.0330   61.2220 O   0  0  0  0  0  0  0  0  0  0  0  0
  128.3070  122.4680   60.5680 C   0  0  1  0  0  0  0  0  0  0  0  0
  127.5890  123.6330   61.2980 C   0  0  0  0  0  0  0  0  0  0  0  0
  126.2960  124.0040   60.5340 C   0  0  0  0  0  0  0  0  0  0  0  0
  126.5490  124.2650   59.0310 C   0  0  0  0  0  0  0  0  0  0  0  0
  127.2970  123.1330   58.4200 N   0  0  0  0  0  0  0  0  0  0  0  0
  127.3830  123.1800   56.6510 S   0  0  0  0  0  0  0  0  0  0  0  0
  126.0440  122.8950   56.1210 O   0  0  0  0  0  0  0  0  0  0  0  0
  128.5320  122.3670   56.2340 O   0  0  0  0  0  0  0  0  0  0  0  0
  127.7430  124.8900   56.2490 C   0  0  0  0  0  0  0  0  0  0  0  0
  126.9050  125.5760   55.3630 C   0  0  0  0  0  0  0  0  0  0  0  0
  127.1320  126.9080   55.0060 C   0  0  0  0  0  0  0  0  0  0  0  0
  128.2430  127.5280   55.5830 C   0  0  0  0  0  0  0  0  0  0  0  0
  128.7890  128.7860   55.4850 N   0  0  0  0  0  0  0  0  0  0  0  0
  129.9060  128.8280   56.2950 C   0  0  0  0  0  0  0  0  0  0  0  0
  130.7780  130.0410   56.4440 C   0  0  0  0  0  0  0  0  0  0  0  0
  130.7900  131.0330   55.4540 C   0  0  0  0  0  0  0  0  0  0  0  0
  131.5950  132.1600   55.5920 C   0  0  0  0  0  0  0  0  0  0  0  0
  132.3960  132.3010   56.7230 C   0  0  0  0  0  0  0  0  0  0  0  0
  132.3960  131.3250   57.7160 C   0  0  0  0  0  0  0  0  0  0  0  0
  131.5900  130.1980   57.5760 C   0  0  0  0  0  0  0  0  0  0  0  0
  130.1100  127.6850   56.9110 N   0  0  0  0  0  0  0  0  0  0  0  0
  129.1010  126.8600   56.4900 C   0  0  0  0  0  0  0  0  0  0  0  0
  128.8470  125.5240   56.8310 C   0  0  0  0  0  0  0  0  0  0  0  0
  128.5890  122.8450   59.0930 C   0  0  0  0  0  0  0  0  0  0  0  0
  132.4410  122.0060   62.0840 C   0  0  0  0  0  0  0  0  0  0  0  0
  132.9100  122.3130   60.6440 C   0  0  0  0  0  0  0  0  0  0  0  0
  135.1008  124.5485   59.2289 H   0  0  0  0  0  0  0  0  0  0  0  0
  134.3411  123.0371   58.6247 H   0  0  0  0  0  0  0  0  0  0  0  0
  133.4094  124.5729   58.6247 H   0  0  0  0  0  0  0  0  0  0  0  0
  134.5434  123.6111   61.2226 H   0  0  0  0  0  0  0  0  0  0  0  0
  133.2819  125.7389   61.1237 H   0  0  0  0  0  0  0  0  0  0  0  0
  131.8459  124.8581   60.4679 H   0  0  0  0  0  0  0  0  0  0  0  0
  133.1335  124.4382   63.2194 H   0  0  0  0  0  0  0  0  0  0  0  0
  131.5551  125.2635   62.8632 H   0  0  0  0  0  0  0  0  0  0  0  0
  131.2726  122.8759   63.6897 H   0  0  0  0  0  0  0  0  0  0  0  0
  129.8160  124.1020   61.8490 H   0  0  0  0  0  0  0  0  0  0  0  0
  127.6567  121.5812   60.5916 H   0  0  0  0  0  0  0  0  0  0  0  0
  127.3332  123.3217   62.3215 H   0  0  0  0  0  0  0  0  0  0  0  0
  128.2554  124.5073   61.3355 H   0  0  0  0  0  0  0  0  0  0  0  0
  125.5786  123.1759   60.6321 H   0  0  0  0  0  0  0  0  0  0  0  0
  125.9042  124.9335   60.9728 H   0  0  0  0  0  0  0  0  0  0  0  0
  125.5834  124.3794   58.5167 H   0  0  0  0  0  0  0  0  0  0  0  0
  127.1475  125.1820   58.9268 H   0  0  0  0  0  0  0  0  0  0  0  0
  126.0396  125.0499   54.9336 H   0  0  0  0  0  0  0  0  0  0  0  0
  126.4703  127.4405   54.3070 H   0  0  0  0  0  0  0  0  0  0  0  0
  128.4740  129.5700   54.9320 H   0  0  0  0  0  0  0  0  0  0  0  0
  130.1581  130.9200   54.5607 H   0  0  0  0  0  0  0  0  0  0  0  0
  131.5987  132.9355   54.8119 H   0  0  0  0  0  0  0  0  0  0  0  0
  133.0337  133.1906   56.8324 H   0  0  0  0  0  0  0  0  0  0  0  0
  133.0299  131.4436   58.6072 H   0  0  0  0  0  0  0  0  0  0  0  0
  131.5905  129.4255   58.3591 H   0  0  0  0  0  0  0  0  0  0  0  0
  129.4981  124.9881   57.5373 H   0  0  0  0  0  0  0  0  0  0  0  0
  129.0917  122.0078   58.5866 H   0  0  0  0  0  0  0  0  0  0  0  0
  129.2396  123.7310   59.0503 H   0  0  0  0  0  0  0  0  0  0  0  0
  133.3240  121.9219   62.7345 H   0  0  0  0  0  0  0  0  0  0  0  0
  131.8713  121.0653   62.0619 H   0  0  0  0  0  0  0  0  0  0  0  0
  133.5896  121.5156   60.3089 H   0  0  0  0  0  0  0  0  0  0  0  0
  132.0268  122.3651   59.9904 H   0  0  0  0  0  0  0  0  0  0  0  0
  1  2  1  0
  2  3  1  0
  3  4  1  0
  4  5  1  0
  5  6  1  0
  6  7  1  0
  7  8  2  0
  7  9  1  0
  9 10  1  0
 10 11  1  0
 11 12  1  0
 12 13  1  0
 13 14  1  0
 14 15  2  0
 14 16  2  0
 14 17  1  0
 17 18  2  0
 18 19  1  0
 19 20  2  0
 20 21  1  0
 21 22  1  0
 22 23  1  0
 23 24  2  0
 24 25  1  0
 25 26  2  0
 26 27  1  0
 27 28  2  0
 22 29  2  0
 29 30  1  0
 30 31  2  0
 13 32  1  0
  5 33  1  0
 33 34  1  0
 34  2  1  0
 32  9  1  0
 31 17  1  0
 30 20  1  0
 28 23  1  0
  1 35  1  0
  1 36  1  0
  1 37  1  0
  2 38  1  1
  3 39  1  0
  3 40  1  0
  4 41  1  0
  4 42  1  0
  5 43  1  1
  6 44  1  0
  9 45  1  6
 10 46  1  0
 10 47  1  0
 11 48  1  0
 11 49  1  0
 12 50  1  0
 12 51  1  0
 18 52  1  0
 19 53  1  0
 21 54  1  0
 24 55  1  0
 25 56  1  0
 26 57  1  0
 27 58  1  0
 28 59  1  0
 31 60  1  0
 32 61  1  0
 32 62  1  0
 33 63  1  0
 33 64  1  0
 34 65  1  0
 34 66  1  0
M  END
>  <Binding energies>  (1) 
[-9.7]

>  <Ligand effiencies>  (1) 
[-0.26944444444444443]

>  <Interactions>  (1) 
["V-A:ILE:538:CG2:4861, V-A:PRO:540:CD:4885, V-A:PRO:540:N:4882, V-B:TYR:539:CD2:9846, V-B:PRO:540:CA:9855, V-A:LEU:475:CD2:4257, V-A:ILE:369:CG2:3235, V-B:ALA:541:CB:9864, V-A:ILE:538:CB:4860, V-A:ILE:538:CA:4858, V-A:TYR:531:CZ:4792, V-A:ILE:369:CD1:3237, V-B:PRO:540:N:9856, V-A:ASP:366:CG:3211, H-A:TYR:531:OH:4793, V-A:ASP:366:CB:3210, V-A:PRO:540:CA:4881, H-B:GLU:543:OE1:9881, V-B:TYR:539:C:9839, V-B:TYR:531:CZ:9766, V-B:PRO:540:C:9853, V-B:GLU:543:CD:9880, V-A:PRO:540:CB:4883, V-A:ILE:369:CB:3234, V-A:ASP:366:CA:3208, H-B:TYR:539:N:9842, V-B:ALA:541:CA:9862, V-A:PRO:540:CG:4884, H-A:MET:535:SD:4832"]

$$$$
RR11_Rahimova_2017
     RDKit          3D

 55 60  0  0  0  0  0  0  0  0999 V2000
  133.5160  132.2540   55.5250 N   0  0  0  0  0  0  0  0  0  0  0  0
  132.3320  132.0210   56.2230 C   0  0  0  0  0  0  0  0  0  0  0  0
  131.1050  132.2160   55.5920 C   0  0  0  0  0  0  0  0  0  0  0  0
  129.9240  131.9810   56.2900 C   0  0  0  0  0  0  0  0  0  0  0  0
  129.9570  131.5480   57.6220 C   0  0  0  0  0  0  0  0  0  0  0  0
  128.6830  131.2890   58.3700 C   0  0  0  0  0  0  0  0  0  0  0  0
  128.6130  131.0700   59.6650 N   0  0  0  0  0  0  0  0  0  0  0  0
  127.2800  130.8970   59.9310 C   0  0  0  0  0  0  0  0  0  0  0  0
  126.6470  130.6420   61.1550 C   0  0  0  0  0  0  0  0  0  0  0  0
  125.2520  130.5220   61.1720 C   0  0  0  0  0  0  0  0  0  0  0  0
  124.5370  130.2390   62.4860 C   0  0  0  0  0  0  0  0  0  0  0  0
  125.4830  130.1930   63.6780 C   0  0  0  0  0  0  0  0  0  0  0  0
  126.2520  131.3200   63.9910 C   0  0  0  0  0  0  0  0  0  0  0  0
  127.1270  131.3300   65.0790 C   0  0  0  0  0  0  0  0  0  0  0  0
  127.2150  130.1750   65.8660 C   0  0  0  0  0  0  0  0  0  0  0  0
  127.9920  129.9320   66.9680 N   0  0  0  0  0  0  0  0  0  0  0  0
  127.7070  128.7000   67.3310 C   0  0  0  0  0  0  0  0  0  0  0  0
  128.3360  127.9890   68.4940 C   0  0  0  0  0  0  0  0  0  0  0  0
  127.5720  127.6520   69.6190 C   0  0  0  0  0  0  0  0  0  0  0  0
  128.1580  127.0030   70.7030 C   0  0  0  0  0  0  0  0  0  0  0  0
  129.5140  126.6850   70.6690 C   0  0  0  0  0  0  0  0  0  0  0  0
  130.1030  126.0390   71.7550 N   0  0  0  0  0  0  0  0  0  0  0  0
  130.2850  127.0100   69.5550 C   0  0  0  0  0  0  0  0  0  0  0  0
  129.6980  127.6590   68.4730 C   0  0  0  0  0  0  0  0  0  0  0  0
  126.7620  128.1260   66.5070 N   0  0  0  0  0  0  0  0  0  0  0  0
  126.4210  129.0470   65.5460 C   0  0  0  0  0  0  0  0  0  0  0  0
  125.5400  129.0330   64.4610 C   0  0  0  0  0  0  0  0  0  0  0  0
  124.5140  130.6270   59.9880 C   0  0  0  0  0  0  0  0  0  0  0  0
  125.1150  130.8750   58.7510 C   0  0  0  0  0  0  0  0  0  0  0  0
  126.5060  131.0100   58.7520 C   0  0  0  0  0  0  0  0  0  0  0  0
  127.4390  131.2580   57.7730 N   0  0  0  0  0  0  0  0  0  0  0  0
  131.1980  131.3570   58.2440 C   0  0  0  0  0  0  0  0  0  0  0  0
  132.3820  131.5910   57.5480 C   0  0  0  0  0  0  0  0  0  0  0  0
  133.7040  133.1770   55.1600 H   0  0  0  0  0  0  0  0  0  0  0  0
  134.1890  131.5080   55.4280 H   0  0  0  0  0  0  0  0  0  0  0  0
  131.0699  132.5545   54.5460 H   0  0  0  0  0  0  0  0  0  0  0  0
  128.9560  132.1367   55.7913 H   0  0  0  0  0  0  0  0  0  0  0  0
  127.2322  130.5385   62.0806 H   0  0  0  0  0  0  0  0  0  0  0  0
  123.7934  131.0311   62.6585 H   0  0  0  0  0  0  0  0  0  0  0  0
  124.0674  129.2481   62.3992 H   0  0  0  0  0  0  0  0  0  0  0  0
  126.1648  132.2199   63.3644 H   0  0  0  0  0  0  0  0  0  0  0  0
  127.7302  132.2200   65.3114 H   0  0  0  0  0  0  0  0  0  0  0  0
  126.5011  127.9019   69.6463 H   0  0  0  0  0  0  0  0  0  0  0  0
  127.5521  126.7423   71.5833 H   0  0  0  0  0  0  0  0  0  0  0  0
  130.9090  126.4520   72.2020 H   0  0  0  0  0  0  0  0  0  0  0  0
  129.6950  125.1840   72.1050 H   0  0  0  0  0  0  0  0  0  0  0  0
  131.3546  126.7543   69.5308 H   0  0  0  0  0  0  0  0  0  0  0  0
  130.3079  127.9151   67.5941 H   0  0  0  0  0  0  0  0  0  0  0  0
  126.4180  127.1840   66.6290 H   0  0  0  0  0  0  0  0  0  0  0  0
  124.9209  128.1529   64.2329 H   0  0  0  0  0  0  0  0  0  0  0  0
  123.4211  130.5101   60.0324 H   0  0  0  0  0  0  0  0  0  0  0  0
  124.5251  130.9594   57.8264 H   0  0  0  0  0  0  0  0  0  0  0  0
  127.2940  131.4030   56.7850 H   0  0  0  0  0  0  0  0  0  0  0  0
  131.2377  131.0196   59.2902 H   0  0  0  0  0  0  0  0  0  0  0  0
  133.3526  131.4370   58.0422 H   0  0  0  0  0  0  0  0  0  0  0  0
  1  2  1  0
  2  3  2  0
  3  4  1  0
  4  5  2  0
  5  6  1  0
  6  7  2  0
  7  8  1  0
  8  9  2  0
  9 10  1  0
 10 11  1  0
 11 12  1  0
 12 13  2  0
 13 14  1  0
 14 15  2  0
 15 16  1  0
 16 17  2  0
 17 18  1  0
 18 19  2  0
 19 20  1  0
 20 21  2  0
 21 22  1  0
 21 23  1  0
 23 24  2  0
 17 25  1  0
 25 26  1  0
 26 27  2  0
 10 28  2  0
 28 29  1  0
 29 30  2  0
 30 31  1  0
  5 32  1  0
 32 33  2  0
 33  2  1  0
 31  6  1  0
 30  8  1  0
 27 12  1  0
 26 15  1  0
 24 18  1  0
  1 34  1  0
  1 35  1  0
  3 36  1  0
  4 37  1  0
  9 38  1  0
 11 39  1  0
 11 40  1  0
 13 41  1  0
 14 42  1  0
 19 43  1  0
 20 44  1  0
 22 45  1  0
 22 46  1  0
 23 47  1  0
 24 48  1  0
 25 49  1  0
 27 50  1  0
 28 51  1  0
 29 52  1  0
 31 53  1  0
 32 54  1  0
 33 55  1  0
M  END
>  <Binding energies>  (1) 
[-6.63]

>  <Ligand effiencies>  (1) 
[-0.16999999999999998]

>  <Interactions>  (1) 
["V-A:ILE:538:CG2:4861, V-A:PRO:540:CD:4885, V-B:ASP:366:CG:8185, V-A:PRO:540:N:4882, V-A:ILE:538:CB:4860, V-A:ILE:538:CA:4858, V-A:TYR:531:CZ:4792, H-A:TYR:531:OH:4793, V-A:TYR:539:CD2:4872, V-A:TYR:539:CE2:4874, V-A:TYR:539:CZ:4875, H-B:GLU:543:OE2:9882, V-A:PRO:540:CA:4881, V-A:GLU:543:CD:4906, V-A:HIS:456:CE1:4068, V-B:GLU:543:CD:9880, V-B:ARG:545:CZ:9898, V-B:GLU:543:CG:9879, V-A:GLU:543:CG:4905, V-A:PRO:540:CB:4883, V-A:LEU:363:CD1:3187, V-A:TYR:539:C:4865, H-B:TYR:484:OH:9320, V-A:GLU:543:CB:4904, V-A:TYR:531:CE2:4791, V-B:HIS:456:CE1:9042, V-B:ASP:366:CB:8184, H-A:TYR:539:OH:4876, V-B:GLY:544:C:9884, V-A:GLY:544:C:4910, H-A:HIS:456:NE2:4069, V-A:GLU:543:C:4900, V-A:HIS:456:CD2:4066, V-B:HIS:456:CD2:9040, V-B:GLU:543:C:9874, V-A:HIS:456:CG:4064, H-B:GLU:543:O:9875, V-B:GLY:544:CA:9886, H-A:GLY:544:O:4911, V-B:ARG:545:CG:9894, V-B:ARG:545:CD:9895, V-B:TYR:484:CZ:9319, V-A:ILE:538:C:4856, V-B:TYR:484:CE1:9317, V-A:ILE:538:CD1:4863"]

$$$$
RR11_Rahimova_2017-again1
     RDKit          3D

 56 61  0  0  0  0  0  0  0  0999 V2000
  122.5730  131.4790   57.9960 N   0  0  0  0  0  0  0  0  0  0  0  0
  123.7740  130.7710   58.0010 C   0  0  0  0  0  0  0  0  0  0  0  0
  124.6190  130.8440   59.1060 C   0  0  0  0  0  0  0  0  0  0  0  0
  125.8200  130.1380   59.1080 C   0  0  0  0  0  0  0  0  0  0  0  0
  126.1860  129.3560   58.0060 C   0  0  0  0  0  0  0  0  0  0  0  0
  127.4850  128.6020   58.0050 C   0  0  0  0  0  0  0  0  0  0  0  0
  128.4600  128.8040   57.1470 N   0  0  0  0  0  0  0  0  0  0  0  0
  129.4340  127.9030   57.4870 C   0  0  0  0  0  0  0  0  0  0  0  0
  130.6860  127.6830   56.8960 C   0  0  0  0  0  0  0  0  0  0  0  0
  131.4980  126.6820   57.4290 C   0  0  0  0  0  0  0  0  0  0  0  0
  131.0890  125.9080   58.5210 C   0  0  0  0  0  0  0  0  0  0  0  0
  132.0130  124.8250   59.0590 C   0  0  0  0  0  0  0  0  0  0  0  0
  131.9720  124.7200   60.5770 C   0  0  0  0  0  0  0  0  0  0  0  0
  132.5030  123.5880   61.2070 C   0  0  0  0  0  0  0  0  0  0  0  0
  132.4910  123.4350   62.5950 C   0  0  0  0  0  0  0  0  0  0  0  0
  131.9230  124.4760   63.3350 C   0  0  0  0  0  0  0  0  0  0  0  0
  131.7380  124.6470   64.7010 N   0  0  0  0  0  0  0  0  0  0  0  0
  131.1180  125.8500   64.9460 C   0  0  0  0  0  0  0  0  0  0  0  0
  130.7250  126.4030   66.2780 C   0  0  0  0  0  0  0  0  0  0  0  0
  129.4570  126.1280   66.8060 C   0  0  0  0  0  0  0  0  0  0  0  0
  129.0890  126.6340   68.0500 C   0  0  0  0  0  0  0  0  0  0  0  0
  129.9870  127.4180   68.7720 C   0  0  0  0  0  0  0  0  0  0  0  0
  129.6180  127.9200   70.0190 N   0  0  0  0  0  0  0  0  0  0  0  0
  131.2500  127.7000   68.2540 C   0  0  0  0  0  0  0  0  0  0  0  0
  131.6180  127.1940   67.0110 C   0  0  0  0  0  0  0  0  0  0  0  0
  130.9220  126.4420   63.7200 N   0  0  0  0  0  0  0  0  0  0  0  0
  131.4020  125.6210   62.7110 C   0  0  0  0  0  0  0  0  0  0  0  0
  131.4220  125.7720   61.3220 C   0  0  0  0  0  0  0  0  0  0  0  0
  129.8520  126.1240   59.1430 C   0  0  0  0  0  0  0  0  0  0  0  0
  129.0400  127.1230   58.6000 C   0  0  0  0  0  0  0  0  0  0  0  0
  127.7890  127.6050   58.9070 N   0  0  0  0  0  0  0  0  0  0  0  0
  125.3270  129.2910   56.9010 C   0  0  0  0  0  0  0  0  0  0  0  0
  124.1250  129.9950   56.8980 C   0  0  0  0  0  0  0  0  0  0  0  0
  122.0810  131.6270   58.8640 H   0  0  0  0  0  0  0  0  0  0  0  0
  122.1900  131.8000   57.1180 H   0  0  0  0  0  0  0  0  0  0  0  0
  124.3387  131.4576   59.9749 H   0  0  0  0  0  0  0  0  0  0  0  0
  126.4856  130.1954   59.9819 H   0  0  0  0  0  0  0  0  0  0  0  0
  131.0187  128.2829   56.0361 H   0  0  0  0  0  0  0  0  0  0  0  0
  132.4847  126.4962   56.9798 H   0  0  0  0  0  0  0  0  0  0  0  0
  131.7092  123.8583   58.6309 H   0  0  0  0  0  0  0  0  0  0  0  0
  133.0408  125.0916   58.7716 H   0  0  0  0  0  0  0  0  0  0  0  0
  132.9442  122.7928   60.5881 H   0  0  0  0  0  0  0  0  0  0  0  0
  132.9074  122.5406   63.0814 H   0  0  0  0  0  0  0  0  0  0  0  0
  131.9950  124.0090   65.4400 H   0  0  0  0  0  0  0  0  0  0  0  0
  128.7487  125.5095   66.2353 H   0  0  0  0  0  0  0  0  0  0  0  0
  128.0926  126.4156   68.4616 H   0  0  0  0  0  0  0  0  0  0  0  0
  129.6710  127.3220   70.8320 H   0  0  0  0  0  0  0  0  0  0  0  0
  129.2740  128.8660   70.0930 H   0  0  0  0  0  0  0  0  0  0  0  0
  131.9544  128.3213   68.8266 H   0  0  0  0  0  0  0  0  0  0  0  0
  132.6148  127.4164   66.6025 H   0  0  0  0  0  0  0  0  0  0  0  0
  130.4800  127.3440   63.6220 H   0  0  0  0  0  0  0  0  0  0  0  0
  131.0244  126.6750   60.8357 H   0  0  0  0  0  0  0  0  0  0  0  0
  129.5355  125.5354   60.0167 H   0  0  0  0  0  0  0  0  0  0  0  0
  127.1620  127.3100   59.6410 H   0  0  0  0  0  0  0  0  0  0  0  0
  125.6038  128.6796   56.0295 H   0  0  0  0  0  0  0  0  0  0  0  0
  123.4548  129.9386   56.0275 H   0  0  0  0  0  0  0  0  0  0  0  0
  1  2  1  0
  2  3  2  0
  3  4  1  0
  4  5  2  0
  5  6  1  0
  6  7  2  0
  7  8  1  0
  8  9  2  0
  9 10  1  0
 10 11  2  0
 11 12  1  0
 12 13  1  0
 13 14  2  0
 14 15  1  0
 15 16  2  0
 16 17  1  0
 17 18  1  0
 18 19  1  0
 19 20  2  0
 20 21  1  0
 21 22  2  0
 22 23  1  0
 22 24  1  0
 24 25  2  0
 18 26  2  0
 26 27  1  0
 27 28  2  0
 11 29  1  0
 29 30  2  0
 30 31  1  0
  5 32  1  0
 32 33  2  0
 33  2  1  0
 31  6  1  0
 30  8  1  0
 28 13  1  0
 27 16  1  0
 25 19  1  0
  1 34  1  0
  1 35  1  0
  3 36  1  0
  4 37  1  0
  9 38  1  0
 10 39  1  0
 12 40  1  0
 12 41  1  0
 14 42  1  0
 15 43  1  0
 17 44  1  0
 20 45  1  0
 21 46  1  0
 23 47  1  0
 23 48  1  0
 24 49  1  0
 25 50  1  0
 26 51  1  0
 28 52  1  0
 29 53  1  0
 31 54  1  0
 32 55  1  0
 33 56  1  0
M  CHG  1  26   1
M  END
>  <Binding energies>  (1) 
[-7.4]

>  <Ligand effiencies>  (1) 
[-0.185]

>  <Interactions>  (1) 
["V-B:ASP:366:CG:8185, H-B:ASP:366:OD2:8187, V-A:ASP:366:CG:3211, V-B:ILE:369:CD1:8211, V-B:ILE:369:CG2:8209, V-A:ASP:366:CB:3210, V-A:TYR:539:CE2:4874, V-A:TYR:539:CZ:4875, H-A:GLU:543:OE2:4908, V-A:GLU:543:CD:4906, V-A:HIS:456:CE1:4068, H-A:TYR:484:OH:4346, V-B:TYR:531:CZ:9766, H-A:GLU:543:OE1:4907, V-B:GLU:543:CD:9880, V-A:ARG:545:CZ:4924, V-B:GLU:543:CB:9878, V-B:GLU:543:CG:9879, V-A:GLU:543:CG:4905, V-B:ASP:366:C:8180, V-B:ASP:366:CB:8184, V-B:ILE:369:CB:8208, H-A:TYR:539:OH:4876, V-B:ASP:366:CA:8182, V-A:GLY:544:C:4910, V-A:GLU:543:C:4900, V-B:GLU:543:C:9874, V-A:GLY:544:CA:4912, H-B:GLU:543:O:9875, H-B:HIS:456:NE2:9043, H-A:GLU:543:O:4901, H-A:GLY:544:O:4911, V-B:TYR:531:CE1:9764, V-A:ARG:545:CD:4921, V-A:ARG:545:CG:4920, V-A:TYR:484:CZ:4345, H-B:ASP:366:OD1:8186, H-B:ASP:366:O:8181, H-B:CYS:365:O:8178, V-A:ARG:545:CA:4917, V-B:ILE:369:C:8204, V-B:ILE:369:CA:8206"]

$$$$
RR11_Rahimova_2017-again2
     RDKit          3D

 57 62  0  0  0  0  0  0  0  0999 V2000
  129.1930  128.1220   70.2180 N   0  0  0  0  0  0  0  0  0  0  0  0
  129.5810  127.5650   69.0010 C   0  0  0  0  0  0  0  0  0  0  0  0
  128.6390  126.9250   68.1990 C   0  0  0  0  0  0  0  0  0  0  0  0
  129.0290  126.3630   66.9860 C   0  0  0  0  0  0  0  0  0  0  0  0
  130.3630  126.4390   66.5680 C   0  0  0  0  0  0  0  0  0  0  0  0
  130.7840  125.8280   65.2710 C   0  0  0  0  0  0  0  0  0  0  0  0
  130.4920  126.2930   64.0090 N   0  0  0  0  0  0  0  0  0  0  0  0
  131.0730  125.4710   63.0530 C   0  0  0  0  0  0  0  0  0  0  0  0
  131.0750  125.5270   61.6560 C   0  0  0  0  0  0  0  0  0  0  0  0
  131.7910  124.5300   60.9820 C   0  0  0  0  0  0  0  0  0  0  0  0
  131.8340  124.5410   59.4600 C   0  0  0  0  0  0  0  0  0  0  0  0
  130.9940  125.6570   58.8540 C   0  0  0  0  0  0  0  0  0  0  0  0
  131.5240  126.4360   57.8190 C   0  0  0  0  0  0  0  0  0  0  0  0
  130.8010  127.4730   57.2250 C   0  0  0  0  0  0  0  0  0  0  0  0
  129.5110  127.6970   57.7110 C   0  0  0  0  0  0  0  0  0  0  0  0
  128.5410  128.6280   57.3660 N   0  0  0  0  0  0  0  0  0  0  0  0
  127.4190  128.4520   58.1410 C   0  0  0  0  0  0  0  0  0  0  0  0
  126.1610  129.2580   58.0950 C   0  0  0  0  0  0  0  0  0  0  0  0
  125.3550  129.2440   56.9520 C   0  0  0  0  0  0  0  0  0  0  0  0
  124.1770  129.9860   56.9120 C   0  0  0  0  0  0  0  0  0  0  0  0
  123.8010  130.7480   58.0160 C   0  0  0  0  0  0  0  0  0  0  0  0
  122.6190  131.4870   57.9800 N   0  0  0  0  0  0  0  0  0  0  0  0
  124.5990  130.7730   59.1590 C   0  0  0  0  0  0  0  0  0  0  0  0
  125.7760  130.0300   59.1990 C   0  0  0  0  0  0  0  0  0  0  0  0
  127.6860  127.3920   58.9760 N   0  0  0  0  0  0  0  0  0  0  0  0
  128.9670  126.9090   58.7390 C   0  0  0  0  0  0  0  0  0  0  0  0
  129.6920  125.8690   59.3260 C   0  0  0  0  0  0  0  0  0  0  0  0
  132.4480  123.5110   61.6820 C   0  0  0  0  0  0  0  0  0  0  0  0
  132.4450  123.4460   63.0780 C   0  0  0  0  0  0  0  0  0  0  0  0
  131.7450  124.4530   63.7490 C   0  0  0  0  0  0  0  0  0  0  0  0
  131.5490  124.6980   65.1020 N   0  0  0  0  0  0  0  0  0  0  0  0
  131.3010  127.0890   67.3800 C   0  0  0  0  0  0  0  0  0  0  0  0
  130.9110  127.6500   68.5940 C   0  0  0  0  0  0  0  0  0  0  0  0
  128.9820  129.1080   70.2690 H   0  0  0  0  0  0  0  0  0  0  0  0
  129.1900  127.5490   71.0500 H   0  0  0  0  0  0  0  0  0  0  0  0
  127.5896  126.8636   68.5230 H   0  0  0  0  0  0  0  0  0  0  0  0
  128.2852  125.8568   66.3531 H   0  0  0  0  0  0  0  0  0  0  0  0
  129.9360  127.1210   63.8530 H   0  0  0  0  0  0  0  0  0  0  0  0
  130.5387  126.3180   61.1113 H   0  0  0  0  0  0  0  0  0  0  0  0
  132.8778  124.6728   59.1389 H   0  0  0  0  0  0  0  0  0  0  0  0
  131.4169  123.5852   59.1100 H   0  0  0  0  0  0  0  0  0  0  0  0
  132.5427  126.2248   57.4619 H   0  0  0  0  0  0  0  0  0  0  0  0
  131.2266  128.0830   56.4146 H   0  0  0  0  0  0  0  0  0  0  0  0
  128.6050  129.3500   56.6630 H   0  0  0  0  0  0  0  0  0  0  0  0
  125.6531  128.6436   56.0798 H   0  0  0  0  0  0  0  0  0  0  0  0
  123.5455  129.9704   56.0115 H   0  0  0  0  0  0  0  0  0  0  0  0
  122.1770  131.6750   57.0930 H   0  0  0  0  0  0  0  0  0  0  0  0
  122.2550  131.8820   58.8340 H   0  0  0  0  0  0  0  0  0  0  0  0
  124.2995  131.3783   60.0273 H   0  0  0  0  0  0  0  0  0  0  0  0
  126.4058  130.0492   60.1006 H   0  0  0  0  0  0  0  0  0  0  0  0
  127.0170  127.0550   59.6530 H   0  0  0  0  0  0  0  0  0  0  0  0
  129.2603  125.2450   60.1224 H   0  0  0  0  0  0  0  0  0  0  0  0
  132.9842  122.7361   61.1146 H   0  0  0  0  0  0  0  0  0  0  0  0
  132.9665  122.6439   63.6208 H   0  0  0  0  0  0  0  0  0  0  0  0
  131.8990  124.1600   65.8810 H   0  0  0  0  0  0  0  0  0  0  0  0
  132.3505  127.1568   67.0576 H   0  0  0  0  0  0  0  0  0  0  0  0
  131.6509  128.1586   69.2295 H   0  0  0  0  0  0  0  0  0  0  0  0
  1  2  1  0
  2  3  2  0
  3  4  1  0
  4  5  2  0
  5  6  1  0
  6  7  1  0
  7  8  1  0
  8  9  2  0
  9 10  1  0
 10 11  1  0
 11 12  1  0
 12 13  2  0
 13 14  1  0
 14 15  2  0
 15 16  1  0
 16 17  1  0
 17 18  1  0
 18 19  2  0
 19 20  1  0
 20 21  2  0
 21 22  1  0
 21 23  1  0
 23 24  2  0
 17 25  2  0
 25 26  1  0
 26 27  2  0
 10 28  2  0
 28 29  1  0
 29 30  2  0
 30 31  1  0
  5 32  1  0
 32 33  2  0
 33  2  1  0
 31  6  2  0
 30  8  1  0
 27 12  1  0
 26 15  1  0
 24 18  1  0
  1 34  1  0
  1 35  1  0
  3 36  1  0
  4 37  1  0
  7 38  1  0
  9 39  1  0
 11 40  1  0
 11 41  1  0
 13 42  1  0
 14 43  1  0
 16 44  1  0
 19 45  1  0
 20 46  1  0
 22 47  1  0
 22 48  1  0
 23 49  1  0
 24 50  1  0
 25 51  1  0
 27 52  1  0
 28 53  1  0
 29 54  1  0
 31 55  1  0
 32 56  1  0
 33 57  1  0
M  CHG  2  25   1  31   1
M  END
>  <Binding energies>  (1) 
[-7.97]

>  <Ligand effiencies>  (1) 
[-0.19439024390243903]

>  <Interactions>  (1) 
["V-B:ASP:366:CG:8185, H-B:ASP:366:OD2:8187, V-A:ASP:366:CG:3211, V-B:ILE:369:CG2:8209, V-A:ASP:366:CB:3210, V-A:TYR:539:CE2:4874, V-A:TYR:539:CZ:4875, H-B:GLU:543:OE2:9882, H-B:GLU:543:OE1:9881, H-A:GLU:543:OE2:4908, V-A:GLU:543:CD:4906, V-A:HIS:456:CE1:4068, H-A:TYR:484:OH:4346, V-B:TYR:531:CZ:9766, H-A:GLU:543:OE1:4907, V-B:GLU:543:CD:9880, V-B:GLU:543:CB:9878, V-B:GLU:543:CG:9879, V-A:GLU:543:CG:4905, V-B:HIS:456:CE1:9042, V-B:ASP:366:C:8180, V-B:ASP:366:CB:8184, V-B:ILE:369:CB:8208, H-A:TYR:539:OH:4876, V-B:ASP:366:CA:8182, V-A:GLY:544:C:4910, H-A:HIS:456:NE2:4069, V-A:GLU:543:C:4900, V-B:GLU:543:C:9874, H-B:GLU:543:O:9875, H-B:HIS:456:NE2:9043, H-A:GLU:543:O:4901, V-B:TYR:531:CE1:9764, V-A:ARG:545:CG:4920, V-A:GLY:454:CA:4047, V-A:TYR:484:CZ:4345, H-B:ASP:366:O:8181, V-B:ILE:369:C:8204, V-B:ILE:369:CA:8206"]

$$$$
RR12_Rahimova_2017
     RDKit          3D

 51 53  0  0  0  0  0  0  0  0999 V2000
  131.9980  131.1310   61.4260 C   0  0  0  0  0  0  0  0  0  0  0  0
  130.5750  131.4120   60.9270 C   0  0  0  0  0  0  0  0  0  0  0  0
  130.1640  130.4950   59.7600 C   0  0  0  0  0  0  0  0  0  0  0  0
  130.3420  131.1760   58.4800 N   0  0  0  0  0  0  0  0  0  0  0  0
  129.3620  131.7590   57.6910 C   0  0  0  0  0  0  0  0  0  0  0  0
  127.8810  131.7390   58.0270 C   0  0  0  0  0  0  0  0  0  0  0  0
  127.0830  130.7940   57.1090 C   0  0  0  0  0  0  0  0  0  0  0  0
  126.1910  129.8140   57.8940 C   0  0  0  0  0  0  0  0  0  0  0  0
  125.4910  130.4260   59.0230 N   0  0  0  0  0  0  0  0  0  0  0  0
  124.2730  130.9930   58.9590 C   0  0  0  0  0  0  0  0  0  0  0  0
  123.6110  131.0580   57.9210 O   0  0  0  0  0  0  0  0  0  0  0  0
  123.7360  131.5630   60.2780 C   0  0  0  0  0  0  0  0  0  0  0  0
  124.8080  131.6860   61.2150 O   0  0  0  0  0  0  0  0  0  0  0  0
  125.6410  132.7870   61.1490 C   0  0  0  0  0  0  0  0  0  0  0  0
  127.0130  132.5310   61.2110 C   0  0  0  0  0  0  0  0  0  0  0  0
  127.9310  133.5750   61.1490 C   0  0  0  0  0  0  0  0  0  0  0  0
  127.4770  134.8850   61.0220 C   0  0  0  0  0  0  0  0  0  0  0  0
  126.1120  135.1590   60.9610 C   0  0  0  0  0  0  0  0  0  0  0  0
  125.1950  134.1130   61.0250 C   0  0  0  0  0  0  0  0  0  0  0  0
  129.8340  132.3200   56.6050 N   0  0  0  0  0  0  0  0  0  0  0  0
  131.1870  132.1330   56.6740 C   0  0  0  0  0  0  0  0  0  0  0  0
  132.1820  132.5470   55.7750 C   0  0  0  0  0  0  0  0  0  0  0  0
  133.5080  132.2370   56.0750 C   0  0  0  0  0  0  0  0  0  0  0  0
  133.8450  131.5370   57.2340 C   0  0  0  0  0  0  0  0  0  0  0  0
  132.8780  131.1110   58.1470 C   0  0  0  0  0  0  0  0  0  0  0  0
  131.5460  131.4210   57.8450 C   0  0  0  0  0  0  0  0  0  0  0  0
  132.0072  131.1292   62.5260 H   0  0  0  0  0  0  0  0  0  0  0  0
  132.3297  130.1500   61.0549 H   0  0  0  0  0  0  0  0  0  0  0  0
  132.6776  131.9123   61.0549 H   0  0  0  0  0  0  0  0  0  0  0  0
  129.8730  131.2583   61.7598 H   0  0  0  0  0  0  0  0  0  0  0  0
  130.5495  132.4488   60.5605 H   0  0  0  0  0  0  0  0  0  0  0  0
  130.7871  129.5886   59.7764 H   0  0  0  0  0  0  0  0  0  0  0  0
  129.1024  130.2308   59.8751 H   0  0  0  0  0  0  0  0  0  0  0  0
  127.7595  131.4058   59.0683 H   0  0  0  0  0  0  0  0  0  0  0  0
  127.4904  132.7569   57.8812 H   0  0  0  0  0  0  0  0  0  0  0  0
  126.4442  131.4003   56.4500 H   0  0  0  0  0  0  0  0  0  0  0  0
  127.8082  130.1969   56.5366 H   0  0  0  0  0  0  0  0  0  0  0  0
  125.4408  129.3998   57.2044 H   0  0  0  0  0  0  0  0  0  0  0  0
  126.8539  129.0409   58.3097 H   0  0  0  0  0  0  0  0  0  0  0  0
  125.9720  130.4080   59.9110 H   0  0  0  0  0  0  0  0  0  0  0  0
  123.2925  132.5531   60.0961 H   0  0  0  0  0  0  0  0  0  0  0  0
  122.9693  130.8870   60.6845 H   0  0  0  0  0  0  0  0  0  0  0  0
  127.3706  131.4955   61.3097 H   0  0  0  0  0  0  0  0  0  0  0  0
  129.0098  133.3663   61.2001 H   0  0  0  0  0  0  0  0  0  0  0  0
  128.2019  135.7107   60.9694 H   0  0  0  0  0  0  0  0  0  0  0  0
  125.7606  136.1967   60.8628 H   0  0  0  0  0  0  0  0  0  0  0  0
  124.1169  134.3261   60.9782 H   0  0  0  0  0  0  0  0  0  0  0  0
  131.9233  133.1001   54.8601 H   0  0  0  0  0  0  0  0  0  0  0  0
  134.3044  132.5506   55.3840 H   0  0  0  0  0  0  0  0  0  0  0  0
  134.9034  131.3142   57.4344 H   0  0  0  0  0  0  0  0  0  0  0  0
  133.1492  130.5589   59.0589 H   0  0  0  0  0  0  0  0  0  0  0  0
  1  2  1  0
  2  3  1  0
  3  4  1  0
  4  5  1  0
  5  6  1  0
  6  7  1  0
  7  8  1  0
  8  9  1  0
  9 10  1  0
 10 11  2  0
 10 12  1  0
 12 13  1  0
 13 14  1  0
 14 15  2  0
 15 16  1  0
 16 17  2  0
 17 18  1  0
 18 19  2  0
  5 20  2  0
 20 21  1  0
 21 22  2  0
 22 23  1  0
 23 24  2  0
 24 25  1  0
 25 26  2  0
 26  4  1  0
 19 14  1  0
 26 21  1  0
  1 27  1  0
  1 28  1  0
  1 29  1  0
  2 30  1  0
  2 31  1  0
  3 32  1  0
  3 33  1  0
  6 34  1  0
  6 35  1  0
  7 36  1  0
  7 37  1  0
  8 38  1  0
  8 39  1  0
  9 40  1  0
 12 41  1  0
 12 42  1  0
 15 43  1  0
 16 44  1  0
 17 45  1  0
 18 46  1  0
 19 47  1  0
 22 48  1  0
 23 49  1  0
 24 50  1  0
 25 51  1  0
M  END
>  <Binding energies>  (1) 
[-7.59]

>  <Ligand effiencies>  (1) 
[-0.2811111111111111]

>  <Interactions>  (1) 
["V-A:ILE:538:CG2:4861, V-A:PRO:540:CD:4885, V-B:ASP:366:CG:8185, V-A:PRO:540:N:4882, V-A:ILE:538:CB:4860, V-A:ILE:538:CA:4858, V-B:ILE:369:CD1:8211, V-A:TYR:539:CD2:4872, V-B:ILE:369:CG2:8209, V-B:LEU:475:CD2:9231, V-A:TYR:539:CE2:4874, V-A:TYR:539:CZ:4875, V-B:TRP:381:CH2:8344, V-A:PRO:540:CA:4881, V-B:TRP:381:CZ2:8342, V-A:ALA:541:CB:4890, V-A:PRO:540:CB:4883, V-A:LEU:363:CD1:3187, V-A:TYR:539:C:4865, V-A:TYR:539:CE1:4873, V-A:TYR:531:CE2:4791, V-B:ASP:366:CB:8184, H-A:TYR:539:OH:4876, V-B:ASP:366:CA:8182, H-A:TYR:539:N:4868, V-A:LEU:363:CB:3185, V-A:LEU:363:CA:3183, V-A:PRO:540:CG:4884"]

$$$$
RR13_Rahimova_2017
     RDKit          3D

 84 90  0  0  0  0  0  0  0  0999 V2000
  133.3910  130.7450   57.6090 Cl  0  0  0  0  0  0  0  0  0  0  0  0
  131.8690  131.1160   56.8720 C   0  0  0  0  0  0  0  0  0  0  0  0
  131.8770  131.9400   55.7440 C   0  0  0  0  0  0  0  0  0  0  0  0
  130.6840  132.2930   55.1180 C   0  0  0  0  0  0  0  0  0  0  0  0
  129.4730  131.8240   55.6200 C   0  0  0  0  0  0  0  0  0  0  0  0
  129.4570  131.0010   56.7440 C   0  0  0  0  0  0  0  0  0  0  0  0
  130.6500  130.6250   57.3820 C   0  0  0  0  0  0  0  0  0  0  0  0
  130.6040  129.7320   58.6420 C   0  0  1  0  0  0  0  0  0  0  0  0
  130.7780  130.5700   59.9180 C   0  0  0  0  0  0  0  0  0  0  0  0
  131.8790  130.7040   60.6250 N   0  0  0  0  0  0  0  0  0  0  0  0
  131.5460  131.5290   61.6950 N   0  0  0  0  0  0  0  0  0  0  0  0
  130.2110  131.8760   61.6290 N   0  0  0  0  0  0  0  0  0  0  0  0
  129.7530  131.2520   60.5380 N   0  0  0  0  0  0  0  0  0  0  0  0
  128.3660  131.4180   60.1200 C   0  0  0  0  0  0  0  0  0  0  0  0
  127.8970  132.8610   60.3880 C   0  0  0  0  0  0  0  0  0  0  0  0
  126.5580  132.9050   61.1080 C   0  0  0  0  0  0  0  0  0  0  0  0
  126.3470  132.1110   62.2380 C   0  0  0  0  0  0  0  0  0  0  0  0
  125.1180  132.1470   62.8920 C   0  0  0  0  0  0  0  0  0  0  0  0
  124.1050  132.9750   62.4120 C   0  0  0  0  0  0  0  0  0  0  0  0
  124.3090  133.7680   61.2860 C   0  0  0  0  0  0  0  0  0  0  0  0
  125.5380  133.7330   60.6310 C   0  0  0  0  0  0  0  0  0  0  0  0
  129.4110  128.8550   58.7000 N   0  0  0  0  0  0  0  0  0  0  0  0
  129.6450  127.7230   59.6160 C   0  0  0  0  0  0  0  0  0  0  0  0
  128.3610  126.8790   59.7850 C   0  0  0  0  0  0  0  0  0  0  0  0
  127.9360  126.3160   58.4930 N   0  0  0  0  0  0  0  0  0  0  0  0
  126.7540  125.4310   58.6210 C   0  0  1  0  0  0  0  0  0  0  0  0
  126.4200  124.5820   57.3750 C   0  0  0  0  0  0  0  0  0  0  0  0
  127.4080  124.4790   56.3860 C   0  0  0  0  0  0  0  0  0  0  0  0
  127.2000  123.7200   55.2360 C   0  0  0  0  0  0  0  0  0  0  0  0
  125.9920  123.0530   55.0530 C   0  0  0  0  0  0  0  0  0  0  0  0
  124.9910  123.1550   56.0160 C   0  0  0  0  0  0  0  0  0  0  0  0
  125.1880  123.9170   57.1710 C   0  0  0  0  0  0  0  0  0  0  0  0
  123.8590  124.0370   58.2740 Cl  0  0  0  0  0  0  0  0  0  0  0  0
  126.8010  124.5430   59.8660 C   0  0  0  0  0  0  0  0  0  0  0  0
  125.9330  124.5650   60.8510 N   0  0  0  0  0  0  0  0  0  0  0  0
  126.3500  123.5900   61.7510 N   0  0  0  0  0  0  0  0  0  0  0  0
  127.4840  122.9640   61.2770 N   0  0  0  0  0  0  0  0  0  0  0  0
  127.7320  123.5540   60.1020 N   0  0  0  0  0  0  0  0  0  0  0  0
  128.8920  123.1520   59.3130 C   0  0  0  0  0  0  0  0  0  0  0  0
  130.1900  123.6570   59.9710 C   0  0  0  0  0  0  0  0  0  0  0  0
  131.2350  122.5590   60.0950 C   0  0  0  0  0  0  0  0  0  0  0  0
  132.5940  122.8840   60.0790 C   0  0  0  0  0  0  0  0  0  0  0  0
  133.5500  121.8800   60.1990 C   0  0  0  0  0  0  0  0  0  0  0  0
  133.1450  120.5520   60.3340 C   0  0  0  0  0  0  0  0  0  0  0  0
  131.7900  120.2230   60.3510 C   0  0  0  0  0  0  0  0  0  0  0  0
  130.8330  121.2260   60.2320 C   0  0  0  0  0  0  0  0  0  0  0  0
  127.6970  127.4500   57.5820 C   0  0  0  0  0  0  0  0  0  0  0  0
  128.9870  128.2850   57.4100 C   0  0  0  0  0  0  0  0  0  0  0  0
  132.8328  132.3129   55.3472 H   0  0  0  0  0  0  0  0  0  0  0  0
  130.6985  132.9408   54.2291 H   0  0  0  0  0  0  0  0  0  0  0  0
  128.5290  132.1032   55.1292 H   0  0  0  0  0  0  0  0  0  0  0  0
  128.4953  130.6403   57.1376 H   0  0  0  0  0  0  0  0  0  0  0  0
  131.4600  129.0447   58.5720 H   0  0  0  0  0  0  0  0  0  0  0  0
  128.2827  131.2030   59.0444 H   0  0  0  0  0  0  0  0  0  0  0  0
  127.7337  130.7235   60.6926 H   0  0  0  0  0  0  0  0  0  0  0  0
  128.6499  133.3688   61.0087 H   0  0  0  0  0  0  0  0  0  0  0  0
  127.7750  133.3626   59.4166 H   0  0  0  0  0  0  0  0  0  0  0  0
  127.1503  131.4584   62.6105 H   0  0  0  0  0  0  0  0  0  0  0  0
  124.9477  131.5249   63.7831 H   0  0  0  0  0  0  0  0  0  0  0  0
  123.1340  133.0023   62.9282 H   0  0  0  0  0  0  0  0  0  0  0  0
  123.5036  134.4191   60.9153 H   0  0  0  0  0  0  0  0  0  0  0  0
  125.7054  134.3559   59.7400 H   0  0  0  0  0  0  0  0  0  0  0  0
  130.4434  127.0868   59.2064 H   0  0  0  0  0  0  0  0  0  0  0  0
  129.9380  128.1198   60.5992 H   0  0  0  0  0  0  0  0  0  0  0  0
  128.5586  126.0577   60.4895 H   0  0  0  0  0  0  0  0  0  0  0  0
  127.5595  127.5267   60.1699 H   0  0  0  0  0  0  0  0  0  0  0  0
  125.9285  126.1501   58.7282 H   0  0  0  0  0  0  0  0  0  0  0  0
  128.3640  125.0064   56.5200 H   0  0  0  0  0  0  0  0  0  0  0  0
  127.9896  123.6480   54.4736 H   0  0  0  0  0  0  0  0  0  0  0  0
  125.8284  122.4467   54.1499 H   0  0  0  0  0  0  0  0  0  0  0  0
  124.0358  122.6306   55.8661 H   0  0  0  0  0  0  0  0  0  0  0  0
  128.9225  122.0544   59.2467 H   0  0  0  0  0  0  0  0  0  0  0  0
  128.8083  123.5893   58.3071 H   0  0  0  0  0  0  0  0  0  0  0  0
  130.6035  124.4724   59.3593 H   0  0  0  0  0  0  0  0  0  0  0  0
  129.9422  124.0040   60.9850 H   0  0  0  0  0  0  0  0  0  0  0  0
  132.9078  123.9328   59.9716 H   0  0  0  0  0  0  0  0  0  0  0  0
  134.6206  122.1325   60.1875 H   0  0  0  0  0  0  0  0  0  0  0  0
  133.9005  119.7580   60.4278 H   0  0  0  0  0  0  0  0  0  0  0  0
  131.4786  119.1735   60.4582 H   0  0  0  0  0  0  0  0  0  0  0  0
  129.7629  120.9715   60.2456 H   0  0  0  0  0  0  0  0  0  0  0  0
  127.3803  127.0662   56.6010 H   0  0  0  0  0  0  0  0  0  0  0  0
  126.9116  128.0910   58.0089 H   0  0  0  0  0  0  0  0  0  0  0  0
  129.7869  127.6384   57.0200 H   0  0  0  0  0  0  0  0  0  0  0  0
  128.7862  129.1074   56.7076 H   0  0  0  0  0  0  0  0  0  0  0  0
  1  2  1  0
  2  3  2  0
  3  4  1  0
  4  5  2  0
  5  6  1  0
  6  7  2  0
  7  8  1  0
  8  9  1  0
  9 10  2  0
 10 11  1  0
 11 12  2  0
 12 13  1  0
 13 14  1  0
 14 15  1  0
 15 16  1  0
 16 17  2  0
 17 18  1  0
 18 19  2  0
 19 20  1  0
 20 21  2  0
  8 22  1  0
 22 23  1  0
 23 24  1  0
 24 25  1  0
 25 26  1  0
 26 27  1  0
 27 28  2  0
 28 29  1  0
 29 30  2  0
 30 31  1  0
 31 32  2  0
 32 33  1  0
 26 34  1  0
 34 35  2  0
 35 36  1  0
 36 37  2  0
 37 38  1  0
 38 39  1  0
 39 40  1  0
 40 41  1  0
 41 42  2  0
 42 43  1  0
 43 44  2  0
 44 45  1  0
 45 46  2  0
 25 47  1  0
 47 48  1  0
  7  2  1  0
 13  9  1  0
 21 16  1  0
 48 22  1  0
 32 27  1  0
 38 34  1  0
 46 41  1  0
  3 49  1  0
  4 50  1  0
  5 51  1  0
  6 52  1  0
  8 53  1  6
 14 54  1  0
 14 55  1  0
 15 56  1  0
 15 57  1  0
 17 58  1  0
 18 59  1  0
 19 60  1  0
 20 61  1  0
 21 62  1  0
 23 63  1  0
 23 64  1  0
 24 65  1  0
 24 66  1  0
 26 67  1  1
 28 68  1  0
 29 69  1  0
 30 70  1  0
 31 71  1  0
 39 72  1  0
 39 73  1  0
 40 74  1  0
 40 75  1  0
 42 76  1  0
 43 77  1  0
 44 78  1  0
 45 79  1  0
 46 80  1  0
 47 81  1  0
 47 82  1  0
 48 83  1  0
 48 84  1  0
M  END
>  <Binding energies>  (1) 
[-14.9]

>  <Ligand effiencies>  (1) 
[-0.3104166666666667]

>  <Interactions>  (1) 
["V-A:ILE:538:CG2:4861, V-A:PRO:540:CD:4885, V-B:ASP:366:CG:8185, V-B:TYR:539:CD2:9846, V-B:PRO:540:CA:9855, H-B:ALA:541:N:9863, V-A:LEU:475:CD2:4257, V-A:ILE:369:CG2:3235, V-A:TRP:381:CZ2:3368, V-A:ILE:538:CB:4860, V-A:ILE:538:CA:4858, V-A:TRP:381:CH2:3370, V-A:ILE:369:CD1:3237, V-B:TYR:539:CE2:9848, V-B:PRO:540:N:9856, V-B:ILE:538:CB:9834, V-A:ASP:366:CG:3211, V-B:ILE:369:CD1:8211, V-A:TYR:539:CD2:4872, V-B:TYR:531:CE2:9765, V-B:PRO:540:CD:9859, V-B:PRO:540:CB:9857, V-B:ILE:369:CG2:8209, V-A:ASP:366:CB:3210, V-B:LEU:475:CD2:9231, V-A:TYR:539:CE2:4874, V-B:ILE:538:CG2:9835, H-A:ALA:541:N:4889, H-B:ARG:545:NH2:9900, V-B:ILE:538:CA:9832, V-A:PRO:540:CB:4883, V-A:TYR:539:CE1:4873, H-A:ARG:545:NH2:4926, V-A:TYR:531:CE2:4791, V-A:TYR:539:CD1:4871, V-A:LEU:363:CA:3183, V-B:LEU:363:CA:8157, V-A:ILE:538:C:4856, V-B:GLY:454:CA:9021, V-B:ILE:538:C:9830"]

$$$$
RR14_Rahimova_2017
     RDKit          3D

 76 80  0  0  0  0  0  0  0  0999 V2000
  125.4750  129.3110   65.9370 C   0  0  0  0  0  0  0  0  0  0  0  0
  124.4810  130.0090   65.1950 O   0  0  0  0  0  0  0  0  0  0  0  0
  124.8190  130.5730   63.9800 C   0  0  0  0  0  0  0  0  0  0  0  0
  123.8860  130.4420   62.9510 C   0  0  0  0  0  0  0  0  0  0  0  0
  124.1500  130.9560   61.6850 C   0  0  0  0  0  0  0  0  0  0  0  0
  125.3610  131.6050   61.4340 C   0  0  0  0  0  0  0  0  0  0  0  0
  125.6820  132.1120   60.0330 C   0  0  0  0  0  0  0  0  0  0  0  0
  124.7950  131.5680   59.0040 N   0  0  0  0  0  0  0  0  0  0  0  0
  123.6650  132.2060   58.6790 N   0  0  0  0  0  0  0  0  0  0  0  0
  123.0770  131.4090   57.7170 N   0  0  0  0  0  0  0  0  0  0  0  0
  123.8640  130.2870   57.4780 N   0  0  0  0  0  0  0  0  0  0  0  0
  124.8990  130.4010   58.2770 C   0  0  0  0  0  0  0  0  0  0  0  0
  126.0330  129.3930   58.3930 C   0  0  0  0  0  0  0  0  0  0  0  0
  127.0120  129.5180   57.3000 N   0  0  0  0  0  0  0  0  0  0  0  0
  126.4050  129.2610   55.9880 C   0  0  0  0  0  0  0  0  0  0  0  0
  127.1330  128.1650   55.1800 C   0  0  0  0  0  0  0  0  0  0  0  0
  127.6730  127.0100   56.0500 C   0  0  0  0  0  0  0  0  0  0  0  0
  127.1310  125.6990   55.6750 N   0  0  0  0  0  0  0  0  0  0  0  0
  126.5820  125.0180   56.8550 C   0  0  0  0  0  0  0  0  0  0  0  0
  126.0490  123.6130   56.5040 C   0  0  0  0  0  0  0  0  0  0  0  0
  127.0670  122.8490   55.8650 O   0  0  0  0  0  0  0  0  0  0  0  0
  127.5200  123.4560   54.6600 C   0  0  0  0  0  0  0  0  0  0  0  0
  128.0980  124.8560   54.9550 C   0  0  0  0  0  0  0  0  0  0  0  0
  127.6330  130.8500   57.3280 C   0  0  0  0  0  0  0  0  0  0  0  0
  129.1420  130.8810   57.5590 C   0  0  0  0  0  0  0  0  0  0  0  0
  129.6570  130.9590   58.8110 C   0  0  0  0  0  0  0  0  0  0  0  0
  131.1110  131.0310   59.0600 C   0  0  0  0  0  0  0  0  0  0  0  0
  131.6790  131.0920   60.3440 C   0  0  0  0  0  0  0  0  0  0  0  0
  130.8170  131.0880   61.5990 C   0  0  0  0  0  0  0  0  0  0  0  0
  133.0690  131.1550   60.4690 C   0  0  0  0  0  0  0  0  0  0  0  0
  133.8870  131.1570   59.3410 C   0  0  0  0  0  0  0  0  0  0  0  0
  133.3320  131.0950   58.0590 C   0  0  0  0  0  0  0  0  0  0  0  0
  134.2520  131.0970   56.8450 C   0  0  0  0  0  0  0  0  0  0  0  0
  131.9360  131.0310   57.9210 C   0  0  0  0  0  0  0  0  0  0  0  0
  131.3310  130.9690   56.6480 N   0  0  0  0  0  0  0  0  0  0  0  0
  130.0040  130.9020   56.3730 C   0  0  0  0  0  0  0  0  0  0  0  0
  129.6100  130.8690   55.2080 O   0  0  0  0  0  0  0  0  0  0  0  0
  126.2890  131.7670   62.4650 C   0  0  0  0  0  0  0  0  0  0  0  0
  126.0240  131.2510   63.7300 C   0  0  0  0  0  0  0  0  0  0  0  0
  125.2886  129.4419   67.0132 H   0  0  0  0  0  0  0  0  0  0  0  0
  125.4362  128.2408   65.6856 H   0  0  0  0  0  0  0  0  0  0  0  0
  126.4684  129.7109   65.6856 H   0  0  0  0  0  0  0  0  0  0  0  0
  122.9327  129.9276   63.1422 H   0  0  0  0  0  0  0  0  0  0  0  0
  123.4052  130.8512   60.8823 H   0  0  0  0  0  0  0  0  0  0  0  0
  125.5908  133.2082   60.0288 H   0  0  0  0  0  0  0  0  0  0  0  0
  126.7028  131.7805   59.7921 H   0  0  0  0  0  0  0  0  0  0  0  0
  126.5506  129.5528   59.3503 H   0  0  0  0  0  0  0  0  0  0  0  0
  125.5931  128.3865   58.3345 H   0  0  0  0  0  0  0  0  0  0  0  0
  125.3623  128.9463   56.1418 H   0  0  0  0  0  0  0  0  0  0  0  0
  126.4766  130.1933   55.4087 H   0  0  0  0  0  0  0  0  0  0  0  0
  126.4274  127.7472   54.4468 H   0  0  0  0  0  0  0  0  0  0  0  0
  128.0016  128.6410   54.7015 H   0  0  0  0  0  0  0  0  0  0  0  0
  128.7677  126.9777   55.9472 H   0  0  0  0  0  0  0  0  0  0  0  0
  127.3598  127.2081   57.0857 H   0  0  0  0  0  0  0  0  0  0  0  0
  127.3745  124.9203   57.6116 H   0  0  0  0  0  0  0  0  0  0  0  0
  125.7436  125.6177   57.2390 H   0  0  0  0  0  0  0  0  0  0  0  0
  125.7353  123.1020   57.4262 H   0  0  0  0  0  0  0  0  0  0  0  0
  125.1921  123.7131   55.8216 H   0  0  0  0  0  0  0  0  0  0  0  0
  128.3016  122.8278   54.2079 H   0  0  0  0  0  0  0  0  0  0  0  0
  126.6718  123.5559   53.9667 H   0  0  0  0  0  0  0  0  0  0  0  0
  129.0036  124.7463   55.5698 H   0  0  0  0  0  0  0  0  0  0  0  0
  128.3315  125.3415   53.9960 H   0  0  0  0  0  0  0  0  0  0  0  0
  127.4305  131.3360   56.3622 H   0  0  0  0  0  0  0  0  0  0  0  0
  127.1902  131.3652   58.1932 H   0  0  0  0  0  0  0  0  0  0  0  0
  128.9692  130.9690   59.6694 H   0  0  0  0  0  0  0  0  0  0  0  0
  131.4643  131.0910   62.4884 H   0  0  0  0  0  0  0  0  0  0  0  0
  130.1778  131.9832   61.6077 H   0  0  0  0  0  0  0  0  0  0  0  0
  130.1861  130.1869   61.6077 H   0  0  0  0  0  0  0  0  0  0  0  0
  133.5231  131.2036   61.4697 H   0  0  0  0  0  0  0  0  0  0  0  0
  134.9794  131.2078   59.4601 H   0  0  0  0  0  0  0  0  0  0  0  0
  135.3000  131.0993   57.1792 H   0  0  0  0  0  0  0  0  0  0  0  0
  134.0621  130.1984   56.2396 H   0  0  0  0  0  0  0  0  0  0  0  0
  134.0582  131.9947   56.2396 H   0  0  0  0  0  0  0  0  0  0  0  0
  131.9280  130.9800   55.8360 H   0  0  0  0  0  0  0  0  0  0  0  0
  127.2308  132.3033   62.2769 H   0  0  0  0  0  0  0  0  0  0  0  0
  126.7608  131.3744   64.5374 H   0  0  0  0  0  0  0  0  0  0  0  0
  1  2  1  0
  2  3  1  0
  3  4  2  0
  4  5  1  0
  5  6  2  0
  6  7  1  0
  7  8  1  0
  8  9  1  0
  9 10  2  0
 10 11  1  0
 11 12  2  0
 12 13  1  0
 13 14  1  0
 14 15  1  0
 15 16  1  0
 16 17  1  0
 17 18  1  0
 18 19  1  0
 19 20  1  0
 20 21  1  0
 21 22  1  0
 22 23  1  0
 14 24  1  0
 24 25  1  0
 25 26  2  0
 26 27  1  0
 27 28  2  0
 28 29  1  0
 28 30  1  0
 30 31  2  0
 31 32  1  0
 32 33  1  0
 32 34  2  0
 34 35  1  0
 35 36  1  0
 36 37  2  0
  6 38  1  0
 38 39  2  0
 39  3  1  0
 12  8  1  0
 23 18  1  0
 36 25  1  0
 34 27  1  0
  1 40  1  0
  1 41  1  0
  1 42  1  0
  4 43  1  0
  5 44  1  0
  7 45  1  0
  7 46  1  0
 13 47  1  0
 13 48  1  0
 15 49  1  0
 15 50  1  0
 16 51  1  0
 16 52  1  0
 17 53  1  0
 17 54  1  0
 19 55  1  0
 19 56  1  0
 20 57  1  0
 20 58  1  0
 22 59  1  0
 22 60  1  0
 23 61  1  0
 23 62  1  0
 24 63  1  0
 24 64  1  0
 26 65  1  0
 29 66  1  0
 29 67  1  0
 29 68  1  0
 30 69  1  0
 31 70  1  0
 33 71  1  0
 33 72  1  0
 33 73  1  0
 35 74  1  0
 38 75  1  0
 39 76  1  0
M  END
>  <Binding energies>  (1) 
[-11.38]

>  <Ligand effiencies>  (1) 
[-0.28450000000000003]

>  <Interactions>  (1) 
["V-B:ASP:366:CG:8185, H-B:TYR:531:OH:9767, V-A:TYR:531:CZ:4792, V-B:PRO:540:N:9856, V-A:ASP:366:CG:3211, H-A:TYR:531:OH:4793, V-A:TYR:539:CD2:4872, V-A:ASP:366:CB:3210, V-A:TYR:539:CE2:4874, V-A:TYR:539:CZ:4875, V-A:PRO:540:CA:4881, V-B:TYR:539:CE1:9847, V-A:GLU:543:CD:4906, V-B:ILE:538:CA:9832, V-B:ARG:545:CZ:9898, V-B:TYR:539:CD1:9845, V-A:ASN:362:CB:3174, H-B:ARG:545:NE:9896, H-B:GLY:454:N:9022, V-A:PRO:540:CB:4883, V-A:LEU:363:CD1:3187, H-B:TYR:484:OH:9320, V-A:TYR:531:CE2:4791, V-B:HIS:456:CE1:9042, V-B:ASP:366:CB:8184, H-A:TYR:539:OH:4876, V-B:ARG:545:CG:9894, V-B:ARG:545:CD:9895, V-A:LEU:363:CB:3185, V-A:LEU:363:CA:3183, H-B:TYR:539:N:9842, V-A:ASN:362:C:3170, V-B:GLY:453:C:9014, V-B:GLY:453:CA:9016, V-A:LEU:363:C:3181"]

$$$$
RR15_Rahimova_2017
     RDKit          3D

 85 89  0  0  0  0  0  0  0  0999 V2000
  133.7750  120.9080   60.6890 C   0  0  0  0  0  0  0  0  0  0  0  0
  133.8920  122.3270   60.7310 O   0  0  0  0  0  0  0  0  0  0  0  0
  133.3370  123.0870   59.7160 C   0  0  0  0  0  0  0  0  0  0  0  0
  134.0890  123.6940   58.6980 C   0  0  0  0  0  0  0  0  0  0  0  0
  133.4670  124.4490   57.7070 C   0  0  0  0  0  0  0  0  0  0  0  0
  132.0790  124.6210   57.7040 C   0  0  0  0  0  0  0  0  0  0  0  0
  131.4080  125.4420   56.6370 C   0  0  0  0  0  0  0  0  0  0  0  0
  131.8480  125.4980   55.3870 N   0  0  0  0  0  0  0  0  0  0  0  0
  130.9900  126.3470   54.7190 N   0  0  0  0  0  0  0  0  0  0  0  0
  130.0920  126.6810   55.6460 N   0  0  0  0  0  0  0  0  0  0  0  0
  129.0780  127.7070   55.4080 C   0  0  0  0  0  0  0  0  0  0  0  0
  128.6620  128.5120   56.6650 C   0  0  0  0  0  0  0  0  0  0  0  0
  128.6080  129.7410   56.5780 O   0  0  0  0  0  0  0  0  0  0  0  0
  128.3380  127.8490   57.8170 N   0  0  0  0  0  0  0  0  0  0  0  0
  129.3050  127.7160   58.9240 C   0  0  0  0  0  0  0  0  0  0  0  0
  129.5710  129.0390   59.6750 C   0  0  0  0  0  0  0  0  0  0  0  0
  130.8510  129.7880   59.2370 C   0  0  0  0  0  0  0  0  0  0  0  0
  130.7080  130.5100   57.9690 N   0  0  0  0  0  0  0  0  0  0  0  0
  129.9150  131.7430   58.0810 C   0  0  0  0  0  0  0  0  0  0  0  0
  129.8670  132.5080   56.7400 C   0  0  0  0  0  0  0  0  0  0  0  0
  131.1870  132.7560   56.2690 O   0  0  0  0  0  0  0  0  0  0  0  0
  131.9240  131.5560   56.0600 C   0  0  0  0  0  0  0  0  0  0  0  0
  132.0310  130.7670   57.3830 C   0  0  0  0  0  0  0  0  0  0  0  0
  126.9530  127.3840   58.1360 C   0  0  2  0  0  0  0  0  0  0  0  0
  126.4620  126.1950   57.2530 C   0  0  0  0  0  0  0  0  0  0  0  0
  126.8950  126.0290   56.1120 O   0  0  0  0  0  0  0  0  0  0  0  0
  125.5810  125.3620   57.8360 N   0  0  0  0  0  0  0  0  0  0  0  0
  125.0640  124.1330   57.2450 C   0  0  0  0  0  0  0  0  0  0  0  0
  126.1180  123.0110   57.2840 C   0  0  2  0  0  0  0  0  0  0  0  0
  127.3390  123.2830   58.1790 C   0  0  0  0  0  0  0  0  0  0  0  0
  128.4290  123.6920   57.2190 C   0  0  0  0  0  0  0  0  0  0  0  0
  128.0870  122.8510   56.0010 C   0  0  0  0  0  0  0  0  0  0  0  0
  126.6670  122.9320   55.9610 O   0  0  0  0  0  0  0  0  0  0  0  0
  126.0110  128.5710   58.3020 C   0  0  0  0  0  0  0  0  0  0  0  0
  125.2000  128.9260   57.2170 C   0  0  0  0  0  0  0  0  0  0  0  0
  124.3220  130.0020   57.3110 C   0  0  0  0  0  0  0  0  0  0  0  0
  124.2460  130.7310   58.4940 C   0  0  0  0  0  0  0  0  0  0  0  0
  123.3920  131.7750   58.5860 F   0  0  0  0  0  0  0  0  0  0  0  0
  125.0440  130.3920   59.5840 C   0  0  0  0  0  0  0  0  0  0  0  0
  125.9230  129.3170   59.4890 C   0  0  0  0  0  0  0  0  0  0  0  0
  130.3340  126.1760   56.8610 N   0  0  0  0  0  0  0  0  0  0  0  0
  131.3310  124.0120   58.7200 C   0  0  0  0  0  0  0  0  0  0  0  0
  131.9430  123.2450   59.7250 C   0  0  0  0  0  0  0  0  0  0  0  0
  131.2470  122.6220   60.7460 O   0  0  0  0  0  0  0  0  0  0  0  0
  129.9380  122.1200   60.5000 C   0  0  0  0  0  0  0  0  0  0  0  0
  133.7424  120.5123   61.7148 H   0  0  0  0  0  0  0  0  0  0  0  0
  132.8510  120.6318   60.1599 H   0  0  0  0  0  0  0  0  0  0  0  0
  134.6412  120.4842   60.1599 H   0  0  0  0  0  0  0  0  0  0  0  0
  135.1821  123.5719   58.6829 H   0  0  0  0  0  0  0  0  0  0  0  0
  134.0743  124.9155   56.9174 H   0  0  0  0  0  0  0  0  0  0  0  0
  129.4743  128.4140   54.6643 H   0  0  0  0  0  0  0  0  0  0  0  0
  128.1761  127.1782   55.0659 H   0  0  0  0  0  0  0  0  0  0  0  0
  128.9124  126.9813   59.6423 H   0  0  0  0  0  0  0  0  0  0  0  0
  130.2606  127.3988   58.4811 H   0  0  0  0  0  0  0  0  0  0  0  0
  128.7114  129.7051   59.5095 H   0  0  0  0  0  0  0  0  0  0  0  0
  129.7157  128.7710   60.7320 H   0  0  0  0  0  0  0  0  0  0  0  0
  131.1145  130.5129   60.0213 H   0  0  0  0  0  0  0  0  0  0  0  0
  131.6322  129.0281   59.0873 H   0  0  0  0  0  0  0  0  0  0  0  0
  128.8893  131.4824   58.3809 H   0  0  0  0  0  0  0  0  0  0  0  0
  130.3893  132.3918   58.8321 H   0  0  0  0  0  0  0  0  0  0  0  0
  129.3232  131.9059   55.9973 H   0  0  0  0  0  0  0  0  0  0  0  0
  129.3535  133.4688   56.8926 H   0  0  0  0  0  0  0  0  0  0  0  0
  131.4104  130.9390   55.3080 H   0  0  0  0  0  0  0  0  0  0  0  0
  132.9346  131.8089   55.7067 H   0  0  0  0  0  0  0  0  0  0  0  0
  132.5269  129.8051   57.1857 H   0  0  0  0  0  0  0  0  0  0  0  0
  132.6118  131.3698   58.0967 H   0  0  0  0  0  0  0  0  0  0  0  0
  126.9625  126.9011   59.1243 H   0  0  0  0  0  0  0  0  0  0  0  0
  125.2960  125.5520   58.7860 H   0  0  0  0  0  0  0  0  0  0  0  0
  124.1754  123.8104   57.8074 H   0  0  0  0  0  0  0  0  0  0  0  0
  124.8062  124.3329   56.1945 H   0  0  0  0  0  0  0  0  0  0  0  0
  125.6017  122.1187   57.6677 H   0  0  0  0  0  0  0  0  0  0  0  0
  127.1254  124.0927   58.8922 H   0  0  0  0  0  0  0  0  0  0  0  0
  127.6196  122.4060   58.7807 H   0  0  0  0  0  0  0  0  0  0  0  0
  128.3822  124.7672   56.9915 H   0  0  0  0  0  0  0  0  0  0  0  0
  129.4480  123.5347   57.6023 H   0  0  0  0  0  0  0  0  0  0  0  0
  128.5352  123.2716   55.0887 H   0  0  0  0  0  0  0  0  0  0  0  0
  128.4664  121.8201   56.0588 H   0  0  0  0  0  0  0  0  0  0  0  0
  125.2573  128.3493   56.2820 H   0  0  0  0  0  0  0  0  0  0  0  0
  123.6902  130.2752   56.4530 H   0  0  0  0  0  0  0  0  0  0  0  0
  124.9798  130.9718   60.5166 H   0  0  0  0  0  0  0  0  0  0  0  0
  126.5535  129.0496   60.3498 H   0  0  0  0  0  0  0  0  0  0  0  0
  130.2382  124.1375   58.7309 H   0  0  0  0  0  0  0  0  0  0  0  0
  129.4334  121.9265   61.4581 H   0  0  0  0  0  0  0  0  0  0  0  0
  129.3629  122.8614   59.9259 H   0  0  0  0  0  0  0  0  0  0  0  0
  130.0061  121.1842   59.9259 H   0  0  0  0  0  0  0  0  0  0  0  0
  1  2  1  0
  2  3  1  0
  3  4  2  0
  4  5  1  0
  5  6  2  0
  6  7  1  0
  7  8  1  0
  8  9  2  0
  9 10  1  0
 10 11  1  0
 11 12  1  0
 12 13  2  0
 12 14  1  0
 14 15  1  0
 15 16  1  0
 16 17  1  0
 17 18  1  0
 18 19  1  0
 19 20  1  0
 20 21  1  0
 21 22  1  0
 22 23  1  0
 14 24  1  0
 24 25  1  0
 25 26  2  0
 25 27  1  0
 27 28  1  0
 28 29  1  0
 29 30  1  0
 30 31  1  0
 31 32  1  0
 32 33  1  0
 24 34  1  0
 34 35  2  0
 35 36  1  0
 36 37  2  0
 37 38  1  0
 37 39  1  0
 39 40  2  0
 10 41  1  0
  6 42  1  0
 42 43  2  0
 43 44  1  0
 44 45  1  0
 43  3  1  0
 41  7  2  0
 23 18  1  0
 33 29  1  0
 40 34  1  0
  1 46  1  0
  1 47  1  0
  1 48  1  0
  4 49  1  0
  5 50  1  0
 11 51  1  0
 11 52  1  0
 15 53  1  0
 15 54  1  0
 16 55  1  0
 16 56  1  0
 17 57  1  0
 17 58  1  0
 19 59  1  0
 19 60  1  0
 20 61  1  0
 20 62  1  0
 22 63  1  0
 22 64  1  0
 23 65  1  0
 23 66  1  0
 24 67  1  1
 27 68  1  0
 28 69  1  0
 28 70  1  0
 29 71  1  1
 30 72  1  0
 30 73  1  0
 31 74  1  0
 31 75  1  0
 32 76  1  0
 32 77  1  0
 35 78  1  0
 36 79  1  0
 39 80  1  0
 40 81  1  0
 42 82  1  0
 45 83  1  0
 45 84  1  0
 45 85  1  0
M  END
>  <Binding energies>  (1) 
[-9.42]

>  <Ligand effiencies>  (1) 
[-0.20478260869565218]

>  <Interactions>  (1) 
["V-B:ASP:366:CG:8185, V-A:PRO:540:N:4882, V-B:TYR:539:CD2:9846, H-B:TYR:531:OH:9767, V-B:PRO:540:CA:9855, V-A:LEU:475:CD2:4257, V-A:ILE:369:CG2:3235, V-B:ALA:541:CB:9864, H-B:ASP:366:OD2:8187, V-A:TYR:531:CZ:4792, V-A:ILE:369:CD1:3237, V-B:TYR:539:CE2:9848, V-B:PRO:540:N:9856, V-A:ASP:366:CG:3211, V-B:ILE:369:CD1:8211, H-A:TYR:531:OH:4793, V-B:PRO:540:CD:9859, V-B:PRO:540:CB:9857, V-B:ILE:369:CG2:8209, V-A:ASP:366:CB:3210, V-A:TYR:539:CE2:4874, V-A:TYR:539:CZ:4875, V-A:PRO:540:CA:4881, V-B:TYR:539:CZ:9849, V-B:TYR:539:CE1:9847, V-B:TYR:539:CG:9844, V-B:TYR:539:C:9839, V-B:TYR:539:CA:9841, V-B:TYR:531:CZ:9766, V-B:TYR:539:CD1:9845, V-A:TYR:539:C:4865, V-A:TYR:539:CG:4870, V-A:TYR:531:CE2:4791, H-B:TYR:539:OH:9850, V-B:ASP:366:C:8180, V-B:ASP:366:CB:8184, V-B:ILE:369:CB:8208, V-A:ILE:369:CB:3234, V-B:ASP:366:CA:8182, V-B:TYR:531:CE1:9764, H-A:TYR:539:N:4868, V-A:ASP:366:CA:3208, H-B:TYR:539:N:9842, V-A:TYR:539:CA:4867, V-A:ASP:366:C:3206"]

$$$$
RR16_Rahimova_2017
     RDKit          3D

 80 85  0  0  0  0  0  0  0  0999 V2000
  124.7590  132.2000   62.3580 O   0  0  0  0  0  0  0  0  0  0  0  0
  124.2700  131.1880   61.4140 S   0  0  0  0  0  0  0  0  0  0  0  0
  122.8860  131.2200   60.9260 O   0  0  0  0  0  0  0  0  0  0  0  0
  124.5600  129.6040   62.1360 N   0  0  0  0  0  0  0  0  0  0  0  0
  125.1540  129.4810   63.4880 C   0  0  0  0  0  0  0  0  0  0  0  0
  126.5360  130.1860   63.5030 C   0  0  0  0  0  0  0  0  0  0  0  0
  126.9720  130.8600   64.8180 C   0  0  0  0  0  0  0  0  0  0  0  0
  127.0640  129.8970   66.0140 C   0  0  0  0  0  0  0  0  0  0  0  0
  125.8300  129.0060   66.2570 C   0  0  0  0  0  0  0  0  0  0  0  0
  124.4440  129.6250   65.9860 C   0  0  0  0  0  0  0  0  0  0  0  0
  124.1280  129.9960   64.5240 C   0  0  0  0  0  0  0  0  0  0  0  0
  125.3560  131.2350   59.9940 C   0  0  0  0  0  0  0  0  0  0  0  0
  124.9140  130.7710   58.7530 C   0  0  0  0  0  0  0  0  0  0  0  0
  125.8060  130.7000   57.6860 C   0  0  0  0  0  0  0  0  0  0  0  0
  127.1340  131.0930   57.8650 C   0  0  0  0  0  0  0  0  0  0  0  0
  128.3160  130.8700   56.5380 S   0  0  0  0  0  0  0  0  0  0  0  0
  129.2860  131.9690   56.6240 O   0  0  0  0  0  0  0  0  0  0  0  0
  127.5540  130.6490   55.3020 O   0  0  0  0  0  0  0  0  0  0  0  0
  129.1500  129.3590   56.9490 N   0  0  0  0  0  0  0  0  0  0  0  0
  128.8510  128.2230   56.0390 C   0  0  0  0  0  0  0  0  0  0  0  0
  129.3590  126.8980   56.6430 C   0  0  0  0  0  0  0  0  0  0  0  0
  130.8550  126.9820   57.0350 C   0  0  0  0  0  0  0  0  0  0  0  0
  131.3670  125.6910   57.6800 C   0  0  0  0  0  0  0  0  0  0  0  0
  132.6620  125.2360   57.3940 C   0  0  0  0  0  0  0  0  0  0  0  0
  133.1720  124.0700   57.9660 C   0  0  0  0  0  0  0  0  0  0  0  0
  134.4430  123.6430   57.6770 O   0  0  0  0  0  0  0  0  0  0  0  0
  132.3520  123.3510   58.8480 C   0  0  0  0  0  0  0  0  0  0  0  0
  132.5820  122.2080   59.5570 N   0  0  0  0  0  0  0  0  0  0  0  0
  131.4510  121.9430   60.2980 N   0  0  0  0  0  0  0  0  0  0  0  0
  130.5280  122.8830   60.0140 N   0  0  0  0  0  0  0  0  0  0  0  0
  129.2560  122.8980   60.7240 C   0  0  0  0  0  0  0  0  0  0  0  0
  128.0830  123.2490   59.8200 C   0  0  0  0  0  0  0  0  0  0  0  0
  126.9110  123.7840   60.3670 C   0  0  0  0  0  0  0  0  0  0  0  0
  125.8430  124.1280   59.5380 C   0  0  0  0  0  0  0  0  0  0  0  0
  125.9400  123.9400   58.1590 C   0  0  0  0  0  0  0  0  0  0  0  0
  127.1060  123.4090   57.6070 C   0  0  0  0  0  0  0  0  0  0  0  0
  127.2340  123.1850   55.9010 Cl  0  0  0  0  0  0  0  0  0  0  0  0
  128.1740  123.0610   58.4370 C   0  0  0  0  0  0  0  0  0  0  0  0
  131.0430  123.8120   59.1250 C   0  0  0  0  0  0  0  0  0  0  0  0
  130.5290  124.9790   58.5500 C   0  0  0  0  0  0  0  0  0  0  0  0
  131.1730  128.2430   57.8800 C   0  0  0  0  0  0  0  0  0  0  0  0
  130.5980  129.5230   57.2420 C   0  0  0  0  0  0  0  0  0  0  0  0
  127.5630  131.5960   59.0950 C   0  0  0  0  0  0  0  0  0  0  0  0
  126.6730  131.6640   60.1620 C   0  0  0  0  0  0  0  0  0  0  0  0
  123.9560  128.8360   61.8310 H   0  0  0  0  0  0  0  0  0  0  0  0
  125.3621  128.4375   63.7670 H   0  0  0  0  0  0  0  0  0  0  0  0
  127.2949  129.4304   63.2517 H   0  0  0  0  0  0  0  0  0  0  0  0
  126.4397  131.0109   62.7817 H   0  0  0  0  0  0  0  0  0  0  0  0
  127.9618  131.3139   64.6624 H   0  0  0  0  0  0  0  0  0  0  0  0
  126.1997  131.6029   65.0662 H   0  0  0  0  0  0  0  0  0  0  0  0
  127.9289  129.2375   65.8500 H   0  0  0  0  0  0  0  0  0  0  0  0
  127.1499  130.5362   66.9051 H   0  0  0  0  0  0  0  0  0  0  0  0
  125.9288  128.1218   65.6101 H   0  0  0  0  0  0  0  0  0  0  0  0
  125.8399  128.8000   67.3375 H   0  0  0  0  0  0  0  0  0  0  0  0
  123.6847  128.9018   66.3184 H   0  0  0  0  0  0  0  0  0  0  0  0
  124.4398  130.5784   66.5346 H   0  0  0  0  0  0  0  0  0  0  0  0
  123.1440  129.5755   64.2693 H   0  0  0  0  0  0  0  0  0  0  0  0
  124.1579  131.0943   64.4698 H   0  0  0  0  0  0  0  0  0  0  0  0
  123.8665  130.4632   58.6191 H   0  0  0  0  0  0  0  0  0  0  0  0
  125.4657  130.3356   56.7055 H   0  0  0  0  0  0  0  0  0  0  0  0
  127.7635  128.1579   55.8867 H   0  0  0  0  0  0  0  0  0  0  0  0
  129.3592  128.3937   55.0785 H   0  0  0  0  0  0  0  0  0  0  0  0
  128.7678  126.6661   57.5412 H   0  0  0  0  0  0  0  0  0  0  0  0
  129.2479  126.1105   55.8831 H   0  0  0  0  0  0  0  0  0  0  0  0
  131.4168  127.0930   56.0958 H   0  0  0  0  0  0  0  0  0  0  0  0
  133.2920  125.8130   56.7010 H   0  0  0  0  0  0  0  0  0  0  0  0
  134.8830  124.1820   57.0170 H   0  0  0  0  0  0  0  0  0  0  0  0
  129.0819  121.9012   61.1553 H   0  0  0  0  0  0  0  0  0  0  0  0
  129.3190  123.6726   61.5024 H   0  0  0  0  0  0  0  0  0  0  0  0
  126.8318  123.9337   61.4539 H   0  0  0  0  0  0  0  0  0  0  0  0
  124.9236  124.5479   59.9720 H   0  0  0  0  0  0  0  0  0  0  0  0
  125.0967  124.2106   57.5066 H   0  0  0  0  0  0  0  0  0  0  0  0
  129.0907  122.6372   58.0011 H   0  0  0  0  0  0  0  0  0  0  0  0
  129.5083  125.3243   58.7715 H   0  0  0  0  0  0  0  0  0  0  0  0
  130.7371  128.1186   58.8823 H   0  0  0  0  0  0  0  0  0  0  0  0
  132.2664  128.3505   57.9334 H   0  0  0  0  0  0  0  0  0  0  0  0
  130.7327  130.3649   57.9371 H   0  0  0  0  0  0  0  0  0  0  0  0
  131.1298  129.7179   56.2990 H   0  0  0  0  0  0  0  0  0  0  0  0
  128.6012  131.9373   59.2198 H   0  0  0  0  0  0  0  0  0  0  0  0
  127.0064  132.0546   61.1348 H   0  0  0  0  0  0  0  0  0  0  0  0
  1  2  2  0
  2  3  2  0
  2  4  1  0
  4  5  1  0
  5  6  1  0
  6  7  1  0
  7  8  1  0
  8  9  1  0
  9 10  1  0
 10 11  1  0
  2 12  1  0
 12 13  2  0
 13 14  1  0
 14 15  2  0
 15 16  1  0
 16 17  2  0
 16 18  2  0
 16 19  1  0
 19 20  1  0
 20 21  1  0
 21 22  1  0
 22 23  1  0
 23 24  2  0
 24 25  1  0
 25 26  1  0
 25 27  2  0
 27 28  1  0
 28 29  2  0
 29 30  1  0
 30 31  1  0
 31 32  1  0
 32 33  2  0
 33 34  1  0
 34 35  2  0
 35 36  1  0
 36 37  1  0
 36 38  2  0
 30 39  1  0
 39 40  2  0
 22 41  1  0
 41 42  1  0
 15 43  1  0
 43 44  2  0
 11  5  1  0
 44 12  1  0
 42 19  1  0
 40 23  1  0
 39 27  1  0
 38 32  1  0
  4 45  1  0
  5 46  1  0
  6 47  1  0
  6 48  1  0
  7 49  1  0
  7 50  1  0
  8 51  1  0
  8 52  1  0
  9 53  1  0
  9 54  1  0
 10 55  1  0
 10 56  1  0
 11 57  1  0
 11 58  1  0
 13 59  1  0
 14 60  1  0
 20 61  1  0
 20 62  1  0
 21 63  1  0
 21 64  1  0
 22 65  1  0
 24 66  1  0
 26 67  1  0
 31 68  1  0
 31 69  1  0
 33 70  1  0
 34 71  1  0
 35 72  1  0
 38 73  1  0
 40 74  1  0
 41 75  1  0
 41 76  1  0
 42 77  1  0
 42 78  1  0
 43 79  1  0
 44 80  1  0
M  END
>  <Binding energies>  (1) 
[-9.29]

>  <Ligand effiencies>  (1) 
[-0.19354166666666664]

>  <Interactions>  (1) 
["V-B:ASP:366:CG:8185, V-B:TYR:539:CD2:9846, V-B:PRO:540:CA:9855, V-B:ALA:541:CB:9864, H-B:ASP:366:OD2:8187, V-B:TYR:539:CE2:9848, V-B:PRO:540:N:9856, V-A:ASP:366:CG:3211, V-A:TYR:539:CD2:4872, V-B:PRO:540:CB:9857, V-A:ASP:366:CB:3210, V-A:TYR:539:CE2:4874, V-A:TYR:539:CZ:4875, V-B:TYR:539:CZ:9849, V-A:GLU:543:CD:4906, H-B:ARG:545:NH2:9900, V-B:ILE:538:CA:9832, V-B:TYR:539:C:9839, V-B:ARG:545:CZ:9898, V-A:GLU:543:CG:4905, V-A:GLU:543:CB:4904, V-B:HIS:456:CE1:9042, H-B:TYR:539:OH:9850, V-B:ASP:366:CB:8184, H-A:TYR:539:OH:4876, H-A:ASP:366:O:3207, H-A:TYR:539:N:4868, V-B:ARG:545:CG:9894, V-B:ARG:545:CD:9895, V-B:TYR:484:CZ:9319, V-A:ASP:366:CA:3208, V-B:GLY:454:CA:9021, V-B:GLY:453:C:9014, V-B:GLY:453:CA:9016, H-B:ASP:366:OD1:8186, H-B:ARG:545:NH1:9899, V-B:TYR:484:CE1:9317"]

$$$$
RR17_Rahimova_2017
     RDKit          3D

 63 66  0  0  0  0  0  0  0  0999 V2000
  123.7460  123.2440   55.7780 C   0  0  0  0  0  0  0  0  0  0  0  0
  124.8200  123.1090   56.8610 C   0  0  0  0  0  0  0  0  0  0  0  0
  126.0280  122.6570   56.2530 O   0  0  0  0  0  0  0  0  0  0  0  0
  127.1000  123.5240   56.1490 C   0  0  0  0  0  0  0  0  0  0  0  0
  126.8780  124.7050   55.4440 C   0  0  0  0  0  0  0  0  0  0  0  0
  127.8980  125.6380   55.2850 C   0  0  0  0  0  0  0  0  0  0  0  0
  129.1680  125.4060   55.8310 C   0  0  0  0  0  0  0  0  0  0  0  0
  130.2490  126.4320   55.6450 C   0  0  0  0  0  0  0  0  0  0  0  0
  131.2420  126.2250   54.9410 O   0  0  0  0  0  0  0  0  0  0  0  0
  130.0790  127.7740   56.3910 C   0  0  0  0  0  0  0  0  0  0  0  0
  129.4400  129.0940   55.2990 S   0  0  0  0  0  0  0  0  0  0  0  0
  127.8140  129.2870   55.9740 C   0  0  0  0  0  0  0  0  0  0  0  0
  126.7000  128.9120   55.3900 N   0  0  0  0  0  0  0  0  0  0  0  0
  125.6470  129.2290   56.2400 N   0  0  0  0  0  0  0  0  0  0  0  0
  126.1660  129.7800   57.3080 C   0  0  0  0  0  0  0  0  0  0  0  0
  125.3640  130.2680   58.5050 C   0  0  0  0  0  0  0  0  0  0  0  0
  125.4070  129.3660   59.6530 N   0  0  0  0  0  0  0  0  0  0  0  0
  126.3070  128.2910   59.7670 C   0  0  0  0  0  0  0  0  0  0  0  0
  127.1460  128.2710   60.8810 C   0  0  0  0  0  0  0  0  0  0  0  0
  128.0640  127.2390   61.0530 C   0  0  0  0  0  0  0  0  0  0  0  0
  128.1500  126.2090   60.1120 C   0  0  0  0  0  0  0  0  0  0  0  0
  129.1680  125.0860   60.3130 C   0  0  0  0  0  0  0  0  0  0  0  0
  129.7760  125.1610   61.4990 F   0  0  0  0  0  0  0  0  0  0  0  0
  128.5700  123.8970   60.2310 F   0  0  0  0  0  0  0  0  0  0  0  0
  130.0970  125.1640   59.3600 F   0  0  0  0  0  0  0  0  0  0  0  0
  127.3030  126.2220   58.9990 C   0  0  0  0  0  0  0  0  0  0  0  0
  126.3860  127.2540   58.8280 C   0  0  0  0  0  0  0  0  0  0  0  0
  127.5390  129.8590   57.2000 N   0  0  0  0  0  0  0  0  0  0  0  0
  128.4490  130.3730   58.1360 C   0  0  0  0  0  0  0  0  0  0  0  0
  128.4770  131.7450   58.3850 C   0  0  0  0  0  0  0  0  0  0  0  0
  129.3810  132.2550   59.3120 C   0  0  0  0  0  0  0  0  0  0  0  0
  130.2590  131.3950   59.9920 C   0  0  0  0  0  0  0  0  0  0  0  0
  131.1880  131.8110   60.9270 O   0  0  0  0  0  0  0  0  0  0  0  0
  132.4360  131.1320   61.0160 C   0  0  0  0  0  0  0  0  0  0  0  0
  130.2180  130.0240   59.7280 C   0  0  0  0  0  0  0  0  0  0  0  0
  129.3150  129.5070   58.8030 C   0  0  0  0  0  0  0  0  0  0  0  0
  129.3900  124.2170   56.5410 C   0  0  0  0  0  0  0  0  0  0  0  0
  128.3670  123.2850   56.7000 C   0  0  0  0  0  0  0  0  0  0  0  0
  122.7610  123.3678   56.2518 H   0  0  0  0  0  0  0  0  0  0  0  0
  123.9647  124.1217   55.1521 H   0  0  0  0  0  0  0  0  0  0  0  0
  123.7407  122.3395   55.1521 H   0  0  0  0  0  0  0  0  0  0  0  0
  124.9888  124.0854   57.3386 H   0  0  0  0  0  0  0  0  0  0  0  0
  124.4929  122.3889   57.6255 H   0  0  0  0  0  0  0  0  0  0  0  0
  125.8870  124.9017   55.0090 H   0  0  0  0  0  0  0  0  0  0  0  0
  127.7060  126.5657   54.7260 H   0  0  0  0  0  0  0  0  0  0  0  0
  129.3740  127.6301   57.2230 H   0  0  0  0  0  0  0  0  0  0  0  0
  131.0690  128.0862   56.7551 H   0  0  0  0  0  0  0  0  0  0  0  0
  125.7649  131.2440   58.8160 H   0  0  0  0  0  0  0  0  0  0  0  0
  124.3136  130.3263   58.1836 H   0  0  0  0  0  0  0  0  0  0  0  0
  124.6260  129.3900   60.2920 H   0  0  0  0  0  0  0  0  0  0  0  0
  127.0818  129.0757   61.6282 H   0  0  0  0  0  0  0  0  0  0  0  0
  128.7243  127.2340   61.9328 H   0  0  0  0  0  0  0  0  0  0  0  0
  127.3622  125.4130   58.2560 H   0  0  0  0  0  0  0  0  0  0  0  0
  125.7204  127.2560   57.9523 H   0  0  0  0  0  0  0  0  0  0  0  0
  127.7897  132.4189   57.8526 H   0  0  0  0  0  0  0  0  0  0  0  0
  129.4081  133.3361   59.5130 H   0  0  0  0  0  0  0  0  0  0  0  0
  132.7005  130.9881   62.0740 H   0  0  0  0  0  0  0  0  0  0  0  0
  132.3567  130.1527   60.5214 H   0  0  0  0  0  0  0  0  0  0  0  0
  133.2152  131.7305   60.5214 H   0  0  0  0  0  0  0  0  0  0  0  0
  130.9055  129.3466   60.2558 H   0  0  0  0  0  0  0  0  0  0  0  0
  129.2849  128.4263   58.6003 H   0  0  0  0  0  0  0  0  0  0  0  0
  130.3806  124.0187   56.9761 H   0  0  0  0  0  0  0  0  0  0  0  0
  128.5540  122.3572   57.2605 H   0  0  0  0  0  0  0  0  0  0  0  0
  1  2  1  0
  2  3  1  0
  3  4  1  0
  4  5  2  0
  5  6  1  0
  6  7  2  0
  7  8  1  0
  8  9  2  0
  8 10  1  0
 10 11  1  0
 11 12  1  0
 12 13  2  0
 13 14  1  0
 14 15  2  0
 15 16  1  0
 16 17  1  0
 17 18  1  0
 18 19  2  0
 19 20  1  0
 20 21  2  0
 21 22  1  0
 22 23  1  0
 22 24  1  0
 22 25  1  0
 21 26  1  0
 26 27  2  0
 15 28  1  0
 28 29  1  0
 29 30  2  0
 30 31  1  0
 31 32  2  0
 32 33  1  0
 33 34  1  0
 32 35  1  0
 35 36  2  0
  7 37  1  0
 37 38  2  0
 38  4  1  0
 28 12  1  0
 36 29  1  0
 27 18  1  0
  1 39  1  0
  1 40  1  0
  1 41  1  0
  2 42  1  0
  2 43  1  0
  5 44  1  0
  6 45  1  0
 10 46  1  0
 10 47  1  0
 16 48  1  0
 16 49  1  0
 17 50  1  0
 19 51  1  0
 20 52  1  0
 26 53  1  0
 27 54  1  0
 30 55  1  0
 31 56  1  0
 34 57  1  0
 34 58  1  0
 34 59  1  0
 35 60  1  0
 36 61  1  0
 37 62  1  0
 38 63  1  0
M  END
>  <Binding energies>  (1) 
[-7.67]

>  <Ligand effiencies>  (1) 
[-0.19666666666666666]

>  <Interactions>  (1) 
["V-B:ASP:366:CG:8185, V-A:PRO:540:N:4882, V-B:TYR:539:CD2:9846, H-B:TYR:531:OH:9767, V-B:PRO:540:CA:9855, H-B:ASP:366:OD2:8187, V-B:TYR:539:CE2:9848, V-B:PRO:540:N:9856, V-B:ILE:538:CB:9834, H-A:TYR:531:OH:4793, V-A:TYR:539:CD2:4872, V-B:TYR:531:CE2:9765, V-B:PRO:540:CD:9859, V-B:PRO:540:CB:9857, V-A:TYR:539:CE2:4874, V-B:ILE:538:CG2:9835, V-A:TYR:539:CZ:4875, H-A:ALA:541:N:4889, V-A:PRO:540:CA:4881, V-B:TYR:539:CZ:9849, V-B:TYR:539:CE1:9847, V-B:TYR:539:CG:9844, V-B:TYR:539:C:9839, V-B:LEU:363:CD1:8161, V-B:TYR:531:CZ:9766, V-B:TYR:539:CD1:9845, V-A:ASN:362:CB:3174, V-A:PRO:540:CB:4883, V-A:TYR:539:C:4865, H-B:TYR:539:OH:9850, V-B:ASP:366:CB:8184, H-A:TYR:539:OH:4876, H-B:TYR:539:N:9842, V-B:PRO:540:CG:9858, H-B:ASP:366:OD1:8186"]

$$$$
RR18_Rahimova_2017
     RDKit          3D

 56 61  0  0  0  0  0  0  0  0999 V2000
  128.1490  122.8550   59.3590 C   0  0  0  0  0  0  0  0  0  0  0  0
  128.0930  124.3170   59.7250 C   0  0  0  0  0  0  0  0  0  0  0  0
  127.7770  125.0120   60.8810 C   0  0  0  0  0  0  0  0  0  0  0  0
  127.9120  126.3680   60.5850 C   0  0  0  0  0  0  0  0  0  0  0  0
  128.3070  126.4530   59.2600 C   0  0  0  0  0  0  0  0  0  0  0  0
  128.6320  127.6150   58.3250 C   0  0  1  0  0  0  0  0  0  0  0  0
  129.1250  127.1100   56.9360 C   0  0  0  0  0  0  0  0  0  0  0  0
  130.3790  126.3730   56.8200 C   0  0  0  0  0  0  0  0  0  0  0  0
  130.9420  126.2140   55.7360 O   0  0  0  0  0  0  0  0  0  0  0  0
  130.8590  125.9070   57.9970 N   0  0  0  0  0  0  0  0  0  0  0  0
  132.0150  125.1450   58.2740 C   0  0  0  0  0  0  0  0  0  0  0  0
  132.9600  124.7870   57.2950 C   0  0  0  0  0  0  0  0  0  0  0  0
  134.0780  124.0270   57.6340 C   0  0  0  0  0  0  0  0  0  0  0  0
  134.2670  123.6080   58.9470 C   0  0  0  0  0  0  0  0  0  0  0  0
  133.3330  123.9460   59.9250 C   0  0  0  0  0  0  0  0  0  0  0  0
  132.2070  124.7090   59.6000 C   0  0  0  0  0  0  0  0  0  0  0  0
  131.2130  125.0480   60.7070 C   0  0  0  0  0  0  0  0  0  0  0  0
  128.3130  127.2830   55.8600 C   0  0  0  0  0  0  0  0  0  0  0  0
  127.1400  127.9740   55.8750 N   0  0  0  0  0  0  0  0  0  0  0  0
  126.7810  128.5860   56.9430 C   0  0  0  0  0  0  0  0  0  0  0  0
  125.3860  129.6310   57.0670 S   0  0  0  0  0  0  0  0  0  0  0  0
  125.7450  129.9930   58.7850 C   0  0  0  0  0  0  0  0  0  0  0  0
  125.0300  130.8150   59.6290 C   0  0  0  0  0  0  0  0  0  0  0  0
  123.8760  131.5740   59.1250 C   0  0  0  0  0  0  0  0  0  0  0  0
  123.3730  131.5970   58.0030 O   0  0  0  0  0  0  0  0  0  0  0  0
  123.4160  132.3180   60.1360 N   0  0  0  0  0  0  0  0  0  0  0  0
  124.1080  132.1270   61.2940 C   0  0  0  0  0  0  0  0  0  0  0  0
  123.8840  132.7280   62.5320 C   0  0  0  0  0  0  0  0  0  0  0  0
  124.6910  132.3700   63.6090 C   0  0  0  0  0  0  0  0  0  0  0  0
  125.6930  131.4180   63.4330 C   0  0  0  0  0  0  0  0  0  0  0  0
  125.8980  130.8310   62.1810 C   0  0  0  0  0  0  0  0  0  0  0  0
  125.1090  131.1960   61.0750 C   0  0  0  0  0  0  0  0  0  0  0  0
  126.9610  129.2690   59.1550 C   0  0  0  0  0  0  0  0  0  0  0  0
  127.5380  129.3160   60.2370 O   0  0  0  0  0  0  0  0  0  0  0  0
  127.4380  128.5110   58.1290 N   0  0  0  0  0  0  0  0  0  0  0  0
  128.4140  125.1990   58.7430 O   0  0  0  0  0  0  0  0  0  0  0  0
  128.1722  122.2481   60.2761 H   0  0  0  0  0  0  0  0  0  0  0  0
  127.2603  122.5909   58.7670 H   0  0  0  0  0  0  0  0  0  0  0  0
  129.0553  122.6597   58.7670 H   0  0  0  0  0  0  0  0  0  0  0  0
  127.4774  124.5779   61.8463 H   0  0  0  0  0  0  0  0  0  0  0  0
  127.7381  127.2092   61.2722 H   0  0  0  0  0  0  0  0  0  0  0  0
  129.4391  128.1888   58.8039 H   0  0  0  0  0  0  0  0  0  0  0  0
  130.3440  126.1800   58.8200 H   0  0  0  0  0  0  0  0  0  0  0  0
  132.8152  125.1096   56.2534 H   0  0  0  0  0  0  0  0  0  0  0  0
  134.8130  123.7577   56.8612 H   0  0  0  0  0  0  0  0  0  0  0  0
  135.1518  123.0111   59.2130 H   0  0  0  0  0  0  0  0  0  0  0  0
  133.4830  123.6096   60.9615 H   0  0  0  0  0  0  0  0  0  0  0  0
  131.6863  124.8866   61.6868 H   0  0  0  0  0  0  0  0  0  0  0  0
  130.9080  126.1010   60.6161 H   0  0  0  0  0  0  0  0  0  0  0  0
  130.3282  124.4008   60.6161 H   0  0  0  0  0  0  0  0  0  0  0  0
  128.6265  126.8316   54.9071 H   0  0  0  0  0  0  0  0  0  0  0  0
  122.6240  132.9370   60.0490 H   0  0  0  0  0  0  0  0  0  0  0  0
  123.0835  133.4722   62.6559 H   0  0  0  0  0  0  0  0  0  0  0  0
  124.5382  132.8364   64.5935 H   0  0  0  0  0  0  0  0  0  0  0  0
  126.3263  131.1267   64.2840 H   0  0  0  0  0  0  0  0  0  0  0  0
  126.6865  130.0738   62.0590 H   0  0  0  0  0  0  0  0  0  0  0  0
  1  2  1  0
  2  3  2  0
  3  4  1  0
  4  5  2  0
  5  6  1  0
  6  7  1  0
  7  8  1  0
  8  9  2  0
  8 10  1  0
 10 11  1  0
 11 12  2  0
 12 13  1  0
 13 14  2  0
 14 15  1  0
 15 16  2  0
 16 17  1  0
  7 18  2  0
 18 19  1  0
 19 20  2  0
 20 21  1  0
 21 22  1  0
 22 23  2  0
 23 24  1  0
 24 25  2  0
 24 26  1  0
 26 27  1  0
 27 28  2  0
 28 29  1  0
 29 30  2  0
 30 31  1  0
 31 32  2  0
 22 33  1  0
 33 34  2  0
 33 35  1  0
  5 36  1  0
 36  2  1  0
 35  6  1  0
 16 11  1  0
 35 20  1  0
 32 23  1  0
 32 27  1  0
  1 37  1  0
  1 38  1  0
  1 39  1  0
  3 40  1  0
  4 41  1  0
  6 42  1  1
 10 43  1  0
 12 44  1  0
 13 45  1  0
 14 46  1  0
 15 47  1  0
 17 48  1  0
 17 49  1  0
 17 50  1  0
 18 51  1  0
 26 52  1  0
 28 53  1  0
 29 54  1  0
 30 55  1  0
 31 56  1  0
M  END
>  <Binding energies>  (1) 
[-8.39]

>  <Ligand effiencies>  (1) 
[-0.22078947368421054]

>  <Interactions>  (1) 
["V-B:ASP:366:CG:8185, H-B:TYR:531:OH:9767, V-B:PRO:540:CA:9855, V-A:ILE:369:CG2:3235, V-A:ILE:369:CD1:3237, V-B:TYR:539:CE2:9848, V-B:PRO:540:N:9856, V-A:ASP:366:CG:3211, V-B:ILE:369:CD1:8211, H-A:TYR:531:OH:4793, V-B:ILE:369:CG2:8209, V-A:ASP:366:CB:3210, V-B:LEU:475:CD2:9231, V-A:TYR:539:CE2:4874, V-A:TYR:539:CZ:4875, V-B:TYR:539:CZ:9849, V-B:TYR:539:C:9839, V-B:ASP:366:CB:8184, V-B:ILE:369:CB:8208, V-A:ILE:369:CB:3234, H-A:TYR:539:OH:4876, V-B:ILE:369:CG1:8210, V-A:ASP:366:CA:3208, V-B:GLY:454:CA:9021, V-A:ASP:366:C:3206, V-A:ILE:369:CG1:3236"]

$$$$
RR19_Rahimova_2017
     RDKit          3D

 72 77  0  0  0  0  0  0  0  0999 V2000
  127.2600  127.1140   54.9150 O   0  0  0  0  0  0  0  0  0  0  0  0
  128.0170  127.1110   55.8900 C   0  0  0  0  0  0  0  0  0  0  0  0
  128.0360  128.0320   56.8870 N   0  0  0  0  0  0  0  0  0  0  0  0
  127.1730  129.0370   57.2480 C   0  0  0  0  0  0  0  0  0  0  0  0
  125.6130  129.2670   56.6310 S   0  0  0  0  0  0  0  0  0  0  0  0
  127.7850  129.8230   58.1930 N   0  0  0  0  0  0  0  0  0  0  0  0
  127.3440  130.8410   58.9750 C   0  0  0  0  0  0  0  0  0  0  0  0
  126.1710  131.1860   59.1350 O   0  0  0  0  0  0  0  0  0  0  0  0
  128.4770  131.6190   59.6910 C   0  0  2  0  0  0  0  0  0  0  0  0
  128.0690  133.0240   60.2210 C   0  0  0  0  0  0  0  0  0  0  0  0
  126.8100  133.0550   61.0730 C   0  0  0  0  0  0  0  0  0  0  0  0
  125.6580  133.7430   60.6360 C   0  0  0  0  0  0  0  0  0  0  0  0
  124.4920  133.6940   61.3900 C   0  0  0  0  0  0  0  0  0  0  0  0
  124.4480  132.9540   62.5650 C   0  0  0  0  0  0  0  0  0  0  0  0
  125.5660  132.2470   62.9910 C   0  0  0  0  0  0  0  0  0  0  0  0
  126.7400  132.2820   62.2510 C   0  0  0  0  0  0  0  0  0  0  0  0
  129.7020  131.6870   58.8480 N   0  0  0  0  0  0  0  0  0  0  0  0
  130.9030  131.2280   59.3040 C   0  0  0  0  0  0  0  0  0  0  0  0
  131.1460  130.7490   60.4130 O   0  0  0  0  0  0  0  0  0  0  0  0
  131.8530  131.4220   58.1810 C   0  0  0  0  0  0  0  0  0  0  0  0
  133.2160  131.1400   58.0780 C   0  0  0  0  0  0  0  0  0  0  0  0
  133.8700  131.4260   56.8740 C   0  0  0  0  0  0  0  0  0  0  0  0
  133.1610  131.9820   55.8000 C   0  0  0  0  0  0  0  0  0  0  0  0
  131.7940  132.2560   55.9240 C   0  0  0  0  0  0  0  0  0  0  0  0
  131.1610  131.9660   57.1330 C   0  0  0  0  0  0  0  0  0  0  0  0
  129.7490  132.1320   57.5570 C   0  0  0  0  0  0  0  0  0  0  0  0
  128.8170  132.5710   56.8800 O   0  0  0  0  0  0  0  0  0  0  0  0
  129.0760  125.9860   56.0350 C   0  0  2  0  0  0  0  0  0  0  0  0
  128.6160  124.6110   55.4680 C   0  0  0  0  0  0  0  0  0  0  0  0
  127.2240  124.1970   55.9080 C   0  0  0  0  0  0  0  0  0  0  0  0
  126.1780  124.1150   54.9640 C   0  0  0  0  0  0  0  0  0  0  0  0
  124.9310  123.6380   55.3500 C   0  0  0  0  0  0  0  0  0  0  0  0
  124.7150  123.2160   56.6550 C   0  0  0  0  0  0  0  0  0  0  0  0
  125.7460  123.2550   57.5850 C   0  0  0  0  0  0  0  0  0  0  0  0
  127.0000  123.7290   57.2200 C   0  0  0  0  0  0  0  0  0  0  0  0
  129.6120  125.8530   57.4190 N   0  0  0  0  0  0  0  0  0  0  0  0
  128.8080  125.9680   58.5140 C   0  0  0  0  0  0  0  0  0  0  0  0
  127.5990  126.2020   58.5300 O   0  0  0  0  0  0  0  0  0  0  0  0
  129.6990  125.7510   59.6810 C   0  0  0  0  0  0  0  0  0  0  0  0
  129.4300  125.7580   61.0500 C   0  0  0  0  0  0  0  0  0  0  0  0
  130.4820  125.5150   61.9410 C   0  0  0  0  0  0  0  0  0  0  0  0
  131.7740  125.2690   61.4570 C   0  0  0  0  0  0  0  0  0  0  0  0
  132.0230  125.2640   60.0800 C   0  0  0  0  0  0  0  0  0  0  0  0
  130.9610  125.5100   59.2090 C   0  0  0  0  0  0  0  0  0  0  0  0
  130.9120  125.5660   57.7280 C   0  0  0  0  0  0  0  0  0  0  0  0
  131.8450  125.3910   56.9430 O   0  0  0  0  0  0  0  0  0  0  0  0
  128.7850  127.8880   57.5490 H   0  0  0  0  0  0  0  0  0  0  0  0
  128.7820  129.6780   58.2540 H   0  0  0  0  0  0  0  0  0  0  0  0
  128.7008  131.0325   60.5943 H   0  0  0  0  0  0  0  0  0  0  0  0
  128.8999  133.4131   60.8277 H   0  0  0  0  0  0  0  0  0  0  0  0
  127.8504  133.6336   59.3318 H   0  0  0  0  0  0  0  0  0  0  0  0
  125.6831  134.3180   59.6986 H   0  0  0  0  0  0  0  0  0  0  0  0
  123.5998  134.2435   61.0552 H   0  0  0  0  0  0  0  0  0  0  0  0
  123.5238  132.9276   63.1610 H   0  0  0  0  0  0  0  0  0  0  0  0
  125.5205  131.6572   63.9184 H   0  0  0  0  0  0  0  0  0  0  0  0
  127.6165  131.7065   62.5835 H   0  0  0  0  0  0  0  0  0  0  0  0
  133.7646  130.7023   58.9250 H   0  0  0  0  0  0  0  0  0  0  0  0
  134.9443  131.2137   56.7701 H   0  0  0  0  0  0  0  0  0  0  0  0
  133.6809  132.2038   54.8563 H   0  0  0  0  0  0  0  0  0  0  0  0
  131.2304  132.6910   55.0855 H   0  0  0  0  0  0  0  0  0  0  0  0
  129.9096  126.3198   55.3997 H   0  0  0  0  0  0  0  0  0  0  0  0
  128.6291  124.6679   54.3695 H   0  0  0  0  0  0  0  0  0  0  0  0
  129.3121  123.8554   55.8611 H   0  0  0  0  0  0  0  0  0  0  0  0
  126.3496  124.4284   53.9236 H   0  0  0  0  0  0  0  0  0  0  0  0
  124.1111  123.5946   54.6180 H   0  0  0  0  0  0  0  0  0  0  0  0
  123.7221  122.8488   56.9540 H   0  0  0  0  0  0  0  0  0  0  0  0
  125.5690  122.9094   58.6142 H   0  0  0  0  0  0  0  0  0  0  0  0
  127.8188  123.7394   57.9545 H   0  0  0  0  0  0  0  0  0  0  0  0
  128.4126  125.9504   61.4214 H   0  0  0  0  0  0  0  0  0  0  0  0
  130.2939  125.5171   63.0248 H   0  0  0  0  0  0  0  0  0  0  0  0
  132.5961  125.0790   62.1627 H   0  0  0  0  0  0  0  0  0  0  0  0
  133.0341  125.0703   59.6926 H   0  0  0  0  0  0  0  0  0  0  0  0
  1  2  2  0
  2  3  1  0
  3  4  1  0
  4  5  2  0
  4  6  1  0
  6  7  1  0
  7  8  2  0
  7  9  1  0
  9 10  1  0
 10 11  1  0
 11 12  2  0
 12 13  1  0
 13 14  2  0
 14 15  1  0
 15 16  2  0
  9 17  1  0
 17 18  1  0
 18 19  2  0
 18 20  1  0
 20 21  2  0
 21 22  1  0
 22 23  2  0
 23 24  1  0
 24 25  2  0
 25 26  1  0
 26 27  2  0
  2 28  1  0
 28 29  1  0
 29 30  1  0
 30 31  2  0
 31 32  1  0
 32 33  2  0
 33 34  1  0
 34 35  2  0
 28 36  1  0
 36 37  1  0
 37 38  2  0
 37 39  1  0
 39 40  2  0
 40 41  1  0
 41 42  2  0
 42 43  1  0
 43 44  2  0
 44 45  1  0
 45 46  2  0
 16 11  1  0
 26 17  1  0
 35 30  1  0
 45 36  1  0
 25 20  1  0
 44 39  1  0
  3 47  1  0
  6 48  1  0
  9 49  1  1
 10 50  1  0
 10 51  1  0
 12 52  1  0
 13 53  1  0
 14 54  1  0
 15 55  1  0
 16 56  1  0
 21 57  1  0
 22 58  1  0
 23 59  1  0
 24 60  1  0
 28 61  1  6
 29 62  1  0
 29 63  1  0
 31 64  1  0
 32 65  1  0
 33 66  1  0
 34 67  1  0
 35 68  1  0
 40 69  1  0
 41 70  1  0
 42 71  1  0
 43 72  1  0
M  END
>  <Binding energies>  (1) 
[-11.41]

>  <Ligand effiencies>  (1) 
[-0.23770833333333333]

>  <Interactions>  (1) 
["V-A:ILE:538:CG2:4861, V-A:PRO:540:CD:4885, V-A:PRO:540:N:4882, H-B:TYR:531:OH:9767, V-B:PRO:540:CA:9855, V-A:ILE:538:CB:4860, V-A:ILE:538:CA:4858, V-A:TYR:531:CZ:4792, V-B:PRO:540:N:9856, V-B:ILE:538:CB:9834, V-A:ASP:366:CG:3211, V-A:TYR:539:CD2:4872, V-B:TYR:531:CE2:9765, V-B:PRO:540:CD:9859, V-B:PRO:540:CB:9857, V-B:ILE:369:CG2:8209, V-B:LEU:475:CD2:9231, V-A:TYR:539:CE2:4874, V-B:ILE:538:CG2:9835, V-A:PRO:540:CA:4881, V-B:ILE:538:CA:9832, V-B:TYR:539:C:9839, V-B:TYR:531:CZ:9766, V-A:PRO:540:CB:4883, V-A:LEU:363:CD1:3187, V-A:TYR:539:C:4865, V-A:TYR:531:CE2:4791, H-B:TYR:539:OH:9850, V-B:TYR:531:CE1:9764, H-A:TYR:539:N:4868, V-A:LEU:363:CB:3185, V-A:LEU:363:CA:3183, V-B:PRO:540:CG:9858, V-B:GLY:454:CA:9021, V-B:MET:535:CG:9805"]

$$$$
RR19_Rahimova_2017-again1
     RDKit          3D

 71 76  0  0  0  0  0  0  0  0999 V2000
  130.7200  123.3300   58.3640 O   0  0  0  0  0  0  0  0  0  0  0  0
  129.9450  124.2080   58.7530 C   0  0  0  0  0  0  0  0  0  0  0  0
  130.0750  125.5360   58.5250 N   0  0  0  0  0  0  0  0  0  0  0  0
  130.9260  126.2650   57.7430 C   0  0  0  0  0  0  0  0  0  0  0  0
  132.2480  125.7740   56.8280 S   0  0  0  0  0  0  0  0  0  0  0  0
  130.4570  127.5670   57.7530 N   0  0  0  0  0  0  0  0  0  0  0  0
  129.3020  128.0160   58.1230 C   0  0  0  0  0  0  0  0  0  0  0  0
  128.3340  127.4270   58.6440 O   0  0  0  0  0  0  0  0  0  0  0  0
  129.0620  129.5420   57.8660 C   0  0  2  0  0  0  0  0  0  0  0  0
  130.1860  130.4140   58.5170 C   0  0  0  0  0  0  0  0  0  0  0  0
  131.1510  131.0530   57.5200 C   0  0  0  0  0  0  0  0  0  0  0  0
  132.5250  131.0290   57.7680 C   0  0  0  0  0  0  0  0  0  0  0  0
  133.4070  131.5970   56.8520 C   0  0  0  0  0  0  0  0  0  0  0  0
  132.9100  132.1910   55.6930 C   0  0  0  0  0  0  0  0  0  0  0  0
  131.5400  132.2220   55.4420 C   0  0  0  0  0  0  0  0  0  0  0  0
  130.6590  131.6540   56.3580 C   0  0  0  0  0  0  0  0  0  0  0  0
  127.6650  129.9900   58.1770 N   0  0  0  0  0  0  0  0  0  0  0  0
  127.3910  130.7820   59.2530 C   0  0  0  0  0  0  0  0  0  0  0  0
  128.1890  131.2120   60.0870 O   0  0  0  0  0  0  0  0  0  0  0  0
  125.9250  131.0150   59.2090 C   0  0  0  0  0  0  0  0  0  0  0  0
  125.0900  131.7450   60.0560 C   0  0  0  0  0  0  0  0  0  0  0  0
  123.7220  131.7930   59.7670 C   0  0  0  0  0  0  0  0  0  0  0  0
  123.2110  131.1220   58.6480 C   0  0  0  0  0  0  0  0  0  0  0  0
  124.0650  130.3970   57.8110 C   0  0  0  0  0  0  0  0  0  0  0  0
  125.4270  130.3590   58.1170 C   0  0  0  0  0  0  0  0  0  0  0  0
  126.5570  129.6890   57.4310 C   0  0  0  0  0  0  0  0  0  0  0  0
  126.5060  129.0080   56.4080 O   0  0  0  0  0  0  0  0  0  0  0  0
  128.6910  123.8140   59.5890 C   0  0  2  0  0  0  0  0  0  0  0  0
  128.8670  122.4970   60.3990 C   0  0  0  0  0  0  0  0  0  0  0  0
  130.1530  122.4360   61.2040 C   0  0  0  0  0  0  0  0  0  0  0  0
  131.2740  121.7470   60.6940 C   0  0  0  0  0  0  0  0  0  0  0  0
  132.4800  121.7750   61.3840 C   0  0  0  0  0  0  0  0  0  0  0  0
  132.5950  122.5010   62.5630 C   0  0  0  0  0  0  0  0  0  0  0  0
  131.5100  123.2130   63.0570 C   0  0  0  0  0  0  0  0  0  0  0  0
  130.2970  123.1990   62.3820 C   0  0  0  0  0  0  0  0  0  0  0  0
  127.4140  123.8280   58.8130 N   0  0  0  0  0  0  0  0  0  0  0  0
  127.3160  123.2410   57.5870 C   0  0  0  0  0  0  0  0  0  0  0  0
  128.2190  122.7160   56.9350 O   0  0  0  0  0  0  0  0  0  0  0  0
  125.8870  123.3570   57.2060 C   0  0  0  0  0  0  0  0  0  0  0  0
  125.2050  122.9240   56.0670 C   0  0  0  0  0  0  0  0  0  0  0  0
  123.8280  123.1550   55.9830 C   0  0  0  0  0  0  0  0  0  0  0  0
  123.1570  123.8100   57.0230 C   0  0  0  0  0  0  0  0  0  0  0  0
  123.8570  124.2400   58.1560 C   0  0  0  0  0  0  0  0  0  0  0  0
  125.2300  123.9970   58.2220 C   0  0  0  0  0  0  0  0  0  0  0  0
  126.2210  124.3010   59.2830 C   0  0  0  0  0  0  0  0  0  0  0  0
  126.0090  124.8510   60.3650 O   0  0  0  0  0  0  0  0  0  0  0  0
  129.3490  126.0950   58.9470 H   0  0  0  0  0  0  0  0  0  0  0  0
  129.1444  129.7050   56.7813 H   0  0  0  0  0  0  0  0  0  0  0  0
  129.7059  131.2182   59.0938 H   0  0  0  0  0  0  0  0  0  0  0  0
  130.7858  129.7353   59.1411 H   0  0  0  0  0  0  0  0  0  0  0  0
  132.9105  130.5618   58.6862 H   0  0  0  0  0  0  0  0  0  0  0  0
  134.4903  131.5770   57.0421 H   0  0  0  0  0  0  0  0  0  0  0  0
  133.6065  132.6397   54.9694 H   0  0  0  0  0  0  0  0  0  0  0  0
  131.1565  132.6928   54.5248 H   0  0  0  0  0  0  0  0  0  0  0  0
  129.5759  131.6782   56.1674 H   0  0  0  0  0  0  0  0  0  0  0  0
  125.4984  132.2710   60.9315 H   0  0  0  0  0  0  0  0  0  0  0  0
  123.0440  132.3604   60.4216 H   0  0  0  0  0  0  0  0  0  0  0  0
  122.1343  131.1657   58.4272 H   0  0  0  0  0  0  0  0  0  0  0  0
  123.6722  129.8679   56.9302 H   0  0  0  0  0  0  0  0  0  0  0  0
  128.6031  124.6222   60.3300 H   0  0  0  0  0  0  0  0  0  0  0  0
  128.0191  122.4017   61.0933 H   0  0  0  0  0  0  0  0  0  0  0  0
  128.9091  121.6762   59.6679 H   0  0  0  0  0  0  0  0  0  0  0  0
  131.1932  121.1877   59.7502 H   0  0  0  0  0  0  0  0  0  0  0  0
  133.3467  121.2203   60.9953 H   0  0  0  0  0  0  0  0  0  0  0  0
  133.5505  122.5118   63.1079 H   0  0  0  0  0  0  0  0  0  0  0  0
  131.6121  123.7908   63.9875 H   0  0  0  0  0  0  0  0  0  0  0  0
  129.4476  123.7831   62.7658 H   0  0  0  0  0  0  0  0  0  0  0  0
  125.7393  122.4121   55.2531 H   0  0  0  0  0  0  0  0  0  0  0  0
  123.2698  122.8207   55.0961 H   0  0  0  0  0  0  0  0  0  0  0  0
  122.0739  123.9875   56.9490 H   0  0  0  0  0  0  0  0  0  0  0  0
  123.3372  124.7576   58.9757 H   0  0  0  0  0  0  0  0  0  0  0  0
  1  2  2  0
  2  3  1  0
  3  4  1  0
  4  5  2  0
  4  6  1  0
  6  7  2  0
  7  8  1  0
  7  9  1  0
  9 10  1  0
 10 11  1  0
 11 12  2  0
 12 13  1  0
 13 14  2  0
 14 15  1  0
 15 16  2  0
  9 17  1  0
 17 18  1  0
 18 19  2  0
 18 20  1  0
 20 21  2  0
 21 22  1  0
 22 23  2  0
 23 24  1  0
 24 25  2  0
 25 26  1  0
 26 27  2  0
  2 28  1  0
 28 29  1  0
 29 30  1  0
 30 31  2  0
 31 32  1  0
 32 33  2  0
 33 34  1  0
 34 35  2  0
 28 36  1  0
 36 37  1  0
 37 38  2  0
 37 39  1  0
 39 40  2  0
 40 41  1  0
 41 42  2  0
 42 43  1  0
 43 44  2  0
 44 45  1  0
 45 46  2  0
 16 11  1  0
 26 17  1  0
 35 30  1  0
 45 36  1  0
 25 20  1  0
 44 39  1  0
  3 47  1  0
  9 48  1  6
 10 49  1  0
 10 50  1  0
 12 51  1  0
 13 52  1  0
 14 53  1  0
 15 54  1  0
 16 55  1  0
 21 56  1  0
 22 57  1  0
 23 58  1  0
 24 59  1  0
 28 60  1  1
 29 61  1  0
 29 62  1  0
 31 63  1  0
 32 64  1  0
 33 65  1  0
 34 66  1  0
 35 67  1  0
 40 68  1  0
 41 69  1  0
 42 70  1  0
 43 71  1  0
M  CHG  1   8  -1
M  END
>  <Binding energies>  (1) 
[-11.33]

>  <Ligand effiencies>  (1) 
[-0.24106382978723404]

>  <Interactions>  (1) 
["V-A:ILE:538:CG2:4861, V-A:PRO:540:CD:4885, V-B:ASP:366:CG:8185, V-B:TYR:539:CD2:9846, H-B:TYR:531:OH:9767, V-B:PRO:540:CA:9855, V-A:LEU:475:CD2:4257, V-B:ALA:541:CB:9864, V-A:ILE:538:CB:4860, V-A:ILE:538:CA:4858, V-B:TYR:539:CE2:9848, V-B:PRO:540:N:9856, V-B:ILE:538:CB:9834, V-A:ASP:366:CG:3211, V-B:ILE:369:CD1:8211, H-A:TYR:531:OH:4793, V-B:TYR:531:CE2:9765, V-B:PRO:540:CD:9859, V-B:PRO:540:CB:9857, V-B:ILE:369:CG2:8209, V-A:ASP:366:CB:3210, V-A:TYR:539:CE2:4874, V-B:ILE:538:CG2:9835, V-A:TYR:539:CZ:4875, V-A:PRO:540:CA:4881, H-B:ARG:545:NH2:9900, V-B:ILE:538:CA:9832, V-B:TYR:539:C:9839, V-B:LEU:363:CD1:8161, V-B:TYR:531:CZ:9766, V-A:PRO:540:CB:4883, V-A:LEU:363:CD1:3187, V-A:TYR:531:CE2:4791, H-B:TYR:539:OH:9850, V-B:ASP:366:C:8180, V-B:ASP:366:CB:8184, V-B:ILE:369:CB:8208, V-B:ASP:366:CA:8182, V-A:GLY:454:CA:4047, V-A:LEU:363:CA:3183, V-B:LEU:363:CA:8157, H-B:TYR:539:N:9842, V-B:LEU:363:CB:8159, V-A:ILE:538:C:4856, V-B:LEU:363:CG:8160"]

$$$$
RR1_Rahimova_2017
     RDKit          3D

 68 71  0  0  0  0  0  0  0  0999 V2000
  123.4890  124.3170   57.9540 C   0  0  0  0  0  0  0  0  0  0  0  0
  124.8350  124.1600   57.5200 O   0  0  0  0  0  0  0  0  0  0  0  0
  125.8070  123.8280   58.4440 C   0  0  0  0  0  0  0  0  0  0  0  0
  125.6780  124.0140   59.8300 C   0  0  0  0  0  0  0  0  0  0  0  0
  126.7160  123.6560   60.6850 C   0  0  0  0  0  0  0  0  0  0  0  0
  127.8920  123.1030   60.1760 C   0  0  0  0  0  0  0  0  0  0  0  0
  128.9000  122.8160   61.1160 N   0  0  0  0  0  0  0  0  0  0  0  0
  129.8620  121.8690   61.0770 C   0  0  0  0  0  0  0  0  0  0  0  0
  129.9710  121.0160   60.1960 O   0  0  0  0  0  0  0  0  0  0  0  0
  130.8520  121.9140   62.2520 C   0  0  0  0  0  0  0  0  0  0  0  0
  132.1370  123.2080   62.1440 S   0  0  0  0  0  0  0  0  0  0  0  0
  131.0860  124.6080   62.3380 C   0  0  0  0  0  0  0  0  0  0  0  0
  130.2200  125.0080   61.4410 N   0  0  0  0  0  0  0  0  0  0  0  0
  129.6500  126.0700   62.0020 C   0  0  0  0  0  0  0  0  0  0  0  0
  128.5650  126.8540   61.3190 C   0  0  0  0  0  0  0  0  0  0  0  0
  128.3220  126.7260   59.9420 C   0  0  0  0  0  0  0  0  0  0  0  0
  127.3080  127.4700   59.3350 C   0  0  0  0  0  0  0  0  0  0  0  0
  126.5530  128.3330   60.1260 C   0  0  0  0  0  0  0  0  0  0  0  0
  126.7610  128.4820   61.4590 N   0  0  0  0  0  0  0  0  0  0  0  0
  127.7500  127.7490   62.0300 C   0  0  0  0  0  0  0  0  0  0  0  0
  130.0990  126.3860   63.2020 N   0  0  0  0  0  0  0  0  0  0  0  0
  131.0240  125.4470   63.4200 N   0  0  0  0  0  0  0  0  0  0  0  0
  131.7680  125.4150   64.6800 C   0  0  0  0  0  0  0  0  0  0  0  0
  130.8970  125.3880   65.9480 C   0  0  0  0  0  0  0  0  0  0  0  0
  130.5060  124.3160   66.4240 O   0  0  0  0  0  0  0  0  0  0  0  0
  130.6120  126.5970   66.4670 N   0  0  0  0  0  0  0  0  0  0  0  0
  129.9570  126.6460   67.6900 N   0  0  0  0  0  0  0  0  0  0  0  0
  130.5030  127.4000   68.6690 C   0  0  0  0  0  0  0  0  0  0  0  0
  131.4890  128.1280   68.5120 O   0  0  0  0  0  0  0  0  0  0  0  0
  129.8090  127.3320   70.0140 C   0  0  0  0  0  0  0  0  0  0  0  0
  128.5100  127.8320   70.1560 C   0  0  0  0  0  0  0  0  0  0  0  0
  127.8590  127.7910   71.3840 C   0  0  0  0  0  0  0  0  0  0  0  0
  128.4930  127.2520   72.5150 C   0  0  0  0  0  0  0  0  0  0  0  0
  127.9080  127.1930   73.7670 O   0  0  0  0  0  0  0  0  0  0  0  0
  126.8890  128.1260   74.1090 C   0  0  0  0  0  0  0  0  0  0  0  0
  129.7970  126.7530   72.3960 C   0  0  0  0  0  0  0  0  0  0  0  0
  130.3850  126.2510   73.5450 O   0  0  0  0  0  0  0  0  0  0  0  0
  131.7710  125.9270   73.5430 C   0  0  0  0  0  0  0  0  0  0  0  0
  130.4420  126.7940   71.1470 C   0  0  0  0  0  0  0  0  0  0  0  0
  128.0240  122.9140   58.7920 C   0  0  0  0  0  0  0  0  0  0  0  0
  126.9830  123.2730   57.9400 C   0  0  0  0  0  0  0  0  0  0  0  0
  123.4563  124.3208   59.0535 H   0  0  0  0  0  0  0  0  0  0  0  0
  123.0891  125.2679   57.5720 H   0  0  0  0  0  0  0  0  0  0  0  0
  122.8810  123.4837   57.5720 H   0  0  0  0  0  0  0  0  0  0  0  0
  124.7530  124.4443   60.2413 H   0  0  0  0  0  0  0  0  0  0  0  0
  126.6089  123.8099   61.7689 H   0  0  0  0  0  0  0  0  0  0  0  0
  128.8680  123.3870   61.9490 H   0  0  0  0  0  0  0  0  0  0  0  0
  130.2768  122.0829   63.1743 H   0  0  0  0  0  0  0  0  0  0  0  0
  131.3870  120.9530   62.2348 H   0  0  0  0  0  0  0  0  0  0  0  0
  128.9324  126.0374   59.3393 H   0  0  0  0  0  0  0  0  0  0  0  0
  127.1100  127.3767   58.2570 H   0  0  0  0  0  0  0  0  0  0  0  0
  125.7534  128.9193   59.6496 H   0  0  0  0  0  0  0  0  0  0  0  0
  127.9228  127.8625   63.1104 H   0  0  0  0  0  0  0  0  0  0  0  0
  132.3998  124.5146   64.6806 H   0  0  0  0  0  0  0  0  0  0  0  0
  132.3432  126.3517   64.7216 H   0  0  0  0  0  0  0  0  0  0  0  0
  131.0850  127.4570   66.2240 H   0  0  0  0  0  0  0  0  0  0  0  0
  129.4970  125.7710   67.8970 H   0  0  0  0  0  0  0  0  0  0  0  0
  127.9966  128.2635   69.2841 H   0  0  0  0  0  0  0  0  0  0  0  0
  126.8357  128.1853   71.4704 H   0  0  0  0  0  0  0  0  0  0  0  0
  126.8103  128.1981   75.2038 H   0  0  0  0  0  0  0  0  0  0  0  0
  127.1411  129.1129   73.6938 H   0  0  0  0  0  0  0  0  0  0  0  0
  125.9281  127.7881   73.6938 H   0  0  0  0  0  0  0  0  0  0  0  0
  132.1295  125.8432   74.5796 H   0  0  0  0  0  0  0  0  0  0  0  0
  131.9229  124.9691   73.0239 H   0  0  0  0  0  0  0  0  0  0  0  0
  132.3318  126.7183   73.0239 H   0  0  0  0  0  0  0  0  0  0  0  0
  131.4636  126.3965   71.0552 H   0  0  0  0  0  0  0  0  0  0  0  0
  128.9486  122.4828   58.3807 H   0  0  0  0  0  0  0  0  0  0  0  0
  127.0894  123.1170   56.8563 H   0  0  0  0  0  0  0  0  0  0  0  0
  1  2  1  0
  2  3  1  0
  3  4  2  0
  4  5  1  0
  5  6  2  0
  6  7  1  0
  7  8  1  0
  8  9  2  0
  8 10  1  0
 10 11  1  0
 11 12  1  0
 12 13  2  0
 13 14  1  0
 14 15  1  0
 15 16  2  0
 16 17  1  0
 17 18  2  0
 18 19  1  0
 19 20  2  0
 14 21  2  0
 21 22  1  0
 22 23  1  0
 23 24  1  0
 24 25  2  0
 24 26  1  0
 26 27  1  0
 27 28  1  0
 28 29  2  0
 28 30  1  0
 30 31  2  0
 31 32  1  0
 32 33  2  0
 33 34  1  0
 34 35  1  0
 33 36  1  0
 36 37  1  0
 37 38  1  0
 36 39  2  0
  6 40  1  0
 40 41  2  0
 41  3  1  0
 22 12  1  0
 39 30  1  0
 20 15  1  0
  1 42  1  0
  1 43  1  0
  1 44  1  0
  4 45  1  0
  5 46  1  0
  7 47  1  0
 10 48  1  0
 10 49  1  0
 16 50  1  0
 17 51  1  0
 18 52  1  0
 20 53  1  0
 23 54  1  0
 23 55  1  0
 26 56  1  0
 27 57  1  0
 31 58  1  0
 32 59  1  0
 35 60  1  0
 35 61  1  0
 35 62  1  0
 38 63  1  0
 38 64  1  0
 38 65  1  0
 39 66  1  0
 40 67  1  0
 41 68  1  0
M  END
>  <Binding energies>  (1) 
[-9.38]

>  <Ligand effiencies>  (1) 
[-0.2131818181818182]

>  <Interactions>  (1) 
["V-B:ASP:366:CG:8185, H-B:TYR:531:OH:9767, V-B:PRO:540:CA:9855, V-A:LEU:475:CD2:4257, V-B:ALA:541:CB:9864, V-B:PRO:540:N:9856, V-B:TYR:531:CE2:9765, V-B:PRO:540:CB:9857, H-B:GLU:543:OE1:9881, H-A:GLU:543:OE2:4908, V-A:GLU:543:CD:4906, H-B:ARG:545:NH2:9900, V-A:HIS:456:CE1:4068, H-A:TYR:484:OH:4346, V-B:TYR:539:C:9839, V-B:PRO:540:C:9853, V-B:GLU:543:CD:9880, V-A:ARG:545:CZ:4924, V-B:GLU:543:CB:9878, V-A:GLU:543:CG:4905, V-B:HIS:456:CE1:9042, V-B:ASP:366:CB:8184, V-B:GLY:544:C:9884, V-B:HIS:456:CG:9038, V-A:GLY:544:C:4910, H-A:HIS:456:NE2:4069, V-A:GLU:543:C:4900, V-B:LYS:547:CE:9922, V-A:HIS:456:CD2:4066, V-B:HIS:456:CD2:9040, V-A:HIS:456:CG:4064, H-B:LYS:547:NZ:9923, H-A:LYS:547:NZ:4949, H-B:GLU:543:O:9875, V-B:LEU:363:CA:8157, V-B:LYS:547:CD:9921, V-A:HIS:456:CB:4063, H-A:ARG:545:N:4918, H-A:GLY:544:N:4913"]

$$$$
RR20_Rahimova_2017
     RDKit          3D

 68 73  0  0  0  0  0  0  0  0999 V2000
  134.2450  131.1750   58.7740 C   0  0  0  0  0  0  0  0  0  0  0  0
  132.9880  131.3100   57.9340 C   0  0  0  0  0  0  0  0  0  0  0  0
  133.0760  131.2680   56.5420 C   0  0  0  0  0  0  0  0  0  0  0  0
  131.9230  131.3820   55.7690 C   0  0  0  0  0  0  0  0  0  0  0  0
  130.6760  131.5540   56.3810 C   0  0  0  0  0  0  0  0  0  0  0  0
  129.4340  131.6560   55.5240 C   0  0  0  0  0  0  0  0  0  0  0  0
  129.3360  132.6300   54.7730 O   0  0  0  0  0  0  0  0  0  0  0  0
  128.4860  130.6760   55.6000 N   0  0  0  0  0  0  0  0  0  0  0  0
  127.3360  130.6420   54.6830 C   0  0  0  0  0  0  0  0  0  0  0  0
  126.5990  129.3450   54.9670 C   0  0  0  0  0  0  0  0  0  0  0  0
  127.5980  128.5610   55.7630 C   0  0  0  0  0  0  0  0  0  0  0  0
  127.5140  127.2510   56.2350 C   0  0  0  0  0  0  0  0  0  0  0  0
  128.4850  126.7420   57.1060 C   0  0  0  0  0  0  0  0  0  0  0  0
  128.3990  125.3270   57.6070 C   0  0  0  0  0  0  0  0  0  0  0  0
  129.3890  124.8640   58.3540 N   0  0  0  0  0  0  0  0  0  0  0  0
  129.2000  123.6310   58.7500 C   0  0  0  0  0  0  0  0  0  0  0  0
  130.0300  122.8520   59.5420 N   0  0  0  0  0  0  0  0  0  0  0  0
  129.6520  121.8880   60.4160 C   0  0  0  0  0  0  0  0  0  0  0  0
  128.4820  121.5540   60.6110 O   0  0  0  0  0  0  0  0  0  0  0  0
  130.7590  121.1420   61.1990 C   0  0  0  0  0  0  0  0  0  0  0  0
  131.5560  122.0340   62.0610 N   0  0  0  0  0  0  0  0  0  0  0  0
  132.5080  122.8520   61.2960 C   0  0  0  0  0  0  0  0  0  0  0  0
  133.4910  123.5620   62.2540 C   0  0  0  0  0  0  0  0  0  0  0  0
  132.7950  124.2110   63.4500 C   0  0  0  0  0  0  0  0  0  0  0  0
  133.4720  125.1180   64.2740 C   0  0  0  0  0  0  0  0  0  0  0  0
  132.8500  125.6790   65.3860 C   0  0  0  0  0  0  0  0  0  0  0  0
  131.5350  125.3410   65.6880 C   0  0  0  0  0  0  0  0  0  0  0  0
  130.8460  124.4470   64.8710 C   0  0  0  0  0  0  0  0  0  0  0  0
  131.4590  123.8740   63.7510 C   0  0  0  0  0  0  0  0  0  0  0  0
  130.6850  122.9380   62.8220 C   0  0  0  0  0  0  0  0  0  0  0  0
  127.7340  122.9230   58.1970 S   0  0  0  0  0  0  0  0  0  0  0  0
  127.3560  124.4100   57.3600 C   0  0  0  0  0  0  0  0  0  0  0  0
  126.0960  124.5230   56.5300 C   0  0  0  0  0  0  0  0  0  0  0  0
  129.5110  127.5970   57.5370 C   0  0  0  0  0  0  0  0  0  0  0  0
  129.5870  128.9130   57.0830 C   0  0  0  0  0  0  0  0  0  0  0  0
  128.6580  129.3830   56.1450 C   0  0  0  0  0  0  0  0  0  0  0  0
  130.5930  131.5670   57.7790 C   0  0  0  0  0  0  0  0  0  0  0  0
  131.7450  131.4510   58.5530 C   0  0  0  0  0  0  0  0  0  0  0  0
  133.9780  131.2037   59.8407 H   0  0  0  0  0  0  0  0  0  0  0  0
  134.7381  130.2187   58.5450 H   0  0  0  0  0  0  0  0  0  0  0  0
  134.9299  132.0048   58.5450 H   0  0  0  0  0  0  0  0  0  0  0  0
  134.0550  131.1450   56.0557 H   0  0  0  0  0  0  0  0  0  0  0  0
  131.9927  131.3366   54.6722 H   0  0  0  0  0  0  0  0  0  0  0  0
  126.6764  131.5027   54.8680 H   0  0  0  0  0  0  0  0  0  0  0  0
  127.6613  130.6941   53.6335 H   0  0  0  0  0  0  0  0  0  0  0  0
  125.6845  129.5287   55.5501 H   0  0  0  0  0  0  0  0  0  0  0  0
  126.2651  128.8262   54.0563 H   0  0  0  0  0  0  0  0  0  0  0  0
  126.6764  126.6114   55.9197 H   0  0  0  0  0  0  0  0  0  0  0  0
  131.0210  123.0330   59.4580 H   0  0  0  0  0  0  0  0  0  0  0  0
  130.2859  120.3754   61.8302 H   0  0  0  0  0  0  0  0  0  0  0  0
  131.4439  120.7003   60.4602 H   0  0  0  0  0  0  0  0  0  0  0  0
  133.0733  122.2049   60.6092 H   0  0  0  0  0  0  0  0  0  0  0  0
  131.9521  123.6103   60.7250 H   0  0  0  0  0  0  0  0  0  0  0  0
  134.2128  122.8210   62.6281 H   0  0  0  0  0  0  0  0  0  0  0  0
  133.9838  124.3640   61.6849 H   0  0  0  0  0  0  0  0  0  0  0  0
  134.5113  125.3916   64.0392 H   0  0  0  0  0  0  0  0  0  0  0  0
  133.3973  126.3881   66.0245 H   0  0  0  0  0  0  0  0  0  0  0  0
  131.0409  125.7778   66.5684 H   0  0  0  0  0  0  0  0  0  0  0  0
  129.8041  124.1876   65.1101 H   0  0  0  0  0  0  0  0  0  0  0  0
  129.9965  122.3322   63.4294 H   0  0  0  0  0  0  0  0  0  0  0  0
  130.1485  123.5660   62.0955 H   0  0  0  0  0  0  0  0  0  0  0  0
  125.2240  124.6012   57.1960 H   0  0  0  0  0  0  0  0  0  0  0  0
  126.1542  125.4195   55.8953 H   0  0  0  0  0  0  0  0  0  0  0  0
  125.9937  123.6304   55.8953 H   0  0  0  0  0  0  0  0  0  0  0  0
  130.2666  127.2232   58.2437 H   0  0  0  0  0  0  0  0  0  0  0  0
  130.3749  129.5813   57.4605 H   0  0  0  0  0  0  0  0  0  0  0  0
  129.6131  131.6693   58.2681 H   0  0  0  0  0  0  0  0  0  0  0  0
  131.6754  131.4705   59.6506 H   0  0  0  0  0  0  0  0  0  0  0  0
  1  2  1  0
  2  3  2  0
  3  4  1  0
  4  5  2  0
  5  6  1  0
  6  7  2  0
  6  8  1  0
  8  9  1  0
  9 10  1  0
 10 11  1  0
 11 12  2  0
 12 13  1  0
 13 14  1  0
 14 15  1  0
 15 16  2  0
 16 17  1  0
 17 18  1  0
 18 19  2  0
 18 20  1  0
 20 21  1  0
 21 22  1  0
 22 23  1  0
 23 24  1  0
 24 25  2  0
 25 26  1  0
 26 27  2  0
 27 28  1  0
 28 29  2  0
 29 30  1  0
 16 31  1  0
 31 32  1  0
 32 33  1  0
 13 34  2  0
 34 35  1  0
 35 36  2  0
  5 37  1  0
 37 38  2  0
 38  2  1  0
 36  8  1  0
 36 11  1  0
 32 14  2  0
 30 21  1  0
 29 24  1  0
  1 39  1  0
  1 40  1  0
  1 41  1  0
  3 42  1  0
  4 43  1  0
  9 44  1  0
  9 45  1  0
 10 46  1  0
 10 47  1  0
 12 48  1  0
 17 49  1  0
 20 50  1  0
 20 51  1  0
 22 52  1  0
 22 53  1  0
 23 54  1  0
 23 55  1  0
 25 56  1  0
 26 57  1  0
 27 58  1  0
 28 59  1  0
 30 60  1  0
 30 61  1  0
 33 62  1  0
 33 63  1  0
 33 64  1  0
 34 65  1  0
 35 66  1  0
 37 67  1  0
 38 68  1  0
M  END
>  <Binding energies>  (1) 
[-10.01]

>  <Ligand effiencies>  (1) 
[-0.25666666666666665]

>  <Interactions>  (1) 
["V-A:ILE:538:CG2:4861, V-A:PRO:540:N:4882, V-B:TYR:539:CD2:9846, V-B:PRO:540:CA:9855, H-B:ALA:541:N:9863, V-A:LEU:475:CD2:4257, V-B:ALA:541:CB:9864, V-A:ILE:538:CB:4860, V-A:TYR:531:CZ:4792, V-B:TYR:539:CE2:9848, V-B:PRO:540:N:9856, V-A:ASP:366:CG:3211, V-A:TYR:539:CZ:4875, V-A:PRO:540:CA:4881, V-A:HIS:456:CE1:4068, V-B:TYR:539:C:9839, V-B:GLU:543:CD:9880, V-A:ARG:545:CZ:4924, V-B:GLU:543:CB:9878, V-A:PRO:540:CB:4883, V-A:LEU:363:CD1:3187, V-A:TYR:539:C:4865, V-A:TYR:539:CE1:4873, V-A:TYR:531:CE2:4791, V-B:TYR:531:CE1:9764, H-A:TYR:539:N:4868, V-A:ARG:545:CD:4921, V-A:ARG:545:CG:4920, V-A:GLY:454:CA:4047, V-A:TYR:484:CZ:4345, V-A:LEU:363:CB:3185, V-A:LEU:363:CA:3183, V-A:ASN:362:C:3170, V-A:GLY:453:CA:4042, V-A:TYR:484:CE1:4343"]

$$$$
RR20_Rahimova_2017-again1
     RDKit          3D

 68 73  0  0  0  0  0  0  0  0999 V2000
  133.5720  131.0870   60.4810 C   0  0  0  0  0  0  0  0  0  0  0  0
  132.6780  131.2350   59.2630 C   0  0  0  0  0  0  0  0  0  0  0  0
  131.3110  131.4640   59.4260 C   0  0  0  0  0  0  0  0  0  0  0  0
  130.4910  131.6070   58.3100 C   0  0  0  0  0  0  0  0  0  0  0  0
  131.0290  131.5110   57.0210 C   0  0  0  0  0  0  0  0  0  0  0  0
  130.1260  131.6870   55.8210 C   0  0  0  0  0  0  0  0  0  0  0  0
  130.3930  132.5950   55.0310 O   0  0  0  0  0  0  0  0  0  0  0  0
  129.0790  130.8280   55.6420 N   0  0  0  0  0  0  0  0  0  0  0  0
  128.0120  131.1100   54.6680 C   0  0  0  0  0  0  0  0  0  0  0  0
  127.1200  129.8800   54.6410 C   0  0  0  0  0  0  0  0  0  0  0  0
  127.9620  128.8450   55.3260 C   0  0  0  0  0  0  0  0  0  0  0  0
  127.6980  127.4890   55.5240 C   0  0  0  0  0  0  0  0  0  0  0  0
  128.5330  126.7090   56.3390 C   0  0  0  0  0  0  0  0  0  0  0  0
  128.2460  125.2520   56.5580 C   0  0  0  0  0  0  0  0  0  0  0  0
  128.8660  124.6340   57.5510 N   0  0  0  0  0  0  0  0  0  0  0  0
  128.5630  123.3640   57.6630 C   0  0  0  0  0  0  0  0  0  0  0  0
  129.0510  122.4350   58.5440 N   0  0  0  0  0  0  0  0  0  0  0  0
  128.9070  122.4840   59.8260 C   0  0  0  0  0  0  0  0  0  0  0  0
  128.2760  123.2700   60.5580 O   0  0  0  0  0  0  0  0  0  0  0  0
  129.6420  121.3570   60.5810 C   0  0  0  0  0  0  0  0  0  0  0  0
  131.1050  121.7900   60.8870 N   0  0  2  0  0  0  0  0  0  0  0  0
  131.3200  122.1420   62.3730 C   0  0  0  0  0  0  0  0  0  0  0  0
  130.5010  123.3930   62.7410 C   0  0  0  0  0  0  0  0  0  0  0  0
  130.6870  124.5440   61.7560 C   0  0  0  0  0  0  0  0  0  0  0  0
  130.3670  125.8500   62.1460 C   0  0  0  0  0  0  0  0  0  0  0  0
  130.4790  126.9170   61.2590 C   0  0  0  0  0  0  0  0  0  0  0  0
  130.9180  126.6900   59.9610 C   0  0  0  0  0  0  0  0  0  0  0  0
  131.2530  125.3990   59.5620 C   0  0  0  0  0  0  0  0  0  0  0  0
  131.1550  124.3140   60.4410 C   0  0  0  0  0  0  0  0  0  0  0  0
  131.5910  122.9260   59.9550 C   0  0  0  0  0  0  0  0  0  0  0  0
  127.4490  122.8220   56.4630 S   0  0  0  0  0  0  0  0  0  0  0  0
  127.3700  124.4400   55.8100 C   0  0  0  0  0  0  0  0  0  0  0  0
  126.4480  124.7560   54.6510 C   0  0  0  0  0  0  0  0  0  0  0  0
  129.6080  127.3350   56.9830 C   0  0  0  0  0  0  0  0  0  0  0  0
  129.8650  128.6950   56.8020 C   0  0  0  0  0  0  0  0  0  0  0  0
  129.0700  129.4440   55.9240 C   0  0  0  0  0  0  0  0  0  0  0  0
  132.4070  131.3110   56.8660 C   0  0  0  0  0  0  0  0  0  0  0  0
  133.2260  131.1680   57.9820 C   0  0  0  0  0  0  0  0  0  0  0  0
  132.9670  131.1872   61.3942 H   0  0  0  0  0  0  0  0  0  0  0  0
  134.0517  130.0972   60.4657 H   0  0  0  0  0  0  0  0  0  0  0  0
  134.3451  131.8694   60.4657 H   0  0  0  0  0  0  0  0  0  0  0  0
  130.8814  131.5315   60.4364 H   0  0  0  0  0  0  0  0  0  0  0  0
  129.4154  131.7963   58.4416 H   0  0  0  0  0  0  0  0  0  0  0  0
  127.4343  131.9921   54.9813 H   0  0  0  0  0  0  0  0  0  0  0  0
  128.4273  131.3235   53.6720 H   0  0  0  0  0  0  0  0  0  0  0  0
  126.1840  130.0570   55.1911 H   0  0  0  0  0  0  0  0  0  0  0  0
  126.8104  129.5883   53.6266 H   0  0  0  0  0  0  0  0  0  0  0  0
  126.8269  127.0270   55.0365 H   0  0  0  0  0  0  0  0  0  0  0  0
  129.1182  121.1491   61.5256 H   0  0  0  0  0  0  0  0  0  0  0  0
  129.6557  120.4519   59.9560 H   0  0  0  0  0  0  0  0  0  0  0  0
  131.6800  120.9780   60.6990 H   0  0  0  0  0  0  0  0  0  0  0  0
  130.9956  121.2971   62.9982 H   0  0  0  0  0  0  0  0  0  0  0  0
  132.3872  122.3451   62.5455 H   0  0  0  0  0  0  0  0  0  0  0  0
  129.4357  123.1197   62.7624 H   0  0  0  0  0  0  0  0  0  0  0  0
  130.8579  123.7408   63.7217 H   0  0  0  0  0  0  0  0  0  0  0  0
  130.0204  126.0366   63.1732 H   0  0  0  0  0  0  0  0  0  0  0  0
  130.2209  127.9355   61.5847 H   0  0  0  0  0  0  0  0  0  0  0  0
  131.0006  127.5265   59.2515 H   0  0  0  0  0  0  0  0  0  0  0  0
  131.6025  125.2277   58.5331 H   0  0  0  0  0  0  0  0  0  0  0  0
  131.1770  122.7585   58.9497 H   0  0  0  0  0  0  0  0  0  0  0  0
  132.6908  122.9050   59.9492 H   0  0  0  0  0  0  0  0  0  0  0  0
  125.4739  125.0899   55.0379 H   0  0  0  0  0  0  0  0  0  0  0  0
  126.8914  125.5535   54.0366 H   0  0  0  0  0  0  0  0  0  0  0  0
  126.3090  123.8542   54.0366 H   0  0  0  0  0  0  0  0  0  0  0  0
  130.2609  126.7447   57.6427 H   0  0  0  0  0  0  0  0  0  0  0  0
  130.6895  129.1776   57.3472 H   0  0  0  0  0  0  0  0  0  0  0  0
  132.8436  131.2668   55.8573 H   0  0  0  0  0  0  0  0  0  0  0  0
  134.3058  131.0021   57.8539 H   0  0  0  0  0  0  0  0  0  0  0  0
  1  2  1  0
  2  3  2  0
  3  4  1  0
  4  5  2  0
  5  6  1  0
  6  7  2  0
  6  8  1  0
  8  9  1  0
  9 10  1  0
 10 11  1  0
 11 12  2  0
 12 13  1  0
 13 14  1  0
 14 15  1  0
 15 16  2  0
 16 17  1  0
 17 18  2  0
 18 19  1  0
 18 20  1  0
 20 21  1  0
 21 22  1  0
 22 23  1  0
 23 24  1  0
 24 25  2  0
 25 26  1  0
 26 27  2  0
 27 28  1  0
 28 29  2  0
 29 30  1  0
 16 31  1  0
 31 32  1  0
 32 33  1  0
 13 34  2  0
 34 35  1  0
 35 36  2  0
  5 37  1  0
 37 38  2  0
 38  2  1  0
 36  8  1  0
 36 11  1  0
 32 14  2  0
 30 21  1  0
 29 24  1  0
  1 39  1  0
  1 40  1  0
  1 41  1  0
  3 42  1  0
  4 43  1  0
  9 44  1  0
  9 45  1  0
 10 46  1  0
 10 47  1  0
 12 48  1  0
 20 49  1  0
 20 50  1  0
 21 51  1  6
 22 52  1  0
 22 53  1  0
 23 54  1  0
 23 55  1  0
 25 56  1  0
 26 57  1  0
 27 58  1  0
 28 59  1  0
 30 60  1  0
 30 61  1  0
 33 62  1  0
 33 63  1  0
 33 64  1  0
 34 65  1  0
 35 66  1  0
 37 67  1  0
 38 68  1  0
M  CHG  2  19  -1  21   1
M  END
>  <Binding energies>  (1) 
[-8.8]

>  <Ligand effiencies>  (1) 
[-0.22564102564102567]

>  <Interactions>  (1) 
["V-A:PRO:540:N:4882, V-B:TYR:539:CD2:9846, H-B:ALA:541:N:9863, V-A:LEU:475:CD2:4257, V-B:ALA:541:CB:9864, V-B:TYR:539:CE2:9848, V-B:PRO:540:N:9856, V-A:ASP:366:CG:3211, V-A:TYR:539:CZ:4875, V-A:PRO:540:CA:4881, V-B:TYR:539:CG:9844, V-B:TYR:539:C:9839, V-B:TYR:539:CA:9841, V-B:TYR:531:CZ:9766, V-B:TYR:539:CD1:9845, V-A:ASN:362:CB:3174, V-A:PRO:540:CB:4883, V-A:TYR:539:C:4865, V-A:TYR:539:CE1:4873, V-A:TYR:531:CE2:4791, H-A:TYR:539:N:4868, V-A:LEU:363:CA:3183, V-A:ASN:362:C:3170, V-B:MET:535:CG:9805"]

$$$$
RR21_Rahimova_2017
     RDKit          3D

 62 67  0  0  0  0  0  0  0  0999 V2000
  134.2000  131.3370   56.6130 C   0  0  0  0  0  0  0  0  0  0  0  0
  132.9200  131.8980   56.3400 O   0  0  0  0  0  0  0  0  0  0  0  0
  131.9230  131.8020   57.2920 C   0  0  0  0  0  0  0  0  0  0  0  0
  132.1450  131.4600   58.6370 C   0  0  0  0  0  0  0  0  0  0  0  0
  131.0820  131.3880   59.5370 C   0  0  0  0  0  0  0  0  0  0  0  0
  129.7740  131.6590   59.1190 C   0  0  0  0  0  0  0  0  0  0  0  0
  128.6340  131.5860   60.0890 C   0  0  0  0  0  0  0  0  0  0  0  0
  127.6920  132.5090   60.0640 N   0  0  0  0  0  0  0  0  0  0  0  0
  126.8160  132.1910   61.0290 N   0  0  0  0  0  0  0  0  0  0  0  0
  125.6560  132.9730   61.2640 C   0  0  0  0  0  0  0  0  0  0  0  0
  125.4850  134.2120   60.6270 C   0  0  0  0  0  0  0  0  0  0  0  0
  124.3400  134.9690   60.8620 C   0  0  0  0  0  0  0  0  0  0  0  0
  123.3640  134.4920   61.7330 C   0  0  0  0  0  0  0  0  0  0  0  0
  123.5220  133.2650   62.3730 C   0  0  0  0  0  0  0  0  0  0  0  0
  124.6660  132.5060   62.1410 C   0  0  0  0  0  0  0  0  0  0  0  0
  127.2060  131.0370   61.6610 C   0  0  0  0  0  0  0  0  0  0  0  0
  128.3960  130.6150   61.0890 C   0  0  0  0  0  0  0  0  0  0  0  0
  129.1670  129.4190   61.3940 C   0  0  0  0  0  0  0  0  0  0  0  0
  129.7950  128.5860   60.5330 C   0  0  0  0  0  0  0  0  0  0  0  0
  129.8620  128.6940   58.7600 S   0  0  0  0  0  0  0  0  0  0  0  0
  130.8710  127.2550   58.7240 C   0  0  0  0  0  0  0  0  0  0  0  0
  131.3870  126.6710   57.6870 N   0  0  0  0  0  0  0  0  0  0  0  0
  132.2010  125.5100   57.7980 C   0  0  0  0  0  0  0  0  0  0  0  0
  132.7420  124.9110   56.8690 O   0  0  0  0  0  0  0  0  0  0  0  0
  132.3840  125.0290   59.2120 C   0  0  0  0  0  0  0  0  0  0  0  0
  133.2280  123.7710   59.4540 C   0  0  0  0  0  0  0  0  0  0  0  0
  132.4180  122.5340   59.8350 C   0  0  0  0  0  0  0  0  0  0  0  0
  133.0580  121.3020   60.0010 C   0  0  0  0  0  0  0  0  0  0  0  0
  132.3210  120.1780   60.3650 C   0  0  0  0  0  0  0  0  0  0  0  0
  130.9440  120.2820   60.5670 C   0  0  0  0  0  0  0  0  0  0  0  0
  130.1480  119.0560   60.9760 C   0  0  0  0  0  0  0  0  0  0  0  0
  130.3040  121.5150   60.4130 C   0  0  0  0  0  0  0  0  0  0  0  0
  131.0400  122.6380   60.0490 C   0  0  0  0  0  0  0  0  0  0  0  0
  131.8590  125.6190   60.2350 N   0  0  0  0  0  0  0  0  0  0  0  0
  131.0880  126.7610   59.9830 N   0  0  0  0  0  0  0  0  0  0  0  0
  130.5300  127.4270   61.0230 C   0  0  0  0  0  0  0  0  0  0  0  0
  130.6380  127.0990   62.2110 O   0  0  0  0  0  0  0  0  0  0  0  0
  129.5510  131.9940   57.7800 C   0  0  0  0  0  0  0  0  0  0  0  0
  130.6130  132.0660   56.8780 C   0  0  0  0  0  0  0  0  0  0  0  0
  130.3630  132.3930   55.5880 F   0  0  0  0  0  0  0  0  0  0  0  0
  134.3475  131.2724   57.7011 H   0  0  0  0  0  0  0  0  0  0  0  0
  134.2601  130.3300   56.1744 H   0  0  0  0  0  0  0  0  0  0  0  0
  134.9812  131.9752   56.1744 H   0  0  0  0  0  0  0  0  0  0  0  0
  133.1671  131.2470   58.9832 H   0  0  0  0  0  0  0  0  0  0  0  0
  131.2734  131.1156   60.5854 H   0  0  0  0  0  0  0  0  0  0  0  0
  126.2581  134.5863   59.9398 H   0  0  0  0  0  0  0  0  0  0  0  0
  124.2072  135.9396   60.3617 H   0  0  0  0  0  0  0  0  0  0  0  0
  122.4594  135.0900   61.9175 H   0  0  0  0  0  0  0  0  0  0  0  0
  122.7454  132.8968   63.0596 H   0  0  0  0  0  0  0  0  0  0  0  0
  124.7937  131.5376   62.6468 H   0  0  0  0  0  0  0  0  0  0  0  0
  126.6682  130.5347   62.4786 H   0  0  0  0  0  0  0  0  0  0  0  0
  129.2495  129.1595   62.4598 H   0  0  0  0  0  0  0  0  0  0  0  0
  133.7851  123.5474   58.5322 H   0  0  0  0  0  0  0  0  0  0  0  0
  133.8851  123.9923   60.3079 H   0  0  0  0  0  0  0  0  0  0  0  0
  134.1437  121.2207   59.8441 H   0  0  0  0  0  0  0  0  0  0  0  0
  132.8241  119.2082   60.4933 H   0  0  0  0  0  0  0  0  0  0  0  0
  130.1079  118.9942   62.0735 H   0  0  0  0  0  0  0  0  0  0  0  0
  129.1263  119.1317   60.5754 H   0  0  0  0  0  0  0  0  0  0  0  0
  130.6329  118.1536   60.5754 H   0  0  0  0  0  0  0  0  0  0  0  0
  129.2198  121.5973   60.5794 H   0  0  0  0  0  0  0  0  0  0  0  0
  130.5373  123.6091   59.9294 H   0  0  0  0  0  0  0  0  0  0  0  0
  128.5279  132.2029   57.4342 H   0  0  0  0  0  0  0  0  0  0  0  0
  1  2  1  0
  2  3  1  0
  3  4  2  0
  4  5  1  0
  5  6  2  0
  6  7  1  0
  7  8  2  0
  8  9  1  0
  9 10  1  0
 10 11  2  0
 11 12  1  0
 12 13  2  0
 13 14  1  0
 14 15  2  0
  9 16  1  0
 16 17  2  0
 17 18  1  0
 18 19  2  0
 19 20  1  0
 20 21  1  0
 21 22  2  0
 22 23  1  0
 23 24  2  0
 23 25  1  0
 25 26  1  0
 26 27  1  0
 27 28  2  0
 28 29  1  0
 29 30  2  0
 30 31  1  0
 30 32  1  0
 32 33  2  0
 25 34  2  0
 34 35  1  0
 35 36  1  0
 36 37  2  0
  6 38  1  0
 38 39  2  0
 39 40  1  0
 39  3  1  0
 17  7  1  0
 36 19  1  0
 15 10  1  0
 35 21  1  0
 33 27  1  0
  1 41  1  0
  1 42  1  0
  1 43  1  0
  4 44  1  0
  5 45  1  0
 11 46  1  0
 12 47  1  0
 13 48  1  0
 14 49  1  0
 15 50  1  0
 16 51  1  0
 18 52  1  0
 26 53  1  0
 26 54  1  0
 28 55  1  0
 29 56  1  0
 31 57  1  0
 31 58  1  0
 31 59  1  0
 32 60  1  0
 33 61  1  0
 38 62  1  0
M  END
>  <Binding energies>  (1) 
[-9.49]

>  <Ligand effiencies>  (1) 
[-0.23725000000000002]

>  <Interactions>  (1) 
["V-A:PRO:540:CD:4885, V-A:PRO:540:N:4882, V-B:TYR:539:CD2:9846, V-A:LEU:475:CD2:4257, V-A:ILE:369:CG2:3235, V-A:TRP:381:CZ2:3368, V-B:ALA:541:CB:9864, V-A:ILE:538:CB:4860, V-A:ILE:538:CA:4858, V-A:TYR:531:CZ:4792, V-A:TRP:381:CH2:3370, V-B:TYR:539:CE2:9848, V-A:ASP:366:CG:3211, V-B:ILE:369:CD1:8211, H-A:TYR:531:OH:4793, V-A:TYR:539:CD2:4872, V-B:ILE:369:CG2:8209, V-A:ASP:366:CB:3210, V-B:LEU:475:CD2:9231, V-A:TYR:539:CE2:4874, V-B:TRP:381:CH2:8344, V-A:PRO:540:CA:4881, V-B:TRP:381:CZ2:8342, V-A:GLU:543:CD:4906, V-A:PRO:540:CB:4883, V-A:LEU:363:CD1:3187, V-A:TYR:539:C:4865, H-A:ARG:545:NH2:4926, V-A:TYR:531:CE2:4791, H-B:TYR:539:OH:9850, V-A:LEU:363:CB:3185, V-A:LEU:363:CA:3183, V-A:ILE:538:C:4856, V-B:GLY:454:CA:9021, V-A:PRO:482:CG:4325, V-A:PRO:482:CB:4324, V-A:TYR:539:CA:4867, V-A:LEU:363:CG:3186, V-B:SER:385:C:8377, V-B:SER:385:CA:8379"]

$$$$
RR22_Rahimova_2017
     RDKit          3D

 49 54  0  0  0  0  0  0  0  0999 V2000
  124.4870  129.6220   55.7510 O   0  0  0  0  0  0  0  0  0  0  0  0
  125.2710  129.9250   56.6480 C   0  0  0  0  0  0  0  0  0  0  0  0
  124.9780  130.1700   57.9780 N   0  0  0  0  0  0  0  0  0  0  0  0
  126.0230  130.4540   58.9140 C   0  0  1  0  0  0  0  0  0  0  0  0
  125.6680  131.7080   59.5030 O   0  0  0  0  0  0  0  0  0  0  0  0
  125.4740  131.7610   60.8840 C   0  0  0  0  0  0  0  0  0  0  0  0
  124.7840  132.8700   61.3730 C   0  0  0  0  0  0  0  0  0  0  0  0
  124.5870  133.0130   62.7470 C   0  0  0  0  0  0  0  0  0  0  0  0
  125.0860  132.0530   63.6280 C   0  0  0  0  0  0  0  0  0  0  0  0
  125.7770  130.9430   63.1380 C   0  0  0  0  0  0  0  0  0  0  0  0
  125.9610  130.7740   61.7620 C   0  0  0  0  0  0  0  0  0  0  0  0
  126.7300  129.6330   61.1350 C   0  0  1  0  0  0  0  0  0  0  0  0
  126.7720  128.2460   61.7450 C   0  0  0  0  0  0  0  0  0  0  0  0
  126.9330  127.4060   60.4750 C   0  0  0  0  0  0  0  0  0  0  0  0
  127.4120  126.0100   60.4970 C   0  0  0  0  0  0  0  0  0  0  0  0
  126.5010  124.9450   60.5720 C   0  0  0  0  0  0  0  0  0  0  0  0
  126.9580  123.6300   60.5910 C   0  0  0  0  0  0  0  0  0  0  0  0
  128.3240  123.3710   60.5360 C   0  0  0  0  0  0  0  0  0  0  0  0
  129.2410  124.4170   60.4620 C   0  0  0  0  0  0  0  0  0  0  0  0
  128.7860  125.7320   60.4410 C   0  0  0  0  0  0  0  0  0  0  0  0
  126.5790  128.0660   59.4370 N   0  0  0  0  0  0  0  0  0  0  0  0
  126.1500  129.3350   59.8600 N   0  0  0  0  0  0  0  0  0  0  0  0
  127.2860  130.6850   58.0980 C   0  0  0  0  0  0  0  0  0  0  0  0
  128.3830  131.3020   58.5970 C   0  0  0  0  0  0  0  0  0  0  0  0
  129.6710  131.5710   57.9280 C   0  0  0  0  0  0  0  0  0  0  0  0
  130.9060  131.1620   58.4500 C   0  0  0  0  0  0  0  0  0  0  0  0
  132.0850  131.4530   57.7610 C   0  0  0  0  0  0  0  0  0  0  0  0
  131.9970  132.1580   56.5610 C   0  0  0  0  0  0  0  0  0  0  0  0
  130.8180  132.5740   56.0370 N   0  0  0  0  0  0  0  0  0  0  0  0
  129.6820  132.2800   56.7210 C   0  0  0  0  0  0  0  0  0  0  0  0
  127.0650  130.1330   56.4310 S   0  0  0  0  0  0  0  0  0  0  0  0
  124.0230  130.1960   58.3000 H   0  0  0  0  0  0  0  0  0  0  0  0
  124.3964  133.6294   60.6779 H   0  0  0  0  0  0  0  0  0  0  0  0
  124.0379  133.8832   63.1359 H   0  0  0  0  0  0  0  0  0  0  0  0
  124.9347  132.1709   64.7111 H   0  0  0  0  0  0  0  0  0  0  0  0
  126.1792  130.1966   63.8388 H   0  0  0  0  0  0  0  0  0  0  0  0
  127.7427  130.0543   61.2187 H   0  0  0  0  0  0  0  0  0  0  0  0
  127.6269  128.1248   62.4265 H   0  0  0  0  0  0  0  0  0  0  0  0
  125.9033  127.9855   62.3674 H   0  0  0  0  0  0  0  0  0  0  0  0
  125.4212  125.1501   60.6160 H   0  0  0  0  0  0  0  0  0  0  0  0
  126.2409  122.7979   60.6493 H   0  0  0  0  0  0  0  0  0  0  0  0
  128.6829  122.3313   60.5511 H   0  0  0  0  0  0  0  0  0  0  0  0
  130.3195  124.2046   60.4204 H   0  0  0  0  0  0  0  0  0  0  0  0
  129.5086  126.5591   60.3801 H   0  0  0  0  0  0  0  0  0  0  0  0
  128.3040  131.6484   59.6380 H   0  0  0  0  0  0  0  0  0  0  0  0
  130.9462  130.6121   59.4019 H   0  0  0  0  0  0  0  0  0  0  0  0
  133.0608  131.1335   58.1556 H   0  0  0  0  0  0  0  0  0  0  0  0
  132.9247  132.3865   56.0159 H   0  0  0  0  0  0  0  0  0  0  0  0
  128.7209  132.6164   56.3050 H   0  0  0  0  0  0  0  0  0  0  0  0
  1  2  2  0
  2  3  1  0
  3  4  1  0
  4  5  1  1
  5  6  1  0
  6  7  2  0
  7  8  1  0
  8  9  2  0
  9 10  1  0
 10 11  2  0
 11 12  1  0
 12 13  1  0
 13 14  1  0
 14 15  1  0
 15 16  2  0
 16 17  1  0
 17 18  2  0
 18 19  1  0
 19 20  2  0
 14 21  2  0
 21 22  1  0
  4 23  1  0
 23 24  2  0
 24 25  1  0
 25 26  2  0
 26 27  1  0
 27 28  2  0
 28 29  1  0
 29 30  2  0
 23 31  1  0
 31  2  1  0
 22  4  1  0
 30 25  1  0
 11  6  1  0
 22 12  1  0
 20 15  1  0
  3 32  1  0
  7 33  1  0
  8 34  1  0
  9 35  1  0
 10 36  1  0
 12 37  1  6
 13 38  1  0
 13 39  1  0
 16 40  1  0
 17 41  1  0
 18 42  1  0
 19 43  1  0
 20 44  1  0
 24 45  1  0
 26 46  1  0
 27 47  1  0
 28 48  1  0
 30 49  1  0
M  END
>  <Binding energies>  (1) 
[-8.71]

>  <Ligand effiencies>  (1) 
[-0.2721875]

>  <Interactions>  (1) 
["V-A:PRO:540:CD:4885, V-B:ASP:366:CG:8185, V-A:PRO:540:N:4882, H-B:TYR:531:OH:9767, V-B:PRO:540:CA:9855, V-A:ILE:538:CB:4860, V-B:LEU:475:CD2:9231, V-A:TYR:539:CE2:4874, V-A:TYR:539:CZ:4875, V-A:PRO:540:CA:4881, V-B:PRO:540:C:9853, V-A:PRO:540:CB:4883, V-A:TYR:539:C:4865, V-A:TYR:539:CG:4870, V-B:ASP:366:CB:8184, H-A:TYR:539:OH:4876, V-B:TYR:531:CE1:9764, H-A:TYR:539:N:4868, V-B:GLY:454:CA:9021, V-A:TYR:539:CA:4867, H-B:ASP:366:OD1:8186, H-B:ASP:366:O:8181"]

$$$$
RR23_Rahimova_2017
     RDKit          3D

 65 70  0  0  0  0  0  0  0  0999 V2000
  130.7160  126.9160   67.0060 C   0  0  0  0  0  0  0  0  0  0  0  0
  131.2970  126.1330   65.8430 C   0  0  0  0  0  0  0  0  0  0  0  0
  132.6290  125.7180   65.8760 C   0  0  0  0  0  0  0  0  0  0  0  0
  133.1580  124.9910   64.8130 C   0  0  0  0  0  0  0  0  0  0  0  0
  132.3630  124.6840   63.7030 C   0  0  0  0  0  0  0  0  0  0  0  0
  132.9510  123.8760   62.5670 C   0  0  0  0  0  0  0  0  0  0  0  0
  134.1620  123.9830   62.3570 O   0  0  0  0  0  0  0  0  0  0  0  0
  132.1380  123.0580   61.8350 N   0  0  0  0  0  0  0  0  0  0  0  0
  131.5610  121.8320   62.4090 C   0  0  0  0  0  0  0  0  0  0  0  0
  130.6100  121.2760   61.3620 C   0  0  0  0  0  0  0  0  0  0  0  0
  130.4350  122.4310   60.4230 C   0  0  0  0  0  0  0  0  0  0  0  0
  129.6000  122.5410   59.3110 C   0  0  0  0  0  0  0  0  0  0  0  0
  129.6960  123.6510   58.4590 C   0  0  0  0  0  0  0  0  0  0  0  0
  128.7960  123.8120   57.2240 C   0  0  2  0  0  0  0  0  0  0  0  0
  128.7210  125.1860   56.7780 N   0  0  0  0  0  0  0  0  0  0  0  0
  127.5900  125.4560   56.2610 C   0  0  0  0  0  0  0  0  0  0  0  0
  127.1580  126.6450   55.7630 N   0  0  0  0  0  0  0  0  0  0  0  0
  127.7670  127.8540   55.8220 C   0  0  0  0  0  0  0  0  0  0  0  0
  128.8720  128.0760   56.3200 O   0  0  0  0  0  0  0  0  0  0  0  0
  126.9780  129.0230   55.2090 C   0  0  0  0  0  0  0  0  0  0  0  0
  126.1010  129.6120   56.2460 N   0  0  0  0  0  0  0  0  0  0  0  0
  124.7380  129.5130   56.0010 N   0  0  0  0  0  0  0  0  0  0  0  0
  123.8650  129.9900   56.8300 N   0  0  0  0  0  0  0  0  0  0  0  0
  124.2920  130.6190   58.0020 C   0  0  0  0  0  0  0  0  0  0  0  0
  123.3240  131.1240   58.8740 C   0  0  0  0  0  0  0  0  0  0  0  0
  123.7200  131.7570   60.0530 C   0  0  0  0  0  0  0  0  0  0  0  0
  125.0760  131.8880   60.3610 C   0  0  0  0  0  0  0  0  0  0  0  0
  126.0440  131.3840   59.4900 C   0  0  0  0  0  0  0  0  0  0  0  0
  125.6470  130.7470   58.3080 C   0  0  0  0  0  0  0  0  0  0  0  0
  126.6800  130.1980   57.3500 C   0  0  0  0  0  0  0  0  0  0  0  0
  127.8980  130.2790   57.5340 O   0  0  0  0  0  0  0  0  0  0  0  0
  126.3980  124.1260   56.1830 S   0  0  0  0  0  0  0  0  0  0  0  0
  127.3790  123.2140   57.3870 C   0  0  2  0  0  0  0  0  0  0  0  0
  126.7250  123.3520   58.7770 C   0  0  0  0  0  0  0  0  0  0  0  0
  130.6740  124.6180   58.7170 C   0  0  0  0  0  0  0  0  0  0  0  0
  131.5240  124.4990   59.8180 C   0  0  0  0  0  0  0  0  0  0  0  0
  131.3680  123.4290   60.7090 C   0  0  0  0  0  0  0  0  0  0  0  0
  131.0190  125.0800   63.6880 C   0  0  0  0  0  0  0  0  0  0  0  0
  130.4900  125.8050   64.7520 C   0  0  0  0  0  0  0  0  0  0  0  0
  131.0492  126.4669   67.9533 H   0  0  0  0  0  0  0  0  0  0  0  0
  131.0601  127.9595   66.9538 H   0  0  0  0  0  0  0  0  0  0  0  0
  129.6176  126.8891   66.9538 H   0  0  0  0  0  0  0  0  0  0  0  0
  133.2609  125.9653   66.7418 H   0  0  0  0  0  0  0  0  0  0  0  0
  134.2054  124.6565   64.8458 H   0  0  0  0  0  0  0  0  0  0  0  0
  132.3555  121.1032   62.6269 H   0  0  0  0  0  0  0  0  0  0  0  0
  131.0371  122.0414   63.3533 H   0  0  0  0  0  0  0  0  0  0  0  0
  131.0510  120.4100   60.8466 H   0  0  0  0  0  0  0  0  0  0  0  0
  129.6621  120.9122   61.7851 H   0  0  0  0  0  0  0  0  0  0  0  0
  128.8621  121.7527   59.1011 H   0  0  0  0  0  0  0  0  0  0  0  0
  129.2926  123.2166   56.4437 H   0  0  0  0  0  0  0  0  0  0  0  0
  126.2440  126.6380   55.3330 H   0  0  0  0  0  0  0  0  0  0  0  0
  127.6783  129.7874   54.8413 H   0  0  0  0  0  0  0  0  0  0  0  0
  126.3669  128.6582   54.3703 H   0  0  0  0  0  0  0  0  0  0  0  0
  122.2556  131.0232   58.6325 H   0  0  0  0  0  0  0  0  0  0  0  0
  122.9609  132.1545   60.7427 H   0  0  0  0  0  0  0  0  0  0  0  0
  125.3819  132.3890   61.2913 H   0  0  0  0  0  0  0  0  0  0  0  0
  127.1123  131.4868   59.7310 H   0  0  0  0  0  0  0  0  0  0  0  0
  127.4372  122.1247   57.2458 H   0  0  0  0  0  0  0  0  0  0  0  0
  127.4840  123.1918   59.5569 H   0  0  0  0  0  0  0  0  0  0  0  0
  126.2977  124.3601   58.8827 H   0  0  0  0  0  0  0  0  0  0  0  0
  125.9268  122.6025   58.8827 H   0  0  0  0  0  0  0  0  0  0  0  0
  130.7742  125.4824   58.0441 H   0  0  0  0  0  0  0  0  0  0  0  0
  132.3153  125.2444   59.9858 H   0  0  0  0  0  0  0  0  0  0  0  0
  130.3797  124.8170   62.8324 H   0  0  0  0  0  0  0  0  0  0  0  0
  129.4361  126.1195   64.7332 H   0  0  0  0  0  0  0  0  0  0  0  0
  1  2  1  0
  2  3  2  0
  3  4  1  0
  4  5  2  0
  5  6  1  0
  6  7  2  0
  6  8  1  0
  8  9  1  0
  9 10  1  0
 10 11  1  0
 11 12  2  0
 12 13  1  0
 13 14  1  0
 14 15  1  0
 15 16  2  0
 16 17  1  0
 17 18  1  0
 18 19  2  0
 18 20  1  0
 20 21  1  0
 21 22  1  0
 22 23  2  0
 23 24  1  0
 24 25  2  0
 25 26  1  0
 26 27  2  0
 27 28  1  0
 28 29  2  0
 29 30  1  0
 30 31  2  0
 16 32  1  0
 32 33  1  0
 33 34  1  0
 13 35  2  0
 35 36  1  0
 36 37  2  0
  5 38  1  0
 38 39  2  0
 39  2  1  0
 37  8  1  0
 37 11  1  0
 33 14  1  0
 30 21  1  0
 29 24  1  0
  1 40  1  0
  1 41  1  0
  1 42  1  0
  3 43  1  0
  4 44  1  0
  9 45  1  0
  9 46  1  0
 10 47  1  0
 10 48  1  0
 12 49  1  0
 14 50  1  6
 17 51  1  0
 20 52  1  0
 20 53  1  0
 25 54  1  0
 26 55  1  0
 27 56  1  0
 28 57  1  0
 33 58  1  6
 34 59  1  0
 34 60  1  0
 34 61  1  0
 35 62  1  0
 36 63  1  0
 38 64  1  0
 39 65  1  0
M  END
>  <Binding energies>  (1) 
[-10.35]

>  <Ligand effiencies>  (1) 
[-0.25875]

>  <Interactions>  (1) 
["V-B:ASP:366:CG:8185, V-B:TYR:539:CD2:9846, H-B:TYR:531:OH:9767, V-B:PRO:540:CA:9855, V-A:LEU:475:CD2:4257, V-B:ALA:541:CB:9864, V-B:TYR:539:CE2:9848, V-B:PRO:540:N:9856, V-B:ILE:369:CD1:8211, V-B:PRO:540:CB:9857, V-B:ILE:369:CG2:8209, V-A:TYR:539:CE2:4874, V-A:TYR:539:CZ:4875, V-B:TYR:539:CZ:9849, V-A:GLU:543:CD:4906, V-A:HIS:456:CE1:4068, V-B:TYR:539:C:9839, H-A:GLY:454:N:4048, V-B:TYR:531:CZ:9766, V-B:GLU:543:CD:9880, V-A:ARG:545:CZ:4924, V-A:GLU:543:CG:4905, V-B:ASP:366:C:8180, V-B:ASP:366:CB:8184, V-B:ILE:369:CB:8208, H-A:TYR:539:OH:4876, V-B:ASP:366:CA:8182, V-A:ARG:545:CD:4921, V-A:ARG:545:CG:4920, H-B:MET:535:SD:9806"]

$$$$
RR24_Rahimova_2017
     RDKit          3D

 65 71  0  0  0  0  0  0  0  0999 V2000
  130.4730  124.3980   57.6750 C   0  0  0  0  0  0  0  0  0  0  0  0
  129.7600  124.3950   56.3150 C   0  0  2  0  0  0  0  0  0  0  0  0
  130.1080  125.6330   55.4370 C   0  0  0  0  0  0  0  0  0  0  0  0
  131.2150  125.7700   54.9050 O   0  0  0  0  0  0  0  0  0  0  0  0
  129.0770  126.5250   55.3590 O   0  0  0  0  0  0  0  0  0  0  0  0
  129.0600  127.6190   56.1930 C   0  0  0  0  0  0  0  0  0  0  0  0
  128.1550  128.6540   55.9470 C   0  0  0  0  0  0  0  0  0  0  0  0
  128.1230  129.7610   56.7890 C   0  0  0  0  0  0  0  0  0  0  0  0
  128.9870  129.8350   57.8850 C   0  0  0  0  0  0  0  0  0  0  0  0
  128.9600  131.0670   58.7980 C   0  0  1  0  0  0  0  0  0  0  0  0
  127.6330  131.1730   59.5850 C   0  0  0  0  0  0  0  0  0  0  0  0
  127.5880  131.3440   60.9190 C   0  0  0  0  0  0  0  0  0  0  0  0
  128.7250  131.4350   61.6840 N   0  0  0  0  0  0  0  0  0  0  0  0
  129.9760  131.3540   61.1170 C   0  0  0  0  0  0  0  0  0  0  0  0
  130.9940  131.4710   62.0080 N   0  0  0  0  0  0  0  0  0  0  0  0
  132.2990  131.3370   61.6440 C   0  0  0  0  0  0  0  0  0  0  0  0
  133.1490  131.1340   62.5120 O   0  0  0  0  0  0  0  0  0  0  0  0
  132.5000  131.2820   60.2730 N   0  0  0  0  0  0  0  0  0  0  0  0
  133.9050  131.2280   59.8200 C   0  0  0  0  0  0  0  0  0  0  0  0
  131.5410  131.1580   59.2830 C   0  0  0  0  0  0  0  0  0  0  0  0
  131.7960  131.0610   58.0790 O   0  0  0  0  0  0  0  0  0  0  0  0
  130.1620  131.1750   59.7830 C   0  0  0  0  0  0  0  0  0  0  0  0
  126.2140  131.4090   61.3870 C   0  0  0  0  0  0  0  0  0  0  0  0
  125.6460  131.5680   62.6520 C   0  0  0  0  0  0  0  0  0  0  0  0
  124.2550  131.5910   62.7770 C   0  0  0  0  0  0  0  0  0  0  0  0
  123.4440  131.4570   61.6450 C   0  0  0  0  0  0  0  0  0  0  0  0
  124.0190  131.2980   60.3810 C   0  0  0  0  0  0  0  0  0  0  0  0
  125.4100  131.2750   60.2630 C   0  0  0  0  0  0  0  0  0  0  0  0
  126.2690  131.1260   59.0700 C   0  0  0  0  0  0  0  0  0  0  0  0
  125.9560  130.9890   57.8880 O   0  0  0  0  0  0  0  0  0  0  0  0
  129.8800  128.7890   58.1400 C   0  0  0  0  0  0  0  0  0  0  0  0
  129.9120  127.6800   57.2990 C   0  0  0  0  0  0  0  0  0  0  0  0
  128.2880  124.1920   56.4540 N   0  0  0  0  0  0  0  0  0  0  0  0
  127.5660  124.8380   57.4130 C   0  0  0  0  0  0  0  0  0  0  0  0
  127.9870  125.6260   58.2620 O   0  0  0  0  0  0  0  0  0  0  0  0
  126.1640  124.3900   57.2210 C   0  0  0  0  0  0  0  0  0  0  0  0
  124.9980  124.7190   57.9130 C   0  0  0  0  0  0  0  0  0  0  0  0
  123.7920  124.1380   57.5050 C   0  0  0  0  0  0  0  0  0  0  0  0
  123.7670  123.2480   56.4240 C   0  0  0  0  0  0  0  0  0  0  0  0
  124.9470  122.9310   55.7430 C   0  0  0  0  0  0  0  0  0  0  0  0
  126.1400  123.5190   56.1660 C   0  0  0  0  0  0  0  0  0  0  0  0
  127.5260  123.3860   55.6530 C   0  0  0  0  0  0  0  0  0  0  0  0
  127.9070  122.6990   54.7040 O   0  0  0  0  0  0  0  0  0  0  0  0
  129.7247  124.3949   58.4813 H   0  0  0  0  0  0  0  0  0  0  0  0
  131.1063  123.5025   57.7590 H   0  0  0  0  0  0  0  0  0  0  0  0
  131.0987  125.2988   57.7590 H   0  0  0  0  0  0  0  0  0  0  0  0
  130.1530  123.5248   55.7687 H   0  0  0  0  0  0  0  0  0  0  0  0
  127.4689  128.5940   55.0893 H   0  0  0  0  0  0  0  0  0  0  0  0
  127.4159  130.5801   56.5916 H   0  0  0  0  0  0  0  0  0  0  0  0
  129.0477  131.9147   58.1025 H   0  0  0  0  0  0  0  0  0  0  0  0
  128.6460  131.5660   62.6830 H   0  0  0  0  0  0  0  0  0  0  0  0
  130.8100  131.6360   62.9860 H   0  0  0  0  0  0  0  0  0  0  0  0
  134.5715  131.2024   60.6947 H   0  0  0  0  0  0  0  0  0  0  0  0
  134.0604  130.3232   59.2140 H   0  0  0  0  0  0  0  0  0  0  0  0
  134.1293  132.1182   59.2140 H   0  0  0  0  0  0  0  0  0  0  0  0
  126.2863  131.6740   63.5401 H   0  0  0  0  0  0  0  0  0  0  0  0
  123.7957  131.7149   63.7688 H   0  0  0  0  0  0  0  0  0  0  0  0
  122.3492  131.4769   61.7501 H   0  0  0  0  0  0  0  0  0  0  0  0
  123.3831  131.1922   59.4897 H   0  0  0  0  0  0  0  0  0  0  0  0
  130.5571  128.8427   59.0052 H   0  0  0  0  0  0  0  0  0  0  0  0
  130.6071  126.8527   57.5049 H   0  0  0  0  0  0  0  0  0  0  0  0
  125.0260  125.4196   58.7606 H   0  0  0  0  0  0  0  0  0  0  0  0
  122.8597  124.3814   58.0356 H   0  0  0  0  0  0  0  0  0  0  0  0
  122.8149  122.7961   56.1090 H   0  0  0  0  0  0  0  0  0  0  0  0
  124.9349  122.2334   54.8926 H   0  0  0  0  0  0  0  0  0  0  0  0
  1  2  1  0
  2  3  1  0
  3  4  2  0
  3  5  1  0
  5  6  1  0
  6  7  2  0
  7  8  1  0
  8  9  2  0
  9 10  1  0
 10 11  1  0
 11 12  2  0
 12 13  1  0
 13 14  1  0
 14 15  1  0
 15 16  1  0
 16 17  2  0
 16 18  1  0
 18 19  1  0
 18 20  1  0
 20 21  2  0
 20 22  1  0
 12 23  1  0
 23 24  2  0
 24 25  1  0
 25 26  2  0
 26 27  1  0
 27 28  2  0
 28 29  1  0
 29 30  2  0
  9 31  1  0
 31 32  2  0
  2 33  1  0
 33 34  1  0
 34 35  2  0
 34 36  1  0
 36 37  2  0
 37 38  1  0
 38 39  2  0
 39 40  1  0
 40 41  2  0
 41 42  1  0
 42 43  2  0
 32  6  1  0
 42 33  1  0
 22 10  1  0
 28 23  1  0
 41 36  1  0
 29 11  1  0
 22 14  2  0
  1 44  1  0
  1 45  1  0
  1 46  1  0
  2 47  1  6
  7 48  1  0
  8 49  1  0
 10 50  1  6
 13 51  1  0
 15 52  1  0
 19 53  1  0
 19 54  1  0
 19 55  1  0
 24 56  1  0
 25 57  1  0
 26 58  1  0
 27 59  1  0
 31 60  1  0
 32 61  1  0
 37 62  1  0
 38 63  1  0
 39 64  1  0
 40 65  1  0
M  END
>  <Binding energies>  (1) 
[-11.9]

>  <Ligand effiencies>  (1) 
[-0.2644444444444444]

>  <Interactions>  (1) 
["V-B:ASP:366:CG:8185, V-B:TYR:539:CE2:9848, V-B:PRO:540:N:9856, V-B:ILE:538:CB:9834, V-A:ASP:366:CG:3211, V-B:ILE:369:CD1:8211, H-A:TYR:531:OH:4793, V-B:TYR:531:CE2:9765, V-B:PRO:540:CD:9859, V-B:PRO:540:CB:9857, V-A:TYR:539:CE2:4874, V-B:ILE:538:CG2:9835, V-A:TYR:539:CZ:4875, V-A:PRO:540:CA:4881, V-B:TYR:539:CZ:9849, H-A:GLU:543:OE2:4908, V-B:TYR:539:CE1:9847, V-A:ALA:541:CB:4890, V-A:GLU:543:CD:4906, V-B:ILE:538:CA:9832, V-B:LEU:363:CD1:8161, V-B:TYR:531:CZ:9766, H-A:GLU:543:OE1:4907, V-B:TYR:539:CD1:9845, V-A:ASN:362:CB:3174, V-A:PRO:540:CB:4883, H-A:ARG:545:NH2:4926, H-B:TYR:539:OH:9850, H-A:TYR:539:OH:4876, V-A:PRO:540:C:4879, V-A:LEU:363:CA:3183, V-B:LEU:363:CA:8157, H-B:TYR:539:N:9842, V-B:PRO:540:CG:9858, V-A:ASN:362:C:3170, V-A:ALA:541:C:4886, V-B:GLY:454:CA:9021, V-A:ALA:541:CA:4888, H-A:ASN:362:ND2:3177, H-A:ALA:541:O:4887"]

$$$$
RR24_Rahimova_2017-again1
     RDKit          3D

 63 69  0  0  0  0  0  0  0  0999 V2000
  127.6600  131.9240   59.4400 C   0  0  0  0  0  0  0  0  0  0  0  0
  127.9290  131.8830   57.9300 C   0  0  2  0  0  0  0  0  0  0  0  0
  127.1280  130.7720   57.1900 C   0  0  0  0  0  0  0  0  0  0  0  0
  125.8920  130.7290   57.2150 O   0  0  0  0  0  0  0  0  0  0  0  0
  127.9370  129.8730   56.5570 O   0  0  0  0  0  0  0  0  0  0  0  0
  127.9810  128.5700   56.9960 C   0  0  0  0  0  0  0  0  0  0  0  0
  128.7340  127.6300   56.2910 C   0  0  0  0  0  0  0  0  0  0  0  0
  128.8000  126.3150   56.7390 C   0  0  0  0  0  0  0  0  0  0  0  0
  128.1190  125.9330   57.9000 C   0  0  0  0  0  0  0  0  0  0  0  0
  128.1880  124.4820   58.3990 C   0  0  1  0  0  0  0  0  0  0  0  0
  129.5680  124.1660   59.0210 C   0  0  0  0  0  0  0  0  0  0  0  0
  130.8130  124.1280   58.4970 C   0  0  0  0  0  0  0  0  0  0  0  0
  131.0990  124.3330   57.2570 O   0  0  0  0  0  0  0  0  0  0  0  0
  131.7950  123.8480   59.5440 C   0  0  0  0  0  0  0  0  0  0  0  0
  133.1900  123.7200   59.5210 C   0  0  0  0  0  0  0  0  0  0  0  0
  133.8770  123.4510   60.7060 C   0  0  0  0  0  0  0  0  0  0  0  0
  133.1750  123.3080   61.9050 C   0  0  0  0  0  0  0  0  0  0  0  0
  131.7850  123.4350   61.9220 C   0  0  0  0  0  0  0  0  0  0  0  0
  131.1000  123.7080   60.7360 C   0  0  0  0  0  0  0  0  0  0  0  0
  129.6880  123.8740   60.4400 C   0  0  0  0  0  0  0  0  0  0  0  0
  128.6700  123.7870   61.2110 N   0  0  0  0  0  0  0  0  0  0  0  0
  127.3970  123.8540   60.7270 C   0  0  0  0  0  0  0  0  0  0  0  0
  126.4500  123.5780   61.6700 N   0  0  0  0  0  0  0  0  0  0  0  0
  125.2070  123.6250   61.3470 C   0  0  0  0  0  0  0  0  0  0  0  0
  124.4350  123.3610   62.2850 O   0  0  0  0  0  0  0  0  0  0  0  0
  124.7820  123.9390   60.0570 N   0  0  0  0  0  0  0  0  0  0  0  0
  123.3570  124.0020   59.6540 C   0  0  0  0  0  0  0  0  0  0  0  0
  125.6690  124.2150   59.0340 C   0  0  0  0  0  0  0  0  0  0  0  0
  125.3370  124.4740   57.8730 O   0  0  0  0  0  0  0  0  0  0  0  0
  127.0800  124.1680   59.4320 C   0  0  0  0  0  0  0  0  0  0  0  0
  127.3750  126.8790   58.6110 C   0  0  0  0  0  0  0  0  0  0  0  0
  127.3110  128.1960   58.1640 C   0  0  0  0  0  0  0  0  0  0  0  0
  129.3890  131.8290   57.6230 N   0  0  0  0  0  0  0  0  0  0  0  0
  130.2890  131.3390   58.5210 C   0  0  0  0  0  0  0  0  0  0  0  0
  130.0590  130.8980   59.6480 O   0  0  0  0  0  0  0  0  0  0  0  0
  131.6110  131.4490   57.8540 C   0  0  0  0  0  0  0  0  0  0  0  0
  132.8900  131.1060   58.2970 C   0  0  0  0  0  0  0  0  0  0  0  0
  133.9750  131.3240   57.4410 C   0  0  0  0  0  0  0  0  0  0  0  0
  133.7730  131.8740   56.1690 C   0  0  0  0  0  0  0  0  0  0  0  0
  132.4830  132.2100   55.7430 C   0  0  0  0  0  0  0  0  0  0  0  0
  131.4140  131.9870   56.6120 C   0  0  0  0  0  0  0  0  0  0  0  0
  129.9590  132.2340   56.4470 C   0  0  0  0  0  0  0  0  0  0  0  0
  129.3890  132.7010   55.4610 O   0  0  0  0  0  0  0  0  0  0  0  0
  128.6047  131.7800   59.9848 H   0  0  0  0  0  0  0  0  0  0  0  0
  127.2265  132.8986   59.7089 H   0  0  0  0  0  0  0  0  0  0  0  0
  126.9559  131.1228   59.7089 H   0  0  0  0  0  0  0  0  0  0  0  0
  127.5496  132.8352   57.5308 H   0  0  0  0  0  0  0  0  0  0  0  0
  129.2752  127.9291   55.3812 H   0  0  0  0  0  0  0  0  0  0  0  0
  129.3890  125.5735   56.1792 H   0  0  0  0  0  0  0  0  0  0  0  0
  128.0324  123.8450   57.5158 H   0  0  0  0  0  0  0  0  0  0  0  0
  133.7404  123.8308   58.5751 H   0  0  0  0  0  0  0  0  0  0  0  0
  134.9724  123.3515   60.6955 H   0  0  0  0  0  0  0  0  0  0  0  0
  133.7184  123.0950   62.8374 H   0  0  0  0  0  0  0  0  0  0  0  0
  131.2315  123.3205   62.8657 H   0  0  0  0  0  0  0  0  0  0  0  0
  122.7228  124.0300   60.5523 H   0  0  0  0  0  0  0  0  0  0  0  0
  123.1850  124.9086   59.0553 H   0  0  0  0  0  0  0  0  0  0  0  0
  123.1057  123.1141   59.0553 H   0  0  0  0  0  0  0  0  0  0  0  0
  126.8394  126.5825   59.5249 H   0  0  0  0  0  0  0  0  0  0  0  0
  126.7334  128.9417   58.7299 H   0  0  0  0  0  0  0  0  0  0  0  0
  133.0412  130.6738   59.2972 H   0  0  0  0  0  0  0  0  0  0  0  0
  134.9918  131.0621   57.7688 H   0  0  0  0  0  0  0  0  0  0  0  0
  134.6315  132.0425   55.5023 H   0  0  0  0  0  0  0  0  0  0  0  0
  132.3152  132.6406   54.7448 H   0  0  0  0  0  0  0  0  0  0  0  0
  1  2  1  0
  2  3  1  0
  3  4  2  0
  3  5  1  0
  5  6  1  0
  6  7  2  0
  7  8  1  0
  8  9  2  0
  9 10  1  0
 10 11  1  0
 11 12  2  0
 12 13  1  0
 12 14  1  0
 14 15  2  0
 15 16  1  0
 16 17  2  0
 17 18  1  0
 18 19  2  0
 19 20  1  0
 20 21  2  0
 21 22  1  0
 22 23  1  0
 23 24  2  0
 24 25  1  0
 24 26  1  0
 26 27  1  0
 26 28  1  0
 28 29  2  0
 28 30  1  0
  9 31  1  0
 31 32  2  0
  2 33  1  0
 33 34  1  0
 34 35  2  0
 34 36  1  0
 36 37  2  0
 37 38  1  0
 38 39  2  0
 39 40  1  0
 40 41  2  0
 41 42  1  0
 42 43  2  0
 32  6  1  0
 42 33  1  0
 30 10  1  0
 41 36  1  0
 20 11  1  0
 30 22  2  0
 19 14  1  0
  1 44  1  0
  1 45  1  0
  1 46  1  0
  2 47  1  6
  7 48  1  0
  8 49  1  0
 10 50  1  6
 15 51  1  0
 16 52  1  0
 17 53  1  0
 18 54  1  0
 27 55  1  0
 27 56  1  0
 27 57  1  0
 31 58  1  0
 32 59  1  0
 37 60  1  0
 38 61  1  0
 39 62  1  0
 40 63  1  0
M  CHG  2  13  -1  25  -1
M  END
>  <Binding energies>  (1) 
[-9.55]

>  <Ligand effiencies>  (1) 
[-0.22209302325581398]

>  <Interactions>  (1) 
["V-A:ILE:538:CG2:4861, V-A:PRO:540:CD:4885, V-B:ASP:366:CG:8185, V-A:PRO:540:N:4882, H-B:TYR:531:OH:9767, V-B:PRO:540:CA:9855, H-B:ALA:541:N:9863, V-B:ASN:362:CB:8148, V-A:ILE:538:CB:4860, V-A:ILE:538:CA:4858, V-A:TYR:531:CZ:4792, V-A:ILE:369:CD1:3237, V-B:TYR:539:CE2:9848, V-A:TYR:539:CD2:4872, V-B:PRO:540:CB:9857, V-A:TYR:539:CE2:4874, V-A:TYR:539:CZ:4875, V-A:PRO:540:CA:4881, V-B:TYR:539:CZ:9849, H-B:ARG:545:NH2:9900, V-B:PRO:540:C:9853, V-A:PRO:540:CB:4883, V-A:LEU:363:CD1:3187, V-A:TYR:539:C:4865, V-A:TYR:539:CG:4870, V-A:TYR:531:CE2:4791, H-B:TYR:539:OH:9850, H-A:TYR:539:OH:4876, H-A:TYR:539:N:4868, V-A:LEU:363:CB:3185, V-A:LEU:363:CA:3183, V-B:LEU:363:CA:8157, V-B:ASN:362:C:8144, H-B:ASN:362:ND2:8151, V-A:TYR:539:CA:4867"]

$$$$
RR25_Rahimova_2017
     RDKit          3D

 63 68  0  0  0  0  0  0  0  0999 V2000
  131.3670  125.9030   55.1020 O   0  0  0  0  0  0  0  0  0  0  0  0
  131.3670  125.5790   56.2900 C   0  0  0  0  0  0  0  0  0  0  0  0
  132.3770  124.7390   56.6910 O   0  0  0  0  0  0  0  0  0  0  0  0
  132.6320  124.5050   58.0300 C   0  0  0  0  0  0  0  0  0  0  0  0
  133.9330  124.1310   58.3640 C   0  0  0  0  0  0  0  0  0  0  0  0
  134.2580  123.8710   59.6930 C   0  0  0  0  0  0  0  0  0  0  0  0
  133.2910  123.9770   60.7040 C   0  0  0  0  0  0  0  0  0  0  0  0
  133.6420  123.7070   62.1200 N   0  0  0  0  0  0  0  0  0  0  0  0
  134.0500  124.6370   62.8120 O   0  0  0  0  0  0  0  0  0  0  0  0
  133.5140  122.5650   62.5500 O   0  0  0  0  0  0  0  0  0  0  0  0
  131.9840  124.3420   60.3450 C   0  0  0  0  0  0  0  0  0  0  0  0
  131.6390  124.5990   59.0150 C   0  0  0  0  0  0  0  0  0  0  0  0
  130.2440  125.0080   58.5780 C   0  0  0  0  0  0  0  0  0  0  0  0
  130.3400  125.9980   57.3820 C   0  0  2  0  0  0  0  0  0  0  0  0
  128.9260  126.3630   56.8430 C   0  0  0  0  0  0  0  0  0  0  0  0
  127.9910  125.6730   57.2600 O   0  0  0  0  0  0  0  0  0  0  0  0
  128.7090  127.4590   56.0550 N   0  0  0  0  0  0  0  0  0  0  0  0
  129.7850  128.1200   55.2870 C   0  0  0  0  0  0  0  0  0  0  0  0
  129.5420  129.6430   55.2910 C   0  0  0  0  0  0  0  0  0  0  0  0
  128.2040  129.9730   54.7930 N   0  0  0  0  0  0  0  0  0  0  0  0
  128.0180  131.4250   54.6700 C   0  0  0  0  0  0  0  0  0  0  0  0
  129.3310  132.2220   54.8940 C   0  0  0  0  0  0  0  0  0  0  0  0
  129.9990  132.0270   56.2140 N   0  0  0  0  0  0  0  0  0  0  0  0
  129.1570  132.0200   57.3050 C   0  0  0  0  0  0  0  0  0  0  0  0
  127.9360  132.1980   57.2190 O   0  0  0  0  0  0  0  0  0  0  0  0
  129.8430  131.7550   58.6310 C   0  0  0  0  0  0  0  0  0  0  0  0
  129.0770  131.7000   59.8030 C   0  0  0  0  0  0  0  0  0  0  0  0
  129.6740  131.4500   61.0380 C   0  0  0  0  0  0  0  0  0  0  0  0
  131.0490  131.2450   61.1410 C   0  0  0  0  0  0  0  0  0  0  0  0
  131.8630  131.2920   59.9840 C   0  0  0  0  0  0  0  0  0  0  0  0
  133.2630  131.0910   60.0160 C   0  0  0  0  0  0  0  0  0  0  0  0
  134.0050  131.1470   58.8380 C   0  0  0  0  0  0  0  0  0  0  0  0
  133.3890  131.4010   57.6150 C   0  0  0  0  0  0  0  0  0  0  0  0
  132.0050  131.6050   57.5340 C   0  0  0  0  0  0  0  0  0  0  0  0
  131.2430  131.5490   58.7290 C   0  0  0  0  0  0  0  0  0  0  0  0
  131.3700  131.8700   56.1830 C   0  0  0  0  0  0  0  0  0  0  0  0
  132.0370  131.9220   55.1440 O   0  0  0  0  0  0  0  0  0  0  0  0
  127.1890  129.3700   55.6580 C   0  0  0  0  0  0  0  0  0  0  0  0
  127.3190  127.8280   55.7020 C   0  0  0  0  0  0  0  0  0  0  0  0
  134.7000  124.0416   57.5806 H   0  0  0  0  0  0  0  0  0  0  0  0
  135.2860  123.5788   59.9534 H   0  0  0  0  0  0  0  0  0  0  0  0
  131.2150  124.4276   61.1268 H   0  0  0  0  0  0  0  0  0  0  0  0
  129.6807  124.1150   58.2695 H   0  0  0  0  0  0  0  0  0  0  0  0
  129.7279  125.4980   59.4168 H   0  0  0  0  0  0  0  0  0  0  0  0
  130.7719  126.9322   57.7703 H   0  0  0  0  0  0  0  0  0  0  0  0
  130.7578  127.9005   55.7513 H   0  0  0  0  0  0  0  0  0  0  0  0
  129.7863  127.7466   54.2523 H   0  0  0  0  0  0  0  0  0  0  0  0
  129.6435  130.0188   56.3198 H   0  0  0  0  0  0  0  0  0  0  0  0
  130.2834  130.1133   54.6283 H   0  0  0  0  0  0  0  0  0  0  0  0
  127.6405  131.6465   53.6608 H   0  0  0  0  0  0  0  0  0  0  0  0
  127.3063  131.7344   55.4496 H   0  0  0  0  0  0  0  0  0  0  0  0
  130.0428  131.9248   54.1097 H   0  0  0  0  0  0  0  0  0  0  0  0
  129.0423  133.2830   54.8623 H   0  0  0  0  0  0  0  0  0  0  0  0
  127.9895  131.8562   59.7480 H   0  0  0  0  0  0  0  0  0  0  0  0
  129.0511  131.4140   61.9439 H   0  0  0  0  0  0  0  0  0  0  0  0
  131.5023  131.0463   62.1234 H   0  0  0  0  0  0  0  0  0  0  0  0
  133.7669  130.8901   60.9730 H   0  0  0  0  0  0  0  0  0  0  0  0
  135.0929  130.9883   58.8745 H   0  0  0  0  0  0  0  0  0  0  0  0
  133.9976  131.4421   56.6996 H   0  0  0  0  0  0  0  0  0  0  0  0
  127.3070  129.7672   56.6770 H   0  0  0  0  0  0  0  0  0  0  0  0
  126.1982  129.6197   55.2507 H   0  0  0  0  0  0  0  0  0  0  0  0
  126.6293  127.4234   56.4574 H   0  0  0  0  0  0  0  0  0  0  0  0
  127.0685  127.4109   54.7154 H   0  0  0  0  0  0  0  0  0  0  0  0
  1  2  2  0
  2  3  1  0
  3  4  1  0
  4  5  2  0
  5  6  1  0
  6  7  2  0
  7  8  1  0
  8  9  2  0
  8 10  1  0
  7 11  1  0
 11 12  2  0
 12 13  1  0
 13 14  1  0
 14 15  1  0
 15 16  2  0
 15 17  1  0
 17 18  1  0
 18 19  1  0
 19 20  1  0
 20 21  1  0
 21 22  1  0
 22 23  1  0
 23 24  1  0
 24 25  2  0
 24 26  1  0
 26 27  2  0
 27 28  1  0
 28 29  2  0
 29 30  1  0
 30 31  2  0
 31 32  1  0
 32 33  2  0
 33 34  1  0
 34 35  2  0
 34 36  1  0
 36 37  2  0
 20 38  1  0
 38 39  1  0
 14  2  1  0
 39 17  1  0
 12  4  1  0
 36 23  1  0
 35 26  1  0
 35 30  1  0
  5 40  1  0
  6 41  1  0
 11 42  1  0
 13 43  1  0
 13 44  1  0
 14 45  1  1
 18 46  1  0
 18 47  1  0
 19 48  1  0
 19 49  1  0
 21 50  1  0
 21 51  1  0
 22 52  1  0
 22 53  1  0
 27 54  1  0
 28 55  1  0
 29 56  1  0
 31 57  1  0
 32 58  1  0
 33 59  1  0
 38 60  1  0
 38 61  1  0
 39 62  1  0
 39 63  1  0
M  CHG  2   8   1  10  -1
M  END
>  <Binding energies>  (1) 
[-11.13]

>  <Ligand effiencies>  (1) 
[-0.2853846153846154]

>  <Interactions>  (1) 
["V-A:PRO:540:CD:4885, V-A:PRO:540:N:4882, V-A:ILE:369:CG2:3235, V-A:ILE:538:CB:4860, V-A:ILE:538:CA:4858, V-A:ILE:369:CD1:3237, V-B:TYR:539:CE2:9848, V-A:ASP:366:CG:3211, H-A:TYR:531:OH:4793, V-A:TYR:539:CD2:4872, V-A:ASP:366:CB:3210, V-A:TYR:539:CZ:4875, V-A:PRO:540:CA:4881, V-B:TYR:539:CZ:9849, H-A:GLY:454:N:4048, V-A:ASN:362:CB:3174, V-A:PRO:540:CB:4883, V-A:TYR:539:C:4865, V-A:TYR:539:CG:4870, V-A:TYR:539:CE1:4873, V-A:TYR:539:CD1:4871, H-B:TYR:539:OH:9850, V-A:ILE:369:CB:3234, V-A:PRO:540:C:4879, V-A:GLY:454:CA:4047, V-A:LEU:363:CB:3185, V-A:LEU:363:CA:3183, V-A:ASP:366:CA:3208, V-A:ILE:538:C:4856, V-A:ASN:362:C:3170, H-A:ARG:545:NH1:4925, V-A:ASP:366:C:3206"]

$$$$
RR26_Rahimova_2017
     RDKit          3D

 59 65  0  0  0  0  0  0  0  0999 V2000
  124.6550  131.7830   59.9230 C   0  0  0  0  0  0  0  0  0  0  0  0
  125.6460  132.8830   60.2850 C   0  0  0  0  0  0  0  0  0  0  0  0
  125.1440  134.1480   60.6090 C   0  0  0  0  0  0  0  0  0  0  0  0
  126.0010  135.1790   60.9860 C   0  0  0  0  0  0  0  0  0  0  0  0
  127.3720  134.9520   61.0490 C   0  0  0  0  0  0  0  0  0  0  0  0
  127.8850  133.6970   60.7290 C   0  0  0  0  0  0  0  0  0  0  0  0
  127.0380  132.6480   60.3390 C   0  0  0  0  0  0  0  0  0  0  0  0
  127.6740  131.3320   59.9970 C   0  0  0  0  0  0  0  0  0  0  0  0
  127.7390  130.3260   60.8650 N   0  0  0  0  0  0  0  0  0  0  0  0
  128.3410  129.4030   60.1650 C   0  0  0  0  0  0  0  0  0  0  0  0
  128.8620  127.7820   60.4430 S   0  0  0  0  0  0  0  0  0  0  0  0
  129.4830  127.7160   58.7510 C   0  0  0  0  0  0  0  0  0  0  0  0
  130.1010  126.6830   58.1360 C   0  0  0  0  0  0  0  0  0  0  0  0
  130.4120  125.3720   58.6820 C   0  0  0  0  0  0  0  0  0  0  0  0
  131.6210  124.9180   59.1870 C   0  0  0  0  0  0  0  0  0  0  0  0
  131.4380  123.6320   59.6290 N   0  0  0  0  0  0  0  0  0  0  0  0
  132.3890  122.7670   60.2280 C   0  0  0  0  0  0  0  0  0  0  0  0
  133.2830  123.2440   61.1980 C   0  0  0  0  0  0  0  0  0  0  0  0
  134.2140  122.3840   61.7760 C   0  0  0  0  0  0  0  0  0  0  0  0
  134.2510  121.0470   61.3900 C   0  0  0  0  0  0  0  0  0  0  0  0
  133.3670  120.5600   60.4300 C   0  0  0  0  0  0  0  0  0  0  0  0
  132.4370  121.4170   59.8490 C   0  0  0  0  0  0  0  0  0  0  0  0
  130.1620  123.2570   59.4530 N   0  0  0  0  0  0  0  0  0  0  0  0
  129.5440  124.2760   58.8880 C   0  0  0  0  0  0  0  0  0  0  0  0
  128.0890  124.1700   58.5480 C   0  0  0  0  0  0  0  0  0  0  0  0
  127.1130  124.5950   59.4620 C   0  0  0  0  0  0  0  0  0  0  0  0
  125.7550  124.4970   59.1560 C   0  0  0  0  0  0  0  0  0  0  0  0
  125.3610  123.9700   57.9280 C   0  0  0  0  0  0  0  0  0  0  0  0
  126.3270  123.5580   56.9980 C   0  0  0  0  0  0  0  0  0  0  0  0
  127.6830  123.6520   57.3090 C   0  0  0  0  0  0  0  0  0  0  0  0
  125.9830  122.9890   55.7880 O   0  0  0  0  0  0  0  0  0  0  0  0
  124.6370  123.2540   55.3790 C   0  0  0  0  0  0  0  0  0  0  0  0
  123.6610  123.0650   56.5650 C   0  0  0  0  0  0  0  0  0  0  0  0
  124.0100  123.9360   57.6470 O   0  0  0  0  0  0  0  0  0  0  0  0
  129.2670  128.9680   58.0310 C   0  0  0  0  0  0  0  0  0  0  0  0
  129.5700  129.2610   56.8740 O   0  0  0  0  0  0  0  0  0  0  0  0
  128.6190  129.8370   58.9230 N   0  0  0  0  0  0  0  0  0  0  0  0
  128.1830  131.0940   58.7980 N   0  0  0  0  0  0  0  0  0  0  0  0
  124.2517  131.3354   60.8433 H   0  0  0  0  0  0  0  0  0  0  0  0
  123.8317  132.2110   59.3322 H   0  0  0  0  0  0  0  0  0  0  0  0
  125.1663  131.0087   59.3322 H   0  0  0  0  0  0  0  0  0  0  0  0
  124.0601  134.3304   60.5655 H   0  0  0  0  0  0  0  0  0  0  0  0
  125.5946  136.1708   61.2334 H   0  0  0  0  0  0  0  0  0  0  0  0
  128.0507  135.7631   61.3514 H   0  0  0  0  0  0  0  0  0  0  0  0
  128.9702  133.5256   60.7828 H   0  0  0  0  0  0  0  0  0  0  0  0
  130.4064  126.8557   57.0934 H   0  0  0  0  0  0  0  0  0  0  0  0
  132.5609  125.4882   59.2263 H   0  0  0  0  0  0  0  0  0  0  0  0
  133.2488  124.3003   61.5031 H   0  0  0  0  0  0  0  0  0  0  0  0
  134.9169  122.7597   62.5341 H   0  0  0  0  0  0  0  0  0  0  0  0
  134.9857  120.3683   61.8477 H   0  0  0  0  0  0  0  0  0  0  0  0
  133.4038  119.5017   60.1321 H   0  0  0  0  0  0  0  0  0  0  0  0
  131.7378  121.0349   59.0907 H   0  0  0  0  0  0  0  0  0  0  0  0
  127.4223  125.0108   60.4323 H   0  0  0  0  0  0  0  0  0  0  0  0
  124.9994  124.8342   59.8808 H   0  0  0  0  0  0  0  0  0  0  0  0
  128.4369  123.3189   56.5805 H   0  0  0  0  0  0  0  0  0  0  0  0
  124.5670  124.2895   55.0145 H   0  0  0  0  0  0  0  0  0  0  0  0
  124.3640  122.5501   54.5790 H   0  0  0  0  0  0  0  0  0  0  0  0
  122.6380  123.2941   56.2317 H   0  0  0  0  0  0  0  0  0  0  0  0
  123.7227  122.0234   56.9133 H   0  0  0  0  0  0  0  0  0  0  0  0
  1  2  1  0
  2  3  2  0
  3  4  1  0
  4  5  2  0
  5  6  1  0
  6  7  2  0
  7  8  1  0
  8  9  1  0
  9 10  2  0
 10 11  1  0
 11 12  1  0
 12 13  2  0
 13 14  1  0
 14 15  2  0
 15 16  1  0
 16 17  1  0
 17 18  2  0
 18 19  1  0
 19 20  2  0
 20 21  1  0
 21 22  2  0
 16 23  1  0
 23 24  2  0
 24 25  1  0
 25 26  2  0
 26 27  1  0
 27 28  2  0
 28 29  1  0
 29 30  2  0
 29 31  1  0
 31 32  1  0
 32 33  1  0
 33 34  1  0
 12 35  1  0
 35 36  2  0
 35 37  1  0
 37 38  1  0
  7  2  1  0
 38  8  2  0
 37 10  1  0
 24 14  1  0
 30 25  1  0
 22 17  1  0
 34 28  1  0
  1 39  1  0
  1 40  1  0
  1 41  1  0
  3 42  1  0
  4 43  1  0
  5 44  1  0
  6 45  1  0
 13 46  1  0
 15 47  1  0
 18 48  1  0
 19 49  1  0
 20 50  1  0
 21 51  1  0
 22 52  1  0
 26 53  1  0
 27 54  1  0
 30 55  1  0
 32 56  1  0
 32 57  1  0
 33 58  1  0
 33 59  1  0
M  END
>  <Binding energies>  (1) 
[-8.83]

>  <Ligand effiencies>  (1) 
[-0.23236842105263159]

>  <Interactions>  (1) 
["V-B:TYR:539:CD2:9846, H-B:TYR:531:OH:9767, V-B:PRO:540:CA:9855, V-A:LEU:475:CD2:4257, V-A:ILE:369:CG2:3235, V-A:TRP:381:CH2:3370, V-A:ILE:369:CD1:3237, V-B:TYR:539:CE2:9848, V-B:PRO:540:N:9856, V-B:ILE:538:CB:9834, V-A:ASP:366:CG:3211, H-A:TYR:531:OH:4793, V-A:TYR:539:CD2:4872, V-B:TYR:531:CE2:9765, V-B:PRO:540:CD:9859, V-B:PRO:540:CB:9857, V-B:ILE:369:CG2:8209, V-B:LEU:475:CD2:9231, V-A:TYR:539:CE2:4874, V-B:ILE:538:CG2:9835, V-B:TRP:381:CH2:8344, V-B:TRP:381:CZ2:8342, V-A:ALA:541:CB:4890, V-B:ILE:538:CA:9832, V-B:TYR:539:C:9839, V-B:LEU:363:CD1:8161, V-B:TYR:531:CZ:9766, V-A:TYR:539:C:4865, V-A:GLY:454:CA:4047, H-B:TYR:539:N:9842, V-B:PRO:540:CG:9858, V-A:GLY:453:C:4040, V-A:SER:385:C:3403"]

$$$$
RR27_Rahimova_2017
     RDKit          3D

 66 71  0  0  0  0  0  0  0  0999 V2000
  126.6770  129.7440   58.8730 O   0  0  0  0  0  0  0  0  0  0  0  0
  127.5470  129.8520   59.7420 C   0  0  0  0  0  0  0  0  0  0  0  0
  128.2700  131.2210   59.8970 C   0  0  0  0  0  0  0  0  0  0  0  0
  127.3190  132.3660   60.2910 C   0  0  0  0  0  0  0  0  0  0  0  0
  125.9240  132.2120   60.2670 C   0  0  0  0  0  0  0  0  0  0  0  0
  125.0930  133.2670   60.6320 C   0  0  0  0  0  0  0  0  0  0  0  0
  125.6520  134.4810   61.0230 C   0  0  0  0  0  0  0  0  0  0  0  0
  127.0330  134.6500   61.0500 C   0  0  0  0  0  0  0  0  0  0  0  0
  127.8640  133.5950   60.6850 C   0  0  0  0  0  0  0  0  0  0  0  0
  129.1860  131.5230   58.6950 C   0  0  0  0  0  0  0  0  0  0  0  0
  128.6780  132.0310   57.4910 C   0  0  0  0  0  0  0  0  0  0  0  0
  129.5330  132.2820   56.4200 C   0  0  0  0  0  0  0  0  0  0  0  0
  130.8940  132.0220   56.5460 C   0  0  0  0  0  0  0  0  0  0  0  0
  131.4100  131.5070   57.7330 C   0  0  0  0  0  0  0  0  0  0  0  0
  130.5560  131.2560   58.8020 C   0  0  0  0  0  0  0  0  0  0  0  0
  127.7770  128.8620   60.6520 N   0  0  0  0  0  0  0  0  0  0  0  0
  128.9530  128.8280   61.5340 C   0  0  0  0  0  0  0  0  0  0  0  0
  130.0770  128.1110   60.7540 C   0  0  0  0  0  0  0  0  0  0  0  0
  129.6510  126.6990   60.2410 C   0  0  0  0  0  0  0  0  0  0  0  0
  130.6960  125.9890   59.3610 C   0  0  0  0  0  0  0  0  0  0  0  0
  130.6650  126.2790   58.0280 N   0  0  0  0  0  0  0  0  0  0  0  0
  131.5860  125.6980   57.2090 C   0  0  0  0  0  0  0  0  0  0  0  0
  131.6590  125.9140   55.8580 O   0  0  0  0  0  0  0  0  0  0  0  0
  132.5310  124.8190   57.7720 C   0  0  0  0  0  0  0  0  0  0  0  0
  133.5650  124.0930   57.2570 N   0  0  0  0  0  0  0  0  0  0  0  0
  134.1430  123.4010   58.3050 N   0  0  0  0  0  0  0  0  0  0  0  0
  133.4830  123.7020   59.4430 N   0  0  0  0  0  0  0  0  0  0  0  0
  133.8710  123.0870   60.7100 C   0  0  0  0  0  0  0  0  0  0  0  0
  132.8100  123.2010   61.7960 C   0  0  0  0  0  0  0  0  0  0  0  0
  131.7410  122.3000   61.8340 C   0  0  0  0  0  0  0  0  0  0  0  0
  130.7750  122.3980   62.8360 C   0  0  0  0  0  0  0  0  0  0  0  0
  130.8740  123.3930   63.8080 C   0  0  0  0  0  0  0  0  0  0  0  0
  131.9440  124.2890   63.7820 C   0  0  0  0  0  0  0  0  0  0  0  0
  132.0840  125.5050   64.9990 Cl  0  0  0  0  0  0  0  0  0  0  0  0
  132.9060  124.1960   62.7750 C   0  0  0  0  0  0  0  0  0  0  0  0
  132.4560  124.5880   59.1630 C   0  0  0  0  0  0  0  0  0  0  0  0
  131.5600  125.1380   59.9860 N   0  0  0  0  0  0  0  0  0  0  0  0
  128.2230  126.7140   59.6140 C   0  0  0  0  0  0  0  0  0  0  0  0
  127.1990  127.5240   60.4490 C   0  0  0  0  0  0  0  0  0  0  0  0
  128.9459  131.1382   60.7609 H   0  0  0  0  0  0  0  0  0  0  0  0
  125.4851  131.2519   59.9579 H   0  0  0  0  0  0  0  0  0  0  0  0
  124.0003  133.1425   60.6117 H   0  0  0  0  0  0  0  0  0  0  0  0
  124.9955  135.3145   61.3133 H   0  0  0  0  0  0  0  0  0  0  0  0
  127.4658  135.6131   61.3584 H   0  0  0  0  0  0  0  0  0  0  0  0
  128.9559  133.7270   60.7060 H   0  0  0  0  0  0  0  0  0  0  0  0
  127.6011  132.2320   57.3917 H   0  0  0  0  0  0  0  0  0  0  0  0
  129.1332  132.6845   55.4776 H   0  0  0  0  0  0  0  0  0  0  0  0
  131.5684  132.2249   55.7010 H   0  0  0  0  0  0  0  0  0  0  0  0
  132.4865  131.3000   57.8245 H   0  0  0  0  0  0  0  0  0  0  0  0
  130.9603  130.8446   59.7386 H   0  0  0  0  0  0  0  0  0  0  0  0
  129.2637  129.8517   61.7901 H   0  0  0  0  0  0  0  0  0  0  0  0
  128.7266  128.3010   62.4726 H   0  0  0  0  0  0  0  0  0  0  0  0
  130.3547  128.7305   59.8885 H   0  0  0  0  0  0  0  0  0  0  0  0
  130.9224  127.9719   61.4438 H   0  0  0  0  0  0  0  0  0  0  0  0
  129.6009  126.0677   61.1404 H   0  0  0  0  0  0  0  0  0  0  0  0
  132.0830  125.1920   55.3900 H   0  0  0  0  0  0  0  0  0  0  0  0
  134.0717  122.0203   60.5312 H   0  0  0  0  0  0  0  0  0  0  0  0
  134.7592  123.6265   61.0705 H   0  0  0  0  0  0  0  0  0  0  0  0
  131.6615  121.5114   61.0713 H   0  0  0  0  0  0  0  0  0  0  0  0
  129.9340  121.6893   62.8593 H   0  0  0  0  0  0  0  0  0  0  0  0
  130.1093  123.4717   64.5948 H   0  0  0  0  0  0  0  0  0  0  0  0
  133.7437  124.9085   62.7509 H   0  0  0  0  0  0  0  0  0  0  0  0
  128.2864  127.1596   58.6103 H   0  0  0  0  0  0  0  0  0  0  0  0
  127.8687  125.6731   59.5819 H   0  0  0  0  0  0  0  0  0  0  0  0
  126.2455  127.6021   59.9062 H   0  0  0  0  0  0  0  0  0  0  0  0
  126.9981  127.0314   61.4118 H   0  0  0  0  0  0  0  0  0  0  0  0
  1  2  2  0
  2  3  1  0
  3  4  1  0
  4  5  2  0
  5  6  1  0
  6  7  2  0
  7  8  1  0
  8  9  2  0
  3 10  1  0
 10 11  2  0
 11 12  1  0
 12 13  2  0
 13 14  1  0
 14 15  2  0
  2 16  1  0
 16 17  1  0
 17 18  1  0
 18 19  1  0
 19 20  1  0
 20 21  2  0
 21 22  1  0
 22 23  1  0
 22 24  2  0
 24 25  1  0
 25 26  2  0
 26 27  1  0
 27 28  1  0
 28 29  1  0
 29 30  2  0
 30 31  1  0
 31 32  2  0
 32 33  1  0
 33 34  1  0
 33 35  2  0
 27 36  1  0
 36 37  2  0
 19 38  1  0
 38 39  1  0
  9  4  1  0
 15 10  1  0
 39 16  1  0
 37 20  1  0
 36 24  1  0
 35 29  1  0
  3 40  1  0
  5 41  1  0
  6 42  1  0
  7 43  1  0
  8 44  1  0
  9 45  1  0
 11 46  1  0
 12 47  1  0
 13 48  1  0
 14 49  1  0
 15 50  1  0
 17 51  1  0
 17 52  1  0
 18 53  1  0
 18 54  1  0
 19 55  1  0
 23 56  1  0
 28 57  1  0
 28 58  1  0
 30 59  1  0
 31 60  1  0
 32 61  1  0
 35 62  1  0
 38 63  1  0
 38 64  1  0
 39 65  1  0
 39 66  1  0
M  END
>  <Binding energies>  (1) 
[-10.6]

>  <Ligand effiencies>  (1) 
[-0.265]

>  <Interactions>  (1) 
["V-A:PRO:540:CD:4885, V-A:PRO:540:N:4882, V-A:LEU:475:CD2:4257, V-A:ILE:369:CG2:3235, V-B:ALA:541:CB:9864, V-A:ILE:369:CD1:3237, V-B:TYR:539:CE2:9848, V-A:ASP:366:CG:3211, H-A:TYR:531:OH:4793, V-A:TYR:539:CD2:4872, V-A:ASP:366:CB:3210, V-B:LEU:475:CD2:9231, V-A:TYR:539:CE2:4874, V-A:TYR:539:CZ:4875, V-B:TRP:381:CH2:8344, V-A:PRO:540:CA:4881, V-B:TYR:539:CZ:9849, V-A:ALA:541:CB:4890, V-A:GLU:543:CD:4906, V-A:HIS:456:CE1:4068, V-A:ARG:545:CZ:4924, V-A:PRO:540:CB:4883, V-A:TYR:539:C:4865, V-A:TYR:539:CG:4870, V-A:TYR:539:CD1:4871, H-B:TYR:539:OH:9850, V-A:ARG:545:CD:4921, V-A:TYR:539:CA:4867"]

$$$$
RR27_Rahimova_2017-again1
     RDKit          3D

 66 71  0  0  0  0  0  0  0  0999 V2000
  127.1120  129.5730   58.4900 O   0  0  0  0  0  0  0  0  0  0  0  0
  127.7730  129.5960   59.5330 C   0  0  0  0  0  0  0  0  0  0  0  0
  128.6070  130.8740   59.8480 C   0  0  0  0  0  0  0  0  0  0  0  0
  127.7260  132.0650   60.2680 C   0  0  0  0  0  0  0  0  0  0  0  0
  128.2740  133.2950   60.6660 C   0  0  0  0  0  0  0  0  0  0  0  0
  127.4440  134.3490   61.0370 C   0  0  0  0  0  0  0  0  0  0  0  0
  126.0620  134.1800   61.0140 C   0  0  0  0  0  0  0  0  0  0  0  0
  125.5040  132.9680   60.6220 C   0  0  0  0  0  0  0  0  0  0  0  0
  126.3330  131.9140   60.2500 C   0  0  0  0  0  0  0  0  0  0  0  0
  129.6020  131.2080   58.7200 C   0  0  0  0  0  0  0  0  0  0  0  0
  130.9560  130.8510   58.8090 C   0  0  0  0  0  0  0  0  0  0  0  0
  131.8410  131.1820   57.7860 C   0  0  0  0  0  0  0  0  0  0  0  0
  131.3760  131.8680   56.6670 C   0  0  0  0  0  0  0  0  0  0  0  0
  130.0360  132.2290   56.5650 C   0  0  0  0  0  0  0  0  0  0  0  0
  129.1520  131.9060   57.5910 C   0  0  0  0  0  0  0  0  0  0  0  0
  127.6550  128.6080   60.4670 N   0  0  0  0  0  0  0  0  0  0  0  0
  128.5950  128.4220   61.5810 C   0  0  0  0  0  0  0  0  0  0  0  0
  129.7780  127.5720   61.0610 C   0  0  0  0  0  0  0  0  0  0  0  0
  129.3920  126.3390   60.1790 C   0  0  0  0  0  0  0  0  0  0  0  0
  130.5000  125.9110   59.2110 C   0  0  0  0  0  0  0  0  0  0  0  0
  131.4600  125.1360   59.6100 N   0  0  0  0  0  0  0  0  0  0  0  0
  132.3920  124.8260   58.6670 C   0  0  0  0  0  0  0  0  0  0  0  0
  132.4050  125.2590   57.3500 C   0  0  0  0  0  0  0  0  0  0  0  0
  133.4600  124.7760   56.7170 N   0  0  0  0  0  0  0  0  0  0  0  0
  134.1720  123.9980   57.6250 N   0  0  0  0  0  0  0  0  0  0  0  0
  133.5010  124.0290   58.7900 N   0  0  0  0  0  0  0  0  0  0  0  0
  134.0030  123.3240   59.9620 C   0  0  0  0  0  0  0  0  0  0  0  0
  132.9000  122.7780   60.8570 C   0  0  0  0  0  0  0  0  0  0  0  0
  132.6660  123.3520   62.1110 C   0  0  0  0  0  0  0  0  0  0  0  0
  131.6610  122.8470   62.9370 C   0  0  0  0  0  0  0  0  0  0  0  0
  130.8850  121.7690   62.5130 C   0  0  0  0  0  0  0  0  0  0  0  0
  131.1100  121.1960   61.2610 C   0  0  0  0  0  0  0  0  0  0  0  0
  130.1510  119.8600   60.7390 Cl  0  0  0  0  0  0  0  0  0  0  0  0
  132.1130  121.7010   60.4330 C   0  0  0  0  0  0  0  0  0  0  0  0
  131.3300  126.1280   56.8730 C   0  0  0  0  0  0  0  0  0  0  0  0
  131.1700  126.6050   55.7520 O   0  0  0  0  0  0  0  0  0  0  0  0
  130.4430  126.3750   57.9010 N   0  0  0  0  0  0  0  0  0  0  0  0
  127.9950  126.4040   59.4860 C   0  0  0  0  0  0  0  0  0  0  0  0
  126.9580  127.3580   60.1290 C   0  0  0  0  0  0  0  0  0  0  0  0
  129.2229  130.6471   60.7307 H   0  0  0  0  0  0  0  0  0  0  0  0
  129.3660  133.4264   60.6847 H   0  0  0  0  0  0  0  0  0  0  0  0
  127.8778  135.3111   61.3470 H   0  0  0  0  0  0  0  0  0  0  0  0
  125.4060  135.0124   61.3085 H   0  0  0  0  0  0  0  0  0  0  0  0
  124.4113  132.8429   60.6060 H   0  0  0  0  0  0  0  0  0  0  0  0
  125.8916  130.9554   59.9396 H   0  0  0  0  0  0  0  0  0  0  0  0
  131.3207  130.3063   59.6923 H   0  0  0  0  0  0  0  0  0  0  0  0
  132.9023  130.9029   57.8615 H   0  0  0  0  0  0  0  0  0  0  0  0
  132.0737  132.1267   55.8569 H   0  0  0  0  0  0  0  0  0  0  0  0
  129.6761  132.7681   55.6762 H   0  0  0  0  0  0  0  0  0  0  0  0
  128.0948  132.2002   57.5151 H   0  0  0  0  0  0  0  0  0  0  0  0
  128.9605  129.3991   61.9299 H   0  0  0  0  0  0  0  0  0  0  0  0
  128.0991  127.9176   62.4234 H   0  0  0  0  0  0  0  0  0  0  0  0
  130.4265  128.2270   60.4607 H   0  0  0  0  0  0  0  0  0  0  0  0
  130.2664  127.1590   61.9560 H   0  0  0  0  0  0  0  0  0  0  0  0
  129.2831  125.5374   60.9244 H   0  0  0  0  0  0  0  0  0  0  0  0
  134.6254  122.4828   59.6229 H   0  0  0  0  0  0  0  0  0  0  0  0
  134.5750  124.0505   60.5578 H   0  0  0  0  0  0  0  0  0  0  0  0
  133.2758  124.2037   62.4469 H   0  0  0  0  0  0  0  0  0  0  0  0
  131.4809  123.2997   63.9232 H   0  0  0  0  0  0  0  0  0  0  0  0
  130.0949  121.3700   63.1661 H   0  0  0  0  0  0  0  0  0  0  0  0
  132.2858  121.2514   59.4441 H   0  0  0  0  0  0  0  0  0  0  0  0
  129.6680  126.9730   57.6550 H   0  0  0  0  0  0  0  0  0  0  0  0
  128.1505  126.7284   58.4465 H   0  0  0  0  0  0  0  0  0  0  0  0
  127.5690  125.3948   59.5857 H   0  0  0  0  0  0  0  0  0  0  0  0
  126.1445  127.5625   59.4175 H   0  0  0  0  0  0  0  0  0  0  0  0
  126.5207  126.9032   61.0301 H   0  0  0  0  0  0  0  0  0  0  0  0
  1  2  2  0
  2  3  1  0
  3  4  1  0
  4  5  2  0
  5  6  1  0
  6  7  2  0
  7  8  1  0
  8  9  2  0
  3 10  1  0
 10 11  2  0
 11 12  1  0
 12 13  2  0
 13 14  1  0
 14 15  2  0
  2 16  1  0
 16 17  1  0
 17 18  1  0
 18 19  1  0
 19 20  1  0
 20 21  2  0
 21 22  1  0
 22 23  2  0
 23 24  1  0
 24 25  2  0
 25 26  1  0
 26 27  1  0
 27 28  1  0
 28 29  2  0
 29 30  1  0
 30 31  2  0
 31 32  1  0
 32 33  1  0
 32 34  2  0
 23 35  1  0
 35 36  2  0
 35 37  1  0
 19 38  1  0
 38 39  1  0
  9  4  1  0
 15 10  1  0
 39 16  1  0
 37 20  1  0
 26 22  1  0
 34 28  1  0
  3 40  1  0
  5 41  1  0
  6 42  1  0
  7 43  1  0
  8 44  1  0
  9 45  1  0
 11 46  1  0
 12 47  1  0
 13 48  1  0
 14 49  1  0
 15 50  1  0
 17 51  1  0
 17 52  1  0
 18 53  1  0
 18 54  1  0
 19 55  1  0
 27 56  1  0
 27 57  1  0
 29 58  1  0
 30 59  1  0
 31 60  1  0
 34 61  1  0
 37 62  1  0
 38 63  1  0
 38 64  1  0
 39 65  1  0
 39 66  1  0
M  END
>  <Binding energies>  (1) 
[-10.77]

>  <Ligand effiencies>  (1) 
[-0.26925]

>  <Interactions>  (1) 
["V-A:PRO:540:CD:4885, V-A:PRO:540:N:4882, V-B:TYR:539:CD2:9846, V-A:LEU:475:CD2:4257, V-A:ILE:369:CG2:3235, V-B:ALA:541:CB:9864, V-A:TRP:381:CH2:3370, V-A:ILE:369:CD1:3237, V-B:TYR:539:CE2:9848, V-A:ASP:366:CG:3211, H-A:TYR:531:OH:4793, V-A:TYR:539:CD2:4872, V-A:ASP:366:CB:3210, V-B:LEU:475:CD2:9231, V-A:TYR:539:CE2:4874, V-A:PRO:540:CA:4881, V-B:TYR:539:CZ:9849, V-A:ALA:541:CB:4890, V-A:PRO:540:CB:4883, V-A:TYR:539:C:4865, H-B:TYR:539:OH:9850, V-A:ILE:369:CB:3234, V-A:ASP:366:CA:3208, V-A:PRO:482:CB:4324, V-A:TYR:539:CA:4867"]

$$$$
RR28_Rahimova_2017
     RDKit          3D

 82 85  0  0  0  0  0  0  0  0999 V2000
  127.5000  135.8000   61.0430 C   0  0  0  0  0  0  0  0  0  0  0  0
  127.2050  134.3160   60.8560 C   0  0  0  0  0  0  0  0  0  0  0  0
  126.0420  133.9190   60.8870 O   0  0  0  0  0  0  0  0  0  0  0  0
  128.2730  133.5140   60.6650 N   0  0  0  0  0  0  0  0  0  0  0  0
  128.2930  132.0470   60.4650 C   0  0  0  0  0  0  0  0  0  0  0  0
  127.5710  131.3820   61.6730 C   0  0  0  0  0  0  0  0  0  0  0  0
  127.4340  132.0990   62.8720 C   0  0  0  0  0  0  0  0  0  0  0  0
  126.7980  131.5340   63.9730 C   0  0  0  0  0  0  0  0  0  0  0  0
  126.2850  130.2380   63.9020 C   0  0  0  0  0  0  0  0  0  0  0  0
  125.5940  129.6330   65.1230 C   0  0  0  0  0  0  0  0  0  0  0  0
  125.6310  128.2990   65.1170 F   0  0  0  0  0  0  0  0  0  0  0  0
  126.1810  130.0560   66.2430 F   0  0  0  0  0  0  0  0  0  0  0  0
  124.3170  130.0150   65.1380 F   0  0  0  0  0  0  0  0  0  0  0  0
  126.4160  129.5140   62.7140 C   0  0  0  0  0  0  0  0  0  0  0  0
  127.0530  130.0790   61.6130 C   0  0  0  0  0  0  0  0  0  0  0  0
  129.7640  131.5410   60.2520 C   0  0  0  0  0  0  0  0  0  0  0  0
  130.4080  132.0630   58.9430 C   0  0  0  0  0  0  0  0  0  0  0  0
  129.5450  131.6050   57.8420 N   0  0  0  0  0  0  0  0  0  0  0  0
  129.8170  130.4380   57.1950 C   0  0  0  0  0  0  0  0  0  0  0  0
  130.8650  129.8160   57.3810 O   0  0  0  0  0  0  0  0  0  0  0  0
  128.8600  129.9640   56.0750 C   0  0  0  0  0  0  0  0  0  0  0  0
  127.5690  129.2390   56.5460 C   0  0  0  0  0  0  0  0  0  0  0  0
  127.4970  127.7340   56.1950 C   0  0  0  0  0  0  0  0  0  0  0  0
  126.8170  127.3990   55.2210 O   0  0  0  0  0  0  0  0  0  0  0  0
  128.2790  126.8450   56.8700 N   0  0  0  0  0  0  0  0  0  0  0  0
  128.8450  127.1120   58.1970 C   0  0  0  0  0  0  0  0  0  0  0  0
  127.7600  126.7230   59.2260 C   0  0  0  0  0  0  0  0  0  0  0  0
  127.2520  125.2430   59.1160 C   0  0  0  0  0  0  0  0  0  0  0  0
  125.9760  125.1130   59.8490 N   0  0  0  0  0  0  0  0  0  0  0  0
  125.6320  124.1820   60.7620 C   0  0  0  0  0  0  0  0  0  0  0  0
  124.2260  124.2910   61.3420 C   0  0  0  0  0  0  0  0  0  0  0  0
  126.3760  123.2750   61.1350 O   0  0  0  0  0  0  0  0  0  0  0  0
  128.3030  124.3330   59.8310 C   0  0  0  0  0  0  0  0  0  0  0  0
  128.9820  124.7260   60.9970 C   0  0  0  0  0  0  0  0  0  0  0  0
  129.9100  123.8840   61.6040 C   0  0  0  0  0  0  0  0  0  0  0  0
  130.1850  122.6280   61.0600 C   0  0  0  0  0  0  0  0  0  0  0  0
  131.1980  121.6910   61.7170 C   0  0  0  0  0  0  0  0  0  0  0  0
  131.2840  120.5430   61.0410 F   0  0  0  0  0  0  0  0  0  0  0  0
  132.3960  122.2750   61.7190 F   0  0  0  0  0  0  0  0  0  0  0  0
  130.8710  121.4020   62.9780 F   0  0  0  0  0  0  0  0  0  0  0  0
  129.5250  122.2260   59.8980 C   0  0  0  0  0  0  0  0  0  0  0  0
  128.5980  123.0700   59.2930 C   0  0  0  0  0  0  0  0  0  0  0  0
  127.0520  124.8810   57.5930 C   0  0  0  0  0  0  0  0  0  0  0  0
  128.1410  125.4040   56.6190 C   0  0  0  0  0  0  0  0  0  0  0  0
  128.2040  132.2040   57.8650 C   0  0  0  0  0  0  0  0  0  0  0  0
  127.5060  131.7070   59.1570 C   0  0  0  0  0  0  0  0  0  0  0  0
  127.5461  136.0321   62.1172 H   0  0  0  0  0  0  0  0  0  0  0  0
  128.4643  136.0442   60.5733 H   0  0  0  0  0  0  0  0  0  0  0  0
  126.7024  136.3944   60.5733 H   0  0  0  0  0  0  0  0  0  0  0  0
  129.1830  133.9500   60.6800 H   0  0  0  0  0  0  0  0  0  0  0  0
  127.8347  133.1210   62.9421 H   0  0  0  0  0  0  0  0  0  0  0  0
  126.6990  132.1116   64.9039 H   0  0  0  0  0  0  0  0  0  0  0  0
  126.0136  128.4923   62.6486 H   0  0  0  0  0  0  0  0  0  0  0  0
  127.1516  129.4973   60.6846 H   0  0  0  0  0  0  0  0  0  0  0  0
  130.3760  131.8791   61.1012 H   0  0  0  0  0  0  0  0  0  0  0  0
  129.7242  130.4440   60.1807 H   0  0  0  0  0  0  0  0  0  0  0  0
  130.4573  133.1618   58.9555 H   0  0  0  0  0  0  0  0  0  0  0  0
  131.4350  131.6865   58.8269 H   0  0  0  0  0  0  0  0  0  0  0  0
  128.5572  130.8478   55.4942 H   0  0  0  0  0  0  0  0  0  0  0  0
  129.4254  129.2185   55.4966 H   0  0  0  0  0  0  0  0  0  0  0  0
  127.5024  129.3376   57.6395 H   0  0  0  0  0  0  0  0  0  0  0  0
  126.7357  129.7187   56.0116 H   0  0  0  0  0  0  0  0  0  0  0  0
  129.7501  126.5064   58.3525 H   0  0  0  0  0  0  0  0  0  0  0  0
  129.1299  128.1693   58.3014 H   0  0  0  0  0  0  0  0  0  0  0  0
  128.1760  126.8683   60.2339 H   0  0  0  0  0  0  0  0  0  0  0  0
  126.8914  127.3655   59.0192 H   0  0  0  0  0  0  0  0  0  0  0  0
  125.2710  125.7900   59.5980 H   0  0  0  0  0  0  0  0  0  0  0  0
  124.2812  124.2867   62.4406 H   0  0  0  0  0  0  0  0  0  0  0  0
  123.7607  125.2279   61.0019 H   0  0  0  0  0  0  0  0  0  0  0  0
  123.6218  123.4370   61.0019 H   0  0  0  0  0  0  0  0  0  0  0  0
  128.7773  125.7134   61.4366 H   0  0  0  0  0  0  0  0  0  0  0  0
  130.4293  124.2102   62.5172 H   0  0  0  0  0  0  0  0  0  0  0  0
  129.7378  121.2400   59.4592 H   0  0  0  0  0  0  0  0  0  0  0  0
  128.0869  122.7413   58.3761 H   0  0  0  0  0  0  0  0  0  0  0  0
  127.0242  123.7846   57.5089 H   0  0  0  0  0  0  0  0  0  0  0  0
  126.1198  125.3804   57.2902 H   0  0  0  0  0  0  0  0  0  0  0  0
  129.0964  124.8933   56.8098 H   0  0  0  0  0  0  0  0  0  0  0  0
  127.8604  125.2108   55.5731 H   0  0  0  0  0  0  0  0  0  0  0  0
  128.2808  133.3013   57.8756 H   0  0  0  0  0  0  0  0  0  0  0  0
  127.6297  131.9138   56.9728 H   0  0  0  0  0  0  0  0  0  0  0  0
  126.5124  132.1752   59.2175 H   0  0  0  0  0  0  0  0  0  0  0  0
  127.4489  130.6105   59.0911 H   0  0  0  0  0  0  0  0  0  0  0  0
  1  2  1  0
  2  3  2  0
  2  4  1  0
  4  5  1  0
  5  6  1  0
  6  7  2  0
  7  8  1  0
  8  9  2  0
  9 10  1  0
 10 11  1  0
 10 12  1  0
 10 13  1  0
  9 14  1  0
 14 15  2  0
  5 16  1  0
 16 17  1  0
 17 18  1  0
 18 19  1  0
 19 20  2  0
 19 21  1  0
 21 22  1  0
 22 23  1  0
 23 24  2  0
 23 25  1  0
 25 26  1  0
 26 27  1  0
 27 28  1  0
 28 29  1  0
 29 30  1  0
 30 31  1  0
 30 32  2  0
 28 33  1  0
 33 34  2  0
 34 35  1  0
 35 36  2  0
 36 37  1  0
 37 38  1  0
 37 39  1  0
 37 40  1  0
 36 41  1  0
 41 42  2  0
 28 43  1  0
 43 44  1  0
 18 45  1  0
 45 46  1  0
 46  5  1  0
 15  6  1  0
 44 25  1  0
 42 33  1  0
  1 47  1  0
  1 48  1  0
  1 49  1  0
  4 50  1  0
  7 51  1  0
  8 52  1  0
 14 53  1  0
 15 54  1  0
 16 55  1  0
 16 56  1  0
 17 57  1  0
 17 58  1  0
 21 59  1  0
 21 60  1  0
 22 61  1  0
 22 62  1  0
 26 63  1  0
 26 64  1  0
 27 65  1  0
 27 66  1  0
 29 67  1  0
 31 68  1  0
 31 69  1  0
 31 70  1  0
 34 71  1  0
 35 72  1  0
 41 73  1  0
 42 74  1  0
 43 75  1  0
 43 76  1  0
 44 77  1  0
 44 78  1  0
 45 79  1  0
 45 80  1  0
 46 81  1  0
 46 82  1  0
M  END
>  <Binding energies>  (1) 
[-9.03]

>  <Ligand effiencies>  (1) 
[-0.188125]

>  <Interactions>  (1) 
["V-B:ASP:366:CG:8185, V-A:PRO:540:N:4882, V-B:TYR:539:CD2:9846, H-B:TYR:531:OH:9767, V-B:PRO:540:CA:9855, H-B:ALA:541:N:9863, V-B:ASN:362:CB:8148, V-A:LEU:475:CD2:4257, V-B:ALA:541:CB:9864, H-B:ASP:366:OD2:8187, V-A:TRP:381:CH2:3370, V-B:TYR:539:CE2:9848, H-A:TYR:531:OH:4793, V-A:TYR:539:CD2:4872, V-B:PRO:540:CB:9857, V-B:LEU:475:CD2:9231, V-A:TYR:539:CE2:4874, V-A:TYR:539:CZ:4875, V-B:TRP:381:CH2:8344, V-A:PRO:540:CA:4881, V-B:TRP:381:CZ2:8342, V-A:ALA:541:CB:4890, V-B:TYR:539:C:9839, V-B:GLU:543:CD:9880, V-B:ARG:545:CZ:9898, V-A:PRO:540:CB:4883, V-A:TYR:539:C:4865, V-A:TYR:539:CG:4870, V-A:TYR:539:CE1:4873, V-B:HIS:456:CE1:9042, V-A:PRO:540:C:4879, V-B:ARG:545:CG:9894, V-B:ARG:545:CD:9895, H-A:TYR:539:O:4866, V-B:TYR:484:CZ:9319, V-B:ASN:362:C:8144, V-B:GLY:454:CA:9021, V-B:GLY:453:CA:9016, V-B:PRO:482:CB:9298, V-B:PRO:482:CG:9299, V-B:TYR:484:CE1:9317, V-A:LEU:475:CD1:4256"]

$$$$
RR29_Rahimova_2017
     RDKit          3D

 35 36  0  0  0  0  0  0  0  0999 V2000
  130.9380  120.8450   61.0650 C   0  0  0  0  0  0  0  0  0  0  0  0
  130.3440  122.1170   61.6520 C   0  0  0  0  0  0  0  0  0  0  0  0
  128.9810  122.4900   61.0270 C   0  0  0  0  0  0  0  0  0  0  0  0
  129.1520  123.1920   59.6640 C   0  0  0  0  0  0  0  0  0  0  0  0
  127.8240  123.4040   58.9530 C   0  0  0  0  0  0  0  0  0  0  0  0
  126.7570  124.0310   59.6270 C   0  0  0  0  0  0  0  0  0  0  0  0
  125.5250  124.2370   58.9910 C   0  0  0  0  0  0  0  0  0  0  0  0
  125.3960  123.7900   57.6810 C   0  0  0  0  0  0  0  0  0  0  0  0
  126.4260  123.1790   57.0230 C   0  0  0  0  0  0  0  0  0  0  0  0
  127.6620  122.9710   57.6250 C   0  0  0  0  0  0  0  0  0  0  0  0
  126.0350  122.8790   55.7560 O   0  0  0  0  0  0  0  0  0  0  0  0
  124.6550  123.1310   55.7160 C   0  0  0  0  0  0  0  0  0  0  0  0
  124.3270  123.8930   56.8470 O   0  0  0  0  0  0  0  0  0  0  0  0
  131.0000  122.7390   62.5610 N   0  0  0  0  0  0  0  0  0  0  0  0
  130.5050  123.9350   63.0320 N   0  0  0  0  0  0  0  0  0  0  0  0
  131.1710  124.7460   63.8700 C   0  0  0  0  0  0  0  0  0  0  0  0
  132.3980  124.5150   64.3400 N   0  0  0  0  0  0  0  0  0  0  0  0
  130.5690  125.8590   64.2600 N   0  0  0  0  0  0  0  0  0  0  0  0
  131.2504  120.1760   61.8804 H   0  0  0  0  0  0  0  0  0  0  0  0
  130.1827  120.3397   60.4451 H   0  0  0  0  0  0  0  0  0  0  0  0
  131.8103  121.0998   60.4451 H   0  0  0  0  0  0  0  0  0  0  0  0
  128.3912  121.5725   60.8841 H   0  0  0  0  0  0  0  0  0  0  0  0
  128.4693  123.1849   61.7091 H   0  0  0  0  0  0  0  0  0  0  0  0
  129.6260  124.1711   59.8274 H   0  0  0  0  0  0  0  0  0  0  0  0
  129.7745  122.5453   59.0282 H   0  0  0  0  0  0  0  0  0  0  0  0
  126.8929  124.3634   60.6667 H   0  0  0  0  0  0  0  0  0  0  0  0
  124.6914  124.7338   59.5091 H   0  0  0  0  0  0  0  0  0  0  0  0
  128.4849  122.4844   57.0810 H   0  0  0  0  0  0  0  0  0  0  0  0
  124.4025  123.6891   54.8023 H   0  0  0  0  0  0  0  0  0  0  0  0
  124.0912  122.1865   55.7114 H   0  0  0  0  0  0  0  0  0  0  0  0
  129.5710  124.1860   62.7400 H   0  0  0  0  0  0  0  0  0  0  0  0
  132.9580  125.2770   64.6950 H   0  0  0  0  0  0  0  0  0  0  0  0
  132.7660  123.5750   64.3270 H   0  0  0  0  0  0  0  0  0  0  0  0
  129.5630  125.9340   64.2090 H   0  0  0  0  0  0  0  0  0  0  0  0
  131.1160  126.6300   64.6150 H   0  0  0  0  0  0  0  0  0  0  0  0
  1  2  1  0
  2  3  1  0
  3  4  1  0
  4  5  1  0
  5  6  2  0
  6  7  1  0
  7  8  2  0
  8  9  1  0
  9 10  2  0
  9 11  1  0
 11 12  1  0
 12 13  1  0
  2 14  2  0
 14 15  1  0
 15 16  1  0
 16 17  1  0
 16 18  2  0
 10  5  1  0
 13  8  1  0
  1 19  1  0
  1 20  1  0
  1 21  1  0
  3 22  1  0
  3 23  1  0
  4 24  1  0
  4 25  1  0
  6 26  1  0
  7 27  1  0
 10 28  1  0
 12 29  1  0
 12 30  1  0
 15 31  1  0
 17 32  1  0
 17 33  1  0
 18 34  1  0
 18 35  1  0
M  CHG  1  18   1
M  END
>  <Binding energies>  (1) 
[-7.4]

>  <Ligand effiencies>  (1) 
[-0.32173913043478264]

>  <Interactions>  (1) 
["V-B:TYR:539:CD2:9846, H-B:TYR:531:OH:9767, V-B:PRO:540:CA:9855, V-A:LEU:475:CD2:4257, V-B:ALA:541:CB:9864, V-B:PRO:540:N:9856, V-B:ILE:538:CB:9834, V-B:TYR:531:CE2:9765, V-B:PRO:540:CD:9859, V-B:PRO:540:CB:9857, V-B:ILE:538:CG2:9835, H-B:GLU:543:OE2:9882, H-B:GLU:543:OE1:9881, H-A:GLU:543:OE2:4908, V-B:ILE:538:CA:9832, H-A:TYR:484:OH:4346, V-B:TYR:539:C:9839, V-B:GLU:543:CD:9880, V-A:TYR:484:CZ:4345, H-B:TYR:539:N:9842"]

$$$$
RR29_Rahimova_2017-again1
     RDKit          3D

 34 35  0  0  0  0  0  0  0  0999 V2000
  132.7140  123.6230   75.1490 C   0  0  0  0  0  0  0  0  0  0  0  0
  131.6060  123.7990   74.1220 C   0  0  0  0  0  0  0  0  0  0  0  0
  131.1940  122.4840   73.4320 C   0  0  0  0  0  0  0  0  0  0  0  0
  129.8020  122.0100   73.9020 C   0  0  0  0  0  0  0  0  0  0  0  0
  129.0820  121.1940   72.8390 C   0  0  0  0  0  0  0  0  0  0  0  0
  128.9000  121.7260   71.5470 C   0  0  0  0  0  0  0  0  0  0  0  0
  128.2420  120.9910   70.5520 C   0  0  0  0  0  0  0  0  0  0  0  0
  127.7700  119.7280   70.8910 C   0  0  0  0  0  0  0  0  0  0  0  0
  127.9420  119.2070   72.1440 C   0  0  0  0  0  0  0  0  0  0  0  0
  128.6000  119.9100   73.1460 C   0  0  0  0  0  0  0  0  0  0  0  0
  127.4160  117.9550   72.1850 O   0  0  0  0  0  0  0  0  0  0  0  0
  126.7180  117.7980   70.9780 C   0  0  0  0  0  0  0  0  0  0  0  0
  127.1320  118.8180   70.1100 O   0  0  0  0  0  0  0  0  0  0  0  0
  131.1320  124.9750   73.9040 N   0  0  0  0  0  0  0  0  0  0  0  0
  130.2110  125.0860   73.0020 N   0  0  0  0  0  0  0  0  0  0  0  0
  130.0960  126.2190   72.4120 C   0  0  0  0  0  0  0  0  0  0  0  0
  130.8620  127.3990   72.6240 N   0  0  0  0  0  0  0  0  0  0  0  0
  129.1230  126.4290   71.4120 N   0  0  0  0  0  0  0  0  0  0  0  0
  132.2895  123.6904   76.1616 H   0  0  0  0  0  0  0  0  0  0  0  0
  133.1860  122.6386   75.0141 H   0  0  0  0  0  0  0  0  0  0  0  0
  133.4678  124.4127   75.0141 H   0  0  0  0  0  0  0  0  0  0  0  0
  131.1685  122.6441   72.3440 H   0  0  0  0  0  0  0  0  0  0  0  0
  131.9295  121.7102   73.6970 H   0  0  0  0  0  0  0  0  0  0  0  0
  129.9246  121.3894   74.8019 H   0  0  0  0  0  0  0  0  0  0  0  0
  129.1945  122.9030   74.1103 H   0  0  0  0  0  0  0  0  0  0  0  0
  129.2798  122.7323   71.3163 H   0  0  0  0  0  0  0  0  0  0  0  0
  128.1039  121.3984   69.5396 H   0  0  0  0  0  0  0  0  0  0  0  0
  128.7391  119.4756   74.1470 H   0  0  0  0  0  0  0  0  0  0  0  0
  126.9466  116.8161   70.5381 H   0  0  0  0  0  0  0  0  0  0  0  0
  125.6331  117.8557   71.1502 H   0  0  0  0  0  0  0  0  0  0  0  0
  131.6040  127.4410   73.3090 H   0  0  0  0  0  0  0  0  0  0  0  0
  130.6970  128.2520   72.1120 H   0  0  0  0  0  0  0  0  0  0  0  0
  128.4810  125.7030   71.1280 H   0  0  0  0  0  0  0  0  0  0  0  0
  129.0130  127.3130   70.9380 H   0  0  0  0  0  0  0  0  0  0  0  0
  1  2  1  0
  2  3  1  0
  3  4  1  0
  4  5  1  0
  5  6  2  0
  6  7  1  0
  7  8  2  0
  8  9  1  0
  9 10  2  0
  9 11  1  0
 11 12  1  0
 12 13  1  0
  2 14  2  0
 14 15  1  0
 15 16  2  0
 16 17  1  0
 16 18  1  0
 10  5  1  0
 13  8  1  0
  1 19  1  0
  1 20  1  0
  1 21  1  0
  3 22  1  0
  3 23  1  0
  4 24  1  0
  4 25  1  0
  6 26  1  0
  7 27  1  0
 10 28  1  0
 12 29  1  0
 12 30  1  0
 17 31  1  0
 17 32  1  0
 18 33  1  0
 18 34  1  0
M  END
>  <Binding energies>  (1) 
[-6.9]

>  <Ligand effiencies>  (1) 
[-0.31363636363636366]

>  <Interactions>  (1) 
["V-B:GLY:544:C:9884, V-A:LYS:547:CE:4948, V-A:GLY:544:C:4910, H-A:HIS:456:NE2:4069, V-B:LYS:547:CE:9922, V-A:HIS:456:CD2:4066, V-B:GLU:543:C:9874, V-A:HIS:456:CG:4064, H-B:GLY:544:O:9885, H-B:LYS:547:NZ:9923, V-A:GLY:544:CA:4912, H-B:GLU:543:O:9875, V-B:GLY:544:CA:9886, V-A:TYR:484:CD1:4341, H-A:GLU:543:O:4901, V-A:TYR:484:CG:4340, H-A:GLY:544:O:4911, V-B:GLU:543:CA:9876, V-A:TYR:484:CB:4339, V-A:ASP:473:CG:4238, V-A:LYS:471:CD:4217, V-A:HIS:456:CB:4063, V-A:LYS:471:CE:4218, V-B:VAL:542:CG1:9871, V-B:VAL:542:C:9866, V-A:TYR:484:C:4335, V-A:TYR:484:CA:4337, V-A:SER:483:CB:4331, H-A:TYR:484:N:4338"]

$$$$
RR2_Rahimova_2017
     RDKit          3D

 76 80  0  0  0  0  0  0  0  0999 V2000
  134.2900  130.3670   57.2400 C   0  0  0  0  0  0  0  0  0  0  0  0
  133.6420  131.6100   56.9970 O   0  0  0  0  0  0  0  0  0  0  0  0
  132.3080  131.7530   57.3310 C   0  0  0  0  0  0  0  0  0  0  0  0
  131.3180  132.2170   56.4540 C   0  0  0  0  0  0  0  0  0  0  0  0
  129.9980  132.3300   56.8810 C   0  0  0  0  0  0  0  0  0  0  0  0
  129.6370  131.9870   58.1910 C   0  0  0  0  0  0  0  0  0  0  0  0
  128.1930  132.1270   58.6330 C   0  0  0  0  0  0  0  0  0  0  0  0
  127.2980  131.5170   58.0390 O   0  0  0  0  0  0  0  0  0  0  0  0
  127.9750  132.9540   59.6820 N   0  0  0  0  0  0  0  0  0  0  0  0
  126.6600  133.1900   60.0690 N   0  0  0  0  0  0  0  0  0  0  0  0
  126.4030  134.2780   60.8230 C   0  0  0  0  0  0  0  0  0  0  0  0
  127.2620  134.9900   61.3510 O   0  0  0  0  0  0  0  0  0  0  0  0
  124.9180  134.6310   60.9900 C   0  0  0  0  0  0  0  0  0  0  0  0
  123.8600  133.2620   61.5880 S   0  0  0  0  0  0  0  0  0  0  0  0
  124.5210  131.9110   60.6620 C   0  0  0  0  0  0  0  0  0  0  0  0
  124.2710  131.7270   59.3900 N   0  0  0  0  0  0  0  0  0  0  0  0
  124.8860  130.5420   59.0110 N   0  0  0  0  0  0  0  0  0  0  0  0
  125.5110  130.0680   60.0630 C   0  0  0  0  0  0  0  0  0  0  0  0
  126.3090  128.8050   60.0440 C   0  0  0  0  0  0  0  0  0  0  0  0
  126.1740  127.9140   58.9760 C   0  0  0  0  0  0  0  0  0  0  0  0
  126.9070  126.7310   58.9540 C   0  0  0  0  0  0  0  0  0  0  0  0
  127.7960  126.4360   59.9940 C   0  0  0  0  0  0  0  0  0  0  0  0
  128.5520  125.2540   60.0290 N   0  0  0  0  0  0  0  0  0  0  0  0
  127.8680  123.6180   60.1470 S   0  0  0  0  0  0  0  0  0  0  0  0
  127.0700  123.6010   61.3780 O   0  0  0  0  0  0  0  0  0  0  0  0
  128.9560  122.6540   59.9420 O   0  0  0  0  0  0  0  0  0  0  0  0
  126.7140  123.4930   58.7830 C   0  0  0  0  0  0  0  0  0  0  0  0
  127.1230  122.9800   57.5500 C   0  0  0  0  0  0  0  0  0  0  0  0
  126.2150  122.9050   56.4970 C   0  0  0  0  0  0  0  0  0  0  0  0
  124.8990  123.3380   56.6790 C   0  0  0  0  0  0  0  0  0  0  0  0
  123.9140  123.2700   55.5260 C   0  0  0  0  0  0  0  0  0  0  0  0
  124.4940  123.8540   57.9120 C   0  0  0  0  0  0  0  0  0  0  0  0
  125.4020  123.9300   58.9650 C   0  0  0  0  0  0  0  0  0  0  0  0
  127.9320  127.3270   61.0580 C   0  0  0  0  0  0  0  0  0  0  0  0
  127.1950  128.5080   61.0840 C   0  0  0  0  0  0  0  0  0  0  0  0
  125.3160  130.8940   61.1580 N   0  0  0  0  0  0  0  0  0  0  0  0
  125.7770  130.7200   62.4790 C   0  0  0  0  0  0  0  0  0  0  0  0
  125.3370  129.6320   63.2340 C   0  0  0  0  0  0  0  0  0  0  0  0
  125.7990  129.4650   64.5360 C   0  0  0  0  0  0  0  0  0  0  0  0
  126.6980  130.3760   65.0930 C   0  0  0  0  0  0  0  0  0  0  0  0
  127.0990  130.1260   66.3920 O   0  0  0  0  0  0  0  0  0  0  0  0
  127.8370  128.9420   66.6760 C   0  0  0  0  0  0  0  0  0  0  0  0
  127.1360  131.4680   64.3270 C   0  0  0  0  0  0  0  0  0  0  0  0
  126.6780  131.6390   63.0240 C   0  0  0  0  0  0  0  0  0  0  0  0
  130.6330  131.5180   59.0610 C   0  0  0  0  0  0  0  0  0  0  0  0
  131.9520  131.4040   58.6320 C   0  0  0  0  0  0  0  0  0  0  0  0
  134.3751  130.2037   58.3245 H   0  0  0  0  0  0  0  0  0  0  0  0
  133.7015  129.5529   56.7917 H   0  0  0  0  0  0  0  0  0  0  0  0
  135.2944  130.3833   56.7917 H   0  0  0  0  0  0  0  0  0  0  0  0
  131.5855  132.4932   55.4234 H   0  0  0  0  0  0  0  0  0  0  0  0
  129.2296  132.6926   56.1824 H   0  0  0  0  0  0  0  0  0  0  0  0
  128.5640  133.7560   59.8540 H   0  0  0  0  0  0  0  0  0  0  0  0
  125.9800  132.7660   59.4530 H   0  0  0  0  0  0  0  0  0  0  0  0
  124.8430  135.4596   61.7096 H   0  0  0  0  0  0  0  0  0  0  0  0
  124.5486  134.8893   59.9866 H   0  0  0  0  0  0  0  0  0  0  0  0
  125.4863  128.1483   58.1501 H   0  0  0  0  0  0  0  0  0  0  0  0
  126.7874  126.0266   58.1177 H   0  0  0  0  0  0  0  0  0  0  0  0
  129.5560  125.3370   59.9570 H   0  0  0  0  0  0  0  0  0  0  0  0
  128.1587  122.6364   57.4113 H   0  0  0  0  0  0  0  0  0  0  0  0
  126.5334  122.5053   55.5229 H   0  0  0  0  0  0  0  0  0  0  0  0
  122.8902  123.1993   55.9221 H   0  0  0  0  0  0  0  0  0  0  0  0
  124.0071  124.1767   54.9102 H   0  0  0  0  0  0  0  0  0  0  0  0
  124.1309  122.3847   54.9102 H   0  0  0  0  0  0  0  0  0  0  0  0
  123.4591  124.1999   58.0511 H   0  0  0  0  0  0  0  0  0  0  0  0
  125.0853  124.3337   59.9380 H   0  0  0  0  0  0  0  0  0  0  0  0
  128.6247  127.0958   61.8806 H   0  0  0  0  0  0  0  0  0  0  0  0
  127.3100  129.2086   61.9242 H   0  0  0  0  0  0  0  0  0  0  0  0
  124.6284  128.9099   62.8021 H   0  0  0  0  0  0  0  0  0  0  0  0
  125.4527  128.6075   65.1315 H   0  0  0  0  0  0  0  0  0  0  0  0
  127.9176  128.8126   67.7654 H   0  0  0  0  0  0  0  0  0  0  0  0
  127.3196  128.0742   66.2410 H   0  0  0  0  0  0  0  0  0  0  0  0
  128.8440  129.0244   66.2410 H   0  0  0  0  0  0  0  0  0  0  0  0
  127.8438  132.1911   64.7583 H   0  0  0  0  0  0  0  0  0  0  0  0
  127.0239  132.4944   62.4252 H   0  0  0  0  0  0  0  0  0  0  0  0
  130.3689  131.2379   60.0914 H   0  0  0  0  0  0  0  0  0  0  0  0
  132.7208  131.0348   59.3267 H   0  0  0  0  0  0  0  0  0  0  0  0
  1  2  1  0
  2  3  1  0
  3  4  2  0
  4  5  1  0
  5  6  2  0
  6  7  1  0
  7  8  2  0
  7  9  1  0
  9 10  1  0
 10 11  1  0
 11 12  2  0
 11 13  1  0
 13 14  1  0
 14 15  1  0
 15 16  2  0
 16 17  1  0
 17 18  2  0
 18 19  1  0
 19 20  2  0
 20 21  1  0
 21 22  2  0
 22 23  1  0
 23 24  1  0
 24 25  2  0
 24 26  2  0
 24 27  1  0
 27 28  2  0
 28 29  1  0
 29 30  2  0
 30 31  1  0
 30 32  1  0
 32 33  2  0
 22 34  1  0
 34 35  2  0
 18 36  1  0
 36 37  1  0
 37 38  2  0
 38 39  1  0
 39 40  2  0
 40 41  1  0
 41 42  1  0
 40 43  1  0
 43 44  2  0
  6 45  1  0
 45 46  2  0
 46  3  1  0
 36 15  1  0
 44 37  1  0
 35 19  1  0
 33 27  1  0
  1 47  1  0
  1 48  1  0
  1 49  1  0
  4 50  1  0
  5 51  1  0
  9 52  1  0
 10 53  1  0
 13 54  1  0
 13 55  1  0
 20 56  1  0
 21 57  1  0
 23 58  1  0
 28 59  1  0
 29 60  1  0
 31 61  1  0
 31 62  1  0
 31 63  1  0
 32 64  1  0
 33 65  1  0
 34 66  1  0
 35 67  1  0
 38 68  1  0
 39 69  1  0
 42 70  1  0
 42 71  1  0
 42 72  1  0
 43 73  1  0
 44 74  1  0
 45 75  1  0
 46 76  1  0
M  END
>  <Binding energies>  (1) 
[-10.85]

>  <Ligand effiencies>  (1) 
[-0.22142857142857142]

>  <Interactions>  (1) 
["V-A:PRO:540:CD:4885, V-B:ASP:366:CG:8185, V-A:PRO:540:N:4882, V-B:PRO:540:CA:9855, H-B:ALA:541:N:9863, V-A:ILE:538:CB:4860, V-A:TYR:531:CZ:4792, V-B:PRO:540:N:9856, V-B:ILE:538:CB:9834, V-A:ASP:366:CG:3211, H-A:TYR:531:OH:4793, V-A:TYR:539:CD2:4872, V-B:TYR:531:CE2:9765, V-B:PRO:540:CD:9859, V-B:PRO:540:CB:9857, V-B:ILE:369:CG2:8209, V-A:ASP:366:CB:3210, V-B:LEU:475:CD2:9231, V-A:TYR:539:CE2:4874, V-B:ILE:538:CG2:9835, V-B:TRP:381:CH2:8344, V-A:PRO:540:CA:4881, V-B:TRP:381:CZ2:8342, V-A:GLU:543:CD:4906, V-B:TYR:539:C:9839, V-B:LEU:363:CD1:8161, V-B:TYR:539:CA:9841, V-B:TYR:531:CZ:9766, V-B:ARG:545:CZ:9898, V-A:GLU:543:CG:4905, V-A:PRO:540:CB:4883, V-A:LEU:363:CD1:3187, V-A:TYR:539:C:4865, H-B:TYR:484:OH:9320, V-A:GLU:543:CB:4904, V-A:TYR:531:CE2:4791, V-B:HIS:456:CE1:9042, H-A:TYR:539:O:4866, V-B:TYR:484:CZ:9319, V-A:LEU:363:CB:3185, V-A:LEU:363:CA:3183, V-A:TYR:539:CA:4867, V-B:TYR:484:CE1:9317, V-A:LEU:363:C:3181"]

$$$$
RR30_Rahimova_2017
     RDKit          3D

 29 30  0  0  0  0  0  0  0  0999 V2000
  133.8600  123.8060   75.2330 C   0  0  0  0  0  0  0  0  0  0  0  0
  133.5050  125.2400   74.8150 C   0  0  0  0  0  0  0  0  0  0  0  0
  132.2570  125.2960   73.9620 C   0  0  0  0  0  0  0  0  0  0  0  0
  131.2200  124.4970   73.9890 N   0  0  0  0  0  0  0  0  0  0  0  0
  130.3510  124.9650   73.0070 N   0  0  0  0  0  0  0  0  0  0  0  0
  130.9410  125.9990   72.4640 C   0  0  0  0  0  0  0  0  0  0  0  0
  130.3310  127.0280   71.1690 S   0  0  0  0  0  0  0  0  0  0  0  0
  128.5660  127.0820   71.6170 C   0  0  0  0  0  0  0  0  0  0  0  0
  128.2350  128.2740   72.5190 C   0  0  0  0  0  0  0  0  0  0  0  0
  129.0570  129.1840   72.6400 O   0  0  0  0  0  0  0  0  0  0  0  0
  127.0450  128.2180   73.1580 N   0  0  0  0  0  0  0  0  0  0  0  0
  126.5300  129.1710   74.0250 C   0  0  0  0  0  0  0  0  0  0  0  0
  127.1300  130.2300   74.5190 N   0  0  0  0  0  0  0  0  0  0  0  0
  126.3000  130.9630   75.3590 N   0  0  0  0  0  0  0  0  0  0  0  0
  125.0980  130.4480   75.4830 C   0  0  0  0  0  0  0  0  0  0  0  0
  124.0200  131.0610   76.3450 C   0  0  0  0  0  0  0  0  0  0  0  0
  124.8860  128.9900   74.5530 S   0  0  0  0  0  0  0  0  0  0  0  0
  132.1490  126.2690   73.0220 O   0  0  0  0  0  0  0  0  0  0  0  0
  133.8769  123.7376   76.3307 H   0  0  0  0  0  0  0  0  0  0  0  0
  133.1069  123.1106   74.8339 H   0  0  0  0  0  0  0  0  0  0  0  0
  134.8505  123.5423   74.8339 H   0  0  0  0  0  0  0  0  0  0  0  0
  133.3420  125.8426   75.7207 H   0  0  0  0  0  0  0  0  0  0  0  0
  134.3401  125.6330   74.2165 H   0  0  0  0  0  0  0  0  0  0  0  0
  127.9689  127.1578   70.6963 H   0  0  0  0  0  0  0  0  0  0  0  0
  128.3300  126.1622   72.1723 H   0  0  0  0  0  0  0  0  0  0  0  0
  126.4670  127.4050   73.0020 H   0  0  0  0  0  0  0  0  0  0  0  0
  124.2728  130.9172   77.4058 H   0  0  0  0  0  0  0  0  0  0  0  0
  123.9450  132.1369   76.1285 H   0  0  0  0  0  0  0  0  0  0  0  0
  123.0570  130.5754   76.1285 H   0  0  0  0  0  0  0  0  0  0  0  0
  1  2  1  0
  2  3  1  0
  3  4  2  0
  4  5  1  0
  5  6  2  0
  6  7  1  0
  7  8  1  0
  8  9  1  0
  9 10  2  0
  9 11  1  0
 11 12  1  0
 12 13  2  0
 13 14  1  0
 14 15  2  0
 15 16  1  0
 15 17  1  0
  6 18  1  0
 18  3  1  0
 17 12  1  0
  1 19  1  0
  1 20  1  0
  1 21  1  0
  2 22  1  0
  2 23  1  0
  8 24  1  0
  8 25  1  0
 11 26  1  0
 16 27  1  0
 16 28  1  0
 16 29  1  0
M  END
>  <Binding energies>  (1) 
[-7.46]

>  <Ligand effiencies>  (1) 
[-0.39263157894736844]

>  <Interactions>  (1) 
["V-B:GLY:544:C:9884, V-B:HIS:456:CG:9038, V-B:LYS:547:CE:9922, V-A:HIS:456:CD2:4066, V-B:HIS:456:CD2:9040, V-A:HIS:456:CG:4064, H-B:GLY:544:O:9885, H-B:LYS:547:NZ:9923, H-A:LYS:547:NZ:4949, V-B:GLY:544:CA:9886, V-A:HIS:456:C:4059, V-B:VAL:458:CG2:9059, V-B:VAL:457:C:9045, V-B:HIS:456:CB:9037, V-A:LYS:471:CD:4217, V-A:HIS:456:CB:4063, V-B:HIS:456:CA:9035, V-B:HIS:456:C:9033, V-A:VAL:458:CG2:4085, V-A:LYS:471:CE:4218, V-B:LYS:471:CE:9192, V-B:LYS:471:CD:9191, V-B:LYS:471:CG:9190, V-A:LYS:471:CG:4216, V-B:LYS:471:CB:9189, V-B:LYS:471:C:9185"]

$$$$
RR31_Rahimova_2017
     RDKit          3D

 44 45  0  0  0  0  0  0  0  0999 V2000
  132.0500  131.9490   55.3980 C   0  0  0  0  0  0  0  0  0  0  0  0
  131.1160  131.8730   56.5990 C   0  0  0  0  0  0  0  0  0  0  0  0
  129.7710  132.2050   56.4380 C   0  0  0  0  0  0  0  0  0  0  0  0
  128.8910  132.1420   57.5160 C   0  0  0  0  0  0  0  0  0  0  0  0
  129.3280  131.7370   58.7870 C   0  0  0  0  0  0  0  0  0  0  0  0
  128.4600  131.6790   59.8800 N   0  0  0  0  0  0  0  0  0  0  0  0
  127.3080  130.7580   59.9160 C   0  0  0  0  0  0  0  0  0  0  0  0
  126.2480  131.1140   60.9850 C   0  0  0  0  0  0  0  0  0  0  0  0
  126.8540  131.1920   62.3170 N   0  0  0  0  0  0  0  0  0  0  0  0
  125.8670  131.4930   63.3580 C   0  0  0  0  0  0  0  0  0  0  0  0
  125.4850  130.2600   64.2010 C   0  0  0  0  0  0  0  0  0  0  0  0
  126.7170  129.5430   64.7760 C   0  0  0  0  0  0  0  0  0  0  0  0
  127.5080  128.8740   63.6460 N   0  0  0  0  0  0  0  0  0  0  0  0
  127.8650  132.2480   62.2760 C   0  0  0  0  0  0  0  0  0  0  0  0
  128.9680  131.9120   61.2470 C   0  0  0  0  0  0  0  0  0  0  0  0
  130.6850  131.4150   58.9380 C   0  0  0  0  0  0  0  0  0  0  0  0
  131.5790  131.4750   57.8630 C   0  0  0  0  0  0  0  0  0  0  0  0
  133.0420  131.1150   58.0930 C   0  0  0  0  0  0  0  0  0  0  0  0
  133.0898  132.0336   55.7469 H   0  0  0  0  0  0  0  0  0  0  0  0
  131.9402  131.0390   54.7899 H   0  0  0  0  0  0  0  0  0  0  0  0
  131.7945  132.8293   54.7899 H   0  0  0  0  0  0  0  0  0  0  0  0
  129.4017  132.5195   55.4507 H   0  0  0  0  0  0  0  0  0  0  0  0
  127.8355  132.4143   57.3687 H   0  0  0  0  0  0  0  0  0  0  0  0
  126.8222  130.7737   58.9292 H   0  0  0  0  0  0  0  0  0  0  0  0
  127.7032  129.7658   60.1793 H   0  0  0  0  0  0  0  0  0  0  0  0
  125.7984  132.0867   60.7364 H   0  0  0  0  0  0  0  0  0  0  0  0
  125.4799  130.3266   60.9940 H   0  0  0  0  0  0  0  0  0  0  0  0
  126.2859  132.2589   64.0272 H   0  0  0  0  0  0  0  0  0  0  0  0
  124.9538  131.8427   62.8542 H   0  0  0  0  0  0  0  0  0  0  0  0
  124.8442  130.5854   65.0338 H   0  0  0  0  0  0  0  0  0  0  0  0
  124.9596  129.5519   63.5433 H   0  0  0  0  0  0  0  0  0  0  0  0
  127.3596  130.2754   65.2866 H   0  0  0  0  0  0  0  0  0  0  0  0
  126.3872  128.7745   65.4906 H   0  0  0  0  0  0  0  0  0  0  0  0
  127.0830  129.0830   62.7530 H   0  0  0  0  0  0  0  0  0  0  0  0
  127.5190  127.8730   63.7740 H   0  0  0  0  0  0  0  0  0  0  0  0
  128.4600  129.2120   63.6390 H   0  0  0  0  0  0  0  0  0  0  0  0
  127.3847  133.1963   61.9931 H   0  0  0  0  0  0  0  0  0  0  0  0
  128.3256  132.3340   63.2712 H   0  0  0  0  0  0  0  0  0  0  0  0
  129.6783  132.7513   61.2142 H   0  0  0  0  0  0  0  0  0  0  0  0
  129.4378  130.9738   61.5773 H   0  0  0  0  0  0  0  0  0  0  0  0
  131.0559  131.1074   59.9268 H   0  0  0  0  0  0  0  0  0  0  0  0
  133.2420  131.0658   59.1735 H   0  0  0  0  0  0  0  0  0  0  0  0
  133.2554  130.1376   57.6357 H   0  0  0  0  0  0  0  0  0  0  0  0
  133.6846  131.8818   57.6357 H   0  0  0  0  0  0  0  0  0  0  0  0
  1  2  1  0
  2  3  2  0
  3  4  1  0
  4  5  2  0
  5  6  1  0
  6  7  1  0
  7  8  1  0
  8  9  1  0
  9 10  1  0
 10 11  1  0
 11 12  1  0
 12 13  1  0
  9 14  1  0
 14 15  1  0
  5 16  1  0
 16 17  2  0
 17 18  1  0
 17  2  1  0
 15  6  1  0
  1 19  1  0
  1 20  1  0
  1 21  1  0
  3 22  1  0
  4 23  1  0
  7 24  1  0
  7 25  1  0
  8 26  1  0
  8 27  1  0
 10 28  1  0
 10 29  1  0
 11 30  1  0
 11 31  1  0
 12 32  1  0
 12 33  1  0
 13 34  1  0
 13 35  1  0
 13 36  1  0
 14 37  1  0
 14 38  1  0
 15 39  1  0
 15 40  1  0
 16 41  1  0
 18 42  1  0
 18 43  1  0
 18 44  1  0
M  CHG  1  13   1
M  END
>  <Binding energies>  (1) 
[-7.2]

>  <Ligand effiencies>  (1) 
[-0.34285714285714286]

>  <Interactions>  (1) 
["V-A:ILE:538:CG2:4861, V-A:PRO:540:CD:4885, V-A:PRO:540:N:4882, V-A:ILE:538:CB:4860, V-A:ILE:538:CA:4858, V-A:TYR:531:CZ:4792, V-A:TYR:539:CD2:4872, V-A:TYR:539:CE2:4874, H-B:GLU:543:OE2:9882, V-A:PRO:540:CA:4881, H-B:GLU:543:OE1:9881, H-A:GLU:543:OE2:4908, V-A:ALA:541:CB:4890, V-A:GLU:543:CD:4906, H-A:GLU:543:OE1:4907, V-B:GLU:543:CD:9880, V-B:ARG:545:CZ:9898, V-A:PRO:540:CB:4883, V-A:TYR:539:C:4865, V-A:TYR:539:CG:4870, V-A:TYR:531:CE2:4791, V-A:TYR:539:CA:4867"]

$$$$
RR32_Rahimova_2017
     RDKit          3D

 37 39  0  0  0  0  0  0  0  0999 V2000
  125.6250  124.0680   61.1580 C   0  0  0  0  0  0  0  0  0  0  0  0
  126.5000  123.6570   59.9780 C   0  0  0  0  0  0  0  0  0  0  0  0
  127.8130  123.2600   60.2370 C   0  0  0  0  0  0  0  0  0  0  0  0
  128.6390  122.8750   59.1860 C   0  0  0  0  0  0  0  0  0  0  0  0
  129.9410  122.4820   59.4470 N   0  0  0  0  0  0  0  0  0  0  0  0
  130.9050  123.5370   59.8100 C   0  0  0  0  0  0  0  0  0  0  0  0
  132.3620  123.0260   59.9030 C   0  0  0  0  0  0  0  0  0  0  0  0
  132.4580  121.9480   60.8870 N   0  0  0  0  0  0  0  0  0  0  0  0
  133.8370  121.4880   60.9980 C   0  0  0  0  0  0  0  0  0  0  0  0
  131.5940  120.8550   60.4440 C   0  0  0  0  0  0  0  0  0  0  0  0
  130.1260  121.3340   60.3550 C   0  0  0  0  0  0  0  0  0  0  0  0
  128.2240  122.8680   57.8930 N   0  0  0  0  0  0  0  0  0  0  0  0
  126.9500  123.2520   57.6080 C   0  0  0  0  0  0  0  0  0  0  0  0
  126.5460  123.2380   56.2510 C   0  0  0  0  0  0  0  0  0  0  0  0
  125.2560  123.6210   55.9010 C   0  0  0  0  0  0  0  0  0  0  0  0
  124.3500  124.0200   56.8760 C   0  0  0  0  0  0  0  0  0  0  0  0
  124.7160  124.0460   58.2180 C   0  0  0  0  0  0  0  0  0  0  0  0
  126.0270  123.6630   58.6240 C   0  0  0  0  0  0  0  0  0  0  0  0
  126.1408  123.8257   62.0989 H   0  0  0  0  0  0  0  0  0  0  0  0
  125.4335  125.1503   61.1130 H   0  0  0  0  0  0  0  0  0  0  0  0
  124.6698  123.5244   61.1130 H   0  0  0  0  0  0  0  0  0  0  0  0
  128.1934  123.2516   61.2691 H   0  0  0  0  0  0  0  0  0  0  0  0
  130.8603  124.3287   59.0476 H   0  0  0  0  0  0  0  0  0  0  0  0
  130.6243  123.9069   60.8072 H   0  0  0  0  0  0  0  0  0  0  0  0
  132.6782  122.6490   58.9192 H   0  0  0  0  0  0  0  0  0  0  0  0
  133.0138  123.8554   60.2149 H   0  0  0  0  0  0  0  0  0  0  0  0
  134.1089  121.3973   62.0600 H   0  0  0  0  0  0  0  0  0  0  0  0
  133.9371  120.5078   60.5089 H   0  0  0  0  0  0  0  0  0  0  0  0
  134.5055  122.2118   60.5089 H   0  0  0  0  0  0  0  0  0  0  0  0
  131.9240  120.5103   59.4529 H   0  0  0  0  0  0  0  0  0  0  0  0
  131.6583  120.0311   61.1700 H   0  0  0  0  0  0  0  0  0  0  0  0
  129.5077  120.4993   59.9930 H   0  0  0  0  0  0  0  0  0  0  0  0
  129.8291  121.6635   61.3616 H   0  0  0  0  0  0  0  0  0  0  0  0
  127.2550  122.9231   55.4711 H   0  0  0  0  0  0  0  0  0  0  0  0
  124.9504  123.6080   54.8444 H   0  0  0  0  0  0  0  0  0  0  0  0
  123.3324  124.3185   56.5837 H   0  0  0  0  0  0  0  0  0  0  0  0
  123.9845  124.3661   58.9747 H   0  0  0  0  0  0  0  0  0  0  0  0
  1  2  1  0
  2  3  2  0
  3  4  1  0
  4  5  1  0
  5  6  1  0
  6  7  1  0
  7  8  1  0
  8  9  1  0
  8 10  1  0
 10 11  1  0
  4 12  2  0
 12 13  1  0
 13 14  2  0
 14 15  1  0
 15 16  2  0
 16 17  1  0
 17 18  2  0
 18  2  1  0
 11  5  1  0
 18 13  1  0
  1 19  1  0
  1 20  1  0
  1 21  1  0
  3 22  1  0
  6 23  1  0
  6 24  1  0
  7 25  1  0
  7 26  1  0
  9 27  1  0
  9 28  1  0
  9 29  1  0
 10 30  1  0
 10 31  1  0
 11 32  1  0
 11 33  1  0
 14 34  1  0
 15 35  1  0
 16 36  1  0
 17 37  1  0
M  END
>  <Binding energies>  (1) 
[-6.62]

>  <Ligand effiencies>  (1) 
[-0.36777777777777776]

>  <Interactions>  (1) 
["V-B:TYR:539:CD2:9846, V-B:PRO:540:CA:9855, V-A:LEU:475:CD2:4257, V-A:ILE:369:CG2:3235, V-B:ALA:541:CB:9864, V-A:TRP:381:CH2:3370, V-A:ILE:369:CD1:3237, V-B:TYR:539:CE2:9848, V-B:PRO:540:N:9856, V-B:ILE:538:CB:9834, V-B:TYR:531:CE2:9765, V-B:PRO:540:CB:9857, V-B:ILE:538:CG2:9835, V-B:TYR:539:C:9839, V-B:TYR:531:CZ:9766, V-B:PRO:540:C:9853"]

$$$$
RR32_Rahimova_2017-again1
     RDKit          3D

 38 40  0  0  0  0  0  0  0  0999 V2000
  133.8490  131.1240   57.3730 C   0  0  0  0  0  0  0  0  0  0  0  0
  132.4020  131.2800   57.8200 C   0  0  0  0  0  0  0  0  0  0  0  0
  132.0570  131.1040   59.1600 C   0  0  0  0  0  0  0  0  0  0  0  0
  130.7280  131.2530   59.5690 C   0  0  0  0  0  0  0  0  0  0  0  0
  130.3570  131.0710   60.9050 N   0  0  0  0  0  0  0  0  0  0  0  0
  128.9590  131.2880   61.3280 C   0  0  0  0  0  0  0  0  0  0  0  0
  128.0800  130.0280   61.1430 C   0  0  0  0  0  0  0  0  0  0  0  0
  128.6590  128.8940   62.0110 N   0  0  0  0  0  0  0  0  0  0  0  0
  127.8300  127.6050   61.8520 C   0  0  0  0  0  0  0  0  0  0  0  0
  130.1250  128.6530   61.5970 C   0  0  0  0  0  0  0  0  0  0  0  0
  130.9030  129.9820   61.7440 C   0  0  0  0  0  0  0  0  0  0  0  0
  129.7400  131.5440   58.6770 N   0  0  0  0  0  0  0  0  0  0  0  0
  130.0470  131.7240   57.3640 C   0  0  0  0  0  0  0  0  0  0  0  0
  128.9980  132.0400   56.4680 C   0  0  0  0  0  0  0  0  0  0  0  0
  129.2670  132.2360   55.1160 C   0  0  0  0  0  0  0  0  0  0  0  0
  130.5660  132.1220   54.6300 C   0  0  0  0  0  0  0  0  0  0  0  0
  131.6190  131.8100   55.4870 C   0  0  0  0  0  0  0  0  0  0  0  0
  131.3830  131.6050   56.8740 C   0  0  0  0  0  0  0  0  0  0  0  0
  134.5002  131.0538   58.2567 H   0  0  0  0  0  0  0  0  0  0  0  0
  133.9499  130.2098   56.7697 H   0  0  0  0  0  0  0  0  0  0  0  0
  134.1424  131.9957   56.7697 H   0  0  0  0  0  0  0  0  0  0  0  0
  132.8323  130.8473   59.8969 H   0  0  0  0  0  0  0  0  0  0  0  0
  128.9521  131.5696   62.3913 H   0  0  0  0  0  0  0  0  0  0  0  0
  128.5387  132.0838   60.6954 H   0  0  0  0  0  0  0  0  0  0  0  0
  127.0487  130.2460   61.4575 H   0  0  0  0  0  0  0  0  0  0  0  0
  128.0732  129.7261   60.0853 H   0  0  0  0  0  0  0  0  0  0  0  0
  128.6430  129.1890   62.9770 H   0  0  0  0  0  0  0  0  0  0  0  0
  127.5748  127.2082   62.8457 H   0  0  0  0  0  0  0  0  0  0  0  0
  126.9063  127.8291   61.2984 H   0  0  0  0  0  0  0  0  0  0  0  0
  128.4171  126.8574   61.2984 H   0  0  0  0  0  0  0  0  0  0  0  0
  130.5729  127.8873   62.2474 H   0  0  0  0  0  0  0  0  0  0  0  0
  130.1692  128.3045   60.5546 H   0  0  0  0  0  0  0  0  0  0  0  0
  130.8614  130.2972   62.7971 H   0  0  0  0  0  0  0  0  0  0  0  0
  131.9344  129.7965   61.4095 H   0  0  0  0  0  0  0  0  0  0  0  0
  127.9671  132.1310   56.8408 H   0  0  0  0  0  0  0  0  0  0  0  0
  128.4462  132.4829   54.4266 H   0  0  0  0  0  0  0  0  0  0  0  0
  130.7631  132.2797   53.5594 H   0  0  0  0  0  0  0  0  0  0  0  0
  132.6402  131.7216   55.0878 H   0  0  0  0  0  0  0  0  0  0  0  0
  1  2  1  0
  2  3  2  0
  3  4  1  0
  4  5  1  0
  5  6  1  0
  6  7  1  0
  7  8  1  0
  8  9  1  0
  8 10  1  0
 10 11  1  0
  4 12  2  0
 12 13  1  0
 13 14  2  0
 14 15  1  0
 15 16  2  0
 16 17  1  0
 17 18  2  0
 18  2  1  0
 11  5  1  0
 18 13  1  0
  1 19  1  0
  1 20  1  0
  1 21  1  0
  3 22  1  0
  6 23  1  0
  6 24  1  0
  7 25  1  0
  7 26  1  0
  8 27  1  0
  9 28  1  0
  9 29  1  0
  9 30  1  0
 10 31  1  0
 10 32  1  0
 11 33  1  0
 11 34  1  0
 14 35  1  0
 15 36  1  0
 16 37  1  0
 17 38  1  0
M  CHG  1   8   1
M  END
>  <Binding energies>  (1) 
[-7.39]

>  <Ligand effiencies>  (1) 
[-0.3889473684210526]

>  <Interactions>  (1) 
["V-A:ILE:538:CG2:4861, V-A:PRO:540:N:4882, V-A:ILE:538:CB:4860, V-A:ILE:538:CA:4858, V-A:TYR:539:CD2:4872, V-A:TYR:539:CE2:4874, V-A:TYR:539:CZ:4875, V-A:PRO:540:CA:4881, H-A:GLU:543:OE2:4908, V-A:GLU:543:CD:4906, H-A:GLU:543:OE1:4907, V-B:GLU:543:CD:9880, V-A:PRO:540:CB:4883, V-A:LEU:363:CD1:3187, V-A:TYR:539:C:4865, V-A:TYR:539:CG:4870, V-A:TYR:539:CE1:4873, V-A:TYR:531:CE2:4791, V-A:TYR:539:CD1:4871, V-A:LEU:363:CB:3185, V-A:LEU:363:CA:3183, V-A:ILE:538:C:4856"]

$$$$
RR32_Rahimova_2017-again2
     RDKit          3D

 39 41  0  0  0  0  0  0  0  0999 V2000
  129.0020  132.2180   57.5170 C   0  0  0  0  0  0  0  0  0  0  0  0
  129.0930  132.0250   59.0250 C   0  0  0  0  0  0  0  0  0  0  0  0
  127.9580  132.1920   59.8240 C   0  0  0  0  0  0  0  0  0  0  0  0
  128.0230  132.0240   61.2140 C   0  0  0  0  0  0  0  0  0  0  0  0
  126.8810  132.1700   62.0800 N   0  0  0  0  0  0  0  0  0  0  0  0
  125.9440  131.0360   62.3030 C   0  0  0  0  0  0  0  0  0  0  0  0
  126.4610  130.1110   63.4370 C   0  0  0  0  0  0  0  0  0  0  0  0
  126.6000  130.9270   64.7450 N   0  0  0  0  0  0  0  0  0  0  0  0
  127.1660  130.0540   65.8820 C   0  0  0  0  0  0  0  0  0  0  0  0
  127.4890  132.1710   64.5060 C   0  0  0  0  0  0  0  0  0  0  0  0
  126.9150  132.9880   63.3190 C   0  0  0  0  0  0  0  0  0  0  0  0
  129.2130  131.6880   61.7530 N   0  0  0  0  0  0  0  0  0  0  0  0
  130.3800  131.5030   61.0490 C   0  0  0  0  0  0  0  0  0  0  0  0
  131.5760  131.1520   61.7150 C   0  0  0  0  0  0  0  0  0  0  0  0
  132.7370  130.9680   60.9690 C   0  0  0  0  0  0  0  0  0  0  0  0
  132.7250  131.1270   59.5860 C   0  0  0  0  0  0  0  0  0  0  0  0
  131.5510  131.4730   58.9150 C   0  0  0  0  0  0  0  0  0  0  0  0
  130.3380  131.6720   59.6330 C   0  0  0  0  0  0  0  0  0  0  0  0
  128.5422  133.1933   57.2993 H   0  0  0  0  0  0  0  0  0  0  0  0
  130.0114  132.1831   57.0813 H   0  0  0  0  0  0  0  0  0  0  0  0
  128.3867  131.4170   57.0813 H   0  0  0  0  0  0  0  0  0  0  0  0
  126.9997  132.4592   59.3548 H   0  0  0  0  0  0  0  0  0  0  0  0
  124.9570  131.4330   62.5828 H   0  0  0  0  0  0  0  0  0  0  0  0
  125.8711  130.4502   61.3748 H   0  0  0  0  0  0  0  0  0  0  0  0
  125.7482  129.2877   63.5924 H   0  0  0  0  0  0  0  0  0  0  0  0
  127.4414  129.6988   63.1559 H   0  0  0  0  0  0  0  0  0  0  0  0
  125.6780  131.2520   65.0050 H   0  0  0  0  0  0  0  0  0  0  0  0
  126.8844  130.4883   66.8526 H   0  0  0  0  0  0  0  0  0  0  0  0
  126.7552  129.0367   65.8024 H   0  0  0  0  0  0  0  0  0  0  0  0
  128.2624  130.0139   65.8024 H   0  0  0  0  0  0  0  0  0  0  0  0
  127.4991  132.7954   65.4116 H   0  0  0  0  0  0  0  0  0  0  0  0
  128.5156  131.8521   64.2728 H   0  0  0  0  0  0  0  0  0  0  0  0
  125.8928  133.3114   63.5652 H   0  0  0  0  0  0  0  0  0  0  0  0
  127.5629  133.8601   63.1467 H   0  0  0  0  0  0  0  0  0  0  0  0
  129.2470  131.5580   62.7530 H   0  0  0  0  0  0  0  0  0  0  0  0
  131.5894  131.0259   62.8077 H   0  0  0  0  0  0  0  0  0  0  0  0
  133.6732  130.6942   61.4775 H   0  0  0  0  0  0  0  0  0  0  0  0
  133.6530  130.9780   59.0145 H   0  0  0  0  0  0  0  0  0  0  0  0
  131.5632  131.5930   57.8216 H   0  0  0  0  0  0  0  0  0  0  0  0
  1  2  1  0
  2  3  2  0
  3  4  1  0
  4  5  1  0
  5  6  1  0
  6  7  1  0
  7  8  1  0
  8  9  1  0
  8 10  1  0
 10 11  1  0
  4 12  2  0
 12 13  1  0
 13 14  2  0
 14 15  1  0
 15 16  2  0
 16 17  1  0
 17 18  2  0
 18  2  1  0
 11  5  1  0
 18 13  1  0
  1 19  1  0
  1 20  1  0
  1 21  1  0
  3 22  1  0
  6 23  1  0
  6 24  1  0
  7 25  1  0
  7 26  1  0
  8 27  1  0
  9 28  1  0
  9 29  1  0
  9 30  1  0
 10 31  1  0
 10 32  1  0
 11 33  1  0
 11 34  1  0
 12 35  1  0
 14 36  1  0
 15 37  1  0
 16 38  1  0
 17 39  1  0
M  CHG  2   8   1  12   1
M  END
>  <Binding energies>  (1) 
[-7.48]

>  <Ligand effiencies>  (1) 
[-0.374]

>  <Interactions>  (1) 
["V-A:PRO:540:N:4882, V-A:TYR:539:CD2:4872, V-B:LEU:475:CD2:9231, V-A:TYR:539:CE2:4874, V-A:PRO:540:CA:4881, V-A:ALA:541:CB:4890, V-A:GLU:543:CD:4906, H-A:GLU:543:OE1:4907, V-A:ASN:362:CB:3174, V-A:GLU:543:CG:4905, V-A:PRO:540:CB:4883, V-A:TYR:539:C:4865, V-A:TYR:539:CG:4870, H-B:TYR:484:OH:9320, V-A:GLU:543:CB:4904, V-B:HIS:456:CE1:9042, V-B:TYR:484:CZ:9319, V-B:TYR:484:CE1:9317"]

$$$$
RR33_Rahimova_2017
     RDKit          3D

 36 37  0  0  0  0  0  0  0  0999 V2000
  125.5360  129.7580   56.3100 C   0  0  0  0  0  0  0  0  0  0  0  0
  124.1240  129.9990   56.8530 C   0  0  0  0  0  0  0  0  0  0  0  0
  124.1730  131.0640   57.7970 O   0  0  0  0  0  0  0  0  0  0  0  0
  124.4620  130.7860   59.1190 C   0  0  0  0  0  0  0  0  0  0  0  0
  123.8010  131.5560   60.0760 C   0  0  0  0  0  0  0  0  0  0  0  0
  124.0310  131.3500   61.4330 C   0  0  0  0  0  0  0  0  0  0  0  0
  124.9300  130.3660   61.8550 C   0  0  0  0  0  0  0  0  0  0  0  0
  125.1770  130.1470   63.3140 C   0  0  0  0  0  0  0  0  0  0  0  0
  126.3210  129.8770   63.9020 N   0  0  0  0  0  0  0  0  0  0  0  0
  126.0350  129.7720   65.1910 C   0  0  0  0  0  0  0  0  0  0  0  0
  127.1180  129.4740   66.2060 C   0  0  0  0  0  0  0  0  0  0  0  0
  126.9160  128.1610   66.8000 N   0  0  0  0  0  0  0  0  0  0  0  0
  128.1160  127.7230   67.4950 C   0  0  0  0  0  0  0  0  0  0  0  0
  124.6760  129.9840   65.3860 C   0  0  0  0  0  0  0  0  0  0  0  0
  123.7540  130.0050   66.5800 C   0  0  0  0  0  0  0  0  0  0  0  0
  124.1270  130.2240   64.1730 O   0  0  0  0  0  0  0  0  0  0  0  0
  125.5930  129.5900   60.9000 C   0  0  0  0  0  0  0  0  0  0  0  0
  125.3630  129.7960   59.5420 C   0  0  0  0  0  0  0  0  0  0  0  0
  126.2363  129.6385   57.1498 H   0  0  0  0  0  0  0  0  0  0  0  0
  125.5417  128.8459   55.6952 H   0  0  0  0  0  0  0  0  0  0  0  0
  125.8439  130.6166   55.6952 H   0  0  0  0  0  0  0  0  0  0  0  0
  123.4504  130.2682   56.0260 H   0  0  0  0  0  0  0  0  0  0  0  0
  123.7481  129.0859   57.3376 H   0  0  0  0  0  0  0  0  0  0  0  0
  123.0916  132.3330   59.7552 H   0  0  0  0  0  0  0  0  0  0  0  0
  123.5029  131.9643   62.1771 H   0  0  0  0  0  0  0  0  0  0  0  0
  128.0979  129.4980   65.7067 H   0  0  0  0  0  0  0  0  0  0  0  0
  127.0773  130.2330   67.0011 H   0  0  0  0  0  0  0  0  0  0  0  0
  126.6990  127.4950   66.0710 H   0  0  0  0  0  0  0  0  0  0  0  0
  127.9530  127.7825   68.5812 H   0  0  0  0  0  0  0  0  0  0  0  0
  128.3434  126.6839   67.2147 H   0  0  0  0  0  0  0  0  0  0  0  0
  128.9593  128.3713   67.2147 H   0  0  0  0  0  0  0  0  0  0  0  0
  124.3505  129.9914   67.5041 H   0  0  0  0  0  0  0  0  0  0  0  0
  123.1401  130.9174   66.5532 H   0  0  0  0  0  0  0  0  0  0  0  0
  123.0992  129.1215   66.5532 H   0  0  0  0  0  0  0  0  0  0  0  0
  126.3005  128.8121   61.2229 H   0  0  0  0  0  0  0  0  0  0  0  0
  125.8895  129.1805   58.7977 H   0  0  0  0  0  0  0  0  0  0  0  0
  1  2  1  0
  2  3  1  0
  3  4  1  0
  4  5  2  0
  5  6  1  0
  6  7  2  0
  7  8  1  0
  8  9  2  0
  9 10  1  0
 10 11  1  0
 11 12  1  0
 12 13  1  0
 10 14  2  0
 14 15  1  0
 14 16  1  0
  7 17  1  0
 17 18  2  0
 18  4  1  0
 16  8  1  0
  1 19  1  0
  1 20  1  0
  1 21  1  0
  2 22  1  0
  2 23  1  0
  5 24  1  0
  6 25  1  0
 11 26  1  0
 11 27  1  0
 12 28  1  0
 13 29  1  0
 13 30  1  0
 13 31  1  0
 15 32  1  0
 15 33  1  0
 15 34  1  0
 17 35  1  0
 18 36  1  0
M  END
>  <Binding energies>  (1) 
[-5.77]

>  <Ligand effiencies>  (1) 
[-0.3036842105263158]

>  <Interactions>  (1) 
["V-B:ASP:366:CG:8185, V-B:ILE:369:CD1:8211, V-B:ILE:369:CG2:8209, V-A:TYR:539:CE2:4874, V-A:TYR:539:CZ:4875, H-B:GLU:543:OE2:9882, V-A:GLU:543:CD:4906, V-B:TYR:531:CZ:9766, V-B:GLU:543:CD:9880, V-B:ARG:545:CZ:9898, V-B:GLU:543:CG:9879, H-B:ARG:545:NE:9896, V-A:GLU:543:CG:4905, H-B:GLY:454:N:9022, H-B:TYR:484:OH:9320, V-A:GLU:543:CB:4904, V-B:HIS:456:CE1:9042, V-B:ASP:366:C:8180, V-B:ASP:366:CB:8184, H-A:TYR:539:OH:4876, V-B:ASP:366:CA:8182, V-B:TYR:531:CE1:9764, V-B:ARG:545:CG:9894, V-B:ARG:545:CD:9895, V-B:TYR:484:CZ:9319, V-B:GLY:454:CA:9021, V-B:GLY:453:C:9014"]

$$$$
RR33_Rahimova_2017-again1
     RDKit          3D

 37 38  0  0  0  0  0  0  0  0999 V2000
  133.2860  132.2900   56.1300 C   0  0  0  0  0  0  0  0  0  0  0  0
  132.0180  131.5610   55.6760 C   0  0  0  0  0  0  0  0  0  0  0  0
  130.8840  132.3380   56.0470 O   0  0  0  0  0  0  0  0  0  0  0  0
  130.2760  132.1110   57.2680 C   0  0  0  0  0  0  0  0  0  0  0  0
  128.9270  132.4500   57.3640 C   0  0  0  0  0  0  0  0  0  0  0  0
  128.2290  132.2570   58.5530 C   0  0  0  0  0  0  0  0  0  0  0  0
  128.8770  131.7210   59.6710 C   0  0  0  0  0  0  0  0  0  0  0  0
  128.1320  131.5120   60.9500 C   0  0  0  0  0  0  0  0  0  0  0  0
  127.6690  130.3800   61.4330 N   0  0  0  0  0  0  0  0  0  0  0  0
  127.0900  130.6970   62.5810 C   0  0  0  0  0  0  0  0  0  0  0  0
  126.4190  129.6420   63.4390 C   0  0  0  0  0  0  0  0  0  0  0  0
  127.4960  128.8670   64.2170 N   0  0  0  0  0  0  0  0  0  0  0  0
  127.4050  129.0490   65.7380 C   0  0  0  0  0  0  0  0  0  0  0  0
  127.2000  132.0660   62.7930 C   0  0  0  0  0  0  0  0  0  0  0  0
  126.7600  133.0260   63.8710 C   0  0  0  0  0  0  0  0  0  0  0  0
  127.8750  132.5850   61.7400 O   0  0  0  0  0  0  0  0  0  0  0  0
  130.2310  131.3810   59.5790 C   0  0  0  0  0  0  0  0  0  0  0  0
  130.9270  131.5730   58.3880 C   0  0  0  0  0  0  0  0  0  0  0  0
  133.3230  132.3113   57.2292 H   0  0  0  0  0  0  0  0  0  0  0  0
  134.1705  131.7625   55.7435 H   0  0  0  0  0  0  0  0  0  0  0  0
  133.2752  133.3198   55.7435 H   0  0  0  0  0  0  0  0  0  0  0  0
  132.0366  131.4323   54.5837 H   0  0  0  0  0  0  0  0  0  0  0  0
  131.9650  130.5712   56.1530 H   0  0  0  0  0  0  0  0  0  0  0  0
  128.4089  132.8743   56.4913 H   0  0  0  0  0  0  0  0  0  0  0  0
  127.1643  132.5269   58.6136 H   0  0  0  0  0  0  0  0  0  0  0  0
  125.7300  130.1262   64.1467 H   0  0  0  0  0  0  0  0  0  0  0  0
  125.8528  128.9490   62.7994 H   0  0  0  0  0  0  0  0  0  0  0  0
  127.4120  127.8850   63.9980 H   0  0  0  0  0  0  0  0  0  0  0  0
  128.4050  129.1780   63.9040 H   0  0  0  0  0  0  0  0  0  0  0  0
  127.8430  128.1731   66.2389 H   0  0  0  0  0  0  0  0  0  0  0  0
  127.9567  129.9539   66.0327 H   0  0  0  0  0  0  0  0  0  0  0  0
  126.3501  129.1505   66.0327 H   0  0  0  0  0  0  0  0  0  0  0  0
  126.9618  132.5858   64.8587 H   0  0  0  0  0  0  0  0  0  0  0  0
  127.3152  133.9702   63.7701 H   0  0  0  0  0  0  0  0  0  0  0  0
  125.6823  133.2218   63.7701 H   0  0  0  0  0  0  0  0  0  0  0  0
  130.7492  130.9593   60.4529 H   0  0  0  0  0  0  0  0  0  0  0  0
  131.9912  131.3017   58.3254 H   0  0  0  0  0  0  0  0  0  0  0  0
  1  2  1  0
  2  3  1  0
  3  4  1  0
  4  5  2  0
  5  6  1  0
  6  7  2  0
  7  8  1  0
  8  9  2  0
  9 10  1  0
 10 11  1  0
 11 12  1  0
 12 13  1  0
 10 14  2  0
 14 15  1  0
 14 16  1  0
  7 17  1  0
 17 18  2  0
 18  4  1  0
 16  8  1  0
  1 19  1  0
  1 20  1  0
  1 21  1  0
  2 22  1  0
  2 23  1  0
  5 24  1  0
  6 25  1  0
 11 26  1  0
 11 27  1  0
 12 28  1  0
 12 29  1  0
 13 30  1  0
 13 31  1  0
 13 32  1  0
 15 33  1  0
 15 34  1  0
 15 35  1  0
 17 36  1  0
 18 37  1  0
M  CHG  1  12   1
M  END
>  <Binding energies>  (1) 
[-7.01]

>  <Ligand effiencies>  (1) 
[-0.3505]

>  <Interactions>  (1) 
["V-A:ILE:538:CG2:4861, V-A:PRO:540:CD:4885, V-A:PRO:540:N:4882, V-A:ILE:538:CB:4860, V-A:TYR:531:CZ:4792, V-A:TYR:539:CD2:4872, V-B:LEU:475:CD2:9231, V-A:TYR:539:CE2:4874, V-A:TYR:539:CZ:4875, H-B:GLU:543:OE2:9882, V-A:PRO:540:CA:4881, H-B:GLU:543:OE1:9881, H-A:GLU:543:OE2:4908, V-A:ALA:541:CB:4890, V-A:GLU:543:CD:4906, H-A:GLU:543:OE1:4907, V-B:GLU:543:CD:9880, V-A:GLU:543:CG:4905, V-A:PRO:540:CB:4883, V-A:LEU:363:CD1:3187, V-A:TYR:539:C:4865, V-A:TYR:539:CG:4870, V-A:TYR:539:CE1:4873, V-A:GLU:543:CB:4904, V-A:TYR:531:CE2:4791, V-A:TYR:539:CD1:4871, V-B:HIS:456:CE1:9042, H-A:TYR:539:N:4868, V-B:TYR:484:CZ:9319, V-A:TYR:539:CA:4867, V-A:PRO:540:CG:4884, V-B:TYR:484:CE1:9317"]

$$$$
RR3_Rahimova_2017
     RDKit          3D

 63 69  0  0  0  0  0  0  0  0999 V2000
  133.5940  123.3680   61.6160 C   0  0  0  0  0  0  0  0  0  0  0  0
  134.1840  124.4450   62.2700 C   0  0  0  0  0  0  0  0  0  0  0  0
  133.5440  125.0240   63.3620 C   0  0  0  0  0  0  0  0  0  0  0  0
  132.3090  124.5350   63.8150 C   0  0  0  0  0  0  0  0  0  0  0  0
  131.6230  125.1580   64.9910 C   0  0  0  0  0  0  0  0  0  0  0  0
  132.0940  126.3540   65.5490 C   0  0  0  0  0  0  0  0  0  0  0  0
  131.4570  126.9310   66.6440 C   0  0  0  0  0  0  0  0  0  0  0  0
  130.3370  126.3190   67.2120 C   0  0  0  0  0  0  0  0  0  0  0  0
  129.6510  126.9310   68.3930 C   0  0  0  0  0  0  0  0  0  0  0  0
  130.0480  126.6270   69.6240 N   0  0  0  0  0  0  0  0  0  0  0  0
  129.3080  127.3360   70.4420 C   0  0  0  0  0  0  0  0  0  0  0  0
  129.4070  127.3130   71.8990 C   0  0  0  0  0  0  0  0  0  0  0  0
  128.4460  127.7740   72.7840 C   0  0  0  0  0  0  0  0  0  0  0  0
  128.8650  127.5900   74.0750 N   0  0  0  0  0  0  0  0  0  0  0  0
  130.1120  127.0050   74.0850 C   0  0  0  0  0  0  0  0  0  0  0  0
  130.9360  126.6290   75.1510 C   0  0  0  0  0  0  0  0  0  0  0  0
  132.1640  126.0510   74.8290 C   0  0  0  0  0  0  0  0  0  0  0  0
  132.5590  125.8550   73.5100 C   0  0  0  0  0  0  0  0  0  0  0  0
  131.7380  126.2290   72.4480 C   0  0  0  0  0  0  0  0  0  0  0  0
  130.4880  126.8160   72.7180 C   0  0  0  0  0  0  0  0  0  0  0  0
  128.4140  128.1050   69.7510 N   0  0  0  0  0  0  0  0  0  0  0  0
  128.5900  127.8530   68.4150 C   0  0  0  0  0  0  0  0  0  0  0  0
  127.7420  128.4730   67.3540 C   0  0  0  0  0  0  0  0  0  0  0  0
  128.1840  129.6130   66.6820 C   0  0  0  0  0  0  0  0  0  0  0  0
  127.3910  130.2020   65.7020 C   0  0  0  0  0  0  0  0  0  0  0  0
  126.1400  129.6630   65.3670 C   0  0  0  0  0  0  0  0  0  0  0  0
  125.2820  130.3100   64.3260 C   0  0  0  0  0  0  0  0  0  0  0  0
  125.5990  131.5800   63.8190 C   0  0  0  0  0  0  0  0  0  0  0  0
  124.8020  132.1800   62.8470 C   0  0  0  0  0  0  0  0  0  0  0  0
  123.6770  131.5140   62.3700 C   0  0  0  0  0  0  0  0  0  0  0  0
  123.3450  130.2540   62.8570 C   0  0  0  0  0  0  0  0  0  0  0  0
  124.1430  129.6580   63.8300 C   0  0  0  0  0  0  0  0  0  0  0  0
  125.7150  128.5080   66.0370 C   0  0  0  0  0  0  0  0  0  0  0  0
  126.5060  127.9160   67.0180 C   0  0  0  0  0  0  0  0  0  0  0  0
  129.8520  125.1340   66.6550 C   0  0  0  0  0  0  0  0  0  0  0  0
  130.4910  124.5590   65.5600 C   0  0  0  0  0  0  0  0  0  0  0  0
  131.7330  123.4490   63.1410 C   0  0  0  0  0  0  0  0  0  0  0  0
  132.3700  122.8660   62.0480 C   0  0  0  0  0  0  0  0  0  0  0  0
  134.0982  122.9104   60.7520 H   0  0  0  0  0  0  0  0  0  0  0  0
  135.1522  124.8373   61.9255 H   0  0  0  0  0  0  0  0  0  0  0  0
  134.0123  125.8760   63.8766 H   0  0  0  0  0  0  0  0  0  0  0  0
  132.9789  126.8434   65.1160 H   0  0  0  0  0  0  0  0  0  0  0  0
  131.8375  127.8737   67.0642 H   0  0  0  0  0  0  0  0  0  0  0  0
  127.4852  128.2230   72.4921 H   0  0  0  0  0  0  0  0  0  0  0  0
  128.3040  127.8590   74.8710 H   0  0  0  0  0  0  0  0  0  0  0  0
  130.6294  126.7822   76.1962 H   0  0  0  0  0  0  0  0  0  0  0  0
  132.8387  125.7416   75.6408 H   0  0  0  0  0  0  0  0  0  0  0  0
  133.5369  125.3966   73.3014 H   0  0  0  0  0  0  0  0  0  0  0  0
  132.0636  126.0671   71.4098 H   0  0  0  0  0  0  0  0  0  0  0  0
  127.7260  128.7260   70.1540 H   0  0  0  0  0  0  0  0  0  0  0  0
  129.1638  130.0482   66.9280 H   0  0  0  0  0  0  0  0  0  0  0  0
  127.7501  131.1028   65.1828 H   0  0  0  0  0  0  0  0  0  0  0  0
  126.4881  132.1080   64.1941 H   0  0  0  0  0  0  0  0  0  0  0  0
  125.0607  133.1759   62.4581 H   0  0  0  0  0  0  0  0  0  0  0  0
  123.0462  131.9870   61.6029 H   0  0  0  0  0  0  0  0  0  0  0  0
  122.4560  129.7308   62.4751 H   0  0  0  0  0  0  0  0  0  0  0  0
  123.8768  128.6625   64.2150 H   0  0  0  0  0  0  0  0  0  0  0  0
  124.7417  128.0623   65.7841 H   0  0  0  0  0  0  0  0  0  0  0  0
  126.1566  127.0072   67.5298 H   0  0  0  0  0  0  0  0  0  0  0  0
  128.9607  124.6525   67.0835 H   0  0  0  0  0  0  0  0  0  0  0  0
  130.1021  123.6217   65.1356 H   0  0  0  0  0  0  0  0  0  0  0  0
  130.7648  123.0519   63.4799 H   0  0  0  0  0  0  0  0  0  0  0  0
  131.9080  122.0132   61.5290 H   0  0  0  0  0  0  0  0  0  0  0  0
  1  2  2  0
  2  3  1  0
  3  4  2  0
  4  5  1  0
  5  6  2  0
  6  7  1  0
  7  8  2  0
  8  9  1  0
  9 10  1  0
 10 11  2  0
 11 12  1  0
 12 13  2  0
 13 14  1  0
 14 15  1  0
 15 16  2  0
 16 17  1  0
 17 18  2  0
 18 19  1  0
 19 20  2  0
 11 21  1  0
 21 22  1  0
 22 23  1  0
 23 24  2  0
 24 25  1  0
 25 26  2  0
 26 27  1  0
 27 28  2  0
 28 29  1  0
 29 30  2  0
 30 31  1  0
 31 32  2  0
 26 33  1  0
 33 34  2  0
  8 35  1  0
 35 36  2  0
  4 37  1  0
 37 38  2  0
 38  1  1  0
 36  5  1  0
 22  9  2  0
 34 23  1  0
 20 12  1  0
 32 27  1  0
 20 15  1  0
  1 39  1  0
  2 40  1  0
  3 41  1  0
  6 42  1  0
  7 43  1  0
 13 44  1  0
 14 45  1  0
 16 46  1  0
 17 47  1  0
 18 48  1  0
 19 49  1  0
 21 50  1  0
 24 51  1  0
 25 52  1  0
 28 53  1  0
 29 54  1  0
 30 55  1  0
 31 56  1  0
 32 57  1  0
 33 58  1  0
 34 59  1  0
 35 60  1  0
 36 61  1  0
 37 62  1  0
 38 63  1  0
M  END
>  <Binding energies>  (1) 
[-6.02]

>  <Ligand effiencies>  (1) 
[-0.1505]

>  <Interactions>  (1) 
["V-A:LEU:475:CD2:4257, V-A:ILE:369:CD1:3237, V-B:ILE:369:CD1:8211, V-B:LEU:475:CD2:9231, V-A:GLU:543:CD:4906, V-A:HIS:456:CE1:4068, V-B:GLU:543:CD:9880, V-A:ARG:545:CZ:4924, V-B:GLU:543:CB:9878, V-B:ARG:545:CZ:9898, V-B:GLU:543:CG:9879, V-A:GLU:543:CG:4905, V-A:GLU:543:CB:4904, V-B:HIS:456:CE1:9042, V-A:LYS:547:CE:4948, V-A:GLY:544:C:4910, V-A:GLU:543:C:4900, V-B:LYS:547:CE:9922, V-A:HIS:456:CD2:4066, V-B:HIS:456:CD2:9040, V-B:GLU:543:C:9874, V-A:HIS:456:CG:4064, H-B:HIS:456:NE2:9043, H-A:GLU:543:O:4901, V-B:GLU:543:CA:9876, V-B:ARG:545:CG:9894, V-B:ARG:545:CD:9895, V-A:ARG:545:CD:4921, V-A:ARG:545:CG:4920, V-A:GLY:454:CA:4047, V-A:TYR:484:CZ:4345, V-B:TYR:484:CZ:9319, V-A:HIS:456:CB:4063, V-B:GLY:454:CA:9021, V-A:LYS:547:CD:4947, V-B:GLY:453:C:9014, V-B:GLY:453:CA:9016, V-A:GLY:453:C:4040, V-A:GLY:453:CA:4042, V-B:TYR:484:CE1:9317, V-A:TYR:484:CE1:4343, V-A:GLU:543:CA:4902"]

$$$$
RR4_Rahimova_2017
     RDKit          3D

 66 70  0  0  0  0  0  0  0  0999 V2000
  130.1200  120.5450   60.6850 C   0  0  0  0  0  0  0  0  0  0  0  0
  130.6170  121.5830   59.8480 O   0  0  0  0  0  0  0  0  0  0  0  0
  130.2530  122.8910   60.1070 C   0  0  0  0  0  0  0  0  0  0  0  0
  131.2220  123.8660   59.8800 C   0  0  0  0  0  0  0  0  0  0  0  0
  130.9440  125.2090   60.1120 C   0  0  0  0  0  0  0  0  0  0  0  0
  129.6870  125.6180   60.5820 C   0  0  0  0  0  0  0  0  0  0  0  0
  129.3910  127.0690   60.8320 C   0  0  0  0  0  0  0  0  0  0  0  0
  128.3190  127.4990   61.6210 C   0  0  0  0  0  0  0  0  0  0  0  0
  128.0870  128.8650   61.8280 C   0  0  0  0  0  0  0  0  0  0  0  0
  126.9400  129.2470   62.7060 C   0  0  0  0  0  0  0  0  0  0  0  0
  127.0890  129.2470   64.0960 C   0  0  0  0  0  0  0  0  0  0  0  0
  126.0290  129.6130   64.9210 C   0  0  0  0  0  0  0  0  0  0  0  0
  124.8030  129.9920   64.3740 C   0  0  0  0  0  0  0  0  0  0  0  0
  123.8100  130.3400   65.2690 O   0  0  0  0  0  0  0  0  0  0  0  0
  123.9210  129.9240   66.6260 C   0  0  0  0  0  0  0  0  0  0  0  0
  124.6510  129.9990   62.9790 C   0  0  0  0  0  0  0  0  0  0  0  0
  125.7130  129.6330   62.1560 C   0  0  0  0  0  0  0  0  0  0  0  0
  128.9450  129.7980   61.1970 C   0  0  0  0  0  0  0  0  0  0  0  0
  128.7470  131.2390   61.3810 C   0  0  0  0  0  0  0  0  0  0  0  0
  128.5910  132.3770   61.5260 N   0  0  0  0  0  0  0  0  0  0  0  0
  129.9900  129.2950   60.3900 C   0  0  0  0  0  0  0  0  0  0  0  0
  131.1530  130.3190   59.5130 S   0  0  0  0  0  0  0  0  0  0  0  0
  130.5520  130.5040   57.8010 C   0  0  0  0  0  0  0  0  0  0  0  0
  129.4040  129.5580   57.4230 C   0  0  0  0  0  0  0  0  0  0  0  0
  128.3600  130.0020   56.9390 O   0  0  0  0  0  0  0  0  0  0  0  0
  129.6400  128.2500   57.6790 N   0  0  0  0  0  0  0  0  0  0  0  0
  128.8040  127.1550   57.4490 C   0  0  0  0  0  0  0  0  0  0  0  0
  127.2530  126.9670   58.2230 S   0  0  0  0  0  0  0  0  0  0  0  0
  126.9690  125.4570   57.4130 C   0  0  0  0  0  0  0  0  0  0  0  0
  128.0410  125.1110   56.5770 C   0  0  0  0  0  0  0  0  0  0  0  0
  129.0720  126.0810   56.5860 C   0  0  0  0  0  0  0  0  0  0  0  0
  130.2890  125.9690   55.7880 C   0  0  0  0  0  0  0  0  0  0  0  0
  131.2540  125.8800   55.1550 N   0  0  0  0  0  0  0  0  0  0  0  0
  128.0140  123.8380   55.7220 C   0  0  0  0  0  0  0  0  0  0  0  0
  126.5750  123.2830   55.6170 C   0  0  0  0  0  0  0  0  0  0  0  0
  125.8620  123.2550   56.9800 C   0  0  0  0  0  0  0  0  0  0  0  0
  125.6730  124.6710   57.5630 C   0  0  0  0  0  0  0  0  0  0  0  0
  130.2120  127.9690   60.2320 N   0  0  0  0  0  0  0  0  0  0  0  0
  128.7160  124.6290   60.8030 C   0  0  0  0  0  0  0  0  0  0  0  0
  128.9910  123.2840   60.5720 C   0  0  0  0  0  0  0  0  0  0  0  0
  130.2554  120.8277   61.7394 H   0  0  0  0  0  0  0  0  0  0  0  0
  129.0501  120.3903   60.4813 H   0  0  0  0  0  0  0  0  0  0  0  0
  130.6703  119.6146   60.4813 H   0  0  0  0  0  0  0  0  0  0  0  0
  132.2164  123.5709   59.5138 H   0  0  0  0  0  0  0  0  0  0  0  0
  131.7226  125.9629   59.9238 H   0  0  0  0  0  0  0  0  0  0  0  0
  127.6514  126.7571   62.0836 H   0  0  0  0  0  0  0  0  0  0  0  0
  128.0516  128.9555   64.5415 H   0  0  0  0  0  0  0  0  0  0  0  0
  126.1593  129.6032   66.0132 H   0  0  0  0  0  0  0  0  0  0  0  0
  123.6947  130.7720   67.2891 H   0  0  0  0  0  0  0  0  0  0  0  0
  123.2092  129.1078   66.8187 H   0  0  0  0  0  0  0  0  0  0  0  0
  124.9448  129.5709   66.8187 H   0  0  0  0  0  0  0  0  0  0  0  0
  123.6895  130.2947   62.5340 H   0  0  0  0  0  0  0  0  0  0  0  0
  125.5859  129.6475   61.0635 H   0  0  0  0  0  0  0  0  0  0  0  0
  130.2019  131.5385   57.6698 H   0  0  0  0  0  0  0  0  0  0  0  0
  131.3965  130.2488   57.1440 H   0  0  0  0  0  0  0  0  0  0  0  0
  130.5390  128.0220   58.0780 H   0  0  0  0  0  0  0  0  0  0  0  0
  128.3856  124.0720   54.7135 H   0  0  0  0  0  0  0  0  0  0  0  0
  128.6530  123.0787   56.1965 H   0  0  0  0  0  0  0  0  0  0  0  0
  125.9992  123.9195   54.9290 H   0  0  0  0  0  0  0  0  0  0  0  0
  126.6381  122.2488   55.2476 H   0  0  0  0  0  0  0  0  0  0  0  0
  124.8740  122.7879   56.8544 H   0  0  0  0  0  0  0  0  0  0  0  0
  126.4878  122.6807   57.6789 H   0  0  0  0  0  0  0  0  0  0  0  0
  124.8664  125.1864   57.0210 H   0  0  0  0  0  0  0  0  0  0  0  0
  125.4091  124.5975   58.6283 H   0  0  0  0  0  0  0  0  0  0  0  0
  127.7196  124.9220   61.1653 H   0  0  0  0  0  0  0  0  0  0  0  0
  128.2145  122.5268   60.7552 H   0  0  0  0  0  0  0  0  0  0  0  0
  1  2  1  0
  2  3  1  0
  3  4  2  0
  4  5  1  0
  5  6  2  0
  6  7  1  0
  7  8  2  0
  8  9  1  0
  9 10  1  0
 10 11  2  0
 11 12  1  0
 12 13  2  0
 13 14  1  0
 14 15  1  0
 13 16  1  0
 16 17  2  0
  9 18  2  0
 18 19  1  0
 19 20  3  0
 18 21  1  0
 21 22  1  0
 22 23  1  0
 23 24  1  0
 24 25  2  0
 24 26  1  0
 26 27  1  0
 27 28  1  0
 28 29  1  0
 29 30  2  0
 30 31  1  0
 31 32  1  0
 32 33  3  0
 30 34  1  0
 34 35  1  0
 35 36  1  0
 36 37  1  0
 21 38  2  0
  6 39  1  0
 39 40  2  0
 40  3  1  0
 38  7  1  0
 17 10  1  0
 31 27  2  0
 37 29  1  0
  1 41  1  0
  1 42  1  0
  1 43  1  0
  4 44  1  0
  5 45  1  0
  8 46  1  0
 11 47  1  0
 12 48  1  0
 15 49  1  0
 15 50  1  0
 15 51  1  0
 16 52  1  0
 17 53  1  0
 23 54  1  0
 23 55  1  0
 26 56  1  0
 34 57  1  0
 34 58  1  0
 35 59  1  0
 35 60  1  0
 36 61  1  0
 36 62  1  0
 37 63  1  0
 37 64  1  0
 39 65  1  0
 40 66  1  0
M  END
>  <Binding energies>  (1) 
[-8.37]

>  <Ligand effiencies>  (1) 
[-0.20414634146341462]

>  <Interactions>  (1) 
["V-B:TYR:539:CD2:9846, V-B:PRO:540:CA:9855, V-A:LEU:475:CD2:4257, V-B:ALA:541:CB:9864, V-B:TYR:539:CE2:9848, V-B:PRO:540:N:9856, V-B:ILE:538:CB:9834, H-A:TYR:531:OH:4793, V-B:PRO:540:CD:9859, V-B:PRO:540:CB:9857, H-A:ASP:366:OD2:3213, H-A:ALA:541:N:4889, V-B:TYR:539:CE1:9847, V-A:GLU:543:CD:4906, V-B:ILE:538:CA:9832, V-B:TYR:539:C:9839, V-B:ARG:545:CZ:9898, H-B:ARG:545:NE:9896, H-B:GLY:454:N:9022, H-B:TYR:484:OH:9320, V-B:HIS:456:CE1:9042, H-B:TYR:539:OH:9850, V-B:ARG:545:CG:9894, V-B:ARG:545:CD:9895, V-B:TYR:484:CZ:9319, V-B:GLY:454:CA:9021"]

$$$$
RR5_Rahimova_2017
     RDKit          3D

 77 82  0  0  0  0  0  0  0  0999 V2000
  128.6780  122.4990   57.3880 O   0  0  0  0  0  0  0  0  0  0  0  0
  128.6300  123.6840   57.0620 C   0  0  0  0  0  0  0  0  0  0  0  0
  128.7180  124.0700   55.5730 C   0  0  0  0  0  0  0  0  0  0  0  0
  127.3530  124.5410   54.9540 C   0  0  2  0  0  0  0  0  0  0  0  0
  126.9870  125.9410   55.2470 N   0  0  0  0  0  0  0  0  0  0  0  0
  127.9400  126.8800   55.6180 C   0  0  0  0  0  0  0  0  0  0  0  0
  129.1570  126.7000   55.7030 O   0  0  0  0  0  0  0  0  0  0  0  0
  127.3110  128.0370   55.8900 O   0  0  0  0  0  0  0  0  0  0  0  0
  127.2840  128.5750   57.2090 C   0  0  0  0  0  0  0  0  0  0  0  0
  127.2580  130.1190   57.1720 C   0  0  0  0  0  0  0  0  0  0  0  0
  127.3560  130.7630   58.5430 C   0  0  0  0  0  0  0  0  0  0  0  0
  126.5290  130.6100   59.6590 C   0  0  0  0  0  0  0  0  0  0  0  0
  126.8240  131.2910   60.8420 C   0  0  0  0  0  0  0  0  0  0  0  0
  127.9410  132.1260   60.9100 C   0  0  0  0  0  0  0  0  0  0  0  0
  128.7670  132.2830   59.7960 C   0  0  0  0  0  0  0  0  0  0  0  0
  128.4700  131.6010   58.6140 C   0  0  0  0  0  0  0  0  0  0  0  0
  129.1480  131.5860   57.3090 C   0  0  0  0  0  0  0  0  0  0  0  0
  130.2880  132.2560   56.8570 C   0  0  0  0  0  0  0  0  0  0  0  0
  130.7150  132.0800   55.5400 C   0  0  0  0  0  0  0  0  0  0  0  0
  130.0080  131.2370   54.6800 C   0  0  0  0  0  0  0  0  0  0  0  0
  128.8720  130.5670   55.1370 C   0  0  0  0  0  0  0  0  0  0  0  0
  128.4430  130.7370   56.4550 C   0  0  0  0  0  0  0  0  0  0  0  0
  126.2010  123.6000   55.3830 C   0  0  0  0  0  0  0  0  0  0  0  0
  126.3500  122.5420   55.9610 O   0  0  0  0  0  0  0  0  0  0  0  0
  125.0020  124.1510   55.0290 O   0  0  0  0  0  0  0  0  0  0  0  0
  128.4720  124.7160   57.9210 N   0  0  0  0  0  0  0  0  0  0  0  0
  128.3430  124.8040   59.4070 C   0  0  0  0  0  0  0  0  0  0  0  0
  126.8200  124.5050   59.6210 C   0  0  0  0  0  0  0  0  0  0  0  0
  125.9260  124.4450   58.5390 C   0  0  0  0  0  0  0  0  0  0  0  0
  124.5750  124.1770   58.7410 C   0  0  0  0  0  0  0  0  0  0  0  0
  124.0930  123.9750   60.0300 C   0  0  0  0  0  0  0  0  0  0  0  0
  124.9560  124.0270   61.1190 C   0  0  0  0  0  0  0  0  0  0  0  0
  126.3080  124.2850   60.9150 C   0  0  0  0  0  0  0  0  0  0  0  0
  129.2650  123.7000   60.0230 C   0  0  0  0  0  0  0  0  0  0  0  0
  128.8170  122.3820   60.2080 C   0  0  0  0  0  0  0  0  0  0  0  0
  129.6490  121.4200   60.7760 C   0  0  0  0  0  0  0  0  0  0  0  0
  130.9380  121.7640   61.1680 C   0  0  0  0  0  0  0  0  0  0  0  0
  131.4060  123.0610   60.9920 C   0  0  0  0  0  0  0  0  0  0  0  0
  130.5770  124.0190   60.4160 C   0  0  0  0  0  0  0  0  0  0  0  0
  128.7350  126.2710   59.7910 C   0  0  0  0  0  0  0  0  0  0  0  0
  129.6710  126.9930   59.0290 C   0  0  0  0  0  0  0  0  0  0  0  0
  130.0290  128.2940   59.3700 C   0  0  0  0  0  0  0  0  0  0  0  0
  129.4510  128.9010   60.4780 C   0  0  0  0  0  0  0  0  0  0  0  0
  128.5130  128.2180   61.2430 C   0  0  0  0  0  0  0  0  0  0  0  0
  128.1570  126.9170   60.8990 C   0  0  0  0  0  0  0  0  0  0  0  0
  129.4454  124.8887   55.4702 H   0  0  0  0  0  0  0  0  0  0  0  0
  129.0200  123.1644   55.0265 H   0  0  0  0  0  0  0  0  0  0  0  0
  127.5071  124.4902   53.8660 H   0  0  0  0  0  0  0  0  0  0  0  0
  126.0080  126.1690   55.3440 H   0  0  0  0  0  0  0  0  0  0  0  0
  126.3849  128.2117   57.7282 H   0  0  0  0  0  0  0  0  0  0  0  0
  128.1908  128.2506   57.7404 H   0  0  0  0  0  0  0  0  0  0  0  0
  126.2989  130.3056   56.6668 H   0  0  0  0  0  0  0  0  0  0  0  0
  125.6473  129.9544   59.6058 H   0  0  0  0  0  0  0  0  0  0  0  0
  126.1752  131.1693   61.7219 H   0  0  0  0  0  0  0  0  0  0  0  0
  128.1704  132.6611   61.8433 H   0  0  0  0  0  0  0  0  0  0  0  0
  129.6473  132.9405   59.8487 H   0  0  0  0  0  0  0  0  0  0  0  0
  130.8457  132.9184   57.5354 H   0  0  0  0  0  0  0  0  0  0  0  0
  131.6106  132.6066   55.1785 H   0  0  0  0  0  0  0  0  0  0  0  0
  130.3464  131.1010   53.6422 H   0  0  0  0  0  0  0  0  0  0  0  0
  128.3143  129.9047   54.4585 H   0  0  0  0  0  0  0  0  0  0  0  0
  124.8920  125.0360   55.3810 H   0  0  0  0  0  0  0  0  0  0  0  0
  128.5540  125.6260   57.4920 H   0  0  0  0  0  0  0  0  0  0  0  0
  126.2988  124.6122   57.5177 H   0  0  0  0  0  0  0  0  0  0  0  0
  123.8895  124.1250   57.8823 H   0  0  0  0  0  0  0  0  0  0  0  0
  123.0234  123.7730   60.1887 H   0  0  0  0  0  0  0  0  0  0  0  0
  124.5717  123.8650   62.1369 H   0  0  0  0  0  0  0  0  0  0  0  0
  126.9886  124.3177   61.7786 H   0  0  0  0  0  0  0  0  0  0  0  0
  127.7974  122.1061   59.9009 H   0  0  0  0  0  0  0  0  0  0  0  0
  129.2871  120.3905   60.9141 H   0  0  0  0  0  0  0  0  0  0  0  0
  131.5921  121.0042   61.6207 H   0  0  0  0  0  0  0  0  0  0  0  0
  132.4257  123.3286   61.3062 H   0  0  0  0  0  0  0  0  0  0  0  0
  130.9538  125.0415   60.2658 H   0  0  0  0  0  0  0  0  0  0  0  0
  130.1286  126.5207   58.1472 H   0  0  0  0  0  0  0  0  0  0  0  0
  130.7672  128.8399   58.7642 H   0  0  0  0  0  0  0  0  0  0  0  0
  129.7372  129.9274   60.7512 H   0  0  0  0  0  0  0  0  0  0  0  0
  128.0538  128.7035   62.1167 H   0  0  0  0  0  0  0  0  0  0  0  0
  127.4096  126.3839   61.5050 H   0  0  0  0  0  0  0  0  0  0  0  0
  1  2  2  0
  2  3  1  0
  3  4  1  0
  4  5  1  0
  5  6  1  0
  6  7  2  0
  6  8  1  0
  8  9  1  0
  9 10  1  0
 10 11  1  0
 11 12  2  0
 12 13  1  0
 13 14  2  0
 14 15  1  0
 15 16  2  0
 16 17  1  0
 17 18  2  0
 18 19  1  0
 19 20  2  0
 20 21  1  0
 21 22  2  0
  4 23  1  0
 23 24  2  0
 23 25  1  0
  2 26  1  0
 26 27  1  0
 27 28  1  0
 28 29  2  0
 29 30  1  0
 30 31  2  0
 31 32  1  0
 32 33  2  0
 27 34  1  0
 34 35  2  0
 35 36  1  0
 36 37  2  0
 37 38  1  0
 38 39  2  0
 27 40  1  0
 40 41  2  0
 41 42  1  0
 42 43  2  0
 43 44  1  0
 44 45  2  0
 22 10  1  0
 33 28  1  0
 39 34  1  0
 45 40  1  0
 16 11  1  0
 22 17  1  0
  3 46  1  0
  3 47  1  0
  4 48  1  6
  5 49  1  0
  9 50  1  0
  9 51  1  0
 10 52  1  0
 12 53  1  0
 13 54  1  0
 14 55  1  0
 15 56  1  0
 18 57  1  0
 19 58  1  0
 20 59  1  0
 21 60  1  0
 25 61  1  0
 26 62  1  0
 29 63  1  0
 30 64  1  0
 31 65  1  0
 32 66  1  0
 33 67  1  0
 35 68  1  0
 36 69  1  0
 37 70  1  0
 38 71  1  0
 39 72  1  0
 41 73  1  0
 42 74  1  0
 43 75  1  0
 44 76  1  0
 45 77  1  0
M  END
>  <Binding energies>  (1) 
[-10.55]

>  <Ligand effiencies>  (1) 
[-0.2197916666666667]

>  <Interactions>  (1) 
["V-A:ILE:538:CG2:4861, V-B:ASP:366:CG:8185, V-A:PRO:540:N:4882, V-B:TYR:539:CD2:9846, H-B:TYR:531:OH:9767, V-B:PRO:540:CA:9855, V-B:ASN:362:CB:8148, V-A:LEU:475:CD2:4257, V-B:ALA:541:CB:9864, V-A:ILE:538:CB:4860, V-A:ILE:538:CA:4858, V-B:TYR:539:CE2:9848, V-B:ILE:538:CB:9834, V-A:TYR:539:CD2:4872, V-B:PRO:540:CB:9857, V-A:TYR:539:CE2:4874, V-B:ILE:538:CG2:9835, V-A:TYR:539:CZ:4875, V-A:PRO:540:CA:4881, V-B:TYR:539:CZ:9849, V-B:TYR:539:CE1:9847, V-B:ILE:538:CA:9832, V-B:TYR:539:C:9839, V-B:TYR:531:CZ:9766, V-A:TYR:539:C:4865, H-B:TYR:539:N:9842, V-B:ASN:362:C:8144, V-A:TYR:539:CA:4867, H-B:MET:535:SD:9806"]

$$$$
RR5_Rahimova_2017-again1
     RDKit          3D

 76 81  0  0  0  0  0  0  0  0999 V2000
  128.9970  127.5350   58.6850 O   0  0  0  0  0  0  0  0  0  0  0  0
  130.2170  127.6420   58.5650 C   0  0  0  0  0  0  0  0  0  0  0  0
  131.0930  126.3820   58.7220 C   0  0  0  0  0  0  0  0  0  0  0  0
  131.4810  125.6280   57.4080 C   0  0  2  0  0  0  0  0  0  0  0  0
  130.2910  124.9250   56.8840 N   0  0  0  0  0  0  0  0  0  0  0  0
  129.3520  125.5720   56.0900 C   0  0  0  0  0  0  0  0  0  0  0  0
  129.3680  126.7590   55.7520 O   0  0  0  0  0  0  0  0  0  0  0  0
  128.4000  124.6860   55.7380 O   0  0  0  0  0  0  0  0  0  0  0  0
  128.6400  123.2850   55.8160 C   0  0  0  0  0  0  0  0  0  0  0  0
  127.7540  122.6560   56.9080 C   0  0  0  0  0  0  0  0  0  0  0  0
  128.1250  123.0920   58.3150 C   0  0  0  0  0  0  0  0  0  0  0  0
  129.3300  122.9420   59.0060 C   0  0  0  0  0  0  0  0  0  0  0  0
  129.4550  123.4400   60.3050 C   0  0  0  0  0  0  0  0  0  0  0  0
  128.3760  124.0810   60.9160 C   0  0  0  0  0  0  0  0  0  0  0  0
  127.1690  124.2270   60.2310 C   0  0  0  0  0  0  0  0  0  0  0  0
  127.0470  123.7300   58.9320 C   0  0  0  0  0  0  0  0  0  0  0  0
  125.9110  123.7340   57.9970 C   0  0  0  0  0  0  0  0  0  0  0  0
  124.6140  124.2330   58.1300 C   0  0  0  0  0  0  0  0  0  0  0  0
  123.7090  124.0920   57.0770 C   0  0  0  0  0  0  0  0  0  0  0  0
  124.1000  123.4550   55.8970 C   0  0  0  0  0  0  0  0  0  0  0  0
  125.3980  122.9580   55.7670 C   0  0  0  0  0  0  0  0  0  0  0  0
  126.3080  123.1000   56.8190 C   0  0  0  0  0  0  0  0  0  0  0  0
  132.6990  124.6420   57.6280 C   0  0  0  0  0  0  0  0  0  0  0  0
  133.6680  124.8390   56.8580 O   0  0  0  0  0  0  0  0  0  0  0  0
  132.5900  123.8060   58.5570 O   0  0  0  0  0  0  0  0  0  0  0  0
  130.8180  128.7880   58.1780 N   0  0  0  0  0  0  0  0  0  0  0  0
  130.2280  130.1300   57.9350 C   0  0  0  0  0  0  0  0  0  0  0  0
  129.0460  130.0210   56.9210 C   0  0  0  0  0  0  0  0  0  0  0  0
  129.2690  129.6190   55.5920 C   0  0  0  0  0  0  0  0  0  0  0  0
  128.2150  129.5090   54.6900 C   0  0  0  0  0  0  0  0  0  0  0  0
  126.9190  129.7950   55.1060 C   0  0  0  0  0  0  0  0  0  0  0  0
  126.6700  130.1900   56.4160 C   0  0  0  0  0  0  0  0  0  0  0  0
  127.7250  130.3010   57.3170 C   0  0  0  0  0  0  0  0  0  0  0  0
  129.5800  130.8080   59.1850 C   0  0  0  0  0  0  0  0  0  0  0  0
  129.1010  130.0370   60.2570 C   0  0  0  0  0  0  0  0  0  0  0  0
  128.5210  130.6380   61.3710 C   0  0  0  0  0  0  0  0  0  0  0  0
  128.4190  132.0240   61.4310 C   0  0  0  0  0  0  0  0  0  0  0  0
  128.8950  132.8110   60.3870 C   0  0  0  0  0  0  0  0  0  0  0  0
  129.4730  132.2060   59.2740 C   0  0  0  0  0  0  0  0  0  0  0  0
  131.4070  130.9610   57.3210 C   0  0  0  0  0  0  0  0  0  0  0  0
  132.7390  130.7680   57.7280 C   0  0  0  0  0  0  0  0  0  0  0  0
  133.7760  131.5010   57.1600 C   0  0  0  0  0  0  0  0  0  0  0  0
  133.4990  132.4310   56.1640 C   0  0  0  0  0  0  0  0  0  0  0  0
  132.1940  132.6260   55.7260 C   0  0  0  0  0  0  0  0  0  0  0  0
  131.1580  131.8910   56.2970 C   0  0  0  0  0  0  0  0  0  0  0  0
  132.0257  126.6845   59.2205 H   0  0  0  0  0  0  0  0  0  0  0  0
  130.4770  125.6710   59.2921 H   0  0  0  0  0  0  0  0  0  0  0  0
  131.8191  126.3633   56.6629 H   0  0  0  0  0  0  0  0  0  0  0  0
  130.2000  123.9340   57.0580 H   0  0  0  0  0  0  0  0  0  0  0  0
  128.4064  122.8213   54.8462 H   0  0  0  0  0  0  0  0  0  0  0  0
  129.6972  123.1143   56.0676 H   0  0  0  0  0  0  0  0  0  0  0  0
  127.9009  121.5796   56.7352 H   0  0  0  0  0  0  0  0  0  0  0  0
  130.1793  122.4323   58.5276 H   0  0  0  0  0  0  0  0  0  0  0  0
  130.4053  123.3269   60.8474 H   0  0  0  0  0  0  0  0  0  0  0  0
  128.4773  124.4717   61.9393 H   0  0  0  0  0  0  0  0  0  0  0  0
  126.3179  124.7312   60.7121 H   0  0  0  0  0  0  0  0  0  0  0  0
  124.3070  124.7346   59.0596 H   0  0  0  0  0  0  0  0  0  0  0  0
  122.6858  124.4833   57.1765 H   0  0  0  0  0  0  0  0  0  0  0  0
  123.3842  123.3448   55.0691 H   0  0  0  0  0  0  0  0  0  0  0  0
  125.7046  122.4552   54.8379 H   0  0  0  0  0  0  0  0  0  0  0  0
  131.8270  128.7780   58.1740 H   0  0  0  0  0  0  0  0  0  0  0  0
  130.2921  129.3880   55.2604 H   0  0  0  0  0  0  0  0  0  0  0  0
  128.4060  129.1972   53.6525 H   0  0  0  0  0  0  0  0  0  0  0  0
  126.0851  129.7082   54.3939 H   0  0  0  0  0  0  0  0  0  0  0  0
  125.6426  130.4140   56.7390 H   0  0  0  0  0  0  0  0  0  0  0  0
  127.5235  130.6118   58.3527 H   0  0  0  0  0  0  0  0  0  0  0  0
  129.1855  128.9410   60.2157 H   0  0  0  0  0  0  0  0  0  0  0  0
  128.1453  130.0198   62.1996 H   0  0  0  0  0  0  0  0  0  0  0  0
  127.9592  132.5007   62.3092 H   0  0  0  0  0  0  0  0  0  0  0  0
  128.8150  133.9068   60.4407 H   0  0  0  0  0  0  0  0  0  0  0  0
  129.8514  132.8319   58.4523 H   0  0  0  0  0  0  0  0  0  0  0  0
  132.9646  130.0257   58.5078 H   0  0  0  0  0  0  0  0  0  0  0  0
  134.8113  131.3455   57.4975 H   0  0  0  0  0  0  0  0  0  0  0  0
  134.3177  133.0162   55.7198 H   0  0  0  0  0  0  0  0  0  0  0  0
  131.9808  133.3572   54.9324 H   0  0  0  0  0  0  0  0  0  0  0  0
  130.1281  132.0407   55.9408 H   0  0  0  0  0  0  0  0  0  0  0  0
  1  2  2  0
  2  3  1  0
  3  4  1  0
  4  5  1  0
  5  6  1  0
  6  7  2  0
  6  8  1  0
  8  9  1  0
  9 10  1  0
 10 11  1  0
 11 12  2  0
 12 13  1  0
 13 14  2  0
 14 15  1  0
 15 16  2  0
 16 17  1  0
 17 18  2  0
 18 19  1  0
 19 20  2  0
 20 21  1  0
 21 22  2  0
  4 23  1  0
 23 24  2  0
 23 25  1  0
  2 26  1  0
 26 27  1  0
 27 28  1  0
 28 29  2  0
 29 30  1  0
 30 31  2  0
 31 32  1  0
 32 33  2  0
 27 34  1  0
 34 35  2  0
 35 36  1  0
 36 37  2  0
 37 38  1  0
 38 39  2  0
 27 40  1  0
 40 41  2  0
 41 42  1  0
 42 43  2  0
 43 44  1  0
 44 45  2  0
 22 10  1  0
 33 28  1  0
 39 34  1  0
 45 40  1  0
 16 11  1  0
 22 17  1  0
  3 46  1  0
  3 47  1  0
  4 48  1  6
  5 49  1  0
  9 50  1  0
  9 51  1  0
 10 52  1  0
 12 53  1  0
 13 54  1  0
 14 55  1  0
 15 56  1  0
 18 57  1  0
 19 58  1  0
 20 59  1  0
 21 60  1  0
 26 61  1  0
 29 62  1  0
 30 63  1  0
 31 64  1  0
 32 65  1  0
 33 66  1  0
 35 67  1  0
 36 68  1  0
 37 69  1  0
 38 70  1  0
 39 71  1  0
 41 72  1  0
 42 73  1  0
 43 74  1  0
 44 75  1  0
 45 76  1  0
M  CHG  1  25  -1
M  END
>  <Binding energies>  (1) 
[-10.74]

>  <Ligand effiencies>  (1) 
[-0.22851063829787235]

>  <Interactions>  (1) 
["V-A:ILE:538:CG2:4861, V-A:PRO:540:CD:4885, V-A:PRO:540:N:4882, V-B:TYR:539:CD2:9846, V-B:PRO:540:CA:9855, V-A:ILE:538:CB:4860, V-A:ILE:538:CA:4858, V-B:TYR:539:CE2:9848, V-B:PRO:540:N:9856, V-B:ILE:538:CB:9834, V-A:ASP:366:CG:3211, H-A:TYR:531:OH:4793, V-B:TYR:531:CE2:9765, V-B:PRO:540:CD:9859, V-B:PRO:540:CB:9857, V-A:ASP:366:CB:3210, V-A:TYR:539:CE2:4874, H-A:ASP:366:OD2:3213, V-B:ILE:538:CG2:9835, V-A:TYR:539:CZ:4875, V-A:PRO:540:CA:4881, V-B:TYR:539:CZ:9849, V-B:TYR:539:CE1:9847, V-A:ALA:541:CB:4890, V-B:ILE:538:CA:9832, V-B:TYR:539:CG:9844, V-B:TYR:539:C:9839, V-B:LEU:363:CD1:8161, V-B:TYR:539:CA:9841, V-B:TYR:531:CZ:9766, V-B:TYR:539:CD1:9845, V-A:PRO:540:CB:4883, V-A:LEU:363:CD1:3187, V-A:TYR:539:C:4865, V-A:TYR:531:CE2:4791, H-B:TYR:539:OH:9850, V-A:PRO:540:C:4879, V-A:LEU:363:CB:3185, V-A:LEU:363:CA:3183, V-B:LEU:363:CA:8157, V-A:ILE:538:C:4856, V-B:ILE:538:C:9830, V-A:PRO:540:CG:4884"]

$$$$
RR6_Rahimova_2017
     RDKit          3D

 63 66  0  0  0  0  0  0  0  0999 V2000
  132.5650  131.5720   56.0450 C   0  0  0  0  0  0  0  0  0  0  0  0
  131.5110  131.2670   55.1420 O   0  0  0  0  0  0  0  0  0  0  0  0
  130.2150  131.4950   55.4770 C   0  0  0  0  0  0  0  0  0  0  0  0
  129.7580  132.6210   55.6970 O   0  0  0  0  0  0  0  0  0  0  0  0
  129.3930  130.2410   55.5540 C   0  0  0  0  0  0  0  0  0  0  0  0
  128.1900  130.0970   54.8470 C   0  0  0  0  0  0  0  0  0  0  0  0
  127.4450  128.9230   54.9450 C   0  0  0  0  0  0  0  0  0  0  0  0
  127.8920  127.8720   55.7590 C   0  0  0  0  0  0  0  0  0  0  0  0
  127.2060  126.6590   55.9520 N   0  0  0  0  0  0  0  0  0  0  0  0
  127.4600  125.4390   55.4280 C   0  0  0  0  0  0  0  0  0  0  0  0
  128.3870  125.1690   54.6650 O   0  0  0  0  0  0  0  0  0  0  0  0
  126.4540  124.3420   55.7900 C   0  0  0  0  0  0  0  0  0  0  0  0
  126.8420  123.4750   57.3470 S   0  0  0  0  0  0  0  0  0  0  0  0
  127.5210  124.6910   58.4560 C   0  0  0  0  0  0  0  0  0  0  0  0
  126.8770  125.8830   58.4390 N   0  0  0  0  0  0  0  0  0  0  0  0
  127.2850  126.8800   59.2640 C   0  0  0  0  0  0  0  0  0  0  0  0
  126.4810  128.1470   59.2280 C   0  0  0  0  0  0  0  0  0  0  0  0
  126.3330  128.9420   60.3750 C   0  0  0  0  0  0  0  0  0  0  0  0
  125.5760  130.1100   60.3450 C   0  0  0  0  0  0  0  0  0  0  0  0
  124.9550  130.5080   59.1620 C   0  0  0  0  0  0  0  0  0  0  0  0
  124.1220  131.7770   59.1360 C   0  0  0  0  0  0  0  0  0  0  0  0
  125.0900  129.7340   58.0120 C   0  0  0  0  0  0  0  0  0  0  0  0
  125.8490  128.5680   58.0470 C   0  0  0  0  0  0  0  0  0  0  0  0
  128.3730  126.6970   60.1230 C   0  0  0  0  0  0  0  0  0  0  0  0
  129.0590  125.4750   60.1560 C   0  0  0  0  0  0  0  0  0  0  0  0
  130.1990  125.3420   61.1110 C   0  0  0  0  0  0  0  0  0  0  0  0
  131.3870  124.7250   60.7060 C   0  0  0  0  0  0  0  0  0  0  0  0
  132.4610  124.6110   61.5850 C   0  0  0  0  0  0  0  0  0  0  0  0
  132.3710  125.1160   62.8810 C   0  0  0  0  0  0  0  0  0  0  0  0
  133.4860  124.9600   63.6820 O   0  0  0  0  0  0  0  0  0  0  0  0
  133.3590  125.1330   65.0890 C   0  0  0  0  0  0  0  0  0  0  0  0
  131.1840  125.7410   63.2910 C   0  0  0  0  0  0  0  0  0  0  0  0
  130.1120  125.8540   62.4090 C   0  0  0  0  0  0  0  0  0  0  0  0
  128.6270  124.4380   59.2930 C   0  0  0  0  0  0  0  0  0  0  0  0
  129.3170  123.1440   59.2560 C   0  0  0  0  0  0  0  0  0  0  0  0
  129.8610  122.1230   59.2280 N   0  0  0  0  0  0  0  0  0  0  0  0
  129.0970  128.0050   56.4500 C   0  0  0  0  0  0  0  0  0  0  0  0
  129.8380  129.1800   56.3530 C   0  0  0  0  0  0  0  0  0  0  0  0
  132.2039  131.4675   57.0788 H   0  0  0  0  0  0  0  0  0  0  0  0
  133.4031  130.8795   55.8776 H   0  0  0  0  0  0  0  0  0  0  0  0
  132.9038  132.6050   55.8776 H   0  0  0  0  0  0  0  0  0  0  0  0
  127.8312  130.9183   54.2092 H   0  0  0  0  0  0  0  0  0  0  0  0
  126.5050  128.8207   54.3830 H   0  0  0  0  0  0  0  0  0  0  0  0
  126.3590  126.7420   56.4940 H   0  0  0  0  0  0  0  0  0  0  0  0
  125.4593  124.8015   55.8871 H   0  0  0  0  0  0  0  0  0  0  0  0
  126.4936  123.5920   54.9863 H   0  0  0  0  0  0  0  0  0  0  0  0
  126.8225  128.6377   61.3119 H   0  0  0  0  0  0  0  0  0  0  0  0
  125.4679  130.7188   61.2547 H   0  0  0  0  0  0  0  0  0  0  0  0
  123.9111  132.0983   60.1667 H   0  0  0  0  0  0  0  0  0  0  0  0
  124.6765  132.5689   58.6113 H   0  0  0  0  0  0  0  0  0  0  0  0
  123.1749  131.5832   58.6113 H   0  0  0  0  0  0  0  0  0  0  0  0
  124.5978  130.0436   57.0782 H   0  0  0  0  0  0  0  0  0  0  0  0
  125.9557  127.9654   57.1330 H   0  0  0  0  0  0  0  0  0  0  0  0
  128.6936  127.5197   60.7790 H   0  0  0  0  0  0  0  0  0  0  0  0
  131.4737  124.3264   59.6844 H   0  0  0  0  0  0  0  0  0  0  0  0
  133.3874  124.1187   61.2541 H   0  0  0  0  0  0  0  0  0  0  0  0
  133.9330  124.3511   65.6079 H   0  0  0  0  0  0  0  0  0  0  0  0
  133.7469  126.1223   65.3733 H   0  0  0  0  0  0  0  0  0  0  0  0
  132.2989  125.0593   65.3733 H   0  0  0  0  0  0  0  0  0  0  0  0
  131.0996  126.1428   64.3115 H   0  0  0  0  0  0  0  0  0  0  0  0
  129.1873  126.3513   62.7371 H   0  0  0  0  0  0  0  0  0  0  0  0
  129.4636  127.1772   57.0747 H   0  0  0  0  0  0  0  0  0  0  0  0
  130.7821  129.2759   56.9093 H   0  0  0  0  0  0  0  0  0  0  0  0
  1  2  1  0
  2  3  1  0
  3  4  2  0
  3  5  1  0
  5  6  2  0
  6  7  1  0
  7  8  2  0
  8  9  1  0
  9 10  1  0
 10 11  2  0
 10 12  1  0
 12 13  1  0
 13 14  1  0
 14 15  2  0
 15 16  1  0
 16 17  1  0
 17 18  2  0
 18 19  1  0
 19 20  2  0
 20 21  1  0
 20 22  1  0
 22 23  2  0
 16 24  2  0
 24 25  1  0
 25 26  1  0
 26 27  2  0
 27 28  1  0
 28 29  2  0
 29 30  1  0
 30 31  1  0
 29 32  1  0
 32 33  2  0
 25 34  2  0
 34 35  1  0
 35 36  3  0
  8 37  1  0
 37 38  2  0
 38  5  1  0
 34 14  1  0
 23 17  1  0
 33 26  1  0
  1 39  1  0
  1 40  1  0
  1 41  1  0
  6 42  1  0
  7 43  1  0
  9 44  1  0
 12 45  1  0
 12 46  1  0
 18 47  1  0
 19 48  1  0
 21 49  1  0
 21 50  1  0
 21 51  1  0
 22 52  1  0
 23 53  1  0
 24 54  1  0
 27 55  1  0
 28 56  1  0
 31 57  1  0
 31 58  1  0
 31 59  1  0
 32 60  1  0
 33 61  1  0
 37 62  1  0
 38 63  1  0
M  END
>  <Binding energies>  (1) 
[-7.92]

>  <Ligand effiencies>  (1) 
[-0.20307692307692307]

>  <Interactions>  (1) 
["V-B:ASP:366:CG:8185, V-B:TYR:539:CD2:9846, H-B:TYR:531:OH:9767, V-A:ILE:538:CB:4860, V-A:TYR:531:CZ:4792, V-B:TYR:539:CE2:9848, H-A:TYR:531:OH:4793, V-B:ILE:369:CG2:8209, V-A:TYR:539:CE2:4874, V-A:TYR:539:CZ:4875, V-A:HIS:456:CE1:4068, H-A:ARG:545:NE:4922, H-A:TYR:484:OH:4346, H-A:GLY:454:N:4048, V-B:GLU:543:CD:9880, V-A:ARG:545:CZ:4924, H-A:ARG:545:NH2:4926, V-A:TYR:531:CE2:4791, V-B:ASP:366:CB:8184, H-A:TYR:539:N:4868, V-A:ARG:545:CD:4921, V-A:ARG:545:CG:4920, H-A:ARG:545:NH1:4925"]

$$$$
RR7_Rahimova_2017
     RDKit          3D

 80 86  0  0  0  0  0  0  0  0999 V2000
  127.3410  132.6100   63.4580 C   0  0  0  0  0  0  0  0  0  0  0  0
  127.5560  133.3040   62.2320 O   0  0  0  0  0  0  0  0  0  0  0  0
  128.0680  132.6150   61.1500 C   0  0  0  0  0  0  0  0  0  0  0  0
  129.2060  131.8450   61.3830 C   0  0  0  0  0  0  0  0  0  0  0  0
  129.7900  131.1120   60.3550 C   0  0  0  0  0  0  0  0  0  0  0  0
  129.2540  131.1420   59.0590 C   0  0  0  0  0  0  0  0  0  0  0  0
  129.8680  130.3040   57.8950 C   0  0  0  0  0  0  0  0  0  0  0  0
  128.8720  130.2720   56.8470 O   0  0  0  0  0  0  0  0  0  0  0  0
  128.6520  129.0690   56.1040 C   0  0  0  0  0  0  0  0  0  0  0  0
  127.1590  128.7090   56.1650 C   0  0  1  0  0  0  0  0  0  0  0  0
  126.9350  128.0890   57.4290 O   0  0  0  0  0  0  0  0  0  0  0  0
  125.9820  128.7770   58.1870 C   0  0  1  0  0  0  0  0  0  0  0  0
  126.3000  128.6760   59.5990 N   0  0  0  0  0  0  0  0  0  0  0  0
  127.0790  127.7220   60.2310 C   0  0  0  0  0  0  0  0  0  0  0  0
  127.1640  127.8410   61.5330 N   0  0  0  0  0  0  0  0  0  0  0  0
  126.3600  128.9110   61.8170 C   0  0  0  0  0  0  0  0  0  0  0  0
  126.0160  129.5360   63.0310 C   0  0  0  0  0  0  0  0  0  0  0  0
  126.5690  129.0390   64.2270 N   0  0  0  0  0  0  0  0  0  0  0  0
  126.1420  129.2130   65.5000 C   0  0  0  0  0  0  0  0  0  0  0  0
  125.1600  129.8870   65.8170 O   0  0  0  0  0  0  0  0  0  0  0  0
  126.9790  128.5420   66.5690 C   0  0  0  0  0  0  0  0  0  0  0  0
  126.3740  127.6440   67.4620 C   0  0  0  0  0  0  0  0  0  0  0  0
  127.1250  127.0120   68.4480 C   0  0  0  0  0  0  0  0  0  0  0  0
  128.4890  127.2680   68.5470 C   0  0  0  0  0  0  0  0  0  0  0  0
  129.1090  128.1520   67.6680 C   0  0  0  0  0  0  0  0  0  0  0  0
  128.3580  128.7860   66.6820 C   0  0  0  0  0  0  0  0  0  0  0  0
  125.1570  130.5990   63.0150 N   0  0  0  0  0  0  0  0  0  0  0  0
  124.6710  131.0040   61.8130 C   0  0  0  0  0  0  0  0  0  0  0  0
  124.9370  130.4780   60.5870 N   0  0  0  0  0  0  0  0  0  0  0  0
  125.7870  129.4430   60.6330 C   0  0  0  0  0  0  0  0  0  0  0  0
  125.9750  130.1960   57.6300 C   0  0  0  0  0  0  0  0  0  0  0  0
  126.2010  129.9090   56.1560 C   0  0  2  0  0  0  0  0  0  0  0  0
  124.9890  129.6290   55.4770 O   0  0  0  0  0  0  0  0  0  0  0  0
  131.1350  130.9690   57.2940 C   0  0  0  0  0  0  0  0  0  0  0  0
  132.3620  130.9000   57.9750 C   0  0  0  0  0  0  0  0  0  0  0  0
  133.5010  131.5030   57.4530 C   0  0  0  0  0  0  0  0  0  0  0  0
  133.4260  132.1850   56.2420 C   0  0  0  0  0  0  0  0  0  0  0  0
  132.2210  132.2670   55.5500 C   0  0  0  0  0  0  0  0  0  0  0  0
  131.0810  131.6640   56.0740 C   0  0  0  0  0  0  0  0  0  0  0  0
  130.2890  128.8510   58.2550 C   0  0  0  0  0  0  0  0  0  0  0  0
  131.0290  128.0800   57.3440 C   0  0  0  0  0  0  0  0  0  0  0  0
  131.4020  126.7760   57.6530 C   0  0  0  0  0  0  0  0  0  0  0  0
  131.0310  126.2240   58.8760 C   0  0  0  0  0  0  0  0  0  0  0  0
  130.2860  126.9660   59.7880 C   0  0  0  0  0  0  0  0  0  0  0  0
  129.9140  128.2700   59.4770 C   0  0  0  0  0  0  0  0  0  0  0  0
  128.1010  131.9080   58.8330 C   0  0  0  0  0  0  0  0  0  0  0  0
  127.5160  132.6400   59.8620 C   0  0  0  0  0  0  0  0  0  0  0  0
  127.5497  133.2837   64.3022 H   0  0  0  0  0  0  0  0  0  0  0  0
  126.2958  132.2711   63.5091 H   0  0  0  0  0  0  0  0  0  0  0  0
  128.0116  131.7395   63.5091 H   0  0  0  0  0  0  0  0  0  0  0  0
  129.6470  131.8166   62.3903 H   0  0  0  0  0  0  0  0  0  0  0  0
  130.6820  130.5021   60.5607 H   0  0  0  0  0  0  0  0  0  0  0  0
  128.9519  129.2223   55.0568 H   0  0  0  0  0  0  0  0  0  0  0  0
  129.2492  128.2518   56.5347 H   0  0  0  0  0  0  0  0  0  0  0  0
  126.9576  128.0945   55.2751 H   0  0  0  0  0  0  0  0  0  0  0  0
  124.9673  128.3588   58.1124 H   0  0  0  0  0  0  0  0  0  0  0  0
  127.5908  126.9201   59.6787 H   0  0  0  0  0  0  0  0  0  0  0  0
  127.4000  128.4800   64.1020 H   0  0  0  0  0  0  0  0  0  0  0  0
  125.2964  127.4381   67.3816 H   0  0  0  0  0  0  0  0  0  0  0  0
  126.6423  126.3127   69.1465 H   0  0  0  0  0  0  0  0  0  0  0  0
  129.0826  126.7677   69.3264 H   0  0  0  0  0  0  0  0  0  0  0  0
  130.1880  128.3487   67.7523 H   0  0  0  0  0  0  0  0  0  0  0  0
  128.8479  129.4831   65.9863 H   0  0  0  0  0  0  0  0  0  0  0  0
  123.9798  131.8595   61.8334 H   0  0  0  0  0  0  0  0  0  0  0  0
  125.0113  130.6970   57.8042 H   0  0  0  0  0  0  0  0  0  0  0  0
  126.7120  130.8736   58.0858 H   0  0  0  0  0  0  0  0  0  0  0  0
  126.6158  130.7712   55.6132 H   0  0  0  0  0  0  0  0  0  0  0  0
  124.5780  130.4600   55.2280 H   0  0  0  0  0  0  0  0  0  0  0  0
  132.4223  130.3624   58.9328 H   0  0  0  0  0  0  0  0  0  0  0  0
  134.4566  131.4413   57.9944 H   0  0  0  0  0  0  0  0  0  0  0  0
  134.3262  132.6631   55.8284 H   0  0  0  0  0  0  0  0  0  0  0  0
  132.1698  132.8063   54.5926 H   0  0  0  0  0  0  0  0  0  0  0  0
  130.1287  131.7323   55.5277 H   0  0  0  0  0  0  0  0  0  0  0  0
  131.3171  128.5124   56.3745 H   0  0  0  0  0  0  0  0  0  0  0  0
  131.9874  126.1837   56.9343 H   0  0  0  0  0  0  0  0  0  0  0  0
  131.3287  125.1943   59.1233 H   0  0  0  0  0  0  0  0  0  0  0  0
  129.9924  126.5230   60.7511 H   0  0  0  0  0  0  0  0  0  0  0  0
  129.3195  128.8523   60.1964 H   0  0  0  0  0  0  0  0  0  0  0  0
  127.6530  131.9305   57.8286 H   0  0  0  0  0  0  0  0  0  0  0  0
  126.6163  133.2409   59.6635 H   0  0  0  0  0  0  0  0  0  0  0  0
  1  2  1  0
  2  3  1  0
  3  4  2  0
  4  5  1  0
  5  6  2  0
  6  7  1  0
  7  8  1  0
  8  9  1  0
  9 10  1  0
 10 11  1  0
 11 12  1  0
 12 13  1  0
 13 14  1  0
 14 15  2  0
 15 16  1  0
 16 17  2  0
 17 18  1  0
 18 19  1  0
 19 20  2  0
 19 21  1  0
 21 22  2  0
 22 23  1  0
 23 24  2  0
 24 25  1  0
 25 26  2  0
 17 27  1  0
 27 28  2  0
 28 29  1  0
 29 30  2  0
 12 31  1  0
 31 32  1  0
 32 33  1  0
  7 34  1  0
 34 35  2  0
 35 36  1  0
 36 37  2  0
 37 38  1  0
 38 39  2  0
  7 40  1  0
 40 41  2  0
 41 42  1  0
 42 43  2  0
 43 44  1  0
 44 45  2  0
  6 46  1  0
 46 47  2  0
 47  3  1  0
 32 10  1  0
 39 34  1  0
 45 40  1  0
 30 13  1  0
 30 16  1  0
 26 21  1  0
  1 48  1  0
  1 49  1  0
  1 50  1  0
  4 51  1  0
  5 52  1  0
  9 53  1  0
  9 54  1  0
 10 55  1  6
 12 56  1  1
 14 57  1  0
 18 58  1  0
 22 59  1  0
 23 60  1  0
 24 61  1  0
 25 62  1  0
 26 63  1  0
 28 64  1  0
 31 65  1  0
 31 66  1  0
 32 67  1  6
 33 68  1  0
 35 69  1  0
 36 70  1  0
 37 71  1  0
 38 72  1  0
 39 73  1  0
 41 74  1  0
 42 75  1  0
 43 76  1  0
 44 77  1  0
 45 78  1  0
 46 79  1  0
 47 80  1  0
M  END
>  <Binding energies>  (1) 
[-9.67]

>  <Ligand effiencies>  (1) 
[-0.1973469387755102]

>  <Interactions>  (1) 
["V-A:ILE:538:CG2:4861, V-A:PRO:540:CD:4885, V-B:ASP:366:CG:8185, V-A:PRO:540:N:4882, H-B:TYR:531:OH:9767, V-A:ILE:538:CB:4860, V-A:ILE:538:CA:4858, V-A:ASP:366:CG:3211, V-A:TYR:539:CD2:4872, V-A:ASP:366:CB:3210, V-A:TYR:539:CE2:4874, V-A:TYR:539:CZ:4875, H-B:GLU:543:OE2:9882, V-A:PRO:540:CA:4881, H-A:GLU:543:OE2:4908, V-A:ALA:541:CB:4890, V-A:GLU:543:CD:4906, H-B:ARG:545:NH2:9900, H-A:GLU:543:OE1:4907, V-B:GLU:543:CD:9880, V-B:ARG:545:CZ:9898, V-B:GLU:543:CG:9879, H-B:ARG:545:NE:9896, V-A:GLU:543:CG:4905, V-A:PRO:540:CB:4883, V-A:LEU:363:CD1:3187, H-B:TYR:484:OH:9320, V-A:GLU:543:CB:4904, V-A:TYR:531:CE2:4791, V-B:HIS:456:CE1:9042, V-B:ASP:366:CB:8184, H-A:TYR:539:OH:4876, V-B:GLY:544:C:9884, V-A:GLU:543:C:4900, V-B:GLU:543:C:9874, V-B:ARG:545:CG:9894, V-B:ARG:545:CD:9895, V-A:LEU:363:CA:3183, V-A:PRO:540:CG:4884, V-B:ARG:545:CB:9893"]

$$$$
RR8_A_Rahimova_2017
     RDKit          3D

 73 77  0  0  0  0  0  0  0  0999 V2000
  130.1380  132.4350   54.8930 O   0  0  0  0  0  0  0  0  0  0  0  0
  129.4650  131.7870   55.7020 C   0  0  0  0  0  0  0  0  0  0  0  0
  128.2340  131.2530   55.4310 O   0  0  0  0  0  0  0  0  0  0  0  0
  128.1620  129.8730   55.1980 C   0  0  1  0  0  0  0  0  0  0  0  0
  129.4240  129.2740   55.2610 O   0  0  0  0  0  0  0  0  0  0  0  0
  129.3700  127.9910   55.8790 C   0  0  2  0  0  0  0  0  0  0  0  0
  129.9740  126.9560   54.9150 C   0  0  0  0  0  0  0  0  0  0  0  0
  131.0020  126.2450   55.5910 O   0  0  0  0  0  0  0  0  0  0  0  0
  131.1560  126.6090   56.9560 C   0  0  0  0  0  0  0  0  0  0  0  0
  131.8620  125.4930   57.7120 C   0  0  0  0  0  0  0  0  0  0  0  0
  133.1020  125.0280   57.2680 C   0  0  0  0  0  0  0  0  0  0  0  0
  133.7540  124.0110   57.9610 C   0  0  0  0  0  0  0  0  0  0  0  0
  133.1650  123.4640   59.1000 C   0  0  0  0  0  0  0  0  0  0  0  0
  131.9310  123.9260   59.5520 C   0  0  0  0  0  0  0  0  0  0  0  0
  131.2800  124.9440   58.8600 C   0  0  0  0  0  0  0  0  0  0  0  0
  127.8820  127.8030   56.2020 C   0  0  1  0  0  0  0  0  0  0  0  0
  127.6560  127.1620   57.4550 O   0  0  0  0  0  0  0  0  0  0  0  0
  128.0160  125.7870   57.5190 C   0  0  0  0  0  0  0  0  0  0  0  0
  126.9170  124.9330   56.9020 C   0  0  0  0  0  0  0  0  0  0  0  0
  127.0880  124.4000   55.6210 C   0  0  0  0  0  0  0  0  0  0  0  0
  126.0830  123.6260   55.0480 C   0  0  0  0  0  0  0  0  0  0  0  0
  124.9060  123.3890   55.7550 C   0  0  0  0  0  0  0  0  0  0  0  0
  124.7230  123.9230   57.0280 C   0  0  0  0  0  0  0  0  0  0  0  0
  125.7280  124.6980   57.6020 C   0  0  0  0  0  0  0  0  0  0  0  0
  127.3680  129.2260   56.3230 C   0  0  2  0  0  0  0  0  0  0  0  0
  125.9570  129.2690   56.1270 O   0  0  0  0  0  0  0  0  0  0  0  0
  125.1670  128.8820   57.2460 C   0  0  0  0  0  0  0  0  0  0  0  0
  125.0580  130.0380   58.2290 C   0  0  0  0  0  0  0  0  0  0  0  0
  123.8580  130.7450   58.3530 C   0  0  0  0  0  0  0  0  0  0  0  0
  123.7610  131.7970   59.2610 C   0  0  0  0  0  0  0  0  0  0  0  0
  124.8610  132.1360   60.0450 C   0  0  0  0  0  0  0  0  0  0  0  0
  126.0580  131.4330   59.9310 C   0  0  0  0  0  0  0  0  0  0  0  0
  126.1570  130.3810   59.0230 C   0  0  0  0  0  0  0  0  0  0  0  0
  129.9300  131.4910   57.0980 C   0  0  0  0  0  0  0  0  0  0  0  0
  131.1370  130.8210   57.3530 C   0  0  0  0  0  0  0  0  0  0  0  0
  131.5390  130.5610   58.6600 C   0  0  0  0  0  0  0  0  0  0  0  0
  130.7480  130.9610   59.7440 C   0  0  0  0  0  0  0  0  0  0  0  0
  131.1790  130.6850   61.1360 N   0  0  0  0  0  0  0  0  0  0  0  0
  130.8760  129.6090   61.6440 O   0  0  0  0  0  0  0  0  0  0  0  0
  131.8260  131.5410   61.7330 O   0  0  0  0  0  0  0  0  0  0  0  0
  129.5430  131.6270   59.4890 C   0  0  0  0  0  0  0  0  0  0  0  0
  129.1380  131.8880   58.1840 C   0  0  0  0  0  0  0  0  0  0  0  0
  127.7105  129.7360   54.2043 H   0  0  0  0  0  0  0  0  0  0  0  0
  129.9561  127.8771   56.8028 H   0  0  0  0  0  0  0  0  0  0  0  0
  129.1922  126.2543   54.5889 H   0  0  0  0  0  0  0  0  0  0  0  0
  130.3898  127.4651   54.0330 H   0  0  0  0  0  0  0  0  0  0  0  0
  131.7537  127.5300   57.0229 H   0  0  0  0  0  0  0  0  0  0  0  0
  130.1640  126.7770   57.4006 H   0  0  0  0  0  0  0  0  0  0  0  0
  133.5638  125.4653   56.3705 H   0  0  0  0  0  0  0  0  0  0  0  0
  134.7291  123.6411   57.6113 H   0  0  0  0  0  0  0  0  0  0  0  0
  133.6795  122.6601   59.6469 H   0  0  0  0  0  0  0  0  0  0  0  0
  131.4730  123.4887   60.4514 H   0  0  0  0  0  0  0  0  0  0  0  0
  130.3081  125.3166   59.2158 H   0  0  0  0  0  0  0  0  0  0  0  0
  127.3984  127.1785   55.4365 H   0  0  0  0  0  0  0  0  0  0  0  0
  128.9537  125.6296   56.9659 H   0  0  0  0  0  0  0  0  0  0  0  0
  128.1512  125.4972   58.5715 H   0  0  0  0  0  0  0  0  0  0  0  0
  128.0176  124.5925   55.0654 H   0  0  0  0  0  0  0  0  0  0  0  0
  126.2174  123.2033   54.0414 H   0  0  0  0  0  0  0  0  0  0  0  0
  124.1137  122.7741   55.3032 H   0  0  0  0  0  0  0  0  0  0  0  0
  123.7892  123.7337   57.5777 H   0  0  0  0  0  0  0  0  0  0  0  0
  125.5872  125.1255   58.6057 H   0  0  0  0  0  0  0  0  0  0  0  0
  127.5000  129.7174   57.2982 H   0  0  0  0  0  0  0  0  0  0  0  0
  124.1610  128.6000   56.9019 H   0  0  0  0  0  0  0  0  0  0  0  0
  125.6432  128.0257   57.7461 H   0  0  0  0  0  0  0  0  0  0  0  0
  122.9911  130.4706   57.7339 H   0  0  0  0  0  0  0  0  0  0  0  0
  122.8196  132.3576   59.3583 H   0  0  0  0  0  0  0  0  0  0  0  0
  124.7837  132.9672   60.7614 H   0  0  0  0  0  0  0  0  0  0  0  0
  126.9213  131.7072   60.5551 H   0  0  0  0  0  0  0  0  0  0  0  0
  127.0990  129.8205   58.9307 H   0  0  0  0  0  0  0  0  0  0  0  0
  131.7702  130.4989   56.5132 H   0  0  0  0  0  0  0  0  0  0  0  0
  132.4880  130.0358   58.8432 H   0  0  0  0  0  0  0  0  0  0  0  0
  128.9098  131.9472   60.3296 H   0  0  0  0  0  0  0  0  0  0  0  0
  128.1873  132.4108   58.0028 H   0  0  0  0  0  0  0  0  0  0  0  0
  1  2  2  0
  2  3  1  0
  3  4  1  0
  4  5  1  0
  5  6  1  0
  6  7  1  0
  7  8  1  0
  8  9  1  0
  9 10  1  0
 10 11  2  0
 11 12  1  0
 12 13  2  0
 13 14  1  0
 14 15  2  0
  6 16  1  0
 16 17  1  0
 17 18  1  0
 18 19  1  0
 19 20  2  0
 20 21  1  0
 21 22  2  0
 22 23  1  0
 23 24  2  0
 16 25  1  0
 25 26  1  0
 26 27  1  0
 27 28  1  0
 28 29  2  0
 29 30  1  0
 30 31  2  0
 31 32  1  0
 32 33  2  0
  2 34  1  0
 34 35  2  0
 35 36  1  0
 36 37  2  0
 37 38  1  0
 38 39  2  0
 38 40  1  0
 37 41  1  0
 41 42  2  0
 25  4  1  0
 33 28  1  0
 42 34  1  0
 15 10  1  0
 24 19  1  0
  4 43  1  6
  6 44  1  1
  7 45  1  0
  7 46  1  0
  9 47  1  0
  9 48  1  0
 11 49  1  0
 12 50  1  0
 13 51  1  0
 14 52  1  0
 15 53  1  0
 16 54  1  6
 18 55  1  0
 18 56  1  0
 20 57  1  0
 21 58  1  0
 22 59  1  0
 23 60  1  0
 24 61  1  0
 25 62  1  1
 27 63  1  0
 27 64  1  0
 29 65  1  0
 30 66  1  0
 31 67  1  0
 32 68  1  0
 33 69  1  0
 35 70  1  0
 36 71  1  0
 41 72  1  0
 42 73  1  0
M  CHG  2  38   1  40  -1
M  END
>  <Binding energies>  (1) 
[-10.62]

>  <Ligand effiencies>  (1) 
[-0.25285714285714284]

>  <Interactions>  (1) 
["V-B:ASP:366:CG:8185, H-B:TYR:531:OH:9767, V-A:ILE:369:CG2:3235, V-B:TYR:539:CE2:9848, V-B:ILE:538:CB:9834, V-A:ASP:366:CG:3211, V-B:ILE:369:CD1:8211, H-A:TYR:531:OH:4793, V-B:TYR:531:CE2:9765, V-B:PRO:540:CD:9859, V-B:PRO:540:CB:9857, V-B:ILE:369:CG2:8209, V-A:ASP:366:CB:3210, V-A:TYR:539:CE2:4874, V-B:ILE:538:CG2:9835, V-A:TYR:539:CZ:4875, H-A:ALA:541:N:4889, V-A:PRO:540:CA:4881, V-B:TYR:539:CZ:9849, V-A:GLU:543:CD:4906, V-B:ILE:538:CA:9832, V-B:TYR:531:CZ:9766, V-A:TYR:539:C:4865, H-A:ARG:545:NH2:4926, V-B:ASP:366:C:8180, V-B:ASP:366:CB:8184, V-B:ILE:369:CB:8208, V-A:ILE:369:CB:3234, H-A:TYR:539:OH:4876, V-B:ASP:366:CA:8182, V-B:TYR:531:CE1:9764, H-A:TYR:539:N:4868, V-A:ASP:366:CA:3208, V-A:ASP:366:C:3206"]

$$$$
RR8_B_Rahimova_2017
     RDKit          3D

 73 77  0  0  0  0  0  0  0  0999 V2000
  133.2380  125.4730   56.3580 O   0  0  0  0  0  0  0  0  0  0  0  0
  132.3670  125.1280   57.1640 C   0  0  0  0  0  0  0  0  0  0  0  0
  131.0420  124.9870   56.8560 O   0  0  0  0  0  0  0  0  0  0  0  0
  130.6360  125.2490   55.5350 C   0  0  2  0  0  0  0  0  0  0  0  0
  130.8620  126.5830   55.1750 O   0  0  0  0  0  0  0  0  0  0  0  0
  129.7220  127.3970   55.4450 C   0  0  2  0  0  0  0  0  0  0  0  0
  130.1190  128.5340   56.4040 C   0  0  0  0  0  0  0  0  0  0  0  0
  129.4690  129.7340   56.0010 O   0  0  0  0  0  0  0  0  0  0  0  0
  129.6710  130.8420   56.8650 C   0  0  0  0  0  0  0  0  0  0  0  0
  131.1480  131.2090   56.8710 C   0  0  0  0  0  0  0  0  0  0  0  0
  131.6900  131.9240   55.7990 C   0  0  0  0  0  0  0  0  0  0  0  0
  133.0460  132.2420   55.7870 C   0  0  0  0  0  0  0  0  0  0  0  0
  133.8550  131.8450   56.8500 C   0  0  0  0  0  0  0  0  0  0  0  0
  133.3210  131.1380   57.9250 C   0  0  0  0  0  0  0  0  0  0  0  0
  131.9650  130.8170   57.9350 C   0  0  0  0  0  0  0  0  0  0  0  0
  128.6740  126.4170   55.9830 C   0  0  1  0  0  0  0  0  0  0  0  0
  127.3710  126.8090   55.5430 O   0  0  0  0  0  0  0  0  0  0  0  0
  127.1340  128.2090   55.3770 C   0  0  0  0  0  0  0  0  0  0  0  0
  126.5210  128.8430   56.6230 C   0  0  0  0  0  0  0  0  0  0  0  0
  125.4420  129.7230   56.5020 C   0  0  0  0  0  0  0  0  0  0  0  0
  124.8640  130.2740   57.6430 C   0  0  0  0  0  0  0  0  0  0  0  0
  125.3700  129.9470   58.8990 C   0  0  0  0  0  0  0  0  0  0  0  0
  126.4480  129.0740   59.0260 C   0  0  0  0  0  0  0  0  0  0  0  0
  127.0250  128.5190   57.8860 C   0  0  0  0  0  0  0  0  0  0  0  0
  129.1220  125.0710   55.4230 C   0  0  2  0  0  0  0  0  0  0  0  0
  128.6080  124.0060   56.2170 O   0  0  0  0  0  0  0  0  0  0  0  0
  127.5630  123.2480   55.6260 C   0  0  0  0  0  0  0  0  0  0  0  0
  126.2750  123.5520   56.3710 C   0  0  0  0  0  0  0  0  0  0  0  0
  126.3150  124.1120   57.6510 C   0  0  0  0  0  0  0  0  0  0  0  0
  125.1280  124.3680   58.3320 C   0  0  0  0  0  0  0  0  0  0  0  0
  123.9080  124.0660   57.7330 C   0  0  0  0  0  0  0  0  0  0  0  0
  123.8610  123.5090   56.4560 C   0  0  0  0  0  0  0  0  0  0  0  0
  125.0470  123.2530   55.7740 C   0  0  0  0  0  0  0  0  0  0  0  0
  132.6510  124.8520   58.6120 C   0  0  0  0  0  0  0  0  0  0  0  0
  133.6910  124.0000   59.0130 C   0  0  0  0  0  0  0  0  0  0  0  0
  133.9250  123.7560   60.3610 C   0  0  0  0  0  0  0  0  0  0  0  0
  133.1220  124.3480   61.3430 C   0  0  0  0  0  0  0  0  0  0  0  0
  133.3570  124.0650   62.7810 N   0  0  0  0  0  0  0  0  0  0  0  0
  133.8530  124.9450   63.4800 O   0  0  0  0  0  0  0  0  0  0  0  0
  133.0430  122.9630   63.2230 O   0  0  0  0  0  0  0  0  0  0  0  0
  132.0870  125.2040   60.9440 C   0  0  0  0  0  0  0  0  0  0  0  0
  131.8570  125.4540   59.5950 C   0  0  0  0  0  0  0  0  0  0  0  0
  131.2066  124.5626   54.8922 H   0  0  0  0  0  0  0  0  0  0  0  0
  129.3069  127.9217   54.5719 H   0  0  0  0  0  0  0  0  0  0  0  0
  129.8122  128.2755   57.4282 H   0  0  0  0  0  0  0  0  0  0  0  0
  131.2093  128.6770   56.3766 H   0  0  0  0  0  0  0  0  0  0  0  0
  129.0804  131.6989   56.5087 H   0  0  0  0  0  0  0  0  0  0  0  0
  129.3513  130.5791   57.8842 H   0  0  0  0  0  0  0  0  0  0  0  0
  131.0450  132.2357   54.9642 H   0  0  0  0  0  0  0  0  0  0  0  0
  133.4756  132.8029   54.9439 H   0  0  0  0  0  0  0  0  0  0  0  0
  134.9267  132.0926   56.8401 H   0  0  0  0  0  0  0  0  0  0  0  0
  133.9668  130.8345   58.7622 H   0  0  0  0  0  0  0  0  0  0  0  0
  131.5382  130.2558   58.7793 H   0  0  0  0  0  0  0  0  0  0  0  0
  128.6029  126.3837   57.0802 H   0  0  0  0  0  0  0  0  0  0  0  0
  128.0908  128.7068   55.1607 H   0  0  0  0  0  0  0  0  0  0  0  0
  126.4206  128.3344   54.5492 H   0  0  0  0  0  0  0  0  0  0  0  0
  125.0498  129.9801   55.5069 H   0  0  0  0  0  0  0  0  0  0  0  0
  124.0121  130.9640   57.5529 H   0  0  0  0  0  0  0  0  0  0  0  0
  124.9135  130.3827   59.8000 H   0  0  0  0  0  0  0  0  0  0  0  0
  126.8419  128.8239   60.0221 H   0  0  0  0  0  0  0  0  0  0  0  0
  127.8753  127.8274   57.9794 H   0  0  0  0  0  0  0  0  0  0  0  0
  128.7807  124.8156   54.4090 H   0  0  0  0  0  0  0  0  0  0  0  0
  127.4549  123.5256   54.5671 H   0  0  0  0  0  0  0  0  0  0  0  0
  127.7921  122.1738   55.6868 H   0  0  0  0  0  0  0  0  0  0  0  0
  127.2817  124.3498   58.1190 H   0  0  0  0  0  0  0  0  0  0  0  0
  125.1540  124.8075   59.3401 H   0  0  0  0  0  0  0  0  0  0  0  0
  122.9715  124.2690   58.2730 H   0  0  0  0  0  0  0  0  0  0  0  0
  122.8927  123.2733   55.9903 H   0  0  0  0  0  0  0  0  0  0  0  0
  125.0179  122.8154   54.7652 H   0  0  0  0  0  0  0  0  0  0  0  0
  134.3267  123.5209   58.2538 H   0  0  0  0  0  0  0  0  0  0  0  0
  134.7492  123.0913   60.6592 H   0  0  0  0  0  0  0  0  0  0  0  0
  131.4512  125.6822   61.7036 H   0  0  0  0  0  0  0  0  0  0  0  0
  131.0430  126.1316   59.2979 H   0  0  0  0  0  0  0  0  0  0  0  0
  1  2  2  0
  2  3  1  0
  3  4  1  0
  4  5  1  0
  5  6  1  0
  6  7  1  0
  7  8  1  0
  8  9  1  0
  9 10  1  0
 10 11  2  0
 11 12  1  0
 12 13  2  0
 13 14  1  0
 14 15  2  0
  6 16  1  0
 16 17  1  0
 17 18  1  0
 18 19  1  0
 19 20  2  0
 20 21  1  0
 21 22  2  0
 22 23  1  0
 23 24  2  0
 16 25  1  0
 25 26  1  0
 26 27  1  0
 27 28  1  0
 28 29  2  0
 29 30  1  0
 30 31  2  0
 31 32  1  0
 32 33  2  0
  2 34  1  0
 34 35  2  0
 35 36  1  0
 36 37  2  0
 37 38  1  0
 38 39  2  0
 38 40  1  0
 37 41  1  0
 41 42  2  0
 25  4  1  0
 33 28  1  0
 42 34  1  0
 15 10  1  0
 24 19  1  0
  4 43  1  6
  6 44  1  6
  7 45  1  0
  7 46  1  0
  9 47  1  0
  9 48  1  0
 11 49  1  0
 12 50  1  0
 13 51  1  0
 14 52  1  0
 15 53  1  0
 16 54  1  1
 18 55  1  0
 18 56  1  0
 20 57  1  0
 21 58  1  0
 22 59  1  0
 23 60  1  0
 24 61  1  0
 25 62  1  6
 27 63  1  0
 27 64  1  0
 29 65  1  0
 30 66  1  0
 31 67  1  0
 32 68  1  0
 33 69  1  0
 35 70  1  0
 36 71  1  0
 41 72  1  0
 42 73  1  0
M  CHG  2  38   1  40  -1
M  END
>  <Binding energies>  (1) 
[-11.21]

>  <Ligand effiencies>  (1) 
[-0.2669047619047619]

>  <Interactions>  (1) 
["V-A:ILE:538:CG2:4861, V-A:PRO:540:CD:4885, V-B:ASP:366:CG:8185, H-B:TYR:531:OH:9767, V-B:PRO:540:CA:9855, V-A:ILE:369:CG2:3235, V-A:ILE:538:CB:4860, V-A:ILE:538:CA:4858, V-A:ILE:369:CD1:3237, V-B:TYR:539:CE2:9848, V-B:PRO:540:N:9856, V-B:ILE:538:CB:9834, V-A:ASP:366:CG:3211, H-A:TYR:531:OH:4793, V-B:TYR:531:CE2:9765, V-B:PRO:540:CD:9859, V-B:PRO:540:CB:9857, V-A:ASP:366:CB:3210, V-A:TYR:539:CE2:4874, V-B:ILE:538:CG2:9835, V-A:TYR:539:CZ:4875, V-A:PRO:540:CA:4881, V-B:TYR:539:CZ:9849, V-B:TYR:539:CE1:9847, V-B:ILE:538:CA:9832, H-A:ARG:545:NE:4922, H-A:TYR:484:OH:4346, V-B:LEU:363:CD1:8161, H-A:GLY:454:N:4048, V-B:TYR:531:CZ:9766, V-B:TYR:539:CD1:9845, V-A:PRO:540:CB:4883, V-A:LEU:363:CD1:3187, H-A:ARG:545:NH2:4926, V-A:TYR:531:CE2:4791, H-B:TYR:539:OH:9850, V-B:ASP:366:CB:8184, V-B:TYR:531:CE1:9764, V-A:GLY:454:CA:4047, V-A:LEU:363:CB:3185, V-A:LEU:363:CA:3183, V-A:ASP:366:CA:3208, V-B:LEU:363:CA:8157, H-A:ARG:545:NH1:4925, V-A:PRO:540:CG:4884"]

$$$$
RR9_Rahimova_2017
     RDKit          3D

 64 68  0  0  0  0  0  0  0  0999 V2000
  127.1400  135.5260   61.3450 C   0  0  0  0  0  0  0  0  0  0  0  0
  125.9850  134.7040   60.7650 C   0  0  0  0  0  0  0  0  0  0  0  0
  125.5990  133.7210   61.7210 O   0  0  0  0  0  0  0  0  0  0  0  0
  126.1230  132.4460   61.6320 C   0  0  0  0  0  0  0  0  0  0  0  0
  127.4270  132.3400   61.1520 C   0  0  0  0  0  0  0  0  0  0  0  0
  128.0370  131.0960   61.0250 C   0  0  0  0  0  0  0  0  0  0  0  0
  127.3590  129.9200   61.3780 C   0  0  0  0  0  0  0  0  0  0  0  0
  128.0100  128.5750   61.2390 C   0  0  0  0  0  0  0  0  0  0  0  0
  127.2650  127.3870   61.2960 C   0  0  0  0  0  0  0  0  0  0  0  0
  127.8780  126.1300   61.1520 C   0  0  0  0  0  0  0  0  0  0  0  0
  127.0120  124.9000   61.1200 C   0  0  0  0  0  0  0  0  0  0  0  0
  127.4210  123.8390   61.5920 O   0  0  0  0  0  0  0  0  0  0  0  0
  125.8090  125.0460   60.5320 N   0  0  0  0  0  0  0  0  0  0  0  0
  124.8470  123.9710   60.2630 C   0  0  0  0  0  0  0  0  0  0  0  0
  124.3040  123.9930   58.8160 C   0  0  0  0  0  0  0  0  0  0  0  0
  125.3450  123.7020   57.7400 C   0  0  0  0  0  0  0  0  0  0  0  0
  124.9670  123.6480   56.3950 C   0  0  0  0  0  0  0  0  0  0  0  0
  125.9260  123.4170   55.4120 C   0  0  0  0  0  0  0  0  0  0  0  0
  127.2580  123.2350   55.7780 C   0  0  0  0  0  0  0  0  0  0  0  0
  127.6410  123.2830   57.1170 C   0  0  0  0  0  0  0  0  0  0  0  0
  126.6820  123.5160   58.1000 C   0  0  0  0  0  0  0  0  0  0  0  0
  129.2850  126.1340   60.9840 C   0  0  0  0  0  0  0  0  0  0  0  0
  130.3640  125.1860   60.8370 C   0  0  0  0  0  0  0  0  0  0  0  0
  130.3320  123.6950   60.8950 C   0  0  0  0  0  0  0  0  0  0  0  0
  130.8440  123.0230   62.0090 C   0  0  0  0  0  0  0  0  0  0  0  0
  130.8280  121.6310   62.0550 C   0  0  0  0  0  0  0  0  0  0  0  0
  130.2950  120.9060   60.9880 C   0  0  0  0  0  0  0  0  0  0  0  0
  130.2940  119.3890   61.0290 C   0  0  0  0  0  0  0  0  0  0  0  0
  129.7840  121.5730   59.8730 C   0  0  0  0  0  0  0  0  0  0  0  0
  129.7990  122.9640   59.8310 C   0  0  0  0  0  0  0  0  0  0  0  0
  131.5050  125.8120   60.6500 N   0  0  0  0  0  0  0  0  0  0  0  0
  131.2690  127.1320   60.7200 N   0  0  0  0  0  0  0  0  0  0  0  0
  129.9350  127.3900   60.9350 C   0  0  0  0  0  0  0  0  0  0  0  0
  129.3600  128.5860   61.0590 N   0  0  0  0  0  0  0  0  0  0  0  0
  126.0470  130.0340   61.8590 C   0  0  0  0  0  0  0  0  0  0  0  0
  125.4340  131.2780   61.9870 C   0  0  0  0  0  0  0  0  0  0  0  0
  127.0965  135.4951   62.4437 H   0  0  0  0  0  0  0  0  0  0  0  0
  128.0972  135.1049   61.0039 H   0  0  0  0  0  0  0  0  0  0  0  0
  127.0557  136.5684   61.0039 H   0  0  0  0  0  0  0  0  0  0  0  0
  125.1326  135.3647   60.5486 H   0  0  0  0  0  0  0  0  0  0  0  0
  126.3040  134.2152   59.8326 H   0  0  0  0  0  0  0  0  0  0  0  0
  127.9794  133.2487   60.8708 H   0  0  0  0  0  0  0  0  0  0  0  0
  129.0663  131.0338   60.6421 H   0  0  0  0  0  0  0  0  0  0  0  0
  126.1781  127.4405   61.4568 H   0  0  0  0  0  0  0  0  0  0  0  0
  125.5250  125.9730   60.2520 H   0  0  0  0  0  0  0  0  0  0  0  0
  125.3438  123.0049   60.4361 H   0  0  0  0  0  0  0  0  0  0  0  0
  123.9909  124.1199   60.9375 H   0  0  0  0  0  0  0  0  0  0  0  0
  123.5089  123.2370   58.7369 H   0  0  0  0  0  0  0  0  0  0  0  0
  123.9469  125.0174   58.6338 H   0  0  0  0  0  0  0  0  0  0  0  0
  123.9129  123.7879   56.1135 H   0  0  0  0  0  0  0  0  0  0  0  0
  125.6335  123.3784   54.3523 H   0  0  0  0  0  0  0  0  0  0  0  0
  128.0154  123.0515   55.0017 H   0  0  0  0  0  0  0  0  0  0  0  0
  128.6950  123.1377   57.3962 H   0  0  0  0  0  0  0  0  0  0  0  0
  126.9772  123.5535   59.1590 H   0  0  0  0  0  0  0  0  0  0  0  0
  131.2605  123.5950   62.8512 H   0  0  0  0  0  0  0  0  0  0  0  0
  131.2347  121.1040   62.9307 H   0  0  0  0  0  0  0  0  0  0  0  0
  130.2938  119.0505   62.0756 H   0  0  0  0  0  0  0  0  0  0  0  0
  129.3956  119.0090   60.5205 H   0  0  0  0  0  0  0  0  0  0  0  0
  131.1919  119.0079   60.5205 H   0  0  0  0  0  0  0  0  0  0  0  0
  129.3705  121.0004   59.0297 H   0  0  0  0  0  0  0  0  0  0  0  0
  129.3893  123.4899   58.9560 H   0  0  0  0  0  0  0  0  0  0  0  0
  132.0230  127.7960   60.6160 H   0  0  0  0  0  0  0  0  0  0  0  0
  125.4928  129.1262   62.1398 H   0  0  0  0  0  0  0  0  0  0  0  0
  124.4044  131.3443   62.3684 H   0  0  0  0  0  0  0  0  0  0  0  0
  1  2  1  0
  2  3  1  0
  3  4  1  0
  4  5  2  0
  5  6  1  0
  6  7  2  0
  7  8  1  0
  8  9  2  0
  9 10  1  0
 10 11  1  0
 11 12  2  0
 11 13  1  0
 13 14  1  0
 14 15  1  0
 15 16  1  0
 16 17  2  0
 17 18  1  0
 18 19  2  0
 19 20  1  0
 20 21  2  0
 10 22  2  0
 22 23  1  0
 23 24  1  0
 24 25  2  0
 25 26  1  0
 26 27  2  0
 27 28  1  0
 27 29  1  0
 29 30  2  0
 23 31  2  0
 31 32  1  0
 32 33  1  0
 33 34  2  0
  7 35  1  0
 35 36  2  0
 36  4  1  0
 34  8  1  0
 21 16  1  0
 33 22  1  0
 30 24  1  0
  1 37  1  0
  1 38  1  0
  1 39  1  0
  2 40  1  0
  2 41  1  0
  5 42  1  0
  6 43  1  0
  9 44  1  0
 13 45  1  0
 14 46  1  0
 14 47  1  0
 15 48  1  0
 15 49  1  0
 17 50  1  0
 18 51  1  0
 19 52  1  0
 20 53  1  0
 21 54  1  0
 25 55  1  0
 26 56  1  0
 28 57  1  0
 28 58  1  0
 28 59  1  0
 29 60  1  0
 30 61  1  0
 32 62  1  0
 35 63  1  0
 36 64  1  0
M  END
>  <Binding energies>  (1) 
[-9.27]

>  <Ligand effiencies>  (1) 
[-0.2439473684210526]

>  <Interactions>  (1) 
["V-B:ASP:366:CG:8185, V-B:TYR:539:CD2:9846, V-B:PRO:540:CA:9855, H-B:ALA:541:N:9863, V-A:LEU:475:CD2:4257, V-A:TRP:381:CZ2:3368, V-B:ALA:541:CB:9864, H-B:ASP:366:OD2:8187, V-A:TRP:381:CH2:3370, V-B:TYR:539:CE2:9848, V-B:PRO:540:N:9856, H-A:ASP:366:OD1:3212, V-B:ILE:538:CB:9834, V-A:ASP:366:CG:3211, V-A:TYR:539:CD2:4872, V-B:TYR:531:CE2:9765, V-B:PRO:540:CD:9859, V-B:PRO:540:CB:9857, V-B:LEU:475:CD2:9231, V-A:TYR:539:CE2:4874, H-A:ASP:366:OD2:3213, V-B:ILE:538:CG2:9835, V-B:TRP:381:CH2:8344, V-B:TRP:381:CZ2:8342, V-A:ALA:541:CB:4890, V-B:ILE:538:CA:9832, V-B:TYR:539:C:9839, V-B:GLU:543:CD:9880, H-A:ARG:545:NH2:4926, V-A:PRO:482:CG:4325, V-A:PRO:482:CB:4324, V-B:PRO:482:CB:9298, V-B:PRO:482:CG:9299"]

$$$$
