1a_Ghoteimi_2023
     RDKit          3D

 40 43  0  0  0  0  0  0  0  0999 V2000
  124.0240  125.0330   58.2160 C   0  0  0  0  0  0  0  0  0  0  0  0
  125.1840  124.6050   57.3130 C   0  0  0  0  0  0  0  0  0  0  0  0
  125.2870  123.1860   57.3170 O   0  0  0  0  0  0  0  0  0  0  0  0
  126.4970  122.5700   57.3360 C   0  0  0  0  0  0  0  0  0  0  0  0
  126.9850  121.9990   56.3560 O   0  0  0  0  0  0  0  0  0  0  0  0
  127.1850  122.6580   58.6670 C   0  0  0  0  0  0  0  0  0  0  0  0
  126.5250  123.1220   59.8150 C   0  0  0  0  0  0  0  0  0  0  0  0
  127.1910  123.1950   61.0360 C   0  0  0  0  0  0  0  0  0  0  0  0
  128.5330  122.8000   61.1310 C   0  0  0  0  0  0  0  0  0  0  0  0
  129.3030  122.8360   62.3100 N   0  0  0  0  0  0  0  0  0  0  0  0
  130.2370  121.9710   62.7610 C   0  0  0  0  0  0  0  0  0  0  0  0
  130.6090  120.9520   62.1800 O   0  0  0  0  0  0  0  0  0  0  0  0
  130.8670  122.3270   64.1070 C   0  0  0  0  0  0  0  0  0  0  0  0
  131.9190  123.8030   63.9880 S   0  0  0  0  0  0  0  0  0  0  0  0
  130.8540  125.1960   64.2860 C   0  0  0  0  0  0  0  0  0  0  0  0
  130.6780  125.4820   65.5970 N   0  0  0  0  0  0  0  0  0  0  0  0
  129.8890  126.5280   65.9600 C   0  0  0  0  0  0  0  0  0  0  0  0
  129.7610  126.7950   67.4320 C   0  0  0  0  0  0  0  0  0  0  0  0
  130.5960  127.7180   68.0820 C   0  0  0  0  0  0  0  0  0  0  0  0
  130.4740  127.9630   69.4470 C   0  0  0  0  0  0  0  0  0  0  0  0
  129.5160  127.2940   70.2050 C   0  0  0  0  0  0  0  0  0  0  0  0
  129.4650  127.6010   71.5510 O   0  0  0  0  0  0  0  0  0  0  0  0
  128.3160  127.2300   72.3040 C   0  0  0  0  0  0  0  0  0  0  0  0
  128.6780  126.3660   69.5710 C   0  0  0  0  0  0  0  0  0  0  0  0
  128.8030  126.1230   68.2070 C   0  0  0  0  0  0  0  0  0  0  0  0
  129.2550  127.3120   64.9880 C   0  0  0  0  0  0  0  0  0  0  0  0
  129.4020  127.0200   63.6260 C   0  0  0  0  0  0  0  0  0  0  0  0
  128.6700  127.8790   62.6480 C   0  0  0  0  0  0  0  0  0  0  0  0
  129.3220  128.4070   61.5280 C   0  0  0  0  0  0  0  0  0  0  0  0
  128.6290  129.1950   60.6130 C   0  0  0  0  0  0  0  0  0  0  0  0
  127.2730  129.4650   60.7930 C   0  0  0  0  0  0  0  0  0  0  0  0
  126.6690  130.2540   59.8350 O   0  0  0  0  0  0  0  0  0  0  0  0
  125.9160  129.6340   58.7980 C   0  0  0  0  0  0  0  0  0  0  0  0
  126.6140  128.9310   61.9110 C   0  0  0  0  0  0  0  0  0  0  0  0
  127.3090  128.1440   62.8260 C   0  0  0  0  0  0  0  0  0  0  0  0
  130.2290  125.9320   63.2560 C   0  0  0  0  0  0  0  0  0  0  0  0
  130.4340  125.5860   61.8460 C   0  0  0  0  0  0  0  0  0  0  0  0
  130.5950  125.3150   60.7320 N   0  0  0  0  0  0  0  0  0  0  0  0
  129.1940  122.3420   59.9910 C   0  0  0  0  0  0  0  0  0  0  0  0
  128.5270  122.2690   58.7700 C   0  0  0  0  0  0  0  0  0  0  0  0
  1  2  1  0
  2  3  1  0
  3  4  1  0
  4  5  2  0
  4  6  1  0
  6  7  2  0
  7  8  1  0
  8  9  2  0
  9 10  1  0
 10 11  1  0
 11 12  2  0
 11 13  1  0
 13 14  1  0
 14 15  1  0
 15 16  2  0
 16 17  1  0
 17 18  1  0
 18 19  2  0
 19 20  1  0
 20 21  2  0
 21 22  1  0
 22 23  1  0
 21 24  1  0
 24 25  2  0
 17 26  2  0
 26 27  1  0
 27 28  1  0
 28 29  2  0
 29 30  1  0
 30 31  2  0
 31 32  1  0
 32 33  1  0
 31 34  1  0
 34 35  2  0
 27 36  2  0
 36 37  1  0
 37 38  3  0
  9 39  1  0
 39 40  2  0
 40  6  1  0
 36 15  1  0
 25 18  1  0
 35 28  1  0
M  END
>  <Binding energies>  (1) 
[-8.57]

>  <Ligand effiencies>  (1) 
[-0.20902439024390246]

>  <Interactions>  (1) 
["V-B:PRO:540:C:9850, V-B:TYR:539:CE2:9845, V-A:HIS:456:CE1:4066, V-B:TYR:539:CG:9841, V-B:TYR:539:CZ:9846, V-B:PRO:540:CA:9852, V-B:TYR:539:CE1:9844, V-B:ALA:541:CB:9861, V-B:TYR:539:C:9836, H-A:TYR:484:OH:4344, V-B:PRO:540:N:9853, V-B:PRO:540:CB:9854, V-B:TYR:539:CD2:9843, H-B:GLU:543:OE2:9879, V-A:TYR:484:CE1:4341, V-B:HIS:456:CD2:9036, V-A:GLU:543:CB:4903, H-A:LYS:547:NZ:4948, V-B:LYS:547:CE:9919, V-B:GLU:543:CB:9875, V-B:GLU:543:CD:9877, V-A:GLU:543:C:4899, V-A:TYR:484:CZ:4343, V-A:GLU:543:CD:4905, V-B:LEU:363:CA:8153, V-A:LEU:475:CD1:4254, H-B:TYR:539:N:9839, V-B:PRO:540:CD:9856, V-A:LEU:475:CD2:4255, V-B:LEU:363:CD1:8157, V-B:ASP:366:CG:8181, V-B:ASP:366:CB:8180"]

$$$$
1b_Ghoteimi_2023
     RDKit          3D

 34 37  0  0  0  0  0  0  0  0999 V2000
  128.4420  127.6160   74.3010 C   0  0  0  0  0  0  0  0  0  0  0  0
  129.4960  127.1920   73.4450 O   0  0  0  0  0  0  0  0  0  0  0  0
  129.2860  127.1660   72.0800 C   0  0  0  0  0  0  0  0  0  0  0  0
  130.1770  127.8970   71.2960 C   0  0  0  0  0  0  0  0  0  0  0  0
  130.0420  127.9300   69.9110 C   0  0  0  0  0  0  0  0  0  0  0  0
  129.0120  127.2290   69.2660 C   0  0  0  0  0  0  0  0  0  0  0  0
  128.8690  127.2680   67.7700 C   0  0  0  0  0  0  0  0  0  0  0  0
  128.0110  128.1550   67.1110 C   0  0  0  0  0  0  0  0  0  0  0  0
  127.9170  128.1540   65.7140 C   0  0  0  0  0  0  0  0  0  0  0  0
  126.9760  129.1250   65.0780 C   0  0  0  0  0  0  0  0  0  0  0  0
  125.5960  128.9730   65.2320 C   0  0  0  0  0  0  0  0  0  0  0  0
  124.7150  129.8700   64.6350 C   0  0  0  0  0  0  0  0  0  0  0  0
  125.1950  130.9330   63.8690 C   0  0  0  0  0  0  0  0  0  0  0  0
  124.2480  131.7720   63.3150 O   0  0  0  0  0  0  0  0  0  0  0  0
  123.8990  131.6140   61.9440 C   0  0  0  0  0  0  0  0  0  0  0  0
  126.5800  131.0850   63.7060 C   0  0  0  0  0  0  0  0  0  0  0  0
  127.4580  130.1850   64.3040 C   0  0  0  0  0  0  0  0  0  0  0  0
  128.7200  127.2440   64.9840 C   0  0  0  0  0  0  0  0  0  0  0  0
  128.7310  127.2680   63.5190 C   0  0  0  0  0  0  0  0  0  0  0  0
  128.7380  127.2890   62.3610 N   0  0  0  0  0  0  0  0  0  0  0  0
  129.5500  126.3610   65.7120 C   0  0  0  0  0  0  0  0  0  0  0  0
  130.6180  125.1470   64.9660 S   0  0  0  0  0  0  0  0  0  0  0  0
  132.3420  125.6980   65.1970 C   0  0  0  0  0  0  0  0  0  0  0  0
  133.3490  125.1200   64.1920 C   0  0  0  0  0  0  0  0  0  0  0  0
  134.5460  125.0420   64.4750 O   0  0  0  0  0  0  0  0  0  0  0  0
  132.8090  124.7260   63.0170 N   0  0  0  0  0  0  0  0  0  0  0  0
  133.4740  124.1690   61.9310 C   0  0  0  0  0  0  0  0  0  0  0  0
  132.8340  123.8260   60.7410 C   0  0  0  0  0  0  0  0  0  0  0  0
  133.8270  123.3160   59.9350 C   0  0  0  0  0  0  0  0  0  0  0  0
  135.0040  123.3520   60.6050 O   0  0  0  0  0  0  0  0  0  0  0  0
  134.7670  123.8960   61.8690 N   0  0  0  0  0  0  0  0  0  0  0  0
  129.6310  126.3930   67.0640 N   0  0  0  0  0  0  0  0  0  0  0  0
  128.1200  126.4970   70.0650 C   0  0  0  0  0  0  0  0  0  0  0  0
  128.2500  126.4630   71.4500 C   0  0  0  0  0  0  0  0  0  0  0  0
  1  2  1  0
  2  3  1  0
  3  4  2  0
  4  5  1  0
  5  6  2  0
  6  7  1  0
  7  8  2  0
  8  9  1  0
  9 10  1  0
 10 11  2  0
 11 12  1  0
 12 13  2  0
 13 14  1  0
 14 15  1  0
 13 16  1  0
 16 17  2  0
  9 18  2  0
 18 19  1  0
 19 20  3  0
 18 21  1  0
 21 22  1  0
 22 23  1  0
 23 24  1  0
 24 25  2  0
 24 26  1  0
 26 27  1  0
 27 28  1  0
 28 29  2  0
 29 30  1  0
 30 31  1  0
 21 32  2  0
  6 33  1  0
 33 34  2  0
 34  3  1  0
 32  7  1  0
 17 10  1  0
 31 27  2  0
M  END
>  <Binding energies>  (2) 
[-9.63]

>  <Ligand effiencies>  (2) 
[-0.2751428571428572]

>  <Interactions>  (2) 
["V-B:TYR:539:CE2:9845, V-A:HIS:456:CE1:4066, V-B:TYR:539:CZ:9846, V-A:ARG:545:CZ:4923, H-A:GLY:454:N:4046, H-A:TYR:484:OH:4344, V-A:ASP:366:CG:3209, V-B:HIS:456:CD2:9036, V-A:LYS:547:CE:4947, H-A:LYS:547:NZ:4948, V-B:LYS:547:CE:9919, V-B:GLU:543:CD:9877, V-A:GLU:543:C:4899, V-B:HIS:456:CE1:9038, V-A:GLU:543:CD:4905, V-A:ILE:369:CB:3232, H-A:ARG:545:NH1:4924, V-A:ILE:369:CG2:3233, V-A:ILE:369:CG1:3234, H-B:GLY:454:N:9018, V-B:ARG:545:CZ:9895, V-A:GLU:543:CG:4904, H-A:ARG:545:NE:4921, V-B:ASP:366:CG:8181, V-A:ASP:366:CA:3206, V-B:ILE:369:CD1:8207"]

$$$$
1c_Ghoteimi_2023
     RDKit          3D

 34 37  0  0  0  0  0  0  0  0999 V2000
  130.2520  125.6470   73.6520 C   0  0  0  0  0  0  0  0  0  0  0  0
  129.8500  126.8940   73.0940 O   0  0  0  0  0  0  0  0  0  0  0  0
  129.5490  126.9660   71.7470 C   0  0  0  0  0  0  0  0  0  0  0  0
  130.4410  127.6730   70.9450 C   0  0  0  0  0  0  0  0  0  0  0  0
  130.2150  127.7990   69.5770 C   0  0  0  0  0  0  0  0  0  0  0  0
  129.0880  127.2220   68.9700 C   0  0  0  0  0  0  0  0  0  0  0  0
  128.8390  127.3600   67.4960 C   0  0  0  0  0  0  0  0  0  0  0  0
  128.0320  128.3680   66.9570 C   0  0  0  0  0  0  0  0  0  0  0  0
  127.8500  128.4730   65.5730 C   0  0  0  0  0  0  0  0  0  0  0  0
  127.0310  129.6120   65.0630 C   0  0  0  0  0  0  0  0  0  0  0  0
  127.5900  130.8860   64.9290 C   0  0  0  0  0  0  0  0  0  0  0  0
  126.8200  131.9520   64.4750 C   0  0  0  0  0  0  0  0  0  0  0  0
  125.4770  131.7660   64.1500 C   0  0  0  0  0  0  0  0  0  0  0  0
  124.7890  132.8800   63.7060 O   0  0  0  0  0  0  0  0  0  0  0  0
  123.9790  132.7780   62.5400 C   0  0  0  0  0  0  0  0  0  0  0  0
  124.9100  130.4900   64.2890 C   0  0  0  0  0  0  0  0  0  0  0  0
  125.6820  129.4250   64.7440 C   0  0  0  0  0  0  0  0  0  0  0  0
  128.4770  127.5180   64.7370 C   0  0  0  0  0  0  0  0  0  0  0  0
  128.2980  127.5530   63.2820 C   0  0  0  0  0  0  0  0  0  0  0  0
  128.1570  127.5830   62.1330 N   0  0  0  0  0  0  0  0  0  0  0  0
  129.2900  126.5400   65.3450 C   0  0  0  0  0  0  0  0  0  0  0  0
  130.2700  125.3860   64.4100 S   0  0  0  0  0  0  0  0  0  0  0  0
  131.9200  125.4430   65.1810 C   0  0  0  0  0  0  0  0  0  0  0  0
  133.0320  125.0720   64.1950 C   0  0  0  0  0  0  0  0  0  0  0  0
  134.2010  125.0290   64.5840 O   0  0  0  0  0  0  0  0  0  0  0  0
  132.6170  124.7720   62.9450 N   0  0  0  0  0  0  0  0  0  0  0  0
  133.3910  124.2620   61.9140 C   0  0  0  0  0  0  0  0  0  0  0  0
  134.6810  124.0010   61.9260 N   0  0  0  0  0  0  0  0  0  0  0  0
  135.0790  123.4840   60.7800 C   0  0  0  0  0  0  0  0  0  0  0  0
  134.0990  123.3150   59.8070 C   0  0  0  0  0  0  0  0  0  0  0  0
  132.5760  123.8680   60.4360 S   0  0  0  0  0  0  0  0  0  0  0  0
  129.4710  126.4710   66.6860 N   0  0  0  0  0  0  0  0  0  0  0  0
  128.2000  126.5080   69.7880 C   0  0  0  0  0  0  0  0  0  0  0  0
  128.4210  126.3800   71.1560 C   0  0  0  0  0  0  0  0  0  0  0  0
  1  2  1  0
  2  3  1  0
  3  4  2  0
  4  5  1  0
  5  6  2  0
  6  7  1  0
  7  8  2  0
  8  9  1  0
  9 10  1  0
 10 11  2  0
 11 12  1  0
 12 13  2  0
 13 14  1  0
 14 15  1  0
 13 16  1  0
 16 17  2  0
  9 18  2  0
 18 19  1  0
 19 20  3  0
 18 21  1  0
 21 22  1  0
 22 23  1  0
 23 24  1  0
 24 25  2  0
 24 26  1  0
 26 27  1  0
 27 28  2  0
 28 29  1  0
 29 30  2  0
 30 31  1  0
 21 32  2  0
  6 33  1  0
 33 34  2  0
 34  3  1  0
 32  7  1  0
 17 10  1  0
 31 27  1  0
M  END
>  <Binding energies>  (3) 
[-9.49]

>  <Ligand effiencies>  (3) 
[-0.27114285714285713]

>  <Interactions>  (3) 
["V-B:TYR:539:CE2:9845, V-A:HIS:456:CE1:4066, V-B:TYR:539:CZ:9846, V-A:GLY:453:C:4038, V-A:ARG:545:CZ:4923, V-A:GLY:453:CA:4040, H-A:GLY:454:N:4046, V-A:ASP:366:CG:3209, H-A:LYS:547:NZ:4948, V-B:LYS:547:CE:9919, V-B:GLU:543:CD:9877, V-A:GLU:543:C:4899, V-B:HIS:456:CE1:9038, V-B:GLU:543:CG:9876, V-A:GLY:544:C:4909, V-A:GLU:543:CD:4905, V-A:ILE:369:CB:3232, H-A:ARG:545:NH1:4924, V-A:ILE:369:CG2:3233, V-A:ILE:369:CG1:3234, H-B:GLY:454:N:9018, V-B:ARG:545:CZ:9895, H-B:TYR:484:OH:9316, V-A:GLU:543:CG:4904, V-A:ASP:366:CB:3208, V-A:HIS:456:CD2:4064, H-A:ARG:545:NE:4921, V-B:TYR:484:CE1:9313, V-B:TYR:484:CZ:9315, V-B:GLY:454:CA:9017, V-A:ASP:366:CA:3206, V-B:ILE:369:CD1:8207"]

$$$$
1d_Ghoteimi_2023
     RDKit          3D

 30 32  0  0  0  0  0  0  0  0999 V2000
  124.5380  129.8930   63.1800 C   0  0  0  0  0  0  0  0  0  0  0  0
  124.2140  130.5550   64.3930 O   0  0  0  0  0  0  0  0  0  0  0  0
  124.2300  129.8850   65.5640 C   0  0  0  0  0  0  0  0  0  0  0  0
  123.5300  130.1230   66.5490 O   0  0  0  0  0  0  0  0  0  0  0  0
  125.2490  128.7480   65.5680 C   0  0  0  0  0  0  0  0  0  0  0  0
  126.8900  129.4840   65.3020 S   0  0  0  0  0  0  0  0  0  0  0  0
  128.0890  128.3110   65.8960 C   0  0  0  0  0  0  0  0  0  0  0  0
  128.1560  128.2360   67.2470 N   0  0  0  0  0  0  0  0  0  0  0  0
  129.0320  127.3820   67.8360 C   0  0  0  0  0  0  0  0  0  0  0  0
  129.0390  127.3560   69.3370 C   0  0  0  0  0  0  0  0  0  0  0  0
  130.0500  127.9940   70.0720 C   0  0  0  0  0  0  0  0  0  0  0  0
  130.0590  127.9630   71.4630 C   0  0  0  0  0  0  0  0  0  0  0  0
  129.0590  127.2920   72.1630 C   0  0  0  0  0  0  0  0  0  0  0  0
  129.1500  127.3100   73.5420 O   0  0  0  0  0  0  0  0  0  0  0  0
  128.0720  127.8490   74.3000 C   0  0  0  0  0  0  0  0  0  0  0  0
  128.0430  126.6490   71.4440 C   0  0  0  0  0  0  0  0  0  0  0  0
  128.0370  126.6830   70.0520 C   0  0  0  0  0  0  0  0  0  0  0  0
  129.8640  126.5670   67.0590 C   0  0  0  0  0  0  0  0  0  0  0  0
  129.8270  126.6350   65.6600 C   0  0  0  0  0  0  0  0  0  0  0  0
  130.7480  125.7430   64.8930 C   0  0  0  0  0  0  0  0  0  0  0  0
  132.1280  125.9680   64.9160 C   0  0  0  0  0  0  0  0  0  0  0  0
  132.9920  125.1410   64.2030 C   0  0  0  0  0  0  0  0  0  0  0  0
  132.4960  124.0700   63.4600 C   0  0  0  0  0  0  0  0  0  0  0  0
  133.4250  123.3070   62.7790 O   0  0  0  0  0  0  0  0  0  0  0  0
  133.8330  123.7080   61.4760 C   0  0  0  0  0  0  0  0  0  0  0  0
  131.1130  123.8320   63.4440 C   0  0  0  0  0  0  0  0  0  0  0  0
  130.2510  124.6610   64.1580 C   0  0  0  0  0  0  0  0  0  0  0  0
  128.9290  127.5480   65.0530 C   0  0  0  0  0  0  0  0  0  0  0  0
  128.9210  127.7350   63.5990 C   0  0  0  0  0  0  0  0  0  0  0  0
  128.9160  127.8820   62.4520 N   0  0  0  0  0  0  0  0  0  0  0  0
  1  2  1  0
  2  3  1  0
  3  4  2  0
  3  5  1  0
  5  6  1  0
  6  7  1  0
  7  8  2  0
  8  9  1  0
  9 10  1  0
 10 11  2  0
 11 12  1  0
 12 13  2  0
 13 14  1  0
 14 15  1  0
 13 16  1  0
 16 17  2  0
  9 18  2  0
 18 19  1  0
 19 20  1  0
 20 21  2  0
 21 22  1  0
 22 23  2  0
 23 24  1  0
 24 25  1  0
 23 26  1  0
 26 27  2  0
 19 28  2  0
 28 29  1  0
 29 30  3  0
 28  7  1  0
 17 10  1  0
 27 20  1  0
M  END
>  <Binding energies>  (4) 
[-8.66]

>  <Ligand effiencies>  (4) 
[-0.2886666666666667]

>  <Interactions>  (4) 
["V-A:HIS:456:CE1:4066, V-A:ARG:545:CZ:4923, H-A:GLY:454:N:4046, V-A:ASP:366:CG:3209, V-B:HIS:456:CD2:9036, H-A:LYS:547:NZ:4948, V-B:GLY:544:C:9881, V-B:LYS:547:CE:9919, V-B:GLU:543:CD:9877, V-A:GLU:543:C:4899, V-B:HIS:456:CE1:9038, V-B:GLU:543:CG:9876, V-A:GLU:543:CD:4905, H-B:GLY:454:N:9018, V-B:ARG:545:CZ:9895, V-B:ARG:545:CG:9891, V-B:ARG:545:CD:9892, H-B:TYR:484:OH:9316, V-B:ASP:366:CG:8181, H-B:ILE:455:N:9023, H-B:HIS:456:ND1:9035"]

$$$$
1j_Grossjean_2025
     RDKit          3D

 20 21  0  0  0  0  0  0  0  0999 V2000
  135.1340  123.5130   60.4840 C   0  0  0  0  0  0  0  0  0  0  0  0
  133.9420  123.3180   61.4020 C   0  0  0  0  0  0  0  0  0  0  0  0
  132.9340  122.4030   61.1050 C   0  0  0  0  0  0  0  0  0  0  0  0
  131.8650  122.2570   61.9940 C   0  0  0  0  0  0  0  0  0  0  0  0
  130.7810  121.2340   61.6550 C   0  0  0  0  0  0  0  0  0  0  0  0
  131.8290  123.0450   63.1660 C   0  0  0  0  0  0  0  0  0  0  0  0
  130.7460  122.8700   64.1380 C   0  0  0  0  0  0  0  0  0  0  0  0
  129.8900  122.7290   64.9040 N   0  0  0  0  0  0  0  0  0  0  0  0
  132.8820  123.9680   63.3750 C   0  0  0  0  0  0  0  0  0  0  0  0
  132.9950  125.0390   64.7910 S   0  0  0  0  0  0  0  0  0  0  0  0
  131.4870  126.0530   64.8390 C   0  0  0  0  0  0  0  0  0  0  0  0
  130.7900  125.9800   66.1990 C   0  0  0  0  0  0  0  0  0  0  0  0
  130.2750  124.9210   66.5590 O   0  0  0  0  0  0  0  0  0  0  0  0
  130.7990  127.1230   66.9200 N   0  0  0  0  0  0  0  0  0  0  0  0
  130.2320  127.3180   68.1720 C   0  0  0  0  0  0  0  0  0  0  0  0
  130.7230  128.0040   69.1820 N   0  0  0  0  0  0  0  0  0  0  0  0
  129.9140  127.9780   70.2220 C   0  0  0  0  0  0  0  0  0  0  0  0
  128.7340  127.2570   70.0670 C   0  0  0  0  0  0  0  0  0  0  0  0
  128.6900  126.5810   68.4660 S   0  0  0  0  0  0  0  0  0  0  0  0
  133.9250  124.0870   62.5170 N   0  0  0  0  0  0  0  0  0  0  0  0
  1  2  1  0
  2  3  2  0
  3  4  1  0
  4  5  1  0
  4  6  2  0
  6  7  1  0
  7  8  3  0
  6  9  1  0
  9 10  1  0
 10 11  1  0
 11 12  1  0
 12 13  2  0
 12 14  1  0
 14 15  1  0
 15 16  2  0
 16 17  1  0
 17 18  2  0
 18 19  1  0
  9 20  2  0
 20  2  1  0
 19 15  1  0
M  END
>  <Binding energies>  (5) 
[-6.38]

>  <Ligand effiencies>  (5) 
[-0.3038095238095238]

>  <Interactions>  (5) 
["V-B:TYR:539:CE2:9845, V-A:HIS:456:CE1:4066, V-A:ARG:545:CZ:4923, V-B:ALA:541:CB:9861, H-A:GLY:454:N:4046, H-A:TYR:484:OH:4344, V-A:GLY:454:CA:4045, V-B:TYR:539:CD2:9843, V-A:ASP:366:CG:3209, V-A:TYR:484:CE1:4341, V-B:HIS:456:CD2:9036, V-A:GLU:543:CB:4903, V-B:GLU:543:CB:9875, V-A:GLU:543:C:4899, V-B:HIS:456:CE1:9038, V-A:GLU:543:CD:4905, V-A:ILE:369:CB:3232, V-A:LEU:475:CD1:4254, V-A:ILE:369:CG2:3233, V-A:ILE:369:CG1:3234, H-A:GLU:543:OE1:4906, V-A:ASP:366:CA:3206"]

$$$$
1o_Grossjean_2025
     RDKit          3D

 26 27  0  0  0  0  0  0  0  0999 V2000
  126.3790  127.9090   73.5590 C   0  0  0  0  0  0  0  0  0  0  0  0
  127.2990  126.9090   73.1420 O   0  0  0  0  0  0  0  0  0  0  0  0
  128.5040  127.2440   72.6150 C   0  0  0  0  0  0  0  0  0  0  0  0
  129.4680  127.6060   73.2970 O   0  0  0  0  0  0  0  0  0  0  0  0
  128.5510  127.1270   71.1180 C   0  0  0  0  0  0  0  0  0  0  0  0
  127.5580  126.4500   70.3950 C   0  0  0  0  0  0  0  0  0  0  0  0
  127.6300  126.3630   69.0070 C   0  0  0  0  0  0  0  0  0  0  0  0
  128.6940  126.9420   68.3160 C   0  0  0  0  0  0  0  0  0  0  0  0
  128.6630  126.8010   66.9140 N   0  0  0  0  0  0  0  0  0  0  0  0
  129.6780  126.7900   66.0230 C   0  0  0  0  0  0  0  0  0  0  0  0
  130.8730  126.8620   66.3070 O   0  0  0  0  0  0  0  0  0  0  0  0
  129.2640  126.6440   64.5510 C   0  0  0  0  0  0  0  0  0  0  0  0
  130.1540  125.6660   63.7600 C   0  0  0  0  0  0  0  0  0  0  0  0
  130.1910  123.9830   64.4440 S   0  0  0  0  0  0  0  0  0  0  0  0
  131.0220  122.9190   63.2820 C   0  0  0  0  0  0  0  0  0  0  0  0
  130.2520  121.8900   62.8450 N   0  0  0  0  0  0  0  0  0  0  0  0
  130.7760  121.0190   61.9510 C   0  0  0  0  0  0  0  0  0  0  0  0
  129.8510  119.9050   61.4970 C   0  0  0  0  0  0  0  0  0  0  0  0
  132.0780  121.1280   61.4700 C   0  0  0  0  0  0  0  0  0  0  0  0
  132.8890  122.1690   61.9330 C   0  0  0  0  0  0  0  0  0  0  0  0
  134.3190  122.2580   61.4010 C   0  0  0  0  0  0  0  0  0  0  0  0
  132.3660  123.0890   62.8700 C   0  0  0  0  0  0  0  0  0  0  0  0
  133.2190  124.1500   63.4110 C   0  0  0  0  0  0  0  0  0  0  0  0
  133.8950  124.9880   63.8360 N   0  0  0  0  0  0  0  0  0  0  0  0
  129.6880  127.6260   69.0320 C   0  0  0  0  0  0  0  0  0  0  0  0
  129.6140  127.7130   70.4190 C   0  0  0  0  0  0  0  0  0  0  0  0
  1  2  1  0
  2  3  1  0
  3  4  2  0
  3  5  1  0
  5  6  2  0
  6  7  1  0
  7  8  2  0
  8  9  1  0
  9 10  1  0
 10 11  2  0
 10 12  1  0
 12 13  1  0
 13 14  1  0
 14 15  1  0
 15 16  2  0
 16 17  1  0
 17 18  1  0
 17 19  2  0
 19 20  1  0
 20 21  1  0
 20 22  2  0
 22 23  1  0
 23 24  3  0
  8 25  1  0
 25 26  2  0
 26  5  1  0
 22 15  1  0
M  END
>  <Binding energies>  (6) 
[-7.72]

>  <Ligand effiencies>  (6) 
[-0.2859259259259259]

>  <Interactions>  (6) 
["V-B:TYR:539:CE2:9845, V-A:HIS:456:CE1:4066, V-B:ALA:541:CB:9861, H-A:GLY:454:N:4046, H-A:TYR:484:OH:4344, V-A:GLY:454:CA:4045, V-B:TYR:539:CD2:9843, V-B:HIS:456:CD2:9036, H-A:LYS:547:NZ:4948, V-B:GLY:544:C:9881, V-B:LYS:547:CE:9919, V-B:GLU:543:CB:9875, V-B:GLU:543:CD:9877, V-B:HIS:456:CB:9033, V-B:HIS:456:CE1:9038, H-A:ARG:545:NH2:4925, H-A:ARG:545:NH1:4924, V-A:LEU:475:CD1:4254, V-A:ILE:369:CG2:3233, V-A:ILE:369:CG1:3234, V-B:GLU:543:C:9871, H-B:GLU:543:OE1:9878, H-A:ARG:545:NE:4921, V-B:HIS:456:CG:9034, V-A:PRO:482:CG:4323"]

$$$$
1p_Grossjean_2025
     RDKit          3D

 21 22  0  0  0  0  0  0  0  0999 V2000
  135.1220  125.0560   66.0140 C   0  0  0  0  0  0  0  0  0  0  0  0
  133.8300  125.3770   65.2870 C   0  0  0  0  0  0  0  0  0  0  0  0
  133.6260  124.9970   63.9620 C   0  0  0  0  0  0  0  0  0  0  0  0
  132.4190  125.3310   63.3370 C   0  0  0  0  0  0  0  0  0  0  0  0
  132.2230  124.9180   61.8800 C   0  0  0  0  0  0  0  0  0  0  0  0
  131.4360  126.0370   64.0670 C   0  0  0  0  0  0  0  0  0  0  0  0
  130.1850  126.4400   63.4210 C   0  0  0  0  0  0  0  0  0  0  0  0
  129.1970  126.7590   62.9100 N   0  0  0  0  0  0  0  0  0  0  0  0
  131.7200  126.3610   65.4150 C   0  0  0  0  0  0  0  0  0  0  0  0
  130.5910  127.2360   66.4750 S   0  0  0  0  0  0  0  0  0  0  0  0
  129.0860  126.2260   66.5880 C   0  0  0  0  0  0  0  0  0  0  0  0
  128.8930  125.5480   67.9590 C   0  0  0  0  0  0  0  0  0  0  0  0
  128.9190  126.5320   69.1380 C   0  0  0  0  0  0  0  0  0  0  0  0
  129.0100  127.7410   68.9190 O   0  0  0  0  0  0  0  0  0  0  0  0
  128.8230  125.9740   70.3660 N   0  0  0  0  0  0  0  0  0  0  0  0
  128.8200  126.6310   71.5900 C   0  0  0  0  0  0  0  0  0  0  0  0
  127.6540  127.0670   72.2180 C   0  0  0  0  0  0  0  0  0  0  0  0
  128.0760  127.6580   73.3870 C   0  0  0  0  0  0  0  0  0  0  0  0
  129.4260  127.5850   73.4580 O   0  0  0  0  0  0  0  0  0  0  0  0
  129.8860  126.9330   72.3130 N   0  0  0  0  0  0  0  0  0  0  0  0
  132.9010  126.0510   66.0050 N   0  0  0  0  0  0  0  0  0  0  0  0
  1  2  1  0
  2  3  2  0
  3  4  1  0
  4  5  1  0
  4  6  2  0
  6  7  1  0
  7  8  3  0
  6  9  1  0
  9 10  1  0
 10 11  1  0
 11 12  1  0
 12 13  1  0
 13 14  2  0
 13 15  1  0
 15 16  1  0
 16 17  1  0
 17 18  2  0
 18 19  1  0
 19 20  1  0
  9 21  2  0
 21  2  1  0
 20 16  2  0
M  END
>  <Binding energies>  (7) 
[-6.61]

>  <Ligand effiencies>  (7) 
[-0.3004545454545455]

>  <Interactions>  (7) 
["V-A:GLY:454:C:4043, V-A:HIS:456:CE1:4066, V-A:GLY:453:C:4038, V-A:ARG:545:CG:4919, V-A:ARG:545:CZ:4923, V-A:ARG:545:CD:4920, V-A:GLY:453:CA:4040, H-A:TYR:484:OH:4344, V-A:GLY:454:CA:4045, V-A:ASP:366:CG:3209, V-B:HIS:456:CD2:9036, H-A:LYS:547:NZ:4948, V-B:LYS:547:CE:9919, V-B:GLU:543:CB:9875, V-B:GLU:543:CD:9877, V-B:GLU:543:CG:9876, V-A:HIS:456:CD2:4064, V-B:GLU:543:C:9871, H-A:ARG:545:NE:4921, V-B:GLU:543:CA:9873, H-A:HIS:456:NE2:4067, H-B:GLU:543:O:9872, H-A:HIS:456:ND1:4063"]

$$$$
2a_Ghoteimi_2023
     RDKit          3D

 48 53  0  0  0  0  0  0  0  0999 V2000
  125.1780  125.8460   58.5020 C   0  0  0  0  0  0  0  0  0  0  0  0
  124.0930  124.7730   58.6330 C   0  0  0  0  0  0  0  0  0  0  0  0
  124.6990  123.5250   58.9440 O   0  0  0  0  0  0  0  0  0  0  0  0
  125.8890  123.1670   58.3990 C   0  0  0  0  0  0  0  0  0  0  0  0
  126.0550  122.9820   57.1890 O   0  0  0  0  0  0  0  0  0  0  0  0
  126.9880  123.0260   59.4130 C   0  0  0  0  0  0  0  0  0  0  0  0
  127.0000  123.7690   60.6030 C   0  0  0  0  0  0  0  0  0  0  0  0
  128.0320  123.6120   61.5230 C   0  0  0  0  0  0  0  0  0  0  0  0
  129.0690  122.7100   61.2780 C   0  0  0  0  0  0  0  0  0  0  0  0
  130.0620  122.6360   62.2740 N   0  0  0  0  0  0  0  0  0  0  0  0
  131.4010  122.4980   62.1520 C   0  0  0  0  0  0  0  0  0  0  0  0
  132.0050  122.3590   61.0880 O   0  0  0  0  0  0  0  0  0  0  0  0
  132.1770  122.4790   63.4750 C   0  0  0  0  0  0  0  0  0  0  0  0
  132.9230  124.0770   63.9350 S   0  0  0  0  0  0  0  0  0  0  0  0
  131.5700  125.2250   64.0400 C   0  0  0  0  0  0  0  0  0  0  0  0
  131.2080  125.5300   65.3080 N   0  0  0  0  0  0  0  0  0  0  0  0
  130.1800  126.3910   65.5190 C   0  0  0  0  0  0  0  0  0  0  0  0
  129.8290  126.6730   66.9440 C   0  0  0  0  0  0  0  0  0  0  0  0
  128.8200  125.9560   67.5990 C   0  0  0  0  0  0  0  0  0  0  0  0
  128.4890  126.2320   68.9220 C   0  0  0  0  0  0  0  0  0  0  0  0
  129.1600  127.2280   69.6450 C   0  0  0  0  0  0  0  0  0  0  0  0
  128.7970  127.5140   70.9650 N   0  0  0  0  0  0  0  0  0  0  0  0
  127.4630  127.1610   71.4910 C   0  0  0  0  0  0  0  0  0  0  0  0
  127.3650  127.2140   73.0300 C   0  0  0  0  0  0  0  0  0  0  0  0
  127.7740  128.4890   73.4990 O   0  0  0  0  0  0  0  0  0  0  0  0
  129.1190  128.7650   73.1410 C   0  0  0  0  0  0  0  0  0  0  0  0
  129.2720  128.7580   71.6060 C   0  0  0  0  0  0  0  0  0  0  0  0
  130.1640  127.9520   68.9810 C   0  0  0  0  0  0  0  0  0  0  0  0
  130.4960  127.6750   67.6580 C   0  0  0  0  0  0  0  0  0  0  0  0
  129.4980  126.9780   64.4500 C   0  0  0  0  0  0  0  0  0  0  0  0
  129.8560  126.6770   63.1280 C   0  0  0  0  0  0  0  0  0  0  0  0
  129.0810  127.3360   62.0340 C   0  0  0  0  0  0  0  0  0  0  0  0
  129.7030  128.2600   61.1900 C   0  0  0  0  0  0  0  0  0  0  0  0
  128.9850  128.8940   60.1800 C   0  0  0  0  0  0  0  0  0  0  0  0
  127.6230  128.6200   59.9810 C   0  0  0  0  0  0  0  0  0  0  0  0
  126.8790  129.2580   58.9850 N   0  0  0  0  0  0  0  0  0  0  0  0
  127.5080  129.5350   57.6780 C   0  0  0  0  0  0  0  0  0  0  0  0
  126.4890  129.8730   56.5690 C   0  0  0  0  0  0  0  0  0  0  0  0
  125.6710  130.9590   56.9760 O   0  0  0  0  0  0  0  0  0  0  0  0
  124.9480  130.6590   58.1590 C   0  0  0  0  0  0  0  0  0  0  0  0
  125.9260  130.3380   59.3080 C   0  0  0  0  0  0  0  0  0  0  0  0
  127.0040  127.7000   60.8400 C   0  0  0  0  0  0  0  0  0  0  0  0
  127.7210  127.0670   61.8510 C   0  0  0  0  0  0  0  0  0  0  0  0
  130.9280  125.7780   62.9100 C   0  0  0  0  0  0  0  0  0  0  0  0
  131.3850  125.4690   61.5510 C   0  0  0  0  0  0  0  0  0  0  0  0
  131.7420  125.2250   60.4770 N   0  0  0  0  0  0  0  0  0  0  0  0
  129.0680  121.9700   60.0870 C   0  0  0  0  0  0  0  0  0  0  0  0
  128.0340  122.1260   59.1680 C   0  0  0  0  0  0  0  0  0  0  0  0
  1  2  1  0
  2  3  1  0
  3  4  1  0
  4  5  2  0
  4  6  1  0
  6  7  2  0
  7  8  1  0
  8  9  2  0
  9 10  1  0
 10 11  1  0
 11 12  2  0
 11 13  1  0
 13 14  1  0
 14 15  1  0
 15 16  2  0
 16 17  1  0
 17 18  1  0
 18 19  2  0
 19 20  1  0
 20 21  2  0
 21 22  1  0
 22 23  1  0
 23 24  1  0
 24 25  1  0
 25 26  1  0
 26 27  1  0
 21 28  1  0
 28 29  2  0
 17 30  2  0
 30 31  1  0
 31 32  1  0
 32 33  2  0
 33 34  1  0
 34 35  2  0
 35 36  1  0
 36 37  1  0
 37 38  1  0
 38 39  1  0
 39 40  1  0
 40 41  1  0
 35 42  1  0
 42 43  2  0
 31 44  2  0
 44 45  1  0
 45 46  3  0
  9 47  1  0
 47 48  2  0
 48  6  1  0
 44 15  1  0
 29 18  1  0
 43 32  1  0
 27 22  1  0
 41 36  1  0
M  END
>  <Binding energies>  (8) 
[-8.57]

>  <Ligand effiencies>  (8) 
[-0.17489795918367348]

>  <Interactions>  (8) 
["V-B:TYR:539:CE2:9845, V-A:HIS:456:CE1:4066, V-B:TYR:539:CZ:9846, V-B:PRO:540:CA:9852, V-B:ALA:541:CB:9861, H-A:GLY:454:N:4046, V-B:TYR:539:C:9836, H-A:TYR:484:OH:4344, V-A:GLY:454:CA:4045, V-B:PRO:540:N:9853, V-B:PRO:540:CB:9854, V-B:TYR:539:CD2:9843, V-A:ASP:366:CG:3209, V-B:HIS:456:CD2:9036, V-A:GLU:543:CB:4903, V-A:LYS:547:CE:4947, V-B:GLY:544:C:9881, V-B:LYS:547:CE:9919, V-B:GLU:543:CB:9875, V-B:GLU:543:CD:9877, V-A:GLU:543:C:4899, V-B:HIS:456:CE1:9038, V-B:GLU:543:CG:9876, V-A:GLU:543:CD:4905, V-B:LEU:363:CA:8153, V-A:LEU:475:CD1:4254, V-B:GLU:543:C:9871, V-B:LEU:363:CD1:8157, H-B:TYR:531:OH:9764, V-B:HIS:456:CG:9034, V-B:ASP:366:CG:8181, V-B:ASP:366:CB:8180, H-A:TYR:539:OH:4875"]

$$$$
2aa_Ghoteimi_2023
     RDKit          3D

 48 53  0  0  0  0  0  0  0  0999 V2000
  132.8140  131.0810   57.2300 C   0  0  0  0  0  0  0  0  0  0  0  0
  131.5740  131.7500   56.6260 C   0  0  0  0  0  0  0  0  0  0  0  0
  130.9030  132.4940   57.6340 O   0  0  0  0  0  0  0  0  0  0  0  0
  129.5470  132.5000   57.7180 C   0  0  0  0  0  0  0  0  0  0  0  0
  128.8090  132.8050   56.7750 O   0  0  0  0  0  0  0  0  0  0  0  0
  129.0340  132.0830   59.0660 C   0  0  0  0  0  0  0  0  0  0  0  0
  129.7880  132.2670   60.2350 C   0  0  0  0  0  0  0  0  0  0  0  0
  129.2830  131.8740   61.4700 C   0  0  0  0  0  0  0  0  0  0  0  0
  128.0220  131.2830   61.5640 C   0  0  0  0  0  0  0  0  0  0  0  0
  127.6080  130.9270   62.8630 N   0  0  0  0  0  0  0  0  0  0  0  0
  127.5380  131.6770   63.9840 C   0  0  0  0  0  0  0  0  0  0  0  0
  127.8140  132.8760   64.0530 O   0  0  0  0  0  0  0  0  0  0  0  0
  127.0470  130.9220   65.2260 C   0  0  0  0  0  0  0  0  0  0  0  0
  126.8330  129.5450   64.9000 O   0  0  0  0  0  0  0  0  0  0  0  0
  127.7080  128.5740   65.3690 C   0  0  0  0  0  0  0  0  0  0  0  0
  127.8220  128.4120   66.7170 N   0  0  0  0  0  0  0  0  0  0  0  0
  128.6650  127.4700   67.2080 C   0  0  0  0  0  0  0  0  0  0  0  0
  128.7420  127.3530   68.6980 C   0  0  0  0  0  0  0  0  0  0  0  0
  127.7680  126.6470   69.4110 C   0  0  0  0  0  0  0  0  0  0  0  0
  127.8380  126.5290   70.7960 C   0  0  0  0  0  0  0  0  0  0  0  0
  128.8960  127.1030   71.5200 C   0  0  0  0  0  0  0  0  0  0  0  0
  128.9750  127.0050   72.9140 N   0  0  0  0  0  0  0  0  0  0  0  0
  127.9070  127.5360   73.7860 C   0  0  0  0  0  0  0  0  0  0  0  0
  128.3180  127.6630   75.2680 C   0  0  0  0  0  0  0  0  0  0  0  0
  128.7910  126.4150   75.7490 O   0  0  0  0  0  0  0  0  0  0  0  0
  129.9260  125.9740   75.0200 C   0  0  0  0  0  0  0  0  0  0  0  0
  129.5630  125.7970   73.5300 C   0  0  0  0  0  0  0  0  0  0  0  0
  129.8580  127.8270   70.8030 C   0  0  0  0  0  0  0  0  0  0  0  0
  129.7850  127.9470   69.4180 C   0  0  0  0  0  0  0  0  0  0  0  0
  129.4320  126.6700   66.3550 C   0  0  0  0  0  0  0  0  0  0  0  0
  129.3410  126.8240   64.9660 C   0  0  0  0  0  0  0  0  0  0  0  0
  130.2050  125.9580   64.1060 C   0  0  0  0  0  0  0  0  0  0  0  0
  129.6310  124.9900   63.2780 C   0  0  0  0  0  0  0  0  0  0  0  0
  130.4300  124.1670   62.4900 C   0  0  0  0  0  0  0  0  0  0  0  0
  131.8290  124.2790   62.5170 C   0  0  0  0  0  0  0  0  0  0  0  0
  132.6510  123.4670   61.7320 N   0  0  0  0  0  0  0  0  0  0  0  0
  133.2030  122.2010   62.2510 C   0  0  0  0  0  0  0  0  0  0  0  0
  133.7780  121.2830   61.1510 C   0  0  0  0  0  0  0  0  0  0  0  0
  134.7510  121.9870   60.3930 O   0  0  0  0  0  0  0  0  0  0  0  0
  134.1970  123.1320   59.7650 C   0  0  0  0  0  0  0  0  0  0  0  0
  133.6340  124.0980   60.8280 C   0  0  0  0  0  0  0  0  0  0  0  0
  132.3950  125.2590   63.3450 C   0  0  0  0  0  0  0  0  0  0  0  0
  131.5960  126.0820   64.1330 C   0  0  0  0  0  0  0  0  0  0  0  0
  128.4430  127.7930   64.4600 C   0  0  0  0  0  0  0  0  0  0  0  0
  128.2460  127.9880   63.0220 C   0  0  0  0  0  0  0  0  0  0  0  0
  128.0910  128.1410   61.8850 N   0  0  0  0  0  0  0  0  0  0  0  0
  127.2590  131.1020   60.4010 C   0  0  0  0  0  0  0  0  0  0  0  0
  127.7650  131.4990   59.1660 C   0  0  0  0  0  0  0  0  0  0  0  0
  1  2  1  0
  2  3  1  0
  3  4  1  0
  4  5  2  0
  4  6  1  0
  6  7  2  0
  7  8  1  0
  8  9  2  0
  9 10  1  0
 10 11  1  0
 11 12  2  0
 11 13  1  0
 13 14  1  0
 14 15  1  0
 15 16  2  0
 16 17  1  0
 17 18  1  0
 18 19  2  0
 19 20  1  0
 20 21  2  0
 21 22  1  0
 22 23  1  0
 23 24  1  0
 24 25  1  0
 25 26  1  0
 26 27  1  0
 21 28  1  0
 28 29  2  0
 17 30  2  0
 30 31  1  0
 31 32  1  0
 32 33  2  0
 33 34  1  0
 34 35  2  0
 35 36  1  0
 36 37  1  0
 37 38  1  0
 38 39  1  0
 39 40  1  0
 40 41  1  0
 35 42  1  0
 42 43  2  0
 31 44  2  0
 44 45  1  0
 45 46  3  0
  9 47  1  0
 47 48  2  0
 48  6  1  0
 44 15  1  0
 29 18  1  0
 43 32  1  0
 27 22  1  0
 41 36  1  0
M  END
>  <Binding energies>  (9) 
[-9.02]

>  <Ligand effiencies>  (9) 
[-0.1840816326530612]

>  <Interactions>  (9) 
["V-B:TYR:539:CE2:9845, V-A:HIS:456:CE1:4066, V-B:TYR:539:CZ:9846, V-A:ARG:545:CZ:4923, V-A:GLY:454:CA:4045, V-A:ASP:366:CG:3209, V-B:HIS:456:CD2:9036, V-A:LYS:547:CE:4947, V-B:GLY:544:C:9881, V-B:LYS:547:CE:9919, V-B:GLU:543:CD:9877, V-A:GLU:543:C:4899, V-B:HIS:456:CE1:9038, V-B:GLU:543:CG:9876, V-A:GLU:543:CD:4905, V-A:ILE:369:CB:3232, V-A:LEU:475:CD1:4254, V-A:ILE:369:CG2:3233, V-A:ILE:369:CG1:3234, H-A:GLU:543:OE2:4907, V-A:GLU:543:CG:4904, V-A:ASP:366:CB:3208, V-A:PRO:540:N:4881, V-A:PRO:540:C:4878, V-A:PRO:540:CA:4880, V-A:PRO:540:CB:4882, V-A:LEU:363:CD1:3185, V-A:TYR:539:C:4864, V-A:ALA:541:CB:4889, V-A:LEU:363:CA:3181, V-B:TYR:484:CE1:9313, V-B:TYR:484:CZ:9315, V-A:ASP:366:CA:3206, H-B:LYS:547:NZ:9920, H-A:TYR:539:N:4867"]

$$$$
2b_Ghoteimi_2023
     RDKit          3D

 42 47  0  0  0  0  0  0  0  0999 V2000
  129.8220  124.3610   58.9450 N   0  0  0  0  0  0  0  0  0  0  0  0
  129.7560  124.6930   60.0520 C   0  0  0  0  0  0  0  0  0  0  0  0
  129.6720  125.1210   61.4510 C   0  0  0  0  0  0  0  0  0  0  0  0
  129.6950  126.4980   61.7860 C   0  0  0  0  0  0  0  0  0  0  0  0
  129.8010  127.5960   60.7800 C   0  0  0  0  0  0  0  0  0  0  0  0
  130.7340  128.6210   60.9510 C   0  0  0  0  0  0  0  0  0  0  0  0
  130.8360  129.6470   60.0160 C   0  0  0  0  0  0  0  0  0  0  0  0
  129.9960  129.6850   58.8920 C   0  0  0  0  0  0  0  0  0  0  0  0
  130.0880  130.6970   57.9350 N   0  0  0  0  0  0  0  0  0  0  0  0
  129.0050  131.6960   57.8370 C   0  0  0  0  0  0  0  0  0  0  0  0
  129.0380  132.5060   56.5240 C   0  0  0  0  0  0  0  0  0  0  0  0
  130.3100  133.1130   56.3560 O   0  0  0  0  0  0  0  0  0  0  0  0
  131.3480  132.1480   56.3020 C   0  0  0  0  0  0  0  0  0  0  0  0
  131.3790  131.3370   57.6130 C   0  0  0  0  0  0  0  0  0  0  0  0
  129.0610  128.6530   58.7310 C   0  0  0  0  0  0  0  0  0  0  0  0
  128.9610  127.6250   59.6630 C   0  0  0  0  0  0  0  0  0  0  0  0
  129.6080  126.8570   63.1370 C   0  0  0  0  0  0  0  0  0  0  0  0
  129.4680  125.8760   64.1220 C   0  0  0  0  0  0  0  0  0  0  0  0
  129.3400  126.2090   65.5750 C   0  0  0  0  0  0  0  0  0  0  0  0
  129.6090  125.2460   66.5540 C   0  0  0  0  0  0  0  0  0  0  0  0
  129.5070  125.5530   67.9080 C   0  0  0  0  0  0  0  0  0  0  0  0
  129.1210  126.8330   68.3350 C   0  0  0  0  0  0  0  0  0  0  0  0
  129.0440  127.1660   69.6920 N   0  0  0  0  0  0  0  0  0  0  0  0
  128.5010  126.1900   70.6600 C   0  0  0  0  0  0  0  0  0  0  0  0
  128.1160  126.8140   72.0180 C   0  0  0  0  0  0  0  0  0  0  0  0
  129.2260  127.5100   72.5650 O   0  0  0  0  0  0  0  0  0  0  0  0
  129.6520  128.5600   71.7130 C   0  0  0  0  0  0  0  0  0  0  0  0
  130.0800  127.9900   70.3440 C   0  0  0  0  0  0  0  0  0  0  0  0
  128.8600  127.7970   67.3510 C   0  0  0  0  0  0  0  0  0  0  0  0
  128.9640  127.4900   65.9970 C   0  0  0  0  0  0  0  0  0  0  0  0
  129.4450  124.5580   63.8000 N   0  0  0  0  0  0  0  0  0  0  0  0
  129.5620  124.1840   62.5040 C   0  0  0  0  0  0  0  0  0  0  0  0
  129.5170  122.4210   62.2640 S   0  0  0  0  0  0  0  0  0  0  0  0
  129.2890  122.1150   60.4860 C   0  0  0  0  0  0  0  0  0  0  0  0
  127.8840  122.4920   60.0130 C   0  0  0  0  0  0  0  0  0  0  0  0
  127.5570  122.2580   58.8480 O   0  0  0  0  0  0  0  0  0  0  0  0
  127.0950  123.0740   60.9410 N   0  0  0  0  0  0  0  0  0  0  0  0
  125.7840  123.5010   60.7840 C   0  0  0  0  0  0  0  0  0  0  0  0
  125.4490  124.7720   60.3170 C   0  0  0  0  0  0  0  0  0  0  0  0
  124.0750  124.7980   60.3060 C   0  0  0  0  0  0  0  0  0  0  0  0
  123.6050  123.6060   60.7430 O   0  0  0  0  0  0  0  0  0  0  0  0
  124.6990  122.7900   61.0420 N   0  0  0  0  0  0  0  0  0  0  0  0
  1  2  3  0
  2  3  1  0
  3  4  2  0
  4  5  1  0
  5  6  2  0
  6  7  1  0
  7  8  2  0
  8  9  1  0
  9 10  1  0
 10 11  1  0
 11 12  1  0
 12 13  1  0
 13 14  1  0
  8 15  1  0
 15 16  2  0
  4 17  1  0
 17 18  2  0
 18 19  1  0
 19 20  2  0
 20 21  1  0
 21 22  2  0
 22 23  1  0
 23 24  1  0
 24 25  1  0
 25 26  1  0
 26 27  1  0
 27 28  1  0
 22 29  1  0
 29 30  2  0
 18 31  1  0
 31 32  2  0
 32 33  1  0
 33 34  1  0
 34 35  1  0
 35 36  2  0
 35 37  1  0
 37 38  1  0
 38 39  1  0
 39 40  2  0
 40 41  1  0
 41 42  1  0
 32  3  1  0
 42 38  2  0
 16  5  1  0
 30 19  1  0
 14  9  1  0
 28 23  1  0
M  END
>  <Binding energies>  (10) 
[-10.9]

>  <Ligand effiencies>  (10) 
[-0.2534883720930233]

>  <Interactions>  (10) 
["H-B:ALA:541:N:9860, V-B:TYR:539:CE2:9845, V-A:HIS:456:CE1:4066, V-B:PRO:540:CA:9852, V-B:ALA:541:CB:9861, V-B:ASN:362:C:8140, V-B:TYR:539:CD2:9843, H-B:GLU:543:OE2:9879, V-A:TYR:484:CE1:4341, V-B:HIS:456:CD2:9036, V-A:GLU:543:CB:4903, H-A:LYS:547:NZ:4948, V-B:LYS:547:CE:9919, V-B:GLU:543:CB:9875, V-B:GLU:543:CD:9877, V-A:GLU:543:C:4899, V-B:HIS:456:CE1:9038, V-B:GLU:543:CG:9876, V-A:GLU:543:CD:4905, H-B:TYR:539:OH:9847, V-A:PRO:540:N:4881, V-B:ASP:366:CG:8181, V-A:PRO:540:CA:4880, V-A:PRO:540:CB:4882, V-A:TYR:539:C:4864, V-A:TYR:539:CE2:4873, V-A:TYR:539:CD2:4871, H-B:LEU:363:N:8154, V-A:TYR:539:CG:4869, H-A:TYR:539:N:4867, V-A:ILE:538:CG2:4860, V-A:ILE:538:CD1:4862"]

$$$$
2c_Ghoteimi_2023
     RDKit          3D

 42 47  0  0  0  0  0  0  0  0999 V2000
  129.6500  124.4220   58.7490 N   0  0  0  0  0  0  0  0  0  0  0  0
  129.6450  124.7480   59.8590 C   0  0  0  0  0  0  0  0  0  0  0  0
  129.6390  125.1680   61.2640 C   0  0  0  0  0  0  0  0  0  0  0  0
  129.6840  126.5420   61.6060 C   0  0  0  0  0  0  0  0  0  0  0  0
  129.7430  127.6480   60.6040 C   0  0  0  0  0  0  0  0  0  0  0  0
  128.8040  127.7130   59.5730 C   0  0  0  0  0  0  0  0  0  0  0  0
  128.8490  128.7430   58.6370 C   0  0  0  0  0  0  0  0  0  0  0  0
  129.8450  129.7300   58.6980 C   0  0  0  0  0  0  0  0  0  0  0  0
  129.8980  130.7830   57.7810 N   0  0  0  0  0  0  0  0  0  0  0  0
  128.7490  131.7040   57.6720 C   0  0  0  0  0  0  0  0  0  0  0  0
  128.7720  132.5570   56.3860 C   0  0  0  0  0  0  0  0  0  0  0  0
  129.9990  133.2650   56.2950 O   0  0  0  0  0  0  0  0  0  0  0  0
  131.1110  132.3850   56.2550 C   0  0  0  0  0  0  0  0  0  0  0  0
  131.1490  131.5260   57.5360 C   0  0  0  0  0  0  0  0  0  0  0  0
  130.7870  129.6540   59.7340 C   0  0  0  0  0  0  0  0  0  0  0  0
  130.7390  128.6250   60.6710 C   0  0  0  0  0  0  0  0  0  0  0  0
  129.6720  126.8920   62.9630 C   0  0  0  0  0  0  0  0  0  0  0  0
  129.5900  125.9040   63.9480 C   0  0  0  0  0  0  0  0  0  0  0  0
  129.5570  126.2260   65.4080 C   0  0  0  0  0  0  0  0  0  0  0  0
  129.7790  127.5320   65.8560 C   0  0  0  0  0  0  0  0  0  0  0  0
  129.7440  127.8400   67.2140 C   0  0  0  0  0  0  0  0  0  0  0  0
  129.4960  126.8480   68.1770 C   0  0  0  0  0  0  0  0  0  0  0  0
  129.4330  127.1450   69.5420 N   0  0  0  0  0  0  0  0  0  0  0  0
  128.8210  126.1780   70.4770 C   0  0  0  0  0  0  0  0  0  0  0  0
  128.4730  126.7830   71.8530 C   0  0  0  0  0  0  0  0  0  0  0  0
  129.6240  127.3800   72.4270 O   0  0  0  0  0  0  0  0  0  0  0  0
  130.1290  128.4250   71.6110 C   0  0  0  0  0  0  0  0  0  0  0  0
  130.5220  127.8720   70.2250 C   0  0  0  0  0  0  0  0  0  0  0  0
  129.2620  125.5430   67.7210 C   0  0  0  0  0  0  0  0  0  0  0  0
  129.2960  125.2370   66.3630 C   0  0  0  0  0  0  0  0  0  0  0  0
  129.5450  124.5880   63.6180 N   0  0  0  0  0  0  0  0  0  0  0  0
  129.5870  124.2230   62.3140 C   0  0  0  0  0  0  0  0  0  0  0  0
  129.5300  122.4630   62.0650 S   0  0  0  0  0  0  0  0  0  0  0  0
  128.6780  122.1630   60.4870 C   0  0  0  0  0  0  0  0  0  0  0  0
  127.3130  122.8520   60.4310 C   0  0  0  0  0  0  0  0  0  0  0  0
  126.5750  122.8110   61.4170 O   0  0  0  0  0  0  0  0  0  0  0  0
  127.0180  123.4660   59.2650 N   0  0  0  0  0  0  0  0  0  0  0  0
  125.8610  124.1700   58.9680 C   0  0  0  0  0  0  0  0  0  0  0  0
  125.7370  125.2380   58.2110 N   0  0  0  0  0  0  0  0  0  0  0  0
  124.4840  125.6430   58.1440 C   0  0  0  0  0  0  0  0  0  0  0  0
  123.5570  124.8940   58.8610 C   0  0  0  0  0  0  0  0  0  0  0  0
  124.3810  123.5910   59.6630 S   0  0  0  0  0  0  0  0  0  0  0  0
  1  2  3  0
  2  3  1  0
  3  4  2  0
  4  5  1  0
  5  6  2  0
  6  7  1  0
  7  8  2  0
  8  9  1  0
  9 10  1  0
 10 11  1  0
 11 12  1  0
 12 13  1  0
 13 14  1  0
  8 15  1  0
 15 16  2  0
  4 17  1  0
 17 18  2  0
 18 19  1  0
 19 20  2  0
 20 21  1  0
 21 22  2  0
 22 23  1  0
 23 24  1  0
 24 25  1  0
 25 26  1  0
 26 27  1  0
 27 28  1  0
 22 29  1  0
 29 30  2  0
 18 31  1  0
 31 32  2  0
 32 33  1  0
 33 34  1  0
 34 35  1  0
 35 36  2  0
 35 37  1  0
 37 38  1  0
 38 39  2  0
 39 40  1  0
 40 41  2  0
 41 42  1  0
 32  3  1  0
 42 38  1  0
 16  5  1  0
 30 19  1  0
 14  9  1  0
 28 23  1  0
M  END
>  <Binding energies>  (11) 
[-9.88]

>  <Ligand effiencies>  (11) 
[-0.22976744186046513]

>  <Interactions>  (11) 
["V-B:PRO:540:C:9850, H-B:ALA:541:N:9860, V-B:TYR:539:CE2:9845, V-A:HIS:456:CE1:4066, V-B:PRO:540:CA:9852, V-B:ALA:541:CB:9861, V-B:ASN:362:C:8140, V-B:PRO:540:CB:9854, V-B:TYR:539:CD2:9843, V-A:ASP:366:CG:3209, V-B:HIS:456:CD2:9036, V-A:GLU:543:CB:4903, H-A:LYS:547:NZ:4948, V-B:LYS:547:CE:9919, V-B:GLU:543:CB:9875, V-B:GLU:543:CD:9877, V-A:GLU:543:C:4899, V-B:GLU:543:CG:9876, V-A:GLY:544:C:4909, V-A:GLU:543:CD:4905, V-B:LEU:363:CA:8153, H-B:TYR:539:OH:9847, V-A:HIS:456:CD2:4064, V-B:LEU:363:CD1:8157, V-B:TYR:531:CE2:9762, V-A:PRO:540:N:4881, V-B:ASP:366:CG:8181, V-A:PRO:540:CA:4880, V-A:PRO:540:CB:4882, V-A:TYR:539:C:4864, V-B:ASP:366:CB:8180, V-A:TYR:539:CE2:4873, V-A:TYR:539:CD2:4871, V-A:PRO:540:CD:4884, V-A:TYR:539:CZ:4874, V-A:TYR:539:CG:4869, H-A:TYR:539:N:4867, V-A:ILE:538:CG2:4860, V-A:ILE:538:CD1:4862"]

$$$$
2j_Grossjean_2025
     RDKit          3D

 23 24  0  0  0  0  0  0  0  0999 V2000
  134.5030  123.5100   60.2310 C   0  0  0  0  0  0  0  0  0  0  0  0
  133.4690  123.3710   61.3330 C   0  0  0  0  0  0  0  0  0  0  0  0
  133.5360  124.1330   62.4970 C   0  0  0  0  0  0  0  0  0  0  0  0
  132.5540  123.9710   63.4850 C   0  0  0  0  0  0  0  0  0  0  0  0
  132.6440  124.8230   64.7660 C   0  0  0  0  0  0  0  0  0  0  0  0
  131.4810  124.7890   65.4180 F   0  0  0  0  0  0  0  0  0  0  0  0
  133.6010  124.3490   65.5640 F   0  0  0  0  0  0  0  0  0  0  0  0
  132.9270  126.1030   64.5160 F   0  0  0  0  0  0  0  0  0  0  0  0
  131.5190  123.0290   63.2630 C   0  0  0  0  0  0  0  0  0  0  0  0
  130.4670  122.8180   64.2620 C   0  0  0  0  0  0  0  0  0  0  0  0
  129.6360  122.6530   65.0510 N   0  0  0  0  0  0  0  0  0  0  0  0
  131.5290  122.2970   62.0520 C   0  0  0  0  0  0  0  0  0  0  0  0
  130.2740  121.0850   61.6650 S   0  0  0  0  0  0  0  0  0  0  0  0
  129.2180  121.7540   60.3350 C   0  0  0  0  0  0  0  0  0  0  0  0
  128.0350  122.6070   60.8170 C   0  0  0  0  0  0  0  0  0  0  0  0
  128.1020  123.2350   61.8750 O   0  0  0  0  0  0  0  0  0  0  0  0
  126.9550  122.5880   60.0030 N   0  0  0  0  0  0  0  0  0  0  0  0
  125.7590  123.2650   60.1970 C   0  0  0  0  0  0  0  0  0  0  0  0
  124.9040  123.1260   61.1870 N   0  0  0  0  0  0  0  0  0  0  0  0
  123.8710  123.9340   61.0540 C   0  0  0  0  0  0  0  0  0  0  0  0
  123.8730  124.7570   59.9310 C   0  0  0  0  0  0  0  0  0  0  0  0
  125.3130  124.4450   59.0070 S   0  0  0  0  0  0  0  0  0  0  0  0
  132.4870  122.4700   61.1060 N   0  0  0  0  0  0  0  0  0  0  0  0
  1  2  1  0
  2  3  2  0
  3  4  1  0
  4  5  1  0
  5  6  1  0
  5  7  1  0
  5  8  1  0
  4  9  2  0
  9 10  1  0
 10 11  3  0
  9 12  1  0
 12 13  1  0
 13 14  1  0
 14 15  1  0
 15 16  2  0
 15 17  1  0
 17 18  1  0
 18 19  2  0
 19 20  1  0
 20 21  2  0
 21 22  1  0
 12 23  2  0
 23  2  1  0
 22 18  1  0
M  END
>  <Binding energies>  (12) 
[-6.03]

>  <Ligand effiencies>  (12) 
[-0.25125000000000003]

>  <Interactions>  (12) 
["V-B:PRO:540:C:9850, H-B:ALA:541:N:9860, V-B:TYR:539:CE2:9845, V-B:ASN:362:CA:8142, V-A:GLY:454:C:4043, V-A:HIS:456:CE1:4066, V-B:TYR:539:CZ:9846, V-B:ASN:362:CB:8144, V-B:PRO:540:CA:9852, V-A:ARG:545:CZ:4923, V-A:ARG:545:CD:4920, V-B:ALA:541:CB:9861, V-B:ASN:362:C:8140, H-A:TYR:484:OH:4344, V-A:GLY:454:CA:4045, V-B:PRO:540:N:9853, V-B:PRO:540:CB:9854, V-B:TYR:539:CD2:9843, V-A:ASP:366:CG:3209, V-A:TYR:484:CE1:4341, V-A:TYR:484:CZ:4343, V-A:ILE:369:CB:3232, V-B:LEU:363:CA:8153, H-B:TYR:539:O:9837, V-A:LEU:475:CD1:4254, V-A:ILE:369:CG2:3233, V-A:ILE:369:CG1:3234, V-A:ASP:366:CB:3208, V-B:ASP:366:CG:8181, V-A:ASP:366:CA:3206"]

$$$$
3ab_Grossjean_2025
     RDKit          3D

 33 35  0  0  0  0  0  0  0  0999 V2000
  130.1900  125.6940   72.8160 C   0  0  0  0  0  0  0  0  0  0  0  0
  129.4810  126.8920   73.0980 O   0  0  0  0  0  0  0  0  0  0  0  0
  129.4030  127.8900   72.1810 C   0  0  0  0  0  0  0  0  0  0  0  0
  129.4730  129.0880   72.4710 O   0  0  0  0  0  0  0  0  0  0  0  0
  129.2250  127.3910   70.7760 C   0  0  0  0  0  0  0  0  0  0  0  0
  128.1410  126.5800   70.4070 C   0  0  0  0  0  0  0  0  0  0  0  0
  128.0010  126.1330   69.0960 C   0  0  0  0  0  0  0  0  0  0  0  0
  128.9500  126.4910   68.1250 C   0  0  0  0  0  0  0  0  0  0  0  0
  128.9060  126.1030   66.7730 N   0  0  0  0  0  0  0  0  0  0  0  0
  129.8690  125.5700   65.9920 C   0  0  0  0  0  0  0  0  0  0  0  0
  131.0240  125.3300   66.3450 O   0  0  0  0  0  0  0  0  0  0  0  0
  129.4490  125.2560   64.5550 C   0  0  0  0  0  0  0  0  0  0  0  0
  130.4030  126.2130   63.3380 S   0  0  0  0  0  0  0  0  0  0  0  0
  131.0610  125.0620   62.1500 C   0  0  0  0  0  0  0  0  0  0  0  0
  130.1920  124.7500   61.1590 N   0  0  0  0  0  0  0  0  0  0  0  0
  130.5650  123.8860   60.1800 C   0  0  0  0  0  0  0  0  0  0  0  0
  129.5450  123.5960   59.1180 C   0  0  0  0  0  0  0  0  0  0  0  0
  128.5310  122.6500   59.3360 C   0  0  0  0  0  0  0  0  0  0  0  0
  127.5820  122.3780   58.3540 C   0  0  0  0  0  0  0  0  0  0  0  0
  127.6350  123.0490   57.1370 C   0  0  0  0  0  0  0  0  0  0  0  0
  128.6320  123.9880   56.8940 C   0  0  0  0  0  0  0  0  0  0  0  0
  129.5790  124.2570   57.8780 C   0  0  0  0  0  0  0  0  0  0  0  0
  131.8330  123.2940   60.1920 C   0  0  0  0  0  0  0  0  0  0  0  0
  132.7430  123.5860   61.2170 C   0  0  0  0  0  0  0  0  0  0  0  0
  134.1270  122.9080   61.1970 C   0  0  0  0  0  0  0  0  0  0  0  0
  134.2340  121.9220   62.0900 F   0  0  0  0  0  0  0  0  0  0  0  0
  134.3650  122.3840   59.9930 F   0  0  0  0  0  0  0  0  0  0  0  0
  135.0760  123.8040   61.4720 F   0  0  0  0  0  0  0  0  0  0  0  0
  132.3500  124.4900   62.2360 C   0  0  0  0  0  0  0  0  0  0  0  0
  133.2420  124.7850   63.3610 C   0  0  0  0  0  0  0  0  0  0  0  0
  133.9480  125.0160   64.2480 N   0  0  0  0  0  0  0  0  0  0  0  0
  130.0260  127.3030   68.4880 C   0  0  0  0  0  0  0  0  0  0  0  0
  130.1640  127.7470   69.7990 C   0  0  0  0  0  0  0  0  0  0  0  0
  1  2  1  0
  2  3  1  0
  3  4  2  0
  3  5  1  0
  5  6  2  0
  6  7  1  0
  7  8  2  0
  8  9  1  0
  9 10  1  0
 10 11  2  0
 10 12  1  0
 12 13  1  0
 13 14  1  0
 14 15  2  0
 15 16  1  0
 16 17  1  0
 17 18  2  0
 18 19  1  0
 19 20  2  0
 20 21  1  0
 21 22  2  0
 16 23  2  0
 23 24  1  0
 24 25  1  0
 25 26  1  0
 25 27  1  0
 25 28  1  0
 24 29  2  0
 29 30  1  0
 30 31  3  0
  8 32  1  0
 32 33  2  0
 33  5  1  0
 29 14  1  0
 22 17  1  0
M  END
>  <Binding energies>  (13) 
[-8.53]

>  <Ligand effiencies>  (13) 
[-0.25088235294117645]

>  <Interactions>  (13) 
["V-B:TYR:539:CE2:9845, V-A:HIS:456:CE1:4066, V-B:TYR:539:CZ:9846, V-A:GLY:453:C:4038, V-B:PRO:540:CA:9852, V-A:ARG:545:CZ:4923, V-B:TYR:539:CE1:9844, V-A:GLY:453:CA:4040, H-A:GLY:454:N:4046, V-B:TYR:539:C:9836, H-A:TYR:484:OH:4344, V-A:GLY:454:CA:4045, V-B:PRO:540:N:9853, V-B:TYR:539:CD2:9843, V-A:ASP:366:CG:3209, V-B:HIS:456:CD2:9036, H-A:LYS:547:NZ:4948, V-B:LYS:547:CE:9919, V-B:GLU:543:CB:9875, V-B:GLU:543:CD:9877, V-B:HIS:456:CE1:9038, V-B:GLU:543:CG:9876, H-A:ARG:545:NH2:4925, V-A:ILE:369:CB:3232, H-A:ARG:545:NH1:4924, V-A:LEU:475:CD1:4254, V-A:ILE:369:CG2:3233, V-A:ILE:369:CG1:3234, V-B:MET:535:CE:9804, V-A:HIS:456:CD2:4064, V-B:GLU:543:C:9871, H-B:GLU:543:OE1:9878, H-A:ARG:545:NE:4921"]

$$$$
3ac_Grossjean_2025
     RDKit          3D

 31 33  0  0  0  0  0  0  0  0999 V2000
  128.3710  127.8010   73.1270 C   0  0  0  0  0  0  0  0  0  0  0  0
  129.5670  127.6100   72.3770 O   0  0  0  0  0  0  0  0  0  0  0  0
  129.4790  127.3170   71.0290 C   0  0  0  0  0  0  0  0  0  0  0  0
  130.3570  127.9970   70.1860 C   0  0  0  0  0  0  0  0  0  0  0  0
  130.3440  127.7640   68.8140 C   0  0  0  0  0  0  0  0  0  0  0  0
  129.4440  126.8510   68.2630 C   0  0  0  0  0  0  0  0  0  0  0  0
  129.5200  126.6680   66.8700 N   0  0  0  0  0  0  0  0  0  0  0  0
  130.6010  126.7240   66.0620 C   0  0  0  0  0  0  0  0  0  0  0  0
  131.7590  126.9120   66.4350 O   0  0  0  0  0  0  0  0  0  0  0  0
  130.3200  126.5300   64.5710 C   0  0  0  0  0  0  0  0  0  0  0  0
  129.8230  124.8240   64.1810 S   0  0  0  0  0  0  0  0  0  0  0  0
  130.7160  124.2840   62.7360 C   0  0  0  0  0  0  0  0  0  0  0  0
  129.9110  124.0240   61.6780 N   0  0  0  0  0  0  0  0  0  0  0  0
  130.4510  123.6090   60.5020 C   0  0  0  0  0  0  0  0  0  0  0  0
  129.4900  123.3370   59.3840 C   0  0  0  0  0  0  0  0  0  0  0  0
  129.5460  124.0770   58.1910 C   0  0  0  0  0  0  0  0  0  0  0  0
  128.6610  123.8240   57.1470 C   0  0  0  0  0  0  0  0  0  0  0  0
  127.7020  122.8260   57.2820 C   0  0  0  0  0  0  0  0  0  0  0  0
  127.6200  122.0820   58.4540 C   0  0  0  0  0  0  0  0  0  0  0  0
  128.5080  122.3380   59.4960 C   0  0  0  0  0  0  0  0  0  0  0  0
  131.8310  123.4290   60.3720 C   0  0  0  0  0  0  0  0  0  0  0  0
  132.6850  123.6690   61.4590 C   0  0  0  0  0  0  0  0  0  0  0  0
  134.1990  123.4520   61.2730 C   0  0  0  0  0  0  0  0  0  0  0  0
  134.9360  124.3150   61.9750 F   0  0  0  0  0  0  0  0  0  0  0  0
  134.5420  122.2250   61.6680 F   0  0  0  0  0  0  0  0  0  0  0  0
  134.5230  123.5970   59.9870 F   0  0  0  0  0  0  0  0  0  0  0  0
  132.1170  124.0960   62.6850 C   0  0  0  0  0  0  0  0  0  0  0  0
  132.9590  124.2860   63.8680 C   0  0  0  0  0  0  0  0  0  0  0  0
  133.6250  124.4340   64.8030 N   0  0  0  0  0  0  0  0  0  0  0  0
  128.5620  126.1570   69.1060 C   0  0  0  0  0  0  0  0  0  0  0  0
  128.5780  126.3920   70.4780 C   0  0  0  0  0  0  0  0  0  0  0  0
  1  2  1  0
  2  3  1  0
  3  4  2  0
  4  5  1  0
  5  6  2  0
  6  7  1  0
  7  8  1  0
  8  9  2  0
  8 10  1  0
 10 11  1  0
 11 12  1  0
 12 13  2  0
 13 14  1  0
 14 15  1  0
 15 16  2  0
 16 17  1  0
 17 18  2  0
 18 19  1  0
 19 20  2  0
 14 21  2  0
 21 22  1  0
 22 23  1  0
 23 24  1  0
 23 25  1  0
 23 26  1  0
 22 27  2  0
 27 28  1  0
 28 29  3  0
  6 30  1  0
 30 31  2  0
 31  3  1  0
 27 12  1  0
 20 15  1  0
M  END
>  <Binding energies>  (14) 
[-8.1]

>  <Ligand effiencies>  (14) 
[-0.253125]

>  <Interactions>  (14) 
["V-B:TYR:539:CE2:9845, V-A:HIS:456:CE1:4066, V-B:TYR:539:CZ:9846, V-A:GLY:453:C:4038, V-B:PRO:540:CA:9852, V-B:TYR:539:CE1:9844, V-A:GLY:453:CA:4040, H-A:GLY:454:N:4046, V-B:TYR:539:C:9836, H-A:TYR:484:OH:4344, V-A:GLY:454:CA:4045, V-B:PRO:540:N:9853, V-B:TYR:539:CD2:9843, V-A:ASP:366:CG:3209, V-B:HIS:456:CD2:9036, V-A:GLU:543:CB:4903, H-A:LYS:547:NZ:4948, V-B:LYS:547:CE:9919, V-B:GLU:543:CB:9875, V-A:GLU:543:C:4899, V-A:GLY:544:C:4909, V-A:GLU:543:CD:4905, V-A:ILE:369:CB:3232, V-A:ILE:369:CG2:3233, V-A:ILE:369:CG1:3234, V-A:ASP:366:CB:3208, V-B:GLU:543:C:9871, H-B:GLU:543:OE1:9878, H-A:ARG:545:NE:4921, V-A:ASP:366:CA:3206"]

$$$$
3af_Grossjean_2025
     RDKit          3D

 29 31  0  0  0  0  0  0  0  0999 V2000
  127.9770  128.2460   62.3350 N   0  0  0  0  0  0  0  0  0  0  0  0
  128.2620  128.0770   63.4440 C   0  0  0  0  0  0  0  0  0  0  0  0
  128.6230  127.8630   64.8480 C   0  0  0  0  0  0  0  0  0  0  0  0
  129.5660  126.8700   65.2080 C   0  0  0  0  0  0  0  0  0  0  0  0
  130.2980  126.0010   64.1660 C   0  0  0  0  0  0  0  0  0  0  0  0
  129.4670  125.2380   63.4520 F   0  0  0  0  0  0  0  0  0  0  0  0
  130.9640  126.7780   63.3120 F   0  0  0  0  0  0  0  0  0  0  0  0
  131.1610  125.1860   64.7750 F   0  0  0  0  0  0  0  0  0  0  0  0
  129.8380  126.6660   66.5690 C   0  0  0  0  0  0  0  0  0  0  0  0
  129.1860  127.4290   67.5430 C   0  0  0  0  0  0  0  0  0  0  0  0
  129.4250  127.2390   69.0110 C   0  0  0  0  0  0  0  0  0  0  0  0
  130.5130  127.8580   69.6470 C   0  0  0  0  0  0  0  0  0  0  0  0
  130.7390  127.6870   71.0100 C   0  0  0  0  0  0  0  0  0  0  0  0
  129.8760  126.8940   71.7580 C   0  0  0  0  0  0  0  0  0  0  0  0
  128.7880  126.2730   71.1540 C   0  0  0  0  0  0  0  0  0  0  0  0
  128.5660  126.4460   69.7900 C   0  0  0  0  0  0  0  0  0  0  0  0
  128.2800  128.3770   67.1940 N   0  0  0  0  0  0  0  0  0  0  0  0
  128.0170  128.6090   65.8850 C   0  0  0  0  0  0  0  0  0  0  0  0
  126.8160  129.8980   65.6240 S   0  0  0  0  0  0  0  0  0  0  0  0
  125.2810  129.1240   65.0300 C   0  0  0  0  0  0  0  0  0  0  0  0
  124.6940  129.8720   63.8330 C   0  0  0  0  0  0  0  0  0  0  0  0
  123.5190  130.2370   63.8730 O   0  0  0  0  0  0  0  0  0  0  0  0
  125.5410  130.0660   62.7990 N   0  0  0  0  0  0  0  0  0  0  0  0
  125.3180  130.7020   61.5620 C   0  0  0  0  0  0  0  0  0  0  0  0
  126.1110  130.5570   60.4090 C   0  0  0  0  0  0  0  0  0  0  0  0
  125.7730  131.2520   59.2460 C   0  0  0  0  0  0  0  0  0  0  0  0
  124.6480  132.0770   59.2640 C   0  0  0  0  0  0  0  0  0  0  0  0
  123.8670  132.2330   60.3610 N   0  0  0  0  0  0  0  0  0  0  0  0
  124.2080  131.5510   61.4840 C   0  0  0  0  0  0  0  0  0  0  0  0
  1  2  3  0
  2  3  1  0
  3  4  2  0
  4  5  1  0
  5  6  1  0
  5  7  1  0
  5  8  1  0
  4  9  1  0
  9 10  2  0
 10 11  1  0
 11 12  2  0
 12 13  1  0
 13 14  2  0
 14 15  1  0
 15 16  2  0
 10 17  1  0
 17 18  2  0
 18 19  1  0
 19 20  1  0
 20 21  1  0
 21 22  2  0
 21 23  1  0
 23 24  1  0
 24 25  2  0
 25 26  1  0
 26 27  2  0
 27 28  1  0
 28 29  2  0
 18  3  1  0
 29 24  1  0
 16 11  1  0
M  END
>  <Binding energies>  (15) 
[-6.83]

>  <Ligand effiencies>  (15) 
[-0.22766666666666666]

>  <Interactions>  (15) 
["V-A:HIS:456:CE1:4066, V-A:ARG:545:CZ:4923, V-B:GLU:543:CD:9877, V-A:GLU:543:C:4899, V-B:HIS:456:CE1:9038, V-B:GLU:543:CG:9876, V-A:GLY:544:C:4909, V-A:GLU:543:CD:4905, H-B:GLY:454:N:9018, V-B:ARG:545:CZ:9895, H-B:TYR:484:OH:9316, V-A:HIS:456:CD2:4064, H-B:ARG:545:NH2:9897, V-B:ASP:366:CG:8181, V-A:TYR:539:CE2:4873, V-B:ILE:369:CD1:8207, V-B:ILE:369:CG2:8205, H-B:ARG:545:NH1:9896"]

$$$$
3ag_Grossjean_2025
     RDKit          3D

 30 32  0  0  0  0  0  0  0  0999 V2000
  128.1320  127.6290   61.1970 N   0  0  0  0  0  0  0  0  0  0  0  0
  128.2420  127.5720   62.3480 C   0  0  0  0  0  0  0  0  0  0  0  0
  128.3780  127.5020   63.8060 C   0  0  0  0  0  0  0  0  0  0  0  0
  127.6370  128.3700   64.6440 C   0  0  0  0  0  0  0  0  0  0  0  0
  126.6150  129.3850   64.0960 C   0  0  0  0  0  0  0  0  0  0  0  0
  125.7240  128.8290   63.2730 F   0  0  0  0  0  0  0  0  0  0  0  0
  125.9400  129.9390   65.1040 F   0  0  0  0  0  0  0  0  0  0  0  0
  127.2410  130.3450   63.4150 F   0  0  0  0  0  0  0  0  0  0  0  0
  127.8420  128.3010   66.0310 C   0  0  0  0  0  0  0  0  0  0  0  0
  128.7700  127.3990   66.5640 C   0  0  0  0  0  0  0  0  0  0  0  0
  129.0310  127.2850   68.0350 C   0  0  0  0  0  0  0  0  0  0  0  0
  128.2080  126.4920   68.8500 C   0  0  0  0  0  0  0  0  0  0  0  0
  128.4450  126.3810   70.2170 C   0  0  0  0  0  0  0  0  0  0  0  0
  129.5120  127.0650   70.7900 C   0  0  0  0  0  0  0  0  0  0  0  0
  130.3420  127.8600   70.0050 C   0  0  0  0  0  0  0  0  0  0  0  0
  130.1010  127.9690   68.6390 C   0  0  0  0  0  0  0  0  0  0  0  0
  129.4700  126.5600   65.7570 N   0  0  0  0  0  0  0  0  0  0  0  0
  129.2730  126.5950   64.4170 C   0  0  0  0  0  0  0  0  0  0  0  0
  130.2700  125.4260   63.5210 S   0  0  0  0  0  0  0  0  0  0  0  0
  129.4750  123.7990   63.6840 C   0  0  0  0  0  0  0  0  0  0  0  0
  129.0710  123.2150   62.3290 C   0  0  0  0  0  0  0  0  0  0  0  0
  129.8490  122.4780   61.7210 O   0  0  0  0  0  0  0  0  0  0  0  0
  127.8500  123.5490   61.8750 N   0  0  0  0  0  0  0  0  0  0  0  0
  127.2500  123.0770   60.6270 C   0  0  0  0  0  0  0  0  0  0  0  0
  125.9220  123.7430   60.2850 C   0  0  0  0  0  0  0  0  0  0  0  0
  124.7750  123.4180   61.0140 C   0  0  0  0  0  0  0  0  0  0  0  0
  123.5660  124.0450   60.7240 C   0  0  0  0  0  0  0  0  0  0  0  0
  123.5100  125.0020   59.7130 C   0  0  0  0  0  0  0  0  0  0  0  0
  124.6530  125.3420   58.9920 C   0  0  0  0  0  0  0  0  0  0  0  0
  125.8620  124.7150   59.2820 C   0  0  0  0  0  0  0  0  0  0  0  0
  1  2  3  0
  2  3  1  0
  3  4  2  0
  4  5  1  0
  5  6  1  0
  5  7  1  0
  5  8  1  0
  4  9  1  0
  9 10  2  0
 10 11  1  0
 11 12  2  0
 12 13  1  0
 13 14  2  0
 14 15  1  0
 15 16  2  0
 10 17  1  0
 17 18  2  0
 18 19  1  0
 19 20  1  0
 20 21  1  0
 21 22  2  0
 21 23  1  0
 23 24  1  0
 24 25  1  0
 25 26  2  0
 26 27  1  0
 27 28  2  0
 28 29  1  0
 29 30  2  0
 18  3  1  0
 30 25  1  0
 16 11  1  0
M  END
>  <Binding energies>  (16) 
[-7.38]

>  <Ligand effiencies>  (16) 
[-0.23806451612903226]

>  <Interactions>  (16) 
["V-B:ASN:362:CA:8142, V-A:HIS:456:CE1:4066, V-B:ASN:362:CB:8144, V-B:PRO:540:CA:9852, V-B:ALA:541:CB:9861, V-B:ASN:362:C:8140, V-B:PRO:540:CB:9854, H-B:GLU:543:OE2:9879, V-A:GLU:543:CB:4903, V-B:GLU:543:CB:9875, V-B:GLU:543:CD:9877, V-A:GLU:543:C:4899, V-B:HIS:456:CE1:9038, V-B:GLU:543:CG:9876, V-A:GLU:543:CD:4905, V-B:LEU:363:CA:8153, V-B:ARG:545:CZ:9895, V-A:HIS:456:CD2:4064, H-B:GLU:543:OE1:9878, V-B:ASP:366:CG:8181, V-B:ASP:366:CB:8180"]

$$$$
3bc_Grossjean_2025
     RDKit          3D

 28 30  0  0  0  0  0  0  0  0999 V2000
  128.2970  127.8940   73.3520 C   0  0  0  0  0  0  0  0  0  0  0  0
  129.5180  127.6490   72.6630 O   0  0  0  0  0  0  0  0  0  0  0  0
  129.4790  127.3300   71.3180 C   0  0  0  0  0  0  0  0  0  0  0  0
  130.3930  127.9900   70.4970 C   0  0  0  0  0  0  0  0  0  0  0  0
  130.4290  127.7350   69.1280 C   0  0  0  0  0  0  0  0  0  0  0  0
  129.5430  126.8180   68.5610 C   0  0  0  0  0  0  0  0  0  0  0  0
  129.6630  126.6170   67.1730 N   0  0  0  0  0  0  0  0  0  0  0  0
  130.7170  126.8600   66.3650 C   0  0  0  0  0  0  0  0  0  0  0  0
  131.8100  127.2850   66.7450 O   0  0  0  0  0  0  0  0  0  0  0  0
  130.4810  126.5260   64.8850 C   0  0  0  0  0  0  0  0  0  0  0  0
  130.1110  124.7740   64.5350 S   0  0  0  0  0  0  0  0  0  0  0  0
  130.9710  124.3230   63.0430 C   0  0  0  0  0  0  0  0  0  0  0  0
  130.1480  124.0350   62.0060 N   0  0  0  0  0  0  0  0  0  0  0  0
  130.6730  123.6780   60.8040 C   0  0  0  0  0  0  0  0  0  0  0  0
  129.6950  123.3540   59.7150 C   0  0  0  0  0  0  0  0  0  0  0  0
  128.7590  122.3210   59.8750 C   0  0  0  0  0  0  0  0  0  0  0  0
  127.8480  122.0140   58.8670 C   0  0  0  0  0  0  0  0  0  0  0  0
  127.8620  122.7400   57.6810 C   0  0  0  0  0  0  0  0  0  0  0  0
  128.7810  123.7680   57.4950 C   0  0  0  0  0  0  0  0  0  0  0  0
  129.6910  124.0700   58.5050 C   0  0  0  0  0  0  0  0  0  0  0  0
  132.0570  123.6020   60.6200 C   0  0  0  0  0  0  0  0  0  0  0  0
  132.9210  123.9190   61.6740 C   0  0  0  0  0  0  0  0  0  0  0  0
  134.4260  123.8390   61.4220 C   0  0  0  0  0  0  0  0  0  0  0  0
  132.3780  124.3010   62.9200 C   0  0  0  0  0  0  0  0  0  0  0  0
  133.2630  124.6850   64.0230 C   0  0  0  0  0  0  0  0  0  0  0  0
  133.9640  124.9860   64.8930 N   0  0  0  0  0  0  0  0  0  0  0  0
  128.6310  126.1390   69.3820 C   0  0  0  0  0  0  0  0  0  0  0  0
  128.5980  126.3970   70.7500 C   0  0  0  0  0  0  0  0  0  0  0  0
  1  2  1  0
  2  3  1  0
  3  4  2  0
  4  5  1  0
  5  6  2  0
  6  7  1  0
  7  8  1  0
  8  9  2  0
  8 10  1  0
 10 11  1  0
 11 12  1  0
 12 13  2  0
 13 14  1  0
 14 15  1  0
 15 16  2  0
 16 17  1  0
 17 18  2  0
 18 19  1  0
 19 20  2  0
 14 21  2  0
 21 22  1  0
 22 23  1  0
 22 24  2  0
 24 25  1  0
 25 26  3  0
  6 27  1  0
 27 28  2  0
 28  3  1  0
 24 12  1  0
 20 15  1  0
M  END
>  <Binding energies>  (17) 
[-8.34]

>  <Ligand effiencies>  (17) 
[-0.28758620689655173]

>  <Interactions>  (17) 
["V-B:TYR:539:CE2:9845, V-A:HIS:456:CE1:4066, V-B:TYR:539:CZ:9846, V-A:GLY:453:C:4038, V-B:PRO:540:CA:9852, V-A:ARG:545:CZ:4923, V-B:TYR:539:CE1:9844, V-A:GLY:453:CA:4040, H-A:GLY:454:N:4046, V-B:TYR:539:C:9836, H-A:TYR:484:OH:4344, V-A:GLY:454:CA:4045, V-B:PRO:540:N:9853, V-B:TYR:539:CD2:9843, V-A:ASP:366:CG:3209, V-B:HIS:456:CD2:9036, V-A:GLU:543:CB:4903, H-A:LYS:547:NZ:4948, V-B:LYS:547:CE:9919, V-A:GLU:543:C:4899, V-A:GLY:544:C:4909, V-A:GLU:543:CD:4905, V-B:GLU:543:C:9871, H-B:GLU:543:OE1:9878, H-A:ARG:545:NE:4921"]

$$$$
3bd_Grossjean_2025
     RDKit          3D

 26 28  0  0  0  0  0  0  0  0999 V2000
  130.1170  125.8360   64.4010 C   0  0  0  0  0  0  0  0  0  0  0  0
  129.4780  126.7350   65.4570 C   0  0  0  0  0  0  0  0  0  0  0  0
  129.7630  126.4810   66.8030 C   0  0  0  0  0  0  0  0  0  0  0  0
  129.1940  127.2800   67.8010 C   0  0  0  0  0  0  0  0  0  0  0  0
  129.4610  127.0650   69.2620 C   0  0  0  0  0  0  0  0  0  0  0  0
  130.4470  127.8110   69.9280 C   0  0  0  0  0  0  0  0  0  0  0  0
  130.7010  127.6150   71.2830 C   0  0  0  0  0  0  0  0  0  0  0  0
  129.9700  126.6670   71.9930 C   0  0  0  0  0  0  0  0  0  0  0  0
  128.9900  125.9140   71.3560 C   0  0  0  0  0  0  0  0  0  0  0  0
  128.7390  126.1120   70.0010 C   0  0  0  0  0  0  0  0  0  0  0  0
  128.3740  128.3150   67.4800 N   0  0  0  0  0  0  0  0  0  0  0  0
  128.0850  128.5750   66.1800 C   0  0  0  0  0  0  0  0  0  0  0  0
  126.9870  129.9520   65.8920 S   0  0  0  0  0  0  0  0  0  0  0  0
  125.5050  129.3240   65.0470 C   0  0  0  0  0  0  0  0  0  0  0  0
  125.0480  130.2550   63.9230 C   0  0  0  0  0  0  0  0  0  0  0  0
  123.8770  130.6350   63.8990 O   0  0  0  0  0  0  0  0  0  0  0  0
  125.9920  130.5820   63.0140 N   0  0  0  0  0  0  0  0  0  0  0  0
  125.8880  131.4290   61.8940 C   0  0  0  0  0  0  0  0  0  0  0  0
  124.7280  131.2930   61.1270 C   0  0  0  0  0  0  0  0  0  0  0  0
  124.5400  132.0820   59.9950 C   0  0  0  0  0  0  0  0  0  0  0  0
  125.5170  133.0020   59.6250 C   0  0  0  0  0  0  0  0  0  0  0  0
  126.6830  133.1380   60.3740 C   0  0  0  0  0  0  0  0  0  0  0  0
  126.8740  132.3510   61.5070 C   0  0  0  0  0  0  0  0  0  0  0  0
  128.6180  127.8040   65.1240 C   0  0  0  0  0  0  0  0  0  0  0  0
  128.3010  128.0970   63.7230 C   0  0  0  0  0  0  0  0  0  0  0  0
  128.0520  128.3270   62.6170 N   0  0  0  0  0  0  0  0  0  0  0  0
  1  2  1  0
  2  3  2  0
  3  4  1  0
  4  5  1  0
  5  6  2  0
  6  7  1  0
  7  8  2  0
  8  9  1  0
  9 10  2  0
  4 11  2  0
 11 12  1  0
 12 13  1  0
 13 14  1  0
 14 15  1  0
 15 16  2  0
 15 17  1  0
 17 18  1  0
 18 19  2  0
 19 20  1  0
 20 21  2  0
 21 22  1  0
 22 23  2  0
 12 24  2  0
 24 25  1  0
 25 26  3  0
 24  2  1  0
 10  5  1  0
 23 18  1  0
M  END
>  <Binding energies>  (18) 
[-7.22]

>  <Ligand effiencies>  (18) 
[-0.26740740740740737]

>  <Interactions>  (18) 
["V-A:HIS:456:CE1:4066, V-B:GLU:543:CD:9877, V-A:GLU:543:C:4899, V-B:HIS:456:CE1:9038, V-A:GLY:544:C:4909, V-A:GLU:543:CD:4905, H-A:GLU:543:OE2:4907, H-B:GLY:454:N:9018, V-B:ARG:545:CZ:9895, H-B:TYR:484:OH:9316, V-A:HIS:456:CD2:4064, V-B:ASP:366:CG:8181, V-A:TYR:539:CE2:4873, V-A:TYR:539:CD2:4871, V-B:ILE:369:CG2:8205"]

$$$$
3be_Grossjean_2025
     RDKit          3D

 27 29  0  0  0  0  0  0  0  0999 V2000
  129.8090  123.8790   63.5540 C   0  0  0  0  0  0  0  0  0  0  0  0
  129.1780  123.2180   62.3440 C   0  0  0  0  0  0  0  0  0  0  0  0
  129.7680  122.1160   61.7220 C   0  0  0  0  0  0  0  0  0  0  0  0
  129.1330  121.5610   60.6110 C   0  0  0  0  0  0  0  0  0  0  0  0
  127.9340  122.1140   60.1540 C   0  0  0  0  0  0  0  0  0  0  0  0
  127.3940  123.2170   60.8270 C   0  0  0  0  0  0  0  0  0  0  0  0
  126.1910  123.7350   60.3120 N   0  0  0  0  0  0  0  0  0  0  0  0
  124.9260  123.5030   60.7240 C   0  0  0  0  0  0  0  0  0  0  0  0
  124.6190  122.7590   61.6580 O   0  0  0  0  0  0  0  0  0  0  0  0
  123.8440  124.2520   59.9300 C   0  0  0  0  0  0  0  0  0  0  0  0
  124.0870  124.2790   58.1220 S   0  0  0  0  0  0  0  0  0  0  0  0
  125.6100  125.1350   57.7810 C   0  0  0  0  0  0  0  0  0  0  0  0
  125.5920  126.4410   58.1440 N   0  0  0  0  0  0  0  0  0  0  0  0
  126.6920  127.2150   57.9450 C   0  0  0  0  0  0  0  0  0  0  0  0
  126.5840  128.6520   58.3610 C   0  0  0  0  0  0  0  0  0  0  0  0
  127.3300  129.1430   59.4440 C   0  0  0  0  0  0  0  0  0  0  0  0
  127.2330  130.4750   59.8370 C   0  0  0  0  0  0  0  0  0  0  0  0
  126.3860  131.3370   59.1490 C   0  0  0  0  0  0  0  0  0  0  0  0
  125.6350  130.8760   58.0740 C   0  0  0  0  0  0  0  0  0  0  0  0
  125.7340  129.5430   57.6850 C   0  0  0  0  0  0  0  0  0  0  0  0
  127.8480  126.6820   57.3650 C   0  0  0  0  0  0  0  0  0  0  0  0
  127.8920  125.3310   57.0080 C   0  0  0  0  0  0  0  0  0  0  0  0
  129.1810  124.7890   56.3940 C   0  0  0  0  0  0  0  0  0  0  0  0
  126.7560  124.5210   57.2260 C   0  0  0  0  0  0  0  0  0  0  0  0
  126.7980  123.0920   56.9090 C   0  0  0  0  0  0  0  0  0  0  0  0
  126.8350  121.9630   56.6590 N   0  0  0  0  0  0  0  0  0  0  0  0
  128.0140  123.7660   61.9120 N   0  0  0  0  0  0  0  0  0  0  0  0
  1  2  1  0
  2  3  2  0
  3  4  1  0
  4  5  2  0
  5  6  1  0
  6  7  1  0
  7  8  1  0
  8  9  2  0
  8 10  1  0
 10 11  1  0
 11 12  1  0
 12 13  2  0
 13 14  1  0
 14 15  1  0
 15 16  2  0
 16 17  1  0
 17 18  2  0
 18 19  1  0
 19 20  2  0
 14 21  2  0
 21 22  1  0
 22 23  1  0
 22 24  2  0
 24 25  1  0
 25 26  3  0
  6 27  2  0
 27  2  1  0
 24 12  1  0
 20 15  1  0
M  END
>  <Binding energies>  (19) 
[-7.5]

>  <Ligand effiencies>  (19) 
[-0.26785714285714285]

>  <Interactions>  (19) 
["V-B:PRO:540:C:9850, H-B:ALA:541:N:9860, V-B:TYR:539:CE2:9845, V-B:PRO:540:CA:9852, V-B:ALA:541:CB:9861, V-B:TYR:539:C:9836, V-B:ASN:362:C:8140, V-B:PRO:540:N:9853, V-B:PRO:540:CB:9854, V-B:TYR:539:CD2:9843, V-B:GLU:543:CD:9877, V-B:GLU:543:CG:9876, V-B:LEU:363:CA:8153, H-B:TYR:539:N:9839, V-B:MET:535:CE:9804, H-B:TYR:531:OH:9764, V-B:ASP:366:CB:8180, V-A:TYR:539:CE2:4873"]

$$$$
3bf_Grossjean_2025
     RDKit          3D

 26 28  0  0  0  0  0  0  0  0999 V2000
  127.6920  129.1120   64.9160 C   0  0  0  0  0  0  0  0  0  0  0  0
  128.4120  128.0370   65.7270 C   0  0  0  0  0  0  0  0  0  0  0  0
  128.3150  128.0880   67.1210 C   0  0  0  0  0  0  0  0  0  0  0  0
  128.9470  127.1140   67.9020 C   0  0  0  0  0  0  0  0  0  0  0  0
  128.8630  127.0990   69.3990 C   0  0  0  0  0  0  0  0  0  0  0  0
  127.7720  126.5020   70.0490 C   0  0  0  0  0  0  0  0  0  0  0  0
  127.6870  126.4850   71.4380 C   0  0  0  0  0  0  0  0  0  0  0  0
  128.6960  127.0680   72.1990 C   0  0  0  0  0  0  0  0  0  0  0  0
  129.7870  127.6670   71.5790 C   0  0  0  0  0  0  0  0  0  0  0  0
  129.8680  127.6830   70.1890 C   0  0  0  0  0  0  0  0  0  0  0  0
  129.6600  126.1110   67.3230 N   0  0  0  0  0  0  0  0  0  0  0  0
  129.7840  126.0630   65.9740 C   0  0  0  0  0  0  0  0  0  0  0  0
  130.7560  124.6880   65.3970 S   0  0  0  0  0  0  0  0  0  0  0  0
  132.5180  125.1460   65.5260 C   0  0  0  0  0  0  0  0  0  0  0  0
  133.3260  125.0050   64.2270 C   0  0  0  0  0  0  0  0  0  0  0  0
  134.5220  125.3000   64.1950 O   0  0  0  0  0  0  0  0  0  0  0  0
  132.6270  124.5160   63.1800 N   0  0  0  0  0  0  0  0  0  0  0  0
  133.0600  124.2790   61.8620 C   0  0  0  0  0  0  0  0  0  0  0  0
  134.3250  123.7020   61.7010 C   0  0  0  0  0  0  0  0  0  0  0  0
  134.8060  123.4280   60.4190 C   0  0  0  0  0  0  0  0  0  0  0  0
  133.9990  123.7390   59.3240 C   0  0  0  0  0  0  0  0  0  0  0  0
  132.7650  124.2880   59.4510 N   0  0  0  0  0  0  0  0  0  0  0  0
  132.3100  124.5480   60.7040 C   0  0  0  0  0  0  0  0  0  0  0  0
  129.1580  127.0010   65.1240 C   0  0  0  0  0  0  0  0  0  0  0  0
  129.2310  126.9000   63.6640 C   0  0  0  0  0  0  0  0  0  0  0  0
  129.2890  126.8230   62.5110 N   0  0  0  0  0  0  0  0  0  0  0  0
  1  2  1  0
  2  3  2  0
  3  4  1  0
  4  5  1  0
  5  6  2  0
  6  7  1  0
  7  8  2  0
  8  9  1  0
  9 10  2  0
  4 11  2  0
 11 12  1  0
 12 13  1  0
 13 14  1  0
 14 15  1  0
 15 16  2  0
 15 17  1  0
 17 18  1  0
 18 19  2  0
 19 20  1  0
 20 21  2  0
 21 22  1  0
 22 23  2  0
 12 24  2  0
 24 25  1  0
 25 26  3  0
 24  2  1  0
 10  5  1  0
 23 18  1  0
M  END
>  <Binding energies>  (20) 
[-7.23]

>  <Ligand effiencies>  (20) 
[-0.2677777777777778]

>  <Interactions>  (20) 
["V-A:HIS:456:CE1:4066, V-B:TYR:539:CZ:9846, V-A:GLY:453:C:4038, V-A:ARG:545:CZ:4923, V-A:GLY:453:CA:4040, H-A:GLY:454:N:4046, H-A:TYR:484:OH:4344, V-A:GLY:454:CA:4045, V-A:ASP:366:CG:3209, V-B:HIS:456:CD2:9036, V-B:GLY:544:C:9881, V-B:LYS:547:CE:9919, V-B:GLU:543:CD:9877, V-B:HIS:456:CE1:9038, V-A:GLU:543:CD:4905, H-A:ARG:545:NH2:4925, V-A:ILE:369:CB:3232, H-A:ARG:545:NH1:4924, V-A:ILE:369:CG2:3233, V-A:ILE:369:CG1:3234, V-A:GLU:543:CG:4904, H-B:TYR:539:OH:9847, V-A:ASP:366:CB:3208, H-A:ARG:545:NE:4921, V-A:ASP:366:CA:3206, V-A:ASP:366:C:3204"]

$$$$
3bg_Grossjean_2025
     RDKit          3D

 27 29  0  0  0  0  0  0  0  0999 V2000
  129.9730  125.6410   64.4480 C   0  0  0  0  0  0  0  0  0  0  0  0
  129.3870  126.6250   65.4590 C   0  0  0  0  0  0  0  0  0  0  0  0
  129.6400  126.4060   66.8170 C   0  0  0  0  0  0  0  0  0  0  0  0
  129.1280  127.2890   67.7780 C   0  0  0  0  0  0  0  0  0  0  0  0
  129.3720  127.1190   69.2520 C   0  0  0  0  0  0  0  0  0  0  0  0
  128.6170  126.2090   70.0100 C   0  0  0  0  0  0  0  0  0  0  0  0
  128.8520  126.0350   71.3710 C   0  0  0  0  0  0  0  0  0  0  0  0
  129.8490  126.7740   72.0000 C   0  0  0  0  0  0  0  0  0  0  0  0
  130.6040  127.6900   71.2770 C   0  0  0  0  0  0  0  0  0  0  0  0
  130.3640  127.8620   69.9170 C   0  0  0  0  0  0  0  0  0  0  0  0
  128.3990  128.3730   67.4000 N   0  0  0  0  0  0  0  0  0  0  0  0
  128.1470  128.6010   66.0860 C   0  0  0  0  0  0  0  0  0  0  0  0
  127.2080  130.0760   65.7230 S   0  0  0  0  0  0  0  0  0  0  0  0
  125.5010  129.5810   65.3190 C   0  0  0  0  0  0  0  0  0  0  0  0
  125.0380  130.1670   63.9810 C   0  0  0  0  0  0  0  0  0  0  0  0
  123.8750  130.5460   63.8470 O   0  0  0  0  0  0  0  0  0  0  0  0
  125.9540  130.2090   62.9990 N   0  0  0  0  0  0  0  0  0  0  0  0
  125.6870  130.5550   61.6020 C   0  0  0  0  0  0  0  0  0  0  0  0
  126.8820  131.2390   60.9490 C   0  0  0  0  0  0  0  0  0  0  0  0
  126.8370  131.5850   59.5940 C   0  0  0  0  0  0  0  0  0  0  0  0
  127.9310  132.2010   58.9960 C   0  0  0  0  0  0  0  0  0  0  0  0
  129.0660  132.4810   59.7560 C   0  0  0  0  0  0  0  0  0  0  0  0
  129.1110  132.1590   61.1100 C   0  0  0  0  0  0  0  0  0  0  0  0
  128.0150  131.5420   61.7090 C   0  0  0  0  0  0  0  0  0  0  0  0
  128.6180  127.7420   65.0710 C   0  0  0  0  0  0  0  0  0  0  0  0
  128.3430  128.0010   63.6560 C   0  0  0  0  0  0  0  0  0  0  0  0
  128.1270  128.2050   62.5380 N   0  0  0  0  0  0  0  0  0  0  0  0
  1  2  1  0
  2  3  2  0
  3  4  1  0
  4  5  1  0
  5  6  2  0
  6  7  1  0
  7  8  2  0
  8  9  1  0
  9 10  2  0
  4 11  2  0
 11 12  1  0
 12 13  1  0
 13 14  1  0
 14 15  1  0
 15 16  2  0
 15 17  1  0
 17 18  1  0
 18 19  1  0
 19 20  2  0
 20 21  1  0
 21 22  2  0
 22 23  1  0
 23 24  2  0
 12 25  2  0
 25 26  1  0
 26 27  3  0
 25  2  1  0
 10  5  1  0
 24 19  1  0
M  END
>  <Binding energies>  (21) 
[-7.1]

>  <Ligand effiencies>  (21) 
[-0.25357142857142856]

>  <Interactions>  (21) 
["V-A:HIS:456:CE1:4066, V-A:GLU:543:CB:4903, V-B:GLU:543:CD:9877, V-A:GLU:543:C:4899, V-B:HIS:456:CE1:9038, V-A:GLY:544:C:4909, V-A:GLU:543:CD:4905, H-A:GLU:543:OE2:4907, H-B:GLY:454:N:9018, H-B:TYR:484:OH:9316, V-A:GLU:543:CG:4904, V-A:HIS:456:CD2:4064, V-B:ASP:366:CG:8181, V-A:PRO:540:CA:4880, V-A:TYR:539:C:4864, V-A:ALA:541:CB:4889, V-A:TYR:539:CE2:4873, V-A:TYR:539:CD2:4871"]

$$$$
3ca_Grossjean_2025
     RDKit          3D

 31 33  0  0  0  0  0  0  0  0999 V2000
  124.7410  127.5970   73.8600 C   0  0  0  0  0  0  0  0  0  0  0  0
  126.1900  128.0920   73.8710 C   0  0  0  0  0  0  0  0  0  0  0  0
  126.8840  127.5490   72.7540 O   0  0  0  0  0  0  0  0  0  0  0  0
  128.2410  127.5380   72.7100 C   0  0  0  0  0  0  0  0  0  0  0  0
  128.9560  127.6530   73.7100 O   0  0  0  0  0  0  0  0  0  0  0  0
  128.7880  127.3650   71.3210 C   0  0  0  0  0  0  0  0  0  0  0  0
  129.9590  128.0410   70.9580 C   0  0  0  0  0  0  0  0  0  0  0  0
  130.4900  127.9010   69.6790 C   0  0  0  0  0  0  0  0  0  0  0  0
  129.8590  127.0890   68.7360 C   0  0  0  0  0  0  0  0  0  0  0  0
  130.4800  127.0170   67.4740 N   0  0  0  0  0  0  0  0  0  0  0  0
  130.5060  126.0020   66.5830 C   0  0  0  0  0  0  0  0  0  0  0  0
  129.9430  124.9160   66.7230 O   0  0  0  0  0  0  0  0  0  0  0  0
  131.2940  126.2790   65.2990 C   0  0  0  0  0  0  0  0  0  0  0  0
  132.7610  125.2120   65.1120 S   0  0  0  0  0  0  0  0  0  0  0  0
  132.7810  124.4890   63.4770 C   0  0  0  0  0  0  0  0  0  0  0  0
  134.0000  124.4040   62.8860 N   0  0  0  0  0  0  0  0  0  0  0  0
  134.0930  123.8500   61.6580 C   0  0  0  0  0  0  0  0  0  0  0  0
  135.4900  123.7750   61.0740 C   0  0  0  0  0  0  0  0  0  0  0  0
  132.9830  123.3730   60.9650 C   0  0  0  0  0  0  0  0  0  0  0  0
  131.7120  123.4660   61.5450 C   0  0  0  0  0  0  0  0  0  0  0  0
  130.5490  122.9540   60.7580 C   0  0  0  0  0  0  0  0  0  0  0  0
  130.1080  123.6480   59.6240 C   0  0  0  0  0  0  0  0  0  0  0  0
  129.0190  123.1850   58.8900 C   0  0  0  0  0  0  0  0  0  0  0  0
  128.3630  122.0240   59.2910 C   0  0  0  0  0  0  0  0  0  0  0  0
  128.7850  121.3250   60.4200 C   0  0  0  0  0  0  0  0  0  0  0  0
  129.8730  121.7930   61.1520 C   0  0  0  0  0  0  0  0  0  0  0  0
  131.6020  124.0310   62.8410 C   0  0  0  0  0  0  0  0  0  0  0  0
  130.3040  124.1070   63.5200 C   0  0  0  0  0  0  0  0  0  0  0  0
  129.2790  124.1660   64.0550 N   0  0  0  0  0  0  0  0  0  0  0  0
  128.6890  126.4010   69.0940 C   0  0  0  0  0  0  0  0  0  0  0  0
  128.1610  126.5410   70.3740 C   0  0  0  0  0  0  0  0  0  0  0  0
  1  2  1  0
  2  3  1  0
  3  4  1  0
  4  5  2  0
  4  6  1  0
  6  7  2  0
  7  8  1  0
  8  9  2  0
  9 10  1  0
 10 11  1  0
 11 12  2  0
 11 13  1  0
 13 14  1  0
 14 15  1  0
 15 16  2  0
 16 17  1  0
 17 18  1  0
 17 19  2  0
 19 20  1  0
 20 21  1  0
 21 22  2  0
 22 23  1  0
 23 24  2  0
 24 25  1  0
 25 26  2  0
 20 27  2  0
 27 28  1  0
 28 29  3  0
  9 30  1  0
 30 31  2  0
 31  6  1  0
 27 15  1  0
 26 21  1  0
M  END
>  <Binding energies>  (22) 
[-8.83]

>  <Ligand effiencies>  (22) 
[-0.2759375]

>  <Interactions>  (22) 
["V-B:PRO:540:C:9850, V-B:TYR:539:CE2:9845, V-A:HIS:456:CE1:4066, V-B:TYR:539:CG:9841, V-B:TYR:539:CZ:9846, V-A:GLY:453:C:4038, V-B:PRO:540:CA:9852, V-A:GLY:453:CA:4040, V-B:ALA:541:CB:9861, H-A:GLY:454:N:4046, V-B:TYR:539:C:9836, H-A:TYR:484:OH:4344, V-B:PRO:540:N:9853, V-B:TYR:539:CD2:9843, V-A:ASP:366:CG:3209, V-B:HIS:456:CD2:9036, V-B:LYS:547:CD:9918, H-A:LYS:547:NZ:4948, V-B:LYS:547:CE:9919, V-B:HIS:456:CB:9033, V-A:GLU:543:C:4899, V-B:HIS:456:CE1:9038, V-A:ILE:369:CB:3232, V-A:ILE:369:CG1:3234, H-A:GLU:543:OE1:4906, H-A:ARG:545:NE:4921, V-B:HIS:456:CG:9034, V-A:ASP:366:CA:3206, V-B:HIS:456:CA:9031"]

$$$$
3ce_Grossjean_2025
     RDKit          3D

 27 29  0  0  0  0  0  0  0  0999 V2000
  135.0030  124.9800   66.3290 C   0  0  0  0  0  0  0  0  0  0  0  0
  133.7880  125.1710   65.4420 C   0  0  0  0  0  0  0  0  0  0  0  0
  132.6060  125.7340   65.9320 C   0  0  0  0  0  0  0  0  0  0  0  0
  131.5320  125.8890   65.0560 C   0  0  0  0  0  0  0  0  0  0  0  0
  131.6620  125.4820   63.7260 C   0  0  0  0  0  0  0  0  0  0  0  0
  132.8700  124.9160   63.3040 C   0  0  0  0  0  0  0  0  0  0  0  0
  132.9490  124.5430   61.9510 N   0  0  0  0  0  0  0  0  0  0  0  0
  133.9410  123.8690   61.3270 C   0  0  0  0  0  0  0  0  0  0  0  0
  134.9660  123.4560   61.8720 O   0  0  0  0  0  0  0  0  0  0  0  0
  133.7310  123.6120   59.8350 C   0  0  0  0  0  0  0  0  0  0  0  0
  132.3930  124.6350   59.1520 S   0  0  0  0  0  0  0  0  0  0  0  0
  130.8860  123.7640   59.5150 C   0  0  0  0  0  0  0  0  0  0  0  0
  130.9160  123.0750   60.6820 N   0  0  0  0  0  0  0  0  0  0  0  0
  129.8100  122.3910   61.0570 C   0  0  0  0  0  0  0  0  0  0  0  0
  129.9070  121.6540   62.3790 C   0  0  0  0  0  0  0  0  0  0  0  0
  128.6510  122.3590   60.2860 C   0  0  0  0  0  0  0  0  0  0  0  0
  128.6100  123.0430   59.0640 C   0  0  0  0  0  0  0  0  0  0  0  0
  127.3540  122.9580   58.2610 C   0  0  0  0  0  0  0  0  0  0  0  0
  127.3560  122.3080   57.0200 C   0  0  0  0  0  0  0  0  0  0  0  0
  126.1910  122.2300   56.2620 C   0  0  0  0  0  0  0  0  0  0  0  0
  125.0170  122.8070   56.7390 C   0  0  0  0  0  0  0  0  0  0  0  0
  125.0010  123.4650   57.9660 C   0  0  0  0  0  0  0  0  0  0  0  0
  126.1680  123.5420   58.7220 C   0  0  0  0  0  0  0  0  0  0  0  0
  129.7570  123.7740   58.6620 C   0  0  0  0  0  0  0  0  0  0  0  0
  129.7680  124.5220   57.4010 C   0  0  0  0  0  0  0  0  0  0  0  0
  129.7750  125.1130   56.4070 N   0  0  0  0  0  0  0  0  0  0  0  0
  133.9280  124.7680   64.1540 N   0  0  0  0  0  0  0  0  0  0  0  0
  1  2  1  0
  2  3  2  0
  3  4  1  0
  4  5  2  0
  5  6  1  0
  6  7  1  0
  7  8  1  0
  8  9  2  0
  8 10  1  0
 10 11  1  0
 11 12  1  0
 12 13  2  0
 13 14  1  0
 14 15  1  0
 14 16  2  0
 16 17  1  0
 17 18  1  0
 18 19  2  0
 19 20  1  0
 20 21  2  0
 21 22  1  0
 22 23  2  0
 17 24  2  0
 24 25  1  0
 25 26  3  0
  6 27  2  0
 27  2  1  0
 24 12  1  0
 23 18  1  0
M  END
>  <Binding energies>  (23) 
[-8.19]

>  <Ligand effiencies>  (23) 
[-0.2925]

>  <Interactions>  (23) 
["V-B:TYR:539:CE2:9845, V-A:GLY:454:C:4043, V-A:HIS:456:CE1:4066, V-B:TYR:539:CD1:9842, V-B:TYR:539:CZ:9846, V-A:GLY:453:C:4038, V-B:PRO:540:CA:9852, V-A:ARG:545:CG:4919, V-A:ARG:545:CZ:4923, V-B:TYR:539:CE1:9844, V-A:ARG:545:CD:4920, V-A:GLY:453:CA:4040, V-B:ALA:541:CB:9861, H-A:GLY:454:N:4046, V-B:TYR:539:C:9836, V-A:GLY:454:CA:4045, V-B:PRO:540:N:9853, V-B:PRO:540:CB:9854, V-B:TYR:539:CD2:9843, V-A:ASP:366:CG:3209, V-A:ILE:369:CB:3232, H-A:ARG:545:NH1:4924, V-A:LEU:475:CD1:4254, H-A:ASP:366:OD2:3211, V-A:ILE:369:CG2:3233, V-B:PRO:540:CD:9856, H-A:ASP:366:OD1:3210, H-B:TYR:539:OH:9847, V-A:ASP:366:CB:3208, V-B:LEU:363:CD1:8157, V-B:ILE:538:CB:9831, V-A:ASP:366:CA:3206, V-B:ILE:538:CA:9829, V-B:PRO:540:CG:9855, V-A:ILE:455:C:4048, V-B:ILE:538:CG2:9832"]

$$$$
3cj_Grossjean_2025
     RDKit          3D

 25 27  0  0  0  0  0  0  0  0999 V2000
  129.9160  120.4450   62.1510 C   0  0  0  0  0  0  0  0  0  0  0  0
  129.8550  121.5410   61.1040 C   0  0  0  0  0  0  0  0  0  0  0  0
  128.7860  121.6410   60.2160 C   0  0  0  0  0  0  0  0  0  0  0  0
  128.7590  122.6840   59.2800 C   0  0  0  0  0  0  0  0  0  0  0  0
  127.5640  122.7910   58.3930 C   0  0  0  0  0  0  0  0  0  0  0  0
  126.3910  123.4020   58.8510 C   0  0  0  0  0  0  0  0  0  0  0  0
  125.2720  123.4900   58.0260 C   0  0  0  0  0  0  0  0  0  0  0  0
  125.3220  122.9590   56.7410 C   0  0  0  0  0  0  0  0  0  0  0  0
  126.4780  122.3400   56.2740 C   0  0  0  0  0  0  0  0  0  0  0  0
  127.5960  122.2540   57.1000 C   0  0  0  0  0  0  0  0  0  0  0  0
  129.8490  123.5890   59.2480 C   0  0  0  0  0  0  0  0  0  0  0  0
  129.8930  124.6830   58.2720 C   0  0  0  0  0  0  0  0  0  0  0  0
  129.9260  125.5470   57.5020 N   0  0  0  0  0  0  0  0  0  0  0  0
  130.8880  123.4140   60.1880 C   0  0  0  0  0  0  0  0  0  0  0  0
  132.2460  124.5550   60.3450 S   0  0  0  0  0  0  0  0  0  0  0  0
  133.3570  123.7940   61.5700 C   0  0  0  0  0  0  0  0  0  0  0  0
  133.0410  124.2600   62.9950 C   0  0  0  0  0  0  0  0  0  0  0  0
  133.9560  124.6450   63.7250 O   0  0  0  0  0  0  0  0  0  0  0  0
  131.7330  124.2430   63.3320 N   0  0  0  0  0  0  0  0  0  0  0  0
  131.1740  124.7350   64.4990 C   0  0  0  0  0  0  0  0  0  0  0  0
  131.4600  125.8580   65.1220 N   0  0  0  0  0  0  0  0  0  0  0  0
  130.7070  126.0230   66.1910 C   0  0  0  0  0  0  0  0  0  0  0  0
  129.7840  125.0170   66.4570 C   0  0  0  0  0  0  0  0  0  0  0  0
  129.9170  123.7900   65.2320 S   0  0  0  0  0  0  0  0  0  0  0  0
  130.8860  122.4150   61.1060 N   0  0  0  0  0  0  0  0  0  0  0  0
  1  2  1  0
  2  3  2  0
  3  4  1  0
  4  5  1  0
  5  6  2  0
  6  7  1  0
  7  8  2  0
  8  9  1  0
  9 10  2  0
  4 11  2  0
 11 12  1  0
 12 13  3  0
 11 14  1  0
 14 15  1  0
 15 16  1  0
 16 17  1  0
 17 18  2  0
 17 19  1  0
 19 20  1  0
 20 21  2  0
 21 22  1  0
 22 23  2  0
 23 24  1  0
 14 25  2  0
 25  2  1  0
 10  5  1  0
 24 20  1  0
M  END
>  <Binding energies>  (24) 
[-7.29]

>  <Ligand effiencies>  (24) 
[-0.2803846153846154]

>  <Interactions>  (24) 
["V-B:TYR:539:CE2:9845, V-A:HIS:456:CE1:4066, V-B:TYR:539:CG:9841, V-B:TYR:539:CD1:9842, V-B:TYR:539:CZ:9846, V-B:PRO:540:CA:9852, V-B:TYR:539:CE1:9844, V-B:ALA:541:CB:9861, H-A:GLY:454:N:4046, V-B:TYR:539:C:9836, V-B:PRO:540:N:9853, V-B:PRO:540:CB:9854, V-B:TYR:539:CD2:9843, V-A:ASP:366:CG:3209, V-A:TYR:484:CE1:4341, V-B:GLU:543:CB:9875, V-A:TYR:484:CZ:4343, V-B:GLU:543:CG:9876, H-A:ARG:545:NH1:4924, V-A:LEU:475:CD1:4254, V-B:PRO:540:CD:9856, H-B:TYR:539:OH:9847, V-B:LEU:363:CD1:8157, V-B:ILE:538:CB:9831, V-B:ILE:538:CA:9829, V-B:ILE:538:CG2:9832"]

$$$$
4ba_Grossjean_2025
     RDKit          3D

 28 30  0  0  0  0  0  0  0  0999 V2000
  126.1200  128.3950   74.3330 C   0  0  0  0  0  0  0  0  0  0  0  0
  126.6090  127.6020   73.1060 C   0  0  0  0  0  0  0  0  0  0  0  0
  128.1040  127.7770   72.7680 C   0  0  0  0  0  0  0  0  0  0  0  0
  128.8680  128.2460   73.6150 O   0  0  0  0  0  0  0  0  0  0  0  0
  128.5650  127.3550   71.4030 C   0  0  0  0  0  0  0  0  0  0  0  0
  129.7820  127.8400   70.9080 C   0  0  0  0  0  0  0  0  0  0  0  0
  130.2320  127.4660   69.6450 C   0  0  0  0  0  0  0  0  0  0  0  0
  129.4790  126.5980   68.8530 C   0  0  0  0  0  0  0  0  0  0  0  0
  130.0240  126.2930   67.5910 N   0  0  0  0  0  0  0  0  0  0  0  0
  130.1670  127.0740   66.4910 C   0  0  0  0  0  0  0  0  0  0  0  0
  129.7750  128.2390   66.4150 O   0  0  0  0  0  0  0  0  0  0  0  0
  130.8130  126.4280   65.3470 C   0  0  0  0  0  0  0  0  0  0  0  0
  132.1740  125.3370   65.5970 S   0  0  0  0  0  0  0  0  0  0  0  0
  132.3500  125.0880   63.8760 C   0  0  0  0  0  0  0  0  0  0  0  0
  133.2980  124.2910   63.3840 N   0  0  0  0  0  0  0  0  0  0  0  0
  133.3360  124.1770   62.0360 C   0  0  0  0  0  0  0  0  0  0  0  0
  134.4290  123.2710   61.4960 C   0  0  0  0  0  0  0  0  0  0  0  0
  132.4560  124.8300   61.1780 C   0  0  0  0  0  0  0  0  0  0  0  0
  131.4550  125.6710   61.6910 C   0  0  0  0  0  0  0  0  0  0  0  0
  130.5080  126.3670   60.7080 C   0  0  0  0  0  0  0  0  0  0  0  0
  129.2290  126.0310   60.8880 F   0  0  0  0  0  0  0  0  0  0  0  0
  130.5980  127.6890   60.8520 F   0  0  0  0  0  0  0  0  0  0  0  0
  130.8350  126.0370   59.4580 F   0  0  0  0  0  0  0  0  0  0  0  0
  131.3910  125.8180   63.1090 C   0  0  0  0  0  0  0  0  0  0  0  0
  130.5310  126.5830   63.9790 C   0  0  0  0  0  0  0  0  0  0  0  0
  129.5260  127.3870   63.5050 N   0  0  0  0  0  0  0  0  0  0  0  0
  128.2560  126.1130   69.3390 C   0  0  0  0  0  0  0  0  0  0  0  0
  127.8060  126.4880   70.6030 C   0  0  0  0  0  0  0  0  0  0  0  0
  1  2  1  0
  2  3  1  0
  3  4  2  0
  3  5  1  0
  5  6  2  0
  6  7  1  0
  7  8  2  0
  8  9  1  0
  9 10  1  0
 10 11  2  0
 10 12  1  0
 12 13  1  0
 13 14  1  0
 14 15  2  0
 15 16  1  0
 16 17  1  0
 16 18  2  0
 18 19  1  0
 19 20  1  0
 20 21  1  0
 20 22  1  0
 20 23  1  0
 19 24  2  0
 24 25  1  0
 25 26  1  0
  8 27  1  0
 27 28  2  0
 28  5  1  0
 25 12  2  0
 24 14  1  0
M  END
>  <Binding energies>  (25) 
[-6.92]

>  <Ligand effiencies>  (25) 
[-0.2232258064516129]

>  <Interactions>  (25) 
["V-A:HIS:456:CE1:4066, V-A:GLY:453:C:4038, V-A:ARG:545:CZ:4923, V-A:GLY:453:CA:4040, H-A:GLY:454:N:4046, H-A:TYR:484:OH:4344, V-A:GLY:454:CA:4045, V-A:ASP:366:CG:3209, H-B:GLU:543:OE2:9879, V-B:HIS:456:CD2:9036, H-A:LYS:547:NZ:4948, V-B:GLY:544:C:9881, V-B:LYS:547:CE:9919, V-B:GLU:543:CB:9875, V-B:HIS:456:CB:9033, V-B:HIS:456:CE1:9038, V-A:GLU:543:CD:4905, V-A:ILE:369:CG1:3234, H-A:GLU:543:OE2:4907, H-A:GLU:543:OE1:4906, V-A:HIS:456:CD2:4064, V-B:GLU:543:C:9871, H-B:GLU:543:OE1:9878, V-B:HIS:456:CG:9034, H-A:HIS:456:NE2:4067"]

$$$$
4bb_Grossjean_2025
     RDKit          3D

 27 29  0  0  0  0  0  0  0  0999 V2000
  126.6850  127.6390   73.1110 C   0  0  0  0  0  0  0  0  0  0  0  0
  128.1610  127.8170   72.7480 C   0  0  0  0  0  0  0  0  0  0  0  0
  128.9120  128.3060   73.5940 O   0  0  0  0  0  0  0  0  0  0  0  0
  128.6120  127.3990   71.3810 C   0  0  0  0  0  0  0  0  0  0  0  0
  129.8100  127.9100   70.8660 C   0  0  0  0  0  0  0  0  0  0  0  0
  130.2500  127.5390   69.5990 C   0  0  0  0  0  0  0  0  0  0  0  0
  129.5080  126.6450   68.8260 C   0  0  0  0  0  0  0  0  0  0  0  0
  130.0440  126.3400   67.5590 N   0  0  0  0  0  0  0  0  0  0  0  0
  129.9380  127.0080   66.3850 C   0  0  0  0  0  0  0  0  0  0  0  0
  129.2880  128.0420   66.2330 O   0  0  0  0  0  0  0  0  0  0  0  0
  130.6410  126.3970   65.2530 C   0  0  0  0  0  0  0  0  0  0  0  0
  132.0410  125.3640   65.5320 S   0  0  0  0  0  0  0  0  0  0  0  0
  132.2650  125.1230   63.8150 C   0  0  0  0  0  0  0  0  0  0  0  0
  133.2500  124.3620   63.3420 N   0  0  0  0  0  0  0  0  0  0  0  0
  133.3220  124.2530   61.9950 C   0  0  0  0  0  0  0  0  0  0  0  0
  134.4500  123.3800   61.4770 C   0  0  0  0  0  0  0  0  0  0  0  0
  132.4410  124.8810   61.1190 C   0  0  0  0  0  0  0  0  0  0  0  0
  131.4010  125.6840   61.6110 C   0  0  0  0  0  0  0  0  0  0  0  0
  130.4560  126.3540   60.6080 C   0  0  0  0  0  0  0  0  0  0  0  0
  130.6620  125.9560   59.3510 F   0  0  0  0  0  0  0  0  0  0  0  0
  129.1910  126.0660   60.9170 F   0  0  0  0  0  0  0  0  0  0  0  0
  130.6260  127.6760   60.6410 F   0  0  0  0  0  0  0  0  0  0  0  0
  131.2960  125.8210   63.0280 C   0  0  0  0  0  0  0  0  0  0  0  0
  130.3840  126.5430   63.8800 C   0  0  0  0  0  0  0  0  0  0  0  0
  129.3530  127.3010   63.3860 N   0  0  0  0  0  0  0  0  0  0  0  0
  128.3030  126.1340   69.3320 C   0  0  0  0  0  0  0  0  0  0  0  0
  127.8630  126.5080   70.5990 C   0  0  0  0  0  0  0  0  0  0  0  0
  1  2  1  0
  2  3  2  0
  2  4  1  0
  4  5  2  0
  5  6  1  0
  6  7  2  0
  7  8  1  0
  8  9  1  0
  9 10  2  0
  9 11  1  0
 11 12  1  0
 12 13  1  0
 13 14  2  0
 14 15  1  0
 15 16  1  0
 15 17  2  0
 17 18  1  0
 18 19  1  0
 19 20  1  0
 19 21  1  0
 19 22  1  0
 18 23  2  0
 23 24  1  0
 24 25  1  0
  7 26  1  0
 26 27  2  0
 27  4  1  0
 24 11  2  0
 23 13  1  0
M  END
>  <Binding energies>  (26) 
[-6.69]

>  <Ligand effiencies>  (26) 
[-0.223]

>  <Interactions>  (26) 
["V-A:HIS:456:CE1:4066, V-A:GLY:453:C:4038, V-A:ARG:545:CZ:4923, V-A:GLY:453:CA:4040, H-A:GLY:454:N:4046, H-A:TYR:484:OH:4344, V-A:GLY:454:CA:4045, V-A:ASP:366:CG:3209, H-B:GLU:543:OE2:9879, V-B:HIS:456:CD2:9036, H-A:LYS:547:NZ:4948, V-B:GLY:544:C:9881, V-B:LYS:547:CE:9919, V-B:GLU:543:CB:9875, V-B:HIS:456:CB:9033, V-B:HIS:456:CE1:9038, V-A:GLU:543:CD:4905, V-A:ILE:369:CG1:3234, H-A:GLU:543:OE2:4907, H-A:GLU:543:OE1:4906, V-A:HIS:456:CD2:4064, V-B:GLU:543:C:9871, H-B:GLU:543:OE1:9878, V-B:HIS:456:CG:9034, H-A:HIS:456:NE2:4067"]

$$$$
4bd_Grossjean_2025
     RDKit          3D

 24 26  0  0  0  0  0  0  0  0999 V2000
  134.7000  125.0210   65.9880 C   0  0  0  0  0  0  0  0  0  0  0  0
  133.3840  124.9050   65.2390 C   0  0  0  0  0  0  0  0  0  0  0  0
  132.2990  125.7130   65.5650 C   0  0  0  0  0  0  0  0  0  0  0  0
  131.0880  125.5940   64.8660 C   0  0  0  0  0  0  0  0  0  0  0  0
  129.9190  126.5030   65.2630 C   0  0  0  0  0  0  0  0  0  0  0  0
  129.4240  127.1950   64.2350 F   0  0  0  0  0  0  0  0  0  0  0  0
  128.9270  125.7690   65.7650 F   0  0  0  0  0  0  0  0  0  0  0  0
  130.3230  127.3830   66.1780 F   0  0  0  0  0  0  0  0  0  0  0  0
  131.0290  124.6230   63.8230 C   0  0  0  0  0  0  0  0  0  0  0  0
  129.9860  124.2240   62.9090 C   0  0  0  0  0  0  0  0  0  0  0  0
  128.7430  124.8010   62.9100 N   0  0  0  0  0  0  0  0  0  0  0  0
  130.3580  123.1960   62.0260 C   0  0  0  0  0  0  0  0  0  0  0  0
  129.5510  122.5450   60.9900 C   0  0  0  0  0  0  0  0  0  0  0  0
  129.5650  121.3210   60.8600 O   0  0  0  0  0  0  0  0  0  0  0  0
  128.8030  123.3800   60.2260 N   0  0  0  0  0  0  0  0  0  0  0  0
  127.9640  123.0840   59.1360 C   0  0  0  0  0  0  0  0  0  0  0  0
  126.6580  123.5770   59.2180 C   0  0  0  0  0  0  0  0  0  0  0  0
  125.7540  123.3460   58.1850 C   0  0  0  0  0  0  0  0  0  0  0  0
  126.1570  122.6270   57.0630 C   0  0  0  0  0  0  0  0  0  0  0  0
  127.4580  122.1410   56.9630 C   0  0  0  0  0  0  0  0  0  0  0  0
  128.3660  122.3700   57.9950 C   0  0  0  0  0  0  0  0  0  0  0  0
  132.0260  122.6950   62.2970 S   0  0  0  0  0  0  0  0  0  0  0  0
  132.2130  123.8570   63.5900 C   0  0  0  0  0  0  0  0  0  0  0  0
  133.3600  123.9750   64.2560 N   0  0  0  0  0  0  0  0  0  0  0  0
  1  2  1  0
  2  3  2  0
  3  4  1  0
  4  5  1  0
  5  6  1  0
  5  7  1  0
  5  8  1  0
  4  9  2  0
  9 10  1  0
 10 11  1  0
 10 12  2  0
 12 13  1  0
 13 14  2  0
 13 15  1  0
 15 16  1  0
 16 17  2  0
 17 18  1  0
 18 19  2  0
 19 20  1  0
 20 21  2  0
 12 22  1  0
 22 23  1  0
 23 24  2  0
 24  2  1  0
 23  9  1  0
 21 16  1  0
M  END
>  <Binding energies>  (27) 
[-6.45]

>  <Ligand effiencies>  (27) 
[-0.2388888888888889]

>  <Interactions>  (27) 
["V-B:TYR:539:CE2:9845, V-A:GLY:454:C:4043, V-B:TYR:539:CA:9838, V-A:HIS:456:CE1:4066, V-B:TYR:539:CG:9841, V-B:TYR:539:CD1:9842, V-B:TYR:539:CZ:9846, V-A:GLY:453:C:4038, V-B:PRO:540:CA:9852, V-A:ARG:545:CG:4919, V-A:ARG:545:CZ:4923, V-B:TYR:539:CE1:9844, V-A:ARG:545:CD:4920, V-A:GLY:453:CA:4040, V-B:ALA:541:CB:9861, H-A:GLY:454:N:4046, V-B:TYR:539:C:9836, H-A:TYR:484:OH:4344, V-A:GLY:454:CA:4045, V-B:PRO:540:N:9853, V-B:PRO:540:CB:9854, V-B:TYR:539:CD2:9843, H-B:GLU:543:OE2:9879, V-A:GLU:543:CB:4903, V-B:GLU:543:CB:9875, V-B:GLU:543:CD:9877, V-B:GLU:543:CG:9876, V-A:GLU:543:CD:4905, V-A:LEU:475:CD1:4254, V-B:PRO:540:CD:9856, H-B:GLU:543:OE1:9878"]

$$$$
4be_Grossjean_2025
     RDKit          3D

 25 27  0  0  0  0  0  0  0  0999 V2000
  124.4470  123.8950   58.1560 C   0  0  0  0  0  0  0  0  0  0  0  0
  125.8580  123.3390   58.1110 C   0  0  0  0  0  0  0  0  0  0  0  0
  126.2900  122.5290   57.0580 C   0  0  0  0  0  0  0  0  0  0  0  0
  127.6010  122.0510   57.0840 C   0  0  0  0  0  0  0  0  0  0  0  0
  128.4380  122.3900   58.1500 C   0  0  0  0  0  0  0  0  0  0  0  0
  127.9430  123.2110   59.1690 C   0  0  0  0  0  0  0  0  0  0  0  0
  128.8330  123.5100   60.2160 N   0  0  0  0  0  0  0  0  0  0  0  0
  129.5710  122.6620   60.9750 C   0  0  0  0  0  0  0  0  0  0  0  0
  129.5650  121.4370   60.8380 O   0  0  0  0  0  0  0  0  0  0  0  0
  130.3850  123.2960   62.0150 C   0  0  0  0  0  0  0  0  0  0  0  0
  132.0610  122.8030   62.2500 S   0  0  0  0  0  0  0  0  0  0  0  0
  132.2520  123.9230   63.5780 C   0  0  0  0  0  0  0  0  0  0  0  0
  133.4070  124.0340   64.2330 N   0  0  0  0  0  0  0  0  0  0  0  0
  133.4340  124.9370   65.2410 C   0  0  0  0  0  0  0  0  0  0  0  0
  134.7570  125.0460   65.9760 C   0  0  0  0  0  0  0  0  0  0  0  0
  132.3450  125.7240   65.6030 C   0  0  0  0  0  0  0  0  0  0  0  0
  131.1260  125.6130   64.9170 C   0  0  0  0  0  0  0  0  0  0  0  0
  129.9560  126.5040   65.3500 C   0  0  0  0  0  0  0  0  0  0  0  0
  129.4420  127.2150   64.3430 F   0  0  0  0  0  0  0  0  0  0  0  0
  128.9750  125.7510   65.8460 F   0  0  0  0  0  0  0  0  0  0  0  0
  130.3650  127.3650   66.2810 F   0  0  0  0  0  0  0  0  0  0  0  0
  131.0620  124.6670   63.8510 C   0  0  0  0  0  0  0  0  0  0  0  0
  130.0090  124.2770   62.9460 C   0  0  0  0  0  0  0  0  0  0  0  0
  128.7520  124.8250   62.9910 N   0  0  0  0  0  0  0  0  0  0  0  0
  126.6600  123.6780   59.1530 N   0  0  0  0  0  0  0  0  0  0  0  0
  1  2  1  0
  2  3  2  0
  3  4  1  0
  4  5  2  0
  5  6  1  0
  6  7  1  0
  7  8  1  0
  8  9  2  0
  8 10  1  0
 10 11  1  0
 11 12  1  0
 12 13  2  0
 13 14  1  0
 14 15  1  0
 14 16  2  0
 16 17  1  0
 17 18  1  0
 18 19  1  0
 18 20  1  0
 18 21  1  0
 17 22  2  0
 22 23  1  0
 23 24  1  0
  6 25  2  0
 25  2  1  0
 23 10  2  0
 22 12  1  0
M  END
>  <Binding energies>  (28) 
[-6.59]

>  <Ligand effiencies>  (28) 
[-0.23535714285714285]

>  <Interactions>  (28) 
["V-B:TYR:539:CE2:9845, V-A:GLY:454:C:4043, V-B:TYR:539:CA:9838, V-A:HIS:456:CE1:4066, V-B:TYR:539:CG:9841, V-B:TYR:539:CD1:9842, V-B:TYR:539:CZ:9846, V-A:GLY:453:C:4038, V-B:PRO:540:CA:9852, V-A:ARG:545:CG:4919, V-A:ARG:545:CZ:4923, V-B:TYR:539:CE1:9844, V-A:ARG:545:CD:4920, V-A:GLY:453:CA:4040, V-B:ALA:541:CB:9861, H-A:GLY:454:N:4046, V-B:TYR:539:C:9836, H-A:TYR:484:OH:4344, V-A:GLY:454:CA:4045, V-B:PRO:540:N:9853, V-B:PRO:540:CB:9854, V-B:TYR:539:CD2:9843, H-B:GLU:543:OE2:9879, V-A:GLU:543:CB:4903, V-B:GLU:543:CB:9875, V-B:GLU:543:CD:9877, V-B:GLU:543:CG:9876, V-A:GLU:543:CD:4905, V-A:LEU:475:CD1:4254, V-B:PRO:540:CD:9856, H-B:GLU:543:OE1:9878, V-B:LEU:363:CD1:8157"]

$$$$
4bg_Grossjean_2025
     RDKit          3D

 25 27  0  0  0  0  0  0  0  0999 V2000
  134.8930  125.3470   65.8300 C   0  0  0  0  0  0  0  0  0  0  0  0
  133.5400  125.1320   65.1770 C   0  0  0  0  0  0  0  0  0  0  0  0
  132.4170  125.8360   65.6050 C   0  0  0  0  0  0  0  0  0  0  0  0
  131.1700  125.6240   64.9950 C   0  0  0  0  0  0  0  0  0  0  0  0
  129.9630  126.4210   65.5010 C   0  0  0  0  0  0  0  0  0  0  0  0
  129.3410  127.0960   64.5320 F   0  0  0  0  0  0  0  0  0  0  0  0
  129.0720  125.5920   66.0450 F   0  0  0  0  0  0  0  0  0  0  0  0
  130.3570  127.3060   66.4150 F   0  0  0  0  0  0  0  0  0  0  0  0
  131.1170  124.6700   63.9350 C   0  0  0  0  0  0  0  0  0  0  0  0
  130.0440  124.1930   63.0980 C   0  0  0  0  0  0  0  0  0  0  0  0
  128.7510  124.6350   63.2230 N   0  0  0  0  0  0  0  0  0  0  0  0
  130.4420  123.2460   62.1420 C   0  0  0  0  0  0  0  0  0  0  0  0
  129.6190  122.5380   61.1620 C   0  0  0  0  0  0  0  0  0  0  0  0
  129.5530  121.3080   61.1460 O   0  0  0  0  0  0  0  0  0  0  0  0
  128.9150  123.3140   60.3120 N   0  0  0  0  0  0  0  0  0  0  0  0
  128.0410  122.8270   59.2440 C   0  0  0  0  0  0  0  0  0  0  0  0
  126.5730  123.1710   59.4540 C   0  0  0  0  0  0  0  0  0  0  0  0
  126.0330  123.1880   60.7430 C   0  0  0  0  0  0  0  0  0  0  0  0
  124.7000  123.5400   60.9350 C   0  0  0  0  0  0  0  0  0  0  0  0
  123.9130  123.8890   59.8390 C   0  0  0  0  0  0  0  0  0  0  0  0
  124.4480  123.8910   58.5530 C   0  0  0  0  0  0  0  0  0  0  0  0
  125.7820  123.5370   58.3610 C   0  0  0  0  0  0  0  0  0  0  0  0
  132.1610  122.8850   62.2750 S   0  0  0  0  0  0  0  0  0  0  0  0
  132.3420  124.0230   63.5890 C   0  0  0  0  0  0  0  0  0  0  0  0
  133.5230  124.2270   64.1730 N   0  0  0  0  0  0  0  0  0  0  0  0
  1  2  1  0
  2  3  2  0
  3  4  1  0
  4  5  1  0
  5  6  1  0
  5  7  1  0
  5  8  1  0
  4  9  2  0
  9 10  1  0
 10 11  1  0
 10 12  2  0
 12 13  1  0
 13 14  2  0
 13 15  1  0
 15 16  1  0
 16 17  1  0
 17 18  2  0
 18 19  1  0
 19 20  2  0
 20 21  1  0
 21 22  2  0
 12 23  1  0
 23 24  1  0
 24 25  2  0
 25  2  1  0
 24  9  1  0
 22 17  1  0
M  END
>  <Binding energies>  (29) 
[-6.61]

>  <Ligand effiencies>  (29) 
[-0.23607142857142857]

>  <Interactions>  (29) 
["V-B:PRO:540:C:9850, V-B:TYR:539:CE2:9845, V-A:GLY:454:C:4043, V-A:HIS:456:CE1:4066, V-B:ASN:362:CB:8144, V-A:GLY:453:C:4038, V-B:PRO:540:CA:9852, V-A:ARG:545:CG:4919, V-A:ARG:545:CZ:4923, V-A:ARG:545:CD:4920, V-A:GLY:453:CA:4040, V-B:ALA:541:CB:9861, H-A:GLY:454:N:4046, V-B:ASN:362:C:8140, H-A:TYR:484:OH:4344, V-A:GLY:454:CA:4045, V-B:PRO:540:CB:9854, H-B:GLU:543:OE2:9879, V-A:GLU:543:CB:4903, V-B:GLU:543:CB:9875, V-B:GLU:543:CD:9877, V-B:GLU:543:CG:9876, V-A:GLU:543:CD:4905, V-B:LEU:363:CA:8153, V-A:LEU:475:CD1:4254, H-B:GLU:543:OE1:9878, V-B:LEU:363:CD1:8157"]

$$$$
4ca_Grossjean_2025
     RDKit          3D

 34 37  0  0  0  0  0  0  0  0999 V2000
  127.5640  127.3380   72.8060 C   0  0  0  0  0  0  0  0  0  0  0  0
  128.8790  126.6020   73.0810 C   0  0  0  0  0  0  0  0  0  0  0  0
  129.9380  127.2520   72.3910 O   0  0  0  0  0  0  0  0  0  0  0  0
  129.6860  128.1490   71.4020 C   0  0  0  0  0  0  0  0  0  0  0  0
  129.4930  129.3510   71.6090 O   0  0  0  0  0  0  0  0  0  0  0  0
  129.6670  127.5330   70.0340 C   0  0  0  0  0  0  0  0  0  0  0  0
  128.7980  126.4640   69.7760 C   0  0  0  0  0  0  0  0  0  0  0  0
  128.7550  125.8750   68.5150 C   0  0  0  0  0  0  0  0  0  0  0  0
  129.5820  126.3350   67.4910 C   0  0  0  0  0  0  0  0  0  0  0  0
  129.4500  125.6730   66.2550 N   0  0  0  0  0  0  0  0  0  0  0  0
  130.3870  125.3670   65.3240 C   0  0  0  0  0  0  0  0  0  0  0  0
  131.5900  125.5990   65.4520 O   0  0  0  0  0  0  0  0  0  0  0  0
  129.8800  124.7050   64.1200 C   0  0  0  0  0  0  0  0  0  0  0  0
  128.7890  125.5590   63.0320 S   0  0  0  0  0  0  0  0  0  0  0  0
  128.7270  124.1900   61.9470 C   0  0  0  0  0  0  0  0  0  0  0  0
  128.0030  124.2220   60.8310 N   0  0  0  0  0  0  0  0  0  0  0  0
  128.0280  123.1170   60.0420 C   0  0  0  0  0  0  0  0  0  0  0  0
  127.2090  123.1870   58.7860 C   0  0  0  0  0  0  0  0  0  0  0  0
  126.0550  123.9850   58.7230 C   0  0  0  0  0  0  0  0  0  0  0  0
  125.2890  124.0500   57.5620 C   0  0  0  0  0  0  0  0  0  0  0  0
  125.6670  123.3150   56.4430 C   0  0  0  0  0  0  0  0  0  0  0  0
  126.8040  122.5150   56.4790 C   0  0  0  0  0  0  0  0  0  0  0  0
  127.5670  122.4520   57.6410 C   0  0  0  0  0  0  0  0  0  0  0  0
  128.7610  121.9770   60.3900 C   0  0  0  0  0  0  0  0  0  0  0  0
  129.5230  121.9320   61.5670 C   0  0  0  0  0  0  0  0  0  0  0  0
  130.3050  120.6520   61.8860 C   0  0  0  0  0  0  0  0  0  0  0  0
  131.6120  120.7610   61.6360 F   0  0  0  0  0  0  0  0  0  0  0  0
  130.1700  120.3490   63.1770 F   0  0  0  0  0  0  0  0  0  0  0  0
  129.8420  119.6440   61.1460 F   0  0  0  0  0  0  0  0  0  0  0  0
  129.5190  123.0920   62.3930 C   0  0  0  0  0  0  0  0  0  0  0  0
  130.1690  123.4160   63.6390 C   0  0  0  0  0  0  0  0  0  0  0  0
  130.9950  122.5390   64.2930 N   0  0  0  0  0  0  0  0  0  0  0  0
  130.4520  127.4070   67.7370 C   0  0  0  0  0  0  0  0  0  0  0  0
  130.4920  127.9970   68.9980 C   0  0  0  0  0  0  0  0  0  0  0  0
  1  2  1  0
  2  3  1  0
  3  4  1  0
  4  5  2  0
  4  6  1  0
  6  7  2  0
  7  8  1  0
  8  9  2  0
  9 10  1  0
 10 11  1  0
 11 12  2  0
 11 13  1  0
 13 14  1  0
 14 15  1  0
 15 16  2  0
 16 17  1  0
 17 18  1  0
 18 19  2  0
 19 20  1  0
 20 21  2  0
 21 22  1  0
 22 23  2  0
 17 24  2  0
 24 25  1  0
 25 26  1  0
 26 27  1  0
 26 28  1  0
 26 29  1  0
 25 30  2  0
 30 31  1  0
 31 32  1  0
  9 33  1  0
 33 34  2  0
 34  6  1  0
 31 13  2  0
 30 15  1  0
 23 18  1  0
M  END
>  <Binding energies>  (30) 
[-8.36]

>  <Ligand effiencies>  (30) 
[-0.22594594594594594]

>  <Interactions>  (30) 
["V-B:TYR:539:CE2:9845, V-A:HIS:456:CE1:4066, V-B:PRO:540:CA:9852, V-B:ALA:541:CB:9861, V-B:TYR:539:C:9836, H-A:TYR:484:OH:4344, V-B:PRO:540:N:9853, V-B:TYR:539:CD2:9843, V-A:TYR:484:CE1:4341, V-B:HIS:456:CD2:9036, V-A:GLU:543:CB:4903, H-A:LYS:547:NZ:4948, V-B:LYS:547:CE:9919, V-B:GLU:543:CB:9875, V-B:GLU:543:CD:9877, V-A:GLU:543:C:4899, V-A:TYR:484:CZ:4343, V-B:GLU:543:CG:9876, V-A:LEU:475:CD1:4254, V-B:PRO:540:CD:9856, V-A:LEU:475:CD2:4255, V-B:GLU:543:C:9871, H-B:GLU:543:OE1:9878, V-B:LEU:363:CD1:8157, V-B:ILE:538:CB:9831, V-A:PRO:482:CG:4323, V-A:LEU:475:CG:4253, V-A:PRO:482:CB:4322"]

$$$$
4cb_Grossjean_2025
     RDKit          3D

 33 36  0  0  0  0  0  0  0  0999 V2000
  128.0260  127.3070   72.7980 C   0  0  0  0  0  0  0  0  0  0  0  0
  129.3820  127.1890   72.3880 O   0  0  0  0  0  0  0  0  0  0  0  0
  129.9000  128.0110   71.4400 C   0  0  0  0  0  0  0  0  0  0  0  0
  130.3660  129.1280   71.6880 O   0  0  0  0  0  0  0  0  0  0  0  0
  129.8510  127.4270   70.0570 C   0  0  0  0  0  0  0  0  0  0  0  0
  129.0750  126.2840   69.8240 C   0  0  0  0  0  0  0  0  0  0  0  0
  129.0030  125.7240   68.5520 C   0  0  0  0  0  0  0  0  0  0  0  0
  129.7080  126.2890   67.4890 C   0  0  0  0  0  0  0  0  0  0  0  0
  129.5520  125.6500   66.2440 N   0  0  0  0  0  0  0  0  0  0  0  0
  130.4400  125.4770   65.2350 C   0  0  0  0  0  0  0  0  0  0  0  0
  131.6170  125.8390   65.2780 O   0  0  0  0  0  0  0  0  0  0  0  0
  129.9140  124.7930   64.0500 C   0  0  0  0  0  0  0  0  0  0  0  0
  128.8030  125.6260   62.9650 S   0  0  0  0  0  0  0  0  0  0  0  0
  128.7250  124.2390   61.9040 C   0  0  0  0  0  0  0  0  0  0  0  0
  127.9830  124.2490   60.8010 N   0  0  0  0  0  0  0  0  0  0  0  0
  127.9940  123.1280   60.0340 C   0  0  0  0  0  0  0  0  0  0  0  0
  127.1510  123.1710   58.7920 C   0  0  0  0  0  0  0  0  0  0  0  0
  125.9650  123.9220   58.7560 C   0  0  0  0  0  0  0  0  0  0  0  0
  125.1760  123.9630   57.6090 C   0  0  0  0  0  0  0  0  0  0  0  0
  125.5630  123.2510   56.4790 C   0  0  0  0  0  0  0  0  0  0  0  0
  126.7320  122.4970   56.4890 C   0  0  0  0  0  0  0  0  0  0  0  0
  127.5160  122.4570   57.6380 C   0  0  0  0  0  0  0  0  0  0  0  0
  128.7350  121.9960   60.3910 C   0  0  0  0  0  0  0  0  0  0  0  0
  129.5180  121.9740   61.5540 C   0  0  0  0  0  0  0  0  0  0  0  0
  130.3070  120.7010   61.8860 C   0  0  0  0  0  0  0  0  0  0  0  0
  130.1940  120.3340   63.1640 F   0  0  0  0  0  0  0  0  0  0  0  0
  129.8630  119.6900   61.1390 F   0  0  0  0  0  0  0  0  0  0  0  0
  131.6020  120.8950   61.6390 F   0  0  0  0  0  0  0  0  0  0  0  0
  129.5260  123.1510   62.3580 C   0  0  0  0  0  0  0  0  0  0  0  0
  130.2000  123.4980   63.5860 C   0  0  0  0  0  0  0  0  0  0  0  0
  131.0420  122.6350   64.2390 N   0  0  0  0  0  0  0  0  0  0  0  0
  130.4850  127.4360   67.7130 C   0  0  0  0  0  0  0  0  0  0  0  0
  130.5550  127.9950   68.9850 C   0  0  0  0  0  0  0  0  0  0  0  0
  1  2  1  0
  2  3  1  0
  3  4  2  0
  3  5  1  0
  5  6  2  0
  6  7  1  0
  7  8  2  0
  8  9  1  0
  9 10  1  0
 10 11  2  0
 10 12  1  0
 12 13  1  0
 13 14  1  0
 14 15  2  0
 15 16  1  0
 16 17  1  0
 17 18  2  0
 18 19  1  0
 19 20  2  0
 20 21  1  0
 21 22  2  0
 16 23  2  0
 23 24  1  0
 24 25  1  0
 25 26  1  0
 25 27  1  0
 25 28  1  0
 24 29  2  0
 29 30  1  0
 30 31  1  0
  8 32  1  0
 32 33  2  0
 33  5  1  0
 30 12  2  0
 29 14  1  0
 22 17  1  0
M  END
>  <Binding energies>  (31) 
[-8.25]

>  <Ligand effiencies>  (31) 
[-0.22916666666666666]

>  <Interactions>  (31) 
["V-B:TYR:539:CE2:9845, V-A:HIS:456:CE1:4066, V-B:PRO:540:CA:9852, V-B:ALA:541:CB:9861, V-B:TYR:539:C:9836, H-A:TYR:484:OH:4344, V-B:PRO:540:N:9853, V-B:PRO:540:CB:9854, V-B:TYR:539:CD2:9843, V-A:TYR:484:CE1:4341, V-B:HIS:456:CD2:9036, V-A:GLU:543:CB:4903, H-A:LYS:547:NZ:4948, V-B:LYS:547:CE:9919, V-B:GLU:543:CB:9875, V-B:GLU:543:CD:9877, V-A:GLU:543:C:4899, V-A:TYR:484:CZ:4343, V-B:GLU:543:CG:9876, V-A:LEU:475:CD1:4254, V-B:PRO:540:CD:9856, V-A:LEU:475:CD2:4255, V-A:HIS:456:CD2:4064, V-B:GLU:543:C:9871, H-B:GLU:543:OE1:9878, V-B:LEU:363:CD1:8157, V-B:ILE:538:CB:9831, V-A:PRO:482:CG:4323, V-A:LEU:475:CG:4253"]

$$$$
4cc_Grossjean_2025
     RDKit          3D

 31 34  0  0  0  0  0  0  0  0999 V2000
  128.7590  127.7750   71.9360 C   0  0  0  0  0  0  0  0  0  0  0  0
  129.8040  128.1070   71.0280 O   0  0  0  0  0  0  0  0  0  0  0  0
  129.7980  127.5550   69.7610 C   0  0  0  0  0  0  0  0  0  0  0  0
  128.9580  126.4600   69.5640 C   0  0  0  0  0  0  0  0  0  0  0  0
  128.8830  125.8380   68.3200 C   0  0  0  0  0  0  0  0  0  0  0  0
  129.6590  126.3010   67.2560 C   0  0  0  0  0  0  0  0  0  0  0  0
  129.5050  125.6210   66.0330 N   0  0  0  0  0  0  0  0  0  0  0  0
  130.4210  125.3840   65.0630 C   0  0  0  0  0  0  0  0  0  0  0  0
  131.6040  125.7200   65.1360 O   0  0  0  0  0  0  0  0  0  0  0  0
  129.9170  124.6810   63.8790 C   0  0  0  0  0  0  0  0  0  0  0  0
  128.8400  125.5020   62.7510 S   0  0  0  0  0  0  0  0  0  0  0  0
  128.7470  124.0810   61.7370 C   0  0  0  0  0  0  0  0  0  0  0  0
  128.0180  124.0690   60.6230 N   0  0  0  0  0  0  0  0  0  0  0  0
  128.0150  122.9220   59.8950 C   0  0  0  0  0  0  0  0  0  0  0  0
  127.1830  122.9380   58.6460 C   0  0  0  0  0  0  0  0  0  0  0  0
  127.6610  122.3620   57.4580 C   0  0  0  0  0  0  0  0  0  0  0  0
  126.8960  122.3740   56.2940 C   0  0  0  0  0  0  0  0  0  0  0  0
  125.6370  122.9650   56.3030 C   0  0  0  0  0  0  0  0  0  0  0  0
  125.1410  123.5460   57.4650 C   0  0  0  0  0  0  0  0  0  0  0  0
  125.9100  123.5320   58.6260 C   0  0  0  0  0  0  0  0  0  0  0  0
  128.7280  121.7890   60.2980 C   0  0  0  0  0  0  0  0  0  0  0  0
  129.4980  121.7900   61.4730 C   0  0  0  0  0  0  0  0  0  0  0  0
  130.2590  120.5150   61.8510 C   0  0  0  0  0  0  0  0  0  0  0  0
  129.8620  119.4430   61.1610 F   0  0  0  0  0  0  0  0  0  0  0  0
  131.5600  120.6800   61.6170 F   0  0  0  0  0  0  0  0  0  0  0  0
  130.0760  120.2470   63.1440 F   0  0  0  0  0  0  0  0  0  0  0  0
  129.5160  122.9910   62.2390 C   0  0  0  0  0  0  0  0  0  0  0  0
  130.1710  123.3630   63.4690 C   0  0  0  0  0  0  0  0  0  0  0  0
  130.9750  122.5000   64.1710 N   0  0  0  0  0  0  0  0  0  0  0  0
  130.4970  127.4110   67.4430 C   0  0  0  0  0  0  0  0  0  0  0  0
  130.5680  128.0290   68.6880 C   0  0  0  0  0  0  0  0  0  0  0  0
  1  2  1  0
  2  3  1  0
  3  4  2  0
  4  5  1  0
  5  6  2  0
  6  7  1  0
  7  8  1  0
  8  9  2  0
  8 10  1  0
 10 11  1  0
 11 12  1  0
 12 13  2  0
 13 14  1  0
 14 15  1  0
 15 16  2  0
 16 17  1  0
 17 18  2  0
 18 19  1  0
 19 20  2  0
 14 21  2  0
 21 22  1  0
 22 23  1  0
 23 24  1  0
 23 25  1  0
 23 26  1  0
 22 27  2  0
 27 28  1  0
 28 29  1  0
  6 30  1  0
 30 31  2  0
 31  3  1  0
 28 10  2  0
 27 12  1  0
 20 15  1  0
M  END
>  <Binding energies>  (32) 
[-7.59]

>  <Ligand effiencies>  (32) 
[-0.22323529411764706]

>  <Interactions>  (32) 
["V-B:TYR:539:CE2:9845, V-A:HIS:456:CE1:4066, V-B:TYR:539:CD1:9842, V-B:PRO:540:CA:9852, V-B:TYR:539:CE1:9844, V-B:ALA:541:CB:9861, V-B:TYR:539:C:9836, H-A:TYR:484:OH:4344, V-B:PRO:540:N:9853, V-B:PRO:540:CB:9854, V-B:TYR:539:CD2:9843, H-B:GLU:543:OE2:9879, V-A:TYR:484:CE1:4341, V-B:HIS:456:CD2:9036, V-A:GLU:543:CB:4903, V-B:GLU:543:CB:9875, V-B:GLU:543:CD:9877, V-A:GLU:543:C:4899, V-A:TYR:484:CZ:4343, V-B:GLU:543:CG:9876, V-A:LEU:475:CD1:4254, V-B:PRO:540:CD:9856, V-A:LEU:475:CD2:4255, V-B:GLU:543:C:9871, H-B:GLU:543:OE1:9878, V-B:LEU:363:CD1:8157, V-B:ILE:538:CB:9831, V-A:PRO:482:CG:4323, V-A:LEU:475:CG:4253, V-B:ILE:538:CA:9829, V-A:PRO:482:CB:4322"]

$$$$
4ce_Grossjean_2025
     RDKit          3D

 30 33  0  0  0  0  0  0  0  0999 V2000
  128.0900  126.3550   70.8350 C   0  0  0  0  0  0  0  0  0  0  0  0
  129.0010  126.7380   69.6840 C   0  0  0  0  0  0  0  0  0  0  0  0
  130.0050  127.6980   69.8350 C   0  0  0  0  0  0  0  0  0  0  0  0
  130.8120  127.9930   68.7350 C   0  0  0  0  0  0  0  0  0  0  0  0
  130.5990  127.3290   67.5260 C   0  0  0  0  0  0  0  0  0  0  0  0
  129.5710  126.3820   67.4420 C   0  0  0  0  0  0  0  0  0  0  0  0
  129.4220  125.7300   66.2050 N   0  0  0  0  0  0  0  0  0  0  0  0
  130.3830  125.2420   65.3810 C   0  0  0  0  0  0  0  0  0  0  0  0
  131.5890  125.2940   65.6290 O   0  0  0  0  0  0  0  0  0  0  0  0
  129.8990  124.6290   64.1420 C   0  0  0  0  0  0  0  0  0  0  0  0
  128.9030  125.5590   63.0240 S   0  0  0  0  0  0  0  0  0  0  0  0
  128.8210  124.2150   61.9100 C   0  0  0  0  0  0  0  0  0  0  0  0
  128.1520  124.3040   60.7640 N   0  0  0  0  0  0  0  0  0  0  0  0
  128.1570  123.2110   59.9550 C   0  0  0  0  0  0  0  0  0  0  0  0
  127.3980  123.3460   58.6680 C   0  0  0  0  0  0  0  0  0  0  0  0
  127.8990  122.7900   57.4790 C   0  0  0  0  0  0  0  0  0  0  0  0
  127.2040  122.9180   56.2800 C   0  0  0  0  0  0  0  0  0  0  0  0
  125.9940  123.6030   56.2520 C   0  0  0  0  0  0  0  0  0  0  0  0
  125.4760  124.1640   57.4150 C   0  0  0  0  0  0  0  0  0  0  0  0
  126.1760  124.0370   58.6120 C   0  0  0  0  0  0  0  0  0  0  0  0
  128.8140  122.0300   60.3120 C   0  0  0  0  0  0  0  0  0  0  0  0
  129.5190  121.9240   61.5220 C   0  0  0  0  0  0  0  0  0  0  0  0
  130.2180  120.6000   61.8490 C   0  0  0  0  0  0  0  0  0  0  0  0
  130.0450  120.2150   63.1150 F   0  0  0  0  0  0  0  0  0  0  0  0
  129.7390  119.6310   61.0680 F   0  0  0  0  0  0  0  0  0  0  0  0
  131.5300  120.7210   61.6450 F   0  0  0  0  0  0  0  0  0  0  0  0
  129.5330  123.0680   62.3700 C   0  0  0  0  0  0  0  0  0  0  0  0
  130.1390  123.3350   63.6520 C   0  0  0  0  0  0  0  0  0  0  0  0
  130.8850  122.4030   64.3280 N   0  0  0  0  0  0  0  0  0  0  0  0
  128.7810  126.0840   68.5140 N   0  0  0  0  0  0  0  0  0  0  0  0
  1  2  1  0
  2  3  2  0
  3  4  1  0
  4  5  2  0
  5  6  1  0
  6  7  1  0
  7  8  1  0
  8  9  2  0
  8 10  1  0
 10 11  1  0
 11 12  1  0
 12 13  2  0
 13 14  1  0
 14 15  1  0
 15 16  2  0
 16 17  1  0
 17 18  2  0
 18 19  1  0
 19 20  2  0
 14 21  2  0
 21 22  1  0
 22 23  1  0
 23 24  1  0
 23 25  1  0
 23 26  1  0
 22 27  2  0
 27 28  1  0
 28 29  1  0
  6 30  2  0
 30  2  1  0
 28 10  2  0
 27 12  1  0
 20 15  1  0
M  END
>  <Binding energies>  (33) 
[-7.4]

>  <Ligand effiencies>  (33) 
[-0.22424242424242424]

>  <Interactions>  (33) 
["V-B:TYR:539:CE2:9845, V-A:HIS:456:CE1:4066, V-B:TYR:539:CG:9841, V-B:TYR:539:CD1:9842, V-B:TYR:539:CZ:9846, V-B:PRO:540:CA:9852, V-B:TYR:539:CE1:9844, V-B:ALA:541:CB:9861, V-B:TYR:539:C:9836, H-A:TYR:484:OH:4344, V-B:TYR:539:CD2:9843, H-B:GLU:543:OE2:9879, V-A:TYR:484:CE1:4341, V-A:GLU:543:CB:4903, V-B:GLY:544:C:9881, V-B:GLU:543:CB:9875, V-B:GLU:543:CD:9877, V-A:GLU:543:C:4899, V-A:TYR:484:CZ:4343, V-B:GLU:543:CG:9876, V-A:LEU:475:CD1:4254, V-A:LEU:475:CD2:4255, V-B:MET:535:CE:9804, H-B:GLU:543:OE1:9878, V-A:PRO:482:CG:4323, V-A:LEU:475:CG:4253, V-A:PRO:482:CB:4322"]

$$$$
4cf_Grossjean_2025
     RDKit          3D

 29 32  0  0  0  0  0  0  0  0999 V2000
  131.0270  122.5120   64.0860 N   0  0  0  0  0  0  0  0  0  0  0  0
  130.2240  123.3820   63.3950 C   0  0  0  0  0  0  0  0  0  0  0  0
  129.9850  124.7030   63.8080 C   0  0  0  0  0  0  0  0  0  0  0  0
  130.4750  125.3880   65.0080 C   0  0  0  0  0  0  0  0  0  0  0  0
  131.6840  125.5220   65.2030 O   0  0  0  0  0  0  0  0  0  0  0  0
  129.5160  125.8530   65.8430 N   0  0  0  0  0  0  0  0  0  0  0  0
  129.6440  126.5020   67.0860 C   0  0  0  0  0  0  0  0  0  0  0  0
  130.6220  127.4630   67.4090 C   0  0  0  0  0  0  0  0  0  0  0  0
  130.6470  128.0200   68.6890 C   0  0  0  0  0  0  0  0  0  0  0  0
  129.6940  127.6020   69.6180 C   0  0  0  0  0  0  0  0  0  0  0  0
  128.7460  126.6740   69.3350 N   0  0  0  0  0  0  0  0  0  0  0  0
  128.7360  126.1400   68.0870 C   0  0  0  0  0  0  0  0  0  0  0  0
  128.9150  125.5370   62.6840 S   0  0  0  0  0  0  0  0  0  0  0  0
  128.7890  124.1140   61.6770 C   0  0  0  0  0  0  0  0  0  0  0  0
  128.0440  124.1070   60.5730 N   0  0  0  0  0  0  0  0  0  0  0  0
  127.9960  122.9490   59.8650 C   0  0  0  0  0  0  0  0  0  0  0  0
  127.1430  122.9690   58.6300 C   0  0  0  0  0  0  0  0  0  0  0  0
  127.6010  122.3970   57.4320 C   0  0  0  0  0  0  0  0  0  0  0  0
  126.8160  122.4100   56.2820 C   0  0  0  0  0  0  0  0  0  0  0  0
  125.5550  122.9960   56.3160 C   0  0  0  0  0  0  0  0  0  0  0  0
  125.0750  123.5680   57.4900 C   0  0  0  0  0  0  0  0  0  0  0  0
  125.8630  123.5520   58.6360 C   0  0  0  0  0  0  0  0  0  0  0  0
  128.7130  121.8130   60.2530 C   0  0  0  0  0  0  0  0  0  0  0  0
  129.5040  121.8120   61.4130 C   0  0  0  0  0  0  0  0  0  0  0  0
  130.2600  120.5300   61.7840 C   0  0  0  0  0  0  0  0  0  0  0  0
  129.8350  119.4580   61.1120 F   0  0  0  0  0  0  0  0  0  0  0  0
  131.5570  120.6790   61.5180 F   0  0  0  0  0  0  0  0  0  0  0  0
  130.1040  120.2740   63.0830 F   0  0  0  0  0  0  0  0  0  0  0  0
  129.5480  123.0150   62.1740 C   0  0  0  0  0  0  0  0  0  0  0  0
  1  2  1  0
  2  3  2  0
  3  4  1  0
  4  5  2  0
  4  6  1  0
  6  7  1  0
  7  8  2  0
  8  9  1  0
  9 10  2  0
 10 11  1  0
 11 12  2  0
  3 13  1  0
 13 14  1  0
 14 15  2  0
 15 16  1  0
 16 17  1  0
 17 18  2  0
 18 19  1  0
 19 20  2  0
 20 21  1  0
 21 22  2  0
 16 23  2  0
 23 24  1  0
 24 25  1  0
 25 26  1  0
 25 27  1  0
 25 28  1  0
 24 29  2  0
 29  2  1  0
 12  7  1  0
 29 14  1  0
 22 17  1  0
M  END
>  <Binding energies>  (34) 
[-7.37]

>  <Ligand effiencies>  (34) 
[-0.2303125]

>  <Interactions>  (34) 
["V-B:TYR:539:CE2:9845, V-A:HIS:456:CE1:4066, V-B:TYR:539:CD1:9842, V-B:PRO:540:CA:9852, V-B:TYR:539:CE1:9844, V-B:ALA:541:CB:9861, V-B:TYR:539:C:9836, H-A:TYR:484:OH:4344, V-B:PRO:540:N:9853, V-B:PRO:540:CB:9854, V-B:TYR:539:CD2:9843, H-B:GLU:543:OE2:9879, V-A:TYR:484:CE1:4341, V-A:GLU:543:CB:4903, V-B:GLU:543:CB:9875, V-B:GLU:543:CD:9877, V-A:GLU:543:C:4899, V-B:GLU:543:CG:9876, V-A:LEU:475:CD1:4254, V-B:PRO:540:CD:9856, V-A:LEU:475:CD2:4255, H-B:GLU:543:OE1:9878, V-B:LEU:363:CD1:8157, V-B:ILE:538:CB:9831, V-A:PRO:482:CG:4323, V-A:LEU:475:CG:4253, V-A:PRO:482:CB:4322"]

$$$$
4ci_Grossjean_2025
     RDKit          3D

 28 31  0  0  0  0  0  0  0  0999 V2000
  127.4310  128.0910   66.2740 N   0  0  0  0  0  0  0  0  0  0  0  0
  128.4210  127.1420   66.2940 C   0  0  0  0  0  0  0  0  0  0  0  0
  128.8200  126.4710   67.4610 C   0  0  0  0  0  0  0  0  0  0  0  0
  128.2950  126.6160   68.8220 C   0  0  0  0  0  0  0  0  0  0  0  0
  127.0980  126.4340   69.0570 O   0  0  0  0  0  0  0  0  0  0  0  0
  129.2060  126.9660   69.7650 N   0  0  0  0  0  0  0  0  0  0  0  0
  128.9840  127.1720   71.1200 C   0  0  0  0  0  0  0  0  0  0  0  0
  127.7600  126.9220   71.7390 C   0  0  0  0  0  0  0  0  0  0  0  0
  127.9520  127.2500   73.0610 C   0  0  0  0  0  0  0  0  0  0  0  0
  129.2280  127.6750   73.2300 O   0  0  0  0  0  0  0  0  0  0  0  0
  129.8710  127.6220   71.9920 N   0  0  0  0  0  0  0  0  0  0  0  0
  130.1050  125.3150   67.1230 S   0  0  0  0  0  0  0  0  0  0  0  0
  130.1060  125.7430   65.4280 C   0  0  0  0  0  0  0  0  0  0  0  0
  130.9350  125.1610   64.5640 N   0  0  0  0  0  0  0  0  0  0  0  0
  130.8600  125.5560   63.2670 C   0  0  0  0  0  0  0  0  0  0  0  0
  131.8110  124.8860   62.3170 C   0  0  0  0  0  0  0  0  0  0  0  0
  133.0980  124.5060   62.7350 C   0  0  0  0  0  0  0  0  0  0  0  0
  133.9840  123.8830   61.8590 C   0  0  0  0  0  0  0  0  0  0  0  0
  133.5940  123.6310   60.5480 C   0  0  0  0  0  0  0  0  0  0  0  0
  132.3290  124.0000   60.1070 C   0  0  0  0  0  0  0  0  0  0  0  0
  131.4470  124.6240   60.9850 C   0  0  0  0  0  0  0  0  0  0  0  0
  129.9660  126.5470   62.8480 C   0  0  0  0  0  0  0  0  0  0  0  0
  129.0860  127.1670   63.7510 C   0  0  0  0  0  0  0  0  0  0  0  0
  128.1320  128.2440   63.2230 C   0  0  0  0  0  0  0  0  0  0  0  0
  128.0400  129.3030   64.0280 F   0  0  0  0  0  0  0  0  0  0  0  0
  128.5590  128.6800   62.0380 F   0  0  0  0  0  0  0  0  0  0  0  0
  126.9070  127.7350   63.0890 F   0  0  0  0  0  0  0  0  0  0  0  0
  129.1480  126.7500   65.1110 C   0  0  0  0  0  0  0  0  0  0  0  0
  1  2  1  0
  2  3  2  0
  3  4  1  0
  4  5  2  0
  4  6  1  0
  6  7  1  0
  7  8  1  0
  8  9  2  0
  9 10  1  0
 10 11  1  0
  3 12  1  0
 12 13  1  0
 13 14  2  0
 14 15  1  0
 15 16  1  0
 16 17  2  0
 17 18  1  0
 18 19  2  0
 19 20  1  0
 20 21  2  0
 15 22  2  0
 22 23  1  0
 23 24  1  0
 24 25  1  0
 24 26  1  0
 24 27  1  0
 23 28  2  0
 28  2  1  0
 11  7  2  0
 28 13  1  0
 21 16  1  0
M  END
>  <Binding energies>  (35) 
[-7.0]

>  <Ligand effiencies>  (35) 
[-0.22580645161290322]

>  <Interactions>  (35) 
["V-B:TYR:539:CE2:9845, V-A:HIS:456:CE1:4066, V-B:TYR:539:CZ:9846, V-A:ASP:366:CG:3209, V-A:TYR:484:CE1:4341, V-B:HIS:456:CD2:9036, H-A:LYS:547:NZ:4948, V-B:GLY:544:C:9881, V-B:LYS:547:CE:9919, V-B:GLU:543:CB:9875, V-B:GLU:543:CD:9877, V-B:HIS:456:CE1:9038, V-A:TYR:484:CZ:4343, V-A:GLU:543:CD:4905, V-A:GLU:543:CG:4904, H-B:GLU:543:OE1:9878, H-A:HIS:456:NE2:4067, H-B:HIS:456:NE2:9039"]

$$$$
8a_Ghoteimi_2023
     RDKit          3D

 40 44  0  0  0  0  0  0  0  0999 V2000
  125.2640  127.7580   74.2350 C   0  0  0  0  0  0  0  0  0  0  0  0
  126.3050  127.6400   73.1190 C   0  0  0  0  0  0  0  0  0  0  0  0
  127.5750  128.0470   73.6110 O   0  0  0  0  0  0  0  0  0  0  0  0
  128.6980  127.3360   73.3270 C   0  0  0  0  0  0  0  0  0  0  0  0
  129.4760  126.9200   74.1900 O   0  0  0  0  0  0  0  0  0  0  0  0
  128.9000  127.1100   71.8560 C   0  0  0  0  0  0  0  0  0  0  0  0
  129.5000  128.1150   71.0870 C   0  0  0  0  0  0  0  0  0  0  0  0
  129.7000  127.9360   69.7210 C   0  0  0  0  0  0  0  0  0  0  0  0
  129.3060  126.7530   69.0950 C   0  0  0  0  0  0  0  0  0  0  0  0
  129.5540  126.6860   67.7100 N   0  0  0  0  0  0  0  0  0  0  0  0
  129.6910  125.6120   66.8940 C   0  0  0  0  0  0  0  0  0  0  0  0
  129.6160  124.4420   67.2690 O   0  0  0  0  0  0  0  0  0  0  0  0
  129.9370  125.9260   65.4830 C   0  0  0  0  0  0  0  0  0  0  0  0
  129.3650  127.4460   64.7960 S   0  0  0  0  0  0  0  0  0  0  0  0
  130.0080  127.0320   63.2240 C   0  0  0  0  0  0  0  0  0  0  0  0
  129.8650  127.8400   62.1740 N   0  0  0  0  0  0  0  0  0  0  0  0
  130.3980  127.4200   60.9960 C   0  0  0  0  0  0  0  0  0  0  0  0
  130.2090  128.3330   59.8270 C   0  0  0  0  0  0  0  0  0  0  0  0
  130.2420  127.8430   58.5140 C   0  0  0  0  0  0  0  0  0  0  0  0
  130.0760  128.7000   57.4290 C   0  0  0  0  0  0  0  0  0  0  0  0
  129.8710  130.0640   57.6290 C   0  0  0  0  0  0  0  0  0  0  0  0
  129.7200  130.8380   56.4940 O   0  0  0  0  0  0  0  0  0  0  0  0
  130.6330  131.9040   56.2540 C   0  0  0  0  0  0  0  0  0  0  0  0
  129.8300  130.5630   58.9380 C   0  0  0  0  0  0  0  0  0  0  0  0
  129.9990  129.7040   60.0210 C   0  0  0  0  0  0  0  0  0  0  0  0
  131.0740  126.2040   60.8740 C   0  0  0  0  0  0  0  0  0  0  0  0
  131.2400  125.3600   61.9770 C   0  0  0  0  0  0  0  0  0  0  0  0
  131.9950  124.0940   61.7990 C   0  0  0  0  0  0  0  0  0  0  0  0
  133.3910  124.0980   61.8270 C   0  0  0  0  0  0  0  0  0  0  0  0
  134.1020  122.9100   61.6810 C   0  0  0  0  0  0  0  0  0  0  0  0
  133.4320  121.6980   61.5110 C   0  0  0  0  0  0  0  0  0  0  0  0
  134.2200  120.5710   61.3750 O   0  0  0  0  0  0  0  0  0  0  0  0
  133.6740  119.4140   60.7540 C   0  0  0  0  0  0  0  0  0  0  0  0
  132.0290  121.6910   61.4910 C   0  0  0  0  0  0  0  0  0  0  0  0
  131.3200  122.8810   61.6390 C   0  0  0  0  0  0  0  0  0  0  0  0
  130.6710  125.7690   63.2160 C   0  0  0  0  0  0  0  0  0  0  0  0
  130.5990  125.1510   64.5170 C   0  0  0  0  0  0  0  0  0  0  0  0
  131.1190  123.9070   64.7720 N   0  0  0  0  0  0  0  0  0  0  0  0
  128.7080  125.7390   69.8590 C   0  0  0  0  0  0  0  0  0  0  0  0
  128.5090  125.9190   71.2250 C   0  0  0  0  0  0  0  0  0  0  0  0
  1  2  1  0
  2  3  1  0
  3  4  1  0
  4  5  2  0
  4  6  1  0
  6  7  2  0
  7  8  1  0
  8  9  2  0
  9 10  1  0
 10 11  1  0
 11 12  2  0
 11 13  1  0
 13 14  1  0
 14 15  1  0
 15 16  2  0
 16 17  1  0
 17 18  1  0
 18 19  2  0
 19 20  1  0
 20 21  2  0
 21 22  1  0
 22 23  1  0
 21 24  1  0
 24 25  2  0
 17 26  2  0
 26 27  1  0
 27 28  1  0
 28 29  2  0
 29 30  1  0
 30 31  2  0
 31 32  1  0
 32 33  1  0
 31 34  1  0
 34 35  2  0
 27 36  2  0
 36 37  1  0
 37 38  1  0
  9 39  1  0
 39 40  2  0
 40  6  1  0
 37 13  2  0
 36 15  1  0
 25 18  1  0
 35 28  1  0
M  END
>  <Binding energies>  (36) 
[-7.59]

>  <Ligand effiencies>  (36) 
[-0.17651162790697675]

>  <Interactions>  (36) 
["V-B:TYR:539:CE2:9845, V-A:HIS:456:CE1:4066, V-A:GLY:453:C:4038, H-A:TYR:484:OH:4344, V-A:GLY:454:CA:4045, V-B:TYR:539:CD2:9843, V-A:ASP:366:CG:3209, V-A:TYR:484:CE1:4341, V-B:HIS:456:CD2:9036, V-B:LYS:547:CD:9918, H-A:LYS:547:NZ:4948, V-B:LYS:547:CE:9919, V-B:GLU:543:CB:9875, V-B:HIS:456:CB:9033, V-A:TYR:484:CZ:4343, V-A:GLU:543:CD:4905, V-A:LEU:475:CD1:4254, V-A:ILE:369:CG2:3233, V-B:GLU:543:C:9871, V-B:HIS:456:CG:9034, V-A:TRP:381:CH2:3368, H-A:TYR:531:OH:4792, V-A:ILE:538:CD1:4862"]

$$$$
8c_Ghoteimi_2023
     RDKit          3D

 34 38  0  0  0  0  0  0  0  0999 V2000
  123.9960  133.6080   62.1240 C   0  0  0  0  0  0  0  0  0  0  0  0
  124.2530  133.4090   63.5100 O   0  0  0  0  0  0  0  0  0  0  0  0
  125.1250  132.4090   63.8960 C   0  0  0  0  0  0  0  0  0  0  0  0
  124.6840  131.0980   63.7290 C   0  0  0  0  0  0  0  0  0  0  0  0
  125.4950  130.0280   64.0940 C   0  0  0  0  0  0  0  0  0  0  0  0
  126.7710  130.2410   64.6350 C   0  0  0  0  0  0  0  0  0  0  0  0
  127.6460  129.0950   65.0320 C   0  0  0  0  0  0  0  0  0  0  0  0
  127.9510  128.8290   66.3710 C   0  0  0  0  0  0  0  0  0  0  0  0
  128.7700  127.7480   66.7150 C   0  0  0  0  0  0  0  0  0  0  0  0
  129.0810  127.5000   68.1410 C   0  0  0  0  0  0  0  0  0  0  0  0
  130.2350  128.0400   68.7150 C   0  0  0  0  0  0  0  0  0  0  0  0
  130.5200  127.8140   70.0570 C   0  0  0  0  0  0  0  0  0  0  0  0
  129.6630  127.0440   70.8450 C   0  0  0  0  0  0  0  0  0  0  0  0
  130.0260  126.8740   72.1680 O   0  0  0  0  0  0  0  0  0  0  0  0
  129.8470  125.6020   72.7790 C   0  0  0  0  0  0  0  0  0  0  0  0
  128.5070  126.4980   70.2660 C   0  0  0  0  0  0  0  0  0  0  0  0
  128.2210  126.7260   68.9230 C   0  0  0  0  0  0  0  0  0  0  0  0
  129.2740  126.9320   65.6680 C   0  0  0  0  0  0  0  0  0  0  0  0
  130.1200  125.7670   65.6600 C   0  0  0  0  0  0  0  0  0  0  0  0
  130.6200  125.2140   66.8120 N   0  0  0  0  0  0  0  0  0  0  0  0
  130.3780  125.2600   64.3760 C   0  0  0  0  0  0  0  0  0  0  0  0
  131.1850  124.0980   64.0000 C   0  0  0  0  0  0  0  0  0  0  0  0
  131.2190  123.0950   64.7170 O   0  0  0  0  0  0  0  0  0  0  0  0
  131.8710  124.2180   62.8360 N   0  0  0  0  0  0  0  0  0  0  0  0
  132.7010  123.2700   62.2550 C   0  0  0  0  0  0  0  0  0  0  0  0
  134.0110  123.3050   62.1420 N   0  0  0  0  0  0  0  0  0  0  0  0
  134.4730  122.2300   61.5350 C   0  0  0  0  0  0  0  0  0  0  0  0
  133.5260  121.2920   61.1380 C   0  0  0  0  0  0  0  0  0  0  0  0
  131.9460  121.8590   61.5890 S   0  0  0  0  0  0  0  0  0  0  0  0
  129.5680  126.2210   63.1380 S   0  0  0  0  0  0  0  0  0  0  0  0
  128.8940  127.2930   64.3430 C   0  0  0  0  0  0  0  0  0  0  0  0
  128.1150  128.3230   64.0140 N   0  0  0  0  0  0  0  0  0  0  0  0
  127.2090  131.5630   64.7970 C   0  0  0  0  0  0  0  0  0  0  0  0
  126.4000  132.6360   64.4350 C   0  0  0  0  0  0  0  0  0  0  0  0
  1  2  1  0
  2  3  1  0
  3  4  2  0
  4  5  1  0
  5  6  2  0
  6  7  1  0
  7  8  2  0
  8  9  1  0
  9 10  1  0
 10 11  2  0
 11 12  1  0
 12 13  2  0
 13 14  1  0
 14 15  1  0
 13 16  1  0
 16 17  2  0
  9 18  2  0
 18 19  1  0
 19 20  1  0
 19 21  2  0
 21 22  1  0
 22 23  2  0
 22 24  1  0
 24 25  1  0
 25 26  2  0
 26 27  1  0
 27 28  2  0
 28 29  1  0
 21 30  1  0
 30 31  1  0
 31 32  2  0
  6 33  1  0
 33 34  2  0
 34  3  1  0
 32  7  1  0
 17 10  1  0
 31 18  1  0
 29 25  1  0
M  END
>  <Binding energies>  (37) 
[-8.7]

>  <Ligand effiencies>  (37) 
[-0.23513513513513512]

>  <Interactions>  (37) 
["V-B:TYR:539:CE2:9845, V-A:HIS:456:CE1:4066, V-A:GLY:453:C:4038, H-A:GLY:454:N:4046, H-A:TYR:484:OH:4344, V-A:GLY:454:CA:4045, V-A:TYR:484:CE1:4341, V-A:GLU:543:CB:4903, H-A:LYS:547:NZ:4948, V-B:LYS:547:CE:9919, V-B:GLU:543:CB:9875, V-B:GLU:543:CD:9877, V-A:GLU:543:C:4899, V-B:HIS:456:CE1:9038, V-A:TYR:484:CZ:4343, V-A:GLY:544:C:4909, V-A:GLU:543:CD:4905, V-A:LEU:475:CD1:4254, V-A:ILE:369:CG2:3233, V-A:ILE:369:CG1:3234, H-B:GLY:454:N:9018, V-A:GLU:543:CG:4904, V-A:HIS:456:CD2:4064, V-B:TYR:484:CE1:9313, V-B:TYR:484:CZ:9315, V-B:GLY:454:CA:9017, V-B:LEU:475:CD2:9227, H-A:HIS:456:NE2:4067, V-B:ILE:369:CD1:8207, V-B:ILE:369:CG2:8205"]

$$$$
8d_Ghoteimi_2023
     RDKit          3D

 30 33  0  0  0  0  0  0  0  0999 V2000
  132.8560  125.1540   64.5800 C   0  0  0  0  0  0  0  0  0  0  0  0
  132.2520  123.9500   64.1270 O   0  0  0  0  0  0  0  0  0  0  0  0
  130.9400  123.6950   64.3700 C   0  0  0  0  0  0  0  0  0  0  0  0
  130.4370  122.5690   64.3310 O   0  0  0  0  0  0  0  0  0  0  0  0
  130.1660  124.9140   64.6910 C   0  0  0  0  0  0  0  0  0  0  0  0
  129.3970  125.8340   63.3970 S   0  0  0  0  0  0  0  0  0  0  0  0
  128.7650  126.9930   64.5430 C   0  0  0  0  0  0  0  0  0  0  0  0
  128.0270  128.0340   64.1570 N   0  0  0  0  0  0  0  0  0  0  0  0
  127.5840  128.8740   65.1300 C   0  0  0  0  0  0  0  0  0  0  0  0
  126.7620  130.0360   64.6700 C   0  0  0  0  0  0  0  0  0  0  0  0
  125.4450  129.8590   64.2210 C   0  0  0  0  0  0  0  0  0  0  0  0
  124.6840  130.9430   63.7930 C   0  0  0  0  0  0  0  0  0  0  0  0
  125.2180  132.2310   63.8010 C   0  0  0  0  0  0  0  0  0  0  0  0
  124.3910  133.2450   63.3600 O   0  0  0  0  0  0  0  0  0  0  0  0
  124.0690  133.3260   61.9750 C   0  0  0  0  0  0  0  0  0  0  0  0
  126.5330  132.4200   64.2500 C   0  0  0  0  0  0  0  0  0  0  0  0
  127.2910  131.3320   64.6780 C   0  0  0  0  0  0  0  0  0  0  0  0
  127.8860  128.6760   66.4810 C   0  0  0  0  0  0  0  0  0  0  0  0
  128.6580  127.5830   66.8860 C   0  0  0  0  0  0  0  0  0  0  0  0
  128.9540  127.3960   68.3260 C   0  0  0  0  0  0  0  0  0  0  0  0
  130.0820  127.9920   68.8940 C   0  0  0  0  0  0  0  0  0  0  0  0
  130.3650  127.8090   70.2450 C   0  0  0  0  0  0  0  0  0  0  0  0
  129.5260  127.0340   71.0460 C   0  0  0  0  0  0  0  0  0  0  0  0
  129.8860  126.9070   72.3730 O   0  0  0  0  0  0  0  0  0  0  0  0
  129.8880  125.6160   72.9720 C   0  0  0  0  0  0  0  0  0  0  0  0
  128.3900  126.4390   70.4730 C   0  0  0  0  0  0  0  0  0  0  0  0
  128.1090  126.6220   69.1220 C   0  0  0  0  0  0  0  0  0  0  0  0
  129.1290  126.6910   65.8860 C   0  0  0  0  0  0  0  0  0  0  0  0
  129.9290  125.4990   65.9410 C   0  0  0  0  0  0  0  0  0  0  0  0
  130.4170  124.9890   67.1170 N   0  0  0  0  0  0  0  0  0  0  0  0
  1  2  1  0
  2  3  1  0
  3  4  2  0
  3  5  1  0
  5  6  1  0
  6  7  1  0
  7  8  2  0
  8  9  1  0
  9 10  1  0
 10 11  2  0
 11 12  1  0
 12 13  2  0
 13 14  1  0
 14 15  1  0
 13 16  1  0
 16 17  2  0
  9 18  2  0
 18 19  1  0
 19 20  1  0
 20 21  2  0
 21 22  1  0
 22 23  2  0
 23 24  1  0
 24 25  1  0
 23 26  1  0
 26 27  2  0
 19 28  2  0
 28 29  1  0
 29 30  1  0
 29  5  2  0
 28  7  1  0
 17 10  1  0
 27 20  1  0
M  END
>  <Binding energies>  (38) 
[-7.58]

>  <Ligand effiencies>  (38) 
[-0.236875]

>  <Interactions>  (38) 
["V-A:HIS:456:CE1:4066, V-A:ARG:545:CZ:4923, H-A:TYR:484:OH:4344, V-A:TYR:484:CE1:4341, V-A:GLU:543:CB:4903, H-A:LYS:547:NZ:4948, V-B:LYS:547:CE:9919, V-B:GLU:543:CB:9875, V-B:GLU:543:CD:9877, V-A:GLU:543:C:4899, V-B:HIS:456:CE1:9038, V-A:TYR:484:CZ:4343, V-B:GLU:543:CG:9876, V-A:GLU:543:CD:4905, H-B:GLY:454:N:9018, V-A:GLU:543:CG:4904, V-A:HIS:456:CD2:4064, V-B:TYR:484:CE1:9313, V-B:TYR:484:CZ:9315, V-B:GLY:454:CA:9017, V-B:LEU:475:CD2:9227, H-A:HIS:456:NE2:4067, H-B:GLU:543:O:9872, V-B:ILE:369:CD1:8207, V-B:ILE:369:CG2:8205"]

$$$$
9a_Ghoteimi_2023
     RDKit          3D

 48 54  0  0  0  0  0  0  0  0999 V2000
  136.9810  117.8080   57.4280 C   0  0  0  0  0  0  0  0  0  0  0  0
  135.6010  117.1580   57.2810 C   0  0  0  0  0  0  0  0  0  0  0  0
  134.8910  117.2710   58.5080 O   0  0  0  0  0  0  0  0  0  0  0  0
  135.4930  117.7540   59.6250 C   0  0  0  0  0  0  0  0  0  0  0  0
  136.5790  117.3410   60.0450 O   0  0  0  0  0  0  0  0  0  0  0  0
  134.7050  118.8370   60.3030 C   0  0  0  0  0  0  0  0  0  0  0  0
  135.3740  119.7700   61.1060 C   0  0  0  0  0  0  0  0  0  0  0  0
  134.6710  120.7850   61.7500 C   0  0  0  0  0  0  0  0  0  0  0  0
  133.2880  120.8900   61.6040 C   0  0  0  0  0  0  0  0  0  0  0  0
  132.6830  121.9540   62.3010 N   0  0  0  0  0  0  0  0  0  0  0  0
  132.6450  123.2800   62.0190 C   0  0  0  0  0  0  0  0  0  0  0  0
  133.1740  123.7930   61.0330 O   0  0  0  0  0  0  0  0  0  0  0  0
  131.9070  124.1040   62.9810 C   0  0  0  0  0  0  0  0  0  0  0  0
  132.1300  123.8620   64.7150 S   0  0  0  0  0  0  0  0  0  0  0  0
  130.9980  125.1430   65.0840 C   0  0  0  0  0  0  0  0  0  0  0  0
  130.7240  125.4920   66.3400 N   0  0  0  0  0  0  0  0  0  0  0  0
  129.8390  126.5080   66.5190 C   0  0  0  0  0  0  0  0  0  0  0  0
  129.5560  126.8900   67.9360 C   0  0  0  0  0  0  0  0  0  0  0  0
  128.3690  126.4850   68.5570 C   0  0  0  0  0  0  0  0  0  0  0  0
  128.0970  126.8360   69.8770 C   0  0  0  0  0  0  0  0  0  0  0  0
  129.0090  127.5940   70.6290 C   0  0  0  0  0  0  0  0  0  0  0  0
  128.7410  127.9700   71.9500 N   0  0  0  0  0  0  0  0  0  0  0  0
  128.4980  126.9640   73.0040 C   0  0  0  0  0  0  0  0  0  0  0  0
  127.8710  127.5480   74.2880 C   0  0  0  0  0  0  0  0  0  0  0  0
  128.6660  128.6150   74.7760 O   0  0  0  0  0  0  0  0  0  0  0  0
  128.7680  129.6640   73.8260 C   0  0  0  0  0  0  0  0  0  0  0  0
  129.4270  129.1410   72.5330 C   0  0  0  0  0  0  0  0  0  0  0  0
  130.1890  128.0090   69.9970 C   0  0  0  0  0  0  0  0  0  0  0  0
  130.4590  127.6610   68.6760 C   0  0  0  0  0  0  0  0  0  0  0  0
  129.2140  127.1490   65.4470 C   0  0  0  0  0  0  0  0  0  0  0  0
  129.4840  126.7720   64.1270 C   0  0  0  0  0  0  0  0  0  0  0  0
  128.7640  127.4620   63.0260 C   0  0  0  0  0  0  0  0  0  0  0  0
  127.3690  127.4210   62.9530 C   0  0  0  0  0  0  0  0  0  0  0  0
  126.6950  128.0800   61.9290 C   0  0  0  0  0  0  0  0  0  0  0  0
  127.3980  128.8130   60.9590 C   0  0  0  0  0  0  0  0  0  0  0  0
  126.7440  129.4730   59.9160 N   0  0  0  0  0  0  0  0  0  0  0  0
  125.8200  130.5800   60.2320 C   0  0  0  0  0  0  0  0  0  0  0  0
  125.4710  131.4530   59.0070 C   0  0  0  0  0  0  0  0  0  0  0  0
  124.9530  130.6430   57.9640 O   0  0  0  0  0  0  0  0  0  0  0  0
  125.8890  129.6610   57.5480 C   0  0  0  0  0  0  0  0  0  0  0  0
  126.2490  128.7400   58.7340 C   0  0  0  0  0  0  0  0  0  0  0  0
  128.7970  128.8500   61.0450 C   0  0  0  0  0  0  0  0  0  0  0  0
  129.4710  128.1880   62.0660 C   0  0  0  0  0  0  0  0  0  0  0  0
  130.4350  125.7340   63.9150 C   0  0  0  0  0  0  0  0  0  0  0  0
  130.9910  125.1360   62.7270 C   0  0  0  0  0  0  0  0  0  0  0  0
  130.6590  125.5570   61.4640 N   0  0  0  0  0  0  0  0  0  0  0  0
  132.6090  119.9620   60.7990 C   0  0  0  0  0  0  0  0  0  0  0  0
  133.3140  118.9470   60.1560 C   0  0  0  0  0  0  0  0  0  0  0  0
  1  2  1  0
  2  3  1  0
  3  4  1  0
  4  5  2  0
  4  6  1  0
  6  7  2  0
  7  8  1  0
  8  9  2  0
  9 10  1  0
 10 11  1  0
 11 12  2  0
 11 13  1  0
 13 14  1  0
 14 15  1  0
 15 16  2  0
 16 17  1  0
 17 18  1  0
 18 19  2  0
 19 20  1  0
 20 21  2  0
 21 22  1  0
 22 23  1  0
 23 24  1  0
 24 25  1  0
 25 26  1  0
 26 27  1  0
 21 28  1  0
 28 29  2  0
 17 30  2  0
 30 31  1  0
 31 32  1  0
 32 33  2  0
 33 34  1  0
 34 35  2  0
 35 36  1  0
 36 37  1  0
 37 38  1  0
 38 39  1  0
 39 40  1  0
 40 41  1  0
 35 42  1  0
 42 43  2  0
 31 44  2  0
 44 45  1  0
 45 46  1  0
  9 47  1  0
 47 48  2  0
 48  6  1  0
 45 13  2  0
 44 15  1  0
 29 18  1  0
 43 32  1  0
 27 22  1  0
 41 36  1  0
M  END
>  <Binding energies>  (39) 
[-3.97]

>  <Ligand effiencies>  (39) 
[-0.07784313725490197]

>  <Interactions>  (39) 
["V-B:TYR:539:CE2:9845, V-A:HIS:456:CE1:4066, V-B:TYR:539:CZ:9846, H-A:TYR:484:OH:4344, V-A:GLY:454:CA:4045, V-B:TYR:539:CD2:9843, V-B:HIS:456:CD2:9036, V-A:GLU:543:CB:4903, V-A:LYS:547:CE:4947, V-B:LYS:547:CD:9918, H-A:LYS:547:NZ:4948, V-B:LYS:547:CE:9919, V-B:GLU:543:CB:9875, V-B:GLU:543:CD:9877, V-A:GLU:543:C:4899, V-B:HIS:456:CE1:9038, V-A:TYR:484:CZ:4343, V-A:GLU:543:CD:4905, V-A:ILE:369:CB:3232, V-A:LEU:475:CD1:4254, V-A:ILE:369:CG2:3233, V-A:ILE:369:CG1:3234, H-A:ASP:366:OD1:3210, H-B:TYR:531:OH:9764, V-B:ASP:366:CG:8181, V-B:ASP:366:CB:8180, V-A:TYR:539:CE2:4873, V-A:SER:385:C:3401, V-A:SER:385:CA:3403, V-A:ILE:369:CD1:3235, V-A:TRP:381:CH2:3368, V-A:TRP:381:CZ2:3366, H-A:MET:386:N:3412, H-A:ASN:382:ND2:3377, V-A:VAL:384:C:3393, V-A:ILE:369:CA:3230, V-A:ASN:372:CB:3263, V-A:VAL:384:CG1:3398, V-A:ILE:369:C:3228, V-A:ASN:382:CG:3375, V-A:LEU:373:CD2:3277, H-A:SER:385:N:3404, V-A:ASN:372:C:3259"]

$$$$
9b_Ghoteimi_2023
     RDKit          3D

 42 48  0  0  0  0  0  0  0  0999 V2000
  129.6200  126.9430   62.0090 N   0  0  0  0  0  0  0  0  0  0  0  0
  129.0080  127.6360   63.0230 C   0  0  0  0  0  0  0  0  0  0  0  0
  128.2290  128.7840   62.8150 C   0  0  0  0  0  0  0  0  0  0  0  0
  127.8920  129.4430   61.5500 C   0  0  0  0  0  0  0  0  0  0  0  0
  126.9770  129.0180   60.8430 O   0  0  0  0  0  0  0  0  0  0  0  0
  128.6530  130.5210   61.2350 N   0  0  0  0  0  0  0  0  0  0  0  0
  128.5620  131.3200   60.1020 C   0  0  0  0  0  0  0  0  0  0  0  0
  129.3920  131.1640   58.9920 C   0  0  0  0  0  0  0  0  0  0  0  0
  128.9840  132.1300   58.1020 C   0  0  0  0  0  0  0  0  0  0  0  0
  127.9610  132.8310   58.6480 O   0  0  0  0  0  0  0  0  0  0  0  0
  127.7030  132.3080   59.9150 N   0  0  0  0  0  0  0  0  0  0  0  0
  127.6260  129.4310   64.3410 S   0  0  0  0  0  0  0  0  0  0  0  0
  128.4350  128.1740   65.2450 C   0  0  0  0  0  0  0  0  0  0  0  0
  128.3810  128.1260   66.5750 N   0  0  0  0  0  0  0  0  0  0  0  0
  129.0590  127.1180   67.1840 C   0  0  0  0  0  0  0  0  0  0  0  0
  128.9990  127.0990   68.6770 C   0  0  0  0  0  0  0  0  0  0  0  0
  127.9290  126.4980   69.3510 C   0  0  0  0  0  0  0  0  0  0  0  0
  127.8700  126.4960   70.7410 C   0  0  0  0  0  0  0  0  0  0  0  0
  128.8730  127.1080   71.5090 C   0  0  0  0  0  0  0  0  0  0  0  0
  128.8290  127.1110   72.9080 N   0  0  0  0  0  0  0  0  0  0  0  0
  129.4930  126.0560   73.7010 C   0  0  0  0  0  0  0  0  0  0  0  0
  129.6400  126.4010   75.1970 C   0  0  0  0  0  0  0  0  0  0  0  0
  128.3740  126.7270   75.7460 O   0  0  0  0  0  0  0  0  0  0  0  0
  127.8010  127.8520   75.1000 C   0  0  0  0  0  0  0  0  0  0  0  0
  127.6000  127.5560   73.5980 C   0  0  0  0  0  0  0  0  0  0  0  0
  129.9520  127.6900   70.8300 C   0  0  0  0  0  0  0  0  0  0  0  0
  130.0130  127.6890   69.4390 C   0  0  0  0  0  0  0  0  0  0  0  0
  129.7650  126.1510   66.4640 C   0  0  0  0  0  0  0  0  0  0  0  0
  129.8080  126.1870   65.0650 C   0  0  0  0  0  0  0  0  0  0  0  0
  130.5460  125.1180   64.3450 C   0  0  0  0  0  0  0  0  0  0  0  0
  131.7930  125.3840   63.7770 C   0  0  0  0  0  0  0  0  0  0  0  0
  132.4960  124.3800   63.1180 C   0  0  0  0  0  0  0  0  0  0  0  0
  131.9710  123.0830   63.0080 C   0  0  0  0  0  0  0  0  0  0  0  0
  132.6670  122.0560   62.3650 N   0  0  0  0  0  0  0  0  0  0  0  0
  131.9470  121.1740   61.4260 C   0  0  0  0  0  0  0  0  0  0  0  0
  132.7130  119.8720   61.1070 C   0  0  0  0  0  0  0  0  0  0  0  0
  134.0090  120.1790   60.6140 O   0  0  0  0  0  0  0  0  0  0  0  0
  134.7690  120.9160   61.5600 C   0  0  0  0  0  0  0  0  0  0  0  0
  134.0540  122.2420   61.8950 C   0  0  0  0  0  0  0  0  0  0  0  0
  130.7260  122.8230   63.5990 C   0  0  0  0  0  0  0  0  0  0  0  0
  130.0220  123.8280   64.2580 C   0  0  0  0  0  0  0  0  0  0  0  0
  129.1330  127.2540   64.4080 C   0  0  0  0  0  0  0  0  0  0  0  0
  1  2  1  0
  2  3  2  0
  3  4  1  0
  4  5  2  0
  4  6  1  0
  6  7  1  0
  7  8  1  0
  8  9  2  0
  9 10  1  0
 10 11  1  0
  3 12  1  0
 12 13  1  0
 13 14  2  0
 14 15  1  0
 15 16  1  0
 16 17  2  0
 17 18  1  0
 18 19  2  0
 19 20  1  0
 20 21  1  0
 21 22  1  0
 22 23  1  0
 23 24  1  0
 24 25  1  0
 19 26  1  0
 26 27  2  0
 15 28  2  0
 28 29  1  0
 29 30  1  0
 30 31  2  0
 31 32  1  0
 32 33  2  0
 33 34  1  0
 34 35  1  0
 35 36  1  0
 36 37  1  0
 37 38  1  0
 38 39  1  0
 33 40  1  0
 40 41  2  0
 29 42  2  0
 42  2  1  0
 11  7  2  0
 42 13  1  0
 27 16  1  0
 41 30  1  0
 25 20  1  0
 39 34  1  0
M  END
>  <Binding energies>  (40) 
[-8.42]

>  <Ligand effiencies>  (40) 
[-0.18711111111111112]

>  <Interactions>  (40) 
["V-B:TYR:539:CE2:9845, V-A:HIS:456:CE1:4066, V-A:GLY:453:C:4038, V-A:ARG:545:CZ:4923, V-A:GLY:454:CA:4045, V-B:TYR:539:CD2:9843, V-B:HIS:456:CD2:9036, V-A:LYS:547:CE:4947, V-B:LYS:547:CD:9918, V-B:GLY:544:C:9881, V-B:LYS:547:CE:9919, V-B:GLU:543:CB:9875, V-B:GLU:543:CD:9877, V-B:HIS:456:CE1:9038, V-B:GLU:543:CG:9876, V-A:GLU:543:CD:4905, V-A:ILE:369:CB:3232, V-A:LEU:475:CD1:4254, V-A:ILE:369:CG2:3233, V-A:ILE:369:CG1:3234, H-A:GLU:543:OE2:4907, V-A:GLU:543:CG:4904, H-A:ASP:366:OD1:3210, V-B:GLU:543:C:9871, V-A:TYR:539:C:4864, V-A:ILE:369:CD1:3235"]

$$$$
9c_Ghoteimi_2023
     RDKit          3D

 42 48  0  0  0  0  0  0  0  0999 V2000
  129.7380  126.8790   62.0290 N   0  0  0  0  0  0  0  0  0  0  0  0
  129.1290  127.6080   63.0200 C   0  0  0  0  0  0  0  0  0  0  0  0
  128.3730  128.7640   62.7750 C   0  0  0  0  0  0  0  0  0  0  0  0
  128.0650  129.3990   61.4900 C   0  0  0  0  0  0  0  0  0  0  0  0
  127.0680  129.0680   60.8460 O   0  0  0  0  0  0  0  0  0  0  0  0
  128.9460  130.3460   61.0840 N   0  0  0  0  0  0  0  0  0  0  0  0
  128.8960  131.0830   59.9090 C   0  0  0  0  0  0  0  0  0  0  0  0
  127.8640  131.7150   59.3940 N   0  0  0  0  0  0  0  0  0  0  0  0
  128.1760  132.3100   58.2590 C   0  0  0  0  0  0  0  0  0  0  0  0
  129.4930  132.1640   57.8300 C   0  0  0  0  0  0  0  0  0  0  0  0
  130.3590  131.1950   58.9830 S   0  0  0  0  0  0  0  0  0  0  0  0
  127.7660  129.4590   64.2780 S   0  0  0  0  0  0  0  0  0  0  0  0
  128.5430  128.2110   65.2220 C   0  0  0  0  0  0  0  0  0  0  0  0
  128.4720  128.1950   66.5520 N   0  0  0  0  0  0  0  0  0  0  0  0
  129.1250  127.1910   67.1930 C   0  0  0  0  0  0  0  0  0  0  0  0
  129.0470  127.2100   68.6850 C   0  0  0  0  0  0  0  0  0  0  0  0
  129.9620  127.9420   69.4500 C   0  0  0  0  0  0  0  0  0  0  0  0
  129.8910  127.9490   70.8390 C   0  0  0  0  0  0  0  0  0  0  0  0
  128.9070  127.2120   71.5170 C   0  0  0  0  0  0  0  0  0  0  0  0
  128.8170  127.2140   72.9140 N   0  0  0  0  0  0  0  0  0  0  0  0
  129.4430  126.1500   73.7260 C   0  0  0  0  0  0  0  0  0  0  0  0
  129.5480  126.4930   75.2280 C   0  0  0  0  0  0  0  0  0  0  0  0
  128.2680  126.8330   75.7360 O   0  0  0  0  0  0  0  0  0  0  0  0
  127.7300  127.9640   75.0730 C   0  0  0  0  0  0  0  0  0  0  0  0
  127.5720  127.6710   73.5650 C   0  0  0  0  0  0  0  0  0  0  0  0
  127.9810  126.4950   70.7460 C   0  0  0  0  0  0  0  0  0  0  0  0
  128.0510  126.4920   69.3560 C   0  0  0  0  0  0  0  0  0  0  0  0
  129.8210  126.1940   66.5040 C   0  0  0  0  0  0  0  0  0  0  0  0
  129.8790  126.1940   65.1060 C   0  0  0  0  0  0  0  0  0  0  0  0
  130.6040  125.0960   64.4200 C   0  0  0  0  0  0  0  0  0  0  0  0
  129.8990  124.0370   63.8450 C   0  0  0  0  0  0  0  0  0  0  0  0
  130.5740  123.0140   63.1850 C   0  0  0  0  0  0  0  0  0  0  0  0
  131.9740  123.0210   63.0850 C   0  0  0  0  0  0  0  0  0  0  0  0
  132.6720  122.0100   62.4180 N   0  0  0  0  0  0  0  0  0  0  0  0
  131.9450  121.1310   61.4810 C   0  0  0  0  0  0  0  0  0  0  0  0
  132.7220  119.8450   61.1250 C   0  0  0  0  0  0  0  0  0  0  0  0
  134.0030  120.1780   60.6110 O   0  0  0  0  0  0  0  0  0  0  0  0
  134.7720  120.9100   61.5520 C   0  0  0  0  0  0  0  0  0  0  0  0
  134.0460  122.2220   61.9230 C   0  0  0  0  0  0  0  0  0  0  0  0
  132.6710  124.1000   63.6480 C   0  0  0  0  0  0  0  0  0  0  0  0
  131.9950  125.1240   64.3080 C   0  0  0  0  0  0  0  0  0  0  0  0
  129.2310  127.2570   64.4140 C   0  0  0  0  0  0  0  0  0  0  0  0
  1  2  1  0
  2  3  2  0
  3  4  1  0
  4  5  2  0
  4  6  1  0
  6  7  1  0
  7  8  2  0
  8  9  1  0
  9 10  2  0
 10 11  1  0
  3 12  1  0
 12 13  1  0
 13 14  2  0
 14 15  1  0
 15 16  1  0
 16 17  2  0
 17 18  1  0
 18 19  2  0
 19 20  1  0
 20 21  1  0
 21 22  1  0
 22 23  1  0
 23 24  1  0
 24 25  1  0
 19 26  1  0
 26 27  2  0
 15 28  2  0
 28 29  1  0
 29 30  1  0
 30 31  2  0
 31 32  1  0
 32 33  2  0
 33 34  1  0
 34 35  1  0
 35 36  1  0
 36 37  1  0
 37 38  1  0
 38 39  1  0
 33 40  1  0
 40 41  2  0
 29 42  2  0
 42  2  1  0
 11  7  1  0
 42 13  1  0
 27 16  1  0
 41 30  1  0
 25 20  1  0
 39 34  1  0
M  END
>  <Binding energies>  (41) 
[-8.45]

>  <Ligand effiencies>  (41) 
[-0.18777777777777777]

>  <Interactions>  (41) 
["V-B:TYR:539:CE2:9845, V-A:HIS:456:CE1:4066, V-A:GLY:453:C:4038, V-A:GLY:454:CA:4045, V-B:TYR:539:CD2:9843, V-B:HIS:456:CD2:9036, V-A:LYS:547:CE:4947, V-B:LYS:547:CD:9918, V-B:GLY:544:C:9881, V-B:LYS:547:CE:9919, V-B:GLU:543:CD:9877, V-A:GLU:543:C:4899, V-B:HIS:456:CE1:9038, V-B:GLU:543:CG:9876, V-A:GLU:543:CD:4905, V-A:ILE:369:CB:3232, V-A:LEU:475:CD1:4254, V-A:ILE:369:CG2:3233, V-A:ILE:369:CG1:3234, H-A:GLU:543:OE2:4907, V-A:GLU:543:CG:4904, H-A:ASP:366:OD1:3210, V-B:GLU:543:C:9871, V-A:PRO:540:N:4881, V-A:PRO:540:CA:4880, V-A:TYR:539:C:4864, V-A:TYR:539:CE2:4873, V-A:TYR:539:CD2:4871, V-A:ILE:369:CD1:3235, V-A:TRP:381:CH2:3368"]

$$$$
RR11_Rahimova_2017
     RDKit          3D

 33 38  0  0  0  0  0  0  0  0999 V2000
  129.4570  128.0690   69.9760 N   0  0  0  0  0  0  0  0  0  0  0  0
  129.8270  127.4490   68.7840 C   0  0  0  0  0  0  0  0  0  0  0  0
  129.1740  126.2890   68.3740 C   0  0  0  0  0  0  0  0  0  0  0  0
  129.5430  125.6720   67.1820 C   0  0  0  0  0  0  0  0  0  0  0  0
  130.5670  126.2080   66.3900 C   0  0  0  0  0  0  0  0  0  0  0  0
  130.9590  125.5460   65.1030 C   0  0  0  0  0  0  0  0  0  0  0  0
  131.2700  126.1900   63.9990 N   0  0  0  0  0  0  0  0  0  0  0  0
  131.5730  125.2170   63.0840 C   0  0  0  0  0  0  0  0  0  0  0  0
  131.9770  125.3510   61.7490 C   0  0  0  0  0  0  0  0  0  0  0  0
  132.2490  124.1900   61.0160 C   0  0  0  0  0  0  0  0  0  0  0  0
  132.6840  124.3040   59.5610 C   0  0  0  0  0  0  0  0  0  0  0  0
  131.7880  125.2250   58.7440 C   0  0  0  0  0  0  0  0  0  0  0  0
  132.0290  125.3830   57.3750 C   0  0  0  0  0  0  0  0  0  0  0  0
  131.2300  126.2090   56.5820 C   0  0  0  0  0  0  0  0  0  0  0  0
  130.1620  126.8800   57.1940 C   0  0  0  0  0  0  0  0  0  0  0  0
  129.2490  127.7410   56.6440 N   0  0  0  0  0  0  0  0  0  0  0  0
  128.4640  128.0960   57.6390 C   0  0  0  0  0  0  0  0  0  0  0  0
  127.3130  129.0530   57.5120 C   0  0  0  0  0  0  0  0  0  0  0  0
  127.4530  130.2400   56.7820 C   0  0  0  0  0  0  0  0  0  0  0  0
  126.3900  131.1320   56.6740 C   0  0  0  0  0  0  0  0  0  0  0  0
  125.1770  130.8430   57.2950 C   0  0  0  0  0  0  0  0  0  0  0  0
  124.1130  131.7380   57.1910 N   0  0  0  0  0  0  0  0  0  0  0  0
  125.0220  129.6650   58.0210 C   0  0  0  0  0  0  0  0  0  0  0  0
  126.0860  128.7730   58.1290 C   0  0  0  0  0  0  0  0  0  0  0  0
  128.8260  127.4910   58.8230 N   0  0  0  0  0  0  0  0  0  0  0  0
  129.9230  126.6990   58.5770 C   0  0  0  0  0  0  0  0  0  0  0  0
  130.7160  125.8700   59.3740 C   0  0  0  0  0  0  0  0  0  0  0  0
  132.0960  122.9260   61.5980 C   0  0  0  0  0  0  0  0  0  0  0  0
  131.6910  122.7590   62.9250 C   0  0  0  0  0  0  0  0  0  0  0  0
  131.4380  123.9260   63.6490 C   0  0  0  0  0  0  0  0  0  0  0  0
  131.0410  124.1780   64.9420 N   0  0  0  0  0  0  0  0  0  0  0  0
  131.2160  127.3750   66.8160 C   0  0  0  0  0  0  0  0  0  0  0  0
  130.8480  127.9940   68.0070 C   0  0  0  0  0  0  0  0  0  0  0  0
  1  2  1  0
  2  3  2  0
  3  4  1  0
  4  5  2  0
  5  6  1  0
  6  7  2  0
  7  8  1  0
  8  9  2  0
  9 10  1  0
 10 11  1  0
 11 12  1  0
 12 13  2  0
 13 14  1  0
 14 15  2  0
 15 16  1  0
 16 17  2  0
 17 18  1  0
 18 19  2  0
 19 20  1  0
 20 21  2  0
 21 22  1  0
 21 23  1  0
 23 24  2  0
 17 25  1  0
 25 26  1  0
 26 27  2  0
 10 28  2  0
 28 29  1  0
 29 30  2  0
 30 31  1  0
  5 32  1  0
 32 33  2  0
 33  2  1  0
 31  6  1  0
 30  8  1  0
 27 12  1  0
 26 15  1  0
 24 18  1  0
M  END
>  <Binding energies>  (42) 
[-6.79]

>  <Ligand effiencies>  (42) 
[-0.1741025641025641]

>  <Interactions>  (42) 
["V-B:TYR:539:CE2:9845, V-A:HIS:456:CE1:4066, V-B:TYR:539:CZ:9846, V-A:ARG:545:CG:4919, H-A:TYR:484:OH:4344, V-A:ASP:366:CG:3209, V-A:TYR:484:CE1:4341, V-B:HIS:456:CD2:9036, V-A:GLU:543:CB:4903, V-B:GLU:543:CB:9875, V-A:GLU:543:C:4899, V-B:HIS:456:CE1:9038, V-A:TYR:484:CZ:4343, V-A:GLU:543:CD:4905, H-A:ARG:545:NH2:4925, V-A:LEU:475:CD1:4254, V-A:ASP:366:CB:3208, V-B:ASP:366:CG:8181, V-B:ASP:366:CB:8180, V-A:TYR:539:CE2:4873, V-A:ASP:366:CA:3206, H-A:GLU:543:O:4900, H-B:HIS:456:NE2:9039, V-A:TYR:539:CZ:4874, V-B:ILE:369:CG2:8205, H-A:TYR:539:OH:4875, H-B:ASP:366:O:8177"]

$$$$
RR16_Rahimova_2017
     RDKit          3D

 44 49  0  0  0  0  0  0  0  0999 V2000
  123.8150  130.8540   62.9530 O   0  0  0  0  0  0  0  0  0  0  0  0
  125.0530  131.5910   63.2350 S   0  0  0  0  0  0  0  0  0  0  0  0
  125.0130  132.9980   63.6480 O   0  0  0  0  0  0  0  0  0  0  0  0
  126.0820  131.4670   61.8070 N   0  0  0  0  0  0  0  0  0  0  0  0
  126.3240  130.1600   61.1540 C   0  0  0  0  0  0  0  0  0  0  0  0
  127.0080  130.3950   59.7810 C   0  0  0  0  0  0  0  0  0  0  0  0
  126.7420  129.3580   58.6720 C   0  0  0  0  0  0  0  0  0  0  0  0
  126.5310  127.9260   59.1930 C   0  0  0  0  0  0  0  0  0  0  0  0
  127.5170  127.4560   60.2790 C   0  0  0  0  0  0  0  0  0  0  0  0
  127.1520  127.7660   61.7440 C   0  0  0  0  0  0  0  0  0  0  0  0
  127.0970  129.2540   62.1410 C   0  0  0  0  0  0  0  0  0  0  0  0
  125.9280  130.6710   64.4960 C   0  0  0  0  0  0  0  0  0  0  0  0
  127.2500  130.9920   64.8120 C   0  0  0  0  0  0  0  0  0  0  0  0
  127.9580  130.1930   65.7050 C   0  0  0  0  0  0  0  0  0  0  0  0
  127.3420  129.0790   66.2780 C   0  0  0  0  0  0  0  0  0  0  0  0
  128.2920  127.9700   67.3160 S   0  0  0  0  0  0  0  0  0  0  0  0
  127.3440  127.0480   67.9570 O   0  0  0  0  0  0  0  0  0  0  0  0
  129.1910  128.7940   68.1330 O   0  0  0  0  0  0  0  0  0  0  0  0
  129.2800  127.0430   66.1700 N   0  0  0  0  0  0  0  0  0  0  0  0
  128.8990  127.2200   64.7450 C   0  0  0  0  0  0  0  0  0  0  0  0
  129.5880  126.1570   63.8660 C   0  0  0  0  0  0  0  0  0  0  0  0
  131.1220  126.1380   64.0840 C   0  0  0  0  0  0  0  0  0  0  0  0
  131.8210  125.0580   63.2540 C   0  0  0  0  0  0  0  0  0  0  0  0
  133.1960  125.1570   62.9990 C   0  0  0  0  0  0  0  0  0  0  0  0
  133.8750  124.1910   62.2550 C   0  0  0  0  0  0  0  0  0  0  0  0
  135.2210  124.3030   62.0190 O   0  0  0  0  0  0  0  0  0  0  0  0
  133.1430  123.1010   61.7600 C   0  0  0  0  0  0  0  0  0  0  0  0
  133.5340  122.0160   61.0300 N   0  0  0  0  0  0  0  0  0  0  0  0
  132.4220  121.2260   60.8330 N   0  0  0  0  0  0  0  0  0  0  0  0
  131.3610  121.8380   61.3940 N   0  0  0  0  0  0  0  0  0  0  0  0
  130.0600  121.1810   61.4100 C   0  0  0  0  0  0  0  0  0  0  0  0
  128.9720  122.0160   60.7520 C   0  0  0  0  0  0  0  0  0  0  0  0
  128.2860  122.9850   61.4930 C   0  0  0  0  0  0  0  0  0  0  0  0
  127.3030  123.7670   60.8860 C   0  0  0  0  0  0  0  0  0  0  0  0
  127.0020  123.5870   59.5350 C   0  0  0  0  0  0  0  0  0  0  0  0
  127.6840  122.6250   58.7900 C   0  0  0  0  0  0  0  0  0  0  0  0
  127.3210  122.4070   57.1170 Cl  0  0  0  0  0  0  0  0  0  0  0  0
  128.6650  121.8390   59.3990 C   0  0  0  0  0  0  0  0  0  0  0  0
  131.7540  123.0120   62.0140 C   0  0  0  0  0  0  0  0  0  0  0  0
  131.0720  123.9810   62.7570 C   0  0  0  0  0  0  0  0  0  0  0  0
  131.5020  126.0810   65.5870 C   0  0  0  0  0  0  0  0  0  0  0  0
  130.7430  127.1380   66.4130 C   0  0  0  0  0  0  0  0  0  0  0  0
  126.0070  128.7840   65.9930 C   0  0  0  0  0  0  0  0  0  0  0  0
  125.3000  129.5800   65.0970 C   0  0  0  0  0  0  0  0  0  0  0  0
  1  2  2  0
  2  3  2  0
  2  4  1  0
  4  5  1  0
  5  6  1  0
  6  7  1  0
  7  8  1  0
  8  9  1  0
  9 10  1  0
 10 11  1  0
  2 12  1  0
 12 13  2  0
 13 14  1  0
 14 15  2  0
 15 16  1  0
 16 17  2  0
 16 18  2  0
 16 19  1  0
 19 20  1  0
 20 21  1  0
 21 22  1  0
 22 23  1  0
 23 24  2  0
 24 25  1  0
 25 26  1  0
 25 27  2  0
 27 28  1  0
 28 29  2  0
 29 30  1  0
 30 31  1  0
 31 32  1  0
 32 33  2  0
 33 34  1  0
 34 35  2  0
 35 36  1  0
 36 37  1  0
 36 38  2  0
 30 39  1  0
 39 40  2  0
 22 41  1  0
 41 42  1  0
 15 43  1  0
 43 44  2  0
 11  5  1  0
 44 12  1  0
 42 19  1  0
 40 23  1  0
 39 27  1  0
 38 32  1  0
M  END
>  <Binding energies>  (43) 
[-8.98]

>  <Ligand effiencies>  (43) 
[-0.18708333333333335]

>  <Interactions>  (43) 
["V-B:TYR:539:CE2:9845, V-A:HIS:456:CE1:4066, V-B:TYR:539:CG:9841, V-B:TYR:539:CD1:9842, V-B:TYR:539:CZ:9846, V-A:GLY:453:C:4038, V-B:PRO:540:CA:9852, V-A:ARG:545:CZ:4923, V-A:GLY:453:CA:4040, V-B:ALA:541:CB:9861, H-A:GLY:454:N:4046, V-B:TYR:539:C:9836, V-B:PRO:540:N:9853, V-B:TYR:539:CD2:9843, V-A:ASP:366:CG:3209, V-A:GLU:543:CB:4903, V-B:GLU:543:CD:9877, V-B:HIS:456:CE1:9038, V-A:GLU:543:CD:4905, H-A:ARG:545:NH1:4924, V-A:LEU:475:CD1:4254, H-A:ASP:366:OD2:3211, H-B:GLY:454:N:9018, V-B:ARG:545:CZ:9895, H-B:TYR:484:OH:9316, V-A:GLU:543:CG:4904, V-B:ASP:366:CG:8181"]

$$$$
RR18_Rahimova_2017
     RDKit          3D

 36 41  0  0  0  0  0  0  0  0999 V2000
  133.7720  125.0310   65.2520 C   0  0  0  0  0  0  0  0  0  0  0  0
  132.6880  125.1510   64.2110 C   0  0  0  0  0  0  0  0  0  0  0  0
  132.6560  125.0260   62.8310 C   0  0  0  0  0  0  0  0  0  0  0  0
  131.3380  125.2540   62.4370 C   0  0  0  0  0  0  0  0  0  0  0  0
  130.6120  125.5100   63.5890 C   0  0  0  0  0  0  0  0  0  0  0  0
  129.1450  125.8240   63.8670 C   0  0  1  0  0  0  0  0  0  0  0  0
  128.9900  126.8310   65.0450 C   0  0  0  0  0  0  0  0  0  0  0  0
  129.3970  126.4560   66.3960 C   0  0  0  0  0  0  0  0  0  0  0  0
  129.8460  125.3370   66.6520 O   0  0  0  0  0  0  0  0  0  0  0  0
  129.2530  127.4420   67.3120 N   0  0  0  0  0  0  0  0  0  0  0  0
  129.5180  127.4450   68.6990 C   0  0  0  0  0  0  0  0  0  0  0  0
  130.6860  127.9890   69.2630 C   0  0  0  0  0  0  0  0  0  0  0  0
  130.8900  127.9540   70.6410 C   0  0  0  0  0  0  0  0  0  0  0  0
  129.9400  127.3720   71.4740 C   0  0  0  0  0  0  0  0  0  0  0  0
  128.7840  126.8180   70.9280 C   0  0  0  0  0  0  0  0  0  0  0  0
  128.5650  126.8460   69.5470 C   0  0  0  0  0  0  0  0  0  0  0  0
  127.2850  126.2220   68.9990 C   0  0  0  0  0  0  0  0  0  0  0  0
  128.5660  128.0920   64.7680 C   0  0  0  0  0  0  0  0  0  0  0  0
  128.1470  128.5190   63.5440 N   0  0  0  0  0  0  0  0  0  0  0  0
  128.0600  127.6800   62.5790 C   0  0  0  0  0  0  0  0  0  0  0  0
  127.4000  128.0460   61.0030 S   0  0  0  0  0  0  0  0  0  0  0  0
  127.6610  126.3640   60.4450 C   0  0  0  0  0  0  0  0  0  0  0  0
  127.3590  125.8410   59.2060 C   0  0  0  0  0  0  0  0  0  0  0  0
  126.6790  126.6670   58.1970 C   0  0  0  0  0  0  0  0  0  0  0  0
  126.3190  127.8430   58.2480 O   0  0  0  0  0  0  0  0  0  0  0  0
  126.4680  125.8950   57.1260 N   0  0  0  0  0  0  0  0  0  0  0  0
  126.9610  124.6340   57.2750 C   0  0  0  0  0  0  0  0  0  0  0  0
  126.9240  123.5880   56.3530 C   0  0  0  0  0  0  0  0  0  0  0  0
  127.5170  122.3750   56.6900 C   0  0  0  0  0  0  0  0  0  0  0  0
  128.1410  122.2320   57.9280 C   0  0  0  0  0  0  0  0  0  0  0  0
  128.1640  123.2950   58.8350 C   0  0  0  0  0  0  0  0  0  0  0  0
  127.5490  124.5220   58.5230 C   0  0  0  0  0  0  0  0  0  0  0  0
  128.2480  125.6070   61.5510 C   0  0  0  0  0  0  0  0  0  0  0  0
  128.5160  124.4090   61.5550 O   0  0  0  0  0  0  0  0  0  0  0  0
  128.4640  126.3850   62.6460 N   0  0  0  0  0  0  0  0  0  0  0  0
  131.4420  125.4450   64.6650 O   0  0  0  0  0  0  0  0  0  0  0  0
  1  2  1  0
  2  3  2  0
  3  4  1  0
  4  5  2  0
  6  5  1  6
  6  7  1  0
  7  8  1  0
  8  9  2  0
  8 10  1  0
 10 11  1  0
 11 12  2  0
 12 13  1  0
 13 14  2  0
 14 15  1  0
 15 16  2  0
 16 17  1  0
  7 18  2  0
 18 19  1  0
 19 20  2  0
 20 21  1  0
 21 22  1  0
 22 23  2  0
 23 24  1  0
 24 25  2  0
 24 26  1  0
 26 27  1  0
 27 28  2  0
 28 29  1  0
 29 30  2  0
 30 31  1  0
 31 32  2  0
 22 33  1  0
 33 34  2  0
 33 35  1  0
  5 36  1  0
 36  2  1  0
 35  6  1  0
 16 11  1  0
 35 20  1  0
 32 23  1  0
 32 27  1  0
M  END
>  <Binding energies>  (44) 
[-8.77]

>  <Ligand effiencies>  (44) 
[-0.23078947368421052]

>  <Interactions>  (44) 
["V-B:TYR:539:CE2:9845, V-A:HIS:456:CE1:4066, V-B:TYR:539:CG:9841, V-B:TYR:539:CD1:9842, V-B:TYR:539:CZ:9846, V-B:PRO:540:CA:9852, V-A:ARG:545:CZ:4923, V-B:TYR:539:CE1:9844, V-A:ARG:545:CD:4920, V-B:TYR:539:C:9836, H-A:TYR:484:OH:4344, V-A:GLY:454:CA:4045, V-B:PRO:540:N:9853, V-B:TYR:539:CD2:9843, V-B:HIS:456:CD2:9036, V-A:GLU:543:CB:4903, V-B:GLY:544:C:9881, V-B:GLU:543:CB:9875, V-B:GLU:543:CD:9877, V-A:GLU:543:C:4899, V-B:HIS:456:CE1:9038, V-B:GLU:543:CG:9876, V-A:GLY:544:C:4909, V-A:GLU:543:CD:4905, V-B:MET:535:CE:9804, V-A:HIS:456:CD2:4064, V-B:GLU:543:C:9871, H-B:TYR:531:OH:9764, H-B:HIS:456:NE2:9039, H-B:MET:535:SD:9803"]

$$$$
RR20_Rahimova_2017
     RDKit          3D

 38 43  0  0  0  0  0  0  0  0999 V2000
  125.2820  130.0800   75.3800 C   0  0  0  0  0  0  0  0  0  0  0  0
  126.2260  129.1960   74.5860 C   0  0  0  0  0  0  0  0  0  0  0  0
  125.7320  128.0720   73.9230 C   0  0  0  0  0  0  0  0  0  0  0  0
  126.5940  127.2640   73.1870 C   0  0  0  0  0  0  0  0  0  0  0  0
  127.9590  127.5660   73.1180 C   0  0  0  0  0  0  0  0  0  0  0  0
  128.8760  126.6870   72.2950 C   0  0  0  0  0  0  0  0  0  0  0  0
  128.9810  125.5040   72.6260 O   0  0  0  0  0  0  0  0  0  0  0  0
  129.5320  127.2220   71.2250 N   0  0  0  0  0  0  0  0  0  0  0  0
  130.9520  127.6040   71.3020 C   0  0  0  0  0  0  0  0  0  0  0  0
  131.3640  128.0080   69.8970 C   0  0  0  0  0  0  0  0  0  0  0  0
  130.2500  127.4660   69.0530 C   0  0  0  0  0  0  0  0  0  0  0  0
  130.1240  127.4580   67.6640 C   0  0  0  0  0  0  0  0  0  0  0  0
  128.9280  127.0510   67.0590 C   0  0  0  0  0  0  0  0  0  0  0  0
  128.7930  127.0340   65.5620 C   0  0  0  0  0  0  0  0  0  0  0  0
  129.1000  125.9200   64.9160 N   0  0  0  0  0  0  0  0  0  0  0  0
  128.9270  126.0120   63.6220 C   0  0  0  0  0  0  0  0  0  0  0  0
  129.1460  125.0380   62.6600 N   0  0  0  0  0  0  0  0  0  0  0  0
  129.4160  123.7270   62.8740 C   0  0  0  0  0  0  0  0  0  0  0  0
  129.4840  123.2110   63.9910 O   0  0  0  0  0  0  0  0  0  0  0  0
  129.6270  122.8180   61.6400 C   0  0  0  0  0  0  0  0  0  0  0  0
  128.6570  123.0780   60.5600 N   0  0  0  0  0  0  0  0  0  0  0  0
  128.6510  122.0150   59.5440 C   0  0  0  0  0  0  0  0  0  0  0  0
  127.8260  122.4590   58.3140 C   0  0  0  0  0  0  0  0  0  0  0  0
  126.4870  123.0940   58.6920 C   0  0  0  0  0  0  0  0  0  0  0  0
  125.4950  123.3100   57.7280 C   0  0  0  0  0  0  0  0  0  0  0  0
  124.2900  123.9240   58.0640 C   0  0  0  0  0  0  0  0  0  0  0  0
  124.0620  124.3270   59.3760 C   0  0  0  0  0  0  0  0  0  0  0  0
  125.0370  124.1090   60.3470 C   0  0  0  0  0  0  0  0  0  0  0  0
  126.2520  123.4950   60.0230 C   0  0  0  0  0  0  0  0  0  0  0  0
  127.2980  123.2040   61.0990 C   0  0  0  0  0  0  0  0  0  0  0  0
  128.3630  127.5460   63.0870 S   0  0  0  0  0  0  0  0  0  0  0  0
  128.3710  128.1030   64.7430 C   0  0  0  0  0  0  0  0  0  0  0  0
  127.9890  129.5300   65.0740 C   0  0  0  0  0  0  0  0  0  0  0  0
  127.8450  126.7060   67.8830 C   0  0  0  0  0  0  0  0  0  0  0  0
  127.9630  126.7310   69.2720 C   0  0  0  0  0  0  0  0  0  0  0  0
  129.1900  127.0580   69.8630 C   0  0  0  0  0  0  0  0  0  0  0  0
  128.4430  128.7120   73.7610 C   0  0  0  0  0  0  0  0  0  0  0  0
  127.5810  129.5210   74.4970 C   0  0  0  0  0  0  0  0  0  0  0  0
  1  2  1  0
  2  3  2  0
  3  4  1  0
  4  5  2  0
  5  6  1  0
  6  7  2  0
  6  8  1  0
  8  9  1  0
  9 10  1  0
 10 11  1  0
 11 12  2  0
 12 13  1  0
 13 14  1  0
 14 15  1  0
 15 16  2  0
 16 17  1  0
 17 18  1  0
 18 19  2  0
 18 20  1  0
 20 21  1  0
 21 22  1  0
 22 23  1  0
 23 24  1  0
 24 25  2  0
 25 26  1  0
 26 27  2  0
 27 28  1  0
 28 29  2  0
 29 30  1  0
 16 31  1  0
 31 32  1  0
 32 33  1  0
 13 34  2  0
 34 35  1  0
 35 36  2  0
  5 37  1  0
 37 38  2  0
 38  2  1  0
 36  8  1  0
 36 11  1  0
 32 14  2  0
 30 21  1  0
 29 24  1  0
M  END
>  <Binding energies>  (45) 
[-10.31]

>  <Ligand effiencies>  (45) 
[-0.2643589743589744]

>  <Interactions>  (45) 
["V-B:TYR:539:CE2:9845, V-A:HIS:456:CE1:4066, V-B:TYR:539:CZ:9846, V-B:PRO:540:CA:9852, V-B:ALA:541:CB:9861, V-B:TYR:539:C:9836, V-B:PRO:540:N:9853, V-B:PRO:540:CB:9854, V-B:TYR:539:CD2:9843, H-B:GLU:543:OE2:9879, V-B:HIS:456:CD2:9036, V-A:GLU:543:CB:4903, V-A:LYS:547:CE:4947, V-B:VAL:458:CG2:9055, V-B:LYS:547:CD:9918, V-B:GLY:544:C:9881, V-B:LYS:547:CE:9919, V-B:GLU:543:CB:9875, V-B:GLU:543:CD:9877, V-B:HIS:456:CB:9033, V-A:GLU:543:C:4899, V-B:HIS:456:CE1:9038, V-B:GLU:543:CG:9876, V-A:GLY:544:C:4909, V-A:GLU:543:CD:4905, V-B:LEU:363:CA:8153, V-A:GLU:543:CG:4904, V-A:HIS:456:CD2:4064, V-B:LEU:363:CD1:8157, V-B:HIS:456:C:9029, V-B:LYS:471:CE:9188, V-B:HIS:456:CG:9034, H-B:LYS:547:NZ:9920, V-A:GLY:544:CA:4911, V-A:ARG:545:CA:4916"]

$$$$
RR21_Rahimova_2017
     RDKit          3D

 40 45  0  0  0  0  0  0  0  0999 V2000
  133.2800  123.3100   61.8420 C   0  0  0  0  0  0  0  0  0  0  0  0
  132.8060  122.8080   63.0890 O   0  0  0  0  0  0  0  0  0  0  0  0
  132.1040  123.6490   63.9320 C   0  0  0  0  0  0  0  0  0  0  0  0
  132.5430  124.9250   64.3210 C   0  0  0  0  0  0  0  0  0  0  0  0
  131.7710  125.7120   65.1750 C   0  0  0  0  0  0  0  0  0  0  0  0
  130.5410  125.2480   65.6570 C   0  0  0  0  0  0  0  0  0  0  0  0
  129.7110  126.0980   66.5690 C   0  0  0  0  0  0  0  0  0  0  0  0
  129.8420  125.9780   67.8760 N   0  0  0  0  0  0  0  0  0  0  0  0
  128.9870  126.8510   68.4300 N   0  0  0  0  0  0  0  0  0  0  0  0
  128.8860  126.9970   69.8380 C   0  0  0  0  0  0  0  0  0  0  0  0
  127.8830  126.3290   70.5580 C   0  0  0  0  0  0  0  0  0  0  0  0
  127.7970  126.4760   71.9400 C   0  0  0  0  0  0  0  0  0  0  0  0
  128.7100  127.2900   72.6060 C   0  0  0  0  0  0  0  0  0  0  0  0
  129.7080  127.9610   71.9030 C   0  0  0  0  0  0  0  0  0  0  0  0
  129.7960  127.8160   70.5210 C   0  0  0  0  0  0  0  0  0  0  0  0
  128.3180  127.5450   67.4530 C   0  0  0  0  0  0  0  0  0  0  0  0
  128.7500  127.0750   66.2220 C   0  0  0  0  0  0  0  0  0  0  0  0
  128.3610  127.5350   64.8980 C   0  0  0  0  0  0  0  0  0  0  0  0
  127.5260  128.5500   64.5750 C   0  0  0  0  0  0  0  0  0  0  0  0
  126.6390  129.6260   65.6780 S   0  0  0  0  0  0  0  0  0  0  0  0
  125.9790  130.4800   64.2910 C   0  0  0  0  0  0  0  0  0  0  0  0
  125.1800  131.5020   64.2920 N   0  0  0  0  0  0  0  0  0  0  0  0
  124.7260  132.1110   63.0890 C   0  0  0  0  0  0  0  0  0  0  0  0
  123.9880  133.0920   63.0050 O   0  0  0  0  0  0  0  0  0  0  0  0
  125.2420  131.4490   61.8410 C   0  0  0  0  0  0  0  0  0  0  0  0
  124.8030  132.0070   60.4810 C   0  0  0  0  0  0  0  0  0  0  0  0
  125.8690  131.9180   59.3910 C   0  0  0  0  0  0  0  0  0  0  0  0
  125.6040  131.2240   58.2070 C   0  0  0  0  0  0  0  0  0  0  0  0
  126.5700  131.1580   57.2060 C   0  0  0  0  0  0  0  0  0  0  0  0
  127.8030  131.7880   57.3850 C   0  0  0  0  0  0  0  0  0  0  0  0
  128.8480  131.7230   56.2860 C   0  0  0  0  0  0  0  0  0  0  0  0
  128.0660  132.4920   58.5620 C   0  0  0  0  0  0  0  0  0  0  0  0
  127.1000  132.5580   59.5630 C   0  0  0  0  0  0  0  0  0  0  0  0
  126.0330  130.4260   61.8550 N   0  0  0  0  0  0  0  0  0  0  0  0
  126.4120  129.9340   63.1110 N   0  0  0  0  0  0  0  0  0  0  0  0
  127.2540  128.8750   63.1820 C   0  0  0  0  0  0  0  0  0  0  0  0
  127.7240  128.2810   62.2040 O   0  0  0  0  0  0  0  0  0  0  0  0
  130.1060  123.9760   65.2740 C   0  0  0  0  0  0  0  0  0  0  0  0
  130.8770  123.1860   64.4210 C   0  0  0  0  0  0  0  0  0  0  0  0
  130.4270  121.9590   64.0690 F   0  0  0  0  0  0  0  0  0  0  0  0
  1  2  1  0
  2  3  1  0
  3  4  2  0
  4  5  1  0
  5  6  2  0
  6  7  1  0
  7  8  2  0
  8  9  1  0
  9 10  1  0
 10 11  2  0
 11 12  1  0
 12 13  2  0
 13 14  1  0
 14 15  2  0
  9 16  1  0
 16 17  2  0
 17 18  1  0
 18 19  2  0
 19 20  1  0
 20 21  1  0
 21 22  2  0
 22 23  1  0
 23 24  2  0
 23 25  1  0
 25 26  1  0
 26 27  1  0
 27 28  2  0
 28 29  1  0
 29 30  2  0
 30 31  1  0
 30 32  1  0
 32 33  2  0
 25 34  2  0
 34 35  1  0
 35 36  1  0
 36 37  2  0
  6 38  1  0
 38 39  2  0
 39 40  1  0
 39  3  1  0
 17  7  1  0
 36 19  1  0
 15 10  1  0
 35 21  1  0
 33 27  1  0
M  END
>  <Binding energies>  (46) 
[-9.77]

>  <Ligand effiencies>  (46) 
[-0.24425]

>  <Interactions>  (46) 
["V-A:HIS:456:CE1:4066, V-A:ARG:545:CZ:4923, V-B:ALA:541:CB:9861, H-A:GLY:454:N:4046, V-A:TYR:484:CE1:4341, V-B:HIS:456:CD2:9036, V-B:GLY:544:C:9881, V-B:LYS:547:CE:9919, V-B:GLU:543:CB:9875, V-B:GLU:543:CD:9877, V-B:HIS:456:CE1:9038, V-A:TYR:484:CZ:4343, V-B:GLU:543:CG:9876, V-A:GLU:543:CD:4905, V-A:LEU:475:CD1:4254, H-B:GLY:454:N:9018, H-B:TYR:484:OH:9316, V-A:LEU:475:CD2:4255, V-A:TYR:539:C:4864, V-A:TYR:539:CE2:4873, V-A:TYR:539:CD2:4871, V-B:GLY:454:CA:9017, V-A:LEU:475:CG:4253, V-A:TYR:539:CZ:4874, V-B:ILE:369:CG2:8205"]

$$$$
RR23_Rahimova_2017
     RDKit          3D

 39 44  0  0  0  0  0  0  0  0999 V2000
  133.9900  129.8690   57.9540 C   0  0  0  0  0  0  0  0  0  0  0  0
  132.6310  130.5200   57.7700 C   0  0  0  0  0  0  0  0  0  0  0  0
  132.5100  131.6770   57.0000 C   0  0  0  0  0  0  0  0  0  0  0  0
  131.2610  132.2680   56.8250 C   0  0  0  0  0  0  0  0  0  0  0  0
  130.1260  131.7130   57.4270 C   0  0  0  0  0  0  0  0  0  0  0  0
  128.7760  132.3580   57.2070 C   0  0  0  0  0  0  0  0  0  0  0  0
  128.6880  133.2110   56.3210 O   0  0  0  0  0  0  0  0  0  0  0  0
  127.7150  131.9700   57.9750 N   0  0  0  0  0  0  0  0  0  0  0  0
  126.5820  131.2250   57.4030 C   0  0  0  0  0  0  0  0  0  0  0  0
  125.6850  130.8480   58.5700 C   0  0  0  0  0  0  0  0  0  0  0  0
  126.5680  131.0810   59.7580 C   0  0  0  0  0  0  0  0  0  0  0  0
  126.3150  130.8220   61.1060 C   0  0  0  0  0  0  0  0  0  0  0  0
  127.2100  131.2620   62.0930 C   0  0  0  0  0  0  0  0  0  0  0  0
  126.9690  130.9980   63.5870 C   0  0  2  0  0  0  0  0  0  0  0  0
  127.7750  129.9030   64.0850 N   0  0  0  0  0  0  0  0  0  0  0  0
  127.1850  129.2650   65.0140 C   0  0  0  0  0  0  0  0  0  0  0  0
  127.6260  128.1710   65.6920 N   0  0  0  0  0  0  0  0  0  0  0  0
  128.7260  127.4180   65.4500 C   0  0  0  0  0  0  0  0  0  0  0  0
  129.5610  127.6320   64.5680 O   0  0  0  0  0  0  0  0  0  0  0  0
  128.9120  126.2010   66.3710 C   0  0  0  0  0  0  0  0  0  0  0  0
  129.1020  126.6700   67.7620 N   0  0  0  0  0  0  0  0  0  0  0  0
  130.3290  127.2660   68.0270 N   0  0  0  0  0  0  0  0  0  0  0  0
  130.6200  127.7180   69.2050 N   0  0  0  0  0  0  0  0  0  0  0  0
  129.6880  127.6110   70.2400 C   0  0  0  0  0  0  0  0  0  0  0  0
  130.0340  128.1060   71.4990 C   0  0  0  0  0  0  0  0  0  0  0  0
  129.1240  128.0130   72.5540 C   0  0  0  0  0  0  0  0  0  0  0  0
  127.8730  127.4270   72.3520 C   0  0  0  0  0  0  0  0  0  0  0  0
  127.5250  126.9300   71.0940 C   0  0  0  0  0  0  0  0  0  0  0  0
  128.4370  127.0250   70.0370 C   0  0  0  0  0  0  0  0  0  0  0  0
  128.0810  126.4910   68.6690 C   0  0  0  0  0  0  0  0  0  0  0  0
  127.0050  125.9480   68.4030 O   0  0  0  0  0  0  0  0  0  0  0  0
  125.5660  129.8490   65.4970 S   0  0  0  0  0  0  0  0  0  0  0  0
  125.4840  130.7970   63.9670 C   0  0  2  0  0  0  0  0  0  0  0  0
  124.6050  130.0380   62.9520 C   0  0  0  0  0  0  0  0  0  0  0  0
  128.3310  132.0040   61.7050 C   0  0  0  0  0  0  0  0  0  0  0  0
  128.5740  132.2810   60.3590 C   0  0  0  0  0  0  0  0  0  0  0  0
  127.7190  131.7700   59.3740 C   0  0  0  0  0  0  0  0  0  0  0  0
  130.2520  130.5350   58.1760 C   0  0  0  0  0  0  0  0  0  0  0  0
  131.5000  129.9440   58.3500 C   0  0  0  0  0  0  0  0  0  0  0  0
  1  2  1  0
  2  3  2  0
  3  4  1  0
  4  5  2  0
  5  6  1  0
  6  7  2  0
  6  8  1  0
  8  9  1  0
  9 10  1  0
 10 11  1  0
 11 12  2  0
 12 13  1  0
 14 13  1  6
 14 15  1  0
 15 16  2  0
 16 17  1  0
 17 18  1  0
 18 19  2  0
 18 20  1  0
 20 21  1  0
 21 22  1  0
 22 23  2  0
 23 24  1  0
 24 25  2  0
 25 26  1  0
 26 27  2  0
 27 28  1  0
 28 29  2  0
 29 30  1  0
 30 31  2  0
 16 32  1  0
 32 33  1  0
 33 34  1  6
 13 35  2  0
 35 36  1  0
 36 37  2  0
  5 38  1  0
 38 39  2  0
 39  2  1  0
 37  8  1  0
 37 11  1  0
 33 14  1  0
 30 21  1  0
 29 24  1  0
M  END
>  <Binding energies>  (47) 
[-10.38]

>  <Ligand effiencies>  (47) 
[-0.2595]

>  <Interactions>  (47) 
["V-A:ASP:366:CG:3209, V-B:HIS:456:CD2:9036, V-A:LYS:547:CE:4947, V-B:GLY:544:C:9881, V-B:LYS:547:CE:9919, V-B:GLU:543:CB:9875, V-B:GLU:543:CD:9877, V-B:HIS:456:CE1:9038, V-B:GLU:543:CG:9876, V-A:GLU:543:CD:4905, V-B:ARG:545:CZ:9895, H-B:TYR:484:OH:9316, V-A:ASP:366:CB:3208, H-B:GLU:543:OE1:9878, V-B:HIS:456:CG:9034, V-A:PRO:540:N:4881, V-A:LEU:363:CB:3183, V-B:ASP:366:CG:8181, V-A:ASN:362:C:3168, V-A:PRO:540:CA:4880, V-A:PRO:540:CB:4882, V-A:LEU:363:CD1:3185, V-A:TYR:539:C:4864, V-A:ALA:541:CB:4889, V-A:LEU:363:CA:3181, V-A:TYR:539:CE2:4873, V-A:TYR:539:CD2:4871, V-A:PRO:540:CD:4884, V-A:TYR:539:CZ:4874, H-A:TYR:539:N:4867, V-A:LEU:363:C:3179"]

$$$$
RR26_Rahimova_2017
     RDKit          3D

 38 44  0  0  0  0  0  0  0  0999 V2000
  131.0540  128.0060   69.6750 C   0  0  0  0  0  0  0  0  0  0  0  0
  129.7280  127.5520   70.2720 C   0  0  0  0  0  0  0  0  0  0  0  0
  129.4020  127.9800   71.5640 C   0  0  0  0  0  0  0  0  0  0  0  0
  128.1850  127.6280   72.1430 C   0  0  0  0  0  0  0  0  0  0  0  0
  127.2770  126.8490   71.4320 C   0  0  0  0  0  0  0  0  0  0  0  0
  127.5910  126.4180   70.1450 C   0  0  0  0  0  0  0  0  0  0  0  0
  128.8150  126.7540   69.5480 C   0  0  0  0  0  0  0  0  0  0  0  0
  129.0800  126.2350   68.1640 C   0  0  0  0  0  0  0  0  0  0  0  0
  129.5980  125.0300   67.9430 N   0  0  0  0  0  0  0  0  0  0  0  0
  129.6430  124.9900   66.6390 C   0  0  0  0  0  0  0  0  0  0  0  0
  130.1620  123.8500   65.4530 S   0  0  0  0  0  0  0  0  0  0  0  0
  129.6810  125.0100   64.1590 C   0  0  0  0  0  0  0  0  0  0  0  0
  129.7850  124.8480   62.8220 C   0  0  0  0  0  0  0  0  0  0  0  0
  130.3010  123.6990   62.0960 C   0  0  0  0  0  0  0  0  0  0  0  0
  131.5080  123.0420   62.2790 C   0  0  0  0  0  0  0  0  0  0  0  0
  131.5540  121.9900   61.3990 N   0  0  0  0  0  0  0  0  0  0  0  0
  132.5890  121.0350   61.2260 C   0  0  0  0  0  0  0  0  0  0  0  0
  133.9370  121.4090   61.3300 C   0  0  0  0  0  0  0  0  0  0  0  0
  134.9420  120.4620   61.1550 C   0  0  0  0  0  0  0  0  0  0  0  0
  134.6050  119.1400   60.8800 C   0  0  0  0  0  0  0  0  0  0  0  0
  133.2700  118.7540   60.7770 C   0  0  0  0  0  0  0  0  0  0  0  0
  132.2630  119.6990   60.9490 C   0  0  0  0  0  0  0  0  0  0  0  0
  130.4200  121.9310   60.6850 N   0  0  0  0  0  0  0  0  0  0  0  0
  129.6710  122.9410   61.0830 C   0  0  0  0  0  0  0  0  0  0  0  0
  128.3260  123.1610   60.4630 C   0  0  0  0  0  0  0  0  0  0  0  0
  128.2080  123.3870   59.0830 C   0  0  0  0  0  0  0  0  0  0  0  0
  126.9590  123.5970   58.4960 C   0  0  0  0  0  0  0  0  0  0  0  0
  125.8140  123.5850   59.2890 C   0  0  0  0  0  0  0  0  0  0  0  0
  125.9160  123.3420   60.6670 C   0  0  0  0  0  0  0  0  0  0  0  0
  127.1650  123.1390   61.2510 C   0  0  0  0  0  0  0  0  0  0  0  0
  124.8130  123.3650   61.4980 O   0  0  0  0  0  0  0  0  0  0  0  0
  123.5640  123.2100   60.8170 C   0  0  0  0  0  0  0  0  0  0  0  0
  123.5240  124.0940   59.5470 C   0  0  0  0  0  0  0  0  0  0  0  0
  124.5950  123.7490   58.6610 O   0  0  0  0  0  0  0  0  0  0  0  0
  129.1370  126.2520   64.7020 C   0  0  0  0  0  0  0  0  0  0  0  0
  128.7220  127.2460   64.1030 O   0  0  0  0  0  0  0  0  0  0  0  0
  129.1630  126.1250   66.0990 N   0  0  0  0  0  0  0  0  0  0  0  0
  128.7870  126.9450   67.0850 N   0  0  0  0  0  0  0  0  0  0  0  0
  1  2  1  0
  2  3  2  0
  3  4  1  0
  4  5  2  0
  5  6  1  0
  6  7  2  0
  7  8  1  0
  8  9  1  0
  9 10  2  0
 10 11  1  0
 11 12  1  0
 12 13  2  0
 13 14  1  0
 14 15  2  0
 15 16  1  0
 16 17  1  0
 17 18  2  0
 18 19  1  0
 19 20  2  0
 20 21  1  0
 21 22  2  0
 16 23  1  0
 23 24  2  0
 24 25  1  0
 25 26  2  0
 26 27  1  0
 27 28  2  0
 28 29  1  0
 29 30  2  0
 29 31  1  0
 31 32  1  0
 32 33  1  0
 33 34  1  0
 12 35  1  0
 35 36  2  0
 35 37  1  0
 37 38  1  0
  7  2  1  0
 38  8  2  0
 37 10  1  0
 24 14  1  0
 30 25  1  0
 22 17  1  0
 34 28  1  0
M  END
>  <Binding energies>  (48) 
[-9.08]

>  <Ligand effiencies>  (48) 
[-0.23894736842105263]

>  <Interactions>  (48) 
["V-B:PRO:540:C:9850, H-B:ALA:541:N:9860, V-B:TYR:539:CE2:9845, V-B:ASN:362:CA:8142, V-A:HIS:456:CE1:4066, V-B:ASN:362:CB:8144, V-B:PRO:540:CA:9852, V-B:ALA:541:CB:9861, V-B:ASN:362:C:8140, H-A:TYR:484:OH:4344, V-A:GLY:454:CA:4045, V-B:PRO:540:CB:9854, V-B:TYR:539:CD2:9843, V-A:TYR:484:CE1:4341, V-B:HIS:456:CD2:9036, V-B:GLY:544:C:9881, V-B:LYS:547:CE:9919, V-B:GLU:543:CB:9875, V-B:GLU:543:CD:9877, V-A:GLU:543:C:4899, V-B:HIS:456:CE1:9038, V-A:TYR:484:CZ:4343, V-B:GLU:543:CG:9876, V-A:GLY:544:C:4909, V-A:ILE:369:CB:3232, V-B:LEU:363:CA:8153, V-A:LEU:475:CD1:4254, V-A:ILE:369:CG2:3233, V-A:ILE:369:CG1:3234, V-A:HIS:456:CD2:4064, V-B:GLU:543:C:9871, V-B:LEU:363:CD1:8157, V-B:HIS:456:CG:9034, V-B:LEU:363:CB:8155, V-B:ALA:541:CA:9859, V-A:SER:385:C:3401, V-A:SER:385:CA:3403, V-A:ILE:369:CD1:3235, V-A:TRP:381:CH2:3368, V-A:TRP:381:CZ2:3366"]

$$$$
RR2_Rahimova_2017
     RDKit          3D

 46 50  0  0  0  0  0  0  0  0999 V2000
  124.5480  130.9170   62.2970 C   0  0  0  0  0  0  0  0  0  0  0  0
  125.2260  130.3350   63.4040 O   0  0  0  0  0  0  0  0  0  0  0  0
  126.3760  129.6000   63.1810 C   0  0  0  0  0  0  0  0  0  0  0  0
  127.0400  128.8520   64.1630 C   0  0  0  0  0  0  0  0  0  0  0  0
  128.1970  128.1450   63.8450 C   0  0  0  0  0  0  0  0  0  0  0  0
  128.7170  128.1710   62.5440 C   0  0  0  0  0  0  0  0  0  0  0  0
  129.9820  127.3980   62.2260 C   0  0  0  0  0  0  0  0  0  0  0  0
  130.8960  127.3290   63.0550 O   0  0  0  0  0  0  0  0  0  0  0  0
  130.0310  126.8250   61.0000 N   0  0  0  0  0  0  0  0  0  0  0  0
  131.2060  126.1830   60.6220 N   0  0  0  0  0  0  0  0  0  0  0  0
  131.1510  125.3010   59.6040 C   0  0  0  0  0  0  0  0  0  0  0  0
  130.1100  124.8800   59.0910 O   0  0  0  0  0  0  0  0  0  0  0  0
  132.5080  124.8330   59.0610 C   0  0  0  0  0  0  0  0  0  0  0  0
  133.2610  123.4310   59.9650 S   0  0  0  0  0  0  0  0  0  0  0  0
  133.0620  123.9750   61.6350 C   0  0  0  0  0  0  0  0  0  0  0  0
  134.0600  124.3850   62.3760 N   0  0  0  0  0  0  0  0  0  0  0  0
  133.5560  124.6630   63.6380 N   0  0  0  0  0  0  0  0  0  0  0  0
  132.2640  124.4380   63.6050 C   0  0  0  0  0  0  0  0  0  0  0  0
  131.3630  124.6430   64.7800 C   0  0  0  0  0  0  0  0  0  0  0  0
  131.4970  125.7910   65.5660 C   0  0  0  0  0  0  0  0  0  0  0  0
  130.6680  125.9860   66.6670 C   0  0  0  0  0  0  0  0  0  0  0  0
  129.6850  125.0420   66.9830 C   0  0  0  0  0  0  0  0  0  0  0  0
  128.8300  125.1810   68.0860 N   0  0  0  0  0  0  0  0  0  0  0  0
  128.0400  126.6990   68.5690 S   0  0  0  0  0  0  0  0  0  0  0  0
  126.6000  126.4760   68.4020 O   0  0  0  0  0  0  0  0  0  0  0  0
  128.7160  127.8040   67.8780 O   0  0  0  0  0  0  0  0  0  0  0  0
  128.3390  126.8430   70.3290 C   0  0  0  0  0  0  0  0  0  0  0  0
  129.6420  126.8810   70.8290 C   0  0  0  0  0  0  0  0  0  0  0  0
  129.8530  126.9770   72.2020 C   0  0  0  0  0  0  0  0  0  0  0  0
  128.7620  127.0420   73.0730 C   0  0  0  0  0  0  0  0  0  0  0  0
  128.9940  127.1320   74.5700 C   0  0  0  0  0  0  0  0  0  0  0  0
  127.4600  127.0000   72.5700 C   0  0  0  0  0  0  0  0  0  0  0  0
  127.2480  126.9020   71.1980 C   0  0  0  0  0  0  0  0  0  0  0  0
  129.5510  123.8980   66.1960 C   0  0  0  0  0  0  0  0  0  0  0  0
  130.3840  123.6980   65.0990 C   0  0  0  0  0  0  0  0  0  0  0  0
  131.8790  123.9910   62.3520 N   0  0  0  0  0  0  0  0  0  0  0  0
  130.5970  123.5990   61.9160 C   0  0  0  0  0  0  0  0  0  0  0  0
  130.4480  122.4600   61.1230 C   0  0  0  0  0  0  0  0  0  0  0  0
  129.1790  122.0760   60.7010 C   0  0  0  0  0  0  0  0  0  0  0  0
  128.0540  122.8190   61.0610 C   0  0  0  0  0  0  0  0  0  0  0  0
  126.8380  122.3600   60.5930 O   0  0  0  0  0  0  0  0  0  0  0  0
  125.7750  123.2870   60.3950 C   0  0  0  0  0  0  0  0  0  0  0  0
  128.2130  123.9640   61.8590 C   0  0  0  0  0  0  0  0  0  0  0  0
  129.4800  124.3520   62.2860 C   0  0  0  0  0  0  0  0  0  0  0  0
  128.0430  128.9180   61.5650 C   0  0  0  0  0  0  0  0  0  0  0  0
  126.8860  129.6230   61.8850 C   0  0  0  0  0  0  0  0  0  0  0  0
  1  2  1  0
  2  3  1  0
  3  4  2  0
  4  5  1  0
  5  6  2  0
  6  7  1  0
  7  8  2  0
  7  9  1  0
  9 10  1  0
 10 11  1  0
 11 12  2  0
 11 13  1  0
 13 14  1  0
 14 15  1  0
 15 16  2  0
 16 17  1  0
 17 18  2  0
 18 19  1  0
 19 20  2  0
 20 21  1  0
 21 22  2  0
 22 23  1  0
 23 24  1  0
 24 25  2  0
 24 26  2  0
 24 27  1  0
 27 28  2  0
 28 29  1  0
 29 30  2  0
 30 31  1  0
 30 32  1  0
 32 33  2  0
 22 34  1  0
 34 35  2  0
 18 36  1  0
 36 37  1  0
 37 38  2  0
 38 39  1  0
 39 40  2  0
 40 41  1  0
 41 42  1  0
 40 43  1  0
 43 44  2  0
  6 45  1  0
 45 46  2  0
 46  3  1  0
 36 15  1  0
 44 37  1  0
 35 19  1  0
 33 27  1  0
M  END
>  <Binding energies>  (49) 
[-9.26]

>  <Ligand effiencies>  (49) 
[-0.18897959183673468]

>  <Interactions>  (49) 
["V-B:PRO:540:C:9850, H-B:ALA:541:N:9860, V-B:TYR:539:CE2:9845, V-A:HIS:456:CE1:4066, V-B:TYR:539:CZ:9846, V-B:PRO:540:CA:9852, V-B:ALA:541:CB:9861, H-A:GLY:454:N:4046, V-B:PRO:540:CB:9854, V-B:TYR:539:CD2:9843, V-A:ASP:366:CG:3209, V-A:TYR:484:CE1:4341, V-B:HIS:456:CD2:9036, V-A:LYS:547:CE:4947, V-B:GLY:544:C:9881, V-B:LYS:547:CE:9919, V-B:GLU:543:CB:9875, V-B:GLU:543:CD:9877, V-B:HIS:456:CE1:9038, V-A:TYR:484:CZ:4343, V-B:GLU:543:CG:9876, V-A:GLU:543:CD:4905, H-A:ARG:545:NH2:4925, H-A:ASP:366:OD2:3211, H-A:ASP:366:OD1:3210, H-B:TYR:539:OH:9847, V-A:ASP:366:CB:3208, V-A:HIS:456:CD2:4064, V-B:GLU:543:C:9871, V-B:HIS:456:CG:9034, V-B:ASP:366:CG:8181, V-B:GLU:543:CA:9873, V-A:ASP:366:CA:3206, H-A:HIS:456:NE2:4067, H-B:ARG:545:N:9889, H-B:GLU:543:O:9872"]

$$$$
RR33_Rahimova_2017
     RDKit          3D

 18 19  0  0  0  0  0  0  0  0999 V2000
  134.7850  124.9970   66.0400 C   0  0  0  0  0  0  0  0  0  0  0  0
  133.4790  125.0550   65.2410 C   0  0  0  0  0  0  0  0  0  0  0  0
  133.6040  124.2110   64.0990 O   0  0  0  0  0  0  0  0  0  0  0  0
  132.4830  123.9210   63.3450 C   0  0  0  0  0  0  0  0  0  0  0  0
  132.4570  124.4290   62.0470 C   0  0  0  0  0  0  0  0  0  0  0  0
  131.3670  124.1910   61.2140 C   0  0  0  0  0  0  0  0  0  0  0  0
  130.2820  123.4370   61.6700 C   0  0  0  0  0  0  0  0  0  0  0  0
  129.1120  123.1820   60.7750 C   0  0  0  0  0  0  0  0  0  0  0  0
  127.8410  123.3930   61.0370 N   0  0  0  0  0  0  0  0  0  0  0  0
  127.1930  123.0180   59.9450 C   0  0  0  0  0  0  0  0  0  0  0  0
  125.6850  123.1260   59.8600 C   0  0  0  0  0  0  0  0  0  0  0  0
  125.0960  123.1430   61.1900 N   0  0  0  0  0  0  0  0  0  0  0  0
  123.9110  123.9850   61.2160 C   0  0  0  0  0  0  0  0  0  0  0  0
  128.1000  122.5660   58.9950 C   0  0  0  0  0  0  0  0  0  0  0  0
  128.0030  122.0250   57.5900 C   0  0  0  0  0  0  0  0  0  0  0  0
  129.3360  122.6730   59.5360 O   0  0  0  0  0  0  0  0  0  0  0  0
  130.3050  122.9210   62.9700 C   0  0  0  0  0  0  0  0  0  0  0  0
  131.3960  123.1600   63.8040 C   0  0  0  0  0  0  0  0  0  0  0  0
  1  2  1  0
  2  3  1  0
  3  4  1  0
  4  5  2  0
  5  6  1  0
  6  7  2  0
  7  8  1  0
  8  9  2  0
  9 10  1  0
 10 11  1  0
 11 12  1  0
 12 13  1  0
 10 14  2  0
 14 15  1  0
 14 16  1  0
  7 17  1  0
 17 18  2  0
 18  4  1  0
 16  8  1  0
M  END
>  <Binding energies>  (50) 
[-5.88]

>  <Ligand effiencies>  (50) 
[-0.3094736842105263]

>  <Interactions>  (50) 
["V-B:PRO:540:C:9850, H-B:ALA:541:N:9860, V-B:TYR:539:CE2:9845, V-B:ASN:362:CA:8142, V-A:GLY:454:C:4043, V-B:TYR:539:CA:9838, V-A:HIS:456:CE1:4066, V-B:TYR:539:CG:9841, V-B:TYR:539:CD1:9842, V-B:TYR:539:CZ:9846, V-B:ASN:362:CB:8144, V-A:GLY:453:C:4038, V-B:PRO:540:CA:9852, V-A:ARG:545:CG:4919, V-A:ARG:545:CZ:4923, V-B:TYR:539:CE1:9844, V-A:ARG:545:CD:4920, V-A:GLY:453:CA:4040, V-B:ALA:541:CB:9861, H-A:GLY:454:N:4046, V-B:TYR:539:C:9836, V-B:ASN:362:C:8140, H-A:TYR:484:OH:4344, V-A:GLY:454:CA:4045, V-B:PRO:540:N:9853, V-B:PRO:540:CB:9854, V-B:TYR:539:CD2:9843, V-A:ASP:366:CG:3209, H-B:GLU:543:OE2:9879"]

$$$$
RR3_Rahimova_2017
     RDKit          3D

 38 44  0  0  0  0  0  0  0  0999 V2000
  123.9800  132.7340   62.8660 C   0  0  0  0  0  0  0  0  0  0  0  0
  123.8770  131.4970   62.2380 C   0  0  0  0  0  0  0  0  0  0  0  0
  124.7980  130.4960   62.5310 C   0  0  0  0  0  0  0  0  0  0  0  0
  125.8320  130.7160   63.4530 C   0  0  0  0  0  0  0  0  0  0  0  0
  126.8220  129.6370   63.7680 C   0  0  0  0  0  0  0  0  0  0  0  0
  127.3110  128.7930   62.7620 C   0  0  0  0  0  0  0  0  0  0  0  0
  128.2290  127.7880   63.0560 C   0  0  0  0  0  0  0  0  0  0  0  0
  128.6730  127.5990   64.3670 C   0  0  0  0  0  0  0  0  0  0  0  0
  129.6550  126.5180   64.6910 C   0  0  0  0  0  0  0  0  0  0  0  0
  130.2160  125.8150   63.7130 N   0  0  0  0  0  0  0  0  0  0  0  0
  131.0530  124.9820   64.2820 C   0  0  0  0  0  0  0  0  0  0  0  0
  131.8890  124.0150   63.5760 C   0  0  0  0  0  0  0  0  0  0  0  0
  132.4430  122.8700   64.1240 C   0  0  0  0  0  0  0  0  0  0  0  0
  133.1610  122.1910   63.1750 N   0  0  0  0  0  0  0  0  0  0  0  0
  133.1070  122.8650   61.9750 C   0  0  0  0  0  0  0  0  0  0  0  0
  133.6780  122.5670   60.7330 C   0  0  0  0  0  0  0  0  0  0  0  0
  133.4360  123.4630   59.6930 C   0  0  0  0  0  0  0  0  0  0  0  0
  132.6640  124.6060   59.8740 C   0  0  0  0  0  0  0  0  0  0  0  0
  132.0950  124.9040   61.1110 C   0  0  0  0  0  0  0  0  0  0  0  0
  132.3080  124.0320   62.1940 C   0  0  0  0  0  0  0  0  0  0  0  0
  131.0410  125.1300   65.6420 N   0  0  0  0  0  0  0  0  0  0  0  0
  130.1260  126.1040   65.9490 C   0  0  0  0  0  0  0  0  0  0  0  0
  129.7990  126.4950   67.3520 C   0  0  0  0  0  0  0  0  0  0  0  0
  128.8790  125.7490   68.0910 C   0  0  0  0  0  0  0  0  0  0  0  0
  128.5620  126.1180   69.3940 C   0  0  0  0  0  0  0  0  0  0  0  0
  129.1580  127.2380   69.9910 C   0  0  0  0  0  0  0  0  0  0  0  0
  128.8000  127.6440   71.3860 C   0  0  0  0  0  0  0  0  0  0  0  0
  129.4200  128.7440   71.9980 C   0  0  0  0  0  0  0  0  0  0  0  0
  129.0830  129.1240   73.2950 C   0  0  0  0  0  0  0  0  0  0  0  0
  128.1190  128.4060   73.9950 C   0  0  0  0  0  0  0  0  0  0  0  0
  127.4910  127.3130   73.4080 C   0  0  0  0  0  0  0  0  0  0  0  0
  127.8310  126.9350   72.1120 C   0  0  0  0  0  0  0  0  0  0  0  0
  130.0930  127.9690   69.2450 C   0  0  0  0  0  0  0  0  0  0  0  0
  130.4130  127.6030   67.9410 C   0  0  0  0  0  0  0  0  0  0  0  0
  128.2010  128.4440   65.3740 C   0  0  0  0  0  0  0  0  0  0  0  0
  127.2830  129.4480   65.0780 C   0  0  0  0  0  0  0  0  0  0  0  0
  125.9170  131.9710   64.0740 C   0  0  0  0  0  0  0  0  0  0  0  0
  124.9970  132.9750   63.7840 C   0  0  0  0  0  0  0  0  0  0  0  0
  1  2  2  0
  2  3  1  0
  3  4  2  0
  4  5  1  0
  5  6  2  0
  6  7  1  0
  7  8  2  0
  8  9  1  0
  9 10  1  0
 10 11  2  0
 11 12  1  0
 12 13  2  0
 13 14  1  0
 14 15  1  0
 15 16  2  0
 16 17  1  0
 17 18  2  0
 18 19  1  0
 19 20  2  0
 11 21  1  0
 21 22  1  0
 22 23  1  0
 23 24  2  0
 24 25  1  0
 25 26  2  0
 26 27  1  0
 27 28  2  0
 28 29  1  0
 29 30  2  0
 30 31  1  0
 31 32  2  0
 26 33  1  0
 33 34  2  0
  8 35  1  0
 35 36  2  0
  4 37  1  0
 37 38  2  0
 38  1  1  0
 36  5  1  0
 22  9  2  0
 34 23  1  0
 20 12  1  0
 32 27  1  0
 20 15  1  0
M  END
>  <Binding energies>  (51) 
[-10.17]

>  <Ligand effiencies>  (51) 
[-0.25425]

>  <Interactions>  (51) 
["V-B:TYR:539:CE2:9845, V-A:HIS:456:CE1:4066, V-B:TYR:539:CZ:9846, H-A:TYR:484:OH:4344, V-A:GLY:454:CA:4045, V-A:ASP:366:CG:3209, V-B:HIS:456:CD2:9036, V-A:GLU:543:CB:4903, V-A:LYS:547:CE:4947, V-B:LYS:547:CD:9918, V-B:LYS:547:CE:9919, V-B:GLU:543:CB:9875, V-B:GLU:543:CD:9877, V-A:GLU:543:C:4899, V-B:HIS:456:CE1:9038, V-A:TYR:484:CZ:4343, V-A:GLU:543:CD:4905, V-A:ILE:369:CB:3232, V-A:LEU:475:CD1:4254, V-A:ILE:369:CG2:3233, V-A:ILE:369:CG1:3234, V-A:GLU:543:CG:4904, V-A:ASP:366:CB:3208, V-B:GLU:543:C:9871, V-B:ASP:366:CG:8181, V-B:GLY:454:CA:9017, V-B:LEU:475:CD2:9227, V-A:ASP:366:CA:3206, H-A:HIS:456:NE2:4067, V-B:ILE:369:CD1:8207"]

$$$$
RR4_Rahimova_2017
     RDKit          3D

 40 44  0  0  0  0  0  0  0  0999 V2000
  128.7380  127.2600   74.0300 C   0  0  0  0  0  0  0  0  0  0  0  0
  129.8280  127.2390   73.1150 O   0  0  0  0  0  0  0  0  0  0  0  0
  129.5680  127.1920   71.7590 C   0  0  0  0  0  0  0  0  0  0  0  0
  130.4260  127.9150   70.9330 C   0  0  0  0  0  0  0  0  0  0  0  0
  130.2420  127.9250   69.5530 C   0  0  0  0  0  0  0  0  0  0  0  0
  129.1900  127.2130   68.9580 C   0  0  0  0  0  0  0  0  0  0  0  0
  128.9940  127.2270   67.4690 C   0  0  0  0  0  0  0  0  0  0  0  0
  128.0500  128.0440   66.8370 C   0  0  0  0  0  0  0  0  0  0  0  0
  127.9080  128.0240   65.4430 C   0  0  0  0  0  0  0  0  0  0  0  0
  126.8990  128.9450   64.8370 C   0  0  0  0  0  0  0  0  0  0  0  0
  125.5900  128.9720   65.3260 C   0  0  0  0  0  0  0  0  0  0  0  0
  124.6470  129.8350   64.7740 C   0  0  0  0  0  0  0  0  0  0  0  0
  124.9950  130.6900   63.7290 C   0  0  0  0  0  0  0  0  0  0  0  0
  123.9940  131.5110   63.2460 O   0  0  0  0  0  0  0  0  0  0  0  0
  123.8650  131.6940   61.8400 C   0  0  0  0  0  0  0  0  0  0  0  0
  126.3090  130.6700   63.2390 C   0  0  0  0  0  0  0  0  0  0  0  0
  127.2510  129.8060   63.7930 C   0  0  0  0  0  0  0  0  0  0  0  0
  128.7200  127.1380   64.6950 C   0  0  0  0  0  0  0  0  0  0  0  0
  128.6130  127.0770   63.2340 C   0  0  0  0  0  0  0  0  0  0  0  0
  128.5280  127.0300   62.0810 N   0  0  0  0  0  0  0  0  0  0  0  0
  129.6320  126.3200   65.4010 C   0  0  0  0  0  0  0  0  0  0  0  0
  130.7190  125.1420   64.6270 S   0  0  0  0  0  0  0  0  0  0  0  0
  129.8600  123.5330   64.5870 C   0  0  0  0  0  0  0  0  0  0  0  0
  129.5380  123.0180   63.1770 C   0  0  0  0  0  0  0  0  0  0  0  0
  130.0530  121.9780   62.7580 O   0  0  0  0  0  0  0  0  0  0  0  0
  128.6840  123.7950   62.4710 N   0  0  0  0  0  0  0  0  0  0  0  0
  128.1990  123.5980   61.1760 C   0  0  0  0  0  0  0  0  0  0  0  0
  126.4980  123.4920   60.8050 S   0  0  0  0  0  0  0  0  0  0  0  0
  126.8240  123.2570   59.1160 C   0  0  0  0  0  0  0  0  0  0  0  0
  128.2030  123.2570   58.8510 C   0  0  0  0  0  0  0  0  0  0  0  0
  128.9790  123.4650   60.0170 C   0  0  0  0  0  0  0  0  0  0  0  0
  130.4370  123.5270   60.0110 C   0  0  0  0  0  0  0  0  0  0  0  0
  131.5940  123.5750   60.0060 N   0  0  0  0  0  0  0  0  0  0  0  0
  128.7460  123.1050   57.4250 C   0  0  0  0  0  0  0  0  0  0  0  0
  127.6310  123.3620   56.3870 C   0  0  0  0  0  0  0  0  0  0  0  0
  126.3240  122.6330   56.7450 C   0  0  0  0  0  0  0  0  0  0  0  0
  125.7220  123.1430   58.0710 C   0  0  0  0  0  0  0  0  0  0  0  0
  129.7720  126.3820   66.7460 N   0  0  0  0  0  0  0  0  0  0  0  0
  128.3330  126.4850   69.7980 C   0  0  0  0  0  0  0  0  0  0  0  0
  128.5140  126.4730   71.1780 C   0  0  0  0  0  0  0  0  0  0  0  0
  1  2  1  0
  2  3  1  0
  3  4  2  0
  4  5  1  0
  5  6  2  0
  6  7  1  0
  7  8  2  0
  8  9  1  0
  9 10  1  0
 10 11  2  0
 11 12  1  0
 12 13  2  0
 13 14  1  0
 14 15  1  0
 13 16  1  0
 16 17  2  0
  9 18  2  0
 18 19  1  0
 19 20  3  0
 18 21  1  0
 21 22  1  0
 22 23  1  0
 23 24  1  0
 24 25  2  0
 24 26  1  0
 26 27  1  0
 27 28  1  0
 28 29  1  0
 29 30  2  0
 30 31  1  0
 31 32  1  0
 32 33  3  0
 30 34  1  0
 34 35  1  0
 35 36  1  0
 36 37  1  0
 21 38  2  0
  6 39  1  0
 39 40  2  0
 40  3  1  0
 38  7  1  0
 17 10  1  0
 31 27  2  0
 37 29  1  0
M  END
>  <Binding energies>  (52) 
[-11.07]

>  <Ligand effiencies>  (52) 
[-0.27]

>  <Interactions>  (52) 
["V-B:TYR:539:CE2:9845, V-A:HIS:456:CE1:4066, V-B:TYR:539:CD1:9842, V-B:TYR:539:CZ:9846, V-B:PRO:540:CA:9852, V-B:TYR:539:CE1:9844, V-B:ALA:541:CB:9861, V-B:PRO:540:N:9853, V-B:PRO:540:CB:9854, H-B:GLU:543:OE2:9879, V-A:TYR:484:CE1:4341, V-A:LYS:547:CE:4947, H-A:LYS:547:NZ:4948, V-B:LYS:547:CE:9919, V-B:GLU:543:CD:9877, V-A:GLU:543:C:4899, V-B:HIS:456:CE1:9038, V-B:GLU:543:CG:9876, V-A:GLY:544:C:4909, V-A:GLU:543:CD:4905, H-B:GLY:454:N:9018, V-B:ARG:545:CZ:9895, V-B:PRO:540:CD:9856, H-B:TYR:539:OH:9847, V-B:MET:535:CE:9804, V-A:HIS:456:CD2:4064, H-B:GLU:543:OE1:9878, V-B:ASP:366:CG:8181, V-B:ILE:369:CD1:8207"]

$$$$
RR6_Rahimova_2017
     RDKit          3D

 38 41  0  0  0  0  0  0  0  0999 V2000
  126.1940  122.7850   56.2660 C   0  0  0  0  0  0  0  0  0  0  0  0
  124.9860  123.1940   56.8920 O   0  0  0  0  0  0  0  0  0  0  0  0
  124.9350  124.3280   57.6380 C   0  0  0  0  0  0  0  0  0  0  0  0
  124.2020  125.2850   57.3690 O   0  0  0  0  0  0  0  0  0  0  0  0
  125.8570  124.3010   58.8230 C   0  0  0  0  0  0  0  0  0  0  0  0
  126.3880  123.1040   59.3250 C   0  0  0  0  0  0  0  0  0  0  0  0
  127.2350  123.1120   60.4310 C   0  0  0  0  0  0  0  0  0  0  0  0
  127.5630  124.3240   61.0570 C   0  0  0  0  0  0  0  0  0  0  0  0
  128.3830  124.4430   62.1940 N   0  0  0  0  0  0  0  0  0  0  0  0
  129.6630  124.0460   62.3720 C   0  0  0  0  0  0  0  0  0  0  0  0
  130.3630  123.4950   61.5230 O   0  0  0  0  0  0  0  0  0  0  0  0
  130.2330  124.2610   63.7780 C   0  0  0  0  0  0  0  0  0  0  0  0
  130.9280  125.9270   64.0400 S   0  0  0  0  0  0  0  0  0  0  0  0
  129.7280  126.8430   64.9840 C   0  0  0  0  0  0  0  0  0  0  0  0
  129.8000  126.6420   66.3220 N   0  0  0  0  0  0  0  0  0  0  0  0
  128.9550  127.3080   67.1490 C   0  0  0  0  0  0  0  0  0  0  0  0
  129.1410  127.0770   68.6200 C   0  0  0  0  0  0  0  0  0  0  0  0
  128.2890  126.2170   69.3300 C   0  0  0  0  0  0  0  0  0  0  0  0
  128.4530  126.0120   70.6970 C   0  0  0  0  0  0  0  0  0  0  0  0
  129.4800  126.6620   71.3810 C   0  0  0  0  0  0  0  0  0  0  0  0
  129.6500  126.4440   72.8730 C   0  0  0  0  0  0  0  0  0  0  0  0
  130.3380  127.5180   70.6950 C   0  0  0  0  0  0  0  0  0  0  0  0
  130.1690  127.7180   69.3280 C   0  0  0  0  0  0  0  0  0  0  0  0
  128.0000  128.1910   66.6350 C   0  0  0  0  0  0  0  0  0  0  0  0
  127.9020  128.4120   65.2540 C   0  0  0  0  0  0  0  0  0  0  0  0
  126.8720  129.3810   64.7750 C   0  0  0  0  0  0  0  0  0  0  0  0
  127.2030  130.7280   64.5980 C   0  0  0  0  0  0  0  0  0  0  0  0
  126.2530  131.6350   64.1370 C   0  0  0  0  0  0  0  0  0  0  0  0
  124.9580  131.2150   63.8390 C   0  0  0  0  0  0  0  0  0  0  0  0
  124.0840  132.1830   63.3850 O   0  0  0  0  0  0  0  0  0  0  0  0
  123.8760  132.3300   61.9850 C   0  0  0  0  0  0  0  0  0  0  0  0
  124.6220  129.8630   64.0100 C   0  0  0  0  0  0  0  0  0  0  0  0
  125.5750  128.9580   64.4710 C   0  0  0  0  0  0  0  0  0  0  0  0
  128.7880  127.7130   64.3970 C   0  0  0  0  0  0  0  0  0  0  0  0
  128.7210  127.8760   62.9410 C   0  0  0  0  0  0  0  0  0  0  0  0
  128.6690  128.0060   61.7920 N   0  0  0  0  0  0  0  0  0  0  0  0
  127.0500  125.5180   60.5500 C   0  0  0  0  0  0  0  0  0  0  0  0
  126.2010  125.5080   59.4460 C   0  0  0  0  0  0  0  0  0  0  0  0
  1  2  1  0
  2  3  1  0
  3  4  2  0
  3  5  1  0
  5  6  2  0
  6  7  1  0
  7  8  2  0
  8  9  1  0
  9 10  1  0
 10 11  2  0
 10 12  1  0
 12 13  1  0
 13 14  1  0
 14 15  2  0
 15 16  1  0
 16 17  1  0
 17 18  2  0
 18 19  1  0
 19 20  2  0
 20 21  1  0
 20 22  1  0
 22 23  2  0
 16 24  2  0
 24 25  1  0
 25 26  1  0
 26 27  2  0
 27 28  1  0
 28 29  2  0
 29 30  1  0
 30 31  1  0
 29 32  1  0
 32 33  2  0
 25 34  2  0
 34 35  1  0
 35 36  3  0
  8 37  1  0
 37 38  2  0
 38  5  1  0
 34 14  1  0
 23 17  1  0
 33 26  1  0
M  END
>  <Binding energies>  (53) 
[-9.23]

>  <Ligand effiencies>  (53) 
[-0.23666666666666666]

>  <Interactions>  (53) 
["V-A:HIS:456:CE1:4066, V-B:PRO:540:CA:9852, V-B:ALA:541:CB:9861, V-B:PRO:540:N:9853, V-B:PRO:540:CB:9854, H-B:GLU:543:OE2:9879, V-B:LYS:547:CE:9919, V-B:GLU:543:CB:9875, V-B:GLU:543:CD:9877, V-B:HIS:456:CE1:9038, V-B:GLU:543:CG:9876, V-A:GLU:543:CD:4905, H-B:GLY:454:N:9018, V-B:ARG:545:CZ:9895, V-A:GLU:543:CG:4904, V-B:PRO:540:CD:9856, V-A:HIS:456:CD2:4064, V-B:GLU:543:C:9871, H-B:GLU:543:OE1:9878, V-B:LEU:363:CD1:8157, H-B:TYR:531:OH:9764, V-B:ILE:538:CB:9831, V-B:GLY:454:CA:9017, V-B:ILE:369:CD1:8207"]

$$$$
RR7_Rahimova_2017
     RDKit          3D

 47 53  0  0  0  0  0  0  0  0999 V2000
  133.5670  125.0110   65.3070 C   0  0  0  0  0  0  0  0  0  0  0  0
  133.9600  124.6490   63.9870 O   0  0  0  0  0  0  0  0  0  0  0  0
  133.0580  124.7980   62.9510 C   0  0  0  0  0  0  0  0  0  0  0  0
  132.1040  125.8030   63.0960 C   0  0  0  0  0  0  0  0  0  0  0  0
  131.1580  126.0320   62.1030 C   0  0  0  0  0  0  0  0  0  0  0  0
  131.1350  125.2480   60.9400 C   0  0  0  0  0  0  0  0  0  0  0  0
  130.1060  125.5030   59.7950 C   0  0  0  0  0  0  0  0  0  0  0  0
  129.1640  126.4730   60.3040 O   0  0  0  0  0  0  0  0  0  0  0  0
  127.7730  126.1450   60.3910 C   0  0  0  0  0  0  0  0  0  0  0  0
  126.9540  127.4450   60.4470 C   0  0  1  0  0  0  0  0  0  0  0  0
  126.5280  127.6060   61.7970 O   0  0  0  0  0  0  0  0  0  0  0  0
  126.9830  128.8080   62.3490 C   0  0  1  0  0  0  0  0  0  0  0  0
  127.2430  128.6400   63.7660 N   0  0  0  0  0  0  0  0  0  0  0  0
  126.8110  129.4360   64.8120 C   0  0  0  0  0  0  0  0  0  0  0  0
  127.2340  129.0800   66.0000 N   0  0  0  0  0  0  0  0  0  0  0  0
  128.0400  128.0020   65.7500 C   0  0  0  0  0  0  0  0  0  0  0  0
  128.8010  127.1770   66.6010 C   0  0  0  0  0  0  0  0  0  0  0  0
  128.7770  127.4300   67.9860 N   0  0  0  0  0  0  0  0  0  0  0  0
  128.9090  126.5580   69.0130 C   0  0  0  0  0  0  0  0  0  0  0  0
  129.0610  125.3410   68.8770 O   0  0  0  0  0  0  0  0  0  0  0  0
  128.8270  127.1610   70.3990 C   0  0  0  0  0  0  0  0  0  0  0  0
  129.6700  128.2300   70.7410 C   0  0  0  0  0  0  0  0  0  0  0  0
  129.6070  128.8040   72.0080 C   0  0  0  0  0  0  0  0  0  0  0  0
  128.6990  128.3170   72.9420 C   0  0  0  0  0  0  0  0  0  0  0  0
  127.8510  127.2600   72.6210 C   0  0  0  0  0  0  0  0  0  0  0  0
  127.9140  126.6840   71.3540 C   0  0  0  0  0  0  0  0  0  0  0  0
  129.5410  126.1630   66.0600 N   0  0  0  0  0  0  0  0  0  0  0  0
  129.5050  126.0010   64.7110 C   0  0  0  0  0  0  0  0  0  0  0  0
  128.8060  126.7320   63.8030 N   0  0  0  0  0  0  0  0  0  0  0  0
  128.0850  127.7140   64.3620 C   0  0  0  0  0  0  0  0  0  0  0  0
  128.1970  129.1990   61.5140 C   0  0  0  0  0  0  0  0  0  0  0  0
  127.7460  128.7250   60.1430 C   0  0  2  0  0  0  0  0  0  0  0  0
  126.9640  129.6990   59.4740 O   0  0  0  0  0  0  0  0  0  0  0  0
  130.7660  126.1290   58.5370 C   0  0  0  0  0  0  0  0  0  0  0  0
  131.5800  125.3480   57.7010 C   0  0  0  0  0  0  0  0  0  0  0  0
  132.1870  125.9020   56.5790 C   0  0  0  0  0  0  0  0  0  0  0  0
  131.9870  127.2460   56.2800 C   0  0  0  0  0  0  0  0  0  0  0  0
  131.1850  128.0400   57.0950 C   0  0  0  0  0  0  0  0  0  0  0  0
  130.5790  127.4850   58.2180 C   0  0  0  0  0  0  0  0  0  0  0  0
  129.3380  124.2520   59.2840 C   0  0  0  0  0  0  0  0  0  0  0  0
  129.3070  123.0750   60.0500 C   0  0  0  0  0  0  0  0  0  0  0  0
  128.6310  121.9470   59.5970 C   0  0  0  0  0  0  0  0  0  0  0  0
  127.9830  121.9800   58.3660 C   0  0  0  0  0  0  0  0  0  0  0  0
  128.0110  123.1310   57.5840 C   0  0  0  0  0  0  0  0  0  0  0  0
  128.6880  124.2580   58.0380 C   0  0  0  0  0  0  0  0  0  0  0  0
  132.1070  124.2470   60.7920 C   0  0  0  0  0  0  0  0  0  0  0  0
  133.0540  124.0190   61.7860 C   0  0  0  0  0  0  0  0  0  0  0  0
  1  2  1  0
  2  3  1  0
  3  4  2  0
  4  5  1  0
  5  6  2  0
  6  7  1  0
  7  8  1  0
  8  9  1  0
 10  9  1  1
 10 11  1  0
 11 12  1  0
 12 13  1  1
 13 14  1  0
 14 15  2  0
 15 16  1  0
 16 17  2  0
 17 18  1  0
 18 19  1  0
 19 20  2  0
 19 21  1  0
 21 22  2  0
 22 23  1  0
 23 24  2  0
 24 25  1  0
 25 26  2  0
 17 27  1  0
 27 28  2  0
 28 29  1  0
 29 30  2  0
 12 31  1  0
 31 32  1  0
 32 33  1  1
  7 34  1  0
 34 35  2  0
 35 36  1  0
 36 37  2  0
 37 38  1  0
 38 39  2  0
  7 40  1  0
 40 41  2  0
 41 42  1  0
 42 43  2  0
 43 44  1  0
 44 45  2  0
  6 46  1  0
 46 47  2  0
 47  3  1  0
 32 10  1  0
 39 34  1  0
 45 40  1  0
 30 13  1  0
 30 16  1  0
 26 21  1  0
M  END
>  <Binding energies>  (54) 
[-8.46]

>  <Ligand effiencies>  (54) 
[-0.1726530612244898]

>  <Interactions>  (54) 
["V-B:TYR:539:CE2:9845, V-A:HIS:456:CE1:4066, V-B:TYR:539:CG:9841, V-B:TYR:539:CD1:9842, V-B:TYR:539:CZ:9846, V-B:PRO:540:CA:9852, V-A:ARG:545:CZ:4923, V-B:TYR:539:CE1:9844, V-A:ARG:545:CD:4920, H-A:GLY:454:N:4046, V-B:TYR:539:C:9836, V-A:GLY:454:CA:4045, V-B:PRO:540:N:9853, V-B:TYR:539:CD2:9843, V-A:ASP:366:CG:3209, V-B:HIS:456:CD2:9036, V-A:LYS:547:CE:4947, V-B:GLY:544:C:9881, V-B:LYS:547:CE:9919, V-B:GLU:543:CD:9877, V-B:HIS:456:CE1:9038, V-B:GLU:543:CG:9876, V-A:GLU:543:CD:4905, H-A:ARG:545:NH1:4924, V-A:ASP:366:CB:3208, H-B:ARG:545:NH2:9897, H-B:ASP:366:OD1:8182, H-A:GLU:543:O:4900, H-B:HIS:456:NE2:9039, V-A:TYR:531:CZ:4791, V-A:TYR:531:CE1:4789"]

$$$$
RR8_A_Rahimova_2017
     RDKit          3D

 42 46  0  0  0  0  0  0  0  0999 V2000
  131.7740  126.8270   65.6830 O   0  0  0  0  0  0  0  0  0  0  0  0
  130.5900  126.7060   66.0140 C   0  0  0  0  0  0  0  0  0  0  0  0
  129.5720  126.4060   65.1490 O   0  0  0  0  0  0  0  0  0  0  0  0
  129.8410  126.4910   63.7770 C   0  0  1  0  0  0  0  0  0  0  0  0
  130.5590  125.3810   63.3220 O   0  0  0  0  0  0  0  0  0  0  0  0
  130.1330  124.9690   62.0260 C   0  0  2  0  0  0  0  0  0  0  0  0
  131.3540  124.9520   61.0910 C   0  0  0  0  0  0  0  0  0  0  0  0
  131.0910  124.0700   60.0090 O   0  0  0  0  0  0  0  0  0  0  0  0
  130.5040  124.7010   58.8790 C   0  0  0  0  0  0  0  0  0  0  0  0
  129.3250  123.8760   58.3810 C   0  0  0  0  0  0  0  0  0  0  0  0
  128.7000  122.9680   59.2390 C   0  0  0  0  0  0  0  0  0  0  0  0
  127.6170  122.2160   58.7880 C   0  0  0  0  0  0  0  0  0  0  0  0
  127.1610  122.3780   57.4810 C   0  0  0  0  0  0  0  0  0  0  0  0
  127.7750  123.2860   56.6210 C   0  0  0  0  0  0  0  0  0  0  0  0
  128.8570  124.0380   57.0730 C   0  0  0  0  0  0  0  0  0  0  0  0
  129.0380  125.9810   61.6630 C   0  0  1  0  0  0  0  0  0  0  0  0
  127.9400  125.3940   60.9690 O   0  0  0  0  0  0  0  0  0  0  0  0
  126.9580  126.3040   60.4850 C   0  0  0  0  0  0  0  0  0  0  0  0
  125.7770  125.5350   59.9100 C   0  0  0  0  0  0  0  0  0  0  0  0
  125.1060  124.5990   60.7030 C   0  0  0  0  0  0  0  0  0  0  0  0
  124.0310  123.8860   60.1810 C   0  0  0  0  0  0  0  0  0  0  0  0
  123.6290  124.1070   58.8650 C   0  0  0  0  0  0  0  0  0  0  0  0
  124.2950  125.0330   58.0660 C   0  0  0  0  0  0  0  0  0  0  0  0
  125.3720  125.7450   58.5870 C   0  0  0  0  0  0  0  0  0  0  0  0
  128.5230  126.4400   63.0150 C   0  0  2  0  0  0  0  0  0  0  0  0
  127.8770  127.7050   62.9040 O   0  0  0  0  0  0  0  0  0  0  0  0
  127.8800  128.5060   64.0810 C   0  0  0  0  0  0  0  0  0  0  0  0
  126.4660  128.9680   64.3970 C   0  0  0  0  0  0  0  0  0  0  0  0
  125.9900  128.9280   65.7120 C   0  0  0  0  0  0  0  0  0  0  0  0
  124.6980  129.3620   65.9980 C   0  0  0  0  0  0  0  0  0  0  0  0
  123.8870  129.8380   64.9700 C   0  0  0  0  0  0  0  0  0  0  0  0
  124.3550  129.8860   63.6590 C   0  0  0  0  0  0  0  0  0  0  0  0
  125.6470  129.4520   63.3720 C   0  0  0  0  0  0  0  0  0  0  0  0
  130.1180  126.8660   67.4310 C   0  0  0  0  0  0  0  0  0  0  0  0
  130.6760  127.8200   68.2950 C   0  0  0  0  0  0  0  0  0  0  0  0
  130.2170  127.9430   69.6040 C   0  0  0  0  0  0  0  0  0  0  0  0
  129.1920  127.1170   70.0820 C   0  0  0  0  0  0  0  0  0  0  0  0
  128.7030  127.2500   71.4760 N   0  0  0  0  0  0  0  0  0  0  0  0
  127.5250  127.0010   71.7130 O   0  0  0  0  0  0  0  0  0  0  0  0
  129.4950  127.6040   72.3460 O   0  0  0  0  0  0  0  0  0  0  0  0
  128.6380  126.1630   69.2190 C   0  0  0  0  0  0  0  0  0  0  0  0
  129.0950  126.0380   67.9110 C   0  0  0  0  0  0  0  0  0  0  0  0
  1  2  2  0
  2  3  1  0
  4  3  1  1
  4  5  1  0
  5  6  1  0
  6  7  1  6
  7  8  1  0
  8  9  1  0
  9 10  1  0
 10 11  2  0
 11 12  1  0
 12 13  2  0
 13 14  1  0
 14 15  2  0
  6 16  1  0
 16 17  1  6
 17 18  1  0
 18 19  1  0
 19 20  2  0
 20 21  1  0
 21 22  2  0
 22 23  1  0
 23 24  2  0
 16 25  1  0
 25 26  1  6
 26 27  1  0
 27 28  1  0
 28 29  2  0
 29 30  1  0
 30 31  2  0
 31 32  1  0
 32 33  2  0
  2 34  1  0
 34 35  2  0
 35 36  1  0
 36 37  2  0
 37 38  1  0
 38 39  2  0
 38 40  1  0
 37 41  1  0
 41 42  2  0
 25  4  1  0
 33 28  1  0
 42 34  1  0
 15 10  1  0
 24 19  1  0
M  CHG  2  38   1  40  -1
M  END
>  <Binding energies>  (55) 
[-9.35]

>  <Ligand effiencies>  (55) 
[-0.2226190476190476]

>  <Interactions>  (55) 
["V-B:TYR:539:CE2:9845, V-A:HIS:456:CE1:4066, V-B:TYR:539:CZ:9846, V-B:ASN:362:CB:8144, V-B:PRO:540:CA:9852, V-B:TYR:539:CE1:9844, V-B:TYR:539:C:9836, V-B:ASN:362:C:8140, V-B:PRO:540:N:9853, V-B:PRO:540:CB:9854, V-A:ASP:366:CG:3209, V-B:HIS:456:CD2:9036, V-A:GLU:543:CB:4903, H-A:LYS:547:NZ:4948, V-B:GLU:543:CB:9875, V-B:GLU:543:CD:9877, V-A:GLU:543:C:4899, V-B:HIS:456:CE1:9038, V-A:GLU:543:CD:4905, H-A:ARG:545:NH2:4925, V-B:LEU:363:CA:8153, V-B:ARG:545:CZ:9895, V-B:ARG:545:CG:9891, V-B:ARG:545:CD:9892, H-B:TYR:539:OH:9847, V-B:MET:535:CE:9804, V-B:GLU:543:C:9871, H-A:ARG:545:NE:4921, V-B:LEU:363:CD1:8157, V-B:LEU:363:CB:8155, V-B:ASP:366:CG:8181, V-B:ASP:366:CB:8180, V-B:GLY:454:CA:9017, V-B:GLY:453:C:9010, V-B:GLY:453:CA:9012"]

$$$$
RR8_B_Rahimova_2017
     RDKit          3D

 42 46  0  0  0  0  0  0  0  0999 V2000
  130.6540  127.9400   62.3830 O   0  0  0  0  0  0  0  0  0  0  0  0
  129.5800  127.3350   62.4690 C   0  0  0  0  0  0  0  0  0  0  0  0
  129.3680  126.0690   61.9990 O   0  0  0  0  0  0  0  0  0  0  0  0
  128.7450  125.1400   62.8530 C   0  0  2  0  0  0  0  0  0  0  0  0
  129.3320  125.1240   64.1240 O   0  0  0  0  0  0  0  0  0  0  0  0
  130.3750  124.1550   64.2050 C   0  0  2  0  0  0  0  0  0  0  0  0
  131.6920  124.8490   64.5980 C   0  0  0  0  0  0  0  0  0  0  0  0
  131.5550  125.4080   65.8990 O   0  0  0  0  0  0  0  0  0  0  0  0
  130.9850  126.7080   65.9340 C   0  0  0  0  0  0  0  0  0  0  0  0
  130.1450  126.8520   67.1940 C   0  0  0  0  0  0  0  0  0  0  0  0
  130.5500  127.7350   68.2000 C   0  0  0  0  0  0  0  0  0  0  0  0
  129.7990  127.8540   69.3670 C   0  0  0  0  0  0  0  0  0  0  0  0
  128.6430  127.0910   69.5230 C   0  0  0  0  0  0  0  0  0  0  0  0
  128.2300  126.2140   68.5220 C   0  0  0  0  0  0  0  0  0  0  0  0
  128.9830  126.0930   67.3560 C   0  0  0  0  0  0  0  0  0  0  0  0
  130.3720  123.4770   62.8300 C   0  0  1  0  0  0  0  0  0  0  0  0
  130.6870  122.0890   62.9720 O   0  0  0  0  0  0  0  0  0  0  0  0
  131.3140  121.4470   61.8590 C   0  0  0  0  0  0  0  0  0  0  0  0
  132.5500  122.2020   61.3780 C   0  0  0  0  0  0  0  0  0  0  0  0
  133.8090  121.8880   61.8970 C   0  0  0  0  0  0  0  0  0  0  0  0
  134.9390  122.5570   61.4320 C   0  0  0  0  0  0  0  0  0  0  0  0
  134.8040  123.5400   60.4540 C   0  0  0  0  0  0  0  0  0  0  0  0
  133.5520  123.8610   59.9350 C   0  0  0  0  0  0  0  0  0  0  0  0
  132.4220  123.1900   60.3970 C   0  0  0  0  0  0  0  0  0  0  0  0
  128.9600  123.7270   62.3120 C   0  0  2  0  0  0  0  0  0  0  0  0
  128.9310  123.6450   60.8890 O   0  0  0  0  0  0  0  0  0  0  0  0
  128.1640  122.5800   60.3510 C   0  0  0  0  0  0  0  0  0  0  0  0
  126.8480  123.1490   59.8470 C   0  0  0  0  0  0  0  0  0  0  0  0
  125.8530  123.5310   60.7510 C   0  0  0  0  0  0  0  0  0  0  0  0
  124.6430  124.0330   60.2770 C   0  0  0  0  0  0  0  0  0  0  0  0
  124.4330  124.1500   58.9050 C   0  0  0  0  0  0  0  0  0  0  0  0
  125.4220  123.7720   57.9990 C   0  0  0  0  0  0  0  0  0  0  0  0
  126.6320  123.2710   58.4710 C   0  0  0  0  0  0  0  0  0  0  0  0
  128.3450  127.9360   63.0750 C   0  0  0  0  0  0  0  0  0  0  0  0
  127.2220  128.2600   62.2990 C   0  0  0  0  0  0  0  0  0  0  0  0
  126.0960  128.8240   62.8860 C   0  0  0  0  0  0  0  0  0  0  0  0
  126.0640  129.0880   64.2610 C   0  0  0  0  0  0  0  0  0  0  0  0
  124.8710  129.7150   64.8810 N   0  0  0  0  0  0  0  0  0  0  0  0
  124.6660  129.5330   66.0780 O   0  0  0  0  0  0  0  0  0  0  0  0
  124.1310  130.3980   64.1760 O   0  0  0  0  0  0  0  0  0  0  0  0
  127.1830  128.7600   65.0370 C   0  0  0  0  0  0  0  0  0  0  0  0
  128.3090  128.1890   64.4520 C   0  0  0  0  0  0  0  0  0  0  0  0
  1  2  2  0
  2  3  1  0
  4  3  1  6
  4  5  1  0
  5  6  1  0
  6  7  1  6
  7  8  1  0
  8  9  1  0
  9 10  1  0
 10 11  2  0
 11 12  1  0
 12 13  2  0
 13 14  1  0
 14 15  2  0
  6 16  1  0
 16 17  1  1
 17 18  1  0
 18 19  1  0
 19 20  2  0
 20 21  1  0
 21 22  2  0
 22 23  1  0
 23 24  2  0
 16 25  1  0
 25 26  1  6
 26 27  1  0
 27 28  1  0
 28 29  2  0
 29 30  1  0
 30 31  2  0
 31 32  1  0
 32 33  2  0
  2 34  1  0
 34 35  2  0
 35 36  1  0
 36 37  2  0
 37 38  1  0
 38 39  2  0
 38 40  1  0
 37 41  1  0
 41 42  2  0
 25  4  1  0
 33 28  1  0
 42 34  1  0
 15 10  1  0
 24 19  1  0
M  CHG  2  38   1  40  -1
M  END
>  <Binding energies>  (56) 
[-9.48]

>  <Ligand effiencies>  (56) 
[-0.22571428571428573]

>  <Interactions>  (56) 
["V-B:TYR:539:CE2:9845, V-A:HIS:456:CE1:4066, V-B:TYR:539:CZ:9846, V-A:GLY:453:C:4038, V-B:PRO:540:CA:9852, V-A:GLY:453:CA:4040, V-B:ALA:541:CB:9861, H-A:TYR:484:OH:4344, V-A:GLY:454:CA:4045, V-B:PRO:540:CB:9854, V-A:ASP:366:CG:3209, V-B:HIS:456:CD2:9036, V-A:GLU:543:CB:4903, V-B:GLU:543:CB:9875, V-B:GLU:543:CD:9877, V-B:HIS:456:CE1:9038, V-B:GLU:543:CG:9876, V-A:GLU:543:CD:4905, H-A:ARG:545:NH2:4925, V-A:ILE:369:CB:3232, V-A:LEU:475:CD1:4254, V-A:ILE:369:CG2:3233, V-A:ILE:369:CG1:3234, H-B:GLY:454:N:9018, V-B:ARG:545:CZ:9895, H-B:TYR:484:OH:9316, V-A:ASP:366:CB:3208, V-B:GLU:543:C:9871, V-B:LEU:363:CD1:8157, V-A:ASP:366:CA:3206, H-B:ARG:545:NE:9893, H-B:HIS:456:ND1:9035"]

$$$$
RR9_Rahimova_2017
     RDKit          3D

 36 40  0  0  0  0  0  0  0  0999 V2000
  129.7980  126.4740   72.3960 C   0  0  0  0  0  0  0  0  0  0  0  0
  129.0980  127.6630   71.7310 C   0  0  0  0  0  0  0  0  0  0  0  0
  129.9430  128.1770   70.7060 O   0  0  0  0  0  0  0  0  0  0  0  0
  129.9120  127.6020   69.4500 C   0  0  0  0  0  0  0  0  0  0  0  0
  129.0100  126.5560   69.2650 C   0  0  0  0  0  0  0  0  0  0  0  0
  128.9100  125.9150   68.0350 C   0  0  0  0  0  0  0  0  0  0  0  0
  129.7130  126.3030   66.9510 C   0  0  0  0  0  0  0  0  0  0  0  0
  129.6140  125.6120   65.6240 C   0  0  0  0  0  0  0  0  0  0  0  0
  129.2390  126.3030   64.4610 C   0  0  0  0  0  0  0  0  0  0  0  0
  129.1600  125.6530   63.2160 C   0  0  0  0  0  0  0  0  0  0  0  0
  128.8520  126.4690   61.9900 C   0  0  0  0  0  0  0  0  0  0  0  0
  129.7600  127.0040   61.3540 O   0  0  0  0  0  0  0  0  0  0  0  0
  127.5460  126.5820   61.6740 N   0  0  0  0  0  0  0  0  0  0  0  0
  126.9890  127.4250   60.6110 C   0  0  0  0  0  0  0  0  0  0  0  0
  126.8250  126.6760   59.2680 C   0  0  0  0  0  0  0  0  0  0  0  0
  125.6980  125.6500   59.2440 C   0  0  0  0  0  0  0  0  0  0  0  0
  125.2990  125.0180   60.4260 C   0  0  0  0  0  0  0  0  0  0  0  0
  124.2460  124.1070   60.4060 C   0  0  0  0  0  0  0  0  0  0  0  0
  123.6000  123.8260   59.2050 C   0  0  0  0  0  0  0  0  0  0  0  0
  123.9950  124.4480   58.0220 C   0  0  0  0  0  0  0  0  0  0  0  0
  125.0470  125.3610   58.0420 C   0  0  0  0  0  0  0  0  0  0  0  0
  129.4450  124.2650   63.2130 C   0  0  0  0  0  0  0  0  0  0  0  0
  129.4760  123.1640   62.2800 C   0  0  0  0  0  0  0  0  0  0  0  0
  129.0950  123.1330   60.8370 C   0  0  0  0  0  0  0  0  0  0  0  0
  129.8250  123.8700   59.9000 C   0  0  0  0  0  0  0  0  0  0  0  0
  129.4580  123.8520   58.5560 C   0  0  0  0  0  0  0  0  0  0  0  0
  128.3620  123.0930   58.1450 C   0  0  0  0  0  0  0  0  0  0  0  0
  127.9500  123.0880   56.6830 C   0  0  0  0  0  0  0  0  0  0  0  0
  127.6290  122.3570   59.0770 C   0  0  0  0  0  0  0  0  0  0  0  0
  127.9990  122.3740   60.4190 C   0  0  0  0  0  0  0  0  0  0  0  0
  129.8900  122.0670   62.8740 N   0  0  0  0  0  0  0  0  0  0  0  0
  130.0860  122.3490   64.1720 N   0  0  0  0  0  0  0  0  0  0  0  0
  129.8190  123.6710   64.4420 C   0  0  0  0  0  0  0  0  0  0  0  0
  129.9070  124.2810   65.6230 N   0  0  0  0  0  0  0  0  0  0  0  0
  130.6200  127.3540   67.1460 C   0  0  0  0  0  0  0  0  0  0  0  0
  130.7200  127.9990   68.3770 C   0  0  0  0  0  0  0  0  0  0  0  0
  1  2  1  0
  2  3  1  0
  3  4  1  0
  4  5  2  0
  5  6  1  0
  6  7  2  0
  7  8  1  0
  8  9  2  0
  9 10  1  0
 10 11  1  0
 11 12  2  0
 11 13  1  0
 13 14  1  0
 14 15  1  0
 15 16  1  0
 16 17  2  0
 17 18  1  0
 18 19  2  0
 19 20  1  0
 20 21  2  0
 10 22  2  0
 22 23  1  0
 23 24  1  0
 24 25  2  0
 25 26  1  0
 26 27  2  0
 27 28  1  0
 27 29  1  0
 29 30  2  0
 23 31  2  0
 31 32  1  0
 32 33  1  0
 33 34  2  0
  7 35  1  0
 35 36  2  0
 36  4  1  0
 34  8  1  0
 21 16  1  0
 33 22  1  0
 30 24  1  0
M  END
>  <Binding energies>  (57) 
[-8.87]

>  <Ligand effiencies>  (57) 
[-0.23342105263157892]

>  <Interactions>  (57) 
["V-B:TYR:539:CE2:9845, V-A:HIS:456:CE1:4066, V-B:TYR:539:CD1:9842, V-B:TYR:539:CZ:9846, V-B:ASN:362:CB:8144, V-B:PRO:540:CA:9852, V-B:TYR:539:CE1:9844, V-B:ALA:541:CB:9861, V-B:TYR:539:C:9836, V-B:ASN:362:C:8140, H-A:TYR:484:OH:4344, V-B:PRO:540:N:9853, V-B:PRO:540:CB:9854, H-B:GLU:543:OE2:9879, V-A:TYR:484:CE1:4341, V-B:HIS:456:CD2:9036, V-A:GLU:543:CB:4903, V-B:GLU:543:CB:9875, V-B:GLU:543:CD:9877, V-A:GLU:543:C:4899, V-B:GLU:543:CG:9876, V-A:GLU:543:CD:4905, V-B:LEU:363:CA:8153, V-A:LEU:475:CD1:4254, V-A:LEU:475:CD2:4255, V-A:HIS:456:CD2:4064, H-B:GLU:543:OE1:9878, V-B:LEU:363:CD1:8157, V-B:LEU:363:CB:8155"]

$$$$
