1a_Ghoteimi_2023
     RDKit          3D

 67 70  0  0  0  0  0  0  0  0999 V2000
  124.0240  125.0330   58.2160 C   0  0  0  0  0  0  0  0  0  0  0  0
  125.1840  124.6050   57.3130 C   0  0  0  0  0  0  0  0  0  0  0  0
  125.2870  123.1860   57.3170 O   0  0  0  0  0  0  0  0  0  0  0  0
  126.4970  122.5700   57.3360 C   0  0  0  0  0  0  0  0  0  0  0  0
  126.9850  121.9990   56.3560 O   0  0  0  0  0  0  0  0  0  0  0  0
  127.1850  122.6580   58.6670 C   0  0  0  0  0  0  0  0  0  0  0  0
  126.5250  123.1220   59.8150 C   0  0  0  0  0  0  0  0  0  0  0  0
  127.1910  123.1950   61.0360 C   0  0  0  0  0  0  0  0  0  0  0  0
  128.5330  122.8000   61.1310 C   0  0  0  0  0  0  0  0  0  0  0  0
  129.3030  122.8360   62.3100 N   0  0  0  0  0  0  0  0  0  0  0  0
  130.2370  121.9710   62.7610 C   0  0  0  0  0  0  0  0  0  0  0  0
  130.6090  120.9520   62.1800 O   0  0  0  0  0  0  0  0  0  0  0  0
  130.8670  122.3270   64.1070 C   0  0  0  0  0  0  0  0  0  0  0  0
  131.9190  123.8030   63.9880 S   0  0  0  0  0  0  0  0  0  0  0  0
  130.8540  125.1960   64.2860 C   0  0  0  0  0  0  0  0  0  0  0  0
  130.6780  125.4820   65.5970 N   0  0  0  0  0  0  0  0  0  0  0  0
  129.8890  126.5280   65.9600 C   0  0  0  0  0  0  0  0  0  0  0  0
  129.7610  126.7950   67.4320 C   0  0  0  0  0  0  0  0  0  0  0  0
  130.5960  127.7180   68.0820 C   0  0  0  0  0  0  0  0  0  0  0  0
  130.4740  127.9630   69.4470 C   0  0  0  0  0  0  0  0  0  0  0  0
  129.5160  127.2940   70.2050 C   0  0  0  0  0  0  0  0  0  0  0  0
  129.4650  127.6010   71.5510 O   0  0  0  0  0  0  0  0  0  0  0  0
  128.3160  127.2300   72.3040 C   0  0  0  0  0  0  0  0  0  0  0  0
  128.6780  126.3660   69.5710 C   0  0  0  0  0  0  0  0  0  0  0  0
  128.8030  126.1230   68.2070 C   0  0  0  0  0  0  0  0  0  0  0  0
  129.2550  127.3120   64.9880 C   0  0  0  0  0  0  0  0  0  0  0  0
  129.4020  127.0200   63.6260 C   0  0  0  0  0  0  0  0  0  0  0  0
  128.6700  127.8790   62.6480 C   0  0  0  0  0  0  0  0  0  0  0  0
  129.3220  128.4070   61.5280 C   0  0  0  0  0  0  0  0  0  0  0  0
  128.6290  129.1950   60.6130 C   0  0  0  0  0  0  0  0  0  0  0  0
  127.2730  129.4650   60.7930 C   0  0  0  0  0  0  0  0  0  0  0  0
  126.6690  130.2540   59.8350 O   0  0  0  0  0  0  0  0  0  0  0  0
  125.9160  129.6340   58.7980 C   0  0  0  0  0  0  0  0  0  0  0  0
  126.6140  128.9310   61.9110 C   0  0  0  0  0  0  0  0  0  0  0  0
  127.3090  128.1440   62.8260 C   0  0  0  0  0  0  0  0  0  0  0  0
  130.2290  125.9320   63.2560 C   0  0  0  0  0  0  0  0  0  0  0  0
  130.4340  125.5860   61.8460 C   0  0  0  0  0  0  0  0  0  0  0  0
  130.5950  125.3150   60.7320 N   0  0  0  0  0  0  0  0  0  0  0  0
  129.1940  122.3420   59.9910 C   0  0  0  0  0  0  0  0  0  0  0  0
  128.5270  122.2690   58.7700 C   0  0  0  0  0  0  0  0  0  0  0  0
  124.3200  124.9238   59.2698 H   0  0  0  0  0  0  0  0  0  0  0  0
  123.7702  126.0840   58.0135 H   0  0  0  0  0  0  0  0  0  0  0  0
  123.1484  124.3987   58.0135 H   0  0  0  0  0  0  0  0  0  0  0  0
  124.9997  124.9567   56.2872 H   0  0  0  0  0  0  0  0  0  0  0  0
  126.1215  125.0426   57.6867 H   0  0  0  0  0  0  0  0  0  0  0  0
  125.4713  123.4311   59.7500 H   0  0  0  0  0  0  0  0  0  0  0  0
  126.6630  123.5634   61.9279 H   0  0  0  0  0  0  0  0  0  0  0  0
  129.1450  123.6550   62.8790 H   0  0  0  0  0  0  0  0  0  0  0  0
  130.0658  122.5183   64.8360 H   0  0  0  0  0  0  0  0  0  0  0  0
  131.4962  121.4826   64.4248 H   0  0  0  0  0  0  0  0  0  0  0  0
  131.3600  128.2570   67.5025 H   0  0  0  0  0  0  0  0  0  0  0  0
  131.1405  128.6918   69.9314 H   0  0  0  0  0  0  0  0  0  0  0  0
  128.5422  127.3030   73.3780 H   0  0  0  0  0  0  0  0  0  0  0  0
  127.4828  127.9048   72.0580 H   0  0  0  0  0  0  0  0  0  0  0  0
  128.0348  126.1954   72.0580 H   0  0  0  0  0  0  0  0  0  0  0  0
  127.9176  125.8271   70.1552 H   0  0  0  0  0  0  0  0  0  0  0  0
  128.1382  125.3900   67.7265 H   0  0  0  0  0  0  0  0  0  0  0  0
  128.6349  128.1663   65.2975 H   0  0  0  0  0  0  0  0  0  0  0  0
  130.3902  128.1979   61.3693 H   0  0  0  0  0  0  0  0  0  0  0  0
  129.1559  129.6082   59.7403 H   0  0  0  0  0  0  0  0  0  0  0  0
  125.1389  128.9941   59.2415 H   0  0  0  0  0  0  0  0  0  0  0  0
  125.4428  130.4078   58.1756 H   0  0  0  0  0  0  0  0  0  0  0  0
  126.5845  129.0210   58.1756 H   0  0  0  0  0  0  0  0  0  0  0  0
  125.5441  129.1349   62.0653 H   0  0  0  0  0  0  0  0  0  0  0  0
  126.7821  127.7270   63.6969 H   0  0  0  0  0  0  0  0  0  0  0  0
  130.2487  122.0365   60.0566 H   0  0  0  0  0  0  0  0  0  0  0  0
  129.0585  121.9028   57.8793 H   0  0  0  0  0  0  0  0  0  0  0  0
  1  2  1  0
  2  3  1  0
  3  4  1  0
  4  5  2  0
  4  6  1  0
  6  7  2  0
  7  8  1  0
  8  9  2  0
  9 10  1  0
 10 11  1  0
 11 12  2  0
 11 13  1  0
 13 14  1  0
 14 15  1  0
 15 16  2  0
 16 17  1  0
 17 18  1  0
 18 19  2  0
 19 20  1  0
 20 21  2  0
 21 22  1  0
 22 23  1  0
 21 24  1  0
 24 25  2  0
 17 26  2  0
 26 27  1  0
 27 28  1  0
 28 29  2  0
 29 30  1  0
 30 31  2  0
 31 32  1  0
 32 33  1  0
 31 34  1  0
 34 35  2  0
 27 36  2  0
 36 37  1  0
 37 38  3  0
  9 39  1  0
 39 40  2  0
 40  6  1  0
 36 15  1  0
 25 18  1  0
 35 28  1  0
  1 41  1  0
  1 42  1  0
  1 43  1  0
  2 44  1  0
  2 45  1  0
  7 46  1  0
  8 47  1  0
 10 48  1  0
 13 49  1  0
 13 50  1  0
 19 51  1  0
 20 52  1  0
 23 53  1  0
 23 54  1  0
 23 55  1  0
 24 56  1  0
 25 57  1  0
 26 58  1  0
 29 59  1  0
 30 60  1  0
 33 61  1  0
 33 62  1  0
 33 63  1  0
 34 64  1  0
 35 65  1  0
 39 66  1  0
 40 67  1  0
M  END
>  <Binding energies>  (1) 
[-8.57]

>  <Ligand effiencies>  (1) 
[-0.20902439024390246]

>  <Interactions>  (1) 
["V-B:PRO:540:C:9850, V-B:TYR:539:CE2:9845, V-A:HIS:456:CE1:4066, V-B:TYR:539:CG:9841, V-B:TYR:539:CZ:9846, V-B:PRO:540:CA:9852, V-B:TYR:539:CE1:9844, V-B:ALA:541:CB:9861, V-B:TYR:539:C:9836, H-A:TYR:484:OH:4344, V-B:PRO:540:N:9853, V-B:PRO:540:CB:9854, V-B:TYR:539:CD2:9843, H-B:GLU:543:OE2:9879, V-A:TYR:484:CE1:4341, V-B:HIS:456:CD2:9036, V-A:GLU:543:CB:4903, H-A:LYS:547:NZ:4948, V-B:LYS:547:CE:9919, V-B:GLU:543:CB:9875, V-B:GLU:543:CD:9877, V-A:GLU:543:C:4899, V-A:TYR:484:CZ:4343, V-A:GLU:543:CD:4905, V-B:LEU:363:CA:8153, V-A:LEU:475:CD1:4254, H-B:TYR:539:N:9839, V-B:PRO:540:CD:9856, V-A:LEU:475:CD2:4255, V-B:LEU:363:CD1:8157, V-B:ASP:366:CG:8181, V-B:ASP:366:CB:8180"]

$$$$
1a_Grossjean_2025
     RDKit          3D

 45 46  0  0  0  0  0  0  0  0999 V2000
  124.6760  127.6290   73.9190 C   0  0  0  0  0  0  0  0  0  0  0  0
  126.1450  128.0640   73.9110 C   0  0  0  0  0  0  0  0  0  0  0  0
  126.7990  127.5020   72.7800 O   0  0  0  0  0  0  0  0  0  0  0  0
  128.1450  127.6040   72.6270 C   0  0  0  0  0  0  0  0  0  0  0  0
  128.9120  127.9070   73.5460 O   0  0  0  0  0  0  0  0  0  0  0  0
  128.6060  127.3280   71.2250 C   0  0  0  0  0  0  0  0  0  0  0  0
  129.8100  127.8890   70.7780 C   0  0  0  0  0  0  0  0  0  0  0  0
  130.2610  127.6550   69.4830 C   0  0  0  0  0  0  0  0  0  0  0  0
  129.5210  126.8600   68.6070 C   0  0  0  0  0  0  0  0  0  0  0  0
  130.0700  126.6930   67.3210 N   0  0  0  0  0  0  0  0  0  0  0  0
  130.1050  125.6030   66.5260 C   0  0  0  0  0  0  0  0  0  0  0  0
  129.6320  124.5000   66.8040 O   0  0  0  0  0  0  0  0  0  0  0  0
  130.7980  125.7970   65.1760 C   0  0  0  0  0  0  0  0  0  0  0  0
  132.4630  125.0670   65.1500 S   0  0  0  0  0  0  0  0  0  0  0  0
  132.5690  124.0300   63.7080 C   0  0  0  0  0  0  0  0  0  0  0  0
  133.6910  124.2300   62.9710 N   0  0  0  0  0  0  0  0  0  0  0  0
  133.8700  123.4960   61.8480 C   0  0  0  0  0  0  0  0  0  0  0  0
  135.1410  123.7840   61.0690 C   0  0  0  0  0  0  0  0  0  0  0  0
  132.9550  122.5360   61.4220 C   0  0  0  0  0  0  0  0  0  0  0  0
  131.8060  122.3080   62.1860 C   0  0  0  0  0  0  0  0  0  0  0  0
  130.8240  121.2390   61.7080 C   0  0  0  0  0  0  0  0  0  0  0  0
  131.5980  123.0600   63.3650 C   0  0  0  0  0  0  0  0  0  0  0  0
  130.4260  122.8030   64.2070 C   0  0  0  0  0  0  0  0  0  0  0  0
  129.5000  122.5990   64.8690 N   0  0  0  0  0  0  0  0  0  0  0  0
  128.3180  126.2880   69.0490 C   0  0  0  0  0  0  0  0  0  0  0  0
  127.8670  126.5230   70.3450 C   0  0  0  0  0  0  0  0  0  0  0  0
  124.3296  127.5264   74.9580 H   0  0  0  0  0  0  0  0  0  0  0  0
  124.0668  128.3853   73.4024 H   0  0  0  0  0  0  0  0  0  0  0  0
  124.5768  126.6629   73.4024 H   0  0  0  0  0  0  0  0  0  0  0  0
  126.2023  129.1613   73.8601 H   0  0  0  0  0  0  0  0  0  0  0  0
  126.6364  127.7137   74.8307 H   0  0  0  0  0  0  0  0  0  0  0  0
  130.4032  128.5195   71.4567 H   0  0  0  0  0  0  0  0  0  0  0  0
  131.2089  128.1004   69.1468 H   0  0  0  0  0  0  0  0  0  0  0  0
  130.4700  127.5350   66.9350 H   0  0  0  0  0  0  0  0  0  0  0  0
  130.1896  125.3203   64.3933 H   0  0  0  0  0  0  0  0  0  0  0  0
  130.8996  126.8781   64.9999 H   0  0  0  0  0  0  0  0  0  0  0  0
  135.9669  123.9711   61.7711 H   0  0  0  0  0  0  0  0  0  0  0  0
  135.3870  122.9188   60.4358 H   0  0  0  0  0  0  0  0  0  0  0  0
  134.9900  124.6707   60.4358 H   0  0  0  0  0  0  0  0  0  0  0  0
  133.1335  121.9657   60.4985 H   0  0  0  0  0  0  0  0  0  0  0  0
  130.3690  120.7436   62.5784 H   0  0  0  0  0  0  0  0  0  0  0  0
  130.0367  121.7096   61.1008 H   0  0  0  0  0  0  0  0  0  0  0  0
  131.3595  120.4944   61.1008 H   0  0  0  0  0  0  0  0  0  0  0  0
  127.7303  125.6527   68.3700 H   0  0  0  0  0  0  0  0  0  0  0  0
  126.9217  126.0730   70.6825 H   0  0  0  0  0  0  0  0  0  0  0  0
  1  2  1  0
  2  3  1  0
  3  4  1  0
  4  5  2  0
  4  6  1  0
  6  7  2  0
  7  8  1  0
  8  9  2  0
  9 10  1  0
 10 11  1  0
 11 12  2  0
 11 13  1  0
 13 14  1  0
 14 15  1  0
 15 16  2  0
 16 17  1  0
 17 18  1  0
 17 19  2  0
 19 20  1  0
 20 21  1  0
 20 22  2  0
 22 23  1  0
 23 24  3  0
  9 25  1  0
 25 26  2  0
 26  6  1  0
 22 15  1  0
  1 27  1  0
  1 28  1  0
  1 29  1  0
  2 30  1  0
  2 31  1  0
  7 32  1  0
  8 33  1  0
 10 34  1  0
 13 35  1  0
 13 36  1  0
 18 37  1  0
 18 38  1  0
 18 39  1  0
 19 40  1  0
 21 41  1  0
 21 42  1  0
 21 43  1  0
 25 44  1  0
 26 45  1  0
M  END
>  <Binding energies>  (1) 
[-8.04]

>  <Ligand effiencies>  (1) 
[-0.29777777777777775]

>  <Interactions>  (1) 
["V-B:TYR:539:CE2:9845, V-A:HIS:456:CE1:4066, V-A:GLY:453:C:4038, V-A:GLY:453:CA:4040, V-B:ALA:541:CB:9861, H-A:GLY:454:N:4046, H-A:TYR:484:OH:4344, V-A:GLY:454:CA:4045, V-B:TYR:539:CD2:9843, V-A:ASP:366:CG:3209, V-A:TYR:484:CE1:4341, V-B:HIS:456:CD2:9036, V-B:LYS:547:CD:9918, H-A:LYS:547:NZ:4948, V-B:GLY:544:C:9881, V-B:LYS:547:CE:9919, V-B:GLU:543:CB:9875, V-B:HIS:456:CB:9033, V-B:HIS:456:CE1:9038, V-A:LEU:475:CD1:4254, V-A:ILE:369:CG1:3234, H-A:GLU:543:OE1:4906, V-B:GLU:543:C:9871, V-B:HIS:456:C:9029, V-B:HIS:456:CG:9034, V-A:ASP:366:CA:3206, V-B:HIS:456:CA:9031"]

$$$$
1aa_Ghoteimi_2023
     RDKit          3D

 67 70  0  0  0  0  0  0  0  0999 V2000
  124.3120  124.2190   58.1440 C   0  0  0  0  0  0  0  0  0  0  0  0
  124.9790  123.4890   56.9750 C   0  0  0  0  0  0  0  0  0  0  0  0
  126.3890  123.6640   57.0510 O   0  0  0  0  0  0  0  0  0  0  0  0
  127.1930  122.6740   57.5170 C   0  0  0  0  0  0  0  0  0  0  0  0
  127.4090  121.6260   56.9010 O   0  0  0  0  0  0  0  0  0  0  0  0
  127.7960  122.9800   58.8580 C   0  0  0  0  0  0  0  0  0  0  0  0
  128.6370  122.0710   59.5190 C   0  0  0  0  0  0  0  0  0  0  0  0
  129.1820  122.3820   60.7620 C   0  0  0  0  0  0  0  0  0  0  0  0
  128.8970  123.6150   61.3670 C   0  0  0  0  0  0  0  0  0  0  0  0
  129.3890  124.0370   62.6160 N   0  0  0  0  0  0  0  0  0  0  0  0
  129.9130  123.3220   63.6390 C   0  0  0  0  0  0  0  0  0  0  0  0
  130.0610  122.1000   63.6400 O   0  0  0  0  0  0  0  0  0  0  0  0
  130.3560  124.1010   64.8870 C   0  0  0  0  0  0  0  0  0  0  0  0
  130.4160  125.5060   64.6080 O   0  0  0  0  0  0  0  0  0  0  0  0
  129.6410  126.3990   65.3330 C   0  0  0  0  0  0  0  0  0  0  0  0
  129.7990  126.4340   66.6850 N   0  0  0  0  0  0  0  0  0  0  0  0
  129.0470  127.2850   67.4320 C   0  0  0  0  0  0  0  0  0  0  0  0
  129.2830  127.2640   68.9150 C   0  0  0  0  0  0  0  0  0  0  0  0
  128.4220  126.5650   69.7730 C   0  0  0  0  0  0  0  0  0  0  0  0
  128.6370  126.5450   71.1480 C   0  0  0  0  0  0  0  0  0  0  0  0
  129.7190  127.2210   71.7080 C   0  0  0  0  0  0  0  0  0  0  0  0
  129.8530  127.1460   73.0810 O   0  0  0  0  0  0  0  0  0  0  0  0
  128.6990  127.2980   73.9000 C   0  0  0  0  0  0  0  0  0  0  0  0
  130.5920  127.9190   70.8630 C   0  0  0  0  0  0  0  0  0  0  0  0
  130.3750  127.9370   69.4880 C   0  0  0  0  0  0  0  0  0  0  0  0
  128.1240  128.1440   66.8230 C   0  0  0  0  0  0  0  0  0  0  0  0
  127.9500  128.1360   65.4320 C   0  0  0  0  0  0  0  0  0  0  0  0
  126.9580  129.0830   64.8420 C   0  0  0  0  0  0  0  0  0  0  0  0
  125.6270  129.0660   65.2730 C   0  0  0  0  0  0  0  0  0  0  0  0
  124.6980  129.9520   64.7350 C   0  0  0  0  0  0  0  0  0  0  0  0
  125.0790  130.8760   63.7630 C   0  0  0  0  0  0  0  0  0  0  0  0
  124.0900  131.7150   63.2870 O   0  0  0  0  0  0  0  0  0  0  0  0
  123.8800  131.8140   61.8830 C   0  0  0  0  0  0  0  0  0  0  0  0
  126.4140  130.9020   63.3330 C   0  0  0  0  0  0  0  0  0  0  0  0
  127.3420  130.0140   63.8720 C   0  0  0  0  0  0  0  0  0  0  0  0
  128.7240  127.2320   64.6680 C   0  0  0  0  0  0  0  0  0  0  0  0
  128.5800  127.1210   63.2160 C   0  0  0  0  0  0  0  0  0  0  0  0
  128.4680  127.0320   62.0680 N   0  0  0  0  0  0  0  0  0  0  0  0
  128.0600  124.5200   60.7130 C   0  0  0  0  0  0  0  0  0  0  0  0
  127.5150  124.2080   59.4710 C   0  0  0  0  0  0  0  0  0  0  0  0
  124.6864  123.8093   59.0937 H   0  0  0  0  0  0  0  0  0  0  0  0
  124.5483  125.2919   58.0891 H   0  0  0  0  0  0  0  0  0  0  0  0
  123.2222  124.0803   58.0891 H   0  0  0  0  0  0  0  0  0  0  0  0
  124.7390  122.4168   57.0270 H   0  0  0  0  0  0  0  0  0  0  0  0
  124.6083  123.9013   56.0249 H   0  0  0  0  0  0  0  0  0  0  0  0
  128.8678  121.1031   59.0502 H   0  0  0  0  0  0  0  0  0  0  0  0
  129.8373  121.6594   61.2705 H   0  0  0  0  0  0  0  0  0  0  0  0
  129.3430  125.0360   62.7600 H   0  0  0  0  0  0  0  0  0  0  0  0
  129.6353  123.9238   65.6989 H   0  0  0  0  0  0  0  0  0  0  0  0
  131.3566  123.7549   65.1853 H   0  0  0  0  0  0  0  0  0  0  0  0
  127.5621  126.0233   69.3523 H   0  0  0  0  0  0  0  0  0  0  0  0
  127.9457  125.9899   71.7991 H   0  0  0  0  0  0  0  0  0  0  0  0
  128.9934  127.2592   74.9592 H   0  0  0  0  0  0  0  0  0  0  0  0
  128.2231  128.2666   73.6869 H   0  0  0  0  0  0  0  0  0  0  0  0
  127.9886  126.4857   73.6869 H   0  0  0  0  0  0  0  0  0  0  0  0
  131.4531  128.4554   71.2882 H   0  0  0  0  0  0  0  0  0  0  0  0
  131.0711  128.4881   68.8385 H   0  0  0  0  0  0  0  0  0  0  0  0
  127.5296  128.8319   67.4422 H   0  0  0  0  0  0  0  0  0  0  0  0
  125.3122  128.3466   66.0433 H   0  0  0  0  0  0  0  0  0  0  0  0
  123.6539  129.9229   65.0798 H   0  0  0  0  0  0  0  0  0  0  0  0
  122.9004  132.2758   61.6904 H   0  0  0  0  0  0  0  0  0  0  0  0
  124.6716  132.4337   61.4366 H   0  0  0  0  0  0  0  0  0  0  0  0
  123.9057  130.8090   61.4366 H   0  0  0  0  0  0  0  0  0  0  0  0
  126.7291  131.6263   62.5674 H   0  0  0  0  0  0  0  0  0  0  0  0
  128.3874  130.0455   63.5311 H   0  0  0  0  0  0  0  0  0  0  0  0
  127.8292  125.4875   61.1828 H   0  0  0  0  0  0  0  0  0  0  0  0
  126.8580  124.9317   58.9664 H   0  0  0  0  0  0  0  0  0  0  0  0
  1  2  1  0
  2  3  1  0
  3  4  1  0
  4  5  2  0
  4  6  1  0
  6  7  2  0
  7  8  1  0
  8  9  2  0
  9 10  1  0
 10 11  1  0
 11 12  2  0
 11 13  1  0
 13 14  1  0
 14 15  1  0
 15 16  2  0
 16 17  1  0
 17 18  1  0
 18 19  2  0
 19 20  1  0
 20 21  2  0
 21 22  1  0
 22 23  1  0
 21 24  1  0
 24 25  2  0
 17 26  2  0
 26 27  1  0
 27 28  1  0
 28 29  2  0
 29 30  1  0
 30 31  2  0
 31 32  1  0
 32 33  1  0
 31 34  1  0
 34 35  2  0
 27 36  2  0
 36 37  1  0
 37 38  3  0
  9 39  1  0
 39 40  2  0
 40  6  1  0
 36 15  1  0
 25 18  1  0
 35 28  1  0
  1 41  1  0
  1 42  1  0
  1 43  1  0
  2 44  1  0
  2 45  1  0
  7 46  1  0
  8 47  1  0
 10 48  1  0
 13 49  1  0
 13 50  1  0
 19 51  1  0
 20 52  1  0
 23 53  1  0
 23 54  1  0
 23 55  1  0
 24 56  1  0
 25 57  1  0
 26 58  1  0
 29 59  1  0
 30 60  1  0
 33 61  1  0
 33 62  1  0
 33 63  1  0
 34 64  1  0
 35 65  1  0
 39 66  1  0
 40 67  1  0
M  END
>  <Binding energies>  (1) 
[-9.91]

>  <Ligand effiencies>  (1) 
[-0.24170731707317072]

>  <Interactions>  (1) 
["V-B:TYR:539:CE2:9845, V-A:HIS:456:CE1:4066, V-B:TYR:539:CZ:9846, V-B:PRO:540:CA:9852, V-B:ALA:541:CB:9861, V-B:TYR:539:C:9836, V-B:PRO:540:N:9853, V-B:PRO:540:CB:9854, V-B:TYR:539:CD2:9843, H-B:GLU:543:OE2:9879, V-A:TYR:484:CE1:4341, V-A:LYS:547:CE:4947, H-A:LYS:547:NZ:4948, V-B:LYS:547:CE:9919, V-B:GLU:543:CD:9877, V-A:GLU:543:C:4899, V-B:HIS:456:CE1:9038, V-B:GLU:543:CG:9876, V-A:GLY:544:C:4909, V-A:GLU:543:CD:4905, H-B:GLY:454:N:9018, V-B:ARG:545:CZ:9895, H-B:TYR:539:N:9839, V-A:HIS:456:CD2:4064, V-B:LEU:363:CD1:8157, V-B:ASP:366:CG:8181, V-B:ILE:369:CD1:8207"]

$$$$
1b_Ghoteimi_2023
     RDKit          3D

 54 57  0  0  0  0  0  0  0  0999 V2000
  128.4420  127.6160   74.3010 C   0  0  0  0  0  0  0  0  0  0  0  0
  129.4960  127.1920   73.4450 O   0  0  0  0  0  0  0  0  0  0  0  0
  129.2860  127.1660   72.0800 C   0  0  0  0  0  0  0  0  0  0  0  0
  130.1770  127.8970   71.2960 C   0  0  0  0  0  0  0  0  0  0  0  0
  130.0420  127.9300   69.9110 C   0  0  0  0  0  0  0  0  0  0  0  0
  129.0120  127.2290   69.2660 C   0  0  0  0  0  0  0  0  0  0  0  0
  128.8690  127.2680   67.7700 C   0  0  0  0  0  0  0  0  0  0  0  0
  128.0110  128.1550   67.1110 C   0  0  0  0  0  0  0  0  0  0  0  0
  127.9170  128.1540   65.7140 C   0  0  0  0  0  0  0  0  0  0  0  0
  126.9760  129.1250   65.0780 C   0  0  0  0  0  0  0  0  0  0  0  0
  125.5960  128.9730   65.2320 C   0  0  0  0  0  0  0  0  0  0  0  0
  124.7150  129.8700   64.6350 C   0  0  0  0  0  0  0  0  0  0  0  0
  125.1950  130.9330   63.8690 C   0  0  0  0  0  0  0  0  0  0  0  0
  124.2480  131.7720   63.3150 O   0  0  0  0  0  0  0  0  0  0  0  0
  123.8990  131.6140   61.9440 C   0  0  0  0  0  0  0  0  0  0  0  0
  126.5800  131.0850   63.7060 C   0  0  0  0  0  0  0  0  0  0  0  0
  127.4580  130.1850   64.3040 C   0  0  0  0  0  0  0  0  0  0  0  0
  128.7200  127.2440   64.9840 C   0  0  0  0  0  0  0  0  0  0  0  0
  128.7310  127.2680   63.5190 C   0  0  0  0  0  0  0  0  0  0  0  0
  128.7380  127.2890   62.3610 N   0  0  0  0  0  0  0  0  0  0  0  0
  129.5500  126.3610   65.7120 C   0  0  0  0  0  0  0  0  0  0  0  0
  130.6180  125.1470   64.9660 S   0  0  0  0  0  0  0  0  0  0  0  0
  132.3420  125.6980   65.1970 C   0  0  0  0  0  0  0  0  0  0  0  0
  133.3490  125.1200   64.1920 C   0  0  0  0  0  0  0  0  0  0  0  0
  134.5460  125.0420   64.4750 O   0  0  0  0  0  0  0  0  0  0  0  0
  132.8090  124.7260   63.0170 N   0  0  0  0  0  0  0  0  0  0  0  0
  133.4740  124.1690   61.9310 C   0  0  0  0  0  0  0  0  0  0  0  0
  132.8340  123.8260   60.7410 C   0  0  0  0  0  0  0  0  0  0  0  0
  133.8270  123.3160   59.9350 C   0  0  0  0  0  0  0  0  0  0  0  0
  135.0040  123.3520   60.6050 O   0  0  0  0  0  0  0  0  0  0  0  0
  134.7670  123.8960   61.8690 N   0  0  0  0  0  0  0  0  0  0  0  0
  129.6310  126.3930   67.0640 N   0  0  0  0  0  0  0  0  0  0  0  0
  128.1200  126.4970   70.0650 C   0  0  0  0  0  0  0  0  0  0  0  0
  128.2500  126.4630   71.4500 C   0  0  0  0  0  0  0  0  0  0  0  0
  128.7493  127.4924   75.3499 H   0  0  0  0  0  0  0  0  0  0  0  0
  128.2160  128.6750   74.1075 H   0  0  0  0  0  0  0  0  0  0  0  0
  127.5456  127.0085   74.1075 H   0  0  0  0  0  0  0  0  0  0  0  0
  130.9951  128.4534   71.7767 H   0  0  0  0  0  0  0  0  0  0  0  0
  130.7550  128.5156   69.3121 H   0  0  0  0  0  0  0  0  0  0  0  0
  127.4037  128.8608   67.6967 H   0  0  0  0  0  0  0  0  0  0  0  0
  125.2024  128.1377   65.8299 H   0  0  0  0  0  0  0  0  0  0  0  0
  123.6309  129.7398   64.7682 H   0  0  0  0  0  0  0  0  0  0  0  0
  122.8992  131.1614   61.8700 H   0  0  0  0  0  0  0  0  0  0  0  0
  123.8936  132.5975   61.4513 H   0  0  0  0  0  0  0  0  0  0  0  0
  124.6345  130.9611   61.4513 H   0  0  0  0  0  0  0  0  0  0  0  0
  126.9734  131.9175   63.1041 H   0  0  0  0  0  0  0  0  0  0  0  0
  128.5422  130.3092   64.1661 H   0  0  0  0  0  0  0  0  0  0  0  0
  132.3643  126.7943   65.1100 H   0  0  0  0  0  0  0  0  0  0  0  0
  132.6514  125.3317   66.1870 H   0  0  0  0  0  0  0  0  0  0  0  0
  131.8120  124.8320   62.9070 H   0  0  0  0  0  0  0  0  0  0  0  0
  131.7670  123.9384   60.4985 H   0  0  0  0  0  0  0  0  0  0  0  0
  133.6871  122.9396   58.9109 H   0  0  0  0  0  0  0  0  0  0  0  0
  127.3016  125.9389   69.5867 H   0  0  0  0  0  0  0  0  0  0  0  0
  127.5367  125.8819   72.0529 H   0  0  0  0  0  0  0  0  0  0  0  0
  1  2  1  0
  2  3  1  0
  3  4  2  0
  4  5  1  0
  5  6  2  0
  6  7  1  0
  7  8  2  0
  8  9  1  0
  9 10  1  0
 10 11  2  0
 11 12  1  0
 12 13  2  0
 13 14  1  0
 14 15  1  0
 13 16  1  0
 16 17  2  0
  9 18  2  0
 18 19  1  0
 19 20  3  0
 18 21  1  0
 21 22  1  0
 22 23  1  0
 23 24  1  0
 24 25  2  0
 24 26  1  0
 26 27  1  0
 27 28  1  0
 28 29  2  0
 29 30  1  0
 30 31  1  0
 21 32  2  0
  6 33  1  0
 33 34  2  0
 34  3  1  0
 32  7  1  0
 17 10  1  0
 31 27  2  0
  1 35  1  0
  1 36  1  0
  1 37  1  0
  4 38  1  0
  5 39  1  0
  8 40  1  0
 11 41  1  0
 12 42  1  0
 15 43  1  0
 15 44  1  0
 15 45  1  0
 16 46  1  0
 17 47  1  0
 23 48  1  0
 23 49  1  0
 26 50  1  0
 28 51  1  0
 29 52  1  0
 33 53  1  0
 34 54  1  0
M  END
>  <Binding energies>  (1) 
[-9.63]

>  <Ligand effiencies>  (1) 
[-0.2751428571428572]

>  <Interactions>  (1) 
["V-B:TYR:539:CE2:9845, V-A:HIS:456:CE1:4066, V-B:TYR:539:CZ:9846, V-A:ARG:545:CZ:4923, H-A:GLY:454:N:4046, H-A:TYR:484:OH:4344, V-A:ASP:366:CG:3209, V-B:HIS:456:CD2:9036, V-A:LYS:547:CE:4947, H-A:LYS:547:NZ:4948, V-B:LYS:547:CE:9919, V-B:GLU:543:CD:9877, V-A:GLU:543:C:4899, V-B:HIS:456:CE1:9038, V-A:GLU:543:CD:4905, V-A:ILE:369:CB:3232, H-A:ARG:545:NH1:4924, V-A:ILE:369:CG2:3233, V-A:ILE:369:CG1:3234, H-B:GLY:454:N:9018, V-B:ARG:545:CZ:9895, V-A:GLU:543:CG:4904, H-A:ARG:545:NE:4921, V-B:ASP:366:CG:8181, V-A:ASP:366:CA:3206, V-B:ILE:369:CD1:8207"]

$$$$
1b_Grossjean_2025
     RDKit          3D

 42 43  0  0  0  0  0  0  0  0999 V2000
  129.1180  129.7110   73.1360 C   0  0  0  0  0  0  0  0  0  0  0  0
  129.2590  128.3010   73.0230 O   0  0  0  0  0  0  0  0  0  0  0  0
  128.4240  127.5770   72.2350 C   0  0  0  0  0  0  0  0  0  0  0  0
  127.3280  127.1530   72.6140 O   0  0  0  0  0  0  0  0  0  0  0  0
  128.9620  127.3480   70.8510 C   0  0  0  0  0  0  0  0  0  0  0  0
  130.1390  127.9660   70.4010 C   0  0  0  0  0  0  0  0  0  0  0  0
  130.6100  127.7340   69.1120 C   0  0  0  0  0  0  0  0  0  0  0  0
  129.9210  126.8830   68.2490 C   0  0  0  0  0  0  0  0  0  0  0  0
  130.4880  126.7240   66.9700 N   0  0  0  0  0  0  0  0  0  0  0  0
  130.3010  125.7520   66.0500 C   0  0  0  0  0  0  0  0  0  0  0  0
  129.5540  124.7830   66.1750 O   0  0  0  0  0  0  0  0  0  0  0  0
  131.0970  125.9160   64.7540 C   0  0  0  0  0  0  0  0  0  0  0  0
  132.7320  125.1270   64.8490 S   0  0  0  0  0  0  0  0  0  0  0  0
  132.8860  124.0520   63.4380 C   0  0  0  0  0  0  0  0  0  0  0  0
  133.9830  124.2990   62.6800 N   0  0  0  0  0  0  0  0  0  0  0  0
  134.1990  123.5390   61.5820 C   0  0  0  0  0  0  0  0  0  0  0  0
  135.4540  123.8620   60.7910 C   0  0  0  0  0  0  0  0  0  0  0  0
  133.3340  122.5190   61.1920 C   0  0  0  0  0  0  0  0  0  0  0  0
  132.1880  122.2710   61.9540 C   0  0  0  0  0  0  0  0  0  0  0  0
  131.2450  121.1590   61.4980 C   0  0  0  0  0  0  0  0  0  0  0  0
  131.9410  123.0530   63.1060 C   0  0  0  0  0  0  0  0  0  0  0  0
  130.7260  122.8410   63.8950 C   0  0  0  0  0  0  0  0  0  0  0  0
  129.7650  122.6720   64.5160 N   0  0  0  0  0  0  0  0  0  0  0  0
  128.7430  126.2610   68.6910 C   0  0  0  0  0  0  0  0  0  0  0  0
  128.2730  126.4940   69.9800 C   0  0  0  0  0  0  0  0  0  0  0  0
  129.0898  129.9927   74.1990 H   0  0  0  0  0  0  0  0  0  0  0  0
  129.9712  130.2051   72.6482 H   0  0  0  0  0  0  0  0  0  0  0  0
  128.1838  130.0263   72.6482 H   0  0  0  0  0  0  0  0  0  0  0  0
  130.6933  128.6387   71.0720 H   0  0  0  0  0  0  0  0  0  0  0  0
  131.5331  128.2259   68.7715 H   0  0  0  0  0  0  0  0  0  0  0  0
  131.1440  127.4500   66.7200 H   0  0  0  0  0  0  0  0  0  0  0  0
  130.5302  125.4587   63.9297 H   0  0  0  0  0  0  0  0  0  0  0  0
  131.2502  126.9921   64.5853 H   0  0  0  0  0  0  0  0  0  0  0  0
  136.2804  124.0747   61.4852 H   0  0  0  0  0  0  0  0  0  0  0  0
  135.7193  123.0029   60.1574 H   0  0  0  0  0  0  0  0  0  0  0  0
  135.2716  124.7425   60.1574 H   0  0  0  0  0  0  0  0  0  0  0  0
  133.5495  121.9170   60.2970 H   0  0  0  0  0  0  0  0  0  0  0  0
  130.8184  120.6560   62.3784 H   0  0  0  0  0  0  0  0  0  0  0  0
  130.4338  121.5910   60.8936 H   0  0  0  0  0  0  0  0  0  0  0  0
  131.8038  120.4293   60.8936 H   0  0  0  0  0  0  0  0  0  0  0  0
  128.1907  125.5887   68.0179 H   0  0  0  0  0  0  0  0  0  0  0  0
  127.3495  126.0018   70.3190 H   0  0  0  0  0  0  0  0  0  0  0  0
  1  2  1  0
  2  3  1  0
  3  4  2  0
  3  5  1  0
  5  6  2  0
  6  7  1  0
  7  8  2  0
  8  9  1  0
  9 10  1  0
 10 11  2  0
 10 12  1  0
 12 13  1  0
 13 14  1  0
 14 15  2  0
 15 16  1  0
 16 17  1  0
 16 18  2  0
 18 19  1  0
 19 20  1  0
 19 21  2  0
 21 22  1  0
 22 23  3  0
  8 24  1  0
 24 25  2  0
 25  5  1  0
 21 14  1  0
  1 26  1  0
  1 27  1  0
  1 28  1  0
  6 29  1  0
  7 30  1  0
  9 31  1  0
 12 32  1  0
 12 33  1  0
 17 34  1  0
 17 35  1  0
 17 36  1  0
 18 37  1  0
 20 38  1  0
 20 39  1  0
 20 40  1  0
 24 41  1  0
 25 42  1  0
M  END
>  <Binding energies>  (1) 
[-7.64]

>  <Ligand effiencies>  (1) 
[-0.2938461538461538]

>  <Interactions>  (1) 
["V-B:TYR:539:CE2:9845, V-A:HIS:456:CE1:4066, V-A:GLY:453:C:4038, V-A:GLY:453:CA:4040, H-A:GLY:454:N:4046, H-A:TYR:484:OH:4344, V-A:GLY:454:CA:4045, V-B:TYR:539:CD2:9843, V-A:ASP:366:CG:3209, V-B:HIS:456:CD2:9036, V-A:GLU:543:CB:4903, V-A:LYS:547:CE:4947, H-A:LYS:547:NZ:4948, V-B:GLU:543:CB:9875, V-A:GLU:543:C:4899, V-B:HIS:456:CE1:9038, V-A:ILE:369:CB:3232, V-A:LEU:475:CD1:4254, V-A:ILE:369:CG1:3234, H-A:GLU:543:OE1:4906, V-A:ASP:366:CB:3208, V-A:ASP:366:CA:3206, V-A:CYS:365:C:3200"]

$$$$
1c_Ghoteimi_2023
     RDKit          3D

 54 57  0  0  0  0  0  0  0  0999 V2000
  130.2520  125.6470   73.6520 C   0  0  0  0  0  0  0  0  0  0  0  0
  129.8500  126.8940   73.0940 O   0  0  0  0  0  0  0  0  0  0  0  0
  129.5490  126.9660   71.7470 C   0  0  0  0  0  0  0  0  0  0  0  0
  130.4410  127.6730   70.9450 C   0  0  0  0  0  0  0  0  0  0  0  0
  130.2150  127.7990   69.5770 C   0  0  0  0  0  0  0  0  0  0  0  0
  129.0880  127.2220   68.9700 C   0  0  0  0  0  0  0  0  0  0  0  0
  128.8390  127.3600   67.4960 C   0  0  0  0  0  0  0  0  0  0  0  0
  128.0320  128.3680   66.9570 C   0  0  0  0  0  0  0  0  0  0  0  0
  127.8500  128.4730   65.5730 C   0  0  0  0  0  0  0  0  0  0  0  0
  127.0310  129.6120   65.0630 C   0  0  0  0  0  0  0  0  0  0  0  0
  127.5900  130.8860   64.9290 C   0  0  0  0  0  0  0  0  0  0  0  0
  126.8200  131.9520   64.4750 C   0  0  0  0  0  0  0  0  0  0  0  0
  125.4770  131.7660   64.1500 C   0  0  0  0  0  0  0  0  0  0  0  0
  124.7890  132.8800   63.7060 O   0  0  0  0  0  0  0  0  0  0  0  0
  123.9790  132.7780   62.5400 C   0  0  0  0  0  0  0  0  0  0  0  0
  124.9100  130.4900   64.2890 C   0  0  0  0  0  0  0  0  0  0  0  0
  125.6820  129.4250   64.7440 C   0  0  0  0  0  0  0  0  0  0  0  0
  128.4770  127.5180   64.7370 C   0  0  0  0  0  0  0  0  0  0  0  0
  128.2980  127.5530   63.2820 C   0  0  0  0  0  0  0  0  0  0  0  0
  128.1570  127.5830   62.1330 N   0  0  0  0  0  0  0  0  0  0  0  0
  129.2900  126.5400   65.3450 C   0  0  0  0  0  0  0  0  0  0  0  0
  130.2700  125.3860   64.4100 S   0  0  0  0  0  0  0  0  0  0  0  0
  131.9200  125.4430   65.1810 C   0  0  0  0  0  0  0  0  0  0  0  0
  133.0320  125.0720   64.1950 C   0  0  0  0  0  0  0  0  0  0  0  0
  134.2010  125.0290   64.5840 O   0  0  0  0  0  0  0  0  0  0  0  0
  132.6170  124.7720   62.9450 N   0  0  0  0  0  0  0  0  0  0  0  0
  133.3910  124.2620   61.9140 C   0  0  0  0  0  0  0  0  0  0  0  0
  134.6810  124.0010   61.9260 N   0  0  0  0  0  0  0  0  0  0  0  0
  135.0790  123.4840   60.7800 C   0  0  0  0  0  0  0  0  0  0  0  0
  134.0990  123.3150   59.8070 C   0  0  0  0  0  0  0  0  0  0  0  0
  132.5760  123.8680   60.4360 S   0  0  0  0  0  0  0  0  0  0  0  0
  129.4710  126.4710   66.6860 N   0  0  0  0  0  0  0  0  0  0  0  0
  128.2000  126.5080   69.7880 C   0  0  0  0  0  0  0  0  0  0  0  0
  128.4210  126.3800   71.1560 C   0  0  0  0  0  0  0  0  0  0  0  0
  130.2308  125.7127   74.7498 H   0  0  0  0  0  0  0  0  0  0  0  0
  129.5630  124.8570   73.3186 H   0  0  0  0  0  0  0  0  0  0  0  0
  131.2727  125.4081   73.3186 H   0  0  0  0  0  0  0  0  0  0  0  0
  131.3313  128.1357   71.3958 H   0  0  0  0  0  0  0  0  0  0  0  0
  130.9323  128.3607   68.9606 H   0  0  0  0  0  0  0  0  0  0  0  0
  127.5357  129.0850   67.6275 H   0  0  0  0  0  0  0  0  0  0  0  0
  128.6477  131.0471   65.1847 H   0  0  0  0  0  0  0  0  0  0  0  0
  127.2739  132.9486   64.3717 H   0  0  0  0  0  0  0  0  0  0  0  0
  122.9275  132.6456   62.8345 H   0  0  0  0  0  0  0  0  0  0  0  0
  124.0796  133.6959   61.9422 H   0  0  0  0  0  0  0  0  0  0  0  0
  124.3040  131.9137   61.9422 H   0  0  0  0  0  0  0  0  0  0  0  0
  123.8511  130.3308   64.0373 H   0  0  0  0  0  0  0  0  0  0  0  0
  125.2280  128.4291   64.8535 H   0  0  0  0  0  0  0  0  0  0  0  0
  132.1021  126.4619   65.5534 H   0  0  0  0  0  0  0  0  0  0  0  0
  131.9358  124.7089   66.0000 H   0  0  0  0  0  0  0  0  0  0  0  0
  131.6300  124.8540   62.7520 H   0  0  0  0  0  0  0  0  0  0  0  0
  136.1275  123.2021   60.6032 H   0  0  0  0  0  0  0  0  0  0  0  0
  134.2618  122.8986   58.8019 H   0  0  0  0  0  0  0  0  0  0  0  0
  127.3114  126.0400   69.3393 H   0  0  0  0  0  0  0  0  0  0  0  0
  127.7078  125.8169   71.7759 H   0  0  0  0  0  0  0  0  0  0  0  0
  1  2  1  0
  2  3  1  0
  3  4  2  0
  4  5  1  0
  5  6  2  0
  6  7  1  0
  7  8  2  0
  8  9  1  0
  9 10  1  0
 10 11  2  0
 11 12  1  0
 12 13  2  0
 13 14  1  0
 14 15  1  0
 13 16  1  0
 16 17  2  0
  9 18  2  0
 18 19  1  0
 19 20  3  0
 18 21  1  0
 21 22  1  0
 22 23  1  0
 23 24  1  0
 24 25  2  0
 24 26  1  0
 26 27  1  0
 27 28  2  0
 28 29  1  0
 29 30  2  0
 30 31  1  0
 21 32  2  0
  6 33  1  0
 33 34  2  0
 34  3  1  0
 32  7  1  0
 17 10  1  0
 31 27  1  0
  1 35  1  0
  1 36  1  0
  1 37  1  0
  4 38  1  0
  5 39  1  0
  8 40  1  0
 11 41  1  0
 12 42  1  0
 15 43  1  0
 15 44  1  0
 15 45  1  0
 16 46  1  0
 17 47  1  0
 23 48  1  0
 23 49  1  0
 26 50  1  0
 29 51  1  0
 30 52  1  0
 33 53  1  0
 34 54  1  0
M  END
>  <Binding energies>  (1) 
[-9.49]

>  <Ligand effiencies>  (1) 
[-0.27114285714285713]

>  <Interactions>  (1) 
["V-B:TYR:539:CE2:9845, V-A:HIS:456:CE1:4066, V-B:TYR:539:CZ:9846, V-A:GLY:453:C:4038, V-A:ARG:545:CZ:4923, V-A:GLY:453:CA:4040, H-A:GLY:454:N:4046, V-A:ASP:366:CG:3209, H-A:LYS:547:NZ:4948, V-B:LYS:547:CE:9919, V-B:GLU:543:CD:9877, V-A:GLU:543:C:4899, V-B:HIS:456:CE1:9038, V-B:GLU:543:CG:9876, V-A:GLY:544:C:4909, V-A:GLU:543:CD:4905, V-A:ILE:369:CB:3232, H-A:ARG:545:NH1:4924, V-A:ILE:369:CG2:3233, V-A:ILE:369:CG1:3234, H-B:GLY:454:N:9018, V-B:ARG:545:CZ:9895, H-B:TYR:484:OH:9316, V-A:GLU:543:CG:4904, V-A:ASP:366:CB:3208, V-A:HIS:456:CD2:4064, H-A:ARG:545:NE:4921, V-B:TYR:484:CE1:9313, V-B:TYR:484:CZ:9315, V-B:GLY:454:CA:9017, V-A:ASP:366:CA:3206, V-B:ILE:369:CD1:8207"]

$$$$
1c_Grossjean_2025
     RDKit          3D

 40 41  0  0  0  0  0  0  0  0999 V2000
  127.7620  127.7360   73.0960 C   0  0  0  0  0  0  0  0  0  0  0  0
  129.1220  127.9570   72.7380 O   0  0  0  0  0  0  0  0  0  0  0  0
  129.5140  127.7600   71.4280 C   0  0  0  0  0  0  0  0  0  0  0  0
  128.6440  127.0280   70.6210 C   0  0  0  0  0  0  0  0  0  0  0  0
  128.9500  126.7770   69.2870 C   0  0  0  0  0  0  0  0  0  0  0  0
  130.1440  127.2680   68.7380 C   0  0  0  0  0  0  0  0  0  0  0  0
  130.5570  127.0650   67.4070 N   0  0  0  0  0  0  0  0  0  0  0  0
  130.3890  125.9860   66.6130 C   0  0  0  0  0  0  0  0  0  0  0  0
  129.8020  124.9520   66.9280 O   0  0  0  0  0  0  0  0  0  0  0  0
  130.9890  126.1050   65.2100 C   0  0  0  0  0  0  0  0  0  0  0  0
  132.6550  125.3860   65.1230 S   0  0  0  0  0  0  0  0  0  0  0  0
  132.7090  124.2560   63.7470 C   0  0  0  0  0  0  0  0  0  0  0  0
  133.7940  124.4270   62.9500 N   0  0  0  0  0  0  0  0  0  0  0  0
  133.9420  123.6240   61.8700 C   0  0  0  0  0  0  0  0  0  0  0  0
  135.1840  123.8680   61.0330 C   0  0  0  0  0  0  0  0  0  0  0  0
  133.0200  122.6350   61.5360 C   0  0  0  0  0  0  0  0  0  0  0  0
  131.8850  122.4670   62.3360 C   0  0  0  0  0  0  0  0  0  0  0  0
  130.8790  121.3870   61.9400 C   0  0  0  0  0  0  0  0  0  0  0  0
  131.7080  123.2950   63.4690 C   0  0  0  0  0  0  0  0  0  0  0  0
  130.4990  123.1700   64.2870 C   0  0  0  0  0  0  0  0  0  0  0  0
  129.5450  123.0700   64.9330 N   0  0  0  0  0  0  0  0  0  0  0  0
  131.0240  127.9920   69.5460 C   0  0  0  0  0  0  0  0  0  0  0  0
  130.7130  128.2400   70.8800 C   0  0  0  0  0  0  0  0  0  0  0  0
  127.6691  127.7209   74.1920 H   0  0  0  0  0  0  0  0  0  0  0  0
  127.1389  128.5447   72.6863 H   0  0  0  0  0  0  0  0  0  0  0  0
  127.4271  126.7716   72.6863 H   0  0  0  0  0  0  0  0  0  0  0  0
  127.7040  126.6441   71.0442 H   0  0  0  0  0  0  0  0  0  0  0  0
  128.2562  126.1941   68.6634 H   0  0  0  0  0  0  0  0  0  0  0  0
  130.9990  127.8660   66.9820 H   0  0  0  0  0  0  0  0  0  0  0  0
  130.3365  125.5780   64.4982 H   0  0  0  0  0  0  0  0  0  0  0  0
  131.0654  127.1738   64.9612 H   0  0  0  0  0  0  0  0  0  0  0  0
  136.0454  124.0372   61.6958 H   0  0  0  0  0  0  0  0  0  0  0  0
  135.3766  122.9905   60.3982 H   0  0  0  0  0  0  0  0  0  0  0  0
  135.0303  124.7531   60.3982 H   0  0  0  0  0  0  0  0  0  0  0  0
  133.1820  121.9953   60.6559 H   0  0  0  0  0  0  0  0  0  0  0  0
  130.4544  120.9312   62.8466 H   0  0  0  0  0  0  0  0  0  0  0  0
  130.0720  121.8384   61.3442 H   0  0  0  0  0  0  0  0  0  0  0  0
  131.3864  120.6140   61.3442 H   0  0  0  0  0  0  0  0  0  0  0  0
  131.9683  128.3684   69.1256 H   0  0  0  0  0  0  0  0  0  0  0  0
  131.4103  128.8148   71.5072 H   0  0  0  0  0  0  0  0  0  0  0  0
  1  2  1  0
  2  3  1  0
  3  4  2  0
  4  5  1  0
  5  6  2  0
  6  7  1  0
  7  8  1  0
  8  9  2  0
  8 10  1  0
 10 11  1  0
 11 12  1  0
 12 13  2  0
 13 14  1  0
 14 15  1  0
 14 16  2  0
 16 17  1  0
 17 18  1  0
 17 19  2  0
 19 20  1  0
 20 21  3  0
  6 22  1  0
 22 23  2  0
 23  3  1  0
 19 12  1  0
  1 24  1  0
  1 25  1  0
  1 26  1  0
  4 27  1  0
  5 28  1  0
  7 29  1  0
 10 30  1  0
 10 31  1  0
 15 32  1  0
 15 33  1  0
 15 34  1  0
 16 35  1  0
 18 36  1  0
 18 37  1  0
 18 38  1  0
 22 39  1  0
 23 40  1  0
M  END
>  <Binding energies>  (1) 
[-7.22]

>  <Ligand effiencies>  (1) 
[-0.30083333333333334]

>  <Interactions>  (1) 
["V-B:TYR:539:CE2:9845, V-A:HIS:456:CE1:4066, V-A:GLY:453:C:4038, V-A:GLY:453:CA:4040, V-B:ALA:541:CB:9861, H-A:GLY:454:N:4046, H-A:TYR:484:OH:4344, V-A:GLY:454:CA:4045, V-A:ASP:366:CG:3209, V-A:TYR:484:CE1:4341, V-B:HIS:456:CD2:9036, V-A:GLU:543:CB:4903, H-A:LYS:547:NZ:4948, V-B:LYS:547:CE:9919, V-A:GLU:543:C:4899, V-B:HIS:456:CE1:9038, V-A:GLY:544:C:4909, V-A:LEU:475:CD1:4254, V-A:ILE:369:CG1:3234, H-A:GLU:543:OE1:4906, V-A:HIS:456:CD2:4064, H-A:ARG:545:NE:4921, V-A:ASP:366:CA:3206, V-A:GLY:544:CA:4911"]

$$$$
1d_Ghoteimi_2023
     RDKit          3D

 50 52  0  0  0  0  0  0  0  0999 V2000
  124.5380  129.8930   63.1800 C   0  0  0  0  0  0  0  0  0  0  0  0
  124.2140  130.5550   64.3930 O   0  0  0  0  0  0  0  0  0  0  0  0
  124.2300  129.8850   65.5640 C   0  0  0  0  0  0  0  0  0  0  0  0
  123.5300  130.1230   66.5490 O   0  0  0  0  0  0  0  0  0  0  0  0
  125.2490  128.7480   65.5680 C   0  0  0  0  0  0  0  0  0  0  0  0
  126.8900  129.4840   65.3020 S   0  0  0  0  0  0  0  0  0  0  0  0
  128.0890  128.3110   65.8960 C   0  0  0  0  0  0  0  0  0  0  0  0
  128.1560  128.2360   67.2470 N   0  0  0  0  0  0  0  0  0  0  0  0
  129.0320  127.3820   67.8360 C   0  0  0  0  0  0  0  0  0  0  0  0
  129.0390  127.3560   69.3370 C   0  0  0  0  0  0  0  0  0  0  0  0
  130.0500  127.9940   70.0720 C   0  0  0  0  0  0  0  0  0  0  0  0
  130.0590  127.9630   71.4630 C   0  0  0  0  0  0  0  0  0  0  0  0
  129.0590  127.2920   72.1630 C   0  0  0  0  0  0  0  0  0  0  0  0
  129.1500  127.3100   73.5420 O   0  0  0  0  0  0  0  0  0  0  0  0
  128.0720  127.8490   74.3000 C   0  0  0  0  0  0  0  0  0  0  0  0
  128.0430  126.6490   71.4440 C   0  0  0  0  0  0  0  0  0  0  0  0
  128.0370  126.6830   70.0520 C   0  0  0  0  0  0  0  0  0  0  0  0
  129.8640  126.5670   67.0590 C   0  0  0  0  0  0  0  0  0  0  0  0
  129.8270  126.6350   65.6600 C   0  0  0  0  0  0  0  0  0  0  0  0
  130.7480  125.7430   64.8930 C   0  0  0  0  0  0  0  0  0  0  0  0
  132.1280  125.9680   64.9160 C   0  0  0  0  0  0  0  0  0  0  0  0
  132.9920  125.1410   64.2030 C   0  0  0  0  0  0  0  0  0  0  0  0
  132.4960  124.0700   63.4600 C   0  0  0  0  0  0  0  0  0  0  0  0
  133.4250  123.3070   62.7790 O   0  0  0  0  0  0  0  0  0  0  0  0
  133.8330  123.7080   61.4760 C   0  0  0  0  0  0  0  0  0  0  0  0
  131.1130  123.8320   63.4440 C   0  0  0  0  0  0  0  0  0  0  0  0
  130.2510  124.6610   64.1580 C   0  0  0  0  0  0  0  0  0  0  0  0
  128.9290  127.5480   65.0530 C   0  0  0  0  0  0  0  0  0  0  0  0
  128.9210  127.7350   63.5990 C   0  0  0  0  0  0  0  0  0  0  0  0
  128.9160  127.8820   62.4520 N   0  0  0  0  0  0  0  0  0  0  0  0
  125.0113  128.9259   63.4052 H   0  0  0  0  0  0  0  0  0  0  0  0
  123.6202  129.7252   62.5974 H   0  0  0  0  0  0  0  0  0  0  0  0
  125.2336  130.5148   62.5974 H   0  0  0  0  0  0  0  0  0  0  0  0
  125.2243  128.2249   66.5354 H   0  0  0  0  0  0  0  0  0  0  0  0
  125.0188  128.0186   64.7775 H   0  0  0  0  0  0  0  0  0  0  0  0
  130.8500  128.5284   69.5387 H   0  0  0  0  0  0  0  0  0  0  0  0
  130.8627  128.4727   72.0146 H   0  0  0  0  0  0  0  0  0  0  0  0
  128.2882  127.7409   75.3731 H   0  0  0  0  0  0  0  0  0  0  0  0
  127.9491  128.9146   74.0563 H   0  0  0  0  0  0  0  0  0  0  0  0
  127.1458  127.3079   74.0563 H   0  0  0  0  0  0  0  0  0  0  0  0
  127.2460  126.1146   71.9818 H   0  0  0  0  0  0  0  0  0  0  0  0
  127.2319  126.1728   69.5029 H   0  0  0  0  0  0  0  0  0  0  0  0
  130.5538  125.8661   67.5519 H   0  0  0  0  0  0  0  0  0  0  0  0
  132.5344  126.8053   65.5023 H   0  0  0  0  0  0  0  0  0  0  0  0
  134.0747  125.3340   64.2259 H   0  0  0  0  0  0  0  0  0  0  0  0
  134.6154  124.4770   61.5572 H   0  0  0  0  0  0  0  0  0  0  0  0
  134.2291  122.8380   60.9318 H   0  0  0  0  0  0  0  0  0  0  0  0
  132.9699  124.1191   60.9318 H   0  0  0  0  0  0  0  0  0  0  0  0
  130.7085  122.9882   62.8658 H   0  0  0  0  0  0  0  0  0  0  0  0
  129.1690  124.4632   64.1439 H   0  0  0  0  0  0  0  0  0  0  0  0
  1  2  1  0
  2  3  1  0
  3  4  2  0
  3  5  1  0
  5  6  1  0
  6  7  1  0
  7  8  2  0
  8  9  1  0
  9 10  1  0
 10 11  2  0
 11 12  1  0
 12 13  2  0
 13 14  1  0
 14 15  1  0
 13 16  1  0
 16 17  2  0
  9 18  2  0
 18 19  1  0
 19 20  1  0
 20 21  2  0
 21 22  1  0
 22 23  2  0
 23 24  1  0
 24 25  1  0
 23 26  1  0
 26 27  2  0
 19 28  2  0
 28 29  1  0
 29 30  3  0
 28  7  1  0
 17 10  1  0
 27 20  1  0
  1 31  1  0
  1 32  1  0
  1 33  1  0
  5 34  1  0
  5 35  1  0
 11 36  1  0
 12 37  1  0
 15 38  1  0
 15 39  1  0
 15 40  1  0
 16 41  1  0
 17 42  1  0
 18 43  1  0
 21 44  1  0
 22 45  1  0
 25 46  1  0
 25 47  1  0
 25 48  1  0
 26 49  1  0
 27 50  1  0
M  END
>  <Binding energies>  (1) 
[-8.66]

>  <Ligand effiencies>  (1) 
[-0.2886666666666667]

>  <Interactions>  (1) 
["V-A:HIS:456:CE1:4066, V-A:ARG:545:CZ:4923, H-A:GLY:454:N:4046, V-A:ASP:366:CG:3209, V-B:HIS:456:CD2:9036, H-A:LYS:547:NZ:4948, V-B:GLY:544:C:9881, V-B:LYS:547:CE:9919, V-B:GLU:543:CD:9877, V-A:GLU:543:C:4899, V-B:HIS:456:CE1:9038, V-B:GLU:543:CG:9876, V-A:GLU:543:CD:4905, H-B:GLY:454:N:9018, V-B:ARG:545:CZ:9895, V-B:ARG:545:CG:9891, V-B:ARG:545:CD:9892, H-B:TYR:484:OH:9316, V-B:ASP:366:CG:8181, H-B:ILE:455:N:9023, H-B:HIS:456:ND1:9035"]

$$$$
1d_Grossjean_2025
     RDKit          3D

 36 37  0  0  0  0  0  0  0  0999 V2000
  129.1400  125.7850   65.3630 C   0  0  0  0  0  0  0  0  0  0  0  0
  129.4470  126.3760   66.7250 C   0  0  0  0  0  0  0  0  0  0  0  0
  130.6200  127.0890   66.9650 C   0  0  0  0  0  0  0  0  0  0  0  0
  130.8450  127.6200   68.2390 C   0  0  0  0  0  0  0  0  0  0  0  0
  132.1310  128.4100   68.4730 C   0  0  0  0  0  0  0  0  0  0  0  0
  129.8830  127.4130   69.2540 C   0  0  0  0  0  0  0  0  0  0  0  0
  130.0750  128.0000   70.5820 C   0  0  0  0  0  0  0  0  0  0  0  0
  130.2300  128.4660   71.6300 N   0  0  0  0  0  0  0  0  0  0  0  0
  128.7330  126.6560   68.9290 C   0  0  0  0  0  0  0  0  0  0  0  0
  127.4250  126.2990   70.0800 S   0  0  0  0  0  0  0  0  0  0  0  0
  128.2010  125.7760   71.6390 C   0  0  0  0  0  0  0  0  0  0  0  0
  128.0120  126.8070   72.7520 C   0  0  0  0  0  0  0  0  0  0  0  0
  128.9710  127.1090   73.4620 O   0  0  0  0  0  0  0  0  0  0  0  0
  126.7710  127.3340   72.8470 N   0  0  0  0  0  0  0  0  0  0  0  0
  126.2600  128.2790   73.7550 C   0  0  0  0  0  0  0  0  0  0  0  0
  124.9490  128.0580   74.1860 C   0  0  0  0  0  0  0  0  0  0  0  0
  124.3490  128.9300   75.0890 C   0  0  0  0  0  0  0  0  0  0  0  0
  125.0630  130.0250   75.5700 C   0  0  0  0  0  0  0  0  0  0  0  0
  126.3740  130.2520   75.1570 C   0  0  0  0  0  0  0  0  0  0  0  0
  126.9760  129.3810   74.2520 C   0  0  0  0  0  0  0  0  0  0  0  0
  128.5140  126.1640   67.6830 N   0  0  0  0  0  0  0  0  0  0  0  0
  128.6363  124.8153   65.4892 H   0  0  0  0  0  0  0  0  0  0  0  0
  128.4835  126.4695   64.8058 H   0  0  0  0  0  0  0  0  0  0  0  0
  130.0775  125.6414   64.8058 H   0  0  0  0  0  0  0  0  0  0  0  0
  131.3591  127.2322   66.1630 H   0  0  0  0  0  0  0  0  0  0  0  0
  132.3043  128.5165   69.5540 H   0  0  0  0  0  0  0  0  0  0  0  0
  132.9775  127.8760   68.0168 H   0  0  0  0  0  0  0  0  0  0  0  0
  132.0373  129.4065   68.0168 H   0  0  0  0  0  0  0  0  0  0  0  0
  127.7504  124.8243   71.9573 H   0  0  0  0  0  0  0  0  0  0  0  0
  129.2807  125.6671   71.4591 H   0  0  0  0  0  0  0  0  0  0  0  0
  126.1020  127.0200   72.1590 H   0  0  0  0  0  0  0  0  0  0  0  0
  124.3884  127.1898   73.8092 H   0  0  0  0  0  0  0  0  0  0  0  0
  123.3151  128.7554   75.4217 H   0  0  0  0  0  0  0  0  0  0  0  0
  124.5878  130.7161   76.2817 H   0  0  0  0  0  0  0  0  0  0  0  0
  126.9323  131.1169   75.5446 H   0  0  0  0  0  0  0  0  0  0  0  0
  128.0120  129.5559   73.9264 H   0  0  0  0  0  0  0  0  0  0  0  0
  1  2  1  0
  2  3  2  0
  3  4  1  0
  4  5  1  0
  4  6  2  0
  6  7  1  0
  7  8  3  0
  6  9  1  0
  9 10  1  0
 10 11  1  0
 11 12  1  0
 12 13  2  0
 12 14  1  0
 14 15  1  0
 15 16  2  0
 16 17  1  0
 17 18  2  0
 18 19  1  0
 19 20  2  0
  9 21  2  0
 21  2  1  0
 20 15  1  0
  1 22  1  0
  1 23  1  0
  1 24  1  0
  3 25  1  0
  5 26  1  0
  5 27  1  0
  5 28  1  0
 11 29  1  0
 11 30  1  0
 14 31  1  0
 16 32  1  0
 17 33  1  0
 18 34  1  0
 19 35  1  0
 20 36  1  0
M  END
>  <Binding energies>  (1) 
[-7.13]

>  <Ligand effiencies>  (1) 
[-0.3240909090909091]

>  <Interactions>  (1) 
["V-A:HIS:456:CE1:4066, V-A:ARG:545:CG:4919, V-B:HIS:456:CD2:9036, V-A:GLU:543:CB:4903, H-B:GLY:544:O:9882, V-B:VAL:458:CG2:9055, V-B:LYS:547:CD:9918, H-A:LYS:547:NZ:4948, V-B:GLY:544:C:9881, V-B:LYS:547:CE:9919, V-B:VAL:457:C:9041, V-B:GLU:543:CB:9875, V-B:GLU:543:CD:9877, V-B:HIS:456:CB:9033, V-A:GLU:543:C:4899, V-B:HIS:456:CE1:9038, V-B:GLU:543:CG:9876, V-A:GLY:544:C:4909, V-B:HIS:456:C:9029, V-B:GLY:544:CA:9883, V-B:LYS:471:CE:9188, V-B:HIS:456:CG:9034, V-A:GLU:543:CA:4901, V-A:ARG:545:CA:4916, V-B:HIS:456:CA:9031, V-B:VAL:457:CA:9043, V-A:ARG:545:CB:4918"]

$$$$
1e_Grossjean_2025
     RDKit          3D

 38 39  0  0  0  0  0  0  0  0999 V2000
  125.3070  123.1560   56.6210 C   0  0  0  0  0  0  0  0  0  0  0  0
  125.0730  123.5150   58.0770 C   0  0  0  0  0  0  0  0  0  0  0  0
  123.8090  123.8880   58.5440 C   0  0  0  0  0  0  0  0  0  0  0  0
  123.6700  124.2070   59.8950 C   0  0  0  0  0  0  0  0  0  0  0  0
  124.7820  124.1480   60.7370 C   0  0  0  0  0  0  0  0  0  0  0  0
  126.0180  123.7610   60.2050 C   0  0  0  0  0  0  0  0  0  0  0  0
  127.1030  123.7320   61.0990 N   0  0  0  0  0  0  0  0  0  0  0  0
  128.1710  122.9040   61.0980 C   0  0  0  0  0  0  0  0  0  0  0  0
  128.3630  121.9990   60.2840 O   0  0  0  0  0  0  0  0  0  0  0  0
  129.1820  123.1200   62.2260 C   0  0  0  0  0  0  0  0  0  0  0  0
  130.1980  124.6030   61.9540 S   0  0  0  0  0  0  0  0  0  0  0  0
  130.8770  125.1240   63.5170 C   0  0  0  0  0  0  0  0  0  0  0  0
  129.9760  125.7530   64.3140 N   0  0  0  0  0  0  0  0  0  0  0  0
  130.3760  126.1980   65.5280 C   0  0  0  0  0  0  0  0  0  0  0  0
  129.3130  126.8840   66.3640 C   0  0  0  0  0  0  0  0  0  0  0  0
  131.6810  126.0460   65.9900 C   0  0  0  0  0  0  0  0  0  0  0  0
  132.6250  125.4210   65.1690 C   0  0  0  0  0  0  0  0  0  0  0  0
  134.0540  125.2840   65.6920 C   0  0  0  0  0  0  0  0  0  0  0  0
  132.2300  124.9520   63.8950 C   0  0  0  0  0  0  0  0  0  0  0  0
  133.2190  124.3480   62.9990 C   0  0  0  0  0  0  0  0  0  0  0  0
  134.0030  123.8710   62.2930 N   0  0  0  0  0  0  0  0  0  0  0  0
  126.1630  123.4520   58.8830 N   0  0  0  0  0  0  0  0  0  0  0  0
  125.9068  122.2358   56.5621 H   0  0  0  0  0  0  0  0  0  0  0  0
  124.3395  122.9956   56.1228 H   0  0  0  0  0  0  0  0  0  0  0  0
  125.8443  123.9764   56.1228 H   0  0  0  0  0  0  0  0  0  0  0  0
  122.9459  123.9289   57.8633 H   0  0  0  0  0  0  0  0  0  0  0  0
  122.6891  124.5035   60.2948 H   0  0  0  0  0  0  0  0  0  0  0  0
  124.6885  124.4019   61.8032 H   0  0  0  0  0  0  0  0  0  0  0  0
  127.0380  124.3860   61.8650 H   0  0  0  0  0  0  0  0  0  0  0  0
  128.6370  123.2318   63.1749 H   0  0  0  0  0  0  0  0  0  0  0  0
  129.8527  122.2485   62.2531 H   0  0  0  0  0  0  0  0  0  0  0  0
  129.5364  126.7398   67.4314 H   0  0  0  0  0  0  0  0  0  0  0  0
  129.3028  127.9595   66.1335 H   0  0  0  0  0  0  0  0  0  0  0  0
  128.3288  126.4502   66.1335 H   0  0  0  0  0  0  0  0  0  0  0  0
  131.9654  126.4126   66.9873 H   0  0  0  0  0  0  0  0  0  0  0  0
  134.0436  125.2850   66.7919 H   0  0  0  0  0  0  0  0  0  0  0  0
  134.4879  124.3401   65.3303 H   0  0  0  0  0  0  0  0  0  0  0  0
  134.6594  126.1282   65.3303 H   0  0  0  0  0  0  0  0  0  0  0  0
  1  2  1  0
  2  3  2  0
  3  4  1  0
  4  5  2  0
  5  6  1  0
  6  7  1  0
  7  8  1  0
  8  9  2  0
  8 10  1  0
 10 11  1  0
 11 12  1  0
 12 13  2  0
 13 14  1  0
 14 15  1  0
 14 16  2  0
 16 17  1  0
 17 18  1  0
 17 19  2  0
 19 20  1  0
 20 21  3  0
  6 22  2  0
 22  2  1  0
 19 12  1  0
  1 23  1  0
  1 24  1  0
  1 25  1  0
  3 26  1  0
  4 27  1  0
  5 28  1  0
  7 29  1  0
 10 30  1  0
 10 31  1  0
 15 32  1  0
 15 33  1  0
 15 34  1  0
 16 35  1  0
 18 36  1  0
 18 37  1  0
 18 38  1  0
M  END
>  <Binding energies>  (1) 
[-7.27]

>  <Ligand effiencies>  (1) 
[-0.3160869565217391]

>  <Interactions>  (1) 
["H-B:ALA:541:N:9860, V-A:HIS:456:CE1:4066, V-B:ASN:362:CB:8144, V-B:PRO:540:CA:9852, V-A:ARG:545:CG:4919, V-A:ARG:545:CZ:4923, V-A:ARG:545:CD:4920, V-B:ALA:541:CB:9861, H-A:GLY:454:N:4046, V-B:ASN:362:C:8140, V-B:PRO:540:CB:9854, H-B:GLU:543:OE2:9879, V-B:GLU:543:CD:9877, V-B:LEU:363:CA:8153, V-B:LEU:363:CD1:8157, V-B:LEU:363:CB:8155"]

$$$$
1f_Grossjean_2025
     RDKit          3D

 35 36  0  0  0  0  0  0  0  0999 V2000
  123.8990  124.2740   61.3490 C   0  0  0  0  0  0  0  0  0  0  0  0
  124.7730  123.8280   60.1920 C   0  0  0  0  0  0  0  0  0  0  0  0
  124.4690  124.1670   58.8760 C   0  0  0  0  0  0  0  0  0  0  0  0
  125.3050  123.7170   57.8480 C   0  0  0  0  0  0  0  0  0  0  0  0
  124.9410  124.0860   56.4110 C   0  0  0  0  0  0  0  0  0  0  0  0
  126.4400  122.9390   58.1710 C   0  0  0  0  0  0  0  0  0  0  0  0
  127.2960  122.4110   57.1050 C   0  0  0  0  0  0  0  0  0  0  0  0
  127.9710  121.9960   56.2620 N   0  0  0  0  0  0  0  0  0  0  0  0
  126.6880  122.6670   59.5370 C   0  0  0  0  0  0  0  0  0  0  0  0
  128.0640  121.7050   60.1330 S   0  0  0  0  0  0  0  0  0  0  0  0
  129.5400  122.7790   60.1800 C   0  0  0  0  0  0  0  0  0  0  0  0
  130.1950  122.9180   61.5620 C   0  0  0  0  0  0  0  0  0  0  0  0
  129.9250  122.1230   62.4640 O   0  0  0  0  0  0  0  0  0  0  0  0
  131.0340  123.9680   61.6820 N   0  0  0  0  0  0  0  0  0  0  0  0
  131.7990  124.3860   62.7880 C   0  0  0  0  0  0  0  0  0  0  0  0
  131.2910  124.7190   64.0580 C   0  0  0  0  0  0  0  0  0  0  0  0
  132.1680  125.1150   65.0710 C   0  0  0  0  0  0  0  0  0  0  0  0
  133.5330  125.1660   64.7910 C   0  0  0  0  0  0  0  0  0  0  0  0
  134.0490  124.8460   63.5780 N   0  0  0  0  0  0  0  0  0  0  0  0
  133.1840  124.4620   62.6040 C   0  0  0  0  0  0  0  0  0  0  0  0
  125.8570  123.0880   60.5240 N   0  0  0  0  0  0  0  0  0  0  0  0
  124.3923  124.0223   62.2994 H   0  0  0  0  0  0  0  0  0  0  0  0
  123.7437  125.3616   61.2933 H   0  0  0  0  0  0  0  0  0  0  0  0
  122.9273  123.7616   61.2933 H   0  0  0  0  0  0  0  0  0  0  0  0
  123.5844  124.7797   58.6478 H   0  0  0  0  0  0  0  0  0  0  0  0
  124.1685  124.8691   56.4180 H   0  0  0  0  0  0  0  0  0  0  0  0
  125.8356  124.4580   55.8901 H   0  0  0  0  0  0  0  0  0  0  0  0
  124.5568  123.1966   55.8901 H   0  0  0  0  0  0  0  0  0  0  0  0
  130.2872  122.3633   59.4880 H   0  0  0  0  0  0  0  0  0  0  0  0
  129.1980  123.7858   59.8982 H   0  0  0  0  0  0  0  0  0  0  0  0
  131.1250  124.5600   60.8690 H   0  0  0  0  0  0  0  0  0  0  0  0
  130.2094  124.6677   64.2518 H   0  0  0  0  0  0  0  0  0  0  0  0
  131.7894  125.3811   66.0689 H   0  0  0  0  0  0  0  0  0  0  0  0
  134.2219  125.4796   65.5891 H   0  0  0  0  0  0  0  0  0  0  0  0
  133.5939  124.1967   61.6183 H   0  0  0  0  0  0  0  0  0  0  0  0
  1  2  1  0
  2  3  2  0
  3  4  1  0
  4  5  1  0
  4  6  2  0
  6  7  1  0
  7  8  3  0
  6  9  1  0
  9 10  1  0
 10 11  1  0
 11 12  1  0
 12 13  2  0
 12 14  1  0
 14 15  1  0
 15 16  2  0
 16 17  1  0
 17 18  2  0
 18 19  1  0
 19 20  2  0
  9 21  2  0
 21  2  1  0
 20 15  1  0
  1 22  1  0
  1 23  1  0
  1 24  1  0
  3 25  1  0
  5 26  1  0
  5 27  1  0
  5 28  1  0
 11 29  1  0
 11 30  1  0
 14 31  1  0
 16 32  1  0
 17 33  1  0
 18 34  1  0
 20 35  1  0
M  END
>  <Binding energies>  (1) 
[-7.1]

>  <Ligand effiencies>  (1) 
[-0.3227272727272727]

>  <Interactions>  (1) 
["V-B:PRO:540:C:9850, H-B:ALA:541:N:9860, V-B:TYR:539:CE2:9845, V-B:ASN:362:CA:8142, V-A:HIS:456:CE1:4066, V-B:TYR:539:CZ:9846, V-B:ASN:362:CB:8144, V-B:PRO:540:CA:9852, V-A:ARG:545:CZ:4923, V-A:ARG:545:CD:4920, H-A:GLY:454:N:4046, V-B:TYR:539:C:9836, V-B:ASN:362:C:8140, V-B:PRO:540:N:9853, V-B:PRO:540:CB:9854, V-B:TYR:539:CD2:9843, H-A:ARG:545:NH2:4925, H-A:ARG:545:NH1:4924, V-B:ARG:545:CZ:9895, H-B:TYR:539:N:9839, V-B:MET:535:CE:9804, V-B:LEU:363:CD1:8157, V-B:TYR:531:CE2:9762"]

$$$$
1g_Grossjean_2025
     RDKit          3D

 39 40  0  0  0  0  0  0  0  0999 V2000
  134.9990  123.5090   60.4860 C   0  0  0  0  0  0  0  0  0  0  0  0
  133.8400  123.2560   61.4320 C   0  0  0  0  0  0  0  0  0  0  0  0
  132.7940  122.4000   61.0920 C   0  0  0  0  0  0  0  0  0  0  0  0
  131.7440  122.2180   61.9980 C   0  0  0  0  0  0  0  0  0  0  0  0
  130.6010  121.2860   61.5980 C   0  0  0  0  0  0  0  0  0  0  0  0
  131.7720  122.8990   63.2360 C   0  0  0  0  0  0  0  0  0  0  0  0
  130.6580  122.7650   64.1780 C   0  0  0  0  0  0  0  0  0  0  0  0
  129.7760  122.6580   64.9190 N   0  0  0  0  0  0  0  0  0  0  0  0
  132.8860  123.7290   63.5070 C   0  0  0  0  0  0  0  0  0  0  0  0
  133.0880  124.6490   65.0160 S   0  0  0  0  0  0  0  0  0  0  0  0
  132.0890  126.1600   64.8640 C   0  0  0  0  0  0  0  0  0  0  0  0
  130.7860  126.0680   65.6610 C   0  0  0  0  0  0  0  0  0  0  0  0
  130.5330  125.0540   66.3130 O   0  0  0  0  0  0  0  0  0  0  0  0
  129.9700  127.1330   65.5920 N   0  0  0  0  0  0  0  0  0  0  0  0
  128.7080  127.2830   66.3160 C   0  0  0  0  0  0  0  0  0  0  0  0
  128.8370  127.1720   67.8320 C   0  0  0  0  0  0  0  0  0  0  0  0
  129.9230  127.7630   68.4860 C   0  0  0  0  0  0  0  0  0  0  0  0
  130.0410  127.6620   69.8700 C   0  0  0  0  0  0  0  0  0  0  0  0
  129.0700  126.9750   70.5960 C   0  0  0  0  0  0  0  0  0  0  0  0
  127.9830  126.3890   69.9520 C   0  0  0  0  0  0  0  0  0  0  0  0
  127.8650  126.4880   68.5680 C   0  0  0  0  0  0  0  0  0  0  0  0
  133.8890  123.9160   62.6130 N   0  0  0  0  0  0  0  0  0  0  0  0
  135.9108  123.7080   61.0682 H   0  0  0  0  0  0  0  0  0  0  0  0
  135.1548  122.6237   59.8520 H   0  0  0  0  0  0  0  0  0  0  0  0
  134.7717  124.3787   59.8520 H   0  0  0  0  0  0  0  0  0  0  0  0
  132.7942  121.8752   60.1253 H   0  0  0  0  0  0  0  0  0  0  0  0
  130.1163  120.8908   62.5030 H   0  0  0  0  0  0  0  0  0  0  0  0
  129.8644  121.8442   61.0016 H   0  0  0  0  0  0  0  0  0  0  0  0
  130.9995  120.4521   61.0016 H   0  0  0  0  0  0  0  0  0  0  0  0
  132.6749  127.0123   65.2384 H   0  0  0  0  0  0  0  0  0  0  0  0
  131.8299  126.2908   63.8030 H   0  0  0  0  0  0  0  0  0  0  0  0
  130.2660  127.9320   65.0490 H   0  0  0  0  0  0  0  0  0  0  0  0
  128.2893  128.2718   66.0774 H   0  0  0  0  0  0  0  0  0  0  0  0
  128.0595  126.4551   65.9936 H   0  0  0  0  0  0  0  0  0  0  0  0
  130.6837  128.3074   67.9073 H   0  0  0  0  0  0  0  0  0  0  0  0
  130.8959  128.1220   70.3872 H   0  0  0  0  0  0  0  0  0  0  0  0
  129.1630  126.8947   71.6891 H   0  0  0  0  0  0  0  0  0  0  0  0
  127.2209  125.8502   70.5342 H   0  0  0  0  0  0  0  0  0  0  0  0
  127.0077  126.0284   68.0543 H   0  0  0  0  0  0  0  0  0  0  0  0
  1  2  1  0
  2  3  2  0
  3  4  1  0
  4  5  1  0
  4  6  2  0
  6  7  1  0
  7  8  3  0
  6  9  1  0
  9 10  1  0
 10 11  1  0
 11 12  1  0
 12 13  2  0
 12 14  1  0
 14 15  1  0
 15 16  1  0
 16 17  2  0
 17 18  1  0
 18 19  2  0
 19 20  1  0
 20 21  2  0
  9 22  2  0
 22  2  1  0
 21 16  1  0
  1 23  1  0
  1 24  1  0
  1 25  1  0
  3 26  1  0
  5 27  1  0
  5 28  1  0
  5 29  1  0
 11 30  1  0
 11 31  1  0
 14 32  1  0
 15 33  1  0
 15 34  1  0
 17 35  1  0
 18 36  1  0
 19 37  1  0
 20 38  1  0
 21 39  1  0
M  END
>  <Binding energies>  (1) 
[-7.11]

>  <Ligand effiencies>  (1) 
[-0.3091304347826087]

>  <Interactions>  (1) 
["V-B:TYR:539:CE2:9845, V-A:HIS:456:CE1:4066, V-A:ARG:545:CZ:4923, V-B:ALA:541:CB:9861, H-A:GLY:454:N:4046, H-A:TYR:484:OH:4344, V-A:GLY:454:CA:4045, V-B:TYR:539:CD2:9843, V-A:ASP:366:CG:3209, V-A:TYR:484:CE1:4341, V-B:HIS:456:CD2:9036, V-A:GLU:543:CB:4903, V-B:GLY:544:C:9881, V-B:GLU:543:CB:9875, V-B:GLU:543:CD:9877, V-B:HIS:456:CE1:9038, V-A:GLU:543:CD:4905, V-A:ILE:369:CB:3232, V-A:LEU:475:CD1:4254, V-A:ILE:369:CG2:3233, V-A:ILE:369:CG1:3234, H-A:GLU:543:OE2:4907, H-A:GLU:543:OE1:4906, V-B:GLU:543:C:9871, V-A:ASP:366:CA:3206"]

$$$$
1h_Grossjean_2025
     RDKit          3D

 51 52  0  0  0  0  0  0  0  0999 V2000
  129.4650  130.0040   72.3860 C   0  0  0  0  0  0  0  0  0  0  0  0
  129.8770  128.6880   72.7380 O   0  0  0  0  0  0  0  0  0  0  0  0
  129.5130  127.6250   71.9320 C   0  0  0  0  0  0  0  0  0  0  0  0
  129.1080  127.7580   70.5940 C   0  0  0  0  0  0  0  0  0  0  0  0
  128.7410  126.6400   69.8440 C   0  0  0  0  0  0  0  0  0  0  0  0
  128.3250  126.7960   68.3850 C   0  0  0  0  0  0  0  0  0  0  0  0
  129.4460  126.8090   67.4450 N   0  0  0  0  0  0  0  0  0  0  0  0
  129.9480  125.7300   66.8180 C   0  0  0  0  0  0  0  0  0  0  0  0
  129.4950  124.5930   66.9480 O   0  0  0  0  0  0  0  0  0  0  0  0
  131.1520  125.9690   65.9070 C   0  0  0  0  0  0  0  0  0  0  0  0
  130.6500  126.3600   64.2040 S   0  0  0  0  0  0  0  0  0  0  0  0
  130.7950  124.8720   63.2280 C   0  0  0  0  0  0  0  0  0  0  0  0
  129.6550  124.4510   62.6210 N   0  0  0  0  0  0  0  0  0  0  0  0
  129.6960  123.3310   61.8630 C   0  0  0  0  0  0  0  0  0  0  0  0
  128.3850  122.9270   61.2150 C   0  0  0  0  0  0  0  0  0  0  0  0
  130.8600  122.5880   61.6790 C   0  0  0  0  0  0  0  0  0  0  0  0
  132.0400  123.0100   62.3010 C   0  0  0  0  0  0  0  0  0  0  0  0
  133.3060  122.1840   62.0850 C   0  0  0  0  0  0  0  0  0  0  0  0
  132.0200  124.1780   63.0970 C   0  0  0  0  0  0  0  0  0  0  0  0
  133.2410  124.6420   63.7620 C   0  0  0  0  0  0  0  0  0  0  0  0
  134.2050  125.0090   64.2880 N   0  0  0  0  0  0  0  0  0  0  0  0
  128.8110  125.3710   70.4200 C   0  0  0  0  0  0  0  0  0  0  0  0
  129.2170  125.2080   71.7540 C   0  0  0  0  0  0  0  0  0  0  0  0
  129.3080  123.9820   72.3890 O   0  0  0  0  0  0  0  0  0  0  0  0
  129.6500  122.8260   71.6320 C   0  0  0  0  0  0  0  0  0  0  0  0
  129.5550  126.3440   72.5030 C   0  0  0  0  0  0  0  0  0  0  0  0
  129.9600  126.1990   73.8070 O   0  0  0  0  0  0  0  0  0  0  0  0
  131.0860  125.3480   73.9720 C   0  0  0  0  0  0  0  0  0  0  0  0
  129.2822  130.5878   73.3002 H   0  0  0  0  0  0  0  0  0  0  0  0
  130.2543  130.4890   71.7929 H   0  0  0  0  0  0  0  0  0  0  0  0
  128.5400  129.9523   71.7929 H   0  0  0  0  0  0  0  0  0  0  0  0
  129.0797  128.7557   70.1315 H   0  0  0  0  0  0  0  0  0  0  0  0
  127.6631  125.9576   68.1225 H   0  0  0  0  0  0  0  0  0  0  0  0
  127.8260  127.7725   68.2989 H   0  0  0  0  0  0  0  0  0  0  0  0
  129.8870  127.7040   67.2920 H   0  0  0  0  0  0  0  0  0  0  0  0
  131.7383  126.8097   66.3064 H   0  0  0  0  0  0  0  0  0  0  0  0
  131.7481  125.0448   65.8820 H   0  0  0  0  0  0  0  0  0  0  0  0
  127.6449  122.6989   61.9961 H   0  0  0  0  0  0  0  0  0  0  0  0
  128.0153  123.7529   60.5895 H   0  0  0  0  0  0  0  0  0  0  0  0
  128.5443  122.0363   60.5895 H   0  0  0  0  0  0  0  0  0  0  0  0
  130.8514  121.6829   61.0539 H   0  0  0  0  0  0  0  0  0  0  0  0
  133.7329  121.9055   63.0598 H   0  0  0  0  0  0  0  0  0  0  0  0
  133.0578  121.2735   61.5198 H   0  0  0  0  0  0  0  0  0  0  0  0
  134.0393  122.7779   61.5198 H   0  0  0  0  0  0  0  0  0  0  0  0
  128.5448  124.4874   69.8214 H   0  0  0  0  0  0  0  0  0  0  0  0
  129.8946  121.9994   72.3153 H   0  0  0  0  0  0  0  0  0  0  0  0
  128.7986  122.5379   70.9979 H   0  0  0  0  0  0  0  0  0  0  0  0
  130.5211  123.0475   70.9979 H   0  0  0  0  0  0  0  0  0  0  0  0
  131.2805  125.2010   75.0447 H   0  0  0  0  0  0  0  0  0  0  0  0
  130.8830  124.3756   73.4995 H   0  0  0  0  0  0  0  0  0  0  0  0
  131.9661  125.8086   73.4995 H   0  0  0  0  0  0  0  0  0  0  0  0
  1  2  1  0
  2  3  1  0
  3  4  2  0
  4  5  1  0
  5  6  1  0
  6  7  1  0
  7  8  1  0
  8  9  2  0
  8 10  1  0
 10 11  1  0
 11 12  1  0
 12 13  2  0
 13 14  1  0
 14 15  1  0
 14 16  2  0
 16 17  1  0
 17 18  1  0
 17 19  2  0
 19 20  1  0
 20 21  3  0
  5 22  2  0
 22 23  1  0
 23 24  1  0
 24 25  1  0
 23 26  2  0
 26 27  1  0
 27 28  1  0
 26  3  1  0
 19 12  1  0
  1 29  1  0
  1 30  1  0
  1 31  1  0
  4 32  1  0
  6 33  1  0
  6 34  1  0
  7 35  1  0
 10 36  1  0
 10 37  1  0
 15 38  1  0
 15 39  1  0
 15 40  1  0
 16 41  1  0
 18 42  1  0
 18 43  1  0
 18 44  1  0
 22 45  1  0
 25 46  1  0
 25 47  1  0
 25 48  1  0
 28 49  1  0
 28 50  1  0
 28 51  1  0
M  END
>  <Binding energies>  (1) 
[-6.9]

>  <Ligand effiencies>  (1) 
[-0.23793103448275862]

>  <Interactions>  (1) 
["V-B:TYR:539:CE2:9845, V-A:HIS:456:CE1:4066, V-A:ARG:545:CZ:4923, V-B:ALA:541:CB:9861, H-A:GLY:454:N:4046, H-A:TYR:484:OH:4344, V-A:GLY:454:CA:4045, V-B:HIS:456:CD2:9036, V-A:LYS:547:CE:4947, H-A:LYS:547:NZ:4948, V-B:LYS:547:CE:9919, V-B:GLU:543:CB:9875, V-A:GLU:543:C:4899, V-B:HIS:456:CE1:9038, H-A:ARG:545:NH2:4925, H-A:ARG:545:NH1:4924, V-A:LEU:475:CD1:4254, H-A:GLU:543:OE1:4906, V-A:HIS:456:CD2:4064, V-B:GLU:543:C:9871, H-A:ARG:545:NE:4921, V-A:TYR:484:CG:4338, V-A:TYR:484:CD2:4340, V-A:TYR:484:CB:4337, H-B:LYS:547:NZ:9920, V-A:TYR:484:CD1:4339, V-A:GLY:544:CA:4911"]

$$$$
1i_Grossjean_2025
     RDKit          3D

 32 33  0  0  0  0  0  0  0  0999 V2000
  132.8670  131.3260   61.8070 C   0  0  0  0  0  0  0  0  0  0  0  0
  131.9160  131.5320   60.6430 C   0  0  0  0  0  0  0  0  0  0  0  0
  132.2590  131.1590   59.3450 C   0  0  0  0  0  0  0  0  0  0  0  0
  131.3370  131.3640   58.3120 C   0  0  0  0  0  0  0  0  0  0  0  0
  131.7300  130.9310   56.9010 C   0  0  0  0  0  0  0  0  0  0  0  0
  130.0850  131.9490   58.6090 C   0  0  0  0  0  0  0  0  0  0  0  0
  129.0860  132.1260   57.5520 C   0  0  0  0  0  0  0  0  0  0  0  0
  128.2980  132.2630   56.7160 N   0  0  0  0  0  0  0  0  0  0  0  0
  129.8320  132.3190   59.9510 C   0  0  0  0  0  0  0  0  0  0  0  0
  128.3130  133.0660   60.5010 S   0  0  0  0  0  0  0  0  0  0  0  0
  127.0590  131.7540   60.6020 C   0  0  0  0  0  0  0  0  0  0  0  0
  126.4550  131.6410   62.0030 C   0  0  0  0  0  0  0  0  0  0  0  0
  126.6480  132.5450   62.8180 O   0  0  0  0  0  0  0  0  0  0  0  0
  125.7330  130.5240   62.2380 N   0  0  0  0  0  0  0  0  0  0  0  0
  125.0860  130.1720   63.4140 C   0  0  0  0  0  0  0  0  0  0  0  0
  125.7270  129.5260   64.4700 C   0  0  0  0  0  0  0  0  0  0  0  0
  124.7550  129.3590   65.4300 C   0  0  0  0  0  0  0  0  0  0  0  0
  123.5890  129.8760   64.9740 O   0  0  0  0  0  0  0  0  0  0  0  0
  123.8110  130.3870   63.6940 N   0  0  0  0  0  0  0  0  0  0  0  0
  130.7240  132.0980   60.9490 N   0  0  0  0  0  0  0  0  0  0  0  0
  132.3192  131.4447   62.7535 H   0  0  0  0  0  0  0  0  0  0  0  0
  133.2955  130.3142   61.7557 H   0  0  0  0  0  0  0  0  0  0  0  0
  133.6758  132.0698   61.7557 H   0  0  0  0  0  0  0  0  0  0  0  0
  133.2408  130.7096   59.1350 H   0  0  0  0  0  0  0  0  0  0  0  0
  132.4682  130.1176   56.9593 H   0  0  0  0  0  0  0  0  0  0  0  0
  130.8373  130.5781   56.3637 H   0  0  0  0  0  0  0  0  0  0  0  0
  132.1675  131.7854   56.3637 H   0  0  0  0  0  0  0  0  0  0  0  0
  126.2543  131.9767   59.8859 H   0  0  0  0  0  0  0  0  0  0  0  0
  127.5497  130.7980   60.3668 H   0  0  0  0  0  0  0  0  0  0  0  0
  125.6760  129.8440   61.4920 H   0  0  0  0  0  0  0  0  0  0  0  0
  126.7812  129.2167   64.5243 H   0  0  0  0  0  0  0  0  0  0  0  0
  124.9015  128.8821   66.4104 H   0  0  0  0  0  0  0  0  0  0  0  0
  1  2  1  0
  2  3  2  0
  3  4  1  0
  4  5  1  0
  4  6  2  0
  6  7  1  0
  7  8  3  0
  6  9  1  0
  9 10  1  0
 10 11  1  0
 11 12  1  0
 12 13  2  0
 12 14  1  0
 14 15  1  0
 15 16  1  0
 16 17  2  0
 17 18  1  0
 18 19  1  0
  9 20  2  0
 20  2  1  0
 19 15  2  0
  1 21  1  0
  1 22  1  0
  1 23  1  0
  3 24  1  0
  5 25  1  0
  5 26  1  0
  5 27  1  0
 11 28  1  0
 11 29  1  0
 14 30  1  0
 16 31  1  0
 17 32  1  0
M  END
>  <Binding energies>  (1) 
[-7.14]

>  <Ligand effiencies>  (1) 
[-0.33999999999999997]

>  <Interactions>  (1) 
["V-B:HIS:456:CE1:9038, V-A:GLU:543:CD:4905, H-B:GLY:454:N:9018, V-B:ARG:545:CZ:9895, V-B:ARG:545:CD:9892, H-B:TYR:484:OH:9316, H-B:ASP:366:OD1:8182, H-A:ALA:541:N:4888, V-A:PRO:540:N:4881, V-B:ASP:366:CG:8181, V-A:PRO:540:C:4878, V-A:PRO:540:CA:4880, V-A:PRO:540:CB:4882, V-A:TYR:539:C:4864, V-A:ASN:362:CB:3172, H-B:ASP:366:OD2:8183, V-A:TYR:539:CD2:4871, H-B:ARG:545:NH1:9896, H-B:ARG:545:NE:9893, V-A:ASN:362:CG:3173"]

$$$$
1j_Grossjean_2025
     RDKit          3D

 32 33  0  0  0  0  0  0  0  0999 V2000
  135.1340  123.5130   60.4840 C   0  0  0  0  0  0  0  0  0  0  0  0
  133.9420  123.3180   61.4020 C   0  0  0  0  0  0  0  0  0  0  0  0
  132.9340  122.4030   61.1050 C   0  0  0  0  0  0  0  0  0  0  0  0
  131.8650  122.2570   61.9940 C   0  0  0  0  0  0  0  0  0  0  0  0
  130.7810  121.2340   61.6550 C   0  0  0  0  0  0  0  0  0  0  0  0
  131.8290  123.0450   63.1660 C   0  0  0  0  0  0  0  0  0  0  0  0
  130.7460  122.8700   64.1380 C   0  0  0  0  0  0  0  0  0  0  0  0
  129.8900  122.7290   64.9040 N   0  0  0  0  0  0  0  0  0  0  0  0
  132.8820  123.9680   63.3750 C   0  0  0  0  0  0  0  0  0  0  0  0
  132.9950  125.0390   64.7910 S   0  0  0  0  0  0  0  0  0  0  0  0
  131.4870  126.0530   64.8390 C   0  0  0  0  0  0  0  0  0  0  0  0
  130.7900  125.9800   66.1990 C   0  0  0  0  0  0  0  0  0  0  0  0
  130.2750  124.9210   66.5590 O   0  0  0  0  0  0  0  0  0  0  0  0
  130.7990  127.1230   66.9200 N   0  0  0  0  0  0  0  0  0  0  0  0
  130.2320  127.3180   68.1720 C   0  0  0  0  0  0  0  0  0  0  0  0
  130.7230  128.0040   69.1820 N   0  0  0  0  0  0  0  0  0  0  0  0
  129.9140  127.9780   70.2220 C   0  0  0  0  0  0  0  0  0  0  0  0
  128.7340  127.2570   70.0670 C   0  0  0  0  0  0  0  0  0  0  0  0
  128.6900  126.5810   68.4660 S   0  0  0  0  0  0  0  0  0  0  0  0
  133.9250  124.0870   62.5170 N   0  0  0  0  0  0  0  0  0  0  0  0
  136.0414  123.6614   61.0878 H   0  0  0  0  0  0  0  0  0  0  0  0
  135.2574  122.6231   59.8493 H   0  0  0  0  0  0  0  0  0  0  0  0
  134.9674  124.3958   59.8493 H   0  0  0  0  0  0  0  0  0  0  0  0
  132.9788  121.8037   60.1837 H   0  0  0  0  0  0  0  0  0  0  0  0
  130.3537  120.8307   62.5849 H   0  0  0  0  0  0  0  0  0  0  0  0
  129.9882  121.7207   61.0680 H   0  0  0  0  0  0  0  0  0  0  0  0
  131.2210  120.4143   61.0680 H   0  0  0  0  0  0  0  0  0  0  0  0
  131.7562  127.0996   64.6337 H   0  0  0  0  0  0  0  0  0  0  0  0
  130.7921  125.6645   64.0799 H   0  0  0  0  0  0  0  0  0  0  0  0
  131.2320  127.9350   66.5040 H   0  0  0  0  0  0  0  0  0  0  0  0
  130.1580  128.4974   71.1605 H   0  0  0  0  0  0  0  0  0  0  0  0
  127.9548  127.1346   70.8337 H   0  0  0  0  0  0  0  0  0  0  0  0
  1  2  1  0
  2  3  2  0
  3  4  1  0
  4  5  1  0
  4  6  2  0
  6  7  1  0
  7  8  3  0
  6  9  1  0
  9 10  1  0
 10 11  1  0
 11 12  1  0
 12 13  2  0
 12 14  1  0
 14 15  1  0
 15 16  2  0
 16 17  1  0
 17 18  2  0
 18 19  1  0
  9 20  2  0
 20  2  1  0
 19 15  1  0
  1 21  1  0
  1 22  1  0
  1 23  1  0
  3 24  1  0
  5 25  1  0
  5 26  1  0
  5 27  1  0
 11 28  1  0
 11 29  1  0
 14 30  1  0
 17 31  1  0
 18 32  1  0
M  END
>  <Binding energies>  (1) 
[-6.38]

>  <Ligand effiencies>  (1) 
[-0.3038095238095238]

>  <Interactions>  (1) 
["V-B:TYR:539:CE2:9845, V-A:HIS:456:CE1:4066, V-A:ARG:545:CZ:4923, V-B:ALA:541:CB:9861, H-A:GLY:454:N:4046, H-A:TYR:484:OH:4344, V-A:GLY:454:CA:4045, V-B:TYR:539:CD2:9843, V-A:ASP:366:CG:3209, V-A:TYR:484:CE1:4341, V-B:HIS:456:CD2:9036, V-A:GLU:543:CB:4903, V-B:GLU:543:CB:9875, V-A:GLU:543:C:4899, V-B:HIS:456:CE1:9038, V-A:GLU:543:CD:4905, V-A:ILE:369:CB:3232, V-A:LEU:475:CD1:4254, V-A:ILE:369:CG2:3233, V-A:ILE:369:CG1:3234, H-A:GLU:543:OE1:4906, V-A:ASP:366:CA:3206"]

$$$$
1k_Grossjean_2025
     RDKit          3D

 50 50  0  0  0  0  0  0  0  0999 V2000
  129.8850  122.5050   71.9580 C   0  0  0  0  0  0  0  0  0  0  0  0
  129.1270  123.6470   72.3230 O   0  0  0  0  0  0  0  0  0  0  0  0
  129.9160  124.8160   72.5020 C   0  0  0  0  0  0  0  0  0  0  0  0
  129.0000  126.0460   72.5780 C   0  0  0  0  0  0  0  0  0  0  0  0
  129.7730  127.2230   72.3850 O   0  0  0  0  0  0  0  0  0  0  0  0
  129.8490  127.6410   71.0280 C   0  0  0  0  0  0  0  0  0  0  0  0
  128.7450  126.9480   70.2190 C   0  0  0  0  0  0  0  0  0  0  0  0
  128.9620  127.1730   68.8320 O   0  0  0  0  0  0  0  0  0  0  0  0
  128.4540  126.1380   68.0000 C   0  0  0  0  0  0  0  0  0  0  0  0
  129.5010  125.0160   67.8740 C   0  0  0  0  0  0  0  0  0  0  0  0
  130.4680  125.2220   66.7940 N   0  0  0  0  0  0  0  0  0  0  0  0
  130.7680  126.4090   66.2390 C   0  0  0  0  0  0  0  0  0  0  0  0
  130.2510  127.4690   66.5960 O   0  0  0  0  0  0  0  0  0  0  0  0
  131.8090  126.3670   65.1080 C   0  0  0  0  0  0  0  0  0  0  0  0
  133.0330  125.0150   65.2110 S   0  0  0  0  0  0  0  0  0  0  0  0
  132.9060  123.9960   63.7480 C   0  0  0  0  0  0  0  0  0  0  0  0
  133.9340  124.0950   62.8660 N   0  0  0  0  0  0  0  0  0  0  0  0
  133.8970  123.3570   61.7320 C   0  0  0  0  0  0  0  0  0  0  0  0
  135.0760  123.5290   60.7950 C   0  0  0  0  0  0  0  0  0  0  0  0
  132.8470  122.4920   61.4340 C   0  0  0  0  0  0  0  0  0  0  0  0
  131.7850  122.3760   62.3370 C   0  0  0  0  0  0  0  0  0  0  0  0
  130.6440  121.4210   61.9910 C   0  0  0  0  0  0  0  0  0  0  0  0
  131.8030  123.1400   63.5250 C   0  0  0  0  0  0  0  0  0  0  0  0
  130.7020  123.0410   64.4880 C   0  0  0  0  0  0  0  0  0  0  0  0
  129.8320  122.9630   65.2470 N   0  0  0  0  0  0  0  0  0  0  0  0
  130.2285  121.9874   72.8658 H   0  0  0  0  0  0  0  0  0  0  0  0
  129.2588  121.8243   71.3626 H   0  0  0  0  0  0  0  0  0  0  0  0
  130.7555  122.8177   71.3626 H   0  0  0  0  0  0  0  0  0  0  0  0
  130.4923  124.7299   73.4350 H   0  0  0  0  0  0  0  0  0  0  0  0
  130.6066  124.9254   71.6528 H   0  0  0  0  0  0  0  0  0  0  0  0
  128.2307  125.9796   71.7946 H   0  0  0  0  0  0  0  0  0  0  0  0
  128.5151  126.0826   73.5647 H   0  0  0  0  0  0  0  0  0  0  0  0
  129.7157  128.7314   70.9718 H   0  0  0  0  0  0  0  0  0  0  0  0
  130.8320  127.3710   70.6148 H   0  0  0  0  0  0  0  0  0  0  0  0
  128.7646  125.8672   70.4227 H   0  0  0  0  0  0  0  0  0  0  0  0
  127.7660  127.3578   70.5083 H   0  0  0  0  0  0  0  0  0  0  0  0
  127.5329  125.7312   68.4428 H   0  0  0  0  0  0  0  0  0  0  0  0
  128.2339  126.5460   67.0025 H   0  0  0  0  0  0  0  0  0  0  0  0
  130.0522  124.9490   68.8236 H   0  0  0  0  0  0  0  0  0  0  0  0
  128.9513  124.0931   67.6371 H   0  0  0  0  0  0  0  0  0  0  0  0
  130.9310  124.3950   66.4470 H   0  0  0  0  0  0  0  0  0  0  0  0
  131.2693  126.2630   64.1551 H   0  0  0  0  0  0  0  0  0  0  0  0
  132.3843  127.3006   65.1940 H   0  0  0  0  0  0  0  0  0  0  0  0
  135.9956  123.6632   61.3835 H   0  0  0  0  0  0  0  0  0  0  0  0
  135.1737  122.6356   60.1607 H   0  0  0  0  0  0  0  0  0  0  0  0
  134.9144  124.4131   60.1607 H   0  0  0  0  0  0  0  0  0  0  0  0
  132.8527  121.9082   60.5017 H   0  0  0  0  0  0  0  0  0  0  0  0
  130.1900  121.0410   62.9181 H   0  0  0  0  0  0  0  0  0  0  0  0
  129.8837  121.9559   61.4029 H   0  0  0  0  0  0  0  0  0  0  0  0
  131.0367  120.5784   61.4029 H   0  0  0  0  0  0  0  0  0  0  0  0
  1  2  1  0
  2  3  1  0
  3  4  1  0
  4  5  1  0
  5  6  1  0
  6  7  1  0
  7  8  1  0
  8  9  1  0
  9 10  1  0
 10 11  1  0
 11 12  1  0
 12 13  2  0
 12 14  1  0
 14 15  1  0
 15 16  1  0
 16 17  2  0
 17 18  1  0
 18 19  1  0
 18 20  2  0
 20 21  1  0
 21 22  1  0
 21 23  2  0
 23 24  1  0
 24 25  3  0
 23 16  1  0
  1 26  1  0
  1 27  1  0
  1 28  1  0
  3 29  1  0
  3 30  1  0
  4 31  1  0
  4 32  1  0
  6 33  1  0
  6 34  1  0
  7 35  1  0
  7 36  1  0
  9 37  1  0
  9 38  1  0
 10 39  1  0
 10 40  1  0
 11 41  1  0
 14 42  1  0
 14 43  1  0
 19 44  1  0
 19 45  1  0
 19 46  1  0
 20 47  1  0
 22 48  1  0
 22 49  1  0
 22 50  1  0
M  END
>  <Binding energies>  (1) 
[-6.36]

>  <Ligand effiencies>  (1) 
[-0.24461538461538462]

>  <Interactions>  (1) 
["V-B:TYR:539:CE2:9845, V-A:HIS:456:CE1:4066, V-A:GLY:453:C:4038, V-A:ARG:545:CZ:4923, V-A:GLY:453:CA:4040, V-B:ALA:541:CB:9861, H-A:GLY:454:N:4046, H-A:TYR:484:OH:4344, V-A:GLY:454:CA:4045, V-A:ASP:366:CG:3209, V-A:TYR:484:CE1:4341, V-B:HIS:456:CD2:9036, H-A:LYS:547:NZ:4948, V-B:LYS:547:CE:9919, V-B:GLU:543:CB:9875, V-B:HIS:456:CE1:9038, V-A:TYR:484:CZ:4343, V-A:GLU:543:CD:4905, V-A:ILE:369:CB:3232, V-A:LEU:475:CD1:4254, V-A:ILE:369:CG1:3234, V-A:HIS:456:CD2:4064, V-B:GLU:543:C:9871, V-B:GLU:543:CA:9873, V-A:ASP:366:CA:3206, V-A:TYR:484:CG:4338, V-A:TYR:484:CD2:4340, V-A:TYR:484:CB:4337, H-B:LYS:547:NZ:9920, V-A:TYR:484:CD1:4339, H-A:HIS:456:NE2:4067"]

$$$$
1l_Grossjean_2025
     RDKit          3D

 30 30  0  0  0  0  0  0  0  0999 V2000
  123.8900  123.8500   60.7030 C   0  0  0  0  0  0  0  0  0  0  0  0
  124.9020  122.8570   60.7930 O   0  0  0  0  0  0  0  0  0  0  0  0
  126.1230  123.4510   61.1140 N   0  0  0  0  0  0  0  0  0  0  0  0
  127.2340  123.0510   60.4670 C   0  0  0  0  0  0  0  0  0  0  0  0
  127.2180  122.3550   59.4480 O   0  0  0  0  0  0  0  0  0  0  0  0
  128.5550  123.5380   61.0780 C   0  0  0  0  0  0  0  0  0  0  0  0
  129.7210  122.2160   61.5490 S   0  0  0  0  0  0  0  0  0  0  0  0
  131.3010  122.9680   61.9030 C   0  0  0  0  0  0  0  0  0  0  0  0
  132.2000  122.9590   60.8850 N   0  0  0  0  0  0  0  0  0  0  0  0
  133.4200  123.5120   61.0860 C   0  0  0  0  0  0  0  0  0  0  0  0
  134.3680  123.4630   59.9030 C   0  0  0  0  0  0  0  0  0  0  0  0
  133.7920  124.0930   62.2950 C   0  0  0  0  0  0  0  0  0  0  0  0
  132.8740  124.1100   63.3510 C   0  0  0  0  0  0  0  0  0  0  0  0
  133.3030  124.7530   64.6690 C   0  0  0  0  0  0  0  0  0  0  0  0
  131.5960  123.5370   63.1630 C   0  0  0  0  0  0  0  0  0  0  0  0
  130.6140  123.5410   64.2530 C   0  0  0  0  0  0  0  0  0  0  0  0
  129.8410  123.5440   65.1130 N   0  0  0  0  0  0  0  0  0  0  0  0
  123.5819  124.1523   61.7148 H   0  0  0  0  0  0  0  0  0  0  0  0
  124.2813  124.7244   60.1623 H   0  0  0  0  0  0  0  0  0  0  0  0
  123.0232  123.4422   60.1623 H   0  0  0  0  0  0  0  0  0  0  0  0
  126.1250  123.8380   62.0470 H   0  0  0  0  0  0  0  0  0  0  0  0
  129.0531  124.1858   60.3417 H   0  0  0  0  0  0  0  0  0  0  0  0
  128.2890  124.0592   62.0094 H   0  0  0  0  0  0  0  0  0  0  0  0
  135.4050  123.4094   60.2661 H   0  0  0  0  0  0  0  0  0  0  0  0
  134.1469  122.5751   59.2925 H   0  0  0  0  0  0  0  0  0  0  0  0
  134.2396  124.3690   59.2925 H   0  0  0  0  0  0  0  0  0  0  0  0
  134.7929  124.5323   62.4185 H   0  0  0  0  0  0  0  0  0  0  0  0
  132.9095  124.1631   65.5099 H   0  0  0  0  0  0  0  0  0  0  0  0
  134.4013  124.7809   64.7230 H   0  0  0  0  0  0  0  0  0  0  0  0
  132.9071  125.7779   64.7230 H   0  0  0  0  0  0  0  0  0  0  0  0
  1  2  1  0
  2  3  1  0
  3  4  1  0
  4  5  2  0
  4  6  1  0
  6  7  1  0
  7  8  1  0
  8  9  2  0
  9 10  1  0
 10 11  1  0
 10 12  2  0
 12 13  1  0
 13 14  1  0
 13 15  2  0
 15 16  1  0
 16 17  3  0
 15  8  1  0
  1 18  1  0
  1 19  1  0
  1 20  1  0
  3 21  1  0
  6 22  1  0
  6 23  1  0
 11 24  1  0
 11 25  1  0
 11 26  1  0
 12 27  1  0
 14 28  1  0
 14 29  1  0
 14 30  1  0
M  END
>  <Binding energies>  (1) 
[-5.89]

>  <Ligand effiencies>  (1) 
[-0.3272222222222222]

>  <Interactions>  (1) 
["H-B:ALA:541:N:9860, V-B:ASN:362:CB:8144, V-B:PRO:540:CA:9852, V-A:ARG:545:CZ:4923, V-B:ALA:541:CB:9861, V-B:ASN:362:C:8140, H-A:TYR:484:OH:4344, V-A:GLY:454:CA:4045, V-B:PRO:540:CB:9854, V-A:ASP:366:CG:3209, H-B:GLU:543:OE2:9879, V-B:GLU:543:CD:9877, V-A:ILE:369:CB:3232, V-A:ILE:369:CG2:3233, V-A:ILE:369:CG1:3234, H-B:TYR:539:OH:9847, V-A:ASP:366:CB:3208, V-A:ASP:366:CA:3206"]

$$$$
1m_Grossjean_2025
     RDKit          3D

 35 35  0  0  0  0  0  0  0  0999 V2000
  123.8730  129.5460   66.2090 C   0  0  0  0  0  0  0  0  0  0  0  0
  124.2280  130.4520   65.1740 O   0  0  0  0  0  0  0  0  0  0  0  0
  124.5080  130.0010   63.9330 C   0  0  0  0  0  0  0  0  0  0  0  0
  123.8460  130.2360   62.9180 O   0  0  0  0  0  0  0  0  0  0  0  0
  125.7890  129.1410   63.9200 C   0  0  0  0  0  0  0  0  0  0  0  0
  125.9810  128.4250   62.6490 N   0  0  0  0  0  0  0  0  0  0  0  0
  127.0500  127.6730   62.3260 C   0  0  0  0  0  0  0  0  0  0  0  0
  128.0130  127.5150   63.0790 O   0  0  0  0  0  0  0  0  0  0  0  0
  127.0030  127.0190   60.9390 C   0  0  0  0  0  0  0  0  0  0  0  0
  125.6950  125.7620   60.7330 S   0  0  0  0  0  0  0  0  0  0  0  0
  126.3520  124.4410   59.7370 C   0  0  0  0  0  0  0  0  0  0  0  0
  127.4170  123.8150   60.3000 N   0  0  0  0  0  0  0  0  0  0  0  0
  127.9960  122.7890   59.6340 C   0  0  0  0  0  0  0  0  0  0  0  0
  129.1670  122.1260   60.3350 C   0  0  0  0  0  0  0  0  0  0  0  0
  127.5520  122.3560   58.3870 C   0  0  0  0  0  0  0  0  0  0  0  0
  126.4720  123.0110   57.7850 C   0  0  0  0  0  0  0  0  0  0  0  0
  126.0130  122.5290   56.4100 C   0  0  0  0  0  0  0  0  0  0  0  0
  125.8520  124.0860   58.4610 C   0  0  0  0  0  0  0  0  0  0  0  0
  124.7520  124.8180   57.8270 C   0  0  0  0  0  0  0  0  0  0  0  0
  123.8840  125.3950   57.3260 N   0  0  0  0  0  0  0  0  0  0  0  0
  124.0570  130.0157   67.1865 H   0  0  0  0  0  0  0  0  0  0  0  0
  122.8073  129.2881   66.1210 H   0  0  0  0  0  0  0  0  0  0  0  0
  124.4798  128.6327   66.1210 H   0  0  0  0  0  0  0  0  0  0  0  0
  126.6552  129.7978   64.0879 H   0  0  0  0  0  0  0  0  0  0  0  0
  125.6898  128.3863   64.7141 H   0  0  0  0  0  0  0  0  0  0  0  0
  125.2440  128.5280   61.9670 H   0  0  0  0  0  0  0  0  0  0  0  0
  126.8388  127.8100   60.1925 H   0  0  0  0  0  0  0  0  0  0  0  0
  127.9613  126.4946   60.8098 H   0  0  0  0  0  0  0  0  0  0  0  0
  129.0330  122.2019   61.4242 H   0  0  0  0  0  0  0  0  0  0  0  0
  129.2159  121.0662   60.0445 H   0  0  0  0  0  0  0  0  0  0  0  0
  130.1010  122.6293   60.0445 H   0  0  0  0  0  0  0  0  0  0  0  0
  128.0434  121.5110   57.8825 H   0  0  0  0  0  0  0  0  0  0  0  0
  125.2591  121.7373   56.5318 H   0  0  0  0  0  0  0  0  0  0  0  0
  125.5743  123.3707   55.8540 H   0  0  0  0  0  0  0  0  0  0  0  0
  126.8751  122.1319   55.8540 H   0  0  0  0  0  0  0  0  0  0  0  0
  1  2  1  0
  2  3  1  0
  3  4  2  0
  3  5  1  0
  5  6  1  0
  6  7  1  0
  7  8  2  0
  7  9  1  0
  9 10  1  0
 10 11  1  0
 11 12  2  0
 12 13  1  0
 13 14  1  0
 13 15  2  0
 15 16  1  0
 16 17  1  0
 16 18  2  0
 18 19  1  0
 19 20  3  0
 18 11  1  0
  1 21  1  0
  1 22  1  0
  1 23  1  0
  5 24  1  0
  5 25  1  0
  6 26  1  0
  9 27  1  0
  9 28  1  0
 14 29  1  0
 14 30  1  0
 14 31  1  0
 15 32  1  0
 17 33  1  0
 17 34  1  0
 17 35  1  0
M  END
>  <Binding energies>  (1) 
[-5.88]

>  <Ligand effiencies>  (1) 
[-0.27999999999999997]

>  <Interactions>  (1) 
["V-B:TYR:539:CE2:9845, V-B:TYR:539:CZ:9846, V-B:PRO:540:CA:9852, V-B:ALA:541:CB:9861, V-B:TYR:539:C:9836, V-B:PRO:540:N:9853, V-B:PRO:540:CB:9854, V-B:TYR:539:CD2:9843, V-B:GLU:543:CD:9877, V-B:HIS:456:CE1:9038, H-B:GLY:454:N:9018, V-B:ARG:545:CZ:9895, V-B:ARG:545:CG:9891, V-B:ARG:545:CD:9892, H-B:TYR:484:OH:9316, V-B:PRO:540:CD:9856, H-B:ARG:545:NH2:9897, H-B:ASP:366:OD1:8182, V-B:LEU:363:CD1:8157, H-B:TYR:531:OH:9764, V-B:ASP:366:CG:8181, H-B:ASP:366:OD2:8183, V-B:ILE:538:CB:9831, H-B:ARG:545:NH1:9896"]

$$$$
1n_Grossjean_2025
     RDKit          3D

 48 49  0  0  0  0  0  0  0  0999 V2000
  124.8030  127.6100   73.9480 C   0  0  0  0  0  0  0  0  0  0  0  0
  126.2640  128.0620   73.8630 C   0  0  0  0  0  0  0  0  0  0  0  0
  126.9820  127.1820   73.0060 O   0  0  0  0  0  0  0  0  0  0  0  0
  128.2850  127.4090   72.7000 C   0  0  0  0  0  0  0  0  0  0  0  0
  129.1390  127.7080   73.5400 O   0  0  0  0  0  0  0  0  0  0  0  0
  128.5880  127.2470   71.2370 C   0  0  0  0  0  0  0  0  0  0  0  0
  129.7250  127.8200   70.6460 C   0  0  0  0  0  0  0  0  0  0  0  0
  129.9740  127.6520   69.2880 C   0  0  0  0  0  0  0  0  0  0  0  0
  129.0940  126.9190   68.4910 C   0  0  0  0  0  0  0  0  0  0  0  0
  129.4410  126.8180   67.1300 N   0  0  0  0  0  0  0  0  0  0  0  0
  129.7390  125.7260   66.3930 C   0  0  0  0  0  0  0  0  0  0  0  0
  129.7520  124.5670   66.8090 O   0  0  0  0  0  0  0  0  0  0  0  0
  130.0800  125.9910   64.9210 C   0  0  0  0  0  0  0  0  0  0  0  0
  131.5830  126.2550   64.6860 C   0  0  0  0  0  0  0  0  0  0  0  0
  132.6600  124.8290   65.0200 S   0  0  0  0  0  0  0  0  0  0  0  0
  132.6330  123.7840   63.5800 C   0  0  0  0  0  0  0  0  0  0  0  0
  133.6840  123.9810   62.7460 N   0  0  0  0  0  0  0  0  0  0  0  0
  133.7760  123.2280   61.6250 C   0  0  0  0  0  0  0  0  0  0  0  0
  134.9830  123.4970   60.7460 C   0  0  0  0  0  0  0  0  0  0  0  0
  132.8310  122.2620   61.2890 C   0  0  0  0  0  0  0  0  0  0  0  0
  131.7310  122.0650   62.1320 C   0  0  0  0  0  0  0  0  0  0  0  0
  130.7010  121.0090   61.7360 C   0  0  0  0  0  0  0  0  0  0  0  0
  131.6120  122.8430   63.3060 C   0  0  0  0  0  0  0  0  0  0  0  0
  130.4450  122.6890   64.1750 C   0  0  0  0  0  0  0  0  0  0  0  0
  129.5200  122.5670   64.8610 N   0  0  0  0  0  0  0  0  0  0  0  0
  127.9610  126.3350   69.0760 C   0  0  0  0  0  0  0  0  0  0  0  0
  127.7150  126.5000   70.4370 C   0  0  0  0  0  0  0  0  0  0  0  0
  124.5082  127.5188   75.0038 H   0  0  0  0  0  0  0  0  0  0  0  0
  124.1603  128.3513   73.4506 H   0  0  0  0  0  0  0  0  0  0  0  0
  124.6912  126.6353   73.4506 H   0  0  0  0  0  0  0  0  0  0  0  0
  126.3089  129.0845   73.4599 H   0  0  0  0  0  0  0  0  0  0  0  0
  126.7130  128.0445   74.8671 H   0  0  0  0  0  0  0  0  0  0  0  0
  130.4238  128.4059   71.2611 H   0  0  0  0  0  0  0  0  0  0  0  0
  130.8721  128.1007   68.8385 H   0  0  0  0  0  0  0  0  0  0  0  0
  129.4220  127.6960   66.6330 H   0  0  0  0  0  0  0  0  0  0  0  0
  129.7819  125.1131   64.3290 H   0  0  0  0  0  0  0  0  0  0  0  0
  129.5360  126.8971   64.6161 H   0  0  0  0  0  0  0  0  0  0  0  0
  131.7198  126.5502   63.6352 H   0  0  0  0  0  0  0  0  0  0  0  0
  131.8771  127.0423   65.3957 H   0  0  0  0  0  0  0  0  0  0  0  0
  135.8612  123.6927   61.3789 H   0  0  0  0  0  0  0  0  0  0  0  0
  135.1768  122.6200   60.1109 H   0  0  0  0  0  0  0  0  0  0  0  0
  134.7861  124.3733   60.1109 H   0  0  0  0  0  0  0  0  0  0  0  0
  132.9472  121.6623   60.3742 H   0  0  0  0  0  0  0  0  0  0  0  0
  130.2660  120.5630   62.6426 H   0  0  0  0  0  0  0  0  0  0  0  0
  129.9047  121.4789   61.1401 H   0  0  0  0  0  0  0  0  0  0  0  0
  131.1906  120.2246   61.1401 H   0  0  0  0  0  0  0  0  0  0  0  0
  127.2660  125.7461   68.4594 H   0  0  0  0  0  0  0  0  0  0  0  0
  126.8246  126.0381   70.8885 H   0  0  0  0  0  0  0  0  0  0  0  0
  1  2  1  0
  2  3  1  0
  3  4  1  0
  4  5  2  0
  4  6  1  0
  6  7  2  0
  7  8  1  0
  8  9  2  0
  9 10  1  0
 10 11  1  0
 11 12  2  0
 11 13  1  0
 13 14  1  0
 14 15  1  0
 15 16  1  0
 16 17  2  0
 17 18  1  0
 18 19  1  0
 18 20  2  0
 20 21  1  0
 21 22  1  0
 21 23  2  0
 23 24  1  0
 24 25  3  0
  9 26  1  0
 26 27  2  0
 27  6  1  0
 23 16  1  0
  1 28  1  0
  1 29  1  0
  1 30  1  0
  2 31  1  0
  2 32  1  0
  7 33  1  0
  8 34  1  0
 10 35  1  0
 13 36  1  0
 13 37  1  0
 14 38  1  0
 14 39  1  0
 19 40  1  0
 19 41  1  0
 19 42  1  0
 20 43  1  0
 22 44  1  0
 22 45  1  0
 22 46  1  0
 26 47  1  0
 27 48  1  0
M  END
>  <Binding energies>  (1) 
[-8.25]

>  <Ligand effiencies>  (1) 
[-0.29464285714285715]

>  <Interactions>  (1) 
["V-B:TYR:539:CE2:9845, V-A:HIS:456:CE1:4066, V-A:ARG:545:CZ:4923, V-B:ALA:541:CB:9861, H-A:GLY:454:N:4046, H-A:TYR:484:OH:4344, V-A:GLY:454:CA:4045, V-B:TYR:539:CD2:9843, V-A:ASP:366:CG:3209, V-A:TYR:484:CE1:4341, V-B:HIS:456:CD2:9036, V-B:LYS:547:CD:9918, H-A:LYS:547:NZ:4948, V-B:GLY:544:C:9881, V-B:LYS:547:CE:9919, V-B:GLU:543:CB:9875, V-B:HIS:456:CB:9033, V-B:HIS:456:CE1:9038, V-B:GLU:543:CG:9876, V-A:GLU:543:CD:4905, V-A:ILE:369:CB:3232, V-A:LEU:475:CD1:4254, V-A:ILE:369:CG1:3234, H-A:GLU:543:OE1:4906, V-B:GLU:543:C:9871, V-B:HIS:456:CG:9034, V-A:ASP:366:CA:3206"]

$$$$
1o_Grossjean_2025
     RDKit          3D

 45 46  0  0  0  0  0  0  0  0999 V2000
  126.3790  127.9090   73.5590 C   0  0  0  0  0  0  0  0  0  0  0  0
  127.2990  126.9090   73.1420 O   0  0  0  0  0  0  0  0  0  0  0  0
  128.5040  127.2440   72.6150 C   0  0  0  0  0  0  0  0  0  0  0  0
  129.4680  127.6060   73.2970 O   0  0  0  0  0  0  0  0  0  0  0  0
  128.5510  127.1270   71.1180 C   0  0  0  0  0  0  0  0  0  0  0  0
  127.5580  126.4500   70.3950 C   0  0  0  0  0  0  0  0  0  0  0  0
  127.6300  126.3630   69.0070 C   0  0  0  0  0  0  0  0  0  0  0  0
  128.6940  126.9420   68.3160 C   0  0  0  0  0  0  0  0  0  0  0  0
  128.6630  126.8010   66.9140 N   0  0  0  0  0  0  0  0  0  0  0  0
  129.6780  126.7900   66.0230 C   0  0  0  0  0  0  0  0  0  0  0  0
  130.8730  126.8620   66.3070 O   0  0  0  0  0  0  0  0  0  0  0  0
  129.2640  126.6440   64.5510 C   0  0  0  0  0  0  0  0  0  0  0  0
  130.1540  125.6660   63.7600 C   0  0  0  0  0  0  0  0  0  0  0  0
  130.1910  123.9830   64.4440 S   0  0  0  0  0  0  0  0  0  0  0  0
  131.0220  122.9190   63.2820 C   0  0  0  0  0  0  0  0  0  0  0  0
  130.2520  121.8900   62.8450 N   0  0  0  0  0  0  0  0  0  0  0  0
  130.7760  121.0190   61.9510 C   0  0  0  0  0  0  0  0  0  0  0  0
  129.8510  119.9050   61.4970 C   0  0  0  0  0  0  0  0  0  0  0  0
  132.0780  121.1280   61.4700 C   0  0  0  0  0  0  0  0  0  0  0  0
  132.8890  122.1690   61.9330 C   0  0  0  0  0  0  0  0  0  0  0  0
  134.3190  122.2580   61.4010 C   0  0  0  0  0  0  0  0  0  0  0  0
  132.3660  123.0890   62.8700 C   0  0  0  0  0  0  0  0  0  0  0  0
  133.2190  124.1500   63.4110 C   0  0  0  0  0  0  0  0  0  0  0  0
  133.8950  124.9880   63.8360 N   0  0  0  0  0  0  0  0  0  0  0  0
  129.6880  127.6260   69.0320 C   0  0  0  0  0  0  0  0  0  0  0  0
  129.6140  127.7130   70.4190 C   0  0  0  0  0  0  0  0  0  0  0  0
  126.3477  127.9430   74.6580 H   0  0  0  0  0  0  0  0  0  0  0  0
  126.6996  128.8870   73.1708 H   0  0  0  0  0  0  0  0  0  0  0  0
  125.3777  127.6708   73.1708 H   0  0  0  0  0  0  0  0  0  0  0  0
  126.7161  125.9843   70.9283 H   0  0  0  0  0  0  0  0  0  0  0  0
  126.8418  125.8337   68.4516 H   0  0  0  0  0  0  0  0  0  0  0  0
  127.7370  126.6660   66.5340 H   0  0  0  0  0  0  0  0  0  0  0  0
  128.2269  126.2791   64.5149 H   0  0  0  0  0  0  0  0  0  0  0  0
  129.3727  127.6336   64.0830 H   0  0  0  0  0  0  0  0  0  0  0  0
  129.7766  125.6119   62.7282 H   0  0  0  0  0  0  0  0  0  0  0  0
  131.1815  126.0548   63.8150 H   0  0  0  0  0  0  0  0  0  0  0  0
  129.4293  119.3971   62.3769 H   0  0  0  0  0  0  0  0  0  0  0  0
  129.0356  120.3289   60.8925 H   0  0  0  0  0  0  0  0  0  0  0  0
  130.4176  119.1814   60.8925 H   0  0  0  0  0  0  0  0  0  0  0  0
  132.4635  120.4052   60.7359 H   0  0  0  0  0  0  0  0  0  0  0  0
  135.0224  122.3018   62.2456 H   0  0  0  0  0  0  0  0  0  0  0  0
  134.5377  121.3717   60.7873 H   0  0  0  0  0  0  0  0  0  0  0  0
  134.4261  123.1646   60.7873 H   0  0  0  0  0  0  0  0  0  0  0  0
  130.5270  128.0942   68.4963 H   0  0  0  0  0  0  0  0  0  0  0  0
  130.3994  128.2482   70.9728 H   0  0  0  0  0  0  0  0  0  0  0  0
  1  2  1  0
  2  3  1  0
  3  4  2  0
  3  5  1  0
  5  6  2  0
  6  7  1  0
  7  8  2  0
  8  9  1  0
  9 10  1  0
 10 11  2  0
 10 12  1  0
 12 13  1  0
 13 14  1  0
 14 15  1  0
 15 16  2  0
 16 17  1  0
 17 18  1  0
 17 19  2  0
 19 20  1  0
 20 21  1  0
 20 22  2  0
 22 23  1  0
 23 24  3  0
  8 25  1  0
 25 26  2  0
 26  5  1  0
 22 15  1  0
  1 27  1  0
  1 28  1  0
  1 29  1  0
  6 30  1  0
  7 31  1  0
  9 32  1  0
 12 33  1  0
 12 34  1  0
 13 35  1  0
 13 36  1  0
 18 37  1  0
 18 38  1  0
 18 39  1  0
 19 40  1  0
 21 41  1  0
 21 42  1  0
 21 43  1  0
 25 44  1  0
 26 45  1  0
M  END
>  <Binding energies>  (1) 
[-7.72]

>  <Ligand effiencies>  (1) 
[-0.2859259259259259]

>  <Interactions>  (1) 
["V-B:TYR:539:CE2:9845, V-A:HIS:456:CE1:4066, V-B:ALA:541:CB:9861, H-A:GLY:454:N:4046, H-A:TYR:484:OH:4344, V-A:GLY:454:CA:4045, V-B:TYR:539:CD2:9843, V-B:HIS:456:CD2:9036, H-A:LYS:547:NZ:4948, V-B:GLY:544:C:9881, V-B:LYS:547:CE:9919, V-B:GLU:543:CB:9875, V-B:GLU:543:CD:9877, V-B:HIS:456:CB:9033, V-B:HIS:456:CE1:9038, H-A:ARG:545:NH2:4925, H-A:ARG:545:NH1:4924, V-A:LEU:475:CD1:4254, V-A:ILE:369:CG2:3233, V-A:ILE:369:CG1:3234, V-B:GLU:543:C:9871, H-B:GLU:543:OE1:9878, H-A:ARG:545:NE:4921, V-B:HIS:456:CG:9034, V-A:PRO:482:CG:4323"]

$$$$
1p_Grossjean_2025
     RDKit          3D

 35 36  0  0  0  0  0  0  0  0999 V2000
  135.1220  125.0560   66.0140 C   0  0  0  0  0  0  0  0  0  0  0  0
  133.8300  125.3770   65.2870 C   0  0  0  0  0  0  0  0  0  0  0  0
  133.6260  124.9970   63.9620 C   0  0  0  0  0  0  0  0  0  0  0  0
  132.4190  125.3310   63.3370 C   0  0  0  0  0  0  0  0  0  0  0  0
  132.2230  124.9180   61.8800 C   0  0  0  0  0  0  0  0  0  0  0  0
  131.4360  126.0370   64.0670 C   0  0  0  0  0  0  0  0  0  0  0  0
  130.1850  126.4400   63.4210 C   0  0  0  0  0  0  0  0  0  0  0  0
  129.1970  126.7590   62.9100 N   0  0  0  0  0  0  0  0  0  0  0  0
  131.7200  126.3610   65.4150 C   0  0  0  0  0  0  0  0  0  0  0  0
  130.5910  127.2360   66.4750 S   0  0  0  0  0  0  0  0  0  0  0  0
  129.0860  126.2260   66.5880 C   0  0  0  0  0  0  0  0  0  0  0  0
  128.8930  125.5480   67.9590 C   0  0  0  0  0  0  0  0  0  0  0  0
  128.9190  126.5320   69.1380 C   0  0  0  0  0  0  0  0  0  0  0  0
  129.0100  127.7410   68.9190 O   0  0  0  0  0  0  0  0  0  0  0  0
  128.8230  125.9740   70.3660 N   0  0  0  0  0  0  0  0  0  0  0  0
  128.8200  126.6310   71.5900 C   0  0  0  0  0  0  0  0  0  0  0  0
  127.6540  127.0670   72.2180 C   0  0  0  0  0  0  0  0  0  0  0  0
  128.0760  127.6580   73.3870 C   0  0  0  0  0  0  0  0  0  0  0  0
  129.4260  127.5850   73.4580 O   0  0  0  0  0  0  0  0  0  0  0  0
  129.8860  126.9330   72.3130 N   0  0  0  0  0  0  0  0  0  0  0  0
  132.9010  126.0510   66.0050 N   0  0  0  0  0  0  0  0  0  0  0  0
  134.9519  125.0983   67.0999 H   0  0  0  0  0  0  0  0  0  0  0  0
  135.4590  124.0468   65.7346 H   0  0  0  0  0  0  0  0  0  0  0  0
  135.8921  125.7901   65.7346 H   0  0  0  0  0  0  0  0  0  0  0  0
  134.4026  124.4424   63.4149 H   0  0  0  0  0  0  0  0  0  0  0  0
  131.7517  123.9249   61.8406 H   0  0  0  0  0  0  0  0  0  0  0  0
  131.5767  125.6509   61.3749 H   0  0  0  0  0  0  0  0  0  0  0  0
  133.1995  124.8807   61.3749 H   0  0  0  0  0  0  0  0  0  0  0  0
  128.2182  126.8742   66.3965 H   0  0  0  0  0  0  0  0  0  0  0  0
  129.1833  125.4218   65.8438 H   0  0  0  0  0  0  0  0  0  0  0  0
  127.9220  125.0311   67.9582 H   0  0  0  0  0  0  0  0  0  0  0  0
  129.7349  124.8539   68.0982 H   0  0  0  0  0  0  0  0  0  0  0  0
  128.7540  124.9690   70.4130 H   0  0  0  0  0  0  0  0  0  0  0  0
  126.6203  126.9614   71.8571 H   0  0  0  0  0  0  0  0  0  0  0  0
  127.4212  128.1164   74.1428 H   0  0  0  0  0  0  0  0  0  0  0  0
  1  2  1  0
  2  3  2  0
  3  4  1  0
  4  5  1  0
  4  6  2  0
  6  7  1  0
  7  8  3  0
  6  9  1  0
  9 10  1  0
 10 11  1  0
 11 12  1  0
 12 13  1  0
 13 14  2  0
 13 15  1  0
 15 16  1  0
 16 17  1  0
 17 18  2  0
 18 19  1  0
 19 20  1  0
  9 21  2  0
 21  2  1  0
 20 16  2  0
  1 22  1  0
  1 23  1  0
  1 24  1  0
  3 25  1  0
  5 26  1  0
  5 27  1  0
  5 28  1  0
 11 29  1  0
 11 30  1  0
 12 31  1  0
 12 32  1  0
 15 33  1  0
 17 34  1  0
 18 35  1  0
M  END
>  <Binding energies>  (1) 
[-6.61]

>  <Ligand effiencies>  (1) 
[-0.3004545454545455]

>  <Interactions>  (1) 
["V-A:GLY:454:C:4043, V-A:HIS:456:CE1:4066, V-A:GLY:453:C:4038, V-A:ARG:545:CG:4919, V-A:ARG:545:CZ:4923, V-A:ARG:545:CD:4920, V-A:GLY:453:CA:4040, H-A:TYR:484:OH:4344, V-A:GLY:454:CA:4045, V-A:ASP:366:CG:3209, V-B:HIS:456:CD2:9036, H-A:LYS:547:NZ:4948, V-B:LYS:547:CE:9919, V-B:GLU:543:CB:9875, V-B:GLU:543:CD:9877, V-B:GLU:543:CG:9876, V-A:HIS:456:CD2:4064, V-B:GLU:543:C:9871, H-A:ARG:545:NE:4921, V-B:GLU:543:CA:9873, H-A:HIS:456:NE2:4067, H-B:GLU:543:O:9872, H-A:HIS:456:ND1:4063"]

$$$$
1q_Grossjean_2025
     RDKit          3D

 38 38  0  0  0  0  0  0  0  0999 V2000
  127.5860  126.5040   70.2860 C   0  0  0  0  0  0  0  0  0  0  0  0
  128.9530  126.2810   70.6030 O   0  0  0  0  0  0  0  0  0  0  0  0
  129.7700  127.3220   70.8960 C   0  0  0  0  0  0  0  0  0  0  0  0
  129.8990  127.8410   72.0060 O   0  0  0  0  0  0  0  0  0  0  0  0
  130.5500  127.8690   69.6810 C   0  0  0  0  0  0  0  0  0  0  0  0
  130.1540  127.2390   68.4130 N   0  0  0  0  0  0  0  0  0  0  0  0
  130.8090  127.3450   67.2410 C   0  0  0  0  0  0  0  0  0  0  0  0
  131.8440  128.0000   67.1040 O   0  0  0  0  0  0  0  0  0  0  0  0
  130.1990  126.5780   66.0580 C   0  0  0  0  0  0  0  0  0  0  0  0
  131.1490  126.4060   64.8570 C   0  0  0  0  0  0  0  0  0  0  0  0
  132.4710  125.1920   65.1420 S   0  0  0  0  0  0  0  0  0  0  0  0
  132.5670  124.1150   63.7260 C   0  0  0  0  0  0  0  0  0  0  0  0
  133.6980  124.2860   62.9950 N   0  0  0  0  0  0  0  0  0  0  0  0
  133.8830  123.5240   61.8920 C   0  0  0  0  0  0  0  0  0  0  0  0
  135.1610  123.7850   61.1170 C   0  0  0  0  0  0  0  0  0  0  0  0
  132.9640  122.5610   61.4800 C   0  0  0  0  0  0  0  0  0  0  0  0
  131.8080  122.3580   62.2400 C   0  0  0  0  0  0  0  0  0  0  0  0
  130.8240  121.2840   61.7780 C   0  0  0  0  0  0  0  0  0  0  0  0
  131.5930  123.1400   63.3980 C   0  0  0  0  0  0  0  0  0  0  0  0
  130.4170  122.9020   64.2360 C   0  0  0  0  0  0  0  0  0  0  0  0
  129.4860  122.7100   64.8970 N   0  0  0  0  0  0  0  0  0  0  0  0
  127.0049  126.5988   71.2151 H   0  0  0  0  0  0  0  0  0  0  0  0
  127.4920  127.4293   69.6987 H   0  0  0  0  0  0  0  0  0  0  0  0
  127.2028  125.6565   69.6987 H   0  0  0  0  0  0  0  0  0  0  0  0
  130.3685  128.9513   69.6063 H   0  0  0  0  0  0  0  0  0  0  0  0
  131.6138  127.6412   69.8434 H   0  0  0  0  0  0  0  0  0  0  0  0
  129.2980  126.7030   68.4340 H   0  0  0  0  0  0  0  0  0  0  0  0
  129.9046  125.5784   66.4104 H   0  0  0  0  0  0  0  0  0  0  0  0
  129.3457  127.1740   65.7022 H   0  0  0  0  0  0  0  0  0  0  0  0
  130.5571  126.0782   63.9897 H   0  0  0  0  0  0  0  0  0  0  0  0
  131.6351  127.3783   64.6888 H   0  0  0  0  0  0  0  0  0  0  0  0
  135.9889  123.9541   61.8213 H   0  0  0  0  0  0  0  0  0  0  0  0
  135.3901  122.9151   60.4839 H   0  0  0  0  0  0  0  0  0  0  0  0
  135.0306  124.6751   60.4839 H   0  0  0  0  0  0  0  0  0  0  0  0
  133.1452  121.9694   60.5705 H   0  0  0  0  0  0  0  0  0  0  0  0
  130.3761  120.7951   62.6557 H   0  0  0  0  0  0  0  0  0  0  0  0
  130.0316  121.7486   61.1729 H   0  0  0  0  0  0  0  0  0  0  0  0
  131.3560  120.5352   61.1729 H   0  0  0  0  0  0  0  0  0  0  0  0
  1  2  1  0
  2  3  1  0
  3  4  2  0
  3  5  1  0
  5  6  1  0
  6  7  1  0
  7  8  2  0
  7  9  1  0
  9 10  1  0
 10 11  1  0
 11 12  1  0
 12 13  2  0
 13 14  1  0
 14 15  1  0
 14 16  2  0
 16 17  1  0
 17 18  1  0
 17 19  2  0
 19 20  1  0
 20 21  3  0
 19 12  1  0
  1 22  1  0
  1 23  1  0
  1 24  1  0
  5 25  1  0
  5 26  1  0
  6 27  1  0
  9 28  1  0
  9 29  1  0
 10 30  1  0
 10 31  1  0
 15 32  1  0
 15 33  1  0
 15 34  1  0
 16 35  1  0
 18 36  1  0
 18 37  1  0
 18 38  1  0
M  END
>  <Binding energies>  (1) 
[-5.82]

>  <Ligand effiencies>  (1) 
[-0.2645454545454546]

>  <Interactions>  (1) 
["V-B:TYR:539:CE2:9845, V-A:HIS:456:CE1:4066, V-A:GLY:453:C:4038, V-A:GLY:453:CA:4040, V-B:ALA:541:CB:9861, H-A:GLY:454:N:4046, H-A:TYR:484:OH:4344, V-A:GLY:454:CA:4045, V-B:TYR:539:CD2:9843, V-A:ASP:366:CG:3209, V-A:TYR:484:CE1:4341, V-B:HIS:456:CD2:9036, V-A:GLU:543:CB:4903, H-A:LYS:547:NZ:4948, V-B:GLY:544:C:9881, V-A:GLU:543:C:4899, V-B:HIS:456:CE1:9038, V-A:GLU:543:CD:4905, V-A:LEU:475:CD1:4254, V-A:ILE:369:CG1:3234, V-A:HIS:456:CD2:4064, H-A:ARG:545:NE:4921, V-A:ASP:366:CA:3206, H-A:HIS:456:NE2:4067"]

$$$$
2a_Ghoteimi_2023
     RDKit          3D

 85 90  0  0  0  0  0  0  0  0999 V2000
  125.1780  125.8460   58.5020 C   0  0  0  0  0  0  0  0  0  0  0  0
  124.0930  124.7730   58.6330 C   0  0  0  0  0  0  0  0  0  0  0  0
  124.6990  123.5250   58.9440 O   0  0  0  0  0  0  0  0  0  0  0  0
  125.8890  123.1670   58.3990 C   0  0  0  0  0  0  0  0  0  0  0  0
  126.0550  122.9820   57.1890 O   0  0  0  0  0  0  0  0  0  0  0  0
  126.9880  123.0260   59.4130 C   0  0  0  0  0  0  0  0  0  0  0  0
  127.0000  123.7690   60.6030 C   0  0  0  0  0  0  0  0  0  0  0  0
  128.0320  123.6120   61.5230 C   0  0  0  0  0  0  0  0  0  0  0  0
  129.0690  122.7100   61.2780 C   0  0  0  0  0  0  0  0  0  0  0  0
  130.0620  122.6360   62.2740 N   0  0  0  0  0  0  0  0  0  0  0  0
  131.4010  122.4980   62.1520 C   0  0  0  0  0  0  0  0  0  0  0  0
  132.0050  122.3590   61.0880 O   0  0  0  0  0  0  0  0  0  0  0  0
  132.1770  122.4790   63.4750 C   0  0  0  0  0  0  0  0  0  0  0  0
  132.9230  124.0770   63.9350 S   0  0  0  0  0  0  0  0  0  0  0  0
  131.5700  125.2250   64.0400 C   0  0  0  0  0  0  0  0  0  0  0  0
  131.2080  125.5300   65.3080 N   0  0  0  0  0  0  0  0  0  0  0  0
  130.1800  126.3910   65.5190 C   0  0  0  0  0  0  0  0  0  0  0  0
  129.8290  126.6730   66.9440 C   0  0  0  0  0  0  0  0  0  0  0  0
  128.8200  125.9560   67.5990 C   0  0  0  0  0  0  0  0  0  0  0  0
  128.4890  126.2320   68.9220 C   0  0  0  0  0  0  0  0  0  0  0  0
  129.1600  127.2280   69.6450 C   0  0  0  0  0  0  0  0  0  0  0  0
  128.7970  127.5140   70.9650 N   0  0  0  0  0  0  0  0  0  0  0  0
  127.4630  127.1610   71.4910 C   0  0  0  0  0  0  0  0  0  0  0  0
  127.3650  127.2140   73.0300 C   0  0  0  0  0  0  0  0  0  0  0  0
  127.7740  128.4890   73.4990 O   0  0  0  0  0  0  0  0  0  0  0  0
  129.1190  128.7650   73.1410 C   0  0  0  0  0  0  0  0  0  0  0  0
  129.2720  128.7580   71.6060 C   0  0  0  0  0  0  0  0  0  0  0  0
  130.1640  127.9520   68.9810 C   0  0  0  0  0  0  0  0  0  0  0  0
  130.4960  127.6750   67.6580 C   0  0  0  0  0  0  0  0  0  0  0  0
  129.4980  126.9780   64.4500 C   0  0  0  0  0  0  0  0  0  0  0  0
  129.8560  126.6770   63.1280 C   0  0  0  0  0  0  0  0  0  0  0  0
  129.0810  127.3360   62.0340 C   0  0  0  0  0  0  0  0  0  0  0  0
  129.7030  128.2600   61.1900 C   0  0  0  0  0  0  0  0  0  0  0  0
  128.9850  128.8940   60.1800 C   0  0  0  0  0  0  0  0  0  0  0  0
  127.6230  128.6200   59.9810 C   0  0  0  0  0  0  0  0  0  0  0  0
  126.8790  129.2580   58.9850 N   0  0  0  0  0  0  0  0  0  0  0  0
  127.5080  129.5350   57.6780 C   0  0  0  0  0  0  0  0  0  0  0  0
  126.4890  129.8730   56.5690 C   0  0  0  0  0  0  0  0  0  0  0  0
  125.6710  130.9590   56.9760 O   0  0  0  0  0  0  0  0  0  0  0  0
  124.9480  130.6590   58.1590 C   0  0  0  0  0  0  0  0  0  0  0  0
  125.9260  130.3380   59.3080 C   0  0  0  0  0  0  0  0  0  0  0  0
  127.0040  127.7000   60.8400 C   0  0  0  0  0  0  0  0  0  0  0  0
  127.7210  127.0670   61.8510 C   0  0  0  0  0  0  0  0  0  0  0  0
  130.9280  125.7780   62.9100 C   0  0  0  0  0  0  0  0  0  0  0  0
  131.3850  125.4690   61.5510 C   0  0  0  0  0  0  0  0  0  0  0  0
  131.7420  125.2250   60.4770 N   0  0  0  0  0  0  0  0  0  0  0  0
  129.0680  121.9700   60.0870 C   0  0  0  0  0  0  0  0  0  0  0  0
  128.0340  122.1260   59.1680 C   0  0  0  0  0  0  0  0  0  0  0  0
  125.5008  126.1653   59.5039 H   0  0  0  0  0  0  0  0  0  0  0  0
  126.0378  125.4331   57.9540 H   0  0  0  0  0  0  0  0  0  0  0  0
  124.7747  126.7103   57.9540 H   0  0  0  0  0  0  0  0  0  0  0  0
  123.3953  125.0526   59.4361 H   0  0  0  0  0  0  0  0  0  0  0  0
  123.5431  124.6884   57.6841 H   0  0  0  0  0  0  0  0  0  0  0  0
  126.1875  124.4810   60.8103 H   0  0  0  0  0  0  0  0  0  0  0  0
  128.0308  124.2032   62.4506 H   0  0  0  0  0  0  0  0  0  0  0  0
  129.7040  122.6680   63.2160 H   0  0  0  0  0  0  0  0  0  0  0  0
  131.4845  122.1798   64.2755 H   0  0  0  0  0  0  0  0  0  0  0  0
  133.0089  121.7720   63.3402 H   0  0  0  0  0  0  0  0  0  0  0  0
  128.2812  125.1630   67.0597 H   0  0  0  0  0  0  0  0  0  0  0  0
  127.6866  125.6585   69.4091 H   0  0  0  0  0  0  0  0  0  0  0  0
  126.7282  127.8645   71.0725 H   0  0  0  0  0  0  0  0  0  0  0  0
  127.2671  126.1202   71.1937 H   0  0  0  0  0  0  0  0  0  0  0  0
  126.3243  127.0303   73.3352 H   0  0  0  0  0  0  0  0  0  0  0  0
  128.0217  126.4435   73.4602 H   0  0  0  0  0  0  0  0  0  0  0  0
  129.4034  129.7537   73.5303 H   0  0  0  0  0  0  0  0  0  0  0  0
  129.7717  127.9910   73.5710 H   0  0  0  0  0  0  0  0  0  0  0  0
  128.6963  129.6010   71.1962 H   0  0  0  0  0  0  0  0  0  0  0  0
  130.3477  128.8388   71.3908 H   0  0  0  0  0  0  0  0  0  0  0  0
  130.6971  128.7518   69.5159 H   0  0  0  0  0  0  0  0  0  0  0  0
  131.2937  128.2516   67.1668 H   0  0  0  0  0  0  0  0  0  0  0  0
  128.6750  127.6808   64.6467 H   0  0  0  0  0  0  0  0  0  0  0  0
  130.7705  128.4885   61.3251 H   0  0  0  0  0  0  0  0  0  0  0  0
  129.4925  129.6204   59.5283 H   0  0  0  0  0  0  0  0  0  0  0  0
  128.1932  130.3876   57.7941 H   0  0  0  0  0  0  0  0  0  0  0  0
  128.0338  128.6195   57.3691 H   0  0  0  0  0  0  0  0  0  0  0  0
  127.0281  130.1474   55.6503 H   0  0  0  0  0  0  0  0  0  0  0  0
  125.8550  128.9940   56.3811 H   0  0  0  0  0  0  0  0  0  0  0  0
  124.3301  131.5253   58.4379 H   0  0  0  0  0  0  0  0  0  0  0  0
  124.3050  129.7852   57.9774 H   0  0  0  0  0  0  0  0  0  0  0  0
  126.4975  131.2479   59.5433 H   0  0  0  0  0  0  0  0  0  0  0  0
  125.3222  129.9928   60.1602 H   0  0  0  0  0  0  0  0  0  0  0  0
  125.9348  127.4752   60.7125 H   0  0  0  0  0  0  0  0  0  0  0  0
  127.2135  126.3489   62.5118 H   0  0  0  0  0  0  0  0  0  0  0  0
  129.8860  121.2647   59.8784 H   0  0  0  0  0  0  0  0  0  0  0  0
  128.0380  121.5364   58.2394 H   0  0  0  0  0  0  0  0  0  0  0  0
  1  2  1  0
  2  3  1  0
  3  4  1  0
  4  5  2  0
  4  6  1  0
  6  7  2  0
  7  8  1  0
  8  9  2  0
  9 10  1  0
 10 11  1  0
 11 12  2  0
 11 13  1  0
 13 14  1  0
 14 15  1  0
 15 16  2  0
 16 17  1  0
 17 18  1  0
 18 19  2  0
 19 20  1  0
 20 21  2  0
 21 22  1  0
 22 23  1  0
 23 24  1  0
 24 25  1  0
 25 26  1  0
 26 27  1  0
 21 28  1  0
 28 29  2  0
 17 30  2  0
 30 31  1  0
 31 32  1  0
 32 33  2  0
 33 34  1  0
 34 35  2  0
 35 36  1  0
 36 37  1  0
 37 38  1  0
 38 39  1  0
 39 40  1  0
 40 41  1  0
 35 42  1  0
 42 43  2  0
 31 44  2  0
 44 45  1  0
 45 46  3  0
  9 47  1  0
 47 48  2  0
 48  6  1  0
 44 15  1  0
 29 18  1  0
 43 32  1  0
 27 22  1  0
 41 36  1  0
  1 49  1  0
  1 50  1  0
  1 51  1  0
  2 52  1  0
  2 53  1  0
  7 54  1  0
  8 55  1  0
 10 56  1  0
 13 57  1  0
 13 58  1  0
 19 59  1  0
 20 60  1  0
 23 61  1  0
 23 62  1  0
 24 63  1  0
 24 64  1  0
 26 65  1  0
 26 66  1  0
 27 67  1  0
 27 68  1  0
 28 69  1  0
 29 70  1  0
 30 71  1  0
 33 72  1  0
 34 73  1  0
 37 74  1  0
 37 75  1  0
 38 76  1  0
 38 77  1  0
 40 78  1  0
 40 79  1  0
 41 80  1  0
 41 81  1  0
 42 82  1  0
 43 83  1  0
 47 84  1  0
 48 85  1  0
M  END
>  <Binding energies>  (1) 
[-8.57]

>  <Ligand effiencies>  (1) 
[-0.17489795918367348]

>  <Interactions>  (1) 
["V-B:TYR:539:CE2:9845, V-A:HIS:456:CE1:4066, V-B:TYR:539:CZ:9846, V-B:PRO:540:CA:9852, V-B:ALA:541:CB:9861, H-A:GLY:454:N:4046, V-B:TYR:539:C:9836, H-A:TYR:484:OH:4344, V-A:GLY:454:CA:4045, V-B:PRO:540:N:9853, V-B:PRO:540:CB:9854, V-B:TYR:539:CD2:9843, V-A:ASP:366:CG:3209, V-B:HIS:456:CD2:9036, V-A:GLU:543:CB:4903, V-A:LYS:547:CE:4947, V-B:GLY:544:C:9881, V-B:LYS:547:CE:9919, V-B:GLU:543:CB:9875, V-B:GLU:543:CD:9877, V-A:GLU:543:C:4899, V-B:HIS:456:CE1:9038, V-B:GLU:543:CG:9876, V-A:GLU:543:CD:4905, V-B:LEU:363:CA:8153, V-A:LEU:475:CD1:4254, V-B:GLU:543:C:9871, V-B:LEU:363:CD1:8157, H-B:TYR:531:OH:9764, V-B:HIS:456:CG:9034, V-B:ASP:366:CG:8181, V-B:ASP:366:CB:8180, H-A:TYR:539:OH:4875"]

$$$$
2a_Grossjean_2025
     RDKit          3D

 45 46  0  0  0  0  0  0  0  0999 V2000
  124.8420  127.6300   73.9040 C   0  0  0  0  0  0  0  0  0  0  0  0
  126.3360  127.9490   74.0010 C   0  0  0  0  0  0  0  0  0  0  0  0
  127.0320  127.2580   72.9700 O   0  0  0  0  0  0  0  0  0  0  0  0
  128.3130  127.5790   72.6530 C   0  0  0  0  0  0  0  0  0  0  0  0
  129.1170  128.0500   73.4630 O   0  0  0  0  0  0  0  0  0  0  0  0
  128.6600  127.2810   71.2220 C   0  0  0  0  0  0  0  0  0  0  0  0
  127.9100  126.3830   70.4490 C   0  0  0  0  0  0  0  0  0  0  0  0
  128.2600  126.1280   69.1260 C   0  0  0  0  0  0  0  0  0  0  0  0
  129.3660  126.7560   68.5520 C   0  0  0  0  0  0  0  0  0  0  0  0
  129.6340  126.4130   67.2140 N   0  0  0  0  0  0  0  0  0  0  0  0
  130.6780  126.7460   66.4250 C   0  0  0  0  0  0  0  0  0  0  0  0
  131.6180  127.4710   66.7510 O   0  0  0  0  0  0  0  0  0  0  0  0
  130.6520  126.1550   65.0110 C   0  0  0  0  0  0  0  0  0  0  0  0
  130.2910  124.3680   64.9820 S   0  0  0  0  0  0  0  0  0  0  0  0
  130.9070  123.6520   63.4620 C   0  0  0  0  0  0  0  0  0  0  0  0
  129.9850  123.0180   62.6930 N   0  0  0  0  0  0  0  0  0  0  0  0
  130.3830  122.4430   61.5370 C   0  0  0  0  0  0  0  0  0  0  0  0
  129.3010  121.7310   60.7460 C   0  0  0  0  0  0  0  0  0  0  0  0
  131.7020  122.4800   61.0940 C   0  0  0  0  0  0  0  0  0  0  0  0
  132.6710  123.1370   61.8690 C   0  0  0  0  0  0  0  0  0  0  0  0
  134.1260  123.1690   61.3650 C   0  0  0  0  0  0  0  0  0  0  0  0
  134.7800  122.0850   61.7820 F   0  0  0  0  0  0  0  0  0  0  0  0
  134.1460  123.2010   60.0310 F   0  0  0  0  0  0  0  0  0  0  0  0
  134.7990  124.2370   61.8010 F   0  0  0  0  0  0  0  0  0  0  0  0
  132.2680  123.7410   63.0860 C   0  0  0  0  0  0  0  0  0  0  0  0
  133.2390  124.4380   63.9360 C   0  0  0  0  0  0  0  0  0  0  0  0
  134.0060  124.9880   64.6070 N   0  0  0  0  0  0  0  0  0  0  0  0
  130.1160  127.6610   69.3170 C   0  0  0  0  0  0  0  0  0  0  0  0
  129.7620  127.9180   70.6380 C   0  0  0  0  0  0  0  0  0  0  0  0
  124.4199  127.5399   74.9158 H   0  0  0  0  0  0  0  0  0  0  0  0
  124.3287  128.4388   73.3633 H   0  0  0  0  0  0  0  0  0  0  0  0
  124.7038  126.6821   73.3633 H   0  0  0  0  0  0  0  0  0  0  0  0
  126.4888  129.0322   73.8854 H   0  0  0  0  0  0  0  0  0  0  0  0
  126.7182  127.6297   74.9818 H   0  0  0  0  0  0  0  0  0  0  0  0
  127.0392  125.8767   70.8910 H   0  0  0  0  0  0  0  0  0  0  0  0
  127.6600  125.4260   68.5284 H   0  0  0  0  0  0  0  0  0  0  0  0
  128.9570  125.7850   66.8070 H   0  0  0  0  0  0  0  0  0  0  0  0
  129.8783  126.6769   64.4288 H   0  0  0  0  0  0  0  0  0  0  0  0
  131.6560  126.2913   64.5827 H   0  0  0  0  0  0  0  0  0  0  0  0
  128.5881  121.2619   61.4400 H   0  0  0  0  0  0  0  0  0  0  0  0
  128.7716  122.4578   60.1123 H   0  0  0  0  0  0  0  0  0  0  0  0
  129.7591  120.9573   60.1123 H   0  0  0  0  0  0  0  0  0  0  0  0
  131.9826  121.9989   60.1454 H   0  0  0  0  0  0  0  0  0  0  0  0
  130.9849  128.1682   68.8724 H   0  0  0  0  0  0  0  0  0  0  0  0
  130.3549  128.6301   71.2307 H   0  0  0  0  0  0  0  0  0  0  0  0
  1  2  1  0
  2  3  1  0
  3  4  1  0
  4  5  2  0
  4  6  1  0
  6  7  2  0
  7  8  1  0
  8  9  2  0
  9 10  1  0
 10 11  1  0
 11 12  2  0
 11 13  1  0
 13 14  1  0
 14 15  1  0
 15 16  2  0
 16 17  1  0
 17 18  1  0
 17 19  2  0
 19 20  1  0
 20 21  1  0
 21 22  1  0
 21 23  1  0
 21 24  1  0
 20 25  2  0
 25 26  1  0
 26 27  3  0
  9 28  1  0
 28 29  2  0
 29  6  1  0
 25 15  1  0
  1 30  1  0
  1 31  1  0
  1 32  1  0
  2 33  1  0
  2 34  1  0
  7 35  1  0
  8 36  1  0
 10 37  1  0
 13 38  1  0
 13 39  1  0
 18 40  1  0
 18 41  1  0
 18 42  1  0
 19 43  1  0
 28 44  1  0
 29 45  1  0
M  END
>  <Binding energies>  (1) 
[-7.47]

>  <Ligand effiencies>  (1) 
[-0.249]

>  <Interactions>  (1) 
["V-B:TYR:539:CE2:9845, V-A:HIS:456:CE1:4066, V-B:TYR:539:CZ:9846, V-A:GLY:453:C:4038, V-A:ARG:545:CZ:4923, V-A:GLY:453:CA:4040, V-B:ALA:541:CB:9861, H-A:GLY:454:N:4046, H-A:TYR:484:OH:4344, V-A:GLY:454:CA:4045, V-B:TYR:539:CD2:9843, V-A:ASP:366:CG:3209, V-B:HIS:456:CD2:9036, V-B:LYS:547:CD:9918, H-A:LYS:547:NZ:4948, V-B:GLY:544:C:9881, V-B:LYS:547:CE:9919, V-B:GLU:543:CB:9875, V-B:HIS:456:CB:9033, V-B:HIS:456:CE1:9038, V-A:ILE:369:CB:3232, H-A:ARG:545:NH1:4924, V-A:ILE:369:CG2:3233, V-A:ILE:369:CG1:3234, V-B:GLU:543:C:9871, H-B:GLU:543:OE1:9878, H-A:ARG:545:NE:4921, V-B:HIS:456:CG:9034, V-A:ASP:366:CA:3206"]

$$$$
2aa_Ghoteimi_2023
     RDKit          3D

 85 90  0  0  0  0  0  0  0  0999 V2000
  132.8140  131.0810   57.2300 C   0  0  0  0  0  0  0  0  0  0  0  0
  131.5740  131.7500   56.6260 C   0  0  0  0  0  0  0  0  0  0  0  0
  130.9030  132.4940   57.6340 O   0  0  0  0  0  0  0  0  0  0  0  0
  129.5470  132.5000   57.7180 C   0  0  0  0  0  0  0  0  0  0  0  0
  128.8090  132.8050   56.7750 O   0  0  0  0  0  0  0  0  0  0  0  0
  129.0340  132.0830   59.0660 C   0  0  0  0  0  0  0  0  0  0  0  0
  129.7880  132.2670   60.2350 C   0  0  0  0  0  0  0  0  0  0  0  0
  129.2830  131.8740   61.4700 C   0  0  0  0  0  0  0  0  0  0  0  0
  128.0220  131.2830   61.5640 C   0  0  0  0  0  0  0  0  0  0  0  0
  127.6080  130.9270   62.8630 N   0  0  0  0  0  0  0  0  0  0  0  0
  127.5380  131.6770   63.9840 C   0  0  0  0  0  0  0  0  0  0  0  0
  127.8140  132.8760   64.0530 O   0  0  0  0  0  0  0  0  0  0  0  0
  127.0470  130.9220   65.2260 C   0  0  0  0  0  0  0  0  0  0  0  0
  126.8330  129.5450   64.9000 O   0  0  0  0  0  0  0  0  0  0  0  0
  127.7080  128.5740   65.3690 C   0  0  0  0  0  0  0  0  0  0  0  0
  127.8220  128.4120   66.7170 N   0  0  0  0  0  0  0  0  0  0  0  0
  128.6650  127.4700   67.2080 C   0  0  0  0  0  0  0  0  0  0  0  0
  128.7420  127.3530   68.6980 C   0  0  0  0  0  0  0  0  0  0  0  0
  127.7680  126.6470   69.4110 C   0  0  0  0  0  0  0  0  0  0  0  0
  127.8380  126.5290   70.7960 C   0  0  0  0  0  0  0  0  0  0  0  0
  128.8960  127.1030   71.5200 C   0  0  0  0  0  0  0  0  0  0  0  0
  128.9750  127.0050   72.9140 N   0  0  0  0  0  0  0  0  0  0  0  0
  127.9070  127.5360   73.7860 C   0  0  0  0  0  0  0  0  0  0  0  0
  128.3180  127.6630   75.2680 C   0  0  0  0  0  0  0  0  0  0  0  0
  128.7910  126.4150   75.7490 O   0  0  0  0  0  0  0  0  0  0  0  0
  129.9260  125.9740   75.0200 C   0  0  0  0  0  0  0  0  0  0  0  0
  129.5630  125.7970   73.5300 C   0  0  0  0  0  0  0  0  0  0  0  0
  129.8580  127.8270   70.8030 C   0  0  0  0  0  0  0  0  0  0  0  0
  129.7850  127.9470   69.4180 C   0  0  0  0  0  0  0  0  0  0  0  0
  129.4320  126.6700   66.3550 C   0  0  0  0  0  0  0  0  0  0  0  0
  129.3410  126.8240   64.9660 C   0  0  0  0  0  0  0  0  0  0  0  0
  130.2050  125.9580   64.1060 C   0  0  0  0  0  0  0  0  0  0  0  0
  129.6310  124.9900   63.2780 C   0  0  0  0  0  0  0  0  0  0  0  0
  130.4300  124.1670   62.4900 C   0  0  0  0  0  0  0  0  0  0  0  0
  131.8290  124.2790   62.5170 C   0  0  0  0  0  0  0  0  0  0  0  0
  132.6510  123.4670   61.7320 N   0  0  0  0  0  0  0  0  0  0  0  0
  133.2030  122.2010   62.2510 C   0  0  0  0  0  0  0  0  0  0  0  0
  133.7780  121.2830   61.1510 C   0  0  0  0  0  0  0  0  0  0  0  0
  134.7510  121.9870   60.3930 O   0  0  0  0  0  0  0  0  0  0  0  0
  134.1970  123.1320   59.7650 C   0  0  0  0  0  0  0  0  0  0  0  0
  133.6340  124.0980   60.8280 C   0  0  0  0  0  0  0  0  0  0  0  0
  132.3950  125.2590   63.3450 C   0  0  0  0  0  0  0  0  0  0  0  0
  131.5960  126.0820   64.1330 C   0  0  0  0  0  0  0  0  0  0  0  0
  128.4430  127.7930   64.4600 C   0  0  0  0  0  0  0  0  0  0  0  0
  128.2460  127.9880   63.0220 C   0  0  0  0  0  0  0  0  0  0  0  0
  128.0910  128.1410   61.8850 N   0  0  0  0  0  0  0  0  0  0  0  0
  127.2590  131.1020   60.4010 C   0  0  0  0  0  0  0  0  0  0  0  0
  127.7650  131.4990   59.1660 C   0  0  0  0  0  0  0  0  0  0  0  0
  132.7510  131.1150   58.3277 H   0  0  0  0  0  0  0  0  0  0  0  0
  132.8639  130.0335   56.8979 H   0  0  0  0  0  0  0  0  0  0  0  0
  133.7169  131.6144   56.8979 H   0  0  0  0  0  0  0  0  0  0  0  0
  131.8800  132.4253   55.8134 H   0  0  0  0  0  0  0  0  0  0  0  0
  130.8984  130.9799   56.2255 H   0  0  0  0  0  0  0  0  0  0  0  0
  130.7860  132.7255   60.1743 H   0  0  0  0  0  0  0  0  0  0  0  0
  129.8819  132.0301   62.3794 H   0  0  0  0  0  0  0  0  0  0  0  0
  127.2820  129.9750   62.9440 H   0  0  0  0  0  0  0  0  0  0  0  0
  127.8029  130.9962   66.0216 H   0  0  0  0  0  0  0  0  0  0  0  0
  126.1018  131.3656   65.5721 H   0  0  0  0  0  0  0  0  0  0  0  0
  126.9338  126.1777   68.8689 H   0  0  0  0  0  0  0  0  0  0  0  0
  127.0520  125.9772   71.3324 H   0  0  0  0  0  0  0  0  0  0  0  0
  127.6228  128.5330   73.4183 H   0  0  0  0  0  0  0  0  0  0  0  0
  127.0740  126.8188   73.7451 H   0  0  0  0  0  0  0  0  0  0  0  0
  129.1150  128.4153   75.3618 H   0  0  0  0  0  0  0  0  0  0  0  0
  127.4434  127.9702   75.8602 H   0  0  0  0  0  0  0  0  0  0  0  0
  130.7300  126.7190   75.1127 H   0  0  0  0  0  0  0  0  0  0  0  0
  130.2621  125.0085   75.4260 H   0  0  0  0  0  0  0  0  0  0  0  0
  130.4782  125.5363   72.9782 H   0  0  0  0  0  0  0  0  0  0  0  0
  128.8008  125.0056   73.4767 H   0  0  0  0  0  0  0  0  0  0  0  0
  130.6855  128.3091   71.3442 H   0  0  0  0  0  0  0  0  0  0  0  0
  130.5581  128.5168   68.8817 H   0  0  0  0  0  0  0  0  0  0  0  0
  130.1111  125.9150   66.7778 H   0  0  0  0  0  0  0  0  0  0  0  0
  128.5372  124.8773   63.2487 H   0  0  0  0  0  0  0  0  0  0  0  0
  129.9586  123.4181   61.8367 H   0  0  0  0  0  0  0  0  0  0  0  0
  134.0077  122.4378   62.9626 H   0  0  0  0  0  0  0  0  0  0  0  0
  132.3732  121.6567   62.7255 H   0  0  0  0  0  0  0  0  0  0  0  0
  134.2457  120.4035   61.6177 H   0  0  0  0  0  0  0  0  0  0  0  0
  132.9634  120.9619   60.4852 H   0  0  0  0  0  0  0  0  0  0  0  0
  134.9796  123.6440   59.1859 H   0  0  0  0  0  0  0  0  0  0  0  0
  133.3824  122.8176   59.0960 H   0  0  0  0  0  0  0  0  0  0  0  0
  134.4709  124.4770   61.4329 H   0  0  0  0  0  0  0  0  0  0  0  0
  133.1112  124.9031   60.2908 H   0  0  0  0  0  0  0  0  0  0  0  0
  133.4881  125.3792   63.3721 H   0  0  0  0  0  0  0  0  0  0  0  0
  132.0638  126.8365   64.7826 H   0  0  0  0  0  0  0  0  0  0  0  0
  126.2600  130.6460   60.4646 H   0  0  0  0  0  0  0  0  0  0  0  0
  127.1610  131.3522   58.2584 H   0  0  0  0  0  0  0  0  0  0  0  0
  1  2  1  0
  2  3  1  0
  3  4  1  0
  4  5  2  0
  4  6  1  0
  6  7  2  0
  7  8  1  0
  8  9  2  0
  9 10  1  0
 10 11  1  0
 11 12  2  0
 11 13  1  0
 13 14  1  0
 14 15  1  0
 15 16  2  0
 16 17  1  0
 17 18  1  0
 18 19  2  0
 19 20  1  0
 20 21  2  0
 21 22  1  0
 22 23  1  0
 23 24  1  0
 24 25  1  0
 25 26  1  0
 26 27  1  0
 21 28  1  0
 28 29  2  0
 17 30  2  0
 30 31  1  0
 31 32  1  0
 32 33  2  0
 33 34  1  0
 34 35  2  0
 35 36  1  0
 36 37  1  0
 37 38  1  0
 38 39  1  0
 39 40  1  0
 40 41  1  0
 35 42  1  0
 42 43  2  0
 31 44  2  0
 44 45  1  0
 45 46  3  0
  9 47  1  0
 47 48  2  0
 48  6  1  0
 44 15  1  0
 29 18  1  0
 43 32  1  0
 27 22  1  0
 41 36  1  0
  1 49  1  0
  1 50  1  0
  1 51  1  0
  2 52  1  0
  2 53  1  0
  7 54  1  0
  8 55  1  0
 10 56  1  0
 13 57  1  0
 13 58  1  0
 19 59  1  0
 20 60  1  0
 23 61  1  0
 23 62  1  0
 24 63  1  0
 24 64  1  0
 26 65  1  0
 26 66  1  0
 27 67  1  0
 27 68  1  0
 28 69  1  0
 29 70  1  0
 30 71  1  0
 33 72  1  0
 34 73  1  0
 37 74  1  0
 37 75  1  0
 38 76  1  0
 38 77  1  0
 40 78  1  0
 40 79  1  0
 41 80  1  0
 41 81  1  0
 42 82  1  0
 43 83  1  0
 47 84  1  0
 48 85  1  0
M  END
>  <Binding energies>  (1) 
[-9.02]

>  <Ligand effiencies>  (1) 
[-0.1840816326530612]

>  <Interactions>  (1) 
["V-B:TYR:539:CE2:9845, V-A:HIS:456:CE1:4066, V-B:TYR:539:CZ:9846, V-A:ARG:545:CZ:4923, V-A:GLY:454:CA:4045, V-A:ASP:366:CG:3209, V-B:HIS:456:CD2:9036, V-A:LYS:547:CE:4947, V-B:GLY:544:C:9881, V-B:LYS:547:CE:9919, V-B:GLU:543:CD:9877, V-A:GLU:543:C:4899, V-B:HIS:456:CE1:9038, V-B:GLU:543:CG:9876, V-A:GLU:543:CD:4905, V-A:ILE:369:CB:3232, V-A:LEU:475:CD1:4254, V-A:ILE:369:CG2:3233, V-A:ILE:369:CG1:3234, H-A:GLU:543:OE2:4907, V-A:GLU:543:CG:4904, V-A:ASP:366:CB:3208, V-A:PRO:540:N:4881, V-A:PRO:540:C:4878, V-A:PRO:540:CA:4880, V-A:PRO:540:CB:4882, V-A:LEU:363:CD1:3185, V-A:TYR:539:C:4864, V-A:ALA:541:CB:4889, V-A:LEU:363:CA:3181, V-B:TYR:484:CE1:9313, V-B:TYR:484:CZ:9315, V-A:ASP:366:CA:3206, H-B:LYS:547:NZ:9920, H-A:TYR:539:N:4867"]

$$$$
2b_Ghoteimi_2023
     RDKit          3D

 72 77  0  0  0  0  0  0  0  0999 V2000
  129.8220  124.3610   58.9450 N   0  0  0  0  0  0  0  0  0  0  0  0
  129.7560  124.6930   60.0520 C   0  0  0  0  0  0  0  0  0  0  0  0
  129.6720  125.1210   61.4510 C   0  0  0  0  0  0  0  0  0  0  0  0
  129.6950  126.4980   61.7860 C   0  0  0  0  0  0  0  0  0  0  0  0
  129.8010  127.5960   60.7800 C   0  0  0  0  0  0  0  0  0  0  0  0
  130.7340  128.6210   60.9510 C   0  0  0  0  0  0  0  0  0  0  0  0
  130.8360  129.6470   60.0160 C   0  0  0  0  0  0  0  0  0  0  0  0
  129.9960  129.6850   58.8920 C   0  0  0  0  0  0  0  0  0  0  0  0
  130.0880  130.6970   57.9350 N   0  0  0  0  0  0  0  0  0  0  0  0
  129.0050  131.6960   57.8370 C   0  0  0  0  0  0  0  0  0  0  0  0
  129.0380  132.5060   56.5240 C   0  0  0  0  0  0  0  0  0  0  0  0
  130.3100  133.1130   56.3560 O   0  0  0  0  0  0  0  0  0  0  0  0
  131.3480  132.1480   56.3020 C   0  0  0  0  0  0  0  0  0  0  0  0
  131.3790  131.3370   57.6130 C   0  0  0  0  0  0  0  0  0  0  0  0
  129.0610  128.6530   58.7310 C   0  0  0  0  0  0  0  0  0  0  0  0
  128.9610  127.6250   59.6630 C   0  0  0  0  0  0  0  0  0  0  0  0
  129.6080  126.8570   63.1370 C   0  0  0  0  0  0  0  0  0  0  0  0
  129.4680  125.8760   64.1220 C   0  0  0  0  0  0  0  0  0  0  0  0
  129.3400  126.2090   65.5750 C   0  0  0  0  0  0  0  0  0  0  0  0
  129.6090  125.2460   66.5540 C   0  0  0  0  0  0  0  0  0  0  0  0
  129.5070  125.5530   67.9080 C   0  0  0  0  0  0  0  0  0  0  0  0
  129.1210  126.8330   68.3350 C   0  0  0  0  0  0  0  0  0  0  0  0
  129.0440  127.1660   69.6920 N   0  0  0  0  0  0  0  0  0  0  0  0
  128.5010  126.1900   70.6600 C   0  0  0  0  0  0  0  0  0  0  0  0
  128.1160  126.8140   72.0180 C   0  0  0  0  0  0  0  0  0  0  0  0
  129.2260  127.5100   72.5650 O   0  0  0  0  0  0  0  0  0  0  0  0
  129.6520  128.5600   71.7130 C   0  0  0  0  0  0  0  0  0  0  0  0
  130.0800  127.9900   70.3440 C   0  0  0  0  0  0  0  0  0  0  0  0
  128.8600  127.7970   67.3510 C   0  0  0  0  0  0  0  0  0  0  0  0
  128.9640  127.4900   65.9970 C   0  0  0  0  0  0  0  0  0  0  0  0
  129.4450  124.5580   63.8000 N   0  0  0  0  0  0  0  0  0  0  0  0
  129.5620  124.1840   62.5040 C   0  0  0  0  0  0  0  0  0  0  0  0
  129.5170  122.4210   62.2640 S   0  0  0  0  0  0  0  0  0  0  0  0
  129.2890  122.1150   60.4860 C   0  0  0  0  0  0  0  0  0  0  0  0
  127.8840  122.4920   60.0130 C   0  0  0  0  0  0  0  0  0  0  0  0
  127.5570  122.2580   58.8480 O   0  0  0  0  0  0  0  0  0  0  0  0
  127.0950  123.0740   60.9410 N   0  0  0  0  0  0  0  0  0  0  0  0
  125.7840  123.5010   60.7840 C   0  0  0  0  0  0  0  0  0  0  0  0
  125.4490  124.7720   60.3170 C   0  0  0  0  0  0  0  0  0  0  0  0
  124.0750  124.7980   60.3060 C   0  0  0  0  0  0  0  0  0  0  0  0
  123.6050  123.6060   60.7430 O   0  0  0  0  0  0  0  0  0  0  0  0
  124.6990  122.7900   61.0420 N   0  0  0  0  0  0  0  0  0  0  0  0
  131.3934  128.6175   61.8315 H   0  0  0  0  0  0  0  0  0  0  0  0
  131.5854  130.4392   60.1599 H   0  0  0  0  0  0  0  0  0  0  0  0
  128.0399  131.1718   57.8996 H   0  0  0  0  0  0  0  0  0  0  0  0
  129.1441  132.4090   58.6630 H   0  0  0  0  0  0  0  0  0  0  0  0
  128.8415  131.8329   55.6765 H   0  0  0  0  0  0  0  0  0  0  0  0
  128.2680  133.2904   56.5660 H   0  0  0  0  0  0  0  0  0  0  0  0
  131.1698  131.4676   55.4563 H   0  0  0  0  0  0  0  0  0  0  0  0
  132.3124  132.6604   56.1701 H   0  0  0  0  0  0  0  0  0  0  0  0
  132.1441  130.5521   57.5199 H   0  0  0  0  0  0  0  0  0  0  0  0
  131.6049  132.0419   58.4267 H   0  0  0  0  0  0  0  0  0  0  0  0
  128.3964  128.6561   57.8545 H   0  0  0  0  0  0  0  0  0  0  0  0
  128.2154  126.8290   59.5199 H   0  0  0  0  0  0  0  0  0  0  0  0
  129.6502  127.9180   63.4244 H   0  0  0  0  0  0  0  0  0  0  0  0
  129.9054  124.2315   66.2492 H   0  0  0  0  0  0  0  0  0  0  0  0
  129.7329  124.7789   68.6562 H   0  0  0  0  0  0  0  0  0  0  0  0
  127.6033  125.7290   70.2223 H   0  0  0  0  0  0  0  0  0  0  0  0
  129.2956  125.4552   70.8568 H   0  0  0  0  0  0  0  0  0  0  0  0
  127.2816  127.5159   71.8728 H   0  0  0  0  0  0  0  0  0  0  0  0
  127.8147  126.0141   72.7104 H   0  0  0  0  0  0  0  0  0  0  0  0
  128.8246  129.2704   71.5690 H   0  0  0  0  0  0  0  0  0  0  0  0
  130.5090  129.0730   72.1738 H   0  0  0  0  0  0  0  0  0  0  0  0
  130.3234  128.8315   69.6787 H   0  0  0  0  0  0  0  0  0  0  0  0
  130.9439  127.3338   70.5260 H   0  0  0  0  0  0  0  0  0  0  0  0
  128.5680  128.8134   67.6540 H   0  0  0  0  0  0  0  0  0  0  0  0
  128.7475  128.2655   65.2475 H   0  0  0  0  0  0  0  0  0  0  0  0
  130.0239  122.7121   59.9262 H   0  0  0  0  0  0  0  0  0  0  0  0
  129.4295  121.0389   60.3066 H   0  0  0  0  0  0  0  0  0  0  0  0
  127.4810  123.1950   61.8660 H   0  0  0  0  0  0  0  0  0  0  0  0
  126.1359  125.5788   60.0215 H   0  0  0  0  0  0  0  0  0  0  0  0
  123.4558  125.6513   59.9922 H   0  0  0  0  0  0  0  0  0  0  0  0
  1  2  3  0
  2  3  1  0
  3  4  2  0
  4  5  1  0
  5  6  2  0
  6  7  1  0
  7  8  2  0
  8  9  1  0
  9 10  1  0
 10 11  1  0
 11 12  1  0
 12 13  1  0
 13 14  1  0
  8 15  1  0
 15 16  2  0
  4 17  1  0
 17 18  2  0
 18 19  1  0
 19 20  2  0
 20 21  1  0
 21 22  2  0
 22 23  1  0
 23 24  1  0
 24 25  1  0
 25 26  1  0
 26 27  1  0
 27 28  1  0
 22 29  1  0
 29 30  2  0
 18 31  1  0
 31 32  2  0
 32 33  1  0
 33 34  1  0
 34 35  1  0
 35 36  2  0
 35 37  1  0
 37 38  1  0
 38 39  1  0
 39 40  2  0
 40 41  1  0
 41 42  1  0
 32  3  1  0
 42 38  2  0
 16  5  1  0
 30 19  1  0
 14  9  1  0
 28 23  1  0
  6 43  1  0
  7 44  1  0
 10 45  1  0
 10 46  1  0
 11 47  1  0
 11 48  1  0
 13 49  1  0
 13 50  1  0
 14 51  1  0
 14 52  1  0
 15 53  1  0
 16 54  1  0
 17 55  1  0
 20 56  1  0
 21 57  1  0
 24 58  1  0
 24 59  1  0
 25 60  1  0
 25 61  1  0
 27 62  1  0
 27 63  1  0
 28 64  1  0
 28 65  1  0
 29 66  1  0
 30 67  1  0
 34 68  1  0
 34 69  1  0
 37 70  1  0
 39 71  1  0
 40 72  1  0
M  END
>  <Binding energies>  (1) 
[-10.9]

>  <Ligand effiencies>  (1) 
[-0.2534883720930233]

>  <Interactions>  (1) 
["H-B:ALA:541:N:9860, V-B:TYR:539:CE2:9845, V-A:HIS:456:CE1:4066, V-B:PRO:540:CA:9852, V-B:ALA:541:CB:9861, V-B:ASN:362:C:8140, V-B:TYR:539:CD2:9843, H-B:GLU:543:OE2:9879, V-A:TYR:484:CE1:4341, V-B:HIS:456:CD2:9036, V-A:GLU:543:CB:4903, H-A:LYS:547:NZ:4948, V-B:LYS:547:CE:9919, V-B:GLU:543:CB:9875, V-B:GLU:543:CD:9877, V-A:GLU:543:C:4899, V-B:HIS:456:CE1:9038, V-B:GLU:543:CG:9876, V-A:GLU:543:CD:4905, H-B:TYR:539:OH:9847, V-A:PRO:540:N:4881, V-B:ASP:366:CG:8181, V-A:PRO:540:CA:4880, V-A:PRO:540:CB:4882, V-A:TYR:539:C:4864, V-A:TYR:539:CE2:4873, V-A:TYR:539:CD2:4871, H-B:LEU:363:N:8154, V-A:TYR:539:CG:4869, H-A:TYR:539:N:4867, V-A:ILE:538:CG2:4860, V-A:ILE:538:CD1:4862"]

$$$$
2b_Grossjean_2025
     RDKit          3D

 42 43  0  0  0  0  0  0  0  0999 V2000
  126.2100  127.9570   73.5380 C   0  0  0  0  0  0  0  0  0  0  0  0
  126.9590  127.2680   72.5470 O   0  0  0  0  0  0  0  0  0  0  0  0
  128.3020  127.4340   72.4440 C   0  0  0  0  0  0  0  0  0  0  0  0
  129.0230  127.7560   73.3940 O   0  0  0  0  0  0  0  0  0  0  0  0
  128.8260  127.1900   71.0580 C   0  0  0  0  0  0  0  0  0  0  0  0
  128.3110  126.1750   70.2380 C   0  0  0  0  0  0  0  0  0  0  0  0
  128.8200  125.9740   68.9580 C   0  0  0  0  0  0  0  0  0  0  0  0
  129.8450  126.7840   68.4700 C   0  0  0  0  0  0  0  0  0  0  0  0
  130.2890  126.4900   67.1660 N   0  0  0  0  0  0  0  0  0  0  0  0
  131.3380  126.9910   66.4790 C   0  0  0  0  0  0  0  0  0  0  0  0
  132.1120  127.8560   66.8910 O   0  0  0  0  0  0  0  0  0  0  0  0
  131.5290  126.4180   65.0710 C   0  0  0  0  0  0  0  0  0  0  0  0
  133.0450  125.4190   64.9040 S   0  0  0  0  0  0  0  0  0  0  0  0
  132.8690  124.2660   63.5490 C   0  0  0  0  0  0  0  0  0  0  0  0
  133.8750  124.2700   62.6370 N   0  0  0  0  0  0  0  0  0  0  0  0
  133.8050  123.4280   61.5830 C   0  0  0  0  0  0  0  0  0  0  0  0
  134.9610  123.5030   60.6040 C   0  0  0  0  0  0  0  0  0  0  0  0
  132.7450  122.5450   61.3960 C   0  0  0  0  0  0  0  0  0  0  0  0
  131.6980  122.5180   62.3290 C   0  0  0  0  0  0  0  0  0  0  0  0
  130.5350  121.5320   62.1100 C   0  0  0  0  0  0  0  0  0  0  0  0
  129.4480  122.1910   61.7050 F   0  0  0  0  0  0  0  0  0  0  0  0
  130.8650  120.6320   61.1820 F   0  0  0  0  0  0  0  0  0  0  0  0
  130.2090  120.8630   63.2180 F   0  0  0  0  0  0  0  0  0  0  0  0
  131.7550  123.4020   63.4370 C   0  0  0  0  0  0  0  0  0  0  0  0
  130.6850  123.4200   64.4400 C   0  0  0  0  0  0  0  0  0  0  0  0
  129.8410  123.4340   65.2310 N   0  0  0  0  0  0  0  0  0  0  0  0
  130.3710  127.7960   69.2850 C   0  0  0  0  0  0  0  0  0  0  0  0
  129.8620  127.9950   70.5650 C   0  0  0  0  0  0  0  0  0  0  0  0
  126.5492  127.6450   74.5368 H   0  0  0  0  0  0  0  0  0  0  0  0
  126.3585  129.0408   73.4223 H   0  0  0  0  0  0  0  0  0  0  0  0
  125.1424  127.7188   73.4223 H   0  0  0  0  0  0  0  0  0  0  0  0
  127.4987  125.5329   70.6093 H   0  0  0  0  0  0  0  0  0  0  0  0
  128.4110  125.1709   68.3273 H   0  0  0  0  0  0  0  0  0  0  0  0
  129.6990  125.8420   66.6640 H   0  0  0  0  0  0  0  0  0  0  0  0
  130.6633  125.7831   64.8312 H   0  0  0  0  0  0  0  0  0  0  0  0
  131.6198  127.2693   64.3803 H   0  0  0  0  0  0  0  0  0  0  0  0
  135.9085  123.5645   61.1594 H   0  0  0  0  0  0  0  0  0  0  0  0
  134.9646  122.6032   59.9713 H   0  0  0  0  0  0  0  0  0  0  0  0
  134.8483  124.3957   59.9713 H   0  0  0  0  0  0  0  0  0  0  0  0
  132.7287  121.8744   60.5242 H   0  0  0  0  0  0  0  0  0  0  0  0
  131.1866  128.4333   68.9126 H   0  0  0  0  0  0  0  0  0  0  0  0
  130.2777  128.7935   71.1972 H   0  0  0  0  0  0  0  0  0  0  0  0
  1  2  1  0
  2  3  1  0
  3  4  2  0
  3  5  1  0
  5  6  2  0
  6  7  1  0
  7  8  2  0
  8  9  1  0
  9 10  1  0
 10 11  2  0
 10 12  1  0
 12 13  1  0
 13 14  1  0
 14 15  2  0
 15 16  1  0
 16 17  1  0
 16 18  2  0
 18 19  1  0
 19 20  1  0
 20 21  1  0
 20 22  1  0
 20 23  1  0
 19 24  2  0
 24 25  1  0
 25 26  3  0
  8 27  1  0
 27 28  2  0
 28  5  1  0
 24 14  1  0
  1 29  1  0
  1 30  1  0
  1 31  1  0
  6 32  1  0
  7 33  1  0
  9 34  1  0
 12 35  1  0
 12 36  1  0
 17 37  1  0
 17 38  1  0
 17 39  1  0
 18 40  1  0
 27 41  1  0
 28 42  1  0
M  END
>  <Binding energies>  (1) 
[-7.13]

>  <Ligand effiencies>  (1) 
[-0.24586206896551724]

>  <Interactions>  (1) 
["V-B:TYR:539:CE2:9845, V-A:HIS:456:CE1:4066, V-A:ARG:545:CG:4919, V-A:ARG:545:CZ:4923, V-B:ALA:541:CB:9861, H-A:GLY:454:N:4046, H-A:TYR:484:OH:4344, V-A:GLY:454:CA:4045, V-B:TYR:539:CD2:9843, V-A:ASP:366:CG:3209, V-A:TYR:484:CE1:4341, V-B:HIS:456:CD2:9036, V-A:GLU:543:CB:4903, H-A:LYS:547:NZ:4948, V-B:LYS:547:CE:9919, V-B:GLU:543:CB:9875, V-B:HIS:456:CB:9033, V-A:GLU:543:C:4899, V-A:TYR:484:CZ:4343, V-A:GLU:543:CD:4905, H-A:ARG:545:NH2:4925, V-A:ILE:369:CB:3232, V-A:LEU:475:CD1:4254, V-A:ILE:369:CG2:3233, V-A:ILE:369:CG1:3234, V-A:LEU:475:CD2:4255, V-B:GLU:543:C:9871, H-A:ARG:545:NE:4921, V-B:HIS:456:CG:9034, V-A:ASP:366:CA:3206, V-A:LEU:475:CG:4253"]

$$$$
2c_Ghoteimi_2023
     RDKit          3D

 72 77  0  0  0  0  0  0  0  0999 V2000
  129.6500  124.4220   58.7490 N   0  0  0  0  0  0  0  0  0  0  0  0
  129.6450  124.7480   59.8590 C   0  0  0  0  0  0  0  0  0  0  0  0
  129.6390  125.1680   61.2640 C   0  0  0  0  0  0  0  0  0  0  0  0
  129.6840  126.5420   61.6060 C   0  0  0  0  0  0  0  0  0  0  0  0
  129.7430  127.6480   60.6040 C   0  0  0  0  0  0  0  0  0  0  0  0
  128.8040  127.7130   59.5730 C   0  0  0  0  0  0  0  0  0  0  0  0
  128.8490  128.7430   58.6370 C   0  0  0  0  0  0  0  0  0  0  0  0
  129.8450  129.7300   58.6980 C   0  0  0  0  0  0  0  0  0  0  0  0
  129.8980  130.7830   57.7810 N   0  0  0  0  0  0  0  0  0  0  0  0
  128.7490  131.7040   57.6720 C   0  0  0  0  0  0  0  0  0  0  0  0
  128.7720  132.5570   56.3860 C   0  0  0  0  0  0  0  0  0  0  0  0
  129.9990  133.2650   56.2950 O   0  0  0  0  0  0  0  0  0  0  0  0
  131.1110  132.3850   56.2550 C   0  0  0  0  0  0  0  0  0  0  0  0
  131.1490  131.5260   57.5360 C   0  0  0  0  0  0  0  0  0  0  0  0
  130.7870  129.6540   59.7340 C   0  0  0  0  0  0  0  0  0  0  0  0
  130.7390  128.6250   60.6710 C   0  0  0  0  0  0  0  0  0  0  0  0
  129.6720  126.8920   62.9630 C   0  0  0  0  0  0  0  0  0  0  0  0
  129.5900  125.9040   63.9480 C   0  0  0  0  0  0  0  0  0  0  0  0
  129.5570  126.2260   65.4080 C   0  0  0  0  0  0  0  0  0  0  0  0
  129.7790  127.5320   65.8560 C   0  0  0  0  0  0  0  0  0  0  0  0
  129.7440  127.8400   67.2140 C   0  0  0  0  0  0  0  0  0  0  0  0
  129.4960  126.8480   68.1770 C   0  0  0  0  0  0  0  0  0  0  0  0
  129.4330  127.1450   69.5420 N   0  0  0  0  0  0  0  0  0  0  0  0
  128.8210  126.1780   70.4770 C   0  0  0  0  0  0  0  0  0  0  0  0
  128.4730  126.7830   71.8530 C   0  0  0  0  0  0  0  0  0  0  0  0
  129.6240  127.3800   72.4270 O   0  0  0  0  0  0  0  0  0  0  0  0
  130.1290  128.4250   71.6110 C   0  0  0  0  0  0  0  0  0  0  0  0
  130.5220  127.8720   70.2250 C   0  0  0  0  0  0  0  0  0  0  0  0
  129.2620  125.5430   67.7210 C   0  0  0  0  0  0  0  0  0  0  0  0
  129.2960  125.2370   66.3630 C   0  0  0  0  0  0  0  0  0  0  0  0
  129.5450  124.5880   63.6180 N   0  0  0  0  0  0  0  0  0  0  0  0
  129.5870  124.2230   62.3140 C   0  0  0  0  0  0  0  0  0  0  0  0
  129.5300  122.4630   62.0650 S   0  0  0  0  0  0  0  0  0  0  0  0
  128.6780  122.1630   60.4870 C   0  0  0  0  0  0  0  0  0  0  0  0
  127.3130  122.8520   60.4310 C   0  0  0  0  0  0  0  0  0  0  0  0
  126.5750  122.8110   61.4170 O   0  0  0  0  0  0  0  0  0  0  0  0
  127.0180  123.4660   59.2650 N   0  0  0  0  0  0  0  0  0  0  0  0
  125.8610  124.1700   58.9680 C   0  0  0  0  0  0  0  0  0  0  0  0
  125.7370  125.2380   58.2110 N   0  0  0  0  0  0  0  0  0  0  0  0
  124.4840  125.6430   58.1440 C   0  0  0  0  0  0  0  0  0  0  0  0
  123.5570  124.8940   58.8610 C   0  0  0  0  0  0  0  0  0  0  0  0
  124.3810  123.5910   59.6630 S   0  0  0  0  0  0  0  0  0  0  0  0
  128.0214  126.9435   59.4993 H   0  0  0  0  0  0  0  0  0  0  0  0
  128.0934  128.7837   57.8386 H   0  0  0  0  0  0  0  0  0  0  0  0
  127.8231  131.1101   57.6809 H   0  0  0  0  0  0  0  0  0  0  0  0
  128.8042  132.3971   58.5244 H   0  0  0  0  0  0  0  0  0  0  0  0
  128.6651  131.8994   55.5107 H   0  0  0  0  0  0  0  0  0  0  0  0
  127.9409  133.2770   56.4154 H   0  0  0  0  0  0  0  0  0  0  0  0
  131.0239  131.7273   55.3776 H   0  0  0  0  0  0  0  0  0  0  0  0
  132.0369  132.9751   56.1878 H   0  0  0  0  0  0  0  0  0  0  0  0
  131.9724  130.8022   57.4461 H   0  0  0  0  0  0  0  0  0  0  0  0
  131.2898  132.2130   58.3835 H   0  0  0  0  0  0  0  0  0  0  0  0
  131.5750  130.4180   59.8075 H   0  0  0  0  0  0  0  0  0  0  0  0
  131.4924  128.5812   61.4713 H   0  0  0  0  0  0  0  0  0  0  0  0
  129.7275  127.9512   63.2547 H   0  0  0  0  0  0  0  0  0  0  0  0
  129.9843  128.3280   65.1251 H   0  0  0  0  0  0  0  0  0  0  0  0
  129.9134  128.8776   67.5377 H   0  0  0  0  0  0  0  0  0  0  0  0
  127.8961  125.7930   70.0227 H   0  0  0  0  0  0  0  0  0  0  0  0
  129.5633  125.3853   70.6521 H   0  0  0  0  0  0  0  0  0  0  0  0
  127.6911  127.5465   71.7277 H   0  0  0  0  0  0  0  0  0  0  0  0
  128.1122  125.9839   72.5172 H   0  0  0  0  0  0  0  0  0  0  0  0
  129.3554  129.1974   71.4887 H   0  0  0  0  0  0  0  0  0  0  0  0
  131.0184  128.8592   72.0911 H   0  0  0  0  0  0  0  0  0  0  0  0
  130.8277  128.7158   69.5890 H   0  0  0  0  0  0  0  0  0  0  0  0
  131.3361  127.1502   70.3874 H   0  0  0  0  0  0  0  0  0  0  0  0
  129.0477  124.7467   68.4490 H   0  0  0  0  0  0  0  0  0  0  0  0
  129.1150  124.2024   66.0360 H   0  0  0  0  0  0  0  0  0  0  0  0
  129.3033  122.5470   59.6675 H   0  0  0  0  0  0  0  0  0  0  0  0
  128.5152  121.0794   60.3901 H   0  0  0  0  0  0  0  0  0  0  0  0
  127.7130  123.4370   58.5330 H   0  0  0  0  0  0  0  0  0  0  0  0
  124.1886  126.5234   57.5544 H   0  0  0  0  0  0  0  0  0  0  0  0
  122.4766  125.0941   58.9122 H   0  0  0  0  0  0  0  0  0  0  0  0
  1  2  3  0
  2  3  1  0
  3  4  2  0
  4  5  1  0
  5  6  2  0
  6  7  1  0
  7  8  2  0
  8  9  1  0
  9 10  1  0
 10 11  1  0
 11 12  1  0
 12 13  1  0
 13 14  1  0
  8 15  1  0
 15 16  2  0
  4 17  1  0
 17 18  2  0
 18 19  1  0
 19 20  2  0
 20 21  1  0
 21 22  2  0
 22 23  1  0
 23 24  1  0
 24 25  1  0
 25 26  1  0
 26 27  1  0
 27 28  1  0
 22 29  1  0
 29 30  2  0
 18 31  1  0
 31 32  2  0
 32 33  1  0
 33 34  1  0
 34 35  1  0
 35 36  2  0
 35 37  1  0
 37 38  1  0
 38 39  2  0
 39 40  1  0
 40 41  2  0
 41 42  1  0
 32  3  1  0
 42 38  1  0
 16  5  1  0
 30 19  1  0
 14  9  1  0
 28 23  1  0
  6 43  1  0
  7 44  1  0
 10 45  1  0
 10 46  1  0
 11 47  1  0
 11 48  1  0
 13 49  1  0
 13 50  1  0
 14 51  1  0
 14 52  1  0
 15 53  1  0
 16 54  1  0
 17 55  1  0
 20 56  1  0
 21 57  1  0
 24 58  1  0
 24 59  1  0
 25 60  1  0
 25 61  1  0
 27 62  1  0
 27 63  1  0
 28 64  1  0
 28 65  1  0
 29 66  1  0
 30 67  1  0
 34 68  1  0
 34 69  1  0
 37 70  1  0
 40 71  1  0
 41 72  1  0
M  END
>  <Binding energies>  (1) 
[-9.88]

>  <Ligand effiencies>  (1) 
[-0.22976744186046513]

>  <Interactions>  (1) 
["V-B:PRO:540:C:9850, H-B:ALA:541:N:9860, V-B:TYR:539:CE2:9845, V-A:HIS:456:CE1:4066, V-B:PRO:540:CA:9852, V-B:ALA:541:CB:9861, V-B:ASN:362:C:8140, V-B:PRO:540:CB:9854, V-B:TYR:539:CD2:9843, V-A:ASP:366:CG:3209, V-B:HIS:456:CD2:9036, V-A:GLU:543:CB:4903, H-A:LYS:547:NZ:4948, V-B:LYS:547:CE:9919, V-B:GLU:543:CB:9875, V-B:GLU:543:CD:9877, V-A:GLU:543:C:4899, V-B:GLU:543:CG:9876, V-A:GLY:544:C:4909, V-A:GLU:543:CD:4905, V-B:LEU:363:CA:8153, H-B:TYR:539:OH:9847, V-A:HIS:456:CD2:4064, V-B:LEU:363:CD1:8157, V-B:TYR:531:CE2:9762, V-A:PRO:540:N:4881, V-B:ASP:366:CG:8181, V-A:PRO:540:CA:4880, V-A:PRO:540:CB:4882, V-A:TYR:539:C:4864, V-B:ASP:366:CB:8180, V-A:TYR:539:CE2:4873, V-A:TYR:539:CD2:4871, V-A:PRO:540:CD:4884, V-A:TYR:539:CZ:4874, V-A:TYR:539:CG:4869, H-A:TYR:539:N:4867, V-A:ILE:538:CG2:4860, V-A:ILE:538:CD1:4862"]

$$$$
2c_Grossjean_2025
     RDKit          3D

 40 41  0  0  0  0  0  0  0  0999 V2000
  128.1630  128.3350   73.4240 C   0  0  0  0  0  0  0  0  0  0  0  0
  129.3490  127.8250   72.8220 O   0  0  0  0  0  0  0  0  0  0  0  0
  129.3100  127.4040   71.5070 C   0  0  0  0  0  0  0  0  0  0  0  0
  130.2180  128.0020   70.6350 C   0  0  0  0  0  0  0  0  0  0  0  0
  130.2530  127.6450   69.2890 C   0  0  0  0  0  0  0  0  0  0  0  0
  129.3610  126.6810   68.7980 C   0  0  0  0  0  0  0  0  0  0  0  0
  129.3340  126.2420   67.4620 N   0  0  0  0  0  0  0  0  0  0  0  0
  130.2870  126.3700   66.5130 C   0  0  0  0  0  0  0  0  0  0  0  0
  131.3540  126.9660   66.6680 O   0  0  0  0  0  0  0  0  0  0  0  0
  129.9380  125.7390   65.1570 C   0  0  0  0  0  0  0  0  0  0  0  0
  129.9110  123.9120   65.1240 S   0  0  0  0  0  0  0  0  0  0  0  0
  130.5390  123.3360   63.5520 C   0  0  0  0  0  0  0  0  0  0  0  0
  129.6250  122.7580   62.7300 N   0  0  0  0  0  0  0  0  0  0  0  0
  130.0300  122.2910   61.5290 C   0  0  0  0  0  0  0  0  0  0  0  0
  128.9540  121.6440   60.6780 C   0  0  0  0  0  0  0  0  0  0  0  0
  131.3490  122.3860   61.0920 C   0  0  0  0  0  0  0  0  0  0  0  0
  132.3080  122.9860   61.9200 C   0  0  0  0  0  0  0  0  0  0  0  0
  133.7630  123.0850   61.4220 C   0  0  0  0  0  0  0  0  0  0  0  0
  133.7870  123.1160   60.0880 F   0  0  0  0  0  0  0  0  0  0  0  0
  134.3330  124.1960   61.8910 F   0  0  0  0  0  0  0  0  0  0  0  0
  134.5130  122.0520   61.8130 F   0  0  0  0  0  0  0  0  0  0  0  0
  131.8980  123.4760   63.1860 C   0  0  0  0  0  0  0  0  0  0  0  0
  132.8590  124.1110   64.0940 C   0  0  0  0  0  0  0  0  0  0  0  0
  133.6180  124.6120   64.8100 N   0  0  0  0  0  0  0  0  0  0  0  0
  128.4600  126.0670   69.6710 C   0  0  0  0  0  0  0  0  0  0  0  0
  128.4290  126.4280   71.0150 C   0  0  0  0  0  0  0  0  0  0  0  0
  128.2604  128.2931   74.5189 H   0  0  0  0  0  0  0  0  0  0  0  0
  128.0112  129.3779   73.1090 H   0  0  0  0  0  0  0  0  0  0  0  0
  127.3016  127.7278   73.1090 H   0  0  0  0  0  0  0  0  0  0  0  0
  130.9147  128.7643   71.0139 H   0  0  0  0  0  0  0  0  0  0  0  0
  130.9794  128.1187   68.6123 H   0  0  0  0  0  0  0  0  0  0  0  0
  128.4580  125.8340   67.1690 H   0  0  0  0  0  0  0  0  0  0  0  0
  128.9409  126.0982   64.8625 H   0  0  0  0  0  0  0  0  0  0  0  0
  130.7396  126.0420   64.4673 H   0  0  0  0  0  0  0  0  0  0  0  0
  128.1952  121.1877   61.3308 H   0  0  0  0  0  0  0  0  0  0  0  0
  128.4804  122.4072   60.0430 H   0  0  0  0  0  0  0  0  0  0  0  0
  129.4060  120.8678   60.0430 H   0  0  0  0  0  0  0  0  0  0  0  0
  131.6359  121.9935   60.1053 H   0  0  0  0  0  0  0  0  0  0  0  0
  127.7723  125.2952   69.2950 H   0  0  0  0  0  0  0  0  0  0  0  0
  127.7108  125.9462   71.6948 H   0  0  0  0  0  0  0  0  0  0  0  0
  1  2  1  0
  2  3  1  0
  3  4  2  0
  4  5  1  0
  5  6  2  0
  6  7  1  0
  7  8  1  0
  8  9  2  0
  8 10  1  0
 10 11  1  0
 11 12  1  0
 12 13  2  0
 13 14  1  0
 14 15  1  0
 14 16  2  0
 16 17  1  0
 17 18  1  0
 18 19  1  0
 18 20  1  0
 18 21  1  0
 17 22  2  0
 22 23  1  0
 23 24  3  0
  6 25  1  0
 25 26  2  0
 26  3  1  0
 22 12  1  0
  1 27  1  0
  1 28  1  0
  1 29  1  0
  4 30  1  0
  5 31  1  0
  7 32  1  0
 10 33  1  0
 10 34  1  0
 15 35  1  0
 15 36  1  0
 15 37  1  0
 16 38  1  0
 25 39  1  0
 26 40  1  0
M  END
>  <Binding energies>  (1) 
[-6.87]

>  <Ligand effiencies>  (1) 
[-0.2544444444444445]

>  <Interactions>  (1) 
["V-B:TYR:539:CE2:9845, V-A:HIS:456:CE1:4066, V-B:TYR:539:CZ:9846, V-A:GLY:453:C:4038, V-A:GLY:453:CA:4040, V-B:ALA:541:CB:9861, H-A:GLY:454:N:4046, H-A:TYR:484:OH:4344, V-A:GLY:454:CA:4045, V-B:TYR:539:CD2:9843, V-A:ASP:366:CG:3209, V-B:HIS:456:CD2:9036, H-A:LYS:547:NZ:4948, V-B:GLU:543:CB:9875, V-B:GLU:543:CD:9877, V-A:GLU:543:C:4899, V-B:GLU:543:CG:9876, V-A:GLY:544:C:4909, V-A:ILE:369:CB:3232, V-A:LEU:475:CD1:4254, V-A:ILE:369:CG2:3233, V-A:ILE:369:CG1:3234, V-B:GLU:543:C:9871, H-B:GLU:543:OE1:9878, H-B:GLU:543:O:9872"]

$$$$
2d_Ghoteimi_2023
     RDKit          3D

 68 72  0  0  0  0  0  0  0  0999 V2000
  124.2490  130.7910   62.7930 C   0  0  0  0  0  0  0  0  0  0  0  0
  123.9290  130.4990   64.1450 O   0  0  0  0  0  0  0  0  0  0  0  0
  124.6280  129.5700   64.8290 C   0  0  0  0  0  0  0  0  0  0  0  0
  124.4050  129.2180   65.9910 O   0  0  0  0  0  0  0  0  0  0  0  0
  125.7570  128.9770   63.9720 C   0  0  0  0  0  0  0  0  0  0  0  0
  127.3860  129.6110   64.4970 S   0  0  0  0  0  0  0  0  0  0  0  0
  128.3240  128.2550   65.1720 C   0  0  0  0  0  0  0  0  0  0  0  0
  128.2790  128.1960   66.5260 N   0  0  0  0  0  0  0  0  0  0  0  0
  128.9550  127.2150   67.1760 C   0  0  0  0  0  0  0  0  0  0  0  0
  128.8740  127.2240   68.6690 C   0  0  0  0  0  0  0  0  0  0  0  0
  127.8830  126.4920   69.3320 C   0  0  0  0  0  0  0  0  0  0  0  0
  127.8010  126.4950   70.7230 C   0  0  0  0  0  0  0  0  0  0  0  0
  128.7150  127.2230   71.5000 C   0  0  0  0  0  0  0  0  0  0  0  0
  128.6360  127.2520   72.8970 N   0  0  0  0  0  0  0  0  0  0  0  0
  127.4070  127.6820   73.5920 C   0  0  0  0  0  0  0  0  0  0  0  0
  127.6220  128.0050   75.0850 C   0  0  0  0  0  0  0  0  0  0  0  0
  128.2090  126.8920   75.7410 O   0  0  0  0  0  0  0  0  0  0  0  0
  129.4700  126.5640   75.1820 C   0  0  0  0  0  0  0  0  0  0  0  0
  129.3120  126.2040   73.6890 C   0  0  0  0  0  0  0  0  0  0  0  0
  129.6970  127.9660   70.8300 C   0  0  0  0  0  0  0  0  0  0  0  0
  129.7770  127.9650   69.4410 C   0  0  0  0  0  0  0  0  0  0  0  0
  129.6950  126.2610   66.4730 C   0  0  0  0  0  0  0  0  0  0  0  0
  129.7300  126.2800   65.0740 C   0  0  0  0  0  0  0  0  0  0  0  0
  130.5180  125.2120   64.3890 C   0  0  0  0  0  0  0  0  0  0  0  0
  129.9750  123.9370   64.2210 C   0  0  0  0  0  0  0  0  0  0  0  0
  130.6960  122.9380   63.5730 C   0  0  0  0  0  0  0  0  0  0  0  0
  131.9860  123.1870   63.0760 C   0  0  0  0  0  0  0  0  0  0  0  0
  132.7230  122.2030   62.4100 N   0  0  0  0  0  0  0  0  0  0  0  0
  134.0890  122.4660   61.9180 C   0  0  0  0  0  0  0  0  0  0  0  0
  134.8650  121.1850   61.5430 C   0  0  0  0  0  0  0  0  0  0  0  0
  134.1230  120.4260   60.6010 O   0  0  0  0  0  0  0  0  0  0  0  0
  132.8590  120.0400   61.1180 C   0  0  0  0  0  0  0  0  0  0  0  0
  132.0310  121.2920   61.4780 C   0  0  0  0  0  0  0  0  0  0  0  0
  132.5150  124.4750   63.2320 C   0  0  0  0  0  0  0  0  0  0  0  0
  131.7930  125.4740   63.8790 C   0  0  0  0  0  0  0  0  0  0  0  0
  129.0210  127.3020   64.3950 C   0  0  0  0  0  0  0  0  0  0  0  0
  129.0120  127.3530   62.9300 C   0  0  0  0  0  0  0  0  0  0  0  0
  129.0070  127.3900   61.7720 N   0  0  0  0  0  0  0  0  0  0  0  0
  125.0612  131.5321   62.7603 H   0  0  0  0  0  0  0  0  0  0  0  0
  124.5723  129.8701   62.2856 H   0  0  0  0  0  0  0  0  0  0  0  0
  123.3615  131.1970   62.2856 H   0  0  0  0  0  0  0  0  0  0  0  0
  125.7481  127.8818   64.0746 H   0  0  0  0  0  0  0  0  0  0  0  0
  125.5901  129.2696   62.9248 H   0  0  0  0  0  0  0  0  0  0  0  0
  127.1587  125.9061   68.7472 H   0  0  0  0  0  0  0  0  0  0  0  0
  127.0074  125.9176   71.2198 H   0  0  0  0  0  0  0  0  0  0  0  0
  127.0229  128.5839   73.0930 H   0  0  0  0  0  0  0  0  0  0  0  0
  126.6982  126.8422   73.5427 H   0  0  0  0  0  0  0  0  0  0  0  0
  128.2880  128.8756   75.1775 H   0  0  0  0  0  0  0  0  0  0  0  0
  126.6507  128.2283   75.5504 H   0  0  0  0  0  0  0  0  0  0  0  0
  130.1460  127.4264   75.2786 H   0  0  0  0  0  0  0  0  0  0  0  0
  129.8872  125.6990   75.7184 H   0  0  0  0  0  0  0  0  0  0  0  0
  130.3126  126.0375   73.2635 H   0  0  0  0  0  0  0  0  0  0  0  0
  128.6814  125.3041   73.6388 H   0  0  0  0  0  0  0  0  0  0  0  0
  130.4167  128.5600   71.4125 H   0  0  0  0  0  0  0  0  0  0  0  0
  130.5605  128.5545   68.9424 H   0  0  0  0  0  0  0  0  0  0  0  0
  130.2540  125.4896   67.0229 H   0  0  0  0  0  0  0  0  0  0  0  0
  128.9672  123.7195   64.6045 H   0  0  0  0  0  0  0  0  0  0  0  0
  130.2496  121.9404   63.4485 H   0  0  0  0  0  0  0  0  0  0  0  0
  134.0207  123.1057   61.0257 H   0  0  0  0  0  0  0  0  0  0  0  0
  134.6405  122.9507   62.7371 H   0  0  0  0  0  0  0  0  0  0  0  0
  135.8350  121.4620   61.1045 H   0  0  0  0  0  0  0  0  0  0  0  0
  135.0237  120.5810   62.4485 H   0  0  0  0  0  0  0  0  0  0  0  0
  132.3198  119.4521   60.3606 H   0  0  0  0  0  0  0  0  0  0  0  0
  133.0092  119.4338   62.0235 H   0  0  0  0  0  0  0  0  0  0  0  0
  131.8102  121.8424   60.5516 H   0  0  0  0  0  0  0  0  0  0  0  0
  131.1174  120.9438   61.9820 H   0  0  0  0  0  0  0  0  0  0  0  0
  133.5166  124.7004   62.8370 H   0  0  0  0  0  0  0  0  0  0  0  0
  132.2293  126.4777   63.9899 H   0  0  0  0  0  0  0  0  0  0  0  0
  1  2  1  0
  2  3  1  0
  3  4  2  0
  3  5  1  0
  5  6  1  0
  6  7  1  0
  7  8  2  0
  8  9  1  0
  9 10  1  0
 10 11  2  0
 11 12  1  0
 12 13  2  0
 13 14  1  0
 14 15  1  0
 15 16  1  0
 16 17  1  0
 17 18  1  0
 18 19  1  0
 13 20  1  0
 20 21  2  0
  9 22  2  0
 22 23  1  0
 23 24  1  0
 24 25  2  0
 25 26  1  0
 26 27  2  0
 27 28  1  0
 28 29  1  0
 29 30  1  0
 30 31  1  0
 31 32  1  0
 32 33  1  0
 27 34  1  0
 34 35  2  0
 23 36  2  0
 36 37  1  0
 37 38  3  0
 36  7  1  0
 21 10  1  0
 35 24  1  0
 19 14  1  0
 33 28  1  0
  1 39  1  0
  1 40  1  0
  1 41  1  0
  5 42  1  0
  5 43  1  0
 11 44  1  0
 12 45  1  0
 15 46  1  0
 15 47  1  0
 16 48  1  0
 16 49  1  0
 18 50  1  0
 18 51  1  0
 19 52  1  0
 19 53  1  0
 20 54  1  0
 21 55  1  0
 22 56  1  0
 25 57  1  0
 26 58  1  0
 29 59  1  0
 29 60  1  0
 30 61  1  0
 30 62  1  0
 32 63  1  0
 32 64  1  0
 33 65  1  0
 33 66  1  0
 34 67  1  0
 35 68  1  0
M  END
>  <Binding energies>  (1) 
[-8.79]

>  <Ligand effiencies>  (1) 
[-0.2313157894736842]

>  <Interactions>  (1) 
["V-B:TYR:539:CE2:9845, V-A:HIS:456:CE1:4066, V-A:GLY:453:C:4038, V-A:ARG:545:CZ:4923, V-A:GLY:454:CA:4045, V-B:TYR:539:CD2:9843, V-B:HIS:456:CD2:9036, V-A:LYS:547:CE:4947, V-B:LYS:547:CD:9918, V-B:GLY:544:C:9881, V-B:LYS:547:CE:9919, V-B:GLU:543:CB:9875, V-B:GLU:543:CD:9877, V-A:GLU:543:C:4899, V-B:HIS:456:CE1:9038, V-B:GLU:543:CG:9876, V-A:GLU:543:CD:4905, V-A:ILE:369:CB:3232, V-A:LEU:475:CD1:4254, V-A:ILE:369:CG2:3233, V-A:ILE:369:CG1:3234, H-B:GLY:454:N:9018, V-B:ARG:545:CZ:9895, H-B:TYR:484:OH:9316, V-B:GLU:543:C:9871, V-B:ASP:366:CG:8181, V-A:ILE:369:CD1:3235, H-B:ARG:545:NE:9893"]

$$$$
2d_Grossjean_2025
     RDKit          3D

 36 37  0  0  0  0  0  0  0  0999 V2000
  129.2260  121.8260   60.8220 C   0  0  0  0  0  0  0  0  0  0  0  0
  128.1040  122.5820   60.1370 C   0  0  0  0  0  0  0  0  0  0  0  0
  126.8660  122.7630   60.7490 C   0  0  0  0  0  0  0  0  0  0  0  0
  125.8620  123.4740   60.0760 C   0  0  0  0  0  0  0  0  0  0  0  0
  124.5020  123.6740   60.7730 C   0  0  0  0  0  0  0  0  0  0  0  0
  124.2650  124.9740   60.9470 F   0  0  0  0  0  0  0  0  0  0  0  0
  123.5250  123.1530   60.0290 F   0  0  0  0  0  0  0  0  0  0  0  0
  124.4460  123.0920   61.9730 F   0  0  0  0  0  0  0  0  0  0  0  0
  126.1410  123.9800   58.7810 C   0  0  0  0  0  0  0  0  0  0  0  0
  125.1410  124.7690   58.0550 C   0  0  0  0  0  0  0  0  0  0  0  0
  124.3510  125.3920   57.4840 N   0  0  0  0  0  0  0  0  0  0  0  0
  127.4180  123.7250   58.2280 C   0  0  0  0  0  0  0  0  0  0  0  0
  127.9240  124.2600   56.6040 S   0  0  0  0  0  0  0  0  0  0  0  0
  129.7330  124.4930   56.6020 C   0  0  0  0  0  0  0  0  0  0  0  0
  130.2560  125.1320   57.8910 C   0  0  0  0  0  0  0  0  0  0  0  0
  130.1940  126.3550   58.0210 O   0  0  0  0  0  0  0  0  0  0  0  0
  130.7840  124.2790   58.7940 N   0  0  0  0  0  0  0  0  0  0  0  0
  131.3360  124.5530   60.0590 C   0  0  0  0  0  0  0  0  0  0  0  0
  132.3940  123.7320   60.4570 C   0  0  0  0  0  0  0  0  0  0  0  0
  133.0020  123.9220   61.6950 C   0  0  0  0  0  0  0  0  0  0  0  0
  132.5440  124.9280   62.5420 C   0  0  0  0  0  0  0  0  0  0  0  0
  131.4810  125.7440   62.1620 C   0  0  0  0  0  0  0  0  0  0  0  0
  130.8720  125.5580   60.9240 C   0  0  0  0  0  0  0  0  0  0  0  0
  128.3840  123.0550   58.9010 N   0  0  0  0  0  0  0  0  0  0  0  0
  129.1088  121.9050   61.9129 H   0  0  0  0  0  0  0  0  0  0  0  0
  129.1897  120.7675   60.5250 H   0  0  0  0  0  0  0  0  0  0  0  0
  130.1934  122.2572   60.5250 H   0  0  0  0  0  0  0  0  0  0  0  0
  126.6774  122.3517   61.7517 H   0  0  0  0  0  0  0  0  0  0  0  0
  130.2126  123.5109   56.4782 H   0  0  0  0  0  0  0  0  0  0  0  0
  129.9755  125.1761   55.7746 H   0  0  0  0  0  0  0  0  0  0  0  0
  130.8480  123.3110   58.5110 H   0  0  0  0  0  0  0  0  0  0  0  0
  132.7480  122.9324   59.7897 H   0  0  0  0  0  0  0  0  0  0  0  0
  133.8406  123.2802   62.0028 H   0  0  0  0  0  0  0  0  0  0  0  0
  133.0257  125.0795   63.5193 H   0  0  0  0  0  0  0  0  0  0  0  0
  131.1234  126.5339   62.8389 H   0  0  0  0  0  0  0  0  0  0  0  0
  130.0286  126.1971   60.6235 H   0  0  0  0  0  0  0  0  0  0  0  0
  1  2  1  0
  2  3  2  0
  3  4  1  0
  4  5  1  0
  5  6  1  0
  5  7  1  0
  5  8  1  0
  4  9  2  0
  9 10  1  0
 10 11  3  0
  9 12  1  0
 12 13  1  0
 13 14  1  0
 14 15  1  0
 15 16  2  0
 15 17  1  0
 17 18  1  0
 18 19  2  0
 19 20  1  0
 20 21  2  0
 21 22  1  0
 22 23  2  0
 12 24  2  0
 24  2  1  0
 23 18  1  0
  1 25  1  0
  1 26  1  0
  1 27  1  0
  3 28  1  0
 14 29  1  0
 14 30  1  0
 17 31  1  0
 19 32  1  0
 20 33  1  0
 21 34  1  0
 22 35  1  0
 23 36  1  0
M  END
>  <Binding energies>  (1) 
[-5.96]

>  <Ligand effiencies>  (1) 
[-0.2384]

>  <Interactions>  (1) 
["V-B:PRO:540:C:9850, V-B:TYR:539:CE2:9845, V-B:TYR:539:CZ:9846, V-B:ASN:362:CB:8144, V-B:PRO:540:CA:9852, V-A:ARG:545:CZ:4923, V-B:TYR:539:CE1:9844, V-B:ALA:541:CB:9861, V-B:ASN:362:C:8140, V-B:PRO:540:CB:9854, V-B:TYR:539:CD2:9843, V-A:ASP:366:CG:3209, V-B:GLU:543:CD:9877, V-B:GLU:543:CG:9876, V-B:LEU:363:CA:8153, V-B:ARG:545:CZ:9895, H-B:TYR:539:OH:9847, V-B:MET:535:CE:9804, H-B:TYR:531:OH:9764, V-B:LEU:363:CB:8155, V-B:ALA:541:CA:9859, V-B:ASP:366:CG:8181, V-B:ALA:541:C:9857, V-B:ASN:362:CG:8145"]

$$$$
2e_Grossjean_2025
     RDKit          3D

 38 39  0  0  0  0  0  0  0  0999 V2000
  127.1620  122.4150   56.3990 C   0  0  0  0  0  0  0  0  0  0  0  0
  127.4500  122.7390   57.8530 C   0  0  0  0  0  0  0  0  0  0  0  0
  126.4300  123.0960   58.7380 C   0  0  0  0  0  0  0  0  0  0  0  0
  126.7680  123.3700   60.0650 C   0  0  0  0  0  0  0  0  0  0  0  0
  128.1020  123.2810   60.4690 C   0  0  0  0  0  0  0  0  0  0  0  0
  129.0750  122.9270   59.5280 C   0  0  0  0  0  0  0  0  0  0  0  0
  130.3950  122.8110   59.9980 N   0  0  0  0  0  0  0  0  0  0  0  0
  130.8130  122.3870   61.2110 C   0  0  0  0  0  0  0  0  0  0  0  0
  130.0780  121.9530   62.1000 O   0  0  0  0  0  0  0  0  0  0  0  0
  132.3160  122.5120   61.4790 C   0  0  0  0  0  0  0  0  0  0  0  0
  132.8860  124.2400   61.3820 S   0  0  0  0  0  0  0  0  0  0  0  0
  132.6380  124.9140   63.0100 C   0  0  0  0  0  0  0  0  0  0  0  0
  133.6920  124.7660   63.8500 N   0  0  0  0  0  0  0  0  0  0  0  0
  133.5710  125.2100   65.1210 C   0  0  0  0  0  0  0  0  0  0  0  0
  134.7870  125.0130   66.0060 C   0  0  0  0  0  0  0  0  0  0  0  0
  132.4070  125.8080   65.6020 C   0  0  0  0  0  0  0  0  0  0  0  0
  131.3050  125.9610   64.7480 C   0  0  0  0  0  0  0  0  0  0  0  0
  130.0190  126.6030   65.3000 C   0  0  0  0  0  0  0  0  0  0  0  0
  129.1020  125.6640   65.5360 F   0  0  0  0  0  0  0  0  0  0  0  0
  130.2830  127.2460   66.4380 F   0  0  0  0  0  0  0  0  0  0  0  0
  129.4810  127.4860   64.4560 F   0  0  0  0  0  0  0  0  0  0  0  0
  131.4180  125.5040   63.4110 C   0  0  0  0  0  0  0  0  0  0  0  0
  130.2920  125.6080   62.4780 C   0  0  0  0  0  0  0  0  0  0  0  0
  129.4020  125.6890   61.7420 N   0  0  0  0  0  0  0  0  0  0  0  0
  128.7510  122.6500   58.2310 N   0  0  0  0  0  0  0  0  0  0  0  0
  126.4321  121.5939   56.3439 H   0  0  0  0  0  0  0  0  0  0  0  0
  126.7513  123.3048   55.8995 H   0  0  0  0  0  0  0  0  0  0  0  0
  128.0938  122.1114   55.8995 H   0  0  0  0  0  0  0  0  0  0  0  0
  125.3858  123.1598   58.3979 H   0  0  0  0  0  0  0  0  0  0  0  0
  125.9886  123.6541   60.7874 H   0  0  0  0  0  0  0  0  0  0  0  0
  128.3837  123.4863   61.5123 H   0  0  0  0  0  0  0  0  0  0  0  0
  131.1090  123.0400   59.3230 H   0  0  0  0  0  0  0  0  0  0  0  0
  132.5307  122.1233   62.4854 H   0  0  0  0  0  0  0  0  0  0  0  0
  132.8475  121.9354   60.7076 H   0  0  0  0  0  0  0  0  0  0  0  0
  134.4836  125.0621   67.0622 H   0  0  0  0  0  0  0  0  0  0  0  0
  135.2360  124.0304   65.7988 H   0  0  0  0  0  0  0  0  0  0  0  0
  135.5232  125.8036   65.7988 H   0  0  0  0  0  0  0  0  0  0  0  0
  132.3533  126.1573   66.6437 H   0  0  0  0  0  0  0  0  0  0  0  0
  1  2  1  0
  2  3  2  0
  3  4  1  0
  4  5  2  0
  5  6  1  0
  6  7  1  0
  7  8  1  0
  8  9  2  0
  8 10  1  0
 10 11  1  0
 11 12  1  0
 12 13  2  0
 13 14  1  0
 14 15  1  0
 14 16  2  0
 16 17  1  0
 17 18  1  0
 18 19  1  0
 18 20  1  0
 18 21  1  0
 17 22  2  0
 22 23  1  0
 23 24  3  0
  6 25  2  0
 25  2  1  0
 22 12  1  0
  1 26  1  0
  1 27  1  0
  1 28  1  0
  3 29  1  0
  4 30  1  0
  5 31  1  0
  7 32  1  0
 10 33  1  0
 10 34  1  0
 15 35  1  0
 15 36  1  0
 15 37  1  0
 16 38  1  0
M  END
>  <Binding energies>  (1) 
[-6.43]

>  <Ligand effiencies>  (1) 
[-0.24730769230769228]

>  <Interactions>  (1) 
["V-B:TYR:539:CE2:9845, V-A:GLY:454:C:4043, V-A:HIS:456:CE1:4066, V-B:TYR:539:CD1:9842, V-B:TYR:539:CZ:9846, V-A:GLY:453:C:4038, V-B:PRO:540:CA:9852, V-A:ARG:545:CG:4919, V-A:ARG:545:CZ:4923, V-A:ARG:545:CD:4920, V-A:GLY:453:CA:4040, V-B:ALA:541:CB:9861, H-A:GLY:454:N:4046, V-B:TYR:539:C:9836, V-A:GLY:454:CA:4045, V-B:PRO:540:N:9853, V-B:PRO:540:CB:9854, V-B:TYR:539:CD2:9843, V-A:GLU:543:CB:4903, V-B:GLU:543:CB:9875, V-B:GLU:543:CD:9877, V-B:GLU:543:CG:9876, V-A:GLU:543:CD:4905, H-A:ARG:545:NH2:4925, H-A:ARG:545:NH1:4924, H-B:TYR:539:OH:9847, V-B:ILE:538:CB:9831"]

$$$$
2f_Grossjean_2025
     RDKit          3D

 35 36  0  0  0  0  0  0  0  0999 V2000
  134.8000  123.4240   61.1580 C   0  0  0  0  0  0  0  0  0  0  0  0
  133.6180  123.4090   62.1100 C   0  0  0  0  0  0  0  0  0  0  0  0
  132.5450  122.5410   61.9270 C   0  0  0  0  0  0  0  0  0  0  0  0
  131.4710  122.5700   62.8300 C   0  0  0  0  0  0  0  0  0  0  0  0
  130.2880  121.6100   62.6030 C   0  0  0  0  0  0  0  0  0  0  0  0
  129.8890  121.0910   63.7660 F   0  0  0  0  0  0  0  0  0  0  0  0
  129.2680  122.2680   62.0510 F   0  0  0  0  0  0  0  0  0  0  0  0
  130.5940  120.5920   61.7960 F   0  0  0  0  0  0  0  0  0  0  0  0
  131.5200  123.4860   63.9120 C   0  0  0  0  0  0  0  0  0  0  0  0
  130.3980  123.5950   64.8480 C   0  0  0  0  0  0  0  0  0  0  0  0
  129.5120  123.6790   65.5880 N   0  0  0  0  0  0  0  0  0  0  0  0
  132.6630  124.3120   64.0330 C   0  0  0  0  0  0  0  0  0  0  0  0
  132.8970  125.5090   65.3320 S   0  0  0  0  0  0  0  0  0  0  0  0
  131.4430  126.6120   65.3550 C   0  0  0  0  0  0  0  0  0  0  0  0
  130.9690  127.0350   66.7520 C   0  0  0  0  0  0  0  0  0  0  0  0
  131.5760  127.8980   67.3880 O   0  0  0  0  0  0  0  0  0  0  0  0
  129.8770  126.3740   67.1970 N   0  0  0  0  0  0  0  0  0  0  0  0
  129.1790  126.5150   68.4110 C   0  0  0  0  0  0  0  0  0  0  0  0
  127.8570  126.0950   68.6460 C   0  0  0  0  0  0  0  0  0  0  0  0
  127.2820  126.2910   69.9030 C   0  0  0  0  0  0  0  0  0  0  0  0
  128.0470  126.9000   70.8990 C   0  0  0  0  0  0  0  0  0  0  0  0
  129.3260  127.3060   70.7010 N   0  0  0  0  0  0  0  0  0  0  0  0
  129.8710  127.1080   69.4730 C   0  0  0  0  0  0  0  0  0  0  0  0
  133.6800  124.2850   63.1380 N   0  0  0  0  0  0  0  0  0  0  0  0
  135.7360  123.4359   61.7357 H   0  0  0  0  0  0  0  0  0  0  0  0
  134.7717  122.5254   60.5242 H   0  0  0  0  0  0  0  0  0  0  0  0
  134.7489  124.3216   60.5242 H   0  0  0  0  0  0  0  0  0  0  0  0
  132.5390  121.8378   61.0811 H   0  0  0  0  0  0  0  0  0  0  0  0
  131.6965  127.5218   64.7911 H   0  0  0  0  0  0  0  0  0  0  0  0
  130.6160  126.0381   64.9116 H   0  0  0  0  0  0  0  0  0  0  0  0
  129.5180  125.6480   66.5930 H   0  0  0  0  0  0  0  0  0  0  0  0
  127.2790  125.6143   67.8429 H   0  0  0  0  0  0  0  0  0  0  0  0
  126.2485  125.9724   70.1041 H   0  0  0  0  0  0  0  0  0  0  0  0
  127.5926  127.0577   71.8883 H   0  0  0  0  0  0  0  0  0  0  0  0
  130.9092  127.4301   69.3045 H   0  0  0  0  0  0  0  0  0  0  0  0
  1  2  1  0
  2  3  2  0
  3  4  1  0
  4  5  1  0
  5  6  1  0
  5  7  1  0
  5  8  1  0
  4  9  2  0
  9 10  1  0
 10 11  3  0
  9 12  1  0
 12 13  1  0
 13 14  1  0
 14 15  1  0
 15 16  2  0
 15 17  1  0
 17 18  1  0
 18 19  2  0
 19 20  1  0
 20 21  2  0
 21 22  1  0
 22 23  2  0
 12 24  2  0
 24  2  1  0
 23 18  1  0
  1 25  1  0
  1 26  1  0
  1 27  1  0
  3 28  1  0
 14 29  1  0
 14 30  1  0
 17 31  1  0
 19 32  1  0
 20 33  1  0
 21 34  1  0
 23 35  1  0
M  END
>  <Binding energies>  (1) 
[-5.98]

>  <Ligand effiencies>  (1) 
[-0.23920000000000002]

>  <Interactions>  (1) 
["V-B:TYR:539:CE2:9845, V-A:HIS:456:CE1:4066, V-A:GLY:453:C:4038, V-A:ARG:545:CZ:4923, V-A:GLY:453:CA:4040, V-B:ALA:541:CB:9861, H-A:GLY:454:N:4046, H-A:TYR:484:OH:4344, V-A:GLY:454:CA:4045, V-B:TYR:539:CD2:9843, V-A:ASP:366:CG:3209, V-A:TYR:484:CE1:4341, V-B:HIS:456:CD2:9036, V-A:GLU:543:CB:4903, V-B:GLY:544:C:9881, V-B:GLU:543:CB:9875, V-B:HIS:456:CE1:9038, V-A:TYR:484:CZ:4343, V-B:GLU:543:CG:9876, V-A:GLU:543:CD:4905, V-A:LEU:475:CD1:4254, V-A:ILE:369:CG1:3234, V-A:LEU:475:CD2:4255, V-A:HIS:456:CD2:4064, V-B:GLU:543:C:9871, H-A:ARG:545:NE:4921, V-B:GLY:544:CA:9883, V-B:GLU:543:CA:9873, V-A:LEU:475:CG:4253"]

$$$$
2g_Grossjean_2025
     RDKit          3D

 39 40  0  0  0  0  0  0  0  0999 V2000
  135.1090  123.5120   60.8860 C   0  0  0  0  0  0  0  0  0  0  0  0
  133.9080  123.3370   61.7940 C   0  0  0  0  0  0  0  0  0  0  0  0
  132.8890  122.4360   61.4920 C   0  0  0  0  0  0  0  0  0  0  0  0
  131.7940  122.3160   62.3610 C   0  0  0  0  0  0  0  0  0  0  0  0
  130.6730  121.3200   62.0050 C   0  0  0  0  0  0  0  0  0  0  0  0
  129.6440  121.9630   61.4490 F   0  0  0  0  0  0  0  0  0  0  0  0
  131.1320  120.4120   61.1430 F   0  0  0  0  0  0  0  0  0  0  0  0
  130.2060  120.6660   63.0700 F   0  0  0  0  0  0  0  0  0  0  0  0
  131.7660  123.1160   63.5320 C   0  0  0  0  0  0  0  0  0  0  0  0
  130.6190  123.0710   64.4430 C   0  0  0  0  0  0  0  0  0  0  0  0
  129.7130  123.0340   65.1620 N   0  0  0  0  0  0  0  0  0  0  0  0
  132.8610  123.9820   63.7730 C   0  0  0  0  0  0  0  0  0  0  0  0
  132.9980  125.0340   65.2010 S   0  0  0  0  0  0  0  0  0  0  0  0
  131.7530  126.3580   65.0290 C   0  0  0  0  0  0  0  0  0  0  0  0
  130.5680  126.2540   65.9990 C   0  0  0  0  0  0  0  0  0  0  0  0
  130.4230  125.2750   66.7330 O   0  0  0  0  0  0  0  0  0  0  0  0
  129.7150  127.2940   65.9820 N   0  0  0  0  0  0  0  0  0  0  0  0
  128.5210  127.4280   66.8190 C   0  0  0  0  0  0  0  0  0  0  0  0
  128.7750  127.2380   68.3110 C   0  0  0  0  0  0  0  0  0  0  0  0
  127.9290  126.4160   69.0610 C   0  0  0  0  0  0  0  0  0  0  0  0
  128.1810  126.2110   70.4160 C   0  0  0  0  0  0  0  0  0  0  0  0
  129.2820  126.8190   71.0120 C   0  0  0  0  0  0  0  0  0  0  0  0
  130.1370  127.6290   70.2660 C   0  0  0  0  0  0  0  0  0  0  0  0
  129.8860  127.8340   68.9130 C   0  0  0  0  0  0  0  0  0  0  0  0
  133.8990  124.1020   62.9100 N   0  0  0  0  0  0  0  0  0  0  0  0
  136.0143  123.6439   61.4968 H   0  0  0  0  0  0  0  0  0  0  0  0
  135.2216  122.6208   60.2511 H   0  0  0  0  0  0  0  0  0  0  0  0
  134.9626  124.3983   60.2511 H   0  0  0  0  0  0  0  0  0  0  0  0
  132.9426  121.8237   60.5797 H   0  0  0  0  0  0  0  0  0  0  0  0
  132.2528  127.3227   65.2008 H   0  0  0  0  0  0  0  0  0  0  0  0
  131.3348  126.2616   64.0162 H   0  0  0  0  0  0  0  0  0  0  0  0
  129.9160  128.0710   65.3700 H   0  0  0  0  0  0  0  0  0  0  0  0
  128.1044  128.4345   66.6660 H   0  0  0  0  0  0  0  0  0  0  0  0
  127.8307  126.6281   66.5129 H   0  0  0  0  0  0  0  0  0  0  0  0
  127.0653  125.9315   68.5821 H   0  0  0  0  0  0  0  0  0  0  0  0
  127.5129  125.5717   71.0118 H   0  0  0  0  0  0  0  0  0  0  0  0
  129.4795  126.6589   72.0822 H   0  0  0  0  0  0  0  0  0  0  0  0
  131.0060  128.1038   70.7449 H   0  0  0  0  0  0  0  0  0  0  0  0
  130.5620  128.4651   68.3174 H   0  0  0  0  0  0  0  0  0  0  0  0
  1  2  1  0
  2  3  2  0
  3  4  1  0
  4  5  1  0
  5  6  1  0
  5  7  1  0
  5  8  1  0
  4  9  2  0
  9 10  1  0
 10 11  3  0
  9 12  1  0
 12 13  1  0
 13 14  1  0
 14 15  1  0
 15 16  2  0
 15 17  1  0
 17 18  1  0
 18 19  1  0
 19 20  2  0
 20 21  1  0
 21 22  2  0
 22 23  1  0
 23 24  2  0
 12 25  2  0
 25  2  1  0
 24 19  1  0
  1 26  1  0
  1 27  1  0
  1 28  1  0
  3 29  1  0
 14 30  1  0
 14 31  1  0
 17 32  1  0
 18 33  1  0
 18 34  1  0
 20 35  1  0
 21 36  1  0
 22 37  1  0
 23 38  1  0
 24 39  1  0
M  END
>  <Binding energies>  (1) 
[-6.79]

>  <Ligand effiencies>  (1) 
[-0.2611538461538462]

>  <Interactions>  (1) 
["V-B:TYR:539:CE2:9845, V-A:HIS:456:CE1:4066, V-A:GLY:453:C:4038, V-A:ARG:545:CZ:4923, V-A:GLY:453:CA:4040, V-B:ALA:541:CB:9861, H-A:GLY:454:N:4046, H-A:TYR:484:OH:4344, V-A:GLY:454:CA:4045, V-B:TYR:539:CD2:9843, V-A:ASP:366:CG:3209, V-A:TYR:484:CE1:4341, V-A:GLU:543:CB:4903, V-B:GLY:544:C:9881, V-B:GLU:543:CB:9875, V-B:HIS:456:CE1:9038, V-A:TYR:484:CZ:4343, V-A:GLU:543:CD:4905, V-A:ILE:369:CB:3232, V-A:LEU:475:CD1:4254, V-A:ILE:369:CG1:3234, H-A:GLU:543:OE2:4907, H-A:GLU:543:OE1:4906, V-A:LEU:475:CD2:4255, V-A:HIS:456:CD2:4064, V-B:GLU:543:C:9871, V-A:ASP:366:CA:3206, V-A:LEU:475:CG:4253"]

$$$$
2h_Grossjean_2025
     RDKit          3D

 51 52  0  0  0  0  0  0  0  0999 V2000
  128.3320  127.5250   74.3610 C   0  0  0  0  0  0  0  0  0  0  0  0
  129.3280  127.1740   73.4070 O   0  0  0  0  0  0  0  0  0  0  0  0
  128.9670  126.9940   72.0830 C   0  0  0  0  0  0  0  0  0  0  0  0
  128.0000  126.0700   71.6540 C   0  0  0  0  0  0  0  0  0  0  0  0
  127.6820  125.9510   70.3040 C   0  0  0  0  0  0  0  0  0  0  0  0
  128.3210  126.7480   69.3520 C   0  0  0  0  0  0  0  0  0  0  0  0
  127.9420  126.6130   67.8790 C   0  0  0  0  0  0  0  0  0  0  0  0
  129.0790  126.7330   66.9660 N   0  0  0  0  0  0  0  0  0  0  0  0
  129.8540  125.7110   66.5620 C   0  0  0  0  0  0  0  0  0  0  0  0
  129.7330  124.5610   66.9890 O   0  0  0  0  0  0  0  0  0  0  0  0
  130.9150  126.0600   65.5090 C   0  0  0  0  0  0  0  0  0  0  0  0
  132.4390  125.0610   65.5880 S   0  0  0  0  0  0  0  0  0  0  0  0
  132.4870  124.0790   64.1040 C   0  0  0  0  0  0  0  0  0  0  0  0
  133.6060  124.2670   63.3620 N   0  0  0  0  0  0  0  0  0  0  0  0
  133.7370  123.5840   62.2030 C   0  0  0  0  0  0  0  0  0  0  0  0
  135.0100  123.8490   61.4220 C   0  0  0  0  0  0  0  0  0  0  0  0
  132.7720  122.6900   61.7430 C   0  0  0  0  0  0  0  0  0  0  0  0
  131.6170  122.4670   62.5080 C   0  0  0  0  0  0  0  0  0  0  0  0
  130.5650  121.4690   61.9870 C   0  0  0  0  0  0  0  0  0  0  0  0
  129.5900  122.1230   61.3560 F   0  0  0  0  0  0  0  0  0  0  0  0
  131.0740  120.5840   61.1260 F   0  0  0  0  0  0  0  0  0  0  0  0
  130.0400  120.7840   63.0030 F   0  0  0  0  0  0  0  0  0  0  0  0
  131.4680  123.1710   63.7300 C   0  0  0  0  0  0  0  0  0  0  0  0
  130.3090  122.9300   64.5930 C   0  0  0  0  0  0  0  0  0  0  0  0
  129.3940  122.7350   65.2750 N   0  0  0  0  0  0  0  0  0  0  0  0
  129.3070  127.6580   69.7640 C   0  0  0  0  0  0  0  0  0  0  0  0
  129.9430  128.4440   68.8330 O   0  0  0  0  0  0  0  0  0  0  0  0
  131.3110  128.1190   68.6270 C   0  0  0  0  0  0  0  0  0  0  0  0
  129.6120  127.7910   71.1290 C   0  0  0  0  0  0  0  0  0  0  0  0
  130.5630  128.6950   71.5380 O   0  0  0  0  0  0  0  0  0  0  0  0
  130.0540  129.7530   72.3390 C   0  0  0  0  0  0  0  0  0  0  0  0
  128.7311  127.3844   75.3764 H   0  0  0  0  0  0  0  0  0  0  0  0
  128.0461  128.5781   74.2220 H   0  0  0  0  0  0  0  0  0  0  0  0
  127.4490  126.8839   74.2220 H   0  0  0  0  0  0  0  0  0  0  0  0
  127.4890  125.4342   72.3920 H   0  0  0  0  0  0  0  0  0  0  0  0
  126.9213  125.2234   69.9847 H   0  0  0  0  0  0  0  0  0  0  0  0
  127.4784  125.6269   67.7286 H   0  0  0  0  0  0  0  0  0  0  0  0
  127.2545  127.4397   67.6468 H   0  0  0  0  0  0  0  0  0  0  0  0
  129.2190  127.6410   66.5460 H   0  0  0  0  0  0  0  0  0  0  0  0
  130.4669  125.9205   64.5141 H   0  0  0  0  0  0  0  0  0  0  0  0
  131.2177  127.0981   65.7106 H   0  0  0  0  0  0  0  0  0  0  0  0
  135.8405  124.0219   62.1223 H   0  0  0  0  0  0  0  0  0  0  0  0
  135.2394  122.9794   60.7887 H   0  0  0  0  0  0  0  0  0  0  0  0
  134.8733  124.7379   60.7887 H   0  0  0  0  0  0  0  0  0  0  0  0
  132.9146  122.1634   60.7878 H   0  0  0  0  0  0  0  0  0  0  0  0
  131.8102  128.0004   69.6000 H   0  0  0  0  0  0  0  0  0  0  0  0
  131.3832  127.1787   68.0608 H   0  0  0  0  0  0  0  0  0  0  0  0
  131.7984  128.9263   68.0608 H   0  0  0  0  0  0  0  0  0  0  0  0
  130.1761  129.4992   73.4023 H   0  0  0  0  0  0  0  0  0  0  0  0
  130.6053  130.6787   72.1173 H   0  0  0  0  0  0  0  0  0  0  0  0
  128.9866  129.8999   72.1173 H   0  0  0  0  0  0  0  0  0  0  0  0
  1  2  1  0
  2  3  1  0
  3  4  2  0
  4  5  1  0
  5  6  2  0
  6  7  1  0
  7  8  1  0
  8  9  1  0
  9 10  2  0
  9 11  1  0
 11 12  1  0
 12 13  1  0
 13 14  2  0
 14 15  1  0
 15 16  1  0
 15 17  2  0
 17 18  1  0
 18 19  1  0
 19 20  1  0
 19 21  1  0
 19 22  1  0
 18 23  2  0
 23 24  1  0
 24 25  3  0
  6 26  1  0
 26 27  1  0
 27 28  1  0
 26 29  2  0
 29 30  1  0
 30 31  1  0
 29  3  1  0
 23 13  1  0
  1 32  1  0
  1 33  1  0
  1 34  1  0
  4 35  1  0
  5 36  1  0
  7 37  1  0
  7 38  1  0
  8 39  1  0
 11 40  1  0
 11 41  1  0
 16 42  1  0
 16 43  1  0
 16 44  1  0
 17 45  1  0
 28 46  1  0
 28 47  1  0
 28 48  1  0
 31 49  1  0
 31 50  1  0
 31 51  1  0
M  END
>  <Binding energies>  (1) 
[-6.34]

>  <Ligand effiencies>  (1) 
[-0.198125]

>  <Interactions>  (1) 
["V-B:TYR:539:CE2:9845, V-A:HIS:456:CE1:4066, V-A:GLY:453:C:4038, V-A:ARG:545:CG:4919, V-A:GLY:453:CA:4040, V-B:ALA:541:CB:9861, H-A:GLY:454:N:4046, H-A:TYR:484:OH:4344, V-A:GLY:454:CA:4045, V-B:TYR:539:CD2:9843, V-A:ASP:366:CG:3209, V-A:TYR:484:CE1:4341, V-B:HIS:456:CD2:9036, V-A:GLU:543:CB:4903, V-A:LYS:547:CE:4947, H-A:LYS:547:NZ:4948, V-B:GLY:544:C:9881, V-B:LYS:547:CE:9919, V-B:GLU:543:CB:9875, V-A:GLU:543:C:4899, V-B:HIS:456:CE1:9038, V-A:TYR:484:CZ:4343, V-B:GLU:543:CG:9876, V-A:GLY:544:C:4909, V-A:LEU:475:CD1:4254, V-A:ILE:369:CG1:3234, H-A:GLU:543:OE1:4906, V-A:LEU:475:CD2:4255, V-B:GLU:543:C:9871, V-B:GLY:544:CA:9883, V-A:LEU:475:CG:4253, V-A:GLY:544:CA:4911"]

$$$$
2i_Grossjean_2025
     RDKit          3D

 32 33  0  0  0  0  0  0  0  0999 V2000
  128.7390  126.6230   62.5450 C   0  0  0  0  0  0  0  0  0  0  0  0
  130.0270  126.2400   63.2490 C   0  0  0  0  0  0  0  0  0  0  0  0
  130.9510  125.3800   62.6630 C   0  0  0  0  0  0  0  0  0  0  0  0
  132.1290  125.0580   63.3540 C   0  0  0  0  0  0  0  0  0  0  0  0
  133.1400  124.1040   62.6910 C   0  0  0  0  0  0  0  0  0  0  0  0
  132.7700  123.8470   61.4360 F   0  0  0  0  0  0  0  0  0  0  0  0
  134.3530  124.6570   62.6800 F   0  0  0  0  0  0  0  0  0  0  0  0
  133.2400  122.9340   63.3270 F   0  0  0  0  0  0  0  0  0  0  0  0
  132.3380  125.6260   64.6370 C   0  0  0  0  0  0  0  0  0  0  0  0
  133.5520  125.3250   65.4030 C   0  0  0  0  0  0  0  0  0  0  0  0
  134.5100  125.0880   66.0070 N   0  0  0  0  0  0  0  0  0  0  0  0
  131.3460  126.4880   65.1580 C   0  0  0  0  0  0  0  0  0  0  0  0
  131.4970  127.2540   66.7640 S   0  0  0  0  0  0  0  0  0  0  0  0
  129.8420  127.7920   67.2910 C   0  0  0  0  0  0  0  0  0  0  0  0
  129.4270  127.1670   68.6250 C   0  0  0  0  0  0  0  0  0  0  0  0
  129.0040  126.0100   68.6380 O   0  0  0  0  0  0  0  0  0  0  0  0
  129.5370  127.9660   69.7080 N   0  0  0  0  0  0  0  0  0  0  0  0
  129.2100  127.6390   71.0140 C   0  0  0  0  0  0  0  0  0  0  0  0
  128.1510  126.8680   71.5140 C   0  0  0  0  0  0  0  0  0  0  0  0
  128.3250  126.8780   72.8790 C   0  0  0  0  0  0  0  0  0  0  0  0
  129.4270  127.6060   73.1800 O   0  0  0  0  0  0  0  0  0  0  0  0
  129.9800  128.0760   71.9870 N   0  0  0  0  0  0  0  0  0  0  0  0
  130.2130  126.7880   64.4710 N   0  0  0  0  0  0  0  0  0  0  0  0
  127.9664  126.8528   63.2935 H   0  0  0  0  0  0  0  0  0  0  0  0
  128.9143  127.5079   61.9155 H   0  0  0  0  0  0  0  0  0  0  0  0
  128.4023  125.7861   61.9155 H   0  0  0  0  0  0  0  0  0  0  0  0
  130.7594  124.9561   61.6662 H   0  0  0  0  0  0  0  0  0  0  0  0
  129.8431  128.8868   67.3981 H   0  0  0  0  0  0  0  0  0  0  0  0
  129.1218  127.4645   66.5267 H   0  0  0  0  0  0  0  0  0  0  0  0
  129.8600  128.9110   69.5630 H   0  0  0  0  0  0  0  0  0  0  0  0
  127.3568  126.3662   70.9418 H   0  0  0  0  0  0  0  0  0  0  0  0
  127.6735  126.3753   73.6089 H   0  0  0  0  0  0  0  0  0  0  0  0
  1  2  1  0
  2  3  2  0
  3  4  1  0
  4  5  1  0
  5  6  1  0
  5  7  1  0
  5  8  1  0
  4  9  2  0
  9 10  1  0
 10 11  3  0
  9 12  1  0
 12 13  1  0
 13 14  1  0
 14 15  1  0
 15 16  2  0
 15 17  1  0
 17 18  1  0
 18 19  1  0
 19 20  2  0
 20 21  1  0
 21 22  1  0
 12 23  2  0
 23  2  1  0
 22 18  2  0
  1 24  1  0
  1 25  1  0
  1 26  1  0
  3 27  1  0
 14 28  1  0
 14 29  1  0
 17 30  1  0
 19 31  1  0
 20 32  1  0
M  END
>  <Binding energies>  (1) 
[-6.34]

>  <Ligand effiencies>  (1) 
[-0.26416666666666666]

>  <Interactions>  (1) 
["V-A:HIS:456:CE1:4066, V-A:GLY:453:C:4038, V-A:ARG:545:CG:4919, V-A:ARG:545:CZ:4923, V-A:ARG:545:CD:4920, V-A:GLY:453:CA:4040, H-A:GLY:454:N:4046, H-A:TYR:484:OH:4344, V-A:GLY:454:CA:4045, V-A:ASP:366:CG:3209, V-B:HIS:456:CD2:9036, V-A:GLU:543:CB:4903, H-A:LYS:547:NZ:4948, V-B:LYS:547:CE:9919, V-B:GLU:543:CD:9877, V-B:HIS:456:CE1:9038, V-A:GLU:543:CD:4905, V-A:LEU:475:CD1:4254, H-A:ARG:545:NE:4921, H-A:GLU:543:O:4900, H-B:HIS:456:NE2:9039, H-A:HIS:456:ND1:4063"]

$$$$
2j_Grossjean_2025
     RDKit          3D

 32 33  0  0  0  0  0  0  0  0999 V2000
  134.5030  123.5100   60.2310 C   0  0  0  0  0  0  0  0  0  0  0  0
  133.4690  123.3710   61.3330 C   0  0  0  0  0  0  0  0  0  0  0  0
  133.5360  124.1330   62.4970 C   0  0  0  0  0  0  0  0  0  0  0  0
  132.5540  123.9710   63.4850 C   0  0  0  0  0  0  0  0  0  0  0  0
  132.6440  124.8230   64.7660 C   0  0  0  0  0  0  0  0  0  0  0  0
  131.4810  124.7890   65.4180 F   0  0  0  0  0  0  0  0  0  0  0  0
  133.6010  124.3490   65.5640 F   0  0  0  0  0  0  0  0  0  0  0  0
  132.9270  126.1030   64.5160 F   0  0  0  0  0  0  0  0  0  0  0  0
  131.5190  123.0290   63.2630 C   0  0  0  0  0  0  0  0  0  0  0  0
  130.4670  122.8180   64.2620 C   0  0  0  0  0  0  0  0  0  0  0  0
  129.6360  122.6530   65.0510 N   0  0  0  0  0  0  0  0  0  0  0  0
  131.5290  122.2970   62.0520 C   0  0  0  0  0  0  0  0  0  0  0  0
  130.2740  121.0850   61.6650 S   0  0  0  0  0  0  0  0  0  0  0  0
  129.2180  121.7540   60.3350 C   0  0  0  0  0  0  0  0  0  0  0  0
  128.0350  122.6070   60.8170 C   0  0  0  0  0  0  0  0  0  0  0  0
  128.1020  123.2350   61.8750 O   0  0  0  0  0  0  0  0  0  0  0  0
  126.9550  122.5880   60.0030 N   0  0  0  0  0  0  0  0  0  0  0  0
  125.7590  123.2650   60.1970 C   0  0  0  0  0  0  0  0  0  0  0  0
  124.9040  123.1260   61.1870 N   0  0  0  0  0  0  0  0  0  0  0  0
  123.8710  123.9340   61.0540 C   0  0  0  0  0  0  0  0  0  0  0  0
  123.8730  124.7570   59.9310 C   0  0  0  0  0  0  0  0  0  0  0  0
  125.3130  124.4450   59.0070 S   0  0  0  0  0  0  0  0  0  0  0  0
  132.4870  122.4700   61.1060 N   0  0  0  0  0  0  0  0  0  0  0  0
  135.4992  123.6439   60.6777 H   0  0  0  0  0  0  0  0  0  0  0  0
  134.4993  122.6033   59.6082 H   0  0  0  0  0  0  0  0  0  0  0  0
  134.2600  124.3836   59.6082 H   0  0  0  0  0  0  0  0  0  0  0  0
  134.3526  124.8560   62.6401 H   0  0  0  0  0  0  0  0  0  0  0  0
  129.8454  122.3779   59.6815 H   0  0  0  0  0  0  0  0  0  0  0  0
  128.7826  120.8851   59.8197 H   0  0  0  0  0  0  0  0  0  0  0  0
  127.0110  122.0270   59.1660 H   0  0  0  0  0  0  0  0  0  0  0  0
  123.0531  123.9568   61.7892 H   0  0  0  0  0  0  0  0  0  0  0  0
  123.0913  125.4857   59.6706 H   0  0  0  0  0  0  0  0  0  0  0  0
  1  2  1  0
  2  3  2  0
  3  4  1  0
  4  5  1  0
  5  6  1  0
  5  7  1  0
  5  8  1  0
  4  9  2  0
  9 10  1  0
 10 11  3  0
  9 12  1  0
 12 13  1  0
 13 14  1  0
 14 15  1  0
 15 16  2  0
 15 17  1  0
 17 18  1  0
 18 19  2  0
 19 20  1  0
 20 21  2  0
 21 22  1  0
 12 23  2  0
 23  2  1  0
 22 18  1  0
  1 24  1  0
  1 25  1  0
  1 26  1  0
  3 27  1  0
 14 28  1  0
 14 29  1  0
 17 30  1  0
 20 31  1  0
 21 32  1  0
M  END
>  <Binding energies>  (1) 
[-6.03]

>  <Ligand effiencies>  (1) 
[-0.25125000000000003]

>  <Interactions>  (1) 
["V-B:PRO:540:C:9850, H-B:ALA:541:N:9860, V-B:TYR:539:CE2:9845, V-B:ASN:362:CA:8142, V-A:GLY:454:C:4043, V-A:HIS:456:CE1:4066, V-B:TYR:539:CZ:9846, V-B:ASN:362:CB:8144, V-B:PRO:540:CA:9852, V-A:ARG:545:CZ:4923, V-A:ARG:545:CD:4920, V-B:ALA:541:CB:9861, V-B:ASN:362:C:8140, H-A:TYR:484:OH:4344, V-A:GLY:454:CA:4045, V-B:PRO:540:N:9853, V-B:PRO:540:CB:9854, V-B:TYR:539:CD2:9843, V-A:ASP:366:CG:3209, V-A:TYR:484:CE1:4341, V-A:TYR:484:CZ:4343, V-A:ILE:369:CB:3232, V-B:LEU:363:CA:8153, H-B:TYR:539:O:9837, V-A:LEU:475:CD1:4254, V-A:ILE:369:CG2:3233, V-A:ILE:369:CG1:3234, V-A:ASP:366:CB:3208, V-B:ASP:366:CG:8181, V-A:ASP:366:CA:3206"]

$$$$
2k_Grossjean_2025
     RDKit          3D

 50 50  0  0  0  0  0  0  0  0999 V2000
  124.3480  124.6160   58.3780 C   0  0  0  0  0  0  0  0  0  0  0  0
  124.5190  124.9850   57.0180 O   0  0  0  0  0  0  0  0  0  0  0  0
  125.3530  124.0930   56.2900 C   0  0  0  0  0  0  0  0  0  0  0  0
  125.3720  122.7220   56.9790 C   0  0  0  0  0  0  0  0  0  0  0  0
  126.5090  121.9960   56.5340 O   0  0  0  0  0  0  0  0  0  0  0  0
  127.7490  122.5010   57.0140 C   0  0  0  0  0  0  0  0  0  0  0  0
  127.5050  123.1790   58.3690 C   0  0  0  0  0  0  0  0  0  0  0  0
  127.8700  122.2600   59.3870 O   0  0  0  0  0  0  0  0  0  0  0  0
  129.1800  122.4260   59.9090 C   0  0  0  0  0  0  0  0  0  0  0  0
  129.1530  122.1480   61.4230 C   0  0  0  0  0  0  0  0  0  0  0  0
  129.2690  123.3650   62.2300 N   0  0  0  0  0  0  0  0  0  0  0  0
  129.5380  123.4080   63.5490 C   0  0  0  0  0  0  0  0  0  0  0  0
  129.7490  122.4030   64.2310 O   0  0  0  0  0  0  0  0  0  0  0  0
  129.5470  124.8070   64.1820 C   0  0  0  0  0  0  0  0  0  0  0  0
  130.3540  126.1100   63.1890 S   0  0  0  0  0  0  0  0  0  0  0  0
  131.2300  125.3590   61.8230 C   0  0  0  0  0  0  0  0  0  0  0  0
  130.6160  125.4390   60.6150 N   0  0  0  0  0  0  0  0  0  0  0  0
  131.2190  124.8880   59.5380 C   0  0  0  0  0  0  0  0  0  0  0  0
  130.4650  125.0080   58.2280 C   0  0  0  0  0  0  0  0  0  0  0  0
  132.4540  124.2510   59.6130 C   0  0  0  0  0  0  0  0  0  0  0  0
  133.1120  124.1640   60.8500 C   0  0  0  0  0  0  0  0  0  0  0  0
  134.4810  123.4600   60.9150 C   0  0  0  0  0  0  0  0  0  0  0  0
  135.1010  123.4280   59.7340 F   0  0  0  0  0  0  0  0  0  0  0  0
  135.2820  124.0970   61.7710 F   0  0  0  0  0  0  0  0  0  0  0  0
  134.3270  122.2000   61.3220 F   0  0  0  0  0  0  0  0  0  0  0  0
  132.4860  124.7310   61.9900 C   0  0  0  0  0  0  0  0  0  0  0  0
  133.1260  124.6660   63.3080 C   0  0  0  0  0  0  0  0  0  0  0  0
  133.6310  124.6150   64.3480 N   0  0  0  0  0  0  0  0  0  0  0  0
  124.7216  125.4222   59.0264 H   0  0  0  0  0  0  0  0  0  0  0  0
  123.2800  124.4476   58.5807 H   0  0  0  0  0  0  0  0  0  0  0  0
  124.9098  123.6923   58.5807 H   0  0  0  0  0  0  0  0  0  0  0  0
  124.9645  123.9824   55.2668 H   0  0  0  0  0  0  0  0  0  0  0  0
  126.3755  124.4971   56.2559 H   0  0  0  0  0  0  0  0  0  0  0  0
  125.4249  122.8580   58.0693 H   0  0  0  0  0  0  0  0  0  0  0  0
  124.4557  122.1675   56.7281 H   0  0  0  0  0  0  0  0  0  0  0  0
  128.4644  121.6744   57.1359 H   0  0  0  0  0  0  0  0  0  0  0  0
  128.1639  123.2260   56.2983 H   0  0  0  0  0  0  0  0  0  0  0  0
  128.1190  124.0882   58.4482 H   0  0  0  0  0  0  0  0  0  0  0  0
  126.4475  123.4642   58.4706 H   0  0  0  0  0  0  0  0  0  0  0  0
  129.8658  121.7210   59.4164 H   0  0  0  0  0  0  0  0  0  0  0  0
  129.5268  123.4536   59.7251 H   0  0  0  0  0  0  0  0  0  0  0  0
  128.2033  121.6517   61.6715 H   0  0  0  0  0  0  0  0  0  0  0  0
  130.0208  121.5139   61.6569 H   0  0  0  0  0  0  0  0  0  0  0  0
  129.1240  124.2370   61.7430 H   0  0  0  0  0  0  0  0  0  0  0  0
  128.5032  125.1086   64.3538 H   0  0  0  0  0  0  0  0  0  0  0  0
  130.1389  124.7186   65.1050 H   0  0  0  0  0  0  0  0  0  0  0  0
  129.3978  125.1778   58.4334 H   0  0  0  0  0  0  0  0  0  0  0  0
  130.8663  125.8536   57.6501 H   0  0  0  0  0  0  0  0  0  0  0  0
  130.5839  124.0796   57.6501 H   0  0  0  0  0  0  0  0  0  0  0  0
  132.9109  123.8192   58.7103 H   0  0  0  0  0  0  0  0  0  0  0  0
  1  2  1  0
  2  3  1  0
  3  4  1  0
  4  5  1  0
  5  6  1  0
  6  7  1  0
  7  8  1  0
  8  9  1  0
  9 10  1  0
 10 11  1  0
 11 12  1  0
 12 13  2  0
 12 14  1  0
 14 15  1  0
 15 16  1  0
 16 17  2  0
 17 18  1  0
 18 19  1  0
 18 20  2  0
 20 21  1  0
 21 22  1  0
 22 23  1  0
 22 24  1  0
 22 25  1  0
 21 26  2  0
 26 27  1  0
 27 28  3  0
 26 16  1  0
  1 29  1  0
  1 30  1  0
  1 31  1  0
  3 32  1  0
  3 33  1  0
  4 34  1  0
  4 35  1  0
  6 36  1  0
  6 37  1  0
  7 38  1  0
  7 39  1  0
  9 40  1  0
  9 41  1  0
 10 42  1  0
 10 43  1  0
 11 44  1  0
 14 45  1  0
 14 46  1  0
 19 47  1  0
 19 48  1  0
 19 49  1  0
 20 50  1  0
M  END
>  <Binding energies>  (1) 
[-5.24]

>  <Ligand effiencies>  (1) 
[-0.1806896551724138]

>  <Interactions>  (1) 
["V-B:TYR:539:CE2:9845, V-B:TYR:539:CD1:9842, V-B:TYR:539:CZ:9846, V-A:GLY:453:C:4038, V-B:PRO:540:CA:9852, V-A:ARG:545:CZ:4923, V-B:TYR:539:CE1:9844, V-A:GLY:453:CA:4040, V-B:ALA:541:CB:9861, H-A:GLY:454:N:4046, V-B:TYR:539:C:9836, H-A:TYR:484:OH:4344, V-A:GLY:454:CA:4045, V-B:PRO:540:N:9853, V-B:PRO:540:CB:9854, V-B:TYR:539:CD2:9843, V-A:ASP:366:CG:3209, H-B:GLU:543:OE2:9879, V-B:GLU:543:CD:9877, V-B:GLU:543:CG:9876, V-A:ILE:369:CB:3232, V-A:ILE:369:CG2:3233, V-A:ILE:369:CG1:3234, H-B:TYR:539:N:9839, V-B:PRO:540:CD:9856, V-A:ASP:366:CB:3208, V-B:MET:535:CE:9804, V-B:LEU:363:CD1:8157, H-B:TYR:531:OH:9764, V-A:ASP:366:CA:3206, V-A:ASP:366:C:3204, V-B:PRO:540:CG:9855"]

$$$$
3aa_Grossjean_2025
     RDKit          3D

 52 54  0  0  0  0  0  0  0  0999 V2000
  125.2130  127.6320   73.9250 C   0  0  0  0  0  0  0  0  0  0  0  0
  126.6840  128.0010   73.7120 C   0  0  0  0  0  0  0  0  0  0  0  0
  127.2750  127.0850   72.7990 O   0  0  0  0  0  0  0  0  0  0  0  0
  128.5020  127.3220   72.2680 C   0  0  0  0  0  0  0  0  0  0  0  0
  129.4630  127.7270   72.9290 O   0  0  0  0  0  0  0  0  0  0  0  0
  128.5710  127.0570   70.7900 C   0  0  0  0  0  0  0  0  0  0  0  0
  127.5640  126.3540   70.1140 C   0  0  0  0  0  0  0  0  0  0  0  0
  127.6570  126.1300   68.7420 C   0  0  0  0  0  0  0  0  0  0  0  0
  128.7510  126.6080   68.0200 C   0  0  0  0  0  0  0  0  0  0  0  0
  128.7460  126.3310   66.6390 N   0  0  0  0  0  0  0  0  0  0  0  0
  129.7840  126.1300   65.7970 C   0  0  0  0  0  0  0  0  0  0  0  0
  130.9750  126.1810   66.1070 O   0  0  0  0  0  0  0  0  0  0  0  0
  129.4070  125.8300   64.3460 C   0  0  0  0  0  0  0  0  0  0  0  0
  130.6270  126.5040   63.1780 S   0  0  0  0  0  0  0  0  0  0  0  0
  131.1390  125.1630   62.1280 C   0  0  0  0  0  0  0  0  0  0  0  0
  130.2430  124.8600   61.1580 N   0  0  0  0  0  0  0  0  0  0  0  0
  130.5090  123.8530   60.2860 C   0  0  0  0  0  0  0  0  0  0  0  0
  129.4760  123.5890   59.2330 C   0  0  0  0  0  0  0  0  0  0  0  0
  129.4980  124.2920   58.0180 C   0  0  0  0  0  0  0  0  0  0  0  0
  128.5420  124.0520   57.0340 C   0  0  0  0  0  0  0  0  0  0  0  0
  127.5490  123.1030   57.2530 C   0  0  0  0  0  0  0  0  0  0  0  0
  127.5070  122.3920   58.4480 C   0  0  0  0  0  0  0  0  0  0  0  0
  128.4650  122.6330   59.4280 C   0  0  0  0  0  0  0  0  0  0  0  0
  131.7010  123.1260   60.3700 C   0  0  0  0  0  0  0  0  0  0  0  0
  132.6360  123.4100   61.3770 C   0  0  0  0  0  0  0  0  0  0  0  0
  133.9320  122.5790   61.4440 C   0  0  0  0  0  0  0  0  0  0  0  0
  133.9800  121.7790   62.5110 F   0  0  0  0  0  0  0  0  0  0  0  0
  134.0390  121.8070   60.3620 F   0  0  0  0  0  0  0  0  0  0  0  0
  134.9890  123.3900   61.5020 F   0  0  0  0  0  0  0  0  0  0  0  0
  132.3470  124.4500   62.2940 C   0  0  0  0  0  0  0  0  0  0  0  0
  133.2600  124.7510   63.4010 C   0  0  0  0  0  0  0  0  0  0  0  0
  133.9800  124.9890   64.2750 N   0  0  0  0  0  0  0  0  0  0  0  0
  129.7690  127.3010   68.6930 C   0  0  0  0  0  0  0  0  0  0  0  0
  129.6750  127.5210   70.0630 C   0  0  0  0  0  0  0  0  0  0  0  0
  125.0007  127.5787   75.0030 H   0  0  0  0  0  0  0  0  0  0  0  0
  124.5723  128.3973   73.4625 H   0  0  0  0  0  0  0  0  0  0  0  0
  125.0094  126.6550   73.4625 H   0  0  0  0  0  0  0  0  0  0  0  0
  126.7510  129.0203   73.3038 H   0  0  0  0  0  0  0  0  0  0  0  0
  127.2164  127.9554   74.6735 H   0  0  0  0  0  0  0  0  0  0  0  0
  126.6938  125.9764   70.6710 H   0  0  0  0  0  0  0  0  0  0  0  0
  126.8624  125.5725   68.2245 H   0  0  0  0  0  0  0  0  0  0  0  0
  127.8270  126.3300   66.2200 H   0  0  0  0  0  0  0  0  0  0  0  0
  129.3495  124.7398   64.2112 H   0  0  0  0  0  0  0  0  0  0  0  0
  128.4369  126.3057   64.1395 H   0  0  0  0  0  0  0  0  0  0  0  0
  130.2817  125.0433   57.8406 H   0  0  0  0  0  0  0  0  0  0  0  0
  128.5722  124.6109   56.0871 H   0  0  0  0  0  0  0  0  0  0  0  0
  126.7927  122.9136   56.4770 H   0  0  0  0  0  0  0  0  0  0  0  0
  126.7199  121.6425   58.6175 H   0  0  0  0  0  0  0  0  0  0  0  0
  128.4303  122.0662   60.3701 H   0  0  0  0  0  0  0  0  0  0  0  0
  131.9066  122.3270   59.6424 H   0  0  0  0  0  0  0  0  0  0  0  0
  130.6426  127.6707   68.1361 H   0  0  0  0  0  0  0  0  0  0  0  0
  130.4772  128.0660   70.5821 H   0  0  0  0  0  0  0  0  0  0  0  0
  1  2  1  0
  2  3  1  0
  3  4  1  0
  4  5  2  0
  4  6  1  0
  6  7  2  0
  7  8  1  0
  8  9  2  0
  9 10  1  0
 10 11  1  0
 11 12  2  0
 11 13  1  0
 13 14  1  0
 14 15  1  0
 15 16  2  0
 16 17  1  0
 17 18  1  0
 18 19  2  0
 19 20  1  0
 20 21  2  0
 21 22  1  0
 22 23  2  0
 17 24  2  0
 24 25  1  0
 25 26  1  0
 26 27  1  0
 26 28  1  0
 26 29  1  0
 25 30  2  0
 30 31  1  0
 31 32  3  0
  9 33  1  0
 33 34  2  0
 34  6  1  0
 30 15  1  0
 23 18  1  0
  1 35  1  0
  1 36  1  0
  1 37  1  0
  2 38  1  0
  2 39  1  0
  7 40  1  0
  8 41  1  0
 10 42  1  0
 13 43  1  0
 13 44  1  0
 19 45  1  0
 20 46  1  0
 21 47  1  0
 22 48  1  0
 23 49  1  0
 24 50  1  0
 33 51  1  0
 34 52  1  0
M  END
>  <Binding energies>  (1) 
[-8.83]

>  <Ligand effiencies>  (1) 
[-0.2522857142857143]

>  <Interactions>  (1) 
["V-B:TYR:539:CE2:9845, V-A:HIS:456:CE1:4066, V-B:TYR:539:CZ:9846, V-A:GLY:453:C:4038, V-B:PRO:540:CA:9852, V-A:ARG:545:CZ:4923, V-B:TYR:539:CE1:9844, V-A:GLY:453:CA:4040, H-A:GLY:454:N:4046, V-B:TYR:539:C:9836, V-A:GLY:454:CA:4045, V-B:PRO:540:N:9853, V-B:TYR:539:CD2:9843, H-B:GLU:543:OE2:9879, V-B:HIS:456:CD2:9036, V-B:LYS:547:CD:9918, H-A:LYS:547:NZ:4948, V-B:GLY:544:C:9881, V-B:LYS:547:CE:9919, V-B:GLU:543:CB:9875, V-B:GLU:543:CD:9877, V-B:HIS:456:CB:9033, V-B:HIS:456:CE1:9038, V-B:GLU:543:CG:9876, H-A:ARG:545:NH2:4925, V-A:ILE:369:CB:3232, H-A:ARG:545:NH1:4924, V-A:LEU:475:CD1:4254, V-A:ILE:369:CG2:3233, V-A:ILE:369:CG1:3234, V-B:MET:535:CE:9804, V-B:GLU:543:C:9871, H-B:GLU:543:OE1:9878, H-A:ARG:545:NE:4921, V-B:HIS:456:CG:9034, V-B:GLU:543:CA:9873"]

$$$$
3ab_Grossjean_2025
     RDKit          3D

 49 51  0  0  0  0  0  0  0  0999 V2000
  130.1900  125.6940   72.8160 C   0  0  0  0  0  0  0  0  0  0  0  0
  129.4810  126.8920   73.0980 O   0  0  0  0  0  0  0  0  0  0  0  0
  129.4030  127.8900   72.1810 C   0  0  0  0  0  0  0  0  0  0  0  0
  129.4730  129.0880   72.4710 O   0  0  0  0  0  0  0  0  0  0  0  0
  129.2250  127.3910   70.7760 C   0  0  0  0  0  0  0  0  0  0  0  0
  128.1410  126.5800   70.4070 C   0  0  0  0  0  0  0  0  0  0  0  0
  128.0010  126.1330   69.0960 C   0  0  0  0  0  0  0  0  0  0  0  0
  128.9500  126.4910   68.1250 C   0  0  0  0  0  0  0  0  0  0  0  0
  128.9060  126.1030   66.7730 N   0  0  0  0  0  0  0  0  0  0  0  0
  129.8690  125.5700   65.9920 C   0  0  0  0  0  0  0  0  0  0  0  0
  131.0240  125.3300   66.3450 O   0  0  0  0  0  0  0  0  0  0  0  0
  129.4490  125.2560   64.5550 C   0  0  0  0  0  0  0  0  0  0  0  0
  130.4030  126.2130   63.3380 S   0  0  0  0  0  0  0  0  0  0  0  0
  131.0610  125.0620   62.1500 C   0  0  0  0  0  0  0  0  0  0  0  0
  130.1920  124.7500   61.1590 N   0  0  0  0  0  0  0  0  0  0  0  0
  130.5650  123.8860   60.1800 C   0  0  0  0  0  0  0  0  0  0  0  0
  129.5450  123.5960   59.1180 C   0  0  0  0  0  0  0  0  0  0  0  0
  128.5310  122.6500   59.3360 C   0  0  0  0  0  0  0  0  0  0  0  0
  127.5820  122.3780   58.3540 C   0  0  0  0  0  0  0  0  0  0  0  0
  127.6350  123.0490   57.1370 C   0  0  0  0  0  0  0  0  0  0  0  0
  128.6320  123.9880   56.8940 C   0  0  0  0  0  0  0  0  0  0  0  0
  129.5790  124.2570   57.8780 C   0  0  0  0  0  0  0  0  0  0  0  0
  131.8330  123.2940   60.1920 C   0  0  0  0  0  0  0  0  0  0  0  0
  132.7430  123.5860   61.2170 C   0  0  0  0  0  0  0  0  0  0  0  0
  134.1270  122.9080   61.1970 C   0  0  0  0  0  0  0  0  0  0  0  0
  134.2340  121.9220   62.0900 F   0  0  0  0  0  0  0  0  0  0  0  0
  134.3650  122.3840   59.9930 F   0  0  0  0  0  0  0  0  0  0  0  0
  135.0760  123.8040   61.4720 F   0  0  0  0  0  0  0  0  0  0  0  0
  132.3500  124.4900   62.2360 C   0  0  0  0  0  0  0  0  0  0  0  0
  133.2420  124.7850   63.3610 C   0  0  0  0  0  0  0  0  0  0  0  0
  133.9480  125.0160   64.2480 N   0  0  0  0  0  0  0  0  0  0  0  0
  130.0260  127.3030   68.4880 C   0  0  0  0  0  0  0  0  0  0  0  0
  130.1640  127.7470   69.7990 C   0  0  0  0  0  0  0  0  0  0  0  0
  130.4779  125.2075   73.7596 H   0  0  0  0  0  0  0  0  0  0  0  0
  129.5477  125.0159   72.2350 H   0  0  0  0  0  0  0  0  0  0  0  0
  131.0935  125.9308   72.2350 H   0  0  0  0  0  0  0  0  0  0  0  0
  127.3936  126.2943   71.1619 H   0  0  0  0  0  0  0  0  0  0  0  0
  127.1458  125.4985   68.8204 H   0  0  0  0  0  0  0  0  0  0  0  0
  128.0210  126.2880   66.3220 H   0  0  0  0  0  0  0  0  0  0  0  0
  129.6069  124.1840   64.3656 H   0  0  0  0  0  0  0  0  0  0  0  0
  128.3892  125.5292   64.4448 H   0  0  0  0  0  0  0  0  0  0  0  0
  128.4855  122.1158   60.2965 H   0  0  0  0  0  0  0  0  0  0  0  0
  126.7928  121.6347   58.5403 H   0  0  0  0  0  0  0  0  0  0  0  0
  126.8840  122.8359   56.3620 H   0  0  0  0  0  0  0  0  0  0  0  0
  128.6718  124.5152   55.9294 H   0  0  0  0  0  0  0  0  0  0  0  0
  130.3670  124.9991   57.6820 H   0  0  0  0  0  0  0  0  0  0  0  0
  132.1173  122.5949   59.3917 H   0  0  0  0  0  0  0  0  0  0  0  0
  130.7701  127.5938   67.7318 H   0  0  0  0  0  0  0  0  0  0  0  0
  131.0186  128.3838   70.0713 H   0  0  0  0  0  0  0  0  0  0  0  0
  1  2  1  0
  2  3  1  0
  3  4  2  0
  3  5  1  0
  5  6  2  0
  6  7  1  0
  7  8  2  0
  8  9  1  0
  9 10  1  0
 10 11  2  0
 10 12  1  0
 12 13  1  0
 13 14  1  0
 14 15  2  0
 15 16  1  0
 16 17  1  0
 17 18  2  0
 18 19  1  0
 19 20  2  0
 20 21  1  0
 21 22  2  0
 16 23  2  0
 23 24  1  0
 24 25  1  0
 25 26  1  0
 25 27  1  0
 25 28  1  0
 24 29  2  0
 29 30  1  0
 30 31  3  0
  8 32  1  0
 32 33  2  0
 33  5  1  0
 29 14  1  0
 22 17  1  0
  1 34  1  0
  1 35  1  0
  1 36  1  0
  6 37  1  0
  7 38  1  0
  9 39  1  0
 12 40  1  0
 12 41  1  0
 18 42  1  0
 19 43  1  0
 20 44  1  0
 21 45  1  0
 22 46  1  0
 23 47  1  0
 32 48  1  0
 33 49  1  0
M  END
>  <Binding energies>  (1) 
[-8.53]

>  <Ligand effiencies>  (1) 
[-0.25088235294117645]

>  <Interactions>  (1) 
["V-B:TYR:539:CE2:9845, V-A:HIS:456:CE1:4066, V-B:TYR:539:CZ:9846, V-A:GLY:453:C:4038, V-B:PRO:540:CA:9852, V-A:ARG:545:CZ:4923, V-B:TYR:539:CE1:9844, V-A:GLY:453:CA:4040, H-A:GLY:454:N:4046, V-B:TYR:539:C:9836, H-A:TYR:484:OH:4344, V-A:GLY:454:CA:4045, V-B:PRO:540:N:9853, V-B:TYR:539:CD2:9843, V-A:ASP:366:CG:3209, V-B:HIS:456:CD2:9036, H-A:LYS:547:NZ:4948, V-B:LYS:547:CE:9919, V-B:GLU:543:CB:9875, V-B:GLU:543:CD:9877, V-B:HIS:456:CE1:9038, V-B:GLU:543:CG:9876, H-A:ARG:545:NH2:4925, V-A:ILE:369:CB:3232, H-A:ARG:545:NH1:4924, V-A:LEU:475:CD1:4254, V-A:ILE:369:CG2:3233, V-A:ILE:369:CG1:3234, V-B:MET:535:CE:9804, V-A:HIS:456:CD2:4064, V-B:GLU:543:C:9871, H-B:GLU:543:OE1:9878, H-A:ARG:545:NE:4921"]

$$$$
3ac_Grossjean_2025
     RDKit          3D

 47 49  0  0  0  0  0  0  0  0999 V2000
  128.3710  127.8010   73.1270 C   0  0  0  0  0  0  0  0  0  0  0  0
  129.5670  127.6100   72.3770 O   0  0  0  0  0  0  0  0  0  0  0  0
  129.4790  127.3170   71.0290 C   0  0  0  0  0  0  0  0  0  0  0  0
  130.3570  127.9970   70.1860 C   0  0  0  0  0  0  0  0  0  0  0  0
  130.3440  127.7640   68.8140 C   0  0  0  0  0  0  0  0  0  0  0  0
  129.4440  126.8510   68.2630 C   0  0  0  0  0  0  0  0  0  0  0  0
  129.5200  126.6680   66.8700 N   0  0  0  0  0  0  0  0  0  0  0  0
  130.6010  126.7240   66.0620 C   0  0  0  0  0  0  0  0  0  0  0  0
  131.7590  126.9120   66.4350 O   0  0  0  0  0  0  0  0  0  0  0  0
  130.3200  126.5300   64.5710 C   0  0  0  0  0  0  0  0  0  0  0  0
  129.8230  124.8240   64.1810 S   0  0  0  0  0  0  0  0  0  0  0  0
  130.7160  124.2840   62.7360 C   0  0  0  0  0  0  0  0  0  0  0  0
  129.9110  124.0240   61.6780 N   0  0  0  0  0  0  0  0  0  0  0  0
  130.4510  123.6090   60.5020 C   0  0  0  0  0  0  0  0  0  0  0  0
  129.4900  123.3370   59.3840 C   0  0  0  0  0  0  0  0  0  0  0  0
  129.5460  124.0770   58.1910 C   0  0  0  0  0  0  0  0  0  0  0  0
  128.6610  123.8240   57.1470 C   0  0  0  0  0  0  0  0  0  0  0  0
  127.7020  122.8260   57.2820 C   0  0  0  0  0  0  0  0  0  0  0  0
  127.6200  122.0820   58.4540 C   0  0  0  0  0  0  0  0  0  0  0  0
  128.5080  122.3380   59.4960 C   0  0  0  0  0  0  0  0  0  0  0  0
  131.8310  123.4290   60.3720 C   0  0  0  0  0  0  0  0  0  0  0  0
  132.6850  123.6690   61.4590 C   0  0  0  0  0  0  0  0  0  0  0  0
  134.1990  123.4520   61.2730 C   0  0  0  0  0  0  0  0  0  0  0  0
  134.9360  124.3150   61.9750 F   0  0  0  0  0  0  0  0  0  0  0  0
  134.5420  122.2250   61.6680 F   0  0  0  0  0  0  0  0  0  0  0  0
  134.5230  123.5970   59.9870 F   0  0  0  0  0  0  0  0  0  0  0  0
  132.1170  124.0960   62.6850 C   0  0  0  0  0  0  0  0  0  0  0  0
  132.9590  124.2860   63.8680 C   0  0  0  0  0  0  0  0  0  0  0  0
  133.6250  124.4340   64.8030 N   0  0  0  0  0  0  0  0  0  0  0  0
  128.5620  126.1570   69.1060 C   0  0  0  0  0  0  0  0  0  0  0  0
  128.5780  126.3920   70.4780 C   0  0  0  0  0  0  0  0  0  0  0  0
  128.6023  127.7641   74.2018 H   0  0  0  0  0  0  0  0  0  0  0  0
  127.9352  128.7801   72.8792 H   0  0  0  0  0  0  0  0  0  0  0  0
  127.6519  127.0063   72.8792 H   0  0  0  0  0  0  0  0  0  0  0  0
  131.0661  128.7239   70.6090 H   0  0  0  0  0  0  0  0  0  0  0  0
  131.0466  128.3022   68.1608 H   0  0  0  0  0  0  0  0  0  0  0  0
  128.6470  126.4120   66.4330 H   0  0  0  0  0  0  0  0  0  0  0  0
  129.5105  127.2119   64.2715 H   0  0  0  0  0  0  0  0  0  0  0  0
  131.2486  126.7449   64.0218 H   0  0  0  0  0  0  0  0  0  0  0  0
  130.3013  124.8690   58.0803 H   0  0  0  0  0  0  0  0  0  0  0  0
  128.7199  124.4112   56.2187 H   0  0  0  0  0  0  0  0  0  0  0  0
  127.0038  122.6238   56.4564 H   0  0  0  0  0  0  0  0  0  0  0  0
  126.8579  121.2955   58.5575 H   0  0  0  0  0  0  0  0  0  0  0  0
  128.4395  121.7484   60.4221 H   0  0  0  0  0  0  0  0  0  0  0  0
  132.2504  123.0969   59.4108 H   0  0  0  0  0  0  0  0  0  0  0  0
  127.8573  125.4265   68.6820 H   0  0  0  0  0  0  0  0  0  0  0  0
  127.8809  125.8500   71.1340 H   0  0  0  0  0  0  0  0  0  0  0  0
  1  2  1  0
  2  3  1  0
  3  4  2  0
  4  5  1  0
  5  6  2  0
  6  7  1  0
  7  8  1  0
  8  9  2  0
  8 10  1  0
 10 11  1  0
 11 12  1  0
 12 13  2  0
 13 14  1  0
 14 15  1  0
 15 16  2  0
 16 17  1  0
 17 18  2  0
 18 19  1  0
 19 20  2  0
 14 21  2  0
 21 22  1  0
 22 23  1  0
 23 24  1  0
 23 25  1  0
 23 26  1  0
 22 27  2  0
 27 28  1  0
 28 29  3  0
  6 30  1  0
 30 31  2  0
 31  3  1  0
 27 12  1  0
 20 15  1  0
  1 32  1  0
  1 33  1  0
  1 34  1  0
  4 35  1  0
  5 36  1  0
  7 37  1  0
 10 38  1  0
 10 39  1  0
 16 40  1  0
 17 41  1  0
 18 42  1  0
 19 43  1  0
 20 44  1  0
 21 45  1  0
 30 46  1  0
 31 47  1  0
M  END
>  <Binding energies>  (1) 
[-8.1]

>  <Ligand effiencies>  (1) 
[-0.253125]

>  <Interactions>  (1) 
["V-B:TYR:539:CE2:9845, V-A:HIS:456:CE1:4066, V-B:TYR:539:CZ:9846, V-A:GLY:453:C:4038, V-B:PRO:540:CA:9852, V-B:TYR:539:CE1:9844, V-A:GLY:453:CA:4040, H-A:GLY:454:N:4046, V-B:TYR:539:C:9836, H-A:TYR:484:OH:4344, V-A:GLY:454:CA:4045, V-B:PRO:540:N:9853, V-B:TYR:539:CD2:9843, V-A:ASP:366:CG:3209, V-B:HIS:456:CD2:9036, V-A:GLU:543:CB:4903, H-A:LYS:547:NZ:4948, V-B:LYS:547:CE:9919, V-B:GLU:543:CB:9875, V-A:GLU:543:C:4899, V-A:GLY:544:C:4909, V-A:GLU:543:CD:4905, V-A:ILE:369:CB:3232, V-A:ILE:369:CG2:3233, V-A:ILE:369:CG1:3234, V-A:ASP:366:CB:3208, V-B:GLU:543:C:9871, H-B:GLU:543:OE1:9878, H-A:ARG:545:NE:4921, V-A:ASP:366:CA:3206"]

$$$$
3ad_Grossjean_2025
     RDKit          3D

 43 45  0  0  0  0  0  0  0  0999 V2000
  131.3540  122.3650   64.2120 N   0  0  0  0  0  0  0  0  0  0  0  0
  130.6550  122.4140   63.2910 C   0  0  0  0  0  0  0  0  0  0  0  0
  129.7690  122.4720   62.1240 C   0  0  0  0  0  0  0  0  0  0  0  0
  129.5280  121.3180   61.3400 C   0  0  0  0  0  0  0  0  0  0  0  0
  130.1310  119.9410   61.6790 C   0  0  0  0  0  0  0  0  0  0  0  0
  131.4500  119.8910   61.4840 F   0  0  0  0  0  0  0  0  0  0  0  0
  129.9010  119.6470   62.9600 F   0  0  0  0  0  0  0  0  0  0  0  0
  129.5790  118.9980   60.9130 F   0  0  0  0  0  0  0  0  0  0  0  0
  128.7090  121.4370   60.2070 C   0  0  0  0  0  0  0  0  0  0  0  0
  128.1510  122.6730   59.8640 C   0  0  0  0  0  0  0  0  0  0  0  0
  127.2820  122.8600   58.6550 C   0  0  0  0  0  0  0  0  0  0  0  0
  126.0600  123.5440   58.7500 C   0  0  0  0  0  0  0  0  0  0  0  0
  125.2490  123.7220   57.6320 C   0  0  0  0  0  0  0  0  0  0  0  0
  125.6520  123.2150   56.4000 C   0  0  0  0  0  0  0  0  0  0  0  0
  126.8590  122.5360   56.2800 C   0  0  0  0  0  0  0  0  0  0  0  0
  127.6680  122.3610   57.4000 C   0  0  0  0  0  0  0  0  0  0  0  0
  128.3900  123.7770   60.6150 N   0  0  0  0  0  0  0  0  0  0  0  0
  129.1590  123.6830   61.7250 C   0  0  0  0  0  0  0  0  0  0  0  0
  129.3540  125.2240   62.5920 S   0  0  0  0  0  0  0  0  0  0  0  0
  131.1120  125.3800   63.0280 C   0  0  0  0  0  0  0  0  0  0  0  0
  131.3100  125.9000   64.4540 C   0  0  0  0  0  0  0  0  0  0  0  0
  132.4500  126.1500   64.8470 O   0  0  0  0  0  0  0  0  0  0  0  0
  130.1810  126.0440   65.1800 N   0  0  0  0  0  0  0  0  0  0  0  0
  130.0100  126.5050   66.4990 C   0  0  0  0  0  0  0  0  0  0  0  0
  129.0400  125.8370   67.2530 C   0  0  0  0  0  0  0  0  0  0  0  0
  128.7890  126.2160   68.5690 C   0  0  0  0  0  0  0  0  0  0  0  0
  129.5040  127.2680   69.1320 C   0  0  0  0  0  0  0  0  0  0  0  0
  130.4680  127.9470   68.3910 C   0  0  0  0  0  0  0  0  0  0  0  0
  130.7230  127.5710   67.0740 C   0  0  0  0  0  0  0  0  0  0  0  0
  128.5045  120.5532   59.5848 H   0  0  0  0  0  0  0  0  0  0  0  0
  125.7381  123.9455   59.7222 H   0  0  0  0  0  0  0  0  0  0  0  0
  124.2943  124.2608   57.7222 H   0  0  0  0  0  0  0  0  0  0  0  0
  125.0117  123.3524   55.5162 H   0  0  0  0  0  0  0  0  0  0  0  0
  127.1740  122.1384   55.3040 H   0  0  0  0  0  0  0  0  0  0  0  0
  128.6230  121.8243   57.3004 H   0  0  0  0  0  0  0  0  0  0  0  0
  131.5874  124.3917   62.9421 H   0  0  0  0  0  0  0  0  0  0  0  0
  131.5681  126.1049   62.3378 H   0  0  0  0  0  0  0  0  0  0  0  0
  129.3250  125.7460   64.7350 H   0  0  0  0  0  0  0  0  0  0  0  0
  128.4727  125.0083   66.8043 H   0  0  0  0  0  0  0  0  0  0  0  0
  128.0285  125.6858   69.1610 H   0  0  0  0  0  0  0  0  0  0  0  0
  129.3062  127.5663   70.1721 H   0  0  0  0  0  0  0  0  0  0  0  0
  131.0270  128.7786   68.8447 H   0  0  0  0  0  0  0  0  0  0  0  0
  131.4813  128.1077   66.4850 H   0  0  0  0  0  0  0  0  0  0  0  0
  1  2  3  0
  2  3  1  0
  3  4  2  0
  4  5  1  0
  5  6  1  0
  5  7  1  0
  5  8  1  0
  4  9  1  0
  9 10  2  0
 10 11  1  0
 11 12  2  0
 12 13  1  0
 13 14  2  0
 14 15  1  0
 15 16  2  0
 10 17  1  0
 17 18  2  0
 18 19  1  0
 19 20  1  0
 20 21  1  0
 21 22  2  0
 21 23  1  0
 23 24  1  0
 24 25  2  0
 25 26  1  0
 26 27  2  0
 27 28  1  0
 28 29  2  0
 18  3  1  0
 29 24  1  0
 16 11  1  0
  9 30  1  0
 12 31  1  0
 13 32  1  0
 14 33  1  0
 15 34  1  0
 16 35  1  0
 20 36  1  0
 20 37  1  0
 23 38  1  0
 25 39  1  0
 26 40  1  0
 27 41  1  0
 28 42  1  0
 29 43  1  0
M  END
>  <Binding energies>  (1) 
[-7.31]

>  <Ligand effiencies>  (1) 
[-0.24366666666666664]

>  <Interactions>  (1) 
["V-B:PRO:540:C:9850, V-B:TYR:539:CE2:9845, V-A:HIS:456:CE1:4066, V-B:TYR:539:CG:9841, V-B:TYR:539:CD1:9842, V-B:PRO:540:CA:9852, V-B:TYR:539:CE1:9844, V-B:ALA:541:CB:9861, V-B:TYR:539:C:9836, H-A:TYR:484:OH:4344, V-B:PRO:540:N:9853, V-B:PRO:540:CB:9854, V-B:TYR:539:CD2:9843, V-A:GLU:543:CB:4903, V-B:GLU:543:CB:9875, V-A:GLU:543:C:4899, V-B:GLU:543:CG:9876, V-A:GLU:543:CD:4905, H-A:ARG:545:NH2:4925, V-A:LEU:475:CD1:4254, V-A:LEU:475:CD2:4255, H-B:GLU:543:OE1:9878, H-A:ARG:545:NE:4921, V-B:LEU:363:CD1:8157, V-B:ALA:541:CA:9859, V-B:ILE:538:CB:9831, V-A:PRO:482:CG:4323, V-A:LEU:475:CG:4253, V-A:TRP:381:CH2:3368, V-A:TRP:381:CZ2:3366, V-A:PRO:482:CB:4322"]

$$$$
3af_Grossjean_2025
     RDKit          3D

 42 44  0  0  0  0  0  0  0  0999 V2000
  127.9770  128.2460   62.3350 N   0  0  0  0  0  0  0  0  0  0  0  0
  128.2620  128.0770   63.4440 C   0  0  0  0  0  0  0  0  0  0  0  0
  128.6230  127.8630   64.8480 C   0  0  0  0  0  0  0  0  0  0  0  0
  129.5660  126.8700   65.2080 C   0  0  0  0  0  0  0  0  0  0  0  0
  130.2980  126.0010   64.1660 C   0  0  0  0  0  0  0  0  0  0  0  0
  129.4670  125.2380   63.4520 F   0  0  0  0  0  0  0  0  0  0  0  0
  130.9640  126.7780   63.3120 F   0  0  0  0  0  0  0  0  0  0  0  0
  131.1610  125.1860   64.7750 F   0  0  0  0  0  0  0  0  0  0  0  0
  129.8380  126.6660   66.5690 C   0  0  0  0  0  0  0  0  0  0  0  0
  129.1860  127.4290   67.5430 C   0  0  0  0  0  0  0  0  0  0  0  0
  129.4250  127.2390   69.0110 C   0  0  0  0  0  0  0  0  0  0  0  0
  130.5130  127.8580   69.6470 C   0  0  0  0  0  0  0  0  0  0  0  0
  130.7390  127.6870   71.0100 C   0  0  0  0  0  0  0  0  0  0  0  0
  129.8760  126.8940   71.7580 C   0  0  0  0  0  0  0  0  0  0  0  0
  128.7880  126.2730   71.1540 C   0  0  0  0  0  0  0  0  0  0  0  0
  128.5660  126.4460   69.7900 C   0  0  0  0  0  0  0  0  0  0  0  0
  128.2800  128.3770   67.1940 N   0  0  0  0  0  0  0  0  0  0  0  0
  128.0170  128.6090   65.8850 C   0  0  0  0  0  0  0  0  0  0  0  0
  126.8160  129.8980   65.6240 S   0  0  0  0  0  0  0  0  0  0  0  0
  125.2810  129.1240   65.0300 C   0  0  0  0  0  0  0  0  0  0  0  0
  124.6940  129.8720   63.8330 C   0  0  0  0  0  0  0  0  0  0  0  0
  123.5190  130.2370   63.8730 O   0  0  0  0  0  0  0  0  0  0  0  0
  125.5410  130.0660   62.7990 N   0  0  0  0  0  0  0  0  0  0  0  0
  125.3180  130.7020   61.5620 C   0  0  0  0  0  0  0  0  0  0  0  0
  126.1110  130.5570   60.4090 C   0  0  0  0  0  0  0  0  0  0  0  0
  125.7730  131.2520   59.2460 C   0  0  0  0  0  0  0  0  0  0  0  0
  124.6480  132.0770   59.2640 C   0  0  0  0  0  0  0  0  0  0  0  0
  123.8670  132.2330   60.3610 N   0  0  0  0  0  0  0  0  0  0  0  0
  124.2080  131.5510   61.4840 C   0  0  0  0  0  0  0  0  0  0  0  0
  130.5685  125.9014   66.8719 H   0  0  0  0  0  0  0  0  0  0  0  0
  131.1972  128.4877   69.0593 H   0  0  0  0  0  0  0  0  0  0  0  0
  131.5969  128.1773   71.4933 H   0  0  0  0  0  0  0  0  0  0  0  0
  130.0550  126.7569   72.8346 H   0  0  0  0  0  0  0  0  0  0  0  0
  128.1065  125.6486   71.7503 H   0  0  0  0  0  0  0  0  0  0  0  0
  127.7044  125.9539   69.3151 H   0  0  0  0  0  0  0  0  0  0  0  0
  125.4974  128.0878   64.7310 H   0  0  0  0  0  0  0  0  0  0  0  0
  124.5447  129.1545   65.8466 H   0  0  0  0  0  0  0  0  0  0  0  0
  126.4780  129.7140   62.9210 H   0  0  0  0  0  0  0  0  0  0  0  0
  126.9928  129.8995   60.4236 H   0  0  0  0  0  0  0  0  0  0  0  0
  126.3809  131.1512   58.3348 H   0  0  0  0  0  0  0  0  0  0  0  0
  124.3831  132.6250   58.3477 H   0  0  0  0  0  0  0  0  0  0  0  0
  123.5797  131.6718   62.3788 H   0  0  0  0  0  0  0  0  0  0  0  0
  1  2  3  0
  2  3  1  0
  3  4  2  0
  4  5  1  0
  5  6  1  0
  5  7  1  0
  5  8  1  0
  4  9  1  0
  9 10  2  0
 10 11  1  0
 11 12  2  0
 12 13  1  0
 13 14  2  0
 14 15  1  0
 15 16  2  0
 10 17  1  0
 17 18  2  0
 18 19  1  0
 19 20  1  0
 20 21  1  0
 21 22  2  0
 21 23  1  0
 23 24  1  0
 24 25  2  0
 25 26  1  0
 26 27  2  0
 27 28  1  0
 28 29  2  0
 18  3  1  0
 29 24  1  0
 16 11  1  0
  9 30  1  0
 12 31  1  0
 13 32  1  0
 14 33  1  0
 15 34  1  0
 16 35  1  0
 20 36  1  0
 20 37  1  0
 23 38  1  0
 25 39  1  0
 26 40  1  0
 27 41  1  0
 29 42  1  0
M  END
>  <Binding energies>  (1) 
[-6.83]

>  <Ligand effiencies>  (1) 
[-0.22766666666666666]

>  <Interactions>  (1) 
["V-A:HIS:456:CE1:4066, V-A:ARG:545:CZ:4923, V-B:GLU:543:CD:9877, V-A:GLU:543:C:4899, V-B:HIS:456:CE1:9038, V-B:GLU:543:CG:9876, V-A:GLY:544:C:4909, V-A:GLU:543:CD:4905, H-B:GLY:454:N:9018, V-B:ARG:545:CZ:9895, H-B:TYR:484:OH:9316, V-A:HIS:456:CD2:4064, H-B:ARG:545:NH2:9897, V-B:ASP:366:CG:8181, V-A:TYR:539:CE2:4873, V-B:ILE:369:CD1:8207, V-B:ILE:369:CG2:8205, H-B:ARG:545:NH1:9896"]

$$$$
3ag_Grossjean_2025
     RDKit          3D

 46 48  0  0  0  0  0  0  0  0999 V2000
  128.1320  127.6290   61.1970 N   0  0  0  0  0  0  0  0  0  0  0  0
  128.2420  127.5720   62.3480 C   0  0  0  0  0  0  0  0  0  0  0  0
  128.3780  127.5020   63.8060 C   0  0  0  0  0  0  0  0  0  0  0  0
  127.6370  128.3700   64.6440 C   0  0  0  0  0  0  0  0  0  0  0  0
  126.6150  129.3850   64.0960 C   0  0  0  0  0  0  0  0  0  0  0  0
  125.7240  128.8290   63.2730 F   0  0  0  0  0  0  0  0  0  0  0  0
  125.9400  129.9390   65.1040 F   0  0  0  0  0  0  0  0  0  0  0  0
  127.2410  130.3450   63.4150 F   0  0  0  0  0  0  0  0  0  0  0  0
  127.8420  128.3010   66.0310 C   0  0  0  0  0  0  0  0  0  0  0  0
  128.7700  127.3990   66.5640 C   0  0  0  0  0  0  0  0  0  0  0  0
  129.0310  127.2850   68.0350 C   0  0  0  0  0  0  0  0  0  0  0  0
  128.2080  126.4920   68.8500 C   0  0  0  0  0  0  0  0  0  0  0  0
  128.4450  126.3810   70.2170 C   0  0  0  0  0  0  0  0  0  0  0  0
  129.5120  127.0650   70.7900 C   0  0  0  0  0  0  0  0  0  0  0  0
  130.3420  127.8600   70.0050 C   0  0  0  0  0  0  0  0  0  0  0  0
  130.1010  127.9690   68.6390 C   0  0  0  0  0  0  0  0  0  0  0  0
  129.4700  126.5600   65.7570 N   0  0  0  0  0  0  0  0  0  0  0  0
  129.2730  126.5950   64.4170 C   0  0  0  0  0  0  0  0  0  0  0  0
  130.2700  125.4260   63.5210 S   0  0  0  0  0  0  0  0  0  0  0  0
  129.4750  123.7990   63.6840 C   0  0  0  0  0  0  0  0  0  0  0  0
  129.0710  123.2150   62.3290 C   0  0  0  0  0  0  0  0  0  0  0  0
  129.8490  122.4780   61.7210 O   0  0  0  0  0  0  0  0  0  0  0  0
  127.8500  123.5490   61.8750 N   0  0  0  0  0  0  0  0  0  0  0  0
  127.2500  123.0770   60.6270 C   0  0  0  0  0  0  0  0  0  0  0  0
  125.9220  123.7430   60.2850 C   0  0  0  0  0  0  0  0  0  0  0  0
  124.7750  123.4180   61.0140 C   0  0  0  0  0  0  0  0  0  0  0  0
  123.5660  124.0450   60.7240 C   0  0  0  0  0  0  0  0  0  0  0  0
  123.5100  125.0020   59.7130 C   0  0  0  0  0  0  0  0  0  0  0  0
  124.6530  125.3420   58.9920 C   0  0  0  0  0  0  0  0  0  0  0  0
  125.8620  124.7150   59.2820 C   0  0  0  0  0  0  0  0  0  0  0  0
  127.2705  128.9590   66.7022 H   0  0  0  0  0  0  0  0  0  0  0  0
  127.3626  125.9499   68.4013 H   0  0  0  0  0  0  0  0  0  0  0  0
  127.7911  125.7548   70.8417 H   0  0  0  0  0  0  0  0  0  0  0  0
  129.7010  126.9771   71.8701 H   0  0  0  0  0  0  0  0  0  0  0  0
  131.1845  128.3995   70.4623 H   0  0  0  0  0  0  0  0  0  0  0  0
  130.7576  128.6000   68.0220 H   0  0  0  0  0  0  0  0  0  0  0  0
  130.1784  123.1083   64.1719 H   0  0  0  0  0  0  0  0  0  0  0  0
  128.5609  123.9281   64.2822 H   0  0  0  0  0  0  0  0  0  0  0  0
  127.2740  124.1520   62.4440 H   0  0  0  0  0  0  0  0  0  0  0  0
  127.9567  123.2743   59.8075 H   0  0  0  0  0  0  0  0  0  0  0  0
  127.0427  122.0049   60.7598 H   0  0  0  0  0  0  0  0  0  0  0  0
  124.8271  122.6674   61.8164 H   0  0  0  0  0  0  0  0  0  0  0  0
  122.6594  123.7859   61.2905 H   0  0  0  0  0  0  0  0  0  0  0  0
  122.5539  125.4942   59.4816 H   0  0  0  0  0  0  0  0  0  0  0  0
  124.6005  126.1016   58.1981 H   0  0  0  0  0  0  0  0  0  0  0  0
  126.7697  124.9844   58.7220 H   0  0  0  0  0  0  0  0  0  0  0  0
  1  2  3  0
  2  3  1  0
  3  4  2  0
  4  5  1  0
  5  6  1  0
  5  7  1  0
  5  8  1  0
  4  9  1  0
  9 10  2  0
 10 11  1  0
 11 12  2  0
 12 13  1  0
 13 14  2  0
 14 15  1  0
 15 16  2  0
 10 17  1  0
 17 18  2  0
 18 19  1  0
 19 20  1  0
 20 21  1  0
 21 22  2  0
 21 23  1  0
 23 24  1  0
 24 25  1  0
 25 26  2  0
 26 27  1  0
 27 28  2  0
 28 29  1  0
 29 30  2  0
 18  3  1  0
 30 25  1  0
 16 11  1  0
  9 31  1  0
 12 32  1  0
 13 33  1  0
 14 34  1  0
 15 35  1  0
 16 36  1  0
 20 37  1  0
 20 38  1  0
 23 39  1  0
 24 40  1  0
 24 41  1  0
 26 42  1  0
 27 43  1  0
 28 44  1  0
 29 45  1  0
 30 46  1  0
M  END
>  <Binding energies>  (1) 
[-7.38]

>  <Ligand effiencies>  (1) 
[-0.23806451612903226]

>  <Interactions>  (1) 
["V-B:ASN:362:CA:8142, V-A:HIS:456:CE1:4066, V-B:ASN:362:CB:8144, V-B:PRO:540:CA:9852, V-B:ALA:541:CB:9861, V-B:ASN:362:C:8140, V-B:PRO:540:CB:9854, H-B:GLU:543:OE2:9879, V-A:GLU:543:CB:4903, V-B:GLU:543:CB:9875, V-B:GLU:543:CD:9877, V-A:GLU:543:C:4899, V-B:HIS:456:CE1:9038, V-B:GLU:543:CG:9876, V-A:GLU:543:CD:4905, V-B:LEU:363:CA:8153, V-B:ARG:545:CZ:9895, V-A:HIS:456:CD2:4064, H-B:GLU:543:OE1:9878, V-B:ASP:366:CG:8181, V-B:ASP:366:CB:8180"]

$$$$
3ai_Grossjean_2025
     RDKit          3D

 39 41  0  0  0  0  0  0  0  0999 V2000
  128.6610  127.4890   62.5340 N   0  0  0  0  0  0  0  0  0  0  0  0
  128.7530  127.3790   63.6830 C   0  0  0  0  0  0  0  0  0  0  0  0
  128.8700  127.2400   65.1370 C   0  0  0  0  0  0  0  0  0  0  0  0
  129.5210  126.1180   65.7070 C   0  0  0  0  0  0  0  0  0  0  0  0
  130.1750  125.0140   64.8540 C   0  0  0  0  0  0  0  0  0  0  0  0
  129.3500  124.5160   63.9310 F   0  0  0  0  0  0  0  0  0  0  0  0
  131.2410  125.5030   64.2180 F   0  0  0  0  0  0  0  0  0  0  0  0
  130.5620  124.0020   65.6300 F   0  0  0  0  0  0  0  0  0  0  0  0
  129.5650  126.0070   67.1050 C   0  0  0  0  0  0  0  0  0  0  0  0
  128.9740  126.9850   67.9120 C   0  0  0  0  0  0  0  0  0  0  0  0
  128.9820  126.9110   69.4090 C   0  0  0  0  0  0  0  0  0  0  0  0
  129.9500  127.6020   70.1550 C   0  0  0  0  0  0  0  0  0  0  0  0
  129.9610  127.5420   71.5460 C   0  0  0  0  0  0  0  0  0  0  0  0
  128.9990  126.7890   72.2110 C   0  0  0  0  0  0  0  0  0  0  0  0
  128.0270  126.0980   71.4960 C   0  0  0  0  0  0  0  0  0  0  0  0
  128.0190  126.1600   70.1050 C   0  0  0  0  0  0  0  0  0  0  0  0
  128.3450  128.0540   67.3610 N   0  0  0  0  0  0  0  0  0  0  0  0
  128.3100  128.1960   66.0140 C   0  0  0  0  0  0  0  0  0  0  0  0
  127.4630  129.6680   65.4780 S   0  0  0  0  0  0  0  0  0  0  0  0
  125.6690  129.3620   65.6140 C   0  0  0  0  0  0  0  0  0  0  0  0
  124.8020  130.1240   64.6010 C   0  0  0  0  0  0  0  0  0  0  0  0
  123.5920  129.9010   64.5120 O   0  0  0  0  0  0  0  0  0  0  0  0
  125.4740  131.0240   63.8490 N   0  0  0  0  0  0  0  0  0  0  0  0
  124.9520  131.8540   62.8650 C   0  0  0  0  0  0  0  0  0  0  0  0
  124.1930  131.3840   61.7940 C   0  0  0  0  0  0  0  0  0  0  0  0
  123.8770  132.5030   61.0600 C   0  0  0  0  0  0  0  0  0  0  0  0
  124.4160  133.5920   61.6560 O   0  0  0  0  0  0  0  0  0  0  0  0
  125.0950  133.1680   62.8000 N   0  0  0  0  0  0  0  0  0  0  0  0
  130.0673  125.1456   67.5694 H   0  0  0  0  0  0  0  0  0  0  0  0
  130.7113  128.1999   69.6326 H   0  0  0  0  0  0  0  0  0  0  0  0
  130.7270  128.0877   72.1165 H   0  0  0  0  0  0  0  0  0  0  0  0
  129.0072  126.7398   73.3099 H   0  0  0  0  0  0  0  0  0  0  0  0
  127.2677  125.5050   72.0269 H   0  0  0  0  0  0  0  0  0  0  0  0
  127.2478  125.6133   69.5426 H   0  0  0  0  0  0  0  0  0  0  0  0
  125.4946  128.2854   65.4707 H   0  0  0  0  0  0  0  0  0  0  0  0
  125.3699  129.7243   66.6086 H   0  0  0  0  0  0  0  0  0  0  0  0
  126.4660  131.1170   64.0130 H   0  0  0  0  0  0  0  0  0  0  0  0
  123.9084  130.3428   61.5820 H   0  0  0  0  0  0  0  0  0  0  0  0
  123.2810  132.5117   60.1355 H   0  0  0  0  0  0  0  0  0  0  0  0
  1  2  3  0
  2  3  1  0
  3  4  2  0
  4  5  1  0
  5  6  1  0
  5  7  1  0
  5  8  1  0
  4  9  1  0
  9 10  2  0
 10 11  1  0
 11 12  2  0
 12 13  1  0
 13 14  2  0
 14 15  1  0
 15 16  2  0
 10 17  1  0
 17 18  2  0
 18 19  1  0
 19 20  1  0
 20 21  1  0
 21 22  2  0
 21 23  1  0
 23 24  1  0
 24 25  1  0
 25 26  2  0
 26 27  1  0
 27 28  1  0
 18  3  1  0
 28 24  2  0
 16 11  1  0
  9 29  1  0
 12 30  1  0
 13 31  1  0
 14 32  1  0
 15 33  1  0
 16 34  1  0
 20 35  1  0
 20 36  1  0
 23 37  1  0
 25 38  1  0
 26 39  1  0
M  END
>  <Binding energies>  (1) 
[-6.86]

>  <Ligand effiencies>  (1) 
[-0.23655172413793105]

>  <Interactions>  (1) 
["V-A:HIS:456:CE1:4066, V-A:TYR:484:CE1:4341, V-B:GLY:544:C:9881, V-B:LYS:547:CE:9919, V-B:GLU:543:CB:9875, V-B:GLU:543:CD:9877, V-B:HIS:456:CE1:9038, V-A:TYR:484:CZ:4343, V-B:GLU:543:CG:9876, V-A:GLU:543:CD:4905, H-B:GLY:454:N:9018, V-B:ARG:545:CZ:9895, H-B:TYR:484:OH:9316, V-A:HIS:456:CD2:4064, H-B:ARG:545:NH2:9897, V-B:GLU:543:C:9871, V-B:ASP:366:CG:8181, V-B:ILE:369:CD1:8207, V-B:ILE:369:CG2:8205, H-B:ARG:545:NH1:9896, V-B:ILE:369:CB:8204, H-B:ARG:545:NE:9893"]

$$$$
3aj_Grossjean_2025
     RDKit          3D

 39 41  0  0  0  0  0  0  0  0999 V2000
  128.0460  128.1910   62.5260 N   0  0  0  0  0  0  0  0  0  0  0  0
  128.3210  127.9990   63.6330 C   0  0  0  0  0  0  0  0  0  0  0  0
  128.6720  127.7530   65.0350 C   0  0  0  0  0  0  0  0  0  0  0  0
  129.5610  126.7080   65.3860 C   0  0  0  0  0  0  0  0  0  0  0  0
  130.2390  125.8050   64.3370 C   0  0  0  0  0  0  0  0  0  0  0  0
  129.3640  125.2190   63.5160 F   0  0  0  0  0  0  0  0  0  0  0  0
  131.0750  126.5240   63.5880 F   0  0  0  0  0  0  0  0  0  0  0  0
  130.9260  124.8370   64.9440 F   0  0  0  0  0  0  0  0  0  0  0  0
  129.8270  126.4840   66.7460 C   0  0  0  0  0  0  0  0  0  0  0  0
  129.2210  127.2770   67.7260 C   0  0  0  0  0  0  0  0  0  0  0  0
  129.4630  127.0740   69.1900 C   0  0  0  0  0  0  0  0  0  0  0  0
  128.7190  126.1310   69.9150 C   0  0  0  0  0  0  0  0  0  0  0  0
  128.9410  125.9340   71.2760 C   0  0  0  0  0  0  0  0  0  0  0  0
  129.9140  126.6820   71.9310 C   0  0  0  0  0  0  0  0  0  0  0  0
  130.6660  127.6220   71.2350 C   0  0  0  0  0  0  0  0  0  0  0  0
  130.4420  127.8140   69.8750 C   0  0  0  0  0  0  0  0  0  0  0  0
  128.3640  128.2730   67.3840 N   0  0  0  0  0  0  0  0  0  0  0  0
  128.1100  128.5240   66.0780 C   0  0  0  0  0  0  0  0  0  0  0  0
  126.9830  129.8780   65.8220 S   0  0  0  0  0  0  0  0  0  0  0  0
  125.3960  129.1840   65.2480 C   0  0  0  0  0  0  0  0  0  0  0  0
  124.7870  129.8820   64.0220 C   0  0  0  0  0  0  0  0  0  0  0  0
  123.6100  130.2490   64.0250 O   0  0  0  0  0  0  0  0  0  0  0  0
  125.6400  130.0460   62.9860 N   0  0  0  0  0  0  0  0  0  0  0  0
  125.3560  130.6480   61.7670 C   0  0  0  0  0  0  0  0  0  0  0  0
  125.8180  130.3220   60.5790 N   0  0  0  0  0  0  0  0  0  0  0  0
  125.3330  131.1080   59.6370 C   0  0  0  0  0  0  0  0  0  0  0  0
  124.4550  132.1030   60.0590 C   0  0  0  0  0  0  0  0  0  0  0  0
  124.2620  131.9940   61.7820 S   0  0  0  0  0  0  0  0  0  0  0  0
  130.5163  125.6798   67.0429 H   0  0  0  0  0  0  0  0  0  0  0  0
  127.9484  125.5380   69.4007 H   0  0  0  0  0  0  0  0  0  0  0  0
  128.3496  125.1903   71.8303 H   0  0  0  0  0  0  0  0  0  0  0  0
  130.0896  126.5289   73.0061 H   0  0  0  0  0  0  0  0  0  0  0  0
  131.4344  128.2111   71.7570 H   0  0  0  0  0  0  0  0  0  0  0  0
  131.0407  128.5568   69.3274 H   0  0  0  0  0  0  0  0  0  0  0  0
  125.5585  128.1264   64.9927 H   0  0  0  0  0  0  0  0  0  0  0  0
  124.6812  129.3300   66.0712 H   0  0  0  0  0  0  0  0  0  0  0  0
  126.5840  129.7100   63.1010 H   0  0  0  0  0  0  0  0  0  0  0  0
  125.6065  130.9844   58.5787 H   0  0  0  0  0  0  0  0  0  0  0  0
  123.9629  132.8393   59.4065 H   0  0  0  0  0  0  0  0  0  0  0  0
  1  2  3  0
  2  3  1  0
  3  4  2  0
  4  5  1  0
  5  6  1  0
  5  7  1  0
  5  8  1  0
  4  9  1  0
  9 10  2  0
 10 11  1  0
 11 12  2  0
 12 13  1  0
 13 14  2  0
 14 15  1  0
 15 16  2  0
 10 17  1  0
 17 18  2  0
 18 19  1  0
 19 20  1  0
 20 21  1  0
 21 22  2  0
 21 23  1  0
 23 24  1  0
 24 25  2  0
 25 26  1  0
 26 27  2  0
 27 28  1  0
 18  3  1  0
 28 24  1  0
 16 11  1  0
  9 29  1  0
 12 30  1  0
 13 31  1  0
 14 32  1  0
 15 33  1  0
 16 34  1  0
 20 35  1  0
 20 36  1  0
 23 37  1  0
 26 38  1  0
 27 39  1  0
M  END
>  <Binding energies>  (1) 
[-6.59]

>  <Ligand effiencies>  (1) 
[-0.22724137931034483]

>  <Interactions>  (1) 
["V-A:HIS:456:CE1:4066, V-A:ARG:545:CZ:4923, V-B:GLU:543:CD:9877, V-A:GLU:543:C:4899, V-B:HIS:456:CE1:9038, V-B:GLU:543:CG:9876, V-A:GLY:544:C:4909, V-A:GLU:543:CD:4905, H-B:GLY:454:N:9018, V-B:ARG:545:CZ:9895, H-B:TYR:484:OH:9316, V-A:HIS:456:CD2:4064, V-B:ASP:366:CG:8181, V-B:ILE:369:CD1:8207, V-B:ILE:369:CG2:8205, H-B:ARG:545:NH1:9896"]

$$$$
3ak_Grossjean_2025
     RDKit          3D

 57 58  0  0  0  0  0  0  0  0999 V2000
  136.8720  117.5040   57.3930 C   0  0  0  0  0  0  0  0  0  0  0  0
  136.5040  117.3820   58.7580 O   0  0  0  0  0  0  0  0  0  0  0  0
  135.1080  117.2030   58.9530 C   0  0  0  0  0  0  0  0  0  0  0  0
  134.7000  117.8680   60.2740 C   0  0  0  0  0  0  0  0  0  0  0  0
  133.7700  118.9110   59.9980 O   0  0  0  0  0  0  0  0  0  0  0  0
  133.4100  119.7230   61.1120 C   0  0  0  0  0  0  0  0  0  0  0  0
  134.3120  120.9580   61.2960 C   0  0  0  0  0  0  0  0  0  0  0  0
  133.4980  122.1130   61.4420 O   0  0  0  0  0  0  0  0  0  0  0  0
  133.6720  123.0740   60.4090 C   0  0  0  0  0  0  0  0  0  0  0  0
  132.6950  124.2480   60.6040 C   0  0  0  0  0  0  0  0  0  0  0  0
  132.3990  124.5350   62.0090 N   0  0  0  0  0  0  0  0  0  0  0  0
  133.3060  124.7140   62.9880 C   0  0  0  0  0  0  0  0  0  0  0  0
  134.5210  124.6690   62.7870 O   0  0  0  0  0  0  0  0  0  0  0  0
  132.8100  124.9860   64.4180 C   0  0  0  0  0  0  0  0  0  0  0  0
  131.1840  124.2760   64.8680 S   0  0  0  0  0  0  0  0  0  0  0  0
  130.0800  125.6070   65.3140 C   0  0  0  0  0  0  0  0  0  0  0  0
  129.9000  125.7990   66.6440 N   0  0  0  0  0  0  0  0  0  0  0  0
  129.0750  126.7830   67.0820 C   0  0  0  0  0  0  0  0  0  0  0  0
  128.9350  126.9250   68.5690 C   0  0  0  0  0  0  0  0  0  0  0  0
  129.8890  127.6330   69.3150 C   0  0  0  0  0  0  0  0  0  0  0  0
  129.7620  127.7700   70.6950 C   0  0  0  0  0  0  0  0  0  0  0  0
  128.6750  127.2010   71.3490 C   0  0  0  0  0  0  0  0  0  0  0  0
  127.7130  126.4970   70.6330 C   0  0  0  0  0  0  0  0  0  0  0  0
  127.8420  126.3620   69.2530 C   0  0  0  0  0  0  0  0  0  0  0  0
  128.4140  127.6210   66.1770 C   0  0  0  0  0  0  0  0  0  0  0  0
  128.5840  127.4450   64.7960 C   0  0  0  0  0  0  0  0  0  0  0  0
  127.8380  128.3860   63.8300 C   0  0  0  0  0  0  0  0  0  0  0  0
  127.4150  129.4690   64.4820 F   0  0  0  0  0  0  0  0  0  0  0  0
  128.6500  128.7650   62.8430 F   0  0  0  0  0  0  0  0  0  0  0  0
  126.7700  127.8130   63.2700 F   0  0  0  0  0  0  0  0  0  0  0  0
  129.4390  126.4100   64.3460 C   0  0  0  0  0  0  0  0  0  0  0  0
  129.6540  126.1800   62.9140 C   0  0  0  0  0  0  0  0  0  0  0  0
  129.8240  125.9980   61.7830 N   0  0  0  0  0  0  0  0  0  0  0  0
  137.9140  117.8495   57.3236 H   0  0  0  0  0  0  0  0  0  0  0  0
  136.7762  116.5260   56.8986 H   0  0  0  0  0  0  0  0  0  0  0  0
  136.2110  118.2311   56.8986 H   0  0  0  0  0  0  0  0  0  0  0  0
  134.5569  117.6660   58.1212 H   0  0  0  0  0  0  0  0  0  0  0  0
  134.8719  116.1292   58.9885 H   0  0  0  0  0  0  0  0  0  0  0  0
  134.2331  117.1221   60.9340 H   0  0  0  0  0  0  0  0  0  0  0  0
  135.5885  118.2833   60.7720 H   0  0  0  0  0  0  0  0  0  0  0  0
  132.3748  120.0671   60.9706 H   0  0  0  0  0  0  0  0  0  0  0  0
  133.5271  119.1027   62.0128 H   0  0  0  0  0  0  0  0  0  0  0  0
  134.9330  120.8295   62.1948 H   0  0  0  0  0  0  0  0  0  0  0  0
  134.9639  121.0738   60.4176 H   0  0  0  0  0  0  0  0  0  0  0  0
  134.7045  123.4525   60.4352 H   0  0  0  0  0  0  0  0  0  0  0  0
  133.4709  122.5975   59.4382 H   0  0  0  0  0  0  0  0  0  0  0  0
  133.1369  125.1475   60.1506 H   0  0  0  0  0  0  0  0  0  0  0  0
  131.7466  123.9622   60.1256 H   0  0  0  0  0  0  0  0  0  0  0  0
  131.4200  124.6070   62.2500 H   0  0  0  0  0  0  0  0  0  0  0  0
  133.5572  124.5774   65.1142 H   0  0  0  0  0  0  0  0  0  0  0  0
  132.6778  126.0764   64.4776 H   0  0  0  0  0  0  0  0  0  0  0  0
  130.7501  128.0866   68.8024 H   0  0  0  0  0  0  0  0  0  0  0  0
  130.5196  128.3268   71.2660 H   0  0  0  0  0  0  0  0  0  0  0  0
  128.5754  127.3083   72.4392 H   0  0  0  0  0  0  0  0  0  0  0  0
  126.8542  126.0489   71.1542 H   0  0  0  0  0  0  0  0  0  0  0  0
  127.0778  125.8068   68.6892 H   0  0  0  0  0  0  0  0  0  0  0  0
  127.7582  128.4213   66.5504 H   0  0  0  0  0  0  0  0  0  0  0  0
  1  2  1  0
  2  3  1  0
  3  4  1  0
  4  5  1  0
  5  6  1  0
  6  7  1  0
  7  8  1  0
  8  9  1  0
  9 10  1  0
 10 11  1  0
 11 12  1  0
 12 13  2  0
 12 14  1  0
 14 15  1  0
 15 16  1  0
 16 17  2  0
 17 18  1  0
 18 19  1  0
 19 20  2  0
 20 21  1  0
 21 22  2  0
 22 23  1  0
 23 24  2  0
 18 25  2  0
 25 26  1  0
 26 27  1  0
 27 28  1  0
 27 29  1  0
 27 30  1  0
 26 31  2  0
 31 32  1  0
 32 33  3  0
 31 16  1  0
 24 19  1  0
  1 34  1  0
  1 35  1  0
  1 36  1  0
  3 37  1  0
  3 38  1  0
  4 39  1  0
  4 40  1  0
  6 41  1  0
  6 42  1  0
  7 43  1  0
  7 44  1  0
  9 45  1  0
  9 46  1  0
 10 47  1  0
 10 48  1  0
 11 49  1  0
 14 50  1  0
 14 51  1  0
 20 52  1  0
 21 53  1  0
 22 54  1  0
 23 55  1  0
 24 56  1  0
 25 57  1  0
M  END
>  <Binding energies>  (1) 
[-6.33]

>  <Ligand effiencies>  (1) 
[-0.1861764705882353]

>  <Interactions>  (1) 
["V-B:TYR:539:CE2:9845, V-A:HIS:456:CE1:4066, V-A:ARG:545:CZ:4923, H-A:GLY:454:N:4046, H-A:TYR:484:OH:4344, V-A:GLY:454:CA:4045, V-B:TYR:539:CD2:9843, V-A:ASP:366:CG:3209, V-B:HIS:456:CD2:9036, V-B:GLY:544:C:9881, V-B:GLU:543:CB:9875, V-B:GLU:543:CD:9877, V-B:HIS:456:CE1:9038, V-A:GLU:543:CD:4905, H-A:ARG:545:NH2:4925, V-A:ILE:369:CB:3232, H-A:ARG:545:NH1:4924, V-A:LEU:475:CD1:4254, V-A:ILE:369:CG2:3233, V-A:ILE:369:CG1:3234, V-B:GLU:543:C:9871, V-A:SER:385:C:3401, V-A:SER:385:CA:3403, V-A:ILE:369:CD1:3235, V-A:TRP:381:CH2:3368, V-A:TRP:381:CZ2:3366, H-A:ASN:382:ND2:3377, V-A:VAL:384:C:3393, V-A:ILE:369:CA:3230, V-A:ASN:372:CB:3263, V-A:VAL:384:CG1:3398, V-A:ASN:372:C:3259, V-A:SER:385:CB:3405, V-A:TRP:381:CZ3:3367"]

$$$$
3bc_Grossjean_2025
     RDKit          3D

 47 49  0  0  0  0  0  0  0  0999 V2000
  128.2970  127.8940   73.3520 C   0  0  0  0  0  0  0  0  0  0  0  0
  129.5180  127.6490   72.6630 O   0  0  0  0  0  0  0  0  0  0  0  0
  129.4790  127.3300   71.3180 C   0  0  0  0  0  0  0  0  0  0  0  0
  130.3930  127.9900   70.4970 C   0  0  0  0  0  0  0  0  0  0  0  0
  130.4290  127.7350   69.1280 C   0  0  0  0  0  0  0  0  0  0  0  0
  129.5430  126.8180   68.5610 C   0  0  0  0  0  0  0  0  0  0  0  0
  129.6630  126.6170   67.1730 N   0  0  0  0  0  0  0  0  0  0  0  0
  130.7170  126.8600   66.3650 C   0  0  0  0  0  0  0  0  0  0  0  0
  131.8100  127.2850   66.7450 O   0  0  0  0  0  0  0  0  0  0  0  0
  130.4810  126.5260   64.8850 C   0  0  0  0  0  0  0  0  0  0  0  0
  130.1110  124.7740   64.5350 S   0  0  0  0  0  0  0  0  0  0  0  0
  130.9710  124.3230   63.0430 C   0  0  0  0  0  0  0  0  0  0  0  0
  130.1480  124.0350   62.0060 N   0  0  0  0  0  0  0  0  0  0  0  0
  130.6730  123.6780   60.8040 C   0  0  0  0  0  0  0  0  0  0  0  0
  129.6950  123.3540   59.7150 C   0  0  0  0  0  0  0  0  0  0  0  0
  128.7590  122.3210   59.8750 C   0  0  0  0  0  0  0  0  0  0  0  0
  127.8480  122.0140   58.8670 C   0  0  0  0  0  0  0  0  0  0  0  0
  127.8620  122.7400   57.6810 C   0  0  0  0  0  0  0  0  0  0  0  0
  128.7810  123.7680   57.4950 C   0  0  0  0  0  0  0  0  0  0  0  0
  129.6910  124.0700   58.5050 C   0  0  0  0  0  0  0  0  0  0  0  0
  132.0570  123.6020   60.6200 C   0  0  0  0  0  0  0  0  0  0  0  0
  132.9210  123.9190   61.6740 C   0  0  0  0  0  0  0  0  0  0  0  0
  134.4260  123.8390   61.4220 C   0  0  0  0  0  0  0  0  0  0  0  0
  132.3780  124.3010   62.9200 C   0  0  0  0  0  0  0  0  0  0  0  0
  133.2630  124.6850   64.0230 C   0  0  0  0  0  0  0  0  0  0  0  0
  133.9640  124.9860   64.8930 N   0  0  0  0  0  0  0  0  0  0  0  0
  128.6310  126.1390   69.3820 C   0  0  0  0  0  0  0  0  0  0  0  0
  128.5980  126.3970   70.7500 C   0  0  0  0  0  0  0  0  0  0  0  0
  128.4747  127.8583   74.4370 H   0  0  0  0  0  0  0  0  0  0  0  0
  127.9130  128.8871   73.0758 H   0  0  0  0  0  0  0  0  0  0  0  0
  127.5596  127.1259   73.0758 H   0  0  0  0  0  0  0  0  0  0  0  0
  131.0917  128.7184   70.9344 H   0  0  0  0  0  0  0  0  0  0  0  0
  131.1582  128.2581   68.4919 H   0  0  0  0  0  0  0  0  0  0  0  0
  128.8620  126.1750   66.7440 H   0  0  0  0  0  0  0  0  0  0  0  0
  129.6331  127.1305   64.5305 H   0  0  0  0  0  0  0  0  0  0  0  0
  131.4255  126.7485   64.3669 H   0  0  0  0  0  0  0  0  0  0  0  0
  128.7444  121.7443   60.8116 H   0  0  0  0  0  0  0  0  0  0  0  0
  127.1208  121.2009   59.0085 H   0  0  0  0  0  0  0  0  0  0  0  0
  127.1419  122.5000   56.8848 H   0  0  0  0  0  0  0  0  0  0  0  0
  128.7887  124.3392   56.5550 H   0  0  0  0  0  0  0  0  0  0  0  0
  130.4181  124.8815   58.3537 H   0  0  0  0  0  0  0  0  0  0  0  0
  132.4665  123.2931   59.6469 H   0  0  0  0  0  0  0  0  0  0  0  0
  134.9579  123.8107   62.3844 H   0  0  0  0  0  0  0  0  0  0  0  0
  134.6541  122.9275   60.8501 H   0  0  0  0  0  0  0  0  0  0  0  0
  134.7494  124.7212   60.8501 H   0  0  0  0  0  0  0  0  0  0  0  0
  127.9412  125.4020   68.9450 H   0  0  0  0  0  0  0  0  0  0  0  0
  127.8771  125.8663   71.3892 H   0  0  0  0  0  0  0  0  0  0  0  0
  1  2  1  0
  2  3  1  0
  3  4  2  0
  4  5  1  0
  5  6  2  0
  6  7  1  0
  7  8  1  0
  8  9  2  0
  8 10  1  0
 10 11  1  0
 11 12  1  0
 12 13  2  0
 13 14  1  0
 14 15  1  0
 15 16  2  0
 16 17  1  0
 17 18  2  0
 18 19  1  0
 19 20  2  0
 14 21  2  0
 21 22  1  0
 22 23  1  0
 22 24  2  0
 24 25  1  0
 25 26  3  0
  6 27  1  0
 27 28  2  0
 28  3  1  0
 24 12  1  0
 20 15  1  0
  1 29  1  0
  1 30  1  0
  1 31  1  0
  4 32  1  0
  5 33  1  0
  7 34  1  0
 10 35  1  0
 10 36  1  0
 16 37  1  0
 17 38  1  0
 18 39  1  0
 19 40  1  0
 20 41  1  0
 21 42  1  0
 23 43  1  0
 23 44  1  0
 23 45  1  0
 27 46  1  0
 28 47  1  0
M  END
>  <Binding energies>  (1) 
[-8.34]

>  <Ligand effiencies>  (1) 
[-0.28758620689655173]

>  <Interactions>  (1) 
["V-B:TYR:539:CE2:9845, V-A:HIS:456:CE1:4066, V-B:TYR:539:CZ:9846, V-A:GLY:453:C:4038, V-B:PRO:540:CA:9852, V-A:ARG:545:CZ:4923, V-B:TYR:539:CE1:9844, V-A:GLY:453:CA:4040, H-A:GLY:454:N:4046, V-B:TYR:539:C:9836, H-A:TYR:484:OH:4344, V-A:GLY:454:CA:4045, V-B:PRO:540:N:9853, V-B:TYR:539:CD2:9843, V-A:ASP:366:CG:3209, V-B:HIS:456:CD2:9036, V-A:GLU:543:CB:4903, H-A:LYS:547:NZ:4948, V-B:LYS:547:CE:9919, V-A:GLU:543:C:4899, V-A:GLY:544:C:4909, V-A:GLU:543:CD:4905, V-B:GLU:543:C:9871, H-B:GLU:543:OE1:9878, H-A:ARG:545:NE:4921"]

$$$$
3bd_Grossjean_2025
     RDKit          3D

 43 45  0  0  0  0  0  0  0  0999 V2000
  130.1170  125.8360   64.4010 C   0  0  0  0  0  0  0  0  0  0  0  0
  129.4780  126.7350   65.4570 C   0  0  0  0  0  0  0  0  0  0  0  0
  129.7630  126.4810   66.8030 C   0  0  0  0  0  0  0  0  0  0  0  0
  129.1940  127.2800   67.8010 C   0  0  0  0  0  0  0  0  0  0  0  0
  129.4610  127.0650   69.2620 C   0  0  0  0  0  0  0  0  0  0  0  0
  130.4470  127.8110   69.9280 C   0  0  0  0  0  0  0  0  0  0  0  0
  130.7010  127.6150   71.2830 C   0  0  0  0  0  0  0  0  0  0  0  0
  129.9700  126.6670   71.9930 C   0  0  0  0  0  0  0  0  0  0  0  0
  128.9900  125.9140   71.3560 C   0  0  0  0  0  0  0  0  0  0  0  0
  128.7390  126.1120   70.0010 C   0  0  0  0  0  0  0  0  0  0  0  0
  128.3740  128.3150   67.4800 N   0  0  0  0  0  0  0  0  0  0  0  0
  128.0850  128.5750   66.1800 C   0  0  0  0  0  0  0  0  0  0  0  0
  126.9870  129.9520   65.8920 S   0  0  0  0  0  0  0  0  0  0  0  0
  125.5050  129.3240   65.0470 C   0  0  0  0  0  0  0  0  0  0  0  0
  125.0480  130.2550   63.9230 C   0  0  0  0  0  0  0  0  0  0  0  0
  123.8770  130.6350   63.8990 O   0  0  0  0  0  0  0  0  0  0  0  0
  125.9920  130.5820   63.0140 N   0  0  0  0  0  0  0  0  0  0  0  0
  125.8880  131.4290   61.8940 C   0  0  0  0  0  0  0  0  0  0  0  0
  124.7280  131.2930   61.1270 C   0  0  0  0  0  0  0  0  0  0  0  0
  124.5400  132.0820   59.9950 C   0  0  0  0  0  0  0  0  0  0  0  0
  125.5170  133.0020   59.6250 C   0  0  0  0  0  0  0  0  0  0  0  0
  126.6830  133.1380   60.3740 C   0  0  0  0  0  0  0  0  0  0  0  0
  126.8740  132.3510   61.5070 C   0  0  0  0  0  0  0  0  0  0  0  0
  128.6180  127.8040   65.1240 C   0  0  0  0  0  0  0  0  0  0  0  0
  128.3010  128.0970   63.7230 C   0  0  0  0  0  0  0  0  0  0  0  0
  128.0520  128.3270   62.6170 N   0  0  0  0  0  0  0  0  0  0  0  0
  130.6860  125.0355   64.8965 H   0  0  0  0  0  0  0  0  0  0  0  0
  129.3306  125.3921   63.7729 H   0  0  0  0  0  0  0  0  0  0  0  0
  130.7947  126.4328   63.7729 H   0  0  0  0  0  0  0  0  0  0  0  0
  130.4341  125.6535   67.0766 H   0  0  0  0  0  0  0  0  0  0  0  0
  131.0273  128.5613   69.3710 H   0  0  0  0  0  0  0  0  0  0  0  0
  131.4766  128.2073   71.7905 H   0  0  0  0  0  0  0  0  0  0  0  0
  130.1687  126.5127   73.0638 H   0  0  0  0  0  0  0  0  0  0  0  0
  128.4153  125.1648   71.9204 H   0  0  0  0  0  0  0  0  0  0  0  0
  127.9635  125.5132   69.5009 H   0  0  0  0  0  0  0  0  0  0  0  0
  125.7318  128.3361   64.6196 H   0  0  0  0  0  0  0  0  0  0  0  0
  124.6934  129.2610   65.7868 H   0  0  0  0  0  0  0  0  0  0  0  0
  126.8850  130.1210   63.1090 H   0  0  0  0  0  0  0  0  0  0  0  0
  123.9609  130.5604   61.4183 H   0  0  0  0  0  0  0  0  0  0  0  0
  123.6234  131.9787   59.3957 H   0  0  0  0  0  0  0  0  0  0  0  0
  125.3665  133.6274   58.7327 H   0  0  0  0  0  0  0  0  0  0  0  0
  127.4511  133.8650   60.0716 H   0  0  0  0  0  0  0  0  0  0  0  0
  127.7962  132.4515   62.0981 H   0  0  0  0  0  0  0  0  0  0  0  0
  1  2  1  0
  2  3  2  0
  3  4  1  0
  4  5  1  0
  5  6  2  0
  6  7  1  0
  7  8  2  0
  8  9  1  0
  9 10  2  0
  4 11  2  0
 11 12  1  0
 12 13  1  0
 13 14  1  0
 14 15  1  0
 15 16  2  0
 15 17  1  0
 17 18  1  0
 18 19  2  0
 19 20  1  0
 20 21  2  0
 21 22  1  0
 22 23  2  0
 12 24  2  0
 24 25  1  0
 25 26  3  0
 24  2  1  0
 10  5  1  0
 23 18  1  0
  1 27  1  0
  1 28  1  0
  1 29  1  0
  3 30  1  0
  6 31  1  0
  7 32  1  0
  8 33  1  0
  9 34  1  0
 10 35  1  0
 14 36  1  0
 14 37  1  0
 17 38  1  0
 19 39  1  0
 20 40  1  0
 21 41  1  0
 22 42  1  0
 23 43  1  0
M  END
>  <Binding energies>  (1) 
[-7.22]

>  <Ligand effiencies>  (1) 
[-0.26740740740740737]

>  <Interactions>  (1) 
["V-A:HIS:456:CE1:4066, V-B:GLU:543:CD:9877, V-A:GLU:543:C:4899, V-B:HIS:456:CE1:9038, V-A:GLY:544:C:4909, V-A:GLU:543:CD:4905, H-A:GLU:543:OE2:4907, H-B:GLY:454:N:9018, V-B:ARG:545:CZ:9895, H-B:TYR:484:OH:9316, V-A:HIS:456:CD2:4064, V-B:ASP:366:CG:8181, V-A:TYR:539:CE2:4873, V-A:TYR:539:CD2:4871, V-B:ILE:369:CG2:8205"]

$$$$
3be_Grossjean_2025
     RDKit          3D

 45 47  0  0  0  0  0  0  0  0999 V2000
  129.8090  123.8790   63.5540 C   0  0  0  0  0  0  0  0  0  0  0  0
  129.1780  123.2180   62.3440 C   0  0  0  0  0  0  0  0  0  0  0  0
  129.7680  122.1160   61.7220 C   0  0  0  0  0  0  0  0  0  0  0  0
  129.1330  121.5610   60.6110 C   0  0  0  0  0  0  0  0  0  0  0  0
  127.9340  122.1140   60.1540 C   0  0  0  0  0  0  0  0  0  0  0  0
  127.3940  123.2170   60.8270 C   0  0  0  0  0  0  0  0  0  0  0  0
  126.1910  123.7350   60.3120 N   0  0  0  0  0  0  0  0  0  0  0  0
  124.9260  123.5030   60.7240 C   0  0  0  0  0  0  0  0  0  0  0  0
  124.6190  122.7590   61.6580 O   0  0  0  0  0  0  0  0  0  0  0  0
  123.8440  124.2520   59.9300 C   0  0  0  0  0  0  0  0  0  0  0  0
  124.0870  124.2790   58.1220 S   0  0  0  0  0  0  0  0  0  0  0  0
  125.6100  125.1350   57.7810 C   0  0  0  0  0  0  0  0  0  0  0  0
  125.5920  126.4410   58.1440 N   0  0  0  0  0  0  0  0  0  0  0  0
  126.6920  127.2150   57.9450 C   0  0  0  0  0  0  0  0  0  0  0  0
  126.5840  128.6520   58.3610 C   0  0  0  0  0  0  0  0  0  0  0  0
  127.3300  129.1430   59.4440 C   0  0  0  0  0  0  0  0  0  0  0  0
  127.2330  130.4750   59.8370 C   0  0  0  0  0  0  0  0  0  0  0  0
  126.3860  131.3370   59.1490 C   0  0  0  0  0  0  0  0  0  0  0  0
  125.6350  130.8760   58.0740 C   0  0  0  0  0  0  0  0  0  0  0  0
  125.7340  129.5430   57.6850 C   0  0  0  0  0  0  0  0  0  0  0  0
  127.8480  126.6820   57.3650 C   0  0  0  0  0  0  0  0  0  0  0  0
  127.8920  125.3310   57.0080 C   0  0  0  0  0  0  0  0  0  0  0  0
  129.1810  124.7890   56.3940 C   0  0  0  0  0  0  0  0  0  0  0  0
  126.7560  124.5210   57.2260 C   0  0  0  0  0  0  0  0  0  0  0  0
  126.7980  123.0920   56.9090 C   0  0  0  0  0  0  0  0  0  0  0  0
  126.8350  121.9630   56.6590 N   0  0  0  0  0  0  0  0  0  0  0  0
  128.0140  123.7660   61.9120 N   0  0  0  0  0  0  0  0  0  0  0  0
  129.3901  123.4402   64.4716 H   0  0  0  0  0  0  0  0  0  0  0  0
  130.8970  123.7180   63.5341 H   0  0  0  0  0  0  0  0  0  0  0  0
  129.5977  124.9583   63.5341 H   0  0  0  0  0  0  0  0  0  0  0  0
  130.7117  121.6952   62.0994 H   0  0  0  0  0  0  0  0  0  0  0  0
  129.5734  120.6934   60.0978 H   0  0  0  0  0  0  0  0  0  0  0  0
  127.4216  121.6891   59.2782 H   0  0  0  0  0  0  0  0  0  0  0  0
  126.3020  124.3390   59.5100 H   0  0  0  0  0  0  0  0  0  0  0  0
  122.8763  123.7713   60.1363 H   0  0  0  0  0  0  0  0  0  0  0  0
  123.8930  125.3000   60.2605 H   0  0  0  0  0  0  0  0  0  0  0  0
  128.0017  128.4647   59.9906 H   0  0  0  0  0  0  0  0  0  0  0  0
  127.8239  130.8441   60.6882 H   0  0  0  0  0  0  0  0  0  0  0  0
  126.3098  132.3901   59.4574 H   0  0  0  0  0  0  0  0  0  0  0  0
  124.9656  131.5612   57.5332 H   0  0  0  0  0  0  0  0  0  0  0  0
  125.1371  129.1816   56.8347 H   0  0  0  0  0  0  0  0  0  0  0  0
  128.7225  127.3259   57.1898 H   0  0  0  0  0  0  0  0  0  0  0  0
  129.8748  124.4973   57.1962 H   0  0  0  0  0  0  0  0  0  0  0  0
  128.9502  123.9117   55.7718 H   0  0  0  0  0  0  0  0  0  0  0  0
  129.6464  125.5676   55.7718 H   0  0  0  0  0  0  0  0  0  0  0  0
  1  2  1  0
  2  3  2  0
  3  4  1  0
  4  5  2  0
  5  6  1  0
  6  7  1  0
  7  8  1  0
  8  9  2  0
  8 10  1  0
 10 11  1  0
 11 12  1  0
 12 13  2  0
 13 14  1  0
 14 15  1  0
 15 16  2  0
 16 17  1  0
 17 18  2  0
 18 19  1  0
 19 20  2  0
 14 21  2  0
 21 22  1  0
 22 23  1  0
 22 24  2  0
 24 25  1  0
 25 26  3  0
  6 27  2  0
 27  2  1  0
 24 12  1  0
 20 15  1  0
  1 28  1  0
  1 29  1  0
  1 30  1  0
  3 31  1  0
  4 32  1  0
  5 33  1  0
  7 34  1  0
 10 35  1  0
 10 36  1  0
 16 37  1  0
 17 38  1  0
 18 39  1  0
 19 40  1  0
 20 41  1  0
 21 42  1  0
 23 43  1  0
 23 44  1  0
 23 45  1  0
M  END
>  <Binding energies>  (1) 
[-7.5]

>  <Ligand effiencies>  (1) 
[-0.26785714285714285]

>  <Interactions>  (1) 
["V-B:PRO:540:C:9850, H-B:ALA:541:N:9860, V-B:TYR:539:CE2:9845, V-B:PRO:540:CA:9852, V-B:ALA:541:CB:9861, V-B:TYR:539:C:9836, V-B:ASN:362:C:8140, V-B:PRO:540:N:9853, V-B:PRO:540:CB:9854, V-B:TYR:539:CD2:9843, V-B:GLU:543:CD:9877, V-B:GLU:543:CG:9876, V-B:LEU:363:CA:8153, H-B:TYR:539:N:9839, V-B:MET:535:CE:9804, H-B:TYR:531:OH:9764, V-B:ASP:366:CB:8180, V-A:TYR:539:CE2:4873"]

$$$$
3bf_Grossjean_2025
     RDKit          3D

 42 44  0  0  0  0  0  0  0  0999 V2000
  127.6920  129.1120   64.9160 C   0  0  0  0  0  0  0  0  0  0  0  0
  128.4120  128.0370   65.7270 C   0  0  0  0  0  0  0  0  0  0  0  0
  128.3150  128.0880   67.1210 C   0  0  0  0  0  0  0  0  0  0  0  0
  128.9470  127.1140   67.9020 C   0  0  0  0  0  0  0  0  0  0  0  0
  128.8630  127.0990   69.3990 C   0  0  0  0  0  0  0  0  0  0  0  0
  127.7720  126.5020   70.0490 C   0  0  0  0  0  0  0  0  0  0  0  0
  127.6870  126.4850   71.4380 C   0  0  0  0  0  0  0  0  0  0  0  0
  128.6960  127.0680   72.1990 C   0  0  0  0  0  0  0  0  0  0  0  0
  129.7870  127.6670   71.5790 C   0  0  0  0  0  0  0  0  0  0  0  0
  129.8680  127.6830   70.1890 C   0  0  0  0  0  0  0  0  0  0  0  0
  129.6600  126.1110   67.3230 N   0  0  0  0  0  0  0  0  0  0  0  0
  129.7840  126.0630   65.9740 C   0  0  0  0  0  0  0  0  0  0  0  0
  130.7560  124.6880   65.3970 S   0  0  0  0  0  0  0  0  0  0  0  0
  132.5180  125.1460   65.5260 C   0  0  0  0  0  0  0  0  0  0  0  0
  133.3260  125.0050   64.2270 C   0  0  0  0  0  0  0  0  0  0  0  0
  134.5220  125.3000   64.1950 O   0  0  0  0  0  0  0  0  0  0  0  0
  132.6270  124.5160   63.1800 N   0  0  0  0  0  0  0  0  0  0  0  0
  133.0600  124.2790   61.8620 C   0  0  0  0  0  0  0  0  0  0  0  0
  134.3250  123.7020   61.7010 C   0  0  0  0  0  0  0  0  0  0  0  0
  134.8060  123.4280   60.4190 C   0  0  0  0  0  0  0  0  0  0  0  0
  133.9990  123.7390   59.3240 C   0  0  0  0  0  0  0  0  0  0  0  0
  132.7650  124.2880   59.4510 N   0  0  0  0  0  0  0  0  0  0  0  0
  132.3100  124.5480   60.7040 C   0  0  0  0  0  0  0  0  0  0  0  0
  129.1580  127.0010   65.1240 C   0  0  0  0  0  0  0  0  0  0  0  0
  129.2310  126.9000   63.6640 C   0  0  0  0  0  0  0  0  0  0  0  0
  129.2890  126.8230   62.5110 N   0  0  0  0  0  0  0  0  0  0  0  0
  127.2126  129.8278   65.6000 H   0  0  0  0  0  0  0  0  0  0  0  0
  128.4186  129.6411   64.2819 H   0  0  0  0  0  0  0  0  0  0  0  0
  126.9261  128.6415   64.2819 H   0  0  0  0  0  0  0  0  0  0  0  0
  127.7420  128.8935   67.6035 H   0  0  0  0  0  0  0  0  0  0  0  0
  126.9719  126.0405   69.4516 H   0  0  0  0  0  0  0  0  0  0  0  0
  126.8255  126.0125   71.9326 H   0  0  0  0  0  0  0  0  0  0  0  0
  128.6300  127.0548   73.2969 H   0  0  0  0  0  0  0  0  0  0  0  0
  130.5827  128.1262   72.1840 H   0  0  0  0  0  0  0  0  0  0  0  0
  130.7314  128.1598   69.7020 H   0  0  0  0  0  0  0  0  0  0  0  0
  132.5742  126.1958   65.8497 H   0  0  0  0  0  0  0  0  0  0  0  0
  132.9655  124.4414   66.2425 H   0  0  0  0  0  0  0  0  0  0  0  0
  131.6740  124.2370   63.3640 H   0  0  0  0  0  0  0  0  0  0  0  0
  134.9389  123.4649   62.5824 H   0  0  0  0  0  0  0  0  0  0  0  0
  135.7990  122.9770   60.2755 H   0  0  0  0  0  0  0  0  0  0  0  0
  134.3801  123.5298   58.3136 H   0  0  0  0  0  0  0  0  0  0  0  0
  131.3088  124.9892   60.8178 H   0  0  0  0  0  0  0  0  0  0  0  0
  1  2  1  0
  2  3  2  0
  3  4  1  0
  4  5  1  0
  5  6  2  0
  6  7  1  0
  7  8  2  0
  8  9  1  0
  9 10  2  0
  4 11  2  0
 11 12  1  0
 12 13  1  0
 13 14  1  0
 14 15  1  0
 15 16  2  0
 15 17  1  0
 17 18  1  0
 18 19  2  0
 19 20  1  0
 20 21  2  0
 21 22  1  0
 22 23  2  0
 12 24  2  0
 24 25  1  0
 25 26  3  0
 24  2  1  0
 10  5  1  0
 23 18  1  0
  1 27  1  0
  1 28  1  0
  1 29  1  0
  3 30  1  0
  6 31  1  0
  7 32  1  0
  8 33  1  0
  9 34  1  0
 10 35  1  0
 14 36  1  0
 14 37  1  0
 17 38  1  0
 19 39  1  0
 20 40  1  0
 21 41  1  0
 23 42  1  0
M  END
>  <Binding energies>  (1) 
[-7.23]

>  <Ligand effiencies>  (1) 
[-0.2677777777777778]

>  <Interactions>  (1) 
["V-A:HIS:456:CE1:4066, V-B:TYR:539:CZ:9846, V-A:GLY:453:C:4038, V-A:ARG:545:CZ:4923, V-A:GLY:453:CA:4040, H-A:GLY:454:N:4046, H-A:TYR:484:OH:4344, V-A:GLY:454:CA:4045, V-A:ASP:366:CG:3209, V-B:HIS:456:CD2:9036, V-B:GLY:544:C:9881, V-B:LYS:547:CE:9919, V-B:GLU:543:CD:9877, V-B:HIS:456:CE1:9038, V-A:GLU:543:CD:4905, H-A:ARG:545:NH2:4925, V-A:ILE:369:CB:3232, H-A:ARG:545:NH1:4924, V-A:ILE:369:CG2:3233, V-A:ILE:369:CG1:3234, V-A:GLU:543:CG:4904, H-B:TYR:539:OH:9847, V-A:ASP:366:CB:3208, H-A:ARG:545:NE:4921, V-A:ASP:366:CA:3206, V-A:ASP:366:C:3204"]

$$$$
3bg_Grossjean_2025
     RDKit          3D

 46 48  0  0  0  0  0  0  0  0999 V2000
  129.9730  125.6410   64.4480 C   0  0  0  0  0  0  0  0  0  0  0  0
  129.3870  126.6250   65.4590 C   0  0  0  0  0  0  0  0  0  0  0  0
  129.6400  126.4060   66.8170 C   0  0  0  0  0  0  0  0  0  0  0  0
  129.1280  127.2890   67.7780 C   0  0  0  0  0  0  0  0  0  0  0  0
  129.3720  127.1190   69.2520 C   0  0  0  0  0  0  0  0  0  0  0  0
  128.6170  126.2090   70.0100 C   0  0  0  0  0  0  0  0  0  0  0  0
  128.8520  126.0350   71.3710 C   0  0  0  0  0  0  0  0  0  0  0  0
  129.8490  126.7740   72.0000 C   0  0  0  0  0  0  0  0  0  0  0  0
  130.6040  127.6900   71.2770 C   0  0  0  0  0  0  0  0  0  0  0  0
  130.3640  127.8620   69.9170 C   0  0  0  0  0  0  0  0  0  0  0  0
  128.3990  128.3730   67.4000 N   0  0  0  0  0  0  0  0  0  0  0  0
  128.1470  128.6010   66.0860 C   0  0  0  0  0  0  0  0  0  0  0  0
  127.2080  130.0760   65.7230 S   0  0  0  0  0  0  0  0  0  0  0  0
  125.5010  129.5810   65.3190 C   0  0  0  0  0  0  0  0  0  0  0  0
  125.0380  130.1670   63.9810 C   0  0  0  0  0  0  0  0  0  0  0  0
  123.8750  130.5460   63.8470 O   0  0  0  0  0  0  0  0  0  0  0  0
  125.9540  130.2090   62.9990 N   0  0  0  0  0  0  0  0  0  0  0  0
  125.6870  130.5550   61.6020 C   0  0  0  0  0  0  0  0  0  0  0  0
  126.8820  131.2390   60.9490 C   0  0  0  0  0  0  0  0  0  0  0  0
  126.8370  131.5850   59.5940 C   0  0  0  0  0  0  0  0  0  0  0  0
  127.9310  132.2010   58.9960 C   0  0  0  0  0  0  0  0  0  0  0  0
  129.0660  132.4810   59.7560 C   0  0  0  0  0  0  0  0  0  0  0  0
  129.1110  132.1590   61.1100 C   0  0  0  0  0  0  0  0  0  0  0  0
  128.0150  131.5420   61.7090 C   0  0  0  0  0  0  0  0  0  0  0  0
  128.6180  127.7420   65.0710 C   0  0  0  0  0  0  0  0  0  0  0  0
  128.3430  128.0010   63.6560 C   0  0  0  0  0  0  0  0  0  0  0  0
  128.1270  128.2050   62.5380 N   0  0  0  0  0  0  0  0  0  0  0  0
  130.4648  124.8151   64.9828 H   0  0  0  0  0  0  0  0  0  0  0  0
  129.1664  125.2401   63.8166 H   0  0  0  0  0  0  0  0  0  0  0  0
  130.7097  126.1592   63.8166 H   0  0  0  0  0  0  0  0  0  0  0  0
  130.2413  125.5401   67.1313 H   0  0  0  0  0  0  0  0  0  0  0  0
  127.8257  125.6232   69.5193 H   0  0  0  0  0  0  0  0  0  0  0  0
  128.2515  125.3157   71.9472 H   0  0  0  0  0  0  0  0  0  0  0  0
  130.0405  126.6327   73.0739 H   0  0  0  0  0  0  0  0  0  0  0  0
  131.3882  128.2767   71.7778 H   0  0  0  0  0  0  0  0  0  0  0  0
  130.9612  128.5926   69.3516 H   0  0  0  0  0  0  0  0  0  0  0  0
  125.4529  128.4835   65.2623 H   0  0  0  0  0  0  0  0  0  0  0  0
  124.8383  129.9666   66.1078 H   0  0  0  0  0  0  0  0  0  0  0  0
  126.8840  129.8710   63.1990 H   0  0  0  0  0  0  0  0  0  0  0  0
  125.4557  129.6348   61.0454 H   0  0  0  0  0  0  0  0  0  0  0  0
  124.8387  131.2549   61.5797 H   0  0  0  0  0  0  0  0  0  0  0  0
  125.9357  131.3696   59.0014 H   0  0  0  0  0  0  0  0  0  0  0  0
  127.9011  132.4660   57.9288 H   0  0  0  0  0  0  0  0  0  0  0  0
  129.9345  132.9610   59.2813 H   0  0  0  0  0  0  0  0  0  0  0  0
  130.0076  132.3907   61.7037 H   0  0  0  0  0  0  0  0  0  0  0  0
  128.0414  131.2933   62.7802 H   0  0  0  0  0  0  0  0  0  0  0  0
  1  2  1  0
  2  3  2  0
  3  4  1  0
  4  5  1  0
  5  6  2  0
  6  7  1  0
  7  8  2  0
  8  9  1  0
  9 10  2  0
  4 11  2  0
 11 12  1  0
 12 13  1  0
 13 14  1  0
 14 15  1  0
 15 16  2  0
 15 17  1  0
 17 18  1  0
 18 19  1  0
 19 20  2  0
 20 21  1  0
 21 22  2  0
 22 23  1  0
 23 24  2  0
 12 25  2  0
 25 26  1  0
 26 27  3  0
 25  2  1  0
 10  5  1  0
 24 19  1  0
  1 28  1  0
  1 29  1  0
  1 30  1  0
  3 31  1  0
  6 32  1  0
  7 33  1  0
  8 34  1  0
  9 35  1  0
 10 36  1  0
 14 37  1  0
 14 38  1  0
 17 39  1  0
 18 40  1  0
 18 41  1  0
 20 42  1  0
 21 43  1  0
 22 44  1  0
 23 45  1  0
 24 46  1  0
M  END
>  <Binding energies>  (1) 
[-7.1]

>  <Ligand effiencies>  (1) 
[-0.25357142857142856]

>  <Interactions>  (1) 
["V-A:HIS:456:CE1:4066, V-A:GLU:543:CB:4903, V-B:GLU:543:CD:9877, V-A:GLU:543:C:4899, V-B:HIS:456:CE1:9038, V-A:GLY:544:C:4909, V-A:GLU:543:CD:4905, H-A:GLU:543:OE2:4907, H-B:GLY:454:N:9018, H-B:TYR:484:OH:9316, V-A:GLU:543:CG:4904, V-A:HIS:456:CD2:4064, V-B:ASP:366:CG:8181, V-A:PRO:540:CA:4880, V-A:TYR:539:C:4864, V-A:ALA:541:CB:4889, V-A:TYR:539:CE2:4873, V-A:TYR:539:CD2:4871"]

$$$$
3bk_Grossjean_2025
     RDKit          3D

 57 58  0  0  0  0  0  0  0  0999 V2000
  137.0680  117.4880   58.0690 C   0  0  0  0  0  0  0  0  0  0  0  0
  135.8340  117.3840   57.3760 O   0  0  0  0  0  0  0  0  0  0  0  0
  134.6980  117.4940   58.2230 C   0  0  0  0  0  0  0  0  0  0  0  0
  135.1290  117.3340   59.6880 C   0  0  0  0  0  0  0  0  0  0  0  0
  135.2360  118.6150   60.2900 O   0  0  0  0  0  0  0  0  0  0  0  0
  134.0020  119.1260   60.7770 C   0  0  0  0  0  0  0  0  0  0  0  0
  134.2030  120.5730   61.2470 C   0  0  0  0  0  0  0  0  0  0  0  0
  133.3710  121.4360   60.4830 O   0  0  0  0  0  0  0  0  0  0  0  0
  133.9900  122.6670   60.1290 C   0  0  0  0  0  0  0  0  0  0  0  0
  134.3680  123.4330   61.4050 C   0  0  0  0  0  0  0  0  0  0  0  0
  133.3460  123.3200   62.4470 N   0  0  0  0  0  0  0  0  0  0  0  0
  133.2310  124.1250   63.5170 C   0  0  0  0  0  0  0  0  0  0  0  0
  133.9760  125.0800   63.7390 O   0  0  0  0  0  0  0  0  0  0  0  0
  132.0790  123.8200   64.4780 C   0  0  0  0  0  0  0  0  0  0  0  0
  130.4540  124.0580   63.6910 S   0  0  0  0  0  0  0  0  0  0  0  0
  129.7070  125.5440   64.3390 C   0  0  0  0  0  0  0  0  0  0  0  0
  129.7210  125.6750   65.6890 N   0  0  0  0  0  0  0  0  0  0  0  0
  129.1710  126.7740   66.2720 C   0  0  0  0  0  0  0  0  0  0  0  0
  129.2480  126.8490   67.7670 C   0  0  0  0  0  0  0  0  0  0  0  0
  130.2170  127.6460   68.3970 C   0  0  0  0  0  0  0  0  0  0  0  0
  130.2950  127.7150   69.7860 C   0  0  0  0  0  0  0  0  0  0  0  0
  129.4040  126.9870   70.5650 C   0  0  0  0  0  0  0  0  0  0  0  0
  128.4320  126.1920   69.9660 C   0  0  0  0  0  0  0  0  0  0  0  0
  128.3550  126.1270   68.5780 C   0  0  0  0  0  0  0  0  0  0  0  0
  128.5920  127.7840   65.4950 C   0  0  0  0  0  0  0  0  0  0  0  0
  128.5680  127.6650   64.1010 C   0  0  0  0  0  0  0  0  0  0  0  0
  127.9260  128.7890   63.2910 C   0  0  0  0  0  0  0  0  0  0  0  0
  129.1360  126.5230   63.4970 C   0  0  0  0  0  0  0  0  0  0  0  0
  129.1270  126.3720   62.0390 C   0  0  0  0  0  0  0  0  0  0  0  0
  129.1200  126.2530   60.8870 N   0  0  0  0  0  0  0  0  0  0  0  0
  136.8822  117.4723   59.1531 H   0  0  0  0  0  0  0  0  0  0  0  0
  137.7146  116.6412   57.7955 H   0  0  0  0  0  0  0  0  0  0  0  0
  137.5637  118.4311   57.7955 H   0  0  0  0  0  0  0  0  0  0  0  0
  134.2324  118.4809   58.0843 H   0  0  0  0  0  0  0  0  0  0  0  0
  133.9746  116.7057   57.9674 H   0  0  0  0  0  0  0  0  0  0  0  0
  134.3799  116.7361   60.2278 H   0  0  0  0  0  0  0  0  0  0  0  0
  136.1032  116.8249   59.7312 H   0  0  0  0  0  0  0  0  0  0  0  0
  133.2513  119.1015   59.9734 H   0  0  0  0  0  0  0  0  0  0  0  0
  133.6544  118.5097   61.6192 H   0  0  0  0  0  0  0  0  0  0  0  0
  133.9370  120.6538   62.3113 H   0  0  0  0  0  0  0  0  0  0  0  0
  135.2558  120.8613   61.1110 H   0  0  0  0  0  0  0  0  0  0  0  0
  134.8967  122.4657   59.5395 H   0  0  0  0  0  0  0  0  0  0  0  0
  133.2916  123.2709   59.5310 H   0  0  0  0  0  0  0  0  0  0  0  0
  135.3143  123.0280   61.7929 H   0  0  0  0  0  0  0  0  0  0  0  0
  134.4627  124.4969   61.1420 H   0  0  0  0  0  0  0  0  0  0  0  0
  132.6550  122.5970   62.3100 H   0  0  0  0  0  0  0  0  0  0  0  0
  132.1623  122.7753   64.8122 H   0  0  0  0  0  0  0  0  0  0  0  0
  132.1509  124.5159   65.3269 H   0  0  0  0  0  0  0  0  0  0  0  0
  130.9248  128.2243   67.7849 H   0  0  0  0  0  0  0  0  0  0  0  0
  131.0598  128.3441   70.2649 H   0  0  0  0  0  0  0  0  0  0  0  0
  129.4675  127.0396   71.6619 H   0  0  0  0  0  0  0  0  0  0  0  0
  127.7280  125.6178   70.5863 H   0  0  0  0  0  0  0  0  0  0  0  0
  127.5828  125.5005   68.1078 H   0  0  0  0  0  0  0  0  0  0  0  0
  128.1564  128.6702   65.9796 H   0  0  0  0  0  0  0  0  0  0  0  0
  127.4990  129.5366   63.9757 H   0  0  0  0  0  0  0  0  0  0  0  0
  128.6882  129.2655   62.6569 H   0  0  0  0  0  0  0  0  0  0  0  0
  127.1284  128.3746   62.6569 H   0  0  0  0  0  0  0  0  0  0  0  0
  1  2  1  0
  2  3  1  0
  3  4  1  0
  4  5  1  0
  5  6  1  0
  6  7  1  0
  7  8  1  0
  8  9  1  0
  9 10  1  0
 10 11  1  0
 11 12  1  0
 12 13  2  0
 12 14  1  0
 14 15  1  0
 15 16  1  0
 16 17  2  0
 17 18  1  0
 18 19  1  0
 19 20  2  0
 20 21  1  0
 21 22  2  0
 22 23  1  0
 23 24  2  0
 18 25  2  0
 25 26  1  0
 26 27  1  0
 26 28  2  0
 28 29  1  0
 29 30  3  0
 28 16  1  0
 24 19  1  0
  1 31  1  0
  1 32  1  0
  1 33  1  0
  3 34  1  0
  3 35  1  0
  4 36  1  0
  4 37  1  0
  6 38  1  0
  6 39  1  0
  7 40  1  0
  7 41  1  0
  9 42  1  0
  9 43  1  0
 10 44  1  0
 10 45  1  0
 11 46  1  0
 14 47  1  0
 14 48  1  0
 20 49  1  0
 21 50  1  0
 22 51  1  0
 23 52  1  0
 24 53  1  0
 25 54  1  0
 27 55  1  0
 27 56  1  0
 27 57  1  0
M  END
>  <Binding energies>  (1) 
[-6.43]

>  <Ligand effiencies>  (1) 
[-0.20741935483870966]

>  <Interactions>  (1) 
["V-B:TYR:539:CE2:9845, V-A:HIS:456:CE1:4066, V-B:TYR:539:CZ:9846, V-A:GLY:453:C:4038, H-A:GLY:454:N:4046, V-A:GLY:454:CA:4045, V-A:GLU:543:CB:4903, V-B:GLU:543:CB:9875, V-B:GLU:543:CD:9877, V-A:TYR:484:CZ:4343, V-B:GLU:543:CG:9876, V-A:GLU:543:CD:4905, H-A:ARG:545:NH2:4925, V-A:ILE:369:CB:3232, H-A:ARG:545:NH1:4924, V-A:LEU:475:CD1:4254, V-A:ILE:369:CG2:3233, V-A:ILE:369:CG1:3234, H-B:TYR:539:OH:9847, V-A:HIS:456:CD2:4064, V-B:GLU:543:C:9871, H-A:ARG:545:NE:4921, V-A:SER:385:C:3401, V-A:SER:385:CA:3403, V-A:ILE:369:CD1:3235, V-A:TRP:381:CH2:3368, V-A:TRP:381:CZ2:3366, H-A:ASN:382:ND2:3377, V-A:VAL:384:C:3393, V-A:ASN:372:CB:3263, V-A:VAL:384:CG1:3398, V-A:LEU:373:CD2:3277, V-A:TRP:381:CZ3:3367"]

$$$$
3ca_Grossjean_2025
     RDKit          3D

 52 54  0  0  0  0  0  0  0  0999 V2000
  124.7410  127.5970   73.8600 C   0  0  0  0  0  0  0  0  0  0  0  0
  126.1900  128.0920   73.8710 C   0  0  0  0  0  0  0  0  0  0  0  0
  126.8840  127.5490   72.7540 O   0  0  0  0  0  0  0  0  0  0  0  0
  128.2410  127.5380   72.7100 C   0  0  0  0  0  0  0  0  0  0  0  0
  128.9560  127.6530   73.7100 O   0  0  0  0  0  0  0  0  0  0  0  0
  128.7880  127.3650   71.3210 C   0  0  0  0  0  0  0  0  0  0  0  0
  129.9590  128.0410   70.9580 C   0  0  0  0  0  0  0  0  0  0  0  0
  130.4900  127.9010   69.6790 C   0  0  0  0  0  0  0  0  0  0  0  0
  129.8590  127.0890   68.7360 C   0  0  0  0  0  0  0  0  0  0  0  0
  130.4800  127.0170   67.4740 N   0  0  0  0  0  0  0  0  0  0  0  0
  130.5060  126.0020   66.5830 C   0  0  0  0  0  0  0  0  0  0  0  0
  129.9430  124.9160   66.7230 O   0  0  0  0  0  0  0  0  0  0  0  0
  131.2940  126.2790   65.2990 C   0  0  0  0  0  0  0  0  0  0  0  0
  132.7610  125.2120   65.1120 S   0  0  0  0  0  0  0  0  0  0  0  0
  132.7810  124.4890   63.4770 C   0  0  0  0  0  0  0  0  0  0  0  0
  134.0000  124.4040   62.8860 N   0  0  0  0  0  0  0  0  0  0  0  0
  134.0930  123.8500   61.6580 C   0  0  0  0  0  0  0  0  0  0  0  0
  135.4900  123.7750   61.0740 C   0  0  0  0  0  0  0  0  0  0  0  0
  132.9830  123.3730   60.9650 C   0  0  0  0  0  0  0  0  0  0  0  0
  131.7120  123.4660   61.5450 C   0  0  0  0  0  0  0  0  0  0  0  0
  130.5490  122.9540   60.7580 C   0  0  0  0  0  0  0  0  0  0  0  0
  130.1080  123.6480   59.6240 C   0  0  0  0  0  0  0  0  0  0  0  0
  129.0190  123.1850   58.8900 C   0  0  0  0  0  0  0  0  0  0  0  0
  128.3630  122.0240   59.2910 C   0  0  0  0  0  0  0  0  0  0  0  0
  128.7850  121.3250   60.4200 C   0  0  0  0  0  0  0  0  0  0  0  0
  129.8730  121.7930   61.1520 C   0  0  0  0  0  0  0  0  0  0  0  0
  131.6020  124.0310   62.8410 C   0  0  0  0  0  0  0  0  0  0  0  0
  130.3040  124.1070   63.5200 C   0  0  0  0  0  0  0  0  0  0  0  0
  129.2790  124.1660   64.0550 N   0  0  0  0  0  0  0  0  0  0  0  0
  128.6890  126.4010   69.0940 C   0  0  0  0  0  0  0  0  0  0  0  0
  128.1610  126.5410   70.3740 C   0  0  0  0  0  0  0  0  0  0  0  0
  124.3870  127.4761   74.8944 H   0  0  0  0  0  0  0  0  0  0  0  0
  124.1072  128.3296   73.3388 H   0  0  0  0  0  0  0  0  0  0  0  0
  124.6879  126.6298   73.3388 H   0  0  0  0  0  0  0  0  0  0  0  0
  126.2029  129.1904   73.8124 H   0  0  0  0  0  0  0  0  0  0  0  0
  126.6812  127.7692   74.8008 H   0  0  0  0  0  0  0  0  0  0  0  0
  130.4639  128.6885   71.6900 H   0  0  0  0  0  0  0  0  0  0  0  0
  131.4136  128.4343   69.4098 H   0  0  0  0  0  0  0  0  0  0  0  0
  130.9290  127.8730   67.1850 H   0  0  0  0  0  0  0  0  0  0  0  0
  130.6293  126.1135   64.4383 H   0  0  0  0  0  0  0  0  0  0  0  0
  131.6504  127.3183   65.3520 H   0  0  0  0  0  0  0  0  0  0  0  0
  136.2268  123.7354   61.8898 H   0  0  0  0  0  0  0  0  0  0  0  0
  135.5803  122.8707   60.4542 H   0  0  0  0  0  0  0  0  0  0  0  0
  135.6766  124.6644   60.4542 H   0  0  0  0  0  0  0  0  0  0  0  0
  133.1042  122.9256   59.9674 H   0  0  0  0  0  0  0  0  0  0  0  0
  130.6262  124.5663   59.3107 H   0  0  0  0  0  0  0  0  0  0  0  0
  128.6790  123.7330   57.9989 H   0  0  0  0  0  0  0  0  0  0  0  0
  127.5039  121.6554   58.7112 H   0  0  0  0  0  0  0  0  0  0  0  0
  128.2617  120.4088   60.7312 H   0  0  0  0  0  0  0  0  0  0  0  0
  130.2041  121.2461   62.0471 H   0  0  0  0  0  0  0  0  0  0  0  0
  128.1887  125.7502   68.3617 H   0  0  0  0  0  0  0  0  0  0  0  0
  127.2426  126.0001   70.6462 H   0  0  0  0  0  0  0  0  0  0  0  0
  1  2  1  0
  2  3  1  0
  3  4  1  0
  4  5  2  0
  4  6  1  0
  6  7  2  0
  7  8  1  0
  8  9  2  0
  9 10  1  0
 10 11  1  0
 11 12  2  0
 11 13  1  0
 13 14  1  0
 14 15  1  0
 15 16  2  0
 16 17  1  0
 17 18  1  0
 17 19  2  0
 19 20  1  0
 20 21  1  0
 21 22  2  0
 22 23  1  0
 23 24  2  0
 24 25  1  0
 25 26  2  0
 20 27  2  0
 27 28  1  0
 28 29  3  0
  9 30  1  0
 30 31  2  0
 31  6  1  0
 27 15  1  0
 26 21  1  0
  1 32  1  0
  1 33  1  0
  1 34  1  0
  2 35  1  0
  2 36  1  0
  7 37  1  0
  8 38  1  0
 10 39  1  0
 13 40  1  0
 13 41  1  0
 18 42  1  0
 18 43  1  0
 18 44  1  0
 19 45  1  0
 22 46  1  0
 23 47  1  0
 24 48  1  0
 25 49  1  0
 26 50  1  0
 30 51  1  0
 31 52  1  0
M  END
>  <Binding energies>  (1) 
[-8.83]

>  <Ligand effiencies>  (1) 
[-0.2759375]

>  <Interactions>  (1) 
["V-B:PRO:540:C:9850, V-B:TYR:539:CE2:9845, V-A:HIS:456:CE1:4066, V-B:TYR:539:CG:9841, V-B:TYR:539:CZ:9846, V-A:GLY:453:C:4038, V-B:PRO:540:CA:9852, V-A:GLY:453:CA:4040, V-B:ALA:541:CB:9861, H-A:GLY:454:N:4046, V-B:TYR:539:C:9836, H-A:TYR:484:OH:4344, V-B:PRO:540:N:9853, V-B:TYR:539:CD2:9843, V-A:ASP:366:CG:3209, V-B:HIS:456:CD2:9036, V-B:LYS:547:CD:9918, H-A:LYS:547:NZ:4948, V-B:LYS:547:CE:9919, V-B:HIS:456:CB:9033, V-A:GLU:543:C:4899, V-B:HIS:456:CE1:9038, V-A:ILE:369:CB:3232, V-A:ILE:369:CG1:3234, H-A:GLU:543:OE1:4906, H-A:ARG:545:NE:4921, V-B:HIS:456:CG:9034, V-A:ASP:366:CA:3206, V-B:HIS:456:CA:9031"]

$$$$
3cb_Grossjean_2025
     RDKit          3D

 49 51  0  0  0  0  0  0  0  0999 V2000
  128.6980  129.5230   73.7820 C   0  0  0  0  0  0  0  0  0  0  0  0
  129.0180  128.2240   73.3050 O   0  0  0  0  0  0  0  0  0  0  0  0
  128.2080  127.5840   72.4230 C   0  0  0  0  0  0  0  0  0  0  0  0
  127.0780  127.1770   72.7090 O   0  0  0  0  0  0  0  0  0  0  0  0
  128.8250  127.4160   71.0640 C   0  0  0  0  0  0  0  0  0  0  0  0
  130.0680  127.9790   70.7360 C   0  0  0  0  0  0  0  0  0  0  0  0
  130.6120  127.8020   69.4680 C   0  0  0  0  0  0  0  0  0  0  0  0
  129.9290  127.0650   68.5000 C   0  0  0  0  0  0  0  0  0  0  0  0
  130.5740  126.9470   67.2530 N   0  0  0  0  0  0  0  0  0  0  0  0
  130.5890  125.9190   66.3770 C   0  0  0  0  0  0  0  0  0  0  0  0
  129.9860  124.8550   66.5290 O   0  0  0  0  0  0  0  0  0  0  0  0
  131.4240  126.1710   65.1120 C   0  0  0  0  0  0  0  0  0  0  0  0
  132.8260  125.0250   64.8750 S   0  0  0  0  0  0  0  0  0  0  0  0
  132.7080  124.3550   63.2290 C   0  0  0  0  0  0  0  0  0  0  0  0
  133.9090  124.2180   62.6160 N   0  0  0  0  0  0  0  0  0  0  0  0
  133.9420  123.7170   61.3610 C   0  0  0  0  0  0  0  0  0  0  0  0
  135.3200  123.5800   60.7410 C   0  0  0  0  0  0  0  0  0  0  0  0
  132.7920  123.3420   60.6720 C   0  0  0  0  0  0  0  0  0  0  0  0
  131.5390  123.4900   61.2810 C   0  0  0  0  0  0  0  0  0  0  0  0
  130.3330  123.0780   60.4980 C   0  0  0  0  0  0  0  0  0  0  0  0
  130.0170  123.7280   59.2980 C   0  0  0  0  0  0  0  0  0  0  0  0
  128.9030  123.3450   58.5560 C   0  0  0  0  0  0  0  0  0  0  0  0
  128.0990  122.3040   59.0110 C   0  0  0  0  0  0  0  0  0  0  0  0
  128.4020  121.6410   60.1970 C   0  0  0  0  0  0  0  0  0  0  0  0
  129.5180  122.0260   60.9350 C   0  0  0  0  0  0  0  0  0  0  0  0
  131.4850  124.0260   62.5930 C   0  0  0  0  0  0  0  0  0  0  0  0
  130.1970  124.2900   63.2420 C   0  0  0  0  0  0  0  0  0  0  0  0
  129.1810  124.4970   63.7530 N   0  0  0  0  0  0  0  0  0  0  0  0
  128.6880  126.4940   68.8210 C   0  0  0  0  0  0  0  0  0  0  0  0
  128.1440  126.6720   70.0900 C   0  0  0  0  0  0  0  0  0  0  0  0
  128.6987  129.5202   74.8820 H   0  0  0  0  0  0  0  0  0  0  0  0
  129.4458  130.2423   73.4167 H   0  0  0  0  0  0  0  0  0  0  0  0
  127.7017  129.8126   73.4167 H   0  0  0  0  0  0  0  0  0  0  0  0
  130.6167  128.5652   71.4879 H   0  0  0  0  0  0  0  0  0  0  0  0
  131.5887  128.2467   69.2265 H   0  0  0  0  0  0  0  0  0  0  0  0
  131.0790  127.7760   66.9710 H   0  0  0  0  0  0  0  0  0  0  0  0
  130.7590  126.0822   64.2403 H   0  0  0  0  0  0  0  0  0  0  0  0
  131.8613  127.1739   65.2258 H   0  0  0  0  0  0  0  0  0  0  0  0
  136.0747  123.5050   61.5377 H   0  0  0  0  0  0  0  0  0  0  0  0
  135.3533  122.6741   60.1179 H   0  0  0  0  0  0  0  0  0  0  0  0
  135.5310  124.4616   60.1179 H   0  0  0  0  0  0  0  0  0  0  0  0
  132.8667  122.9314   59.6542 H   0  0  0  0  0  0  0  0  0  0  0  0
  130.6551  124.5488   58.9386 H   0  0  0  0  0  0  0  0  0  0  0  0
  128.6598  123.8619   57.6160 H   0  0  0  0  0  0  0  0  0  0  0  0
  127.2162  122.0024   58.4282 H   0  0  0  0  0  0  0  0  0  0  0  0
  127.7633  120.8176   60.5491 H   0  0  0  0  0  0  0  0  0  0  0  0
  129.7618  121.4994   61.8695 H   0  0  0  0  0  0  0  0  0  0  0  0
  128.1439  125.9045   68.0683 H   0  0  0  0  0  0  0  0  0  0  0  0
  127.1688  126.2239   70.3313 H   0  0  0  0  0  0  0  0  0  0  0  0
  1  2  1  0
  2  3  1  0
  3  4  2  0
  3  5  1  0
  5  6  2  0
  6  7  1  0
  7  8  2  0
  8  9  1  0
  9 10  1  0
 10 11  2  0
 10 12  1  0
 12 13  1  0
 13 14  1  0
 14 15  2  0
 15 16  1  0
 16 17  1  0
 16 18  2  0
 18 19  1  0
 19 20  1  0
 20 21  2  0
 21 22  1  0
 22 23  2  0
 23 24  1  0
 24 25  2  0
 19 26  2  0
 26 27  1  0
 27 28  3  0
  8 29  1  0
 29 30  2  0
 30  5  1  0
 26 14  1  0
 25 20  1  0
  1 31  1  0
  1 32  1  0
  1 33  1  0
  6 34  1  0
  7 35  1  0
  9 36  1  0
 12 37  1  0
 12 38  1  0
 17 39  1  0
 17 40  1  0
 17 41  1  0
 18 42  1  0
 21 43  1  0
 22 44  1  0
 23 45  1  0
 24 46  1  0
 25 47  1  0
 29 48  1  0
 30 49  1  0
M  END
>  <Binding energies>  (1) 
[-8.42]

>  <Ligand effiencies>  (1) 
[-0.27161290322580645]

>  <Interactions>  (1) 
["V-B:PRO:540:C:9850, V-B:TYR:539:CE2:9845, V-A:HIS:456:CE1:4066, V-B:TYR:539:CZ:9846, V-A:GLY:453:C:4038, V-B:PRO:540:CA:9852, V-B:TYR:539:CE1:9844, V-A:GLY:453:CA:4040, V-B:ALA:541:CB:9861, H-A:GLY:454:N:4046, V-B:TYR:539:C:9836, H-A:TYR:484:OH:4344, V-B:PRO:540:N:9853, V-B:TYR:539:CD2:9843, V-A:ASP:366:CG:3209, V-B:HIS:456:CD2:9036, V-A:LYS:547:CE:4947, H-A:LYS:547:NZ:4948, V-A:GLU:543:C:4899, V-B:HIS:456:CE1:9038, V-A:ILE:369:CB:3232, V-A:ILE:369:CG1:3234, H-A:GLU:543:OE1:4906, V-A:HIS:456:CD2:4064, V-A:ASP:366:CA:3206"]

$$$$
3ce_Grossjean_2025
     RDKit          3D

 45 47  0  0  0  0  0  0  0  0999 V2000
  135.0030  124.9800   66.3290 C   0  0  0  0  0  0  0  0  0  0  0  0
  133.7880  125.1710   65.4420 C   0  0  0  0  0  0  0  0  0  0  0  0
  132.6060  125.7340   65.9320 C   0  0  0  0  0  0  0  0  0  0  0  0
  131.5320  125.8890   65.0560 C   0  0  0  0  0  0  0  0  0  0  0  0
  131.6620  125.4820   63.7260 C   0  0  0  0  0  0  0  0  0  0  0  0
  132.8700  124.9160   63.3040 C   0  0  0  0  0  0  0  0  0  0  0  0
  132.9490  124.5430   61.9510 N   0  0  0  0  0  0  0  0  0  0  0  0
  133.9410  123.8690   61.3270 C   0  0  0  0  0  0  0  0  0  0  0  0
  134.9660  123.4560   61.8720 O   0  0  0  0  0  0  0  0  0  0  0  0
  133.7310  123.6120   59.8350 C   0  0  0  0  0  0  0  0  0  0  0  0
  132.3930  124.6350   59.1520 S   0  0  0  0  0  0  0  0  0  0  0  0
  130.8860  123.7640   59.5150 C   0  0  0  0  0  0  0  0  0  0  0  0
  130.9160  123.0750   60.6820 N   0  0  0  0  0  0  0  0  0  0  0  0
  129.8100  122.3910   61.0570 C   0  0  0  0  0  0  0  0  0  0  0  0
  129.9070  121.6540   62.3790 C   0  0  0  0  0  0  0  0  0  0  0  0
  128.6510  122.3590   60.2860 C   0  0  0  0  0  0  0  0  0  0  0  0
  128.6100  123.0430   59.0640 C   0  0  0  0  0  0  0  0  0  0  0  0
  127.3540  122.9580   58.2610 C   0  0  0  0  0  0  0  0  0  0  0  0
  127.3560  122.3080   57.0200 C   0  0  0  0  0  0  0  0  0  0  0  0
  126.1910  122.2300   56.2620 C   0  0  0  0  0  0  0  0  0  0  0  0
  125.0170  122.8070   56.7390 C   0  0  0  0  0  0  0  0  0  0  0  0
  125.0010  123.4650   57.9660 C   0  0  0  0  0  0  0  0  0  0  0  0
  126.1680  123.5420   58.7220 C   0  0  0  0  0  0  0  0  0  0  0  0
  129.7570  123.7740   58.6620 C   0  0  0  0  0  0  0  0  0  0  0  0
  129.7680  124.5220   57.4010 C   0  0  0  0  0  0  0  0  0  0  0  0
  129.7750  125.1130   56.4070 N   0  0  0  0  0  0  0  0  0  0  0  0
  133.9280  124.7680   64.1540 N   0  0  0  0  0  0  0  0  0  0  0  0
  134.6975  125.0280   67.3846 H   0  0  0  0  0  0  0  0  0  0  0  0
  135.4569  123.9995   66.1229 H   0  0  0  0  0  0  0  0  0  0  0  0
  135.7359  125.7740   66.1229 H   0  0  0  0  0  0  0  0  0  0  0  0
  132.5250  126.0472   66.9833 H   0  0  0  0  0  0  0  0  0  0  0  0
  130.5882  126.3291   65.4102 H   0  0  0  0  0  0  0  0  0  0  0  0
  130.8268  125.6047   63.0207 H   0  0  0  0  0  0  0  0  0  0  0  0
  132.1190  124.7310   61.4090 H   0  0  0  0  0  0  0  0  0  0  0  0
  134.6638  123.8431   59.2997 H   0  0  0  0  0  0  0  0  0  0  0  0
  133.4513  122.5558   59.7074 H   0  0  0  0  0  0  0  0  0  0  0  0
  129.8125  122.3721   63.2069 H   0  0  0  0  0  0  0  0  0  0  0  0
  129.0990  120.9105   62.4445 H   0  0  0  0  0  0  0  0  0  0  0  0
  130.8799  121.1449   62.4445 H   0  0  0  0  0  0  0  0  0  0  0  0
  127.7710  121.7988   60.6350 H   0  0  0  0  0  0  0  0  0  0  0  0
  128.2848  121.8560   56.6418 H   0  0  0  0  0  0  0  0  0  0  0  0
  126.1979  121.7147   55.2902 H   0  0  0  0  0  0  0  0  0  0  0  0
  124.0953  122.7425   56.1421 H   0  0  0  0  0  0  0  0  0  0  0  0
  124.0713  123.9217   58.3363 H   0  0  0  0  0  0  0  0  0  0  0  0
  126.1579  124.0659   59.6892 H   0  0  0  0  0  0  0  0  0  0  0  0
  1  2  1  0
  2  3  2  0
  3  4  1  0
  4  5  2  0
  5  6  1  0
  6  7  1  0
  7  8  1  0
  8  9  2  0
  8 10  1  0
 10 11  1  0
 11 12  1  0
 12 13  2  0
 13 14  1  0
 14 15  1  0
 14 16  2  0
 16 17  1  0
 17 18  1  0
 18 19  2  0
 19 20  1  0
 20 21  2  0
 21 22  1  0
 22 23  2  0
 17 24  2  0
 24 25  1  0
 25 26  3  0
  6 27  2  0
 27  2  1  0
 24 12  1  0
 23 18  1  0
  1 28  1  0
  1 29  1  0
  1 30  1  0
  3 31  1  0
  4 32  1  0
  5 33  1  0
  7 34  1  0
 10 35  1  0
 10 36  1  0
 15 37  1  0
 15 38  1  0
 15 39  1  0
 16 40  1  0
 19 41  1  0
 20 42  1  0
 21 43  1  0
 22 44  1  0
 23 45  1  0
M  END
>  <Binding energies>  (1) 
[-8.19]

>  <Ligand effiencies>  (1) 
[-0.2925]

>  <Interactions>  (1) 
["V-B:TYR:539:CE2:9845, V-A:GLY:454:C:4043, V-A:HIS:456:CE1:4066, V-B:TYR:539:CD1:9842, V-B:TYR:539:CZ:9846, V-A:GLY:453:C:4038, V-B:PRO:540:CA:9852, V-A:ARG:545:CG:4919, V-A:ARG:545:CZ:4923, V-B:TYR:539:CE1:9844, V-A:ARG:545:CD:4920, V-A:GLY:453:CA:4040, V-B:ALA:541:CB:9861, H-A:GLY:454:N:4046, V-B:TYR:539:C:9836, V-A:GLY:454:CA:4045, V-B:PRO:540:N:9853, V-B:PRO:540:CB:9854, V-B:TYR:539:CD2:9843, V-A:ASP:366:CG:3209, V-A:ILE:369:CB:3232, H-A:ARG:545:NH1:4924, V-A:LEU:475:CD1:4254, H-A:ASP:366:OD2:3211, V-A:ILE:369:CG2:3233, V-B:PRO:540:CD:9856, H-A:ASP:366:OD1:3210, H-B:TYR:539:OH:9847, V-A:ASP:366:CB:3208, V-B:LEU:363:CD1:8157, V-B:ILE:538:CB:9831, V-A:ASP:366:CA:3206, V-B:ILE:538:CA:9829, V-B:PRO:540:CG:9855, V-A:ILE:455:C:4048, V-B:ILE:538:CG2:9832"]

$$$$
3ch_Grossjean_2025
     RDKit          3D

 55 57  0  0  0  0  0  0  0  0999 V2000
  129.4850  130.1210   72.7580 C   0  0  0  0  0  0  0  0  0  0  0  0
  129.4690  128.7530   73.1510 O   0  0  0  0  0  0  0  0  0  0  0  0
  129.3600  127.7670   72.1870 C   0  0  0  0  0  0  0  0  0  0  0  0
  129.4020  128.0120   70.8050 C   0  0  0  0  0  0  0  0  0  0  0  0
  129.2960  126.9590   69.8840 C   0  0  0  0  0  0  0  0  0  0  0  0
  129.3320  127.1050   68.4840 N   0  0  0  0  0  0  0  0  0  0  0  0
  128.3670  126.8730   67.5670 C   0  0  0  0  0  0  0  0  0  0  0  0
  127.2260  126.4840   67.8140 O   0  0  0  0  0  0  0  0  0  0  0  0
  128.7520  127.1670   66.1180 C   0  0  0  0  0  0  0  0  0  0  0  0
  130.5050  126.8220   65.7880 S   0  0  0  0  0  0  0  0  0  0  0  0
  130.5540  125.9440   64.2420 C   0  0  0  0  0  0  0  0  0  0  0  0
  129.4780  126.1690   63.4470 N   0  0  0  0  0  0  0  0  0  0  0  0
  129.4150  125.5420   62.2510 C   0  0  0  0  0  0  0  0  0  0  0  0
  128.1830  125.8340   61.4160 C   0  0  0  0  0  0  0  0  0  0  0  0
  130.4090  124.6740   61.8050 C   0  0  0  0  0  0  0  0  0  0  0  0
  131.5330  124.4340   62.6090 C   0  0  0  0  0  0  0  0  0  0  0  0
  132.5690  123.4880   62.0940 C   0  0  0  0  0  0  0  0  0  0  0  0
  132.2780  122.1240   61.9740 C   0  0  0  0  0  0  0  0  0  0  0  0
  133.2410  121.2350   61.5030 C   0  0  0  0  0  0  0  0  0  0  0  0
  134.5040  121.7080   61.1530 C   0  0  0  0  0  0  0  0  0  0  0  0
  134.8110  123.0600   61.2740 C   0  0  0  0  0  0  0  0  0  0  0  0
  133.8450  123.9460   61.7460 C   0  0  0  0  0  0  0  0  0  0  0  0
  131.6220  125.1000   63.8580 C   0  0  0  0  0  0  0  0  0  0  0  0
  132.8170  124.9600   64.6960 C   0  0  0  0  0  0  0  0  0  0  0  0
  133.7590  124.8490   65.3590 N   0  0  0  0  0  0  0  0  0  0  0  0
  129.1250  125.6570   70.3580 C   0  0  0  0  0  0  0  0  0  0  0  0
  129.0780  125.3870   71.7340 C   0  0  0  0  0  0  0  0  0  0  0  0
  128.9200  124.1200   72.2690 O   0  0  0  0  0  0  0  0  0  0  0  0
  129.5870  123.0170   71.6650 C   0  0  0  0  0  0  0  0  0  0  0  0
  129.1940  126.4510   72.6380 C   0  0  0  0  0  0  0  0  0  0  0  0
  129.1670  126.1980   73.9890 O   0  0  0  0  0  0  0  0  0  0  0  0
  130.3160  125.5170   74.4740 C   0  0  0  0  0  0  0  0  0  0  0  0
  129.4925  130.7597   73.6535 H   0  0  0  0  0  0  0  0  0  0  0  0
  130.3855  130.3197   72.1584 H   0  0  0  0  0  0  0  0  0  0  0  0
  128.5894  130.3407   72.1584 H   0  0  0  0  0  0  0  0  0  0  0  0
  129.5195  129.0429   70.4398 H   0  0  0  0  0  0  0  0  0  0  0  0
  130.2010  127.4770   68.1300 H   0  0  0  0  0  0  0  0  0  0  0  0
  128.1371  126.5412   65.4545 H   0  0  0  0  0  0  0  0  0  0  0  0
  128.5788  128.2376   65.9339 H   0  0  0  0  0  0  0  0  0  0  0  0
  127.3296  126.0363   62.0799 H   0  0  0  0  0  0  0  0  0  0  0  0
  128.3701  126.7127   60.7812 H   0  0  0  0  0  0  0  0  0  0  0  0
  127.9558  124.9648   60.7812 H   0  0  0  0  0  0  0  0  0  0  0  0
  130.3129  124.1793   60.8272 H   0  0  0  0  0  0  0  0  0  0  0  0
  131.2815  121.7516   62.2538 H   0  0  0  0  0  0  0  0  0  0  0  0
  133.0057  120.1647   61.4078 H   0  0  0  0  0  0  0  0  0  0  0  0
  135.2645  121.0072   60.7781 H   0  0  0  0  0  0  0  0  0  0  0  0
  135.8107  123.4270   60.9985 H   0  0  0  0  0  0  0  0  0  0  0  0
  134.0871  125.0144   61.8460 H   0  0  0  0  0  0  0  0  0  0  0  0
  129.0255  124.8290   69.6407 H   0  0  0  0  0  0  0  0  0  0  0  0
  129.9865  122.3563   72.4485 H   0  0  0  0  0  0  0  0  0  0  0  0
  128.8764  122.4564   71.0399 H   0  0  0  0  0  0  0  0  0  0  0  0
  130.4135  123.3859   71.0399 H   0  0  0  0  0  0  0  0  0  0  0  0
  130.3080  125.5218   75.5740 H   0  0  0  0  0  0  0  0  0  0  0  0
  130.3068  124.4784   74.1117 H   0  0  0  0  0  0  0  0  0  0  0  0
  131.2227  126.0237   74.1117 H   0  0  0  0  0  0  0  0  0  0  0  0
  1  2  1  0
  2  3  1  0
  3  4  2  0
  4  5  1  0
  5  6  1  0
  6  7  1  0
  7  8  2  0
  7  9  1  0
  9 10  1  0
 10 11  1  0
 11 12  2  0
 12 13  1  0
 13 14  1  0
 13 15  2  0
 15 16  1  0
 16 17  1  0
 17 18  2  0
 18 19  1  0
 19 20  2  0
 20 21  1  0
 21 22  2  0
 16 23  2  0
 23 24  1  0
 24 25  3  0
  5 26  2  0
 26 27  1  0
 27 28  1  0
 28 29  1  0
 27 30  2  0
 30 31  1  0
 31 32  1  0
 30  3  1  0
 23 11  1  0
 22 17  1  0
  1 33  1  0
  1 34  1  0
  1 35  1  0
  4 36  1  0
  6 37  1  0
  9 38  1  0
  9 39  1  0
 14 40  1  0
 14 41  1  0
 14 42  1  0
 15 43  1  0
 18 44  1  0
 19 45  1  0
 20 46  1  0
 21 47  1  0
 22 48  1  0
 26 49  1  0
 29 50  1  0
 29 51  1  0
 29 52  1  0
 32 53  1  0
 32 54  1  0
 32 55  1  0
M  END
>  <Binding energies>  (1) 
[-7.66]

>  <Ligand effiencies>  (1) 
[-0.23212121212121212]

>  <Interactions>  (1) 
["V-B:TYR:539:CE2:9845, V-A:HIS:456:CE1:4066, V-A:GLY:453:C:4038, V-A:ARG:545:CZ:4923, V-A:GLY:453:CA:4040, H-A:GLY:454:N:4046, H-A:TYR:484:OH:4344, V-A:GLY:454:CA:4045, V-A:ASP:366:CG:3209, V-B:HIS:456:CD2:9036, V-A:LYS:547:CE:4947, H-A:LYS:547:NZ:4948, V-B:LYS:547:CE:9919, V-B:GLU:543:CB:9875, V-B:GLU:543:CD:9877, V-B:HIS:456:CE1:9038, V-A:ILE:369:CB:3232, V-A:LEU:475:CD1:4254, V-A:ILE:369:CG2:3233, V-A:ILE:369:CG1:3234, V-A:HIS:456:CD2:4064, V-B:GLU:543:C:9871, H-A:ARG:545:NE:4921, V-A:TYR:484:CG:4338, V-A:TYR:484:CD2:4340, H-B:LYS:547:NZ:9920, V-A:TYR:484:CD1:4339, H-A:HIS:456:NE2:4067, V-A:ILE:369:CD1:3235, V-A:GLY:544:CA:4911"]

$$$$
3ci_Grossjean_2025
     RDKit          3D

 39 41  0  0  0  0  0  0  0  0999 V2000
  128.3700  126.7000   62.4960 C   0  0  0  0  0  0  0  0  0  0  0  0
  129.6630  126.2020   63.1150 C   0  0  0  0  0  0  0  0  0  0  0  0
  130.4800  125.2840   62.4630 C   0  0  0  0  0  0  0  0  0  0  0  0
  131.6730  124.8660   63.0690 C   0  0  0  0  0  0  0  0  0  0  0  0
  132.5260  123.8910   62.3250 C   0  0  0  0  0  0  0  0  0  0  0  0
  132.8270  122.6380   62.8740 C   0  0  0  0  0  0  0  0  0  0  0  0
  133.6300  121.7360   62.1800 C   0  0  0  0  0  0  0  0  0  0  0  0
  134.1420  122.0870   60.9350 C   0  0  0  0  0  0  0  0  0  0  0  0
  133.8600  123.3330   60.3790 C   0  0  0  0  0  0  0  0  0  0  0  0
  133.0570  124.2320   61.0750 C   0  0  0  0  0  0  0  0  0  0  0  0
  132.0010  125.3920   64.3450 C   0  0  0  0  0  0  0  0  0  0  0  0
  133.2150  124.9590   65.0460 C   0  0  0  0  0  0  0  0  0  0  0  0
  134.1730  124.6170   65.5980 N   0  0  0  0  0  0  0  0  0  0  0  0
  131.1160  126.3250   64.9350 C   0  0  0  0  0  0  0  0  0  0  0  0
  131.4410  127.0680   66.5290 S   0  0  0  0  0  0  0  0  0  0  0  0
  129.8880  127.7210   67.2240 C   0  0  0  0  0  0  0  0  0  0  0  0
  129.5270  127.1120   68.5840 C   0  0  0  0  0  0  0  0  0  0  0  0
  129.1830  125.9300   68.6410 O   0  0  0  0  0  0  0  0  0  0  0  0
  129.6010  127.9510   69.6410 N   0  0  0  0  0  0  0  0  0  0  0  0
  129.3560  127.6480   70.9730 C   0  0  0  0  0  0  0  0  0  0  0  0
  128.2500  126.9100   71.3940 C   0  0  0  0  0  0  0  0  0  0  0  0
  128.3700  126.8350   72.7640 C   0  0  0  0  0  0  0  0  0  0  0  0
  129.4910  127.4930   73.1460 O   0  0  0  0  0  0  0  0  0  0  0  0
  130.1060  128.0050   72.0030 N   0  0  0  0  0  0  0  0  0  0  0  0
  129.9650  126.7140   64.3290 N   0  0  0  0  0  0  0  0  0  0  0  0
  127.6628  126.9724   63.2933 H   0  0  0  0  0  0  0  0  0  0  0  0
  128.5778  127.5824   61.8730 H   0  0  0  0  0  0  0  0  0  0  0  0
  127.9322  125.9062   61.8730 H   0  0  0  0  0  0  0  0  0  0  0  0
  130.1916  124.8885   61.4779 H   0  0  0  0  0  0  0  0  0  0  0  0
  132.4260  122.3642   63.8610 H   0  0  0  0  0  0  0  0  0  0  0  0
  133.8581  120.7513   62.6140 H   0  0  0  0  0  0  0  0  0  0  0  0
  134.7747  121.3749   60.3850 H   0  0  0  0  0  0  0  0  0  0  0  0
  134.2698  123.6049   59.3951 H   0  0  0  0  0  0  0  0  0  0  0  0
  132.8378  125.2181   60.6396 H   0  0  0  0  0  0  0  0  0  0  0  0
  129.9906  128.8095   67.3454 H   0  0  0  0  0  0  0  0  0  0  0  0
  129.0817  127.4553   66.5245 H   0  0  0  0  0  0  0  0  0  0  0  0
  129.8900  128.9000   69.4580 H   0  0  0  0  0  0  0  0  0  0  0  0
  127.4542  126.4808   70.7675 H   0  0  0  0  0  0  0  0  0  0  0  0
  127.6686  126.3232   73.4393 H   0  0  0  0  0  0  0  0  0  0  0  0
  1  2  1  0
  2  3  2  0
  3  4  1  0
  4  5  1  0
  5  6  2  0
  6  7  1  0
  7  8  2  0
  8  9  1  0
  9 10  2  0
  4 11  2  0
 11 12  1  0
 12 13  3  0
 11 14  1  0
 14 15  1  0
 15 16  1  0
 16 17  1  0
 17 18  2  0
 17 19  1  0
 19 20  1  0
 20 21  1  0
 21 22  2  0
 22 23  1  0
 23 24  1  0
 14 25  2  0
 25  2  1  0
 10  5  1  0
 24 20  2  0
  1 26  1  0
  1 27  1  0
  1 28  1  0
  3 29  1  0
  6 30  1  0
  7 31  1  0
  8 32  1  0
  9 33  1  0
 10 34  1  0
 16 35  1  0
 16 36  1  0
 19 37  1  0
 21 38  1  0
 22 39  1  0
M  END
>  <Binding energies>  (1) 
[-7.92]

>  <Ligand effiencies>  (1) 
[-0.3046153846153846]

>  <Interactions>  (1) 
["V-B:TYR:539:CE2:9845, V-A:HIS:456:CE1:4066, V-A:ARG:545:CZ:4923, H-A:GLY:454:N:4046, H-A:TYR:484:OH:4344, V-A:GLY:454:CA:4045, V-A:ASP:366:CG:3209, V-B:HIS:456:CD2:9036, V-A:GLU:543:CB:4903, H-A:LYS:547:NZ:4948, V-B:LYS:547:CE:9919, V-B:GLU:543:CD:9877, V-B:HIS:456:CE1:9038, V-A:GLU:543:CD:4905, V-A:ILE:369:CB:3232, V-A:LEU:475:CD1:4254, V-A:ILE:369:CG2:3233, V-A:ILE:369:CG1:3234, H-A:GLU:543:O:4900, H-B:HIS:456:NE2:9039"]

$$$$
3cj_Grossjean_2025
     RDKit          3D

 39 41  0  0  0  0  0  0  0  0999 V2000
  129.9160  120.4450   62.1510 C   0  0  0  0  0  0  0  0  0  0  0  0
  129.8550  121.5410   61.1040 C   0  0  0  0  0  0  0  0  0  0  0  0
  128.7860  121.6410   60.2160 C   0  0  0  0  0  0  0  0  0  0  0  0
  128.7590  122.6840   59.2800 C   0  0  0  0  0  0  0  0  0  0  0  0
  127.5640  122.7910   58.3930 C   0  0  0  0  0  0  0  0  0  0  0  0
  126.3910  123.4020   58.8510 C   0  0  0  0  0  0  0  0  0  0  0  0
  125.2720  123.4900   58.0260 C   0  0  0  0  0  0  0  0  0  0  0  0
  125.3220  122.9590   56.7410 C   0  0  0  0  0  0  0  0  0  0  0  0
  126.4780  122.3400   56.2740 C   0  0  0  0  0  0  0  0  0  0  0  0
  127.5960  122.2540   57.1000 C   0  0  0  0  0  0  0  0  0  0  0  0
  129.8490  123.5890   59.2480 C   0  0  0  0  0  0  0  0  0  0  0  0
  129.8930  124.6830   58.2720 C   0  0  0  0  0  0  0  0  0  0  0  0
  129.9260  125.5470   57.5020 N   0  0  0  0  0  0  0  0  0  0  0  0
  130.8880  123.4140   60.1880 C   0  0  0  0  0  0  0  0  0  0  0  0
  132.2460  124.5550   60.3450 S   0  0  0  0  0  0  0  0  0  0  0  0
  133.3570  123.7940   61.5700 C   0  0  0  0  0  0  0  0  0  0  0  0
  133.0410  124.2600   62.9950 C   0  0  0  0  0  0  0  0  0  0  0  0
  133.9560  124.6450   63.7250 O   0  0  0  0  0  0  0  0  0  0  0  0
  131.7330  124.2430   63.3320 N   0  0  0  0  0  0  0  0  0  0  0  0
  131.1740  124.7350   64.4990 C   0  0  0  0  0  0  0  0  0  0  0  0
  131.4600  125.8580   65.1220 N   0  0  0  0  0  0  0  0  0  0  0  0
  130.7070  126.0230   66.1910 C   0  0  0  0  0  0  0  0  0  0  0  0
  129.7840  125.0170   66.4570 C   0  0  0  0  0  0  0  0  0  0  0  0
  129.9170  123.7900   65.2320 S   0  0  0  0  0  0  0  0  0  0  0  0
  130.8860  122.4150   61.1060 N   0  0  0  0  0  0  0  0  0  0  0  0
  129.8910  120.8948   63.1545 H   0  0  0  0  0  0  0  0  0  0  0  0
  129.0539  119.7728   62.0288 H   0  0  0  0  0  0  0  0  0  0  0  0
  130.8474  119.8726   62.0288 H   0  0  0  0  0  0  0  0  0  0  0  0
  127.9683  120.9060   60.2493 H   0  0  0  0  0  0  0  0  0  0  0  0
  126.3525  123.8156   59.8696 H   0  0  0  0  0  0  0  0  0  0  0  0
  124.3543  123.9764   58.3883 H   0  0  0  0  0  0  0  0  0  0  0  0
  124.4396  123.0290   56.0879 H   0  0  0  0  0  0  0  0  0  0  0  0
  126.5083  121.9208   55.2575 H   0  0  0  0  0  0  0  0  0  0  0  0
  128.5093  121.7615   56.7348 H   0  0  0  0  0  0  0  0  0  0  0  0
  133.2456  122.7008   61.5204 H   0  0  0  0  0  0  0  0  0  0  0  0
  134.3868  124.0988   61.3321 H   0  0  0  0  0  0  0  0  0  0  0  0
  131.0790  123.9190   62.6340 H   0  0  0  0  0  0  0  0  0  0  0  0
  130.8032  126.9078   66.8374 H   0  0  0  0  0  0  0  0  0  0  0  0
  129.0834  125.0003   67.3049 H   0  0  0  0  0  0  0  0  0  0  0  0
  1  2  1  0
  2  3  2  0
  3  4  1  0
  4  5  1  0
  5  6  2  0
  6  7  1  0
  7  8  2  0
  8  9  1  0
  9 10  2  0
  4 11  2  0
 11 12  1  0
 12 13  3  0
 11 14  1  0
 14 15  1  0
 15 16  1  0
 16 17  1  0
 17 18  2  0
 17 19  1  0
 19 20  1  0
 20 21  2  0
 21 22  1  0
 22 23  2  0
 23 24  1  0
 14 25  2  0
 25  2  1  0
 10  5  1  0
 24 20  1  0
  1 26  1  0
  1 27  1  0
  1 28  1  0
  3 29  1  0
  6 30  1  0
  7 31  1  0
  8 32  1  0
  9 33  1  0
 10 34  1  0
 16 35  1  0
 16 36  1  0
 19 37  1  0
 22 38  1  0
 23 39  1  0
M  END
>  <Binding energies>  (1) 
[-7.29]

>  <Ligand effiencies>  (1) 
[-0.2803846153846154]

>  <Interactions>  (1) 
["V-B:TYR:539:CE2:9845, V-A:HIS:456:CE1:4066, V-B:TYR:539:CG:9841, V-B:TYR:539:CD1:9842, V-B:TYR:539:CZ:9846, V-B:PRO:540:CA:9852, V-B:TYR:539:CE1:9844, V-B:ALA:541:CB:9861, H-A:GLY:454:N:4046, V-B:TYR:539:C:9836, V-B:PRO:540:N:9853, V-B:PRO:540:CB:9854, V-B:TYR:539:CD2:9843, V-A:ASP:366:CG:3209, V-A:TYR:484:CE1:4341, V-B:GLU:543:CB:9875, V-A:TYR:484:CZ:4343, V-B:GLU:543:CG:9876, H-A:ARG:545:NH1:4924, V-A:LEU:475:CD1:4254, V-B:PRO:540:CD:9856, H-B:TYR:539:OH:9847, V-B:LEU:363:CD1:8157, V-B:ILE:538:CB:9831, V-B:ILE:538:CA:9829, V-B:ILE:538:CG2:9832"]

$$$$
3ck_Grossjean_2025
     RDKit          3D

 57 58  0  0  0  0  0  0  0  0999 V2000
  127.5360  122.4540   57.6170 C   0  0  0  0  0  0  0  0  0  0  0  0
  126.8900  121.9060   56.4790 O   0  0  0  0  0  0  0  0  0  0  0  0
  125.5650  122.3840   56.2960 C   0  0  0  0  0  0  0  0  0  0  0  0
  125.3600  123.6590   57.1240 C   0  0  0  0  0  0  0  0  0  0  0  0
  124.2370  123.4890   57.9790 O   0  0  0  0  0  0  0  0  0  0  0  0
  124.0150  124.5790   58.8640 C   0  0  0  0  0  0  0  0  0  0  0  0
  124.5880  124.2290   60.2430 C   0  0  0  0  0  0  0  0  0  0  0  0
  125.3200  125.3480   60.7200 O   0  0  0  0  0  0  0  0  0  0  0  0
  126.0440  126.0550   59.7240 C   0  0  0  0  0  0  0  0  0  0  0  0
  126.9380  127.1170   60.3920 C   0  0  0  0  0  0  0  0  0  0  0  0
  126.5550  127.4260   61.7730 N   0  0  0  0  0  0  0  0  0  0  0  0
  126.7400  128.6060   62.3930 C   0  0  0  0  0  0  0  0  0  0  0  0
  127.2410  129.5870   61.8420 O   0  0  0  0  0  0  0  0  0  0  0  0
  126.2750  128.6630   63.8570 C   0  0  0  0  0  0  0  0  0  0  0  0
  127.5290  129.2390   65.0540 S   0  0  0  0  0  0  0  0  0  0  0  0
  128.2830  127.8220   65.8390 C   0  0  0  0  0  0  0  0  0  0  0  0
  127.9860  127.6520   67.1520 N   0  0  0  0  0  0  0  0  0  0  0  0
  128.5250  126.6020   67.8100 C   0  0  0  0  0  0  0  0  0  0  0  0
  128.1500  126.4780   69.2740 C   0  0  0  0  0  0  0  0  0  0  0  0
  129.3770  125.6870   67.1950 C   0  0  0  0  0  0  0  0  0  0  0  0
  129.7030  125.8470   65.8410 C   0  0  0  0  0  0  0  0  0  0  0  0
  130.6380  124.8560   65.2290 C   0  0  0  0  0  0  0  0  0  0  0  0
  130.1720  123.5910   64.8500 C   0  0  0  0  0  0  0  0  0  0  0  0
  131.0410  122.6580   64.2880 C   0  0  0  0  0  0  0  0  0  0  0  0
  132.3810  122.9860   64.1090 C   0  0  0  0  0  0  0  0  0  0  0  0
  132.8620  124.2370   64.4890 C   0  0  0  0  0  0  0  0  0  0  0  0
  131.9910  125.1670   65.0500 C   0  0  0  0  0  0  0  0  0  0  0  0
  129.1330  126.9380   65.1350 C   0  0  0  0  0  0  0  0  0  0  0  0
  129.4060  127.1300   63.7060 C   0  0  0  0  0  0  0  0  0  0  0  0
  129.6210  127.2820   62.5790 N   0  0  0  0  0  0  0  0  0  0  0  0
  127.0686  122.0575   58.5304 H   0  0  0  0  0  0  0  0  0  0  0  0
  128.6012  122.1798   57.6015 H   0  0  0  0  0  0  0  0  0  0  0  0
  127.4392  123.5496   57.6015 H   0  0  0  0  0  0  0  0  0  0  0  0
  125.4002  122.6080   55.2317 H   0  0  0  0  0  0  0  0  0  0  0  0
  124.8502  121.6154   56.6251 H   0  0  0  0  0  0  0  0  0  0  0  0
  126.2574  123.8516   57.7302 H   0  0  0  0  0  0  0  0  0  0  0  0
  125.1847  124.5111   56.4508 H   0  0  0  0  0  0  0  0  0  0  0  0
  124.5152  125.4779   58.4744 H   0  0  0  0  0  0  0  0  0  0  0  0
  122.9358  124.7740   58.9492 H   0  0  0  0  0  0  0  0  0  0  0  0
  123.7678  123.9975   60.9385 H   0  0  0  0  0  0  0  0  0  0  0  0
  125.2459  123.3506   60.1676 H   0  0  0  0  0  0  0  0  0  0  0  0
  126.6720  125.3508   59.1586 H   0  0  0  0  0  0  0  0  0  0  0  0
  125.3380  126.5490   59.0403 H   0  0  0  0  0  0  0  0  0  0  0  0
  127.9741  126.7476   60.3934 H   0  0  0  0  0  0  0  0  0  0  0  0
  126.8237  128.0444   59.8116 H   0  0  0  0  0  0  0  0  0  0  0  0
  126.1220  126.6760   62.2910 H   0  0  0  0  0  0  0  0  0  0  0  0
  125.4134  129.3445   63.9134 H   0  0  0  0  0  0  0  0  0  0  0  0
  126.0376  127.6271   64.1408 H   0  0  0  0  0  0  0  0  0  0  0  0
  129.0100  126.7624   69.8981 H   0  0  0  0  0  0  0  0  0  0  0  0
  127.3020  127.1436   69.4929 H   0  0  0  0  0  0  0  0  0  0  0  0
  127.8660  125.4381   69.4929 H   0  0  0  0  0  0  0  0  0  0  0  0
  129.7912  124.8445   67.7682 H   0  0  0  0  0  0  0  0  0  0  0  0
  129.1130  123.3322   64.9969 H   0  0  0  0  0  0  0  0  0  0  0  0
  130.6694  121.6673   63.9874 H   0  0  0  0  0  0  0  0  0  0  0  0
  133.0671  122.2508   63.6633 H   0  0  0  0  0  0  0  0  0  0  0  0
  133.9234  124.4884   64.3467 H   0  0  0  0  0  0  0  0  0  0  0  0
  132.3690  126.1540   65.3550 H   0  0  0  0  0  0  0  0  0  0  0  0
  1  2  1  0
  2  3  1  0
  3  4  1  0
  4  5  1  0
  5  6  1  0
  6  7  1  0
  7  8  1  0
  8  9  1  0
  9 10  1  0
 10 11  1  0
 11 12  1  0
 12 13  2  0
 12 14  1  0
 14 15  1  0
 15 16  1  0
 16 17  2  0
 17 18  1  0
 18 19  1  0
 18 20  2  0
 20 21  1  0
 21 22  1  0
 22 23  2  0
 23 24  1  0
 24 25  2  0
 25 26  1  0
 26 27  2  0
 21 28  2  0
 28 29  1  0
 29 30  3  0
 28 16  1  0
 27 22  1  0
  1 31  1  0
  1 32  1  0
  1 33  1  0
  3 34  1  0
  3 35  1  0
  4 36  1  0
  4 37  1  0
  6 38  1  0
  6 39  1  0
  7 40  1  0
  7 41  1  0
  9 42  1  0
  9 43  1  0
 10 44  1  0
 10 45  1  0
 11 46  1  0
 14 47  1  0
 14 48  1  0
 19 49  1  0
 19 50  1  0
 19 51  1  0
 20 52  1  0
 23 53  1  0
 24 54  1  0
 25 55  1  0
 26 56  1  0
 27 57  1  0
M  END
>  <Binding energies>  (1) 
[-6.7]

>  <Ligand effiencies>  (1) 
[-0.2161290322580645]

>  <Interactions>  (1) 
["V-A:HIS:456:CE1:4066, V-B:PRO:540:CA:9852, V-B:TYR:539:C:9836, V-A:GLY:454:CA:4045, V-B:PRO:540:N:9853, V-B:PRO:540:CB:9854, H-B:GLU:543:OE2:9879, V-A:TYR:484:CE1:4341, V-B:GLU:543:CB:9875, V-B:GLU:543:CD:9877, V-B:HIS:456:CE1:9038, V-A:TYR:484:CZ:4343, V-B:GLU:543:CG:9876, V-A:GLU:543:CD:4905, V-B:LEU:363:CA:8153, V-A:LEU:475:CD1:4254, V-B:ARG:545:CZ:9895, H-B:TYR:539:N:9839, V-B:PRO:540:CD:9856, V-A:LEU:475:CD2:4255, H-B:ARG:545:NH2:9897, V-B:GLU:543:C:9871, H-B:ASP:366:OD1:8182, H-B:GLU:543:OE1:9878, V-B:LEU:363:CD1:8157, V-B:ASP:366:CG:8181, V-B:ILE:538:CB:9831, V-B:ILE:538:CG2:9832"]

$$$$
4aa_Grossjean_2025
     RDKit          3D

 45 47  0  0  0  0  0  0  0  0999 V2000
  124.6160  127.6170   73.9220 C   0  0  0  0  0  0  0  0  0  0  0  0
  126.0980  128.0020   73.9870 C   0  0  0  0  0  0  0  0  0  0  0  0
  126.7170  127.7080   72.7420 O   0  0  0  0  0  0  0  0  0  0  0  0
  128.0690  127.7360   72.6080 C   0  0  0  0  0  0  0  0  0  0  0  0
  128.8350  128.0930   73.5080 O   0  0  0  0  0  0  0  0  0  0  0  0
  128.5390  127.2950   71.2520 C   0  0  0  0  0  0  0  0  0  0  0  0
  129.7750  127.7510   70.7750 C   0  0  0  0  0  0  0  0  0  0  0  0
  130.2360  127.3640   69.5200 C   0  0  0  0  0  0  0  0  0  0  0  0
  129.4780  126.5070   68.7210 C   0  0  0  0  0  0  0  0  0  0  0  0
  130.0350  126.1860   67.4680 N   0  0  0  0  0  0  0  0  0  0  0  0
  129.8980  126.8000   66.2680 C   0  0  0  0  0  0  0  0  0  0  0  0
  129.1770  127.7790   66.0700 O   0  0  0  0  0  0  0  0  0  0  0  0
  130.6590  126.2030   65.1690 C   0  0  0  0  0  0  0  0  0  0  0  0
  132.2140  125.4260   65.4830 S   0  0  0  0  0  0  0  0  0  0  0  0
  132.4300  125.0690   63.7840 C   0  0  0  0  0  0  0  0  0  0  0  0
  133.5100  124.4310   63.3290 N   0  0  0  0  0  0  0  0  0  0  0  0
  133.5560  124.2200   61.9910 C   0  0  0  0  0  0  0  0  0  0  0  0
  134.7950  123.4980   61.4930 C   0  0  0  0  0  0  0  0  0  0  0  0
  132.5570  124.6240   61.1080 C   0  0  0  0  0  0  0  0  0  0  0  0
  131.4250  125.2910   61.5890 C   0  0  0  0  0  0  0  0  0  0  0  0
  130.3610  125.7110   60.5860 C   0  0  0  0  0  0  0  0  0  0  0  0
  131.3420  125.5340   62.9860 C   0  0  0  0  0  0  0  0  0  0  0  0
  130.3480  126.1810   63.8010 C   0  0  0  0  0  0  0  0  0  0  0  0
  129.2040  126.7200   63.2680 N   0  0  0  0  0  0  0  0  0  0  0  0
  128.2380  126.0490   69.1870 C   0  0  0  0  0  0  0  0  0  0  0  0
  127.7750  126.4400   70.4420 C   0  0  0  0  0  0  0  0  0  0  0  0
  124.2189  127.5138   74.9426 H   0  0  0  0  0  0  0  0  0  0  0  0
  124.0569  128.3997   73.3884 H   0  0  0  0  0  0  0  0  0  0  0  0
  124.5085  126.6611   73.3884 H   0  0  0  0  0  0  0  0  0  0  0  0
  126.1888  129.0779   74.1970 H   0  0  0  0  0  0  0  0  0  0  0  0
  126.5915  127.4303   74.7868 H   0  0  0  0  0  0  0  0  0  0  0  0
  130.3863  128.4207   71.3978 H   0  0  0  0  0  0  0  0  0  0  0  0
  131.2047  127.7363   69.1554 H   0  0  0  0  0  0  0  0  0  0  0  0
  130.6160  125.3600   67.4740 H   0  0  0  0  0  0  0  0  0  0  0  0
  135.3882  123.1523   62.3524 H   0  0  0  0  0  0  0  0  0  0  0  0
  134.4951  122.6333   60.8829 H   0  0  0  0  0  0  0  0  0  0  0  0
  135.3995  124.1853   60.8829 H   0  0  0  0  0  0  0  0  0  0  0  0
  132.6582  124.4185   60.0321 H   0  0  0  0  0  0  0  0  0  0  0  0
  129.4686  126.0633   61.1240 H   0  0  0  0  0  0  0  0  0  0  0  0
  130.7523  126.5221   59.9544 H   0  0  0  0  0  0  0  0  0  0  0  0
  130.0928  124.8513   59.9544 H   0  0  0  0  0  0  0  0  0  0  0  0
  128.6060  127.3340   63.8020 H   0  0  0  0  0  0  0  0  0  0  0  0
  128.9190  126.5160   62.3210 H   0  0  0  0  0  0  0  0  0  0  0  0
  127.6293  125.3799   68.5611 H   0  0  0  0  0  0  0  0  0  0  0  0
  126.8015  126.0751   70.8014 H   0  0  0  0  0  0  0  0  0  0  0  0
  1  2  1  0
  2  3  1  0
  3  4  1  0
  4  5  2  0
  4  6  1  0
  6  7  2  0
  7  8  1  0
  8  9  2  0
  9 10  1  0
 10 11  1  0
 11 12  2  0
 11 13  1  0
 13 14  1  0
 14 15  1  0
 15 16  2  0
 16 17  1  0
 17 18  1  0
 17 19  2  0
 19 20  1  0
 20 21  1  0
 20 22  2  0
 22 23  1  0
 23 24  1  0
  9 25  1  0
 25 26  2  0
 26  6  1  0
 23 13  2  0
 22 15  1  0
  1 27  1  0
  1 28  1  0
  1 29  1  0
  2 30  1  0
  2 31  1  0
  7 32  1  0
  8 33  1  0
 10 34  1  0
 18 35  1  0
 18 36  1  0
 18 37  1  0
 19 38  1  0
 21 39  1  0
 21 40  1  0
 21 41  1  0
 24 42  1  0
 24 43  1  0
 25 44  1  0
 26 45  1  0
M  END
>  <Binding energies>  (1) 
[-6.8]

>  <Ligand effiencies>  (1) 
[-0.23448275862068965]

>  <Interactions>  (1) 
["V-A:HIS:456:CE1:4066, V-A:GLY:453:C:4038, V-A:ARG:545:CZ:4923, V-A:GLY:453:CA:4040, H-A:GLY:454:N:4046, H-A:TYR:484:OH:4344, V-A:GLY:454:CA:4045, V-A:ASP:366:CG:3209, H-B:GLU:543:OE2:9879, V-B:HIS:456:CD2:9036, V-B:LYS:547:CD:9918, V-B:ARG:545:C:9886, H-A:LYS:547:NZ:4948, V-B:GLY:544:C:9881, V-B:LYS:547:CE:9919, V-B:GLU:543:CB:9875, V-B:GLU:543:CD:9877, V-B:HIS:456:CB:9033, V-B:HIS:456:CE1:9038, V-A:ILE:369:CG1:3234, H-A:GLU:543:OE2:4907, V-A:HIS:456:CD2:4064, V-B:GLU:543:C:9871, H-B:GLU:543:OE1:9878, V-B:HIS:456:C:9029, V-B:HIS:456:CG:9034, H-A:HIS:456:NE2:4067, V-B:HIS:456:CA:9031"]

$$$$
4ab_Grossjean_2025
     RDKit          3D

 42 44  0  0  0  0  0  0  0  0999 V2000
  128.7870  129.7660   73.3400 C   0  0  0  0  0  0  0  0  0  0  0  0
  128.8150  128.3500   73.2370 O   0  0  0  0  0  0  0  0  0  0  0  0
  127.9060  127.6850   72.4800 C   0  0  0  0  0  0  0  0  0  0  0  0
  126.7590  127.4290   72.8620 O   0  0  0  0  0  0  0  0  0  0  0  0
  128.4340  127.2860   71.1320 C   0  0  0  0  0  0  0  0  0  0  0  0
  129.7060  127.7240   70.7410 C   0  0  0  0  0  0  0  0  0  0  0  0
  130.2230  127.3720   69.4960 C   0  0  0  0  0  0  0  0  0  0  0  0
  129.4860  126.5710   68.6240 C   0  0  0  0  0  0  0  0  0  0  0  0
  130.1020  126.2840   67.3910 N   0  0  0  0  0  0  0  0  0  0  0  0
  131.0760  126.9490   66.7250 C   0  0  0  0  0  0  0  0  0  0  0  0
  131.5800  128.0060   67.1080 O   0  0  0  0  0  0  0  0  0  0  0  0
  131.5010  126.3370   65.4650 C   0  0  0  0  0  0  0  0  0  0  0  0
  132.9320  125.3040   65.4150 S   0  0  0  0  0  0  0  0  0  0  0  0
  132.7560  125.0620   63.6920 C   0  0  0  0  0  0  0  0  0  0  0  0
  133.6050  124.3080   62.9940 N   0  0  0  0  0  0  0  0  0  0  0  0
  133.3570  124.2050   61.6650 C   0  0  0  0  0  0  0  0  0  0  0  0
  134.3380  123.3460   60.8890 C   0  0  0  0  0  0  0  0  0  0  0  0
  132.2890  124.8290   61.0260 C   0  0  0  0  0  0  0  0  0  0  0  0
  131.3990  125.6210   61.7610 C   0  0  0  0  0  0  0  0  0  0  0  0
  130.2490  126.2830   61.0170 C   0  0  0  0  0  0  0  0  0  0  0  0
  131.6290  125.7570   63.1570 C   0  0  0  0  0  0  0  0  0  0  0  0
  130.9350  126.4800   64.1890 C   0  0  0  0  0  0  0  0  0  0  0  0
  129.8190  127.2340   63.9290 N   0  0  0  0  0  0  0  0  0  0  0  0
  128.2090  126.1330   69.0060 C   0  0  0  0  0  0  0  0  0  0  0  0
  127.6920  126.4880   70.2490 C   0  0  0  0  0  0  0  0  0  0  0  0
  128.7813  130.0564   74.4010 H   0  0  0  0  0  0  0  0  0  0  0  0
  129.6770  130.1870   72.8494 H   0  0  0  0  0  0  0  0  0  0  0  0
  127.8811  130.1515   72.8494 H   0  0  0  0  0  0  0  0  0  0  0  0
  130.3009  128.3504   71.4219 H   0  0  0  0  0  0  0  0  0  0  0  0
  131.2202  127.7286   69.1985 H   0  0  0  0  0  0  0  0  0  0  0  0
  129.7440  125.4580   66.9360 H   0  0  0  0  0  0  0  0  0  0  0  0
  134.9741  122.7890   61.5927 H   0  0  0  0  0  0  0  0  0  0  0  0
  133.7839  122.6374   60.2559 H   0  0  0  0  0  0  0  0  0  0  0  0
  134.9672  123.9888   60.2559 H   0  0  0  0  0  0  0  0  0  0  0  0
  132.1445  124.6996   59.9432 H   0  0  0  0  0  0  0  0  0  0  0  0
  129.5322  126.6956   61.7423 H   0  0  0  0  0  0  0  0  0  0  0  0
  130.6397  127.0944   60.3854 H   0  0  0  0  0  0  0  0  0  0  0  0
  129.7435  125.5377   60.3854 H   0  0  0  0  0  0  0  0  0  0  0  0
  129.8810  128.1610   63.5340 H   0  0  0  0  0  0  0  0  0  0  0  0
  128.8910  126.8850   64.1310 H   0  0  0  0  0  0  0  0  0  0  0  0
  127.6154  125.5082   68.3224 H   0  0  0  0  0  0  0  0  0  0  0  0
  126.6908  126.1388   70.5417 H   0  0  0  0  0  0  0  0  0  0  0  0
  1  2  1  0
  2  3  1  0
  3  4  2  0
  3  5  1  0
  5  6  2  0
  6  7  1  0
  7  8  2  0
  8  9  1  0
  9 10  1  0
 10 11  2  0
 10 12  1  0
 12 13  1  0
 13 14  1  0
 14 15  2  0
 15 16  1  0
 16 17  1  0
 16 18  2  0
 18 19  1  0
 19 20  1  0
 19 21  2  0
 21 22  1  0
 22 23  1  0
  8 24  1  0
 24 25  2  0
 25  5  1  0
 22 12  2  0
 21 14  1  0
  1 26  1  0
  1 27  1  0
  1 28  1  0
  6 29  1  0
  7 30  1  0
  9 31  1  0
 17 32  1  0
 17 33  1  0
 17 34  1  0
 18 35  1  0
 20 36  1  0
 20 37  1  0
 20 38  1  0
 23 39  1  0
 23 40  1  0
 24 41  1  0
 25 42  1  0
M  END
>  <Binding energies>  (1) 
[-6.9]

>  <Ligand effiencies>  (1) 
[-0.24642857142857144]

>  <Interactions>  (1) 
["V-A:HIS:456:CE1:4066, V-A:ARG:545:CZ:4923, H-A:GLY:454:N:4046, V-A:ASP:366:CG:3209, H-B:GLU:543:OE2:9879, V-B:HIS:456:CD2:9036, V-A:GLU:543:CB:4903, V-A:LYS:547:CE:4947, H-A:LYS:547:NZ:4948, V-B:GLY:544:C:9881, V-B:LYS:547:CE:9919, V-B:GLU:543:CB:9875, V-B:HIS:456:CE1:9038, V-A:GLU:543:CD:4905, V-A:ILE:369:CB:3232, V-A:ILE:369:CG1:3234, H-A:GLU:543:OE2:4907, H-A:GLU:543:OE1:4906, V-A:HIS:456:CD2:4064, V-B:GLU:543:C:9871, H-B:GLU:543:OE1:9878, V-B:HIS:456:CG:9034, H-A:HIS:456:NE2:4067"]

$$$$
4ac_Grossjean_2025
     RDKit          3D

 40 42  0  0  0  0  0  0  0  0999 V2000
  128.3450  127.6530   72.9740 C   0  0  0  0  0  0  0  0  0  0  0  0
  127.6510  127.3230   71.7760 O   0  0  0  0  0  0  0  0  0  0  0  0
  128.3690  127.1250   70.6130 C   0  0  0  0  0  0  0  0  0  0  0  0
  127.9100  126.1210   69.7610 C   0  0  0  0  0  0  0  0  0  0  0  0
  128.5690  125.8500   68.5650 C   0  0  0  0  0  0  0  0  0  0  0  0
  129.6950  126.5900   68.2010 C   0  0  0  0  0  0  0  0  0  0  0  0
  130.3030  126.2360   66.9820 N   0  0  0  0  0  0  0  0  0  0  0  0
  131.3840  126.7810   66.3730 C   0  0  0  0  0  0  0  0  0  0  0  0
  132.0080  127.7490   66.8130 O   0  0  0  0  0  0  0  0  0  0  0  0
  131.7830  126.1460   65.1150 C   0  0  0  0  0  0  0  0  0  0  0  0
  133.1280  125.0050   65.0790 S   0  0  0  0  0  0  0  0  0  0  0  0
  132.9380  124.7620   63.3570 C   0  0  0  0  0  0  0  0  0  0  0  0
  133.7270  123.9350   62.6700 N   0  0  0  0  0  0  0  0  0  0  0  0
  133.4750  123.8380   61.3420 C   0  0  0  0  0  0  0  0  0  0  0  0
  134.3830  122.8920   60.5780 C   0  0  0  0  0  0  0  0  0  0  0  0
  132.4630  124.5430   60.6920 C   0  0  0  0  0  0  0  0  0  0  0  0
  131.6370  125.4100   61.4160 C   0  0  0  0  0  0  0  0  0  0  0  0
  130.5470  126.1560   60.6620 C   0  0  0  0  0  0  0  0  0  0  0  0
  131.8710  125.5350   62.8120 C   0  0  0  0  0  0  0  0  0  0  0  0
  131.2270  126.3140   63.8360 C   0  0  0  0  0  0  0  0  0  0  0  0
  130.1680  127.1430   63.5680 N   0  0  0  0  0  0  0  0  0  0  0  0
  130.1710  127.5920   69.0580 C   0  0  0  0  0  0  0  0  0  0  0  0
  129.5090  127.8600   70.2540 C   0  0  0  0  0  0  0  0  0  0  0  0
  127.7354  127.3632   73.8426 H   0  0  0  0  0  0  0  0  0  0  0  0
  129.3037  127.1143   73.0027 H   0  0  0  0  0  0  0  0  0  0  0  0
  128.5323  128.7366   73.0027 H   0  0  0  0  0  0  0  0  0  0  0  0
  127.0190  125.5377   70.0365 H   0  0  0  0  0  0  0  0  0  0  0  0
  128.2012  125.0505   67.9051 H   0  0  0  0  0  0  0  0  0  0  0  0
  129.8400  125.4890   66.4830 H   0  0  0  0  0  0  0  0  0  0  0  0
  134.9639  122.2868   61.2895 H   0  0  0  0  0  0  0  0  0  0  0  0
  133.7736  122.2298   59.9454 H   0  0  0  0  0  0  0  0  0  0  0  0
  135.0696  123.4737   59.9454 H   0  0  0  0  0  0  0  0  0  0  0  0
  132.3137  124.4176   59.6094 H   0  0  0  0  0  0  0  0  0  0  0  0
  129.8599  126.6262   61.3809 H   0  0  0  0  0  0  0  0  0  0  0  0
  131.0036  126.9318   60.0299 H   0  0  0  0  0  0  0  0  0  0  0  0
  129.9891  125.4495   60.0299 H   0  0  0  0  0  0  0  0  0  0  0  0
  129.2140  126.8130   63.5870 H   0  0  0  0  0  0  0  0  0  0  0  0
  130.3090  128.1180   63.3430 H   0  0  0  0  0  0  0  0  0  0  0  0
  131.0682  128.1673   68.7858 H   0  0  0  0  0  0  0  0  0  0  0  0
  129.8819  128.6518   70.9203 H   0  0  0  0  0  0  0  0  0  0  0  0
  1  2  1  0
  2  3  1  0
  3  4  2  0
  4  5  1  0
  5  6  2  0
  6  7  1  0
  7  8  1  0
  8  9  2  0
  8 10  1  0
 10 11  1  0
 11 12  1  0
 12 13  2  0
 13 14  1  0
 14 15  1  0
 14 16  2  0
 16 17  1  0
 17 18  1  0
 17 19  2  0
 19 20  1  0
 20 21  1  0
  6 22  1  0
 22 23  2  0
 23  3  1  0
 20 10  2  0
 19 12  1  0
  1 24  1  0
  1 25  1  0
  1 26  1  0
  4 27  1  0
  5 28  1  0
  7 29  1  0
 15 30  1  0
 15 31  1  0
 15 32  1  0
 16 33  1  0
 18 34  1  0
 18 35  1  0
 18 36  1  0
 21 37  1  0
 21 38  1  0
 22 39  1  0
 23 40  1  0
M  END
>  <Binding energies>  (1) 
[-6.25]

>  <Ligand effiencies>  (1) 
[-0.2403846153846154]

>  <Interactions>  (1) 
["V-A:HIS:456:CE1:4066, V-A:ARG:545:CZ:4923, H-A:GLY:454:N:4046, V-A:ASP:366:CG:3209, V-B:HIS:456:CD2:9036, V-B:GLY:544:C:9881, V-B:LYS:547:CE:9919, V-B:GLU:543:CB:9875, V-B:HIS:456:CE1:9038, V-A:GLU:543:CD:4905, V-A:ILE:369:CB:3232, V-A:ILE:369:CG2:3233, V-A:ILE:369:CG1:3234, H-A:GLU:543:OE2:4907, H-A:GLU:543:OE1:4906, V-B:GLU:543:C:9871, H-A:ARG:545:NE:4921"]

$$$$
4ad_Grossjean_2025
     RDKit          3D

 36 38  0  0  0  0  0  0  0  0999 V2000
  134.6180  125.0000   65.9940 C   0  0  0  0  0  0  0  0  0  0  0  0
  133.3230  124.8780   65.2150 C   0  0  0  0  0  0  0  0  0  0  0  0
  132.2360  125.7030   65.4940 C   0  0  0  0  0  0  0  0  0  0  0  0
  131.0490  125.5710   64.7630 C   0  0  0  0  0  0  0  0  0  0  0  0
  129.8890  126.4930   65.1070 C   0  0  0  0  0  0  0  0  0  0  0  0
  131.0040  124.5790   63.7470 C   0  0  0  0  0  0  0  0  0  0  0  0
  129.9740  124.1790   62.8260 C   0  0  0  0  0  0  0  0  0  0  0  0
  128.7420  124.7840   62.8010 N   0  0  0  0  0  0  0  0  0  0  0  0
  130.3470  123.1300   61.9710 C   0  0  0  0  0  0  0  0  0  0  0  0
  129.5500  122.4710   60.9350 C   0  0  0  0  0  0  0  0  0  0  0  0
  129.5790  121.2460   60.8060 O   0  0  0  0  0  0  0  0  0  0  0  0
  128.7980  123.2980   60.1670 N   0  0  0  0  0  0  0  0  0  0  0  0
  127.9650  122.9920   59.0730 C   0  0  0  0  0  0  0  0  0  0  0  0
  126.6610  123.4920   59.1410 C   0  0  0  0  0  0  0  0  0  0  0  0
  125.7640  123.2520   58.1030 C   0  0  0  0  0  0  0  0  0  0  0  0
  126.1730  122.5200   56.9930 C   0  0  0  0  0  0  0  0  0  0  0  0
  127.4730  122.0280   56.9070 C   0  0  0  0  0  0  0  0  0  0  0  0
  128.3720  122.2650   57.9430 C   0  0  0  0  0  0  0  0  0  0  0  0
  132.0040  122.6110   62.2870 S   0  0  0  0  0  0  0  0  0  0  0  0
  132.1840  123.7970   63.5590 C   0  0  0  0  0  0  0  0  0  0  0  0
  133.3160  123.9220   64.2540 N   0  0  0  0  0  0  0  0  0  0  0  0
  134.4007  124.9795   67.0721 H   0  0  0  0  0  0  0  0  0  0  0  0
  135.2807  124.1603   65.7375 H   0  0  0  0  0  0  0  0  0  0  0  0
  135.1122  125.9487   65.7375 H   0  0  0  0  0  0  0  0  0  0  0  0
  132.3101  126.4591   66.2895 H   0  0  0  0  0  0  0  0  0  0  0  0
  129.7930  126.5693   66.2001 H   0  0  0  0  0  0  0  0  0  0  0  0
  130.0764  127.4913   64.6848 H   0  0  0  0  0  0  0  0  0  0  0  0
  128.9587  126.0851   64.6848 H   0  0  0  0  0  0  0  0  0  0  0  0
  128.6340  125.7700   62.6180 H   0  0  0  0  0  0  0  0  0  0  0  0
  127.8950  124.2540   62.9600 H   0  0  0  0  0  0  0  0  0  0  0  0
  128.8180  124.2750   60.4160 H   0  0  0  0  0  0  0  0  0  0  0  0
  126.3427  124.0765   60.0168 H   0  0  0  0  0  0  0  0  0  0  0  0
  124.7362  123.6397   58.1606 H   0  0  0  0  0  0  0  0  0  0  0  0
  125.4627  122.3279   56.1753 H   0  0  0  0  0  0  0  0  0  0  0  0
  127.7884  121.4540   56.0233 H   0  0  0  0  0  0  0  0  0  0  0  0
  129.4013  121.8827   57.8763 H   0  0  0  0  0  0  0  0  0  0  0  0
  1  2  1  0
  2  3  2  0
  3  4  1  0
  4  5  1  0
  4  6  2  0
  6  7  1  0
  7  8  1  0
  7  9  2  0
  9 10  1  0
 10 11  2  0
 10 12  1  0
 12 13  1  0
 13 14  2  0
 14 15  1  0
 15 16  2  0
 16 17  1  0
 17 18  2  0
  9 19  1  0
 19 20  1  0
 20 21  2  0
 21  2  1  0
 20  6  1  0
 18 13  1  0
  1 22  1  0
  1 23  1  0
  1 24  1  0
  3 25  1  0
  5 26  1  0
  5 27  1  0
  5 28  1  0
  8 29  1  0
  8 30  1  0
 12 31  1  0
 14 32  1  0
 15 33  1  0
 16 34  1  0
 17 35  1  0
 18 36  1  0
M  END
>  <Binding energies>  (1) 
[-6.86]

>  <Ligand effiencies>  (1) 
[-0.28583333333333333]

>  <Interactions>  (1) 
["V-B:TYR:539:CE2:9845, V-A:GLY:454:C:4043, V-B:TYR:539:CA:9838, V-A:HIS:456:CE1:4066, V-B:TYR:539:CG:9841, V-B:TYR:539:CD1:9842, V-B:TYR:539:CZ:9846, V-A:GLY:453:C:4038, V-B:PRO:540:CA:9852, V-A:ARG:545:CG:4919, V-A:ARG:545:CZ:4923, V-B:TYR:539:CE1:9844, V-A:ARG:545:CD:4920, V-A:GLY:453:CA:4040, V-B:ALA:541:CB:9861, H-A:GLY:454:N:4046, V-B:TYR:539:C:9836, H-A:TYR:484:OH:4344, V-A:GLY:454:CA:4045, V-B:PRO:540:N:9853, V-B:PRO:540:CB:9854, V-B:TYR:539:CD2:9843, H-B:GLU:543:OE2:9879, V-B:GLU:543:CD:9877, V-B:GLU:543:CG:9876, V-A:GLU:543:CD:4905, V-A:LEU:475:CD1:4254, V-B:PRO:540:CD:9856, H-B:GLU:543:OE1:9878"]

$$$$
4ae_Grossjean_2025
     RDKit          3D

 38 40  0  0  0  0  0  0  0  0999 V2000
  124.4380  123.9010   58.1060 C   0  0  0  0  0  0  0  0  0  0  0  0
  125.8480  123.3440   58.0750 C   0  0  0  0  0  0  0  0  0  0  0  0
  126.2850  122.5180   57.0360 C   0  0  0  0  0  0  0  0  0  0  0  0
  127.5940  122.0360   57.0780 C   0  0  0  0  0  0  0  0  0  0  0  0
  128.4240  122.3870   58.1440 C   0  0  0  0  0  0  0  0  0  0  0  0
  127.9260  123.2250   59.1470 C   0  0  0  0  0  0  0  0  0  0  0  0
  128.8020  123.5260   60.2040 N   0  0  0  0  0  0  0  0  0  0  0  0
  129.5680  122.6810   60.9380 C   0  0  0  0  0  0  0  0  0  0  0  0
  129.5940  121.4600   60.7710 O   0  0  0  0  0  0  0  0  0  0  0  0
  130.3840  123.3140   61.9760 C   0  0  0  0  0  0  0  0  0  0  0  0
  132.0710  122.8450   62.1930 S   0  0  0  0  0  0  0  0  0  0  0  0
  132.2570  123.9510   63.5340 C   0  0  0  0  0  0  0  0  0  0  0  0
  133.4090  124.0730   64.1930 N   0  0  0  0  0  0  0  0  0  0  0  0
  133.4180  124.9610   65.2160 C   0  0  0  0  0  0  0  0  0  0  0  0
  134.7380  125.0800   65.9580 C   0  0  0  0  0  0  0  0  0  0  0  0
  132.3140  125.7250   65.5900 C   0  0  0  0  0  0  0  0  0  0  0  0
  131.1060  125.5950   64.8940 C   0  0  0  0  0  0  0  0  0  0  0  0
  129.9280  126.4470   65.3420 C   0  0  0  0  0  0  0  0  0  0  0  0
  131.0570  124.6710   63.8160 C   0  0  0  0  0  0  0  0  0  0  0  0
  130.0050  124.2910   62.9120 C   0  0  0  0  0  0  0  0  0  0  0  0
  128.7500  124.8410   62.9740 N   0  0  0  0  0  0  0  0  0  0  0  0
  126.6440  123.6950   59.1170 N   0  0  0  0  0  0  0  0  0  0  0  0
  124.1168  124.0279   59.1504 H   0  0  0  0  0  0  0  0  0  0  0  0
  124.4172  124.8749   57.5951 H   0  0  0  0  0  0  0  0  0  0  0  0
  123.7572  123.2043   57.5951 H   0  0  0  0  0  0  0  0  0  0  0  0
  125.6137  122.2542   56.2055 H   0  0  0  0  0  0  0  0  0  0  0  0
  127.9694  121.3835   56.2760 H   0  0  0  0  0  0  0  0  0  0  0  0
  129.4560  122.0096   58.1946 H   0  0  0  0  0  0  0  0  0  0  0  0
  128.8180  124.4980   60.4760 H   0  0  0  0  0  0  0  0  0  0  0  0
  134.5521  125.0632   67.0420 H   0  0  0  0  0  0  0  0  0  0  0  0
  135.3896  124.2370   65.6847 H   0  0  0  0  0  0  0  0  0  0  0  0
  135.2283  126.0260   65.6847 H   0  0  0  0  0  0  0  0  0  0  0  0
  132.3916  126.4295   66.4312 H   0  0  0  0  0  0  0  0  0  0  0  0
  129.8915  126.4734   66.4411 H   0  0  0  0  0  0  0  0  0  0  0  0
  130.0467  127.4696   64.9544 H   0  0  0  0  0  0  0  0  0  0  0  0
  128.9940  126.0141   64.9544 H   0  0  0  0  0  0  0  0  0  0  0  0
  127.9150  124.2720   62.9540 H   0  0  0  0  0  0  0  0  0  0  0  0
  128.6190  125.8410   63.0420 H   0  0  0  0  0  0  0  0  0  0  0  0
  1  2  1  0
  2  3  2  0
  3  4  1  0
  4  5  2  0
  5  6  1  0
  6  7  1  0
  7  8  1  0
  8  9  2  0
  8 10  1  0
 10 11  1  0
 11 12  1  0
 12 13  2  0
 13 14  1  0
 14 15  1  0
 14 16  2  0
 16 17  1  0
 17 18  1  0
 17 19  2  0
 19 20  1  0
 20 21  1  0
  6 22  2  0
 22  2  1  0
 20 10  2  0
 19 12  1  0
  1 23  1  0
  1 24  1  0
  1 25  1  0
  3 26  1  0
  4 27  1  0
  5 28  1  0
  7 29  1  0
 15 30  1  0
 15 31  1  0
 15 32  1  0
 16 33  1  0
 18 34  1  0
 18 35  1  0
 18 36  1  0
 21 37  1  0
 21 38  1  0
M  END
>  <Binding energies>  (1) 
[-6.98]

>  <Ligand effiencies>  (1) 
[-0.2792]

>  <Interactions>  (1) 
["V-B:TYR:539:CE2:9845, V-A:GLY:454:C:4043, V-B:TYR:539:CA:9838, V-A:HIS:456:CE1:4066, V-B:TYR:539:CG:9841, V-B:TYR:539:CD1:9842, V-B:TYR:539:CZ:9846, V-A:GLY:453:C:4038, V-B:PRO:540:CA:9852, V-A:ARG:545:CG:4919, V-A:ARG:545:CZ:4923, V-B:TYR:539:CE1:9844, V-A:ARG:545:CD:4920, V-A:GLY:453:CA:4040, V-B:ALA:541:CB:9861, H-A:GLY:454:N:4046, V-B:TYR:539:C:9836, H-A:TYR:484:OH:4344, V-A:GLY:454:CA:4045, V-B:PRO:540:N:9853, V-B:PRO:540:CB:9854, V-B:TYR:539:CD2:9843, H-B:GLU:543:OE2:9879, V-B:GLU:543:CD:9877, V-B:GLU:543:CG:9876, V-A:LEU:475:CD1:4254, V-B:PRO:540:CD:9856, H-B:GLU:543:OE1:9878, V-B:LEU:363:CD1:8157"]

$$$$
4af_Grossjean_2025
     RDKit          3D

 35 37  0  0  0  0  0  0  0  0999 V2000
  134.4270  125.0070   65.5660 C   0  0  0  0  0  0  0  0  0  0  0  0
  133.1040  124.8440   64.8390 C   0  0  0  0  0  0  0  0  0  0  0  0
  131.9680  125.5370   65.2520 C   0  0  0  0  0  0  0  0  0  0  0  0
  130.7590  125.3690   64.5680 C   0  0  0  0  0  0  0  0  0  0  0  0
  129.5460  126.1450   65.0570 C   0  0  0  0  0  0  0  0  0  0  0  0
  130.7420  124.4800   63.4590 C   0  0  0  0  0  0  0  0  0  0  0  0
  129.6980  124.0780   62.5540 C   0  0  0  0  0  0  0  0  0  0  0  0
  128.4180  124.5630   62.6520 N   0  0  0  0  0  0  0  0  0  0  0  0
  130.1120  123.1590   61.5780 C   0  0  0  0  0  0  0  0  0  0  0  0
  129.3140  122.5230   60.5280 C   0  0  0  0  0  0  0  0  0  0  0  0
  129.3370  121.3000   60.3770 O   0  0  0  0  0  0  0  0  0  0  0  0
  128.5640  123.3670   59.7780 N   0  0  0  0  0  0  0  0  0  0  0  0
  127.7350  123.0880   58.6750 C   0  0  0  0  0  0  0  0  0  0  0  0
  126.3840  123.4610   58.5560 C   0  0  0  0  0  0  0  0  0  0  0  0
  125.6670  123.1050   57.4120 C   0  0  0  0  0  0  0  0  0  0  0  0
  126.3180  122.3780   56.4140 C   0  0  0  0  0  0  0  0  0  0  0  0
  127.6170  121.9990   56.5090 N   0  0  0  0  0  0  0  0  0  0  0  0
  128.3010  122.3530   57.6260 C   0  0  0  0  0  0  0  0  0  0  0  0
  131.8230  122.7620   61.7610 S   0  0  0  0  0  0  0  0  0  0  0  0
  131.9720  123.8320   63.1370 C   0  0  0  0  0  0  0  0  0  0  0  0
  133.1260  123.9900   63.7860 N   0  0  0  0  0  0  0  0  0  0  0  0
  134.2536  124.9856   66.6520 H   0  0  0  0  0  0  0  0  0  0  0  0
  135.1027  124.1853   65.2863 H   0  0  0  0  0  0  0  0  0  0  0  0
  134.8831  125.9681   65.2863 H   0  0  0  0  0  0  0  0  0  0  0  0
  132.0216  126.2161   66.1157 H   0  0  0  0  0  0  0  0  0  0  0  0
  129.5345  126.1524   66.1569 H   0  0  0  0  0  0  0  0  0  0  0  0
  129.5971  127.1785   64.6839 H   0  0  0  0  0  0  0  0  0  0  0  0
  128.6291  125.6654   64.6839 H   0  0  0  0  0  0  0  0  0  0  0  0
  128.2240  125.5540   62.6920 H   0  0  0  0  0  0  0  0  0  0  0  0
  127.6230  123.9400   62.6830 H   0  0  0  0  0  0  0  0  0  0  0  0
  128.5920  124.3400   60.0420 H   0  0  0  0  0  0  0  0  0  0  0  0
  125.8948  124.0303   59.3601 H   0  0  0  0  0  0  0  0  0  0  0  0
  124.6109  123.3915   57.2996 H   0  0  0  0  0  0  0  0  0  0  0  0
  125.7534  122.1005   55.5117 H   0  0  0  0  0  0  0  0  0  0  0  0
  129.3541  122.0470   57.7120 H   0  0  0  0  0  0  0  0  0  0  0  0
  1  2  1  0
  2  3  2  0
  3  4  1  0
  4  5  1  0
  4  6  2  0
  6  7  1  0
  7  8  1  0
  7  9  2  0
  9 10  1  0
 10 11  2  0
 10 12  1  0
 12 13  1  0
 13 14  2  0
 14 15  1  0
 15 16  2  0
 16 17  1  0
 17 18  2  0
  9 19  1  0
 19 20  1  0
 20 21  2  0
 21  2  1  0
 20  6  1  0
 18 13  1  0
  1 22  1  0
  1 23  1  0
  1 24  1  0
  3 25  1  0
  5 26  1  0
  5 27  1  0
  5 28  1  0
  8 29  1  0
  8 30  1  0
 12 31  1  0
 14 32  1  0
 15 33  1  0
 16 34  1  0
 18 35  1  0
M  END
>  <Binding energies>  (1) 
[-7.11]

>  <Ligand effiencies>  (1) 
[-0.29625]

>  <Interactions>  (1) 
["V-B:TYR:539:CE2:9845, V-A:GLY:454:C:4043, V-A:HIS:456:CE1:4066, V-B:TYR:539:CG:9841, V-B:TYR:539:CD1:9842, V-B:TYR:539:CZ:9846, V-A:GLY:453:C:4038, V-B:PRO:540:CA:9852, V-A:ARG:545:CG:4919, V-A:ARG:545:CZ:4923, V-B:TYR:539:CE1:9844, V-A:ARG:545:CD:4920, V-A:GLY:453:CA:4040, V-B:ALA:541:CB:9861, H-A:GLY:454:N:4046, V-B:TYR:539:C:9836, H-A:TYR:484:OH:4344, V-A:GLY:454:CA:4045, V-B:PRO:540:N:9853, V-B:PRO:540:CB:9854, V-B:TYR:539:CD2:9843, H-B:GLU:543:OE2:9879, V-B:GLU:543:CD:9877, V-B:GLU:543:CG:9876, H-B:TYR:539:N:9839, V-B:PRO:540:CD:9856, H-B:GLU:543:OE1:9878, V-B:ILE:538:CB:9831"]

$$$$
4ag_Grossjean_2025
     RDKit          3D

 39 41  0  0  0  0  0  0  0  0999 V2000
  129.0680  126.1130   65.2890 C   0  0  0  0  0  0  0  0  0  0  0  0
  129.3660  126.5820   66.7010 C   0  0  0  0  0  0  0  0  0  0  0  0
  130.5540  127.2460   67.0010 C   0  0  0  0  0  0  0  0  0  0  0  0
  130.8080  127.6710   68.3100 C   0  0  0  0  0  0  0  0  0  0  0  0
  132.1190  128.3910   68.5870 C   0  0  0  0  0  0  0  0  0  0  0  0
  129.8230  127.4010   69.2970 C   0  0  0  0  0  0  0  0  0  0  0  0
  129.7570  127.6890   70.7040 C   0  0  0  0  0  0  0  0  0  0  0  0
  130.7640  128.3460   71.3670 N   0  0  0  0  0  0  0  0  0  0  0  0
  128.5830  127.2360   71.3230 C   0  0  0  0  0  0  0  0  0  0  0  0
  128.1860  127.3670   72.7250 C   0  0  0  0  0  0  0  0  0  0  0  0
  129.0190  127.5670   73.6130 O   0  0  0  0  0  0  0  0  0  0  0  0
  126.8680  127.2370   72.9840 N   0  0  0  0  0  0  0  0  0  0  0  0
  126.2470  127.3570   74.3030 C   0  0  0  0  0  0  0  0  0  0  0  0
  125.8460  128.7800   74.6710 C   0  0  0  0  0  0  0  0  0  0  0  0
  126.7010  129.8440   74.3700 C   0  0  0  0  0  0  0  0  0  0  0  0
  126.3250  131.1480   74.6830 C   0  0  0  0  0  0  0  0  0  0  0  0
  125.0920  131.3850   75.2860 C   0  0  0  0  0  0  0  0  0  0  0  0
  124.2280  130.3310   75.5750 C   0  0  0  0  0  0  0  0  0  0  0  0
  124.6030  129.0270   75.2610 C   0  0  0  0  0  0  0  0  0  0  0  0
  127.5130  126.4440   70.1660 S   0  0  0  0  0  0  0  0  0  0  0  0
  128.6490  126.7150   68.8630 C   0  0  0  0  0  0  0  0  0  0  0  0
  128.4030  126.3100   67.6160 N   0  0  0  0  0  0  0  0  0  0  0  0
  128.4784  125.1851   65.3276 H   0  0  0  0  0  0  0  0  0  0  0  0
  128.4967  126.8886   64.7579 H   0  0  0  0  0  0  0  0  0  0  0  0
  130.0128  125.9253   64.7579 H   0  0  0  0  0  0  0  0  0  0  0  0
  131.2926  127.4362   66.2083 H   0  0  0  0  0  0  0  0  0  0  0  0
  132.2695  128.4736   69.6735 H   0  0  0  0  0  0  0  0  0  0  0  0
  132.9501  127.8228   68.1439 H   0  0  0  0  0  0  0  0  0  0  0  0
  132.0854  129.3972   68.1439 H   0  0  0  0  0  0  0  0  0  0  0  0
  131.4210  127.8570   71.9570 H   0  0  0  0  0  0  0  0  0  0  0  0
  130.8820  129.3460   71.2820 H   0  0  0  0  0  0  0  0  0  0  0  0
  126.2370  127.1310   72.2040 H   0  0  0  0  0  0  0  0  0  0  0  0
  125.3447  126.7280   74.3192 H   0  0  0  0  0  0  0  0  0  0  0  0
  126.9989  127.0373   75.0395 H   0  0  0  0  0  0  0  0  0  0  0  0
  127.6700  129.6516   73.8863 H   0  0  0  0  0  0  0  0  0  0  0  0
  126.9988  131.9870   74.4550 H   0  0  0  0  0  0  0  0  0  0  0  0
  124.7975  132.4148   75.5366 H   0  0  0  0  0  0  0  0  0  0  0  0
  123.2549  130.5277   76.0486 H   0  0  0  0  0  0  0  0  0  0  0  0
  123.9211  128.1914   75.4773 H   0  0  0  0  0  0  0  0  0  0  0  0
  1  2  1  0
  2  3  2  0
  3  4  1  0
  4  5  1  0
  4  6  2  0
  6  7  1  0
  7  8  1  0
  7  9  2  0
  9 10  1  0
 10 11  2  0
 10 12  1  0
 12 13  1  0
 13 14  1  0
 14 15  2  0
 15 16  1  0
 16 17  2  0
 17 18  1  0
 18 19  2  0
  9 20  1  0
 20 21  1  0
 21 22  2  0
 22  2  1  0
 21  6  1  0
 19 14  1  0
  1 23  1  0
  1 24  1  0
  1 25  1  0
  3 26  1  0
  5 27  1  0
  5 28  1  0
  5 29  1  0
  8 30  1  0
  8 31  1  0
 12 32  1  0
 13 33  1  0
 13 34  1  0
 15 35  1  0
 16 36  1  0
 17 37  1  0
 18 38  1  0
 19 39  1  0
M  END
>  <Binding energies>  (1) 
[-7.64]

>  <Ligand effiencies>  (1) 
[-0.3056]

>  <Interactions>  (1) 
["V-A:HIS:456:CE1:4066, V-A:ARG:545:CG:4919, V-B:HIS:456:CD2:9036, V-A:GLU:543:CB:4903, H-B:GLY:544:O:9882, V-B:VAL:458:CG2:9055, V-B:LYS:547:CD:9918, H-A:LYS:547:NZ:4948, V-B:GLY:544:C:9881, V-B:LYS:547:CE:9919, V-B:VAL:457:C:9041, V-B:GLU:543:CB:9875, V-B:GLU:543:CD:9877, V-B:HIS:456:CB:9033, V-A:GLU:543:C:4899, V-B:HIS:456:CE1:9038, V-B:GLU:543:CG:9876, V-A:GLY:544:C:4909, V-A:GLU:543:CD:4905, V-B:GLU:543:C:9871, V-B:ASP:473:CG:9208, V-B:HIS:456:C:9029, V-B:LYS:471:CB:9185, V-B:LYS:471:CE:9188, V-B:HIS:456:CG:9034, H-A:HIS:456:NE2:4067, H-A:GLU:543:O:4900, H-B:HIS:456:NE2:9039, V-A:GLU:543:CA:4901, V-A:GLY:544:CA:4911, V-A:ARG:545:CA:4916, H-A:GLY:544:O:4910, V-B:VAL:457:CA:9043, V-B:ASP:473:CB:9207, V-A:ARG:545:CB:4918"]

$$$$
4ah_Grossjean_2025
     RDKit          3D

 51 53  0  0  0  0  0  0  0  0999 V2000
  129.7420  122.8400   71.6280 C   0  0  0  0  0  0  0  0  0  0  0  0
  129.2910  123.9730   72.3600 O   0  0  0  0  0  0  0  0  0  0  0  0
  129.2090  125.2020   71.7280 C   0  0  0  0  0  0  0  0  0  0  0  0
  128.7910  125.3720   70.3990 C   0  0  0  0  0  0  0  0  0  0  0  0
  128.7340  126.6430   69.8260 C   0  0  0  0  0  0  0  0  0  0  0  0
  128.2340  126.8140   68.3950 C   0  0  0  0  0  0  0  0  0  0  0  0
  129.0880  126.1720   67.3960 N   0  0  0  0  0  0  0  0  0  0  0  0
  130.3370  126.5650   67.0670 C   0  0  0  0  0  0  0  0  0  0  0  0
  130.8750  127.5540   67.5670 O   0  0  0  0  0  0  0  0  0  0  0  0
  131.0090  125.7690   66.0410 C   0  0  0  0  0  0  0  0  0  0  0  0
  132.4840  126.3680   65.2800 S   0  0  0  0  0  0  0  0  0  0  0  0
  132.5780  124.9570   64.2490 C   0  0  0  0  0  0  0  0  0  0  0  0
  133.5630  124.7920   63.3660 N   0  0  0  0  0  0  0  0  0  0  0  0
  133.5190  123.6550   62.6310 C   0  0  0  0  0  0  0  0  0  0  0  0
  134.6480  123.4890   61.6300 C   0  0  0  0  0  0  0  0  0  0  0  0
  132.5250  122.6880   62.7570 C   0  0  0  0  0  0  0  0  0  0  0  0
  131.4900  122.8640   63.6840 C   0  0  0  0  0  0  0  0  0  0  0  0
  130.4270  121.7810   63.7850 C   0  0  0  0  0  0  0  0  0  0  0  0
  131.5010  124.0470   64.4730 C   0  0  0  0  0  0  0  0  0  0  0  0
  130.6140  124.5410   65.4920 C   0  0  0  0  0  0  0  0  0  0  0  0
  129.4930  123.8550   65.8850 N   0  0  0  0  0  0  0  0  0  0  0  0
  129.0700  127.7600   70.5920 C   0  0  0  0  0  0  0  0  0  0  0  0
  129.4960  127.6190   71.9220 C   0  0  0  0  0  0  0  0  0  0  0  0
  129.8570  128.6790   72.7330 O   0  0  0  0  0  0  0  0  0  0  0  0
  129.4760  130.0010   72.3660 C   0  0  0  0  0  0  0  0  0  0  0  0
  129.5670  126.3330   72.4760 C   0  0  0  0  0  0  0  0  0  0  0  0
  129.9650  126.1810   73.7830 O   0  0  0  0  0  0  0  0  0  0  0  0
  131.0950  125.3360   73.9490 C   0  0  0  0  0  0  0  0  0  0  0  0
  130.0557  122.0520   72.3285 H   0  0  0  0  0  0  0  0  0  0  0  0
  128.9251  122.4637   70.9947 H   0  0  0  0  0  0  0  0  0  0  0  0
  130.5940  123.1280   70.9947 H   0  0  0  0  0  0  0  0  0  0  0  0
  128.5051  124.4932   69.8023 H   0  0  0  0  0  0  0  0  0  0  0  0
  127.2269  126.3773   68.3239 H   0  0  0  0  0  0  0  0  0  0  0  0
  128.2385  127.8924   68.1783 H   0  0  0  0  0  0  0  0  0  0  0  0
  128.7430  125.3070   67.0080 H   0  0  0  0  0  0  0  0  0  0  0  0
  135.5973  123.3494   62.1679 H   0  0  0  0  0  0  0  0  0  0  0  0
  134.4518  122.6101   60.9984 H   0  0  0  0  0  0  0  0  0  0  0  0
  134.7131  124.3872   60.9984 H   0  0  0  0  0  0  0  0  0  0  0  0
  132.5527  121.7857   62.1284 H   0  0  0  0  0  0  0  0  0  0  0  0
  130.2190  121.5691   64.8442 H   0  0  0  0  0  0  0  0  0  0  0  0
  129.5056  122.1245   63.2919 H   0  0  0  0  0  0  0  0  0  0  0  0
  130.7876  120.8662   63.2919 H   0  0  0  0  0  0  0  0  0  0  0  0
  129.3530  123.5640   66.8410 H   0  0  0  0  0  0  0  0  0  0  0  0
  128.7680  123.6120   65.2230 H   0  0  0  0  0  0  0  0  0  0  0  0
  129.0001  128.7639   70.1478 H   0  0  0  0  0  0  0  0  0  0  0  0
  129.3039  130.5983   73.2735 H   0  0  0  0  0  0  0  0  0  0  0  0
  130.2779  130.4617   71.7705 H   0  0  0  0  0  0  0  0  0  0  0  0
  128.5519  129.9643   71.7705 H   0  0  0  0  0  0  0  0  0  0  0  0
  131.2896  125.1905   75.0218 H   0  0  0  0  0  0  0  0  0  0  0  0
  130.8973  124.3624   73.4768 H   0  0  0  0  0  0  0  0  0  0  0  0
  131.9730  125.8009   73.4768 H   0  0  0  0  0  0  0  0  0  0  0  0
  1  2  1  0
  2  3  1  0
  3  4  2  0
  4  5  1  0
  5  6  1  0
  6  7  1  0
  7  8  1  0
  8  9  2  0
  8 10  1  0
 10 11  1  0
 11 12  1  0
 12 13  2  0
 13 14  1  0
 14 15  1  0
 14 16  2  0
 16 17  1  0
 17 18  1  0
 17 19  2  0
 19 20  1  0
 20 21  1  0
  5 22  2  0
 22 23  1  0
 23 24  1  0
 24 25  1  0
 23 26  2  0
 26 27  1  0
 27 28  1  0
 26  3  1  0
 20 10  2  0
 19 12  1  0
  1 29  1  0
  1 30  1  0
  1 31  1  0
  4 32  1  0
  6 33  1  0
  6 34  1  0
  7 35  1  0
 15 36  1  0
 15 37  1  0
 15 38  1  0
 16 39  1  0
 18 40  1  0
 18 41  1  0
 18 42  1  0
 21 43  1  0
 21 44  1  0
 22 45  1  0
 25 46  1  0
 25 47  1  0
 25 48  1  0
 28 49  1  0
 28 50  1  0
 28 51  1  0
M  END
>  <Binding energies>  (1) 
[-7.15]

>  <Ligand effiencies>  (1) 
[-0.2306451612903226]

>  <Interactions>  (1) 
["V-A:HIS:456:CE1:4066, V-A:GLY:453:C:4038, V-A:ARG:545:CG:4919, V-A:ARG:545:CZ:4923, V-A:ARG:545:CD:4920, V-A:GLY:453:CA:4040, V-B:ALA:541:CB:9861, H-A:GLY:454:N:4046, H-A:TYR:484:OH:4344, V-A:GLY:454:CA:4045, H-B:GLU:543:OE2:9879, V-A:TYR:484:CE1:4341, V-B:HIS:456:CD2:9036, V-A:LYS:547:CE:4947, H-A:LYS:547:NZ:4948, V-B:LYS:547:CE:9919, V-B:GLU:543:CB:9875, V-B:GLU:543:CD:9877, V-A:GLU:543:C:4899, V-B:HIS:456:CE1:9038, V-A:TYR:484:CZ:4343, V-B:GLU:543:CG:9876, H-A:ARG:545:NH2:4925, H-A:ARG:545:NH1:4924, V-A:LEU:475:CD1:4254, V-A:ILE:369:CG1:3234, V-A:LEU:475:CD2:4255, V-A:HIS:456:CD2:4064, V-B:GLU:543:C:9871, H-B:GLU:543:OE1:9878, V-B:GLU:543:CA:9873, V-A:TYR:484:CG:4338, V-A:TYR:484:CD2:4340, V-A:TYR:484:CB:4337, H-B:LYS:547:NZ:9920, V-A:TYR:484:CD1:4339, H-B:GLU:543:O:9872, V-A:LEU:475:CG:4253, V-A:GLY:544:CA:4911"]

$$$$
4ai_Grossjean_2025
     RDKit          3D

 32 34  0  0  0  0  0  0  0  0999 V2000
  134.3460  125.0020   65.5340 C   0  0  0  0  0  0  0  0  0  0  0  0
  133.0320  124.7860   64.8050 C   0  0  0  0  0  0  0  0  0  0  0  0
  131.8930  125.5110   65.1500 C   0  0  0  0  0  0  0  0  0  0  0  0
  130.6930  125.3000   64.4610 C   0  0  0  0  0  0  0  0  0  0  0  0
  129.4780  126.1170   64.8730 C   0  0  0  0  0  0  0  0  0  0  0  0
  130.6890  124.3350   63.4180 C   0  0  0  0  0  0  0  0  0  0  0  0
  129.6580  123.8770   62.5260 C   0  0  0  0  0  0  0  0  0  0  0  0
  128.3770  124.3680   62.5730 N   0  0  0  0  0  0  0  0  0  0  0  0
  130.0860  122.8990   61.6140 C   0  0  0  0  0  0  0  0  0  0  0  0
  129.3060  122.2130   60.5820 C   0  0  0  0  0  0  0  0  0  0  0  0
  129.1330  120.9940   60.6300 O   0  0  0  0  0  0  0  0  0  0  0  0
  128.7940  123.0120   59.6120 N   0  0  0  0  0  0  0  0  0  0  0  0
  128.0150  122.6310   58.5270 C   0  0  0  0  0  0  0  0  0  0  0  0
  126.7810  123.2120   58.2340 C   0  0  0  0  0  0  0  0  0  0  0  0
  126.3380  122.5620   57.1050 C   0  0  0  0  0  0  0  0  0  0  0  0
  127.2580  121.6400   56.7360 O   0  0  0  0  0  0  0  0  0  0  0  0
  128.3170  121.6930   57.6430 N   0  0  0  0  0  0  0  0  0  0  0  0
  131.7880  122.5020   61.8580 S   0  0  0  0  0  0  0  0  0  0  0  0
  131.9200  123.6600   63.1630 C   0  0  0  0  0  0  0  0  0  0  0  0
  133.0650  123.8570   63.8180 N   0  0  0  0  0  0  0  0  0  0  0  0
  134.1719  124.9734   66.6198 H   0  0  0  0  0  0  0  0  0  0  0  0
  135.0548  124.2083   65.2552 H   0  0  0  0  0  0  0  0  0  0  0  0
  134.7634  125.9808   65.2552 H   0  0  0  0  0  0  0  0  0  0  0  0
  131.9370  126.2494   65.9641 H   0  0  0  0  0  0  0  0  0  0  0  0
  129.4182  126.1572   65.9706 H   0  0  0  0  0  0  0  0  0  0  0  0
  129.5697  127.1376   64.4732 H   0  0  0  0  0  0  0  0  0  0  0  0
  128.5674  125.6470   64.4732 H   0  0  0  0  0  0  0  0  0  0  0  0
  128.1510  125.2990   62.2560 H   0  0  0  0  0  0  0  0  0  0  0  0
  127.6150  123.8110   62.9340 H   0  0  0  0  0  0  0  0  0  0  0  0
  128.9890  124.0000   59.6800 H   0  0  0  0  0  0  0  0  0  0  0  0
  126.2722  124.0159   58.7861 H   0  0  0  0  0  0  0  0  0  0  0  0
  125.3887  122.7598   56.5857 H   0  0  0  0  0  0  0  0  0  0  0  0
  1  2  1  0
  2  3  2  0
  3  4  1  0
  4  5  1  0
  4  6  2  0
  6  7  1  0
  7  8  1  0
  7  9  2  0
  9 10  1  0
 10 11  2  0
 10 12  1  0
 12 13  1  0
 13 14  1  0
 14 15  2  0
 15 16  1  0
 16 17  1  0
  9 18  1  0
 18 19  1  0
 19 20  2  0
 20  2  1  0
 19  6  1  0
 17 13  2  0
  1 21  1  0
  1 22  1  0
  1 23  1  0
  3 24  1  0
  5 25  1  0
  5 26  1  0
  5 27  1  0
  8 28  1  0
  8 29  1  0
 12 30  1  0
 14 31  1  0
 15 32  1  0
M  END
>  <Binding energies>  (1) 
[-6.84]

>  <Ligand effiencies>  (1) 
[-0.29739130434782607]

>  <Interactions>  (1) 
["V-B:TYR:539:CE2:9845, V-A:GLY:454:C:4043, V-A:HIS:456:CE1:4066, V-B:TYR:539:CZ:9846, V-A:GLY:453:C:4038, V-B:PRO:540:CA:9852, V-A:ARG:545:CG:4919, V-A:ARG:545:CZ:4923, V-A:ARG:545:CD:4920, V-A:GLY:453:CA:4040, V-B:ALA:541:CB:9861, H-A:GLY:454:N:4046, V-B:TYR:539:C:9836, H-A:TYR:484:OH:4344, V-A:GLY:454:CA:4045, V-B:PRO:540:N:9853, V-B:PRO:540:CB:9854, V-B:TYR:539:CD2:9843, H-B:GLU:543:OE2:9879, V-B:GLU:543:CD:9877, V-B:GLU:543:CG:9876, V-A:LEU:475:CD1:4254, H-B:TYR:539:N:9839, V-B:PRO:540:CD:9856, H-B:GLU:543:OE1:9878"]

$$$$
4aj_Grossjean_2025
     RDKit          3D

 32 34  0  0  0  0  0  0  0  0999 V2000
  133.6500  125.1820   65.3850 C   0  0  0  0  0  0  0  0  0  0  0  0
  132.9210  124.7350   64.1310 C   0  0  0  0  0  0  0  0  0  0  0  0
  133.6140  124.4870   62.9490 C   0  0  0  0  0  0  0  0  0  0  0  0
  132.9210  124.0810   61.8030 C   0  0  0  0  0  0  0  0  0  0  0  0
  133.7230  123.8230   60.5360 C   0  0  0  0  0  0  0  0  0  0  0  0
  131.5110  123.9350   61.8970 C   0  0  0  0  0  0  0  0  0  0  0  0
  130.5100  123.5460   60.9400 C   0  0  0  0  0  0  0  0  0  0  0  0
  130.8230  123.2260   59.6430 N   0  0  0  0  0  0  0  0  0  0  0  0
  129.2060  123.5210   61.4580 C   0  0  0  0  0  0  0  0  0  0  0  0
  127.9590  123.1850   60.7680 C   0  0  0  0  0  0  0  0  0  0  0  0
  127.9210  122.2660   59.9470 O   0  0  0  0  0  0  0  0  0  0  0  0
  126.8840  123.9370   61.1100 N   0  0  0  0  0  0  0  0  0  0  0  0
  125.5920  123.8180   60.6170 C   0  0  0  0  0  0  0  0  0  0  0  0
  124.6000  123.1100   61.1150 N   0  0  0  0  0  0  0  0  0  0  0  0
  123.5060  123.2320   60.3880 C   0  0  0  0  0  0  0  0  0  0  0  0
  123.5980  124.0550   59.2690 C   0  0  0  0  0  0  0  0  0  0  0  0
  125.2100  124.7000   59.1740 S   0  0  0  0  0  0  0  0  0  0  0  0
  129.1850  124.0000   63.1560 S   0  0  0  0  0  0  0  0  0  0  0  0
  130.9210  124.2170   63.1660 C   0  0  0  0  0  0  0  0  0  0  0  0
  131.5780  124.6050   64.2600 N   0  0  0  0  0  0  0  0  0  0  0  0
  133.0957  124.8421   66.2722 H   0  0  0  0  0  0  0  0  0  0  0  0
  134.6608  124.7483   65.3958 H   0  0  0  0  0  0  0  0  0  0  0  0
  133.7218  126.2796   65.3958 H   0  0  0  0  0  0  0  0  0  0  0  0
  134.7066  124.6103   62.9160 H   0  0  0  0  0  0  0  0  0  0  0  0
  134.7384  123.4964   60.8049 H   0  0  0  0  0  0  0  0  0  0  0  0
  133.2302  123.0381   59.9435 H   0  0  0  0  0  0  0  0  0  0  0  0
  133.7803  124.7481   59.9435 H   0  0  0  0  0  0  0  0  0  0  0  0
  131.7190  123.4550   59.2380 H   0  0  0  0  0  0  0  0  0  0  0  0
  130.1610  122.7500   59.0460 H   0  0  0  0  0  0  0  0  0  0  0  0
  127.0260  124.6610   61.7990 H   0  0  0  0  0  0  0  0  0  0  0  0
  122.5730  122.7123   60.6514 H   0  0  0  0  0  0  0  0  0  0  0  0
  122.7832  124.2634   58.5600 H   0  0  0  0  0  0  0  0  0  0  0  0
  1  2  1  0
  2  3  2  0
  3  4  1  0
  4  5  1  0
  4  6  2  0
  6  7  1  0
  7  8  1  0
  7  9  2  0
  9 10  1  0
 10 11  2  0
 10 12  1  0
 12 13  1  0
 13 14  2  0
 14 15  1  0
 15 16  2  0
 16 17  1  0
  9 18  1  0
 18 19  1  0
 19 20  2  0
 20  2  1  0
 19  6  1  0
 17 13  1  0
  1 21  1  0
  1 22  1  0
  1 23  1  0
  3 24  1  0
  5 25  1  0
  5 26  1  0
  5 27  1  0
  8 28  1  0
  8 29  1  0
 12 30  1  0
 15 31  1  0
 16 32  1  0
M  END
>  <Binding energies>  (1) 
[-6.62]

>  <Ligand effiencies>  (1) 
[-0.28782608695652173]

>  <Interactions>  (1) 
["H-B:ALA:541:N:9860, V-B:TYR:539:CE2:9845, V-A:HIS:456:CE1:4066, V-B:TYR:539:CZ:9846, V-B:ASN:362:CB:8144, V-B:PRO:540:CA:9852, V-A:ARG:545:CZ:4923, V-A:ARG:545:CD:4920, V-B:ALA:541:CB:9861, V-B:ASN:362:C:8140, H-A:TYR:484:OH:4344, V-A:GLY:454:CA:4045, V-B:PRO:540:CB:9854, V-B:TYR:539:CD2:9843, V-A:ASP:366:CG:3209, H-B:GLU:543:OE2:9879, V-B:GLU:543:CD:9877, V-B:GLU:543:CG:9876, V-B:LEU:363:CA:8153, H-B:TYR:539:OH:9847, V-A:ASP:366:CB:3208, V-B:LEU:363:CD1:8157, V-B:LEU:363:CB:8155, V-A:ASP:366:CA:3206"]

$$$$
4ak_Grossjean_2025
     RDKit          3D

 50 51  0  0  0  0  0  0  0  0999 V2000
  129.7630  122.8180   71.6710 C   0  0  0  0  0  0  0  0  0  0  0  0
  129.5030  123.8270   72.6330 O   0  0  0  0  0  0  0  0  0  0  0  0
  129.1120  125.0690   72.0600 C   0  0  0  0  0  0  0  0  0  0  0  0
  130.1420  126.1460   72.4210 C   0  0  0  0  0  0  0  0  0  0  0  0
  129.5010  127.4130   72.4730 O   0  0  0  0  0  0  0  0  0  0  0  0
  130.1020  128.3960   71.6400 C   0  0  0  0  0  0  0  0  0  0  0  0
  130.3030  127.8150   70.2350 C   0  0  0  0  0  0  0  0  0  0  0  0
  129.1280  127.1190   69.8420 O   0  0  0  0  0  0  0  0  0  0  0  0
  129.0540  126.8570   68.4470 C   0  0  0  0  0  0  0  0  0  0  0  0
  129.1210  125.3370   68.2110 C   0  0  0  0  0  0  0  0  0  0  0  0
  129.9590  124.9570   67.0730 N   0  0  0  0  0  0  0  0  0  0  0  0
  129.8710  125.4760   65.8320 C   0  0  0  0  0  0  0  0  0  0  0  0
  129.0630  126.3600   65.5410 O   0  0  0  0  0  0  0  0  0  0  0  0
  130.7990  124.9340   64.8410 C   0  0  0  0  0  0  0  0  0  0  0  0
  132.3980  125.6490   64.6350 S   0  0  0  0  0  0  0  0  0  0  0  0
  132.8040  124.4940   63.3860 C   0  0  0  0  0  0  0  0  0  0  0  0
  133.9850  124.5100   62.7660 N   0  0  0  0  0  0  0  0  0  0  0  0
  134.1720  123.5620   61.8160 C   0  0  0  0  0  0  0  0  0  0  0  0
  135.5220  123.5960   61.1240 C   0  0  0  0  0  0  0  0  0  0  0  0
  133.2150  122.6070   61.4750 C   0  0  0  0  0  0  0  0  0  0  0  0
  131.9770  122.5930   62.1270 C   0  0  0  0  0  0  0  0  0  0  0  0
  130.9640  121.5340   61.7180 C   0  0  0  0  0  0  0  0  0  0  0  0
  131.7440  123.5730   63.1290 C   0  0  0  0  0  0  0  0  0  0  0  0
  130.6150  123.8430   63.9780 C   0  0  0  0  0  0  0  0  0  0  0  0
  129.4670  123.0930   63.9310 N   0  0  0  0  0  0  0  0  0  0  0  0
  130.0058  121.8759   72.1843 H   0  0  0  0  0  0  0  0  0  0  0  0
  128.8727  122.6736   71.0413 H   0  0  0  0  0  0  0  0  0  0  0  0
  130.6122  123.1219   71.0413 H   0  0  0  0  0  0  0  0  0  0  0  0
  129.0566  124.9668   70.9662 H   0  0  0  0  0  0  0  0  0  0  0  0
  128.1259  125.3590   72.4519 H   0  0  0  0  0  0  0  0  0  0  0  0
  130.5835  125.9175   73.4022 H   0  0  0  0  0  0  0  0  0  0  0  0
  130.9351  126.1663   71.6590 H   0  0  0  0  0  0  0  0  0  0  0  0
  129.4481  129.2787   71.5826 H   0  0  0  0  0  0  0  0  0  0  0  0
  131.0752  128.6901   72.0600 H   0  0  0  0  0  0  0  0  0  0  0  0
  130.5015  128.6312   69.5248 H   0  0  0  0  0  0  0  0  0  0  0  0
  131.1570  127.1218   70.2417 H   0  0  0  0  0  0  0  0  0  0  0  0
  128.1065  127.2493   68.0491 H   0  0  0  0  0  0  0  0  0  0  0  0
  129.8950  127.3471   67.9347 H   0  0  0  0  0  0  0  0  0  0  0  0
  129.5276  124.8622   69.1161 H   0  0  0  0  0  0  0  0  0  0  0  0
  128.0984  125.0003   67.9852 H   0  0  0  0  0  0  0  0  0  0  0  0
  130.6480  124.2390   67.2470 H   0  0  0  0  0  0  0  0  0  0  0  0
  136.3210  123.6161   61.8798 H   0  0  0  0  0  0  0  0  0  0  0  0
  135.6344  122.7004   60.4953 H   0  0  0  0  0  0  0  0  0  0  0  0
  135.5892  124.4961   60.4953 H   0  0  0  0  0  0  0  0  0  0  0  0
  133.4333  121.8645   60.6933 H   0  0  0  0  0  0  0  0  0  0  0  0
  130.5272  121.0773   62.6184 H   0  0  0  0  0  0  0  0  0  0  0  0
  130.1672  122.0003   61.1200 H   0  0  0  0  0  0  0  0  0  0  0  0
  131.4653  120.7587   61.1200 H   0  0  0  0  0  0  0  0  0  0  0  0
  128.6470  123.4030   63.4280 H   0  0  0  0  0  0  0  0  0  0  0  0
  129.4040  122.2000   64.3990 H   0  0  0  0  0  0  0  0  0  0  0  0
  1  2  1  0
  2  3  1  0
  3  4  1  0
  4  5  1  0
  5  6  1  0
  6  7  1  0
  7  8  1  0
  8  9  1  0
  9 10  1  0
 10 11  1  0
 11 12  1  0
 12 13  2  0
 12 14  1  0
 14 15  1  0
 15 16  1  0
 16 17  2  0
 17 18  1  0
 18 19  1  0
 18 20  2  0
 20 21  1  0
 21 22  1  0
 21 23  2  0
 23 24  1  0
 24 25  1  0
 24 14  2  0
 23 16  1  0
  1 26  1  0
  1 27  1  0
  1 28  1  0
  3 29  1  0
  3 30  1  0
  4 31  1  0
  4 32  1  0
  6 33  1  0
  6 34  1  0
  7 35  1  0
  7 36  1  0
  9 37  1  0
  9 38  1  0
 10 39  1  0
 10 40  1  0
 11 41  1  0
 19 42  1  0
 19 43  1  0
 19 44  1  0
 20 45  1  0
 22 46  1  0
 22 47  1  0
 22 48  1  0
 25 49  1  0
 25 50  1  0
M  END
>  <Binding energies>  (1) 
[-6.14]

>  <Ligand effiencies>  (1) 
[-0.21928571428571428]

>  <Interactions>  (1) 
["V-B:TYR:539:CE2:9845, V-A:HIS:456:CE1:4066, V-A:GLY:453:C:4038, V-A:ARG:545:CZ:4923, V-A:GLY:453:CA:4040, V-B:ALA:541:CB:9861, H-A:GLY:454:N:4046, H-A:TYR:484:OH:4344, V-A:GLY:454:CA:4045, V-B:TYR:539:CD2:9843, V-A:ASP:366:CG:3209, H-B:GLU:543:OE2:9879, V-A:TYR:484:CE1:4341, V-B:HIS:456:CD2:9036, H-A:LYS:547:NZ:4948, V-B:LYS:547:CE:9919, V-B:GLU:543:CB:9875, V-B:GLU:543:CD:9877, V-B:HIS:456:CE1:9038, V-A:TYR:484:CZ:4343, V-B:GLU:543:CG:9876, V-A:GLY:544:C:4909, V-A:ILE:369:CB:3232, H-A:ARG:545:NH1:4924, V-A:LEU:475:CD1:4254, V-A:ILE:369:CG1:3234, V-A:HIS:456:CD2:4064, V-B:GLU:543:C:9871, V-B:GLU:543:CA:9873, V-A:ASP:366:CA:3206, V-A:TYR:484:CG:4338, V-A:TYR:484:CD2:4340, V-A:TYR:484:CB:4337, H-B:LYS:547:NZ:9920, V-A:TYR:484:CD1:4339, H-A:HIS:456:NE2:4067"]

$$$$
4al_Grossjean_2025
     RDKit          3D

 28 29  0  0  0  0  0  0  0  0999 V2000
  125.6180  131.3940   58.8400 C   0  0  0  0  0  0  0  0  0  0  0  0
  126.5880  132.4120   58.6410 O   0  0  0  0  0  0  0  0  0  0  0  0
  127.5050  132.6980   59.6010 C   0  0  0  0  0  0  0  0  0  0  0  0
  127.2480  133.3140   60.6390 O   0  0  0  0  0  0  0  0  0  0  0  0
  128.8560  132.1930   59.2760 C   0  0  0  0  0  0  0  0  0  0  0  0
  129.2800  131.8250   57.6020 S   0  0  0  0  0  0  0  0  0  0  0  0
  130.8920  131.3370   58.0750 C   0  0  0  0  0  0  0  0  0  0  0  0
  131.7890  130.9120   57.1840 N   0  0  0  0  0  0  0  0  0  0  0  0
  133.0020  130.5630   57.6810 C   0  0  0  0  0  0  0  0  0  0  0  0
  134.0080  130.0820   56.6510 C   0  0  0  0  0  0  0  0  0  0  0  0
  133.3340  130.6300   59.0320 C   0  0  0  0  0  0  0  0  0  0  0  0
  132.3910  131.0770   59.9640 C   0  0  0  0  0  0  0  0  0  0  0  0
  132.8000  131.1320   61.4270 C   0  0  0  0  0  0  0  0  0  0  0  0
  131.1080  131.4510   59.4800 C   0  0  0  0  0  0  0  0  0  0  0  0
  129.9290  131.9410   60.1390 C   0  0  0  0  0  0  0  0  0  0  0  0
  129.8710  132.1420   61.4940 N   0  0  0  0  0  0  0  0  0  0  0  0
  125.4678  131.2364   59.9182 H   0  0  0  0  0  0  0  0  0  0  0  0
  124.6672  131.6981   58.3780 H   0  0  0  0  0  0  0  0  0  0  0  0
  125.9677  130.4590   58.3780 H   0  0  0  0  0  0  0  0  0  0  0  0
  134.8859  129.6623   57.1640 H   0  0  0  0  0  0  0  0  0  0  0  0
  133.5461  129.3073   56.0213 H   0  0  0  0  0  0  0  0  0  0  0  0
  134.3210  130.9279   56.0213 H   0  0  0  0  0  0  0  0  0  0  0  0
  134.3384  130.3312   59.3665 H   0  0  0  0  0  0  0  0  0  0  0  0
  131.9094  131.0122   62.0614 H   0  0  0  0  0  0  0  0  0  0  0  0
  133.5130  130.3216   61.6391 H   0  0  0  0  0  0  0  0  0  0  0  0
  133.2736  132.1019   61.6391 H   0  0  0  0  0  0  0  0  0  0  0  0
  130.5510  131.7420   62.1240 H   0  0  0  0  0  0  0  0  0  0  0  0
  129.1390  132.7020   61.9110 H   0  0  0  0  0  0  0  0  0  0  0  0
  1  2  1  0
  2  3  1  0
  3  4  2  0
  3  5  1  0
  5  6  1  0
  6  7  1  0
  7  8  2  0
  8  9  1  0
  9 10  1  0
  9 11  2  0
 11 12  1  0
 12 13  1  0
 12 14  2  0
 14 15  1  0
 15 16  1  0
 15  5  2  0
 14  7  1  0
  1 17  1  0
  1 18  1  0
  1 19  1  0
 10 20  1  0
 10 21  1  0
 10 22  1  0
 11 23  1  0
 13 24  1  0
 13 25  1  0
 13 26  1  0
 16 27  1  0
 16 28  1  0
M  END
>  <Binding energies>  (1) 
[-4.82]

>  <Ligand effiencies>  (1) 
[-0.2677777777777778]

>  <Interactions>  (1) 
["V-A:ASP:366:CG:3209, V-A:GLU:543:CD:4905, H-A:GLU:543:OE2:4907, V-A:ASP:366:CB:3208, V-A:LEU:363:CB:3183, V-A:PRO:540:C:4878, V-A:ASN:362:C:3168, V-A:PRO:540:CA:4880, V-A:PRO:540:CB:4882, V-A:LEU:363:CD1:3185, V-A:TYR:539:C:4864, V-A:ALA:541:CB:4889, V-A:ASN:362:CB:3172, V-A:LEU:363:CA:3181, V-A:TYR:539:CE2:4873, V-A:TYR:539:CD2:4871, V-A:ALA:541:CA:4887, V-A:TYR:531:CZ:4791, H-A:TYR:531:OH:4792, V-A:LEU:363:CG:3184, V-A:LEU:363:C:3179, V-A:TYR:531:CE2:4790"]

$$$$
4ba_Grossjean_2025
     RDKit          3D

 44 46  0  0  0  0  0  0  0  0999 V2000
  126.1200  128.3950   74.3330 C   0  0  0  0  0  0  0  0  0  0  0  0
  126.6090  127.6020   73.1060 C   0  0  0  0  0  0  0  0  0  0  0  0
  128.1040  127.7770   72.7680 C   0  0  0  0  0  0  0  0  0  0  0  0
  128.8680  128.2460   73.6150 O   0  0  0  0  0  0  0  0  0  0  0  0
  128.5650  127.3550   71.4030 C   0  0  0  0  0  0  0  0  0  0  0  0
  129.7820  127.8400   70.9080 C   0  0  0  0  0  0  0  0  0  0  0  0
  130.2320  127.4660   69.6450 C   0  0  0  0  0  0  0  0  0  0  0  0
  129.4790  126.5980   68.8530 C   0  0  0  0  0  0  0  0  0  0  0  0
  130.0240  126.2930   67.5910 N   0  0  0  0  0  0  0  0  0  0  0  0
  130.1670  127.0740   66.4910 C   0  0  0  0  0  0  0  0  0  0  0  0
  129.7750  128.2390   66.4150 O   0  0  0  0  0  0  0  0  0  0  0  0
  130.8130  126.4280   65.3470 C   0  0  0  0  0  0  0  0  0  0  0  0
  132.1740  125.3370   65.5970 S   0  0  0  0  0  0  0  0  0  0  0  0
  132.3500  125.0880   63.8760 C   0  0  0  0  0  0  0  0  0  0  0  0
  133.2980  124.2910   63.3840 N   0  0  0  0  0  0  0  0  0  0  0  0
  133.3360  124.1770   62.0360 C   0  0  0  0  0  0  0  0  0  0  0  0
  134.4290  123.2710   61.4960 C   0  0  0  0  0  0  0  0  0  0  0  0
  132.4560  124.8300   61.1780 C   0  0  0  0  0  0  0  0  0  0  0  0
  131.4550  125.6710   61.6910 C   0  0  0  0  0  0  0  0  0  0  0  0
  130.5080  126.3670   60.7080 C   0  0  0  0  0  0  0  0  0  0  0  0
  129.2290  126.0310   60.8880 F   0  0  0  0  0  0  0  0  0  0  0  0
  130.5980  127.6890   60.8520 F   0  0  0  0  0  0  0  0  0  0  0  0
  130.8350  126.0370   59.4580 F   0  0  0  0  0  0  0  0  0  0  0  0
  131.3910  125.8180   63.1090 C   0  0  0  0  0  0  0  0  0  0  0  0
  130.5310  126.5830   63.9790 C   0  0  0  0  0  0  0  0  0  0  0  0
  129.5260  127.3870   63.5050 N   0  0  0  0  0  0  0  0  0  0  0  0
  128.2560  126.1130   69.3390 C   0  0  0  0  0  0  0  0  0  0  0  0
  127.8060  126.4880   70.6030 C   0  0  0  0  0  0  0  0  0  0  0  0
  126.4372  127.8807   75.2522 H   0  0  0  0  0  0  0  0  0  0  0  0
  126.5513  129.4067   74.3115 H   0  0  0  0  0  0  0  0  0  0  0  0
  125.0224  128.4638   74.3115 H   0  0  0  0  0  0  0  0  0  0  0  0
  126.4249  126.5341   73.2948 H   0  0  0  0  0  0  0  0  0  0  0  0
  126.0514  127.9965   72.2438 H   0  0  0  0  0  0  0  0  0  0  0  0
  130.3875  128.5224   71.5226 H   0  0  0  0  0  0  0  0  0  0  0  0
  131.1884  127.8576   69.2683 H   0  0  0  0  0  0  0  0  0  0  0  0
  130.3400  125.3400   67.4990 H   0  0  0  0  0  0  0  0  0  0  0  0
  134.9767  122.8170   62.3350 H   0  0  0  0  0  0  0  0  0  0  0  0
  133.9777  122.4785   60.8810 H   0  0  0  0  0  0  0  0  0  0  0  0
  135.1241  123.8614   60.8810 H   0  0  0  0  0  0  0  0  0  0  0  0
  132.5451  124.6865   60.0910 H   0  0  0  0  0  0  0  0  0  0  0  0
  129.6760  128.3640   63.2980 H   0  0  0  0  0  0  0  0  0  0  0  0
  128.5940  127.0290   63.3530 H   0  0  0  0  0  0  0  0  0  0  0  0
  127.6503  125.4345   68.7203 H   0  0  0  0  0  0  0  0  0  0  0  0
  126.8468  126.1007   70.9771 H   0  0  0  0  0  0  0  0  0  0  0  0
  1  2  1  0
  2  3  1  0
  3  4  2  0
  3  5  1  0
  5  6  2  0
  6  7  1  0
  7  8  2  0
  8  9  1  0
  9 10  1  0
 10 11  2  0
 10 12  1  0
 12 13  1  0
 13 14  1  0
 14 15  2  0
 15 16  1  0
 16 17  1  0
 16 18  2  0
 18 19  1  0
 19 20  1  0
 20 21  1  0
 20 22  1  0
 20 23  1  0
 19 24  2  0
 24 25  1  0
 25 26  1  0
  8 27  1  0
 27 28  2  0
 28  5  1  0
 25 12  2  0
 24 14  1  0
  1 29  1  0
  1 30  1  0
  1 31  1  0
  2 32  1  0
  2 33  1  0
  6 34  1  0
  7 35  1  0
  9 36  1  0
 17 37  1  0
 17 38  1  0
 17 39  1  0
 18 40  1  0
 26 41  1  0
 26 42  1  0
 27 43  1  0
 28 44  1  0
M  END
>  <Binding energies>  (1) 
[-6.92]

>  <Ligand effiencies>  (1) 
[-0.2232258064516129]

>  <Interactions>  (1) 
["V-A:HIS:456:CE1:4066, V-A:GLY:453:C:4038, V-A:ARG:545:CZ:4923, V-A:GLY:453:CA:4040, H-A:GLY:454:N:4046, H-A:TYR:484:OH:4344, V-A:GLY:454:CA:4045, V-A:ASP:366:CG:3209, H-B:GLU:543:OE2:9879, V-B:HIS:456:CD2:9036, H-A:LYS:547:NZ:4948, V-B:GLY:544:C:9881, V-B:LYS:547:CE:9919, V-B:GLU:543:CB:9875, V-B:HIS:456:CB:9033, V-B:HIS:456:CE1:9038, V-A:GLU:543:CD:4905, V-A:ILE:369:CG1:3234, H-A:GLU:543:OE2:4907, H-A:GLU:543:OE1:4906, V-A:HIS:456:CD2:4064, V-B:GLU:543:C:9871, H-B:GLU:543:OE1:9878, V-B:HIS:456:CG:9034, H-A:HIS:456:NE2:4067"]

$$$$
4bb_Grossjean_2025
     RDKit          3D

 41 43  0  0  0  0  0  0  0  0999 V2000
  126.6850  127.6390   73.1110 C   0  0  0  0  0  0  0  0  0  0  0  0
  128.1610  127.8170   72.7480 C   0  0  0  0  0  0  0  0  0  0  0  0
  128.9120  128.3060   73.5940 O   0  0  0  0  0  0  0  0  0  0  0  0
  128.6120  127.3990   71.3810 C   0  0  0  0  0  0  0  0  0  0  0  0
  129.8100  127.9100   70.8660 C   0  0  0  0  0  0  0  0  0  0  0  0
  130.2500  127.5390   69.5990 C   0  0  0  0  0  0  0  0  0  0  0  0
  129.5080  126.6450   68.8260 C   0  0  0  0  0  0  0  0  0  0  0  0
  130.0440  126.3400   67.5590 N   0  0  0  0  0  0  0  0  0  0  0  0
  129.9380  127.0080   66.3850 C   0  0  0  0  0  0  0  0  0  0  0  0
  129.2880  128.0420   66.2330 O   0  0  0  0  0  0  0  0  0  0  0  0
  130.6410  126.3970   65.2530 C   0  0  0  0  0  0  0  0  0  0  0  0
  132.0410  125.3640   65.5320 S   0  0  0  0  0  0  0  0  0  0  0  0
  132.2650  125.1230   63.8150 C   0  0  0  0  0  0  0  0  0  0  0  0
  133.2500  124.3620   63.3420 N   0  0  0  0  0  0  0  0  0  0  0  0
  133.3220  124.2530   61.9950 C   0  0  0  0  0  0  0  0  0  0  0  0
  134.4500  123.3800   61.4770 C   0  0  0  0  0  0  0  0  0  0  0  0
  132.4410  124.8810   61.1190 C   0  0  0  0  0  0  0  0  0  0  0  0
  131.4010  125.6840   61.6110 C   0  0  0  0  0  0  0  0  0  0  0  0
  130.4560  126.3540   60.6080 C   0  0  0  0  0  0  0  0  0  0  0  0
  130.6620  125.9560   59.3510 F   0  0  0  0  0  0  0  0  0  0  0  0
  129.1910  126.0660   60.9170 F   0  0  0  0  0  0  0  0  0  0  0  0
  130.6260  127.6760   60.6410 F   0  0  0  0  0  0  0  0  0  0  0  0
  131.2960  125.8210   63.0280 C   0  0  0  0  0  0  0  0  0  0  0  0
  130.3840  126.5430   63.8800 C   0  0  0  0  0  0  0  0  0  0  0  0
  129.3530  127.3010   63.3860 N   0  0  0  0  0  0  0  0  0  0  0  0
  128.3030  126.1340   69.3320 C   0  0  0  0  0  0  0  0  0  0  0  0
  127.8630  126.5080   70.5990 C   0  0  0  0  0  0  0  0  0  0  0  0
  126.5756  127.6258   74.2055 H   0  0  0  0  0  0  0  0  0  0  0  0
  126.1017  128.4733   72.6942 H   0  0  0  0  0  0  0  0  0  0  0  0
  126.3168  126.6899   72.6942 H   0  0  0  0  0  0  0  0  0  0  0  0
  130.4079  128.6102   71.4679 H   0  0  0  0  0  0  0  0  0  0  0  0
  131.1893  127.9534   69.2040 H   0  0  0  0  0  0  0  0  0  0  0  0
  130.5670  125.4770   67.5310 H   0  0  0  0  0  0  0  0  0  0  0  0
  135.0025  122.9524   62.3266 H   0  0  0  0  0  0  0  0  0  0  0  0
  134.0329  122.5671   60.8644 H   0  0  0  0  0  0  0  0  0  0  0  0
  135.1323  123.9877   60.8644 H   0  0  0  0  0  0  0  0  0  0  0  0
  132.5610  124.7468   60.0338 H   0  0  0  0  0  0  0  0  0  0  0  0
  128.4710  126.8910   63.1130 H   0  0  0  0  0  0  0  0  0  0  0  0
  129.4410  128.3030   63.2770 H   0  0  0  0  0  0  0  0  0  0  0  0
  127.7050  125.4368   68.7267 H   0  0  0  0  0  0  0  0  0  0  0  0
  126.9190  126.1007   70.9902 H   0  0  0  0  0  0  0  0  0  0  0  0
  1  2  1  0
  2  3  2  0
  2  4  1  0
  4  5  2  0
  5  6  1  0
  6  7  2  0
  7  8  1  0
  8  9  1  0
  9 10  2  0
  9 11  1  0
 11 12  1  0
 12 13  1  0
 13 14  2  0
 14 15  1  0
 15 16  1  0
 15 17  2  0
 17 18  1  0
 18 19  1  0
 19 20  1  0
 19 21  1  0
 19 22  1  0
 18 23  2  0
 23 24  1  0
 24 25  1  0
  7 26  1  0
 26 27  2  0
 27  4  1  0
 24 11  2  0
 23 13  1  0
  1 28  1  0
  1 29  1  0
  1 30  1  0
  5 31  1  0
  6 32  1  0
  8 33  1  0
 16 34  1  0
 16 35  1  0
 16 36  1  0
 17 37  1  0
 25 38  1  0
 25 39  1  0
 26 40  1  0
 27 41  1  0
M  END
>  <Binding energies>  (1) 
[-6.69]

>  <Ligand effiencies>  (1) 
[-0.223]

>  <Interactions>  (1) 
["V-A:HIS:456:CE1:4066, V-A:GLY:453:C:4038, V-A:ARG:545:CZ:4923, V-A:GLY:453:CA:4040, H-A:GLY:454:N:4046, H-A:TYR:484:OH:4344, V-A:GLY:454:CA:4045, V-A:ASP:366:CG:3209, H-B:GLU:543:OE2:9879, V-B:HIS:456:CD2:9036, H-A:LYS:547:NZ:4948, V-B:GLY:544:C:9881, V-B:LYS:547:CE:9919, V-B:GLU:543:CB:9875, V-B:HIS:456:CB:9033, V-B:HIS:456:CE1:9038, V-A:GLU:543:CD:4905, V-A:ILE:369:CG1:3234, H-A:GLU:543:OE2:4907, H-A:GLU:543:OE1:4906, V-A:HIS:456:CD2:4064, V-B:GLU:543:C:9871, H-B:GLU:543:OE1:9878, V-B:HIS:456:CG:9034, H-A:HIS:456:NE2:4067"]

$$$$
4bc_Grossjean_2025
     RDKit          3D

 40 42  0  0  0  0  0  0  0  0999 V2000
  128.3840  127.8000   72.9630 C   0  0  0  0  0  0  0  0  0  0  0  0
  127.7000  127.3330   71.8050 O   0  0  0  0  0  0  0  0  0  0  0  0
  128.4090  127.1410   70.6350 C   0  0  0  0  0  0  0  0  0  0  0  0
  127.9410  126.1430   69.7810 C   0  0  0  0  0  0  0  0  0  0  0  0
  128.5910  125.8750   68.5790 C   0  0  0  0  0  0  0  0  0  0  0  0
  129.7170  126.6130   68.2100 C   0  0  0  0  0  0  0  0  0  0  0  0
  130.3160  126.2620   66.9860 N   0  0  0  0  0  0  0  0  0  0  0  0
  131.4000  126.8020   66.3770 C   0  0  0  0  0  0  0  0  0  0  0  0
  132.0330  127.7600   66.8220 O   0  0  0  0  0  0  0  0  0  0  0  0
  131.7900  126.1700   65.1120 C   0  0  0  0  0  0  0  0  0  0  0  0
  133.1240  125.0200   65.0700 S   0  0  0  0  0  0  0  0  0  0  0  0
  132.9280  124.7860   63.3490 C   0  0  0  0  0  0  0  0  0  0  0  0
  133.7140  123.9530   62.6660 N   0  0  0  0  0  0  0  0  0  0  0  0
  133.4670  123.8570   61.3400 C   0  0  0  0  0  0  0  0  0  0  0  0
  134.3690  122.8990   60.5820 C   0  0  0  0  0  0  0  0  0  0  0  0
  132.4640  124.5680   60.6850 C   0  0  0  0  0  0  0  0  0  0  0  0
  131.6350  125.4470   61.3980 C   0  0  0  0  0  0  0  0  0  0  0  0
  130.5470  126.2100   60.6330 C   0  0  0  0  0  0  0  0  0  0  0  0
  130.6190  127.5310   60.8020 F   0  0  0  0  0  0  0  0  0  0  0  0
  130.6610  125.9670   59.3280 F   0  0  0  0  0  0  0  0  0  0  0  0
  129.3430  125.8190   61.0510 F   0  0  0  0  0  0  0  0  0  0  0  0
  131.8670  125.5710   62.8010 C   0  0  0  0  0  0  0  0  0  0  0  0
  131.2330  126.3500   63.8360 C   0  0  0  0  0  0  0  0  0  0  0  0
  130.1780  127.1910   63.5880 N   0  0  0  0  0  0  0  0  0  0  0  0
  130.2030  127.6090   69.0710 C   0  0  0  0  0  0  0  0  0  0  0  0
  129.5510  127.8730   70.2720 C   0  0  0  0  0  0  0  0  0  0  0  0
  127.8635  127.4446   73.8646 H   0  0  0  0  0  0  0  0  0  0  0  0
  129.4149  127.4163   72.9596 H   0  0  0  0  0  0  0  0  0  0  0  0
  128.4021  128.8998   72.9596 H   0  0  0  0  0  0  0  0  0  0  0  0
  127.0496  125.5617   70.0595 H   0  0  0  0  0  0  0  0  0  0  0  0
  128.2161  125.0794   67.9183 H   0  0  0  0  0  0  0  0  0  0  0  0
  129.8440  125.5220   66.4870 H   0  0  0  0  0  0  0  0  0  0  0  0
  134.9417  122.2908   61.2976 H   0  0  0  0  0  0  0  0  0  0  0  0
  133.7555  122.2404   59.9496 H   0  0  0  0  0  0  0  0  0  0  0  0
  135.0633  123.4718   59.9496 H   0  0  0  0  0  0  0  0  0  0  0  0
  132.3211  124.4394   59.6019 H   0  0  0  0  0  0  0  0  0  0  0  0
  130.3130  128.1600   63.3400 H   0  0  0  0  0  0  0  0  0  0  0  0
  129.2230  126.8640   63.6440 H   0  0  0  0  0  0  0  0  0  0  0  0
  131.1008  128.1821   68.7962 H   0  0  0  0  0  0  0  0  0  0  0  0
  129.9323  128.6591   70.9403 H   0  0  0  0  0  0  0  0  0  0  0  0
  1  2  1  0
  2  3  1  0
  3  4  2  0
  4  5  1  0
  5  6  2  0
  6  7  1  0
  7  8  1  0
  8  9  2  0
  8 10  1  0
 10 11  1  0
 11 12  1  0
 12 13  2  0
 13 14  1  0
 14 15  1  0
 14 16  2  0
 16 17  1  0
 17 18  1  0
 18 19  1  0
 18 20  1  0
 18 21  1  0
 17 22  2  0
 22 23  1  0
 23 24  1  0
  6 25  1  0
 25 26  2  0
 26  3  1  0
 23 10  2  0
 22 12  1  0
  1 27  1  0
  1 28  1  0
  1 29  1  0
  4 30  1  0
  5 31  1  0
  7 32  1  0
 15 33  1  0
 15 34  1  0
 15 35  1  0
 16 36  1  0
 24 37  1  0
 24 38  1  0
 25 39  1  0
 26 40  1  0
M  END
>  <Binding energies>  (1) 
[-5.89]

>  <Ligand effiencies>  (1) 
[-0.20310344827586205]

>  <Interactions>  (1) 
["V-A:HIS:456:CE1:4066, V-A:ARG:545:CG:4919, V-A:ARG:545:CZ:4923, H-A:GLY:454:N:4046, V-A:ASP:366:CG:3209, V-B:HIS:456:CD2:9036, V-B:GLY:544:C:9881, V-B:GLU:543:CB:9875, V-B:HIS:456:CE1:9038, V-A:GLU:543:CD:4905, V-A:ILE:369:CB:3232, V-A:ILE:369:CG2:3233, V-A:ILE:369:CG1:3234, H-A:GLU:543:OE2:4907, H-A:GLU:543:OE1:4906, V-B:GLU:543:C:9871, H-A:ARG:545:NE:4921"]

$$$$
4bd_Grossjean_2025
     RDKit          3D

 36 38  0  0  0  0  0  0  0  0999 V2000
  134.7000  125.0210   65.9880 C   0  0  0  0  0  0  0  0  0  0  0  0
  133.3840  124.9050   65.2390 C   0  0  0  0  0  0  0  0  0  0  0  0
  132.2990  125.7130   65.5650 C   0  0  0  0  0  0  0  0  0  0  0  0
  131.0880  125.5940   64.8660 C   0  0  0  0  0  0  0  0  0  0  0  0
  129.9190  126.5030   65.2630 C   0  0  0  0  0  0  0  0  0  0  0  0
  129.4240  127.1950   64.2350 F   0  0  0  0  0  0  0  0  0  0  0  0
  128.9270  125.7690   65.7650 F   0  0  0  0  0  0  0  0  0  0  0  0
  130.3230  127.3830   66.1780 F   0  0  0  0  0  0  0  0  0  0  0  0
  131.0290  124.6230   63.8230 C   0  0  0  0  0  0  0  0  0  0  0  0
  129.9860  124.2240   62.9090 C   0  0  0  0  0  0  0  0  0  0  0  0
  128.7430  124.8010   62.9100 N   0  0  0  0  0  0  0  0  0  0  0  0
  130.3580  123.1960   62.0260 C   0  0  0  0  0  0  0  0  0  0  0  0
  129.5510  122.5450   60.9900 C   0  0  0  0  0  0  0  0  0  0  0  0
  129.5650  121.3210   60.8600 O   0  0  0  0  0  0  0  0  0  0  0  0
  128.8030  123.3800   60.2260 N   0  0  0  0  0  0  0  0  0  0  0  0
  127.9640  123.0840   59.1360 C   0  0  0  0  0  0  0  0  0  0  0  0
  126.6580  123.5770   59.2180 C   0  0  0  0  0  0  0  0  0  0  0  0
  125.7540  123.3460   58.1850 C   0  0  0  0  0  0  0  0  0  0  0  0
  126.1570  122.6270   57.0630 C   0  0  0  0  0  0  0  0  0  0  0  0
  127.4580  122.1410   56.9630 C   0  0  0  0  0  0  0  0  0  0  0  0
  128.3660  122.3700   57.9950 C   0  0  0  0  0  0  0  0  0  0  0  0
  132.0260  122.6950   62.2970 S   0  0  0  0  0  0  0  0  0  0  0  0
  132.2130  123.8570   63.5900 C   0  0  0  0  0  0  0  0  0  0  0  0
  133.3600  123.9750   64.2560 N   0  0  0  0  0  0  0  0  0  0  0  0
  134.5082  125.0041   67.0710 H   0  0  0  0  0  0  0  0  0  0  0  0
  135.3514  124.1768   65.7177 H   0  0  0  0  0  0  0  0  0  0  0  0
  135.1936  125.9661   65.7177 H   0  0  0  0  0  0  0  0  0  0  0  0
  132.3912  126.4501   66.3763 H   0  0  0  0  0  0  0  0  0  0  0  0
  127.8980  124.2530   62.9960 H   0  0  0  0  0  0  0  0  0  0  0  0
  128.6280  125.8020   62.8320 H   0  0  0  0  0  0  0  0  0  0  0  0
  128.8330  124.3580   60.4760 H   0  0  0  0  0  0  0  0  0  0  0  0
  126.3436  124.1499   60.1028 H   0  0  0  0  0  0  0  0  0  0  0  0
  124.7255  123.7299   58.2549 H   0  0  0  0  0  0  0  0  0  0  0  0
  125.4414  122.4412   56.2485 H   0  0  0  0  0  0  0  0  0  0  0  0
  127.7685  121.5773   56.0709 H   0  0  0  0  0  0  0  0  0  0  0  0
  129.3961  121.9922   57.9163 H   0  0  0  0  0  0  0  0  0  0  0  0
  1  2  1  0
  2  3  2  0
  3  4  1  0
  4  5  1  0
  5  6  1  0
  5  7  1  0
  5  8  1  0
  4  9  2  0
  9 10  1  0
 10 11  1  0
 10 12  2  0
 12 13  1  0
 13 14  2  0
 13 15  1  0
 15 16  1  0
 16 17  2  0
 17 18  1  0
 18 19  2  0
 19 20  1  0
 20 21  2  0
 12 22  1  0
 22 23  1  0
 23 24  2  0
 24  2  1  0
 23  9  1  0
 21 16  1  0
  1 25  1  0
  1 26  1  0
  1 27  1  0
  3 28  1  0
 11 29  1  0
 11 30  1  0
 15 31  1  0
 17 32  1  0
 18 33  1  0
 19 34  1  0
 20 35  1  0
 21 36  1  0
M  END
>  <Binding energies>  (1) 
[-6.45]

>  <Ligand effiencies>  (1) 
[-0.2388888888888889]

>  <Interactions>  (1) 
["V-B:TYR:539:CE2:9845, V-A:GLY:454:C:4043, V-B:TYR:539:CA:9838, V-A:HIS:456:CE1:4066, V-B:TYR:539:CG:9841, V-B:TYR:539:CD1:9842, V-B:TYR:539:CZ:9846, V-A:GLY:453:C:4038, V-B:PRO:540:CA:9852, V-A:ARG:545:CG:4919, V-A:ARG:545:CZ:4923, V-B:TYR:539:CE1:9844, V-A:ARG:545:CD:4920, V-A:GLY:453:CA:4040, V-B:ALA:541:CB:9861, H-A:GLY:454:N:4046, V-B:TYR:539:C:9836, H-A:TYR:484:OH:4344, V-A:GLY:454:CA:4045, V-B:PRO:540:N:9853, V-B:PRO:540:CB:9854, V-B:TYR:539:CD2:9843, H-B:GLU:543:OE2:9879, V-A:GLU:543:CB:4903, V-B:GLU:543:CB:9875, V-B:GLU:543:CD:9877, V-B:GLU:543:CG:9876, V-A:GLU:543:CD:4905, V-A:LEU:475:CD1:4254, V-B:PRO:540:CD:9856, H-B:GLU:543:OE1:9878"]

$$$$
4be_Grossjean_2025
     RDKit          3D

 38 40  0  0  0  0  0  0  0  0999 V2000
  124.4470  123.8950   58.1560 C   0  0  0  0  0  0  0  0  0  0  0  0
  125.8580  123.3390   58.1110 C   0  0  0  0  0  0  0  0  0  0  0  0
  126.2900  122.5290   57.0580 C   0  0  0  0  0  0  0  0  0  0  0  0
  127.6010  122.0510   57.0840 C   0  0  0  0  0  0  0  0  0  0  0  0
  128.4380  122.3900   58.1500 C   0  0  0  0  0  0  0  0  0  0  0  0
  127.9430  123.2110   59.1690 C   0  0  0  0  0  0  0  0  0  0  0  0
  128.8330  123.5100   60.2160 N   0  0  0  0  0  0  0  0  0  0  0  0
  129.5710  122.6620   60.9750 C   0  0  0  0  0  0  0  0  0  0  0  0
  129.5650  121.4370   60.8380 O   0  0  0  0  0  0  0  0  0  0  0  0
  130.3850  123.2960   62.0150 C   0  0  0  0  0  0  0  0  0  0  0  0
  132.0610  122.8030   62.2500 S   0  0  0  0  0  0  0  0  0  0  0  0
  132.2520  123.9230   63.5780 C   0  0  0  0  0  0  0  0  0  0  0  0
  133.4070  124.0340   64.2330 N   0  0  0  0  0  0  0  0  0  0  0  0
  133.4340  124.9370   65.2410 C   0  0  0  0  0  0  0  0  0  0  0  0
  134.7570  125.0460   65.9760 C   0  0  0  0  0  0  0  0  0  0  0  0
  132.3450  125.7240   65.6030 C   0  0  0  0  0  0  0  0  0  0  0  0
  131.1260  125.6130   64.9170 C   0  0  0  0  0  0  0  0  0  0  0  0
  129.9560  126.5040   65.3500 C   0  0  0  0  0  0  0  0  0  0  0  0
  129.4420  127.2150   64.3430 F   0  0  0  0  0  0  0  0  0  0  0  0
  128.9750  125.7510   65.8460 F   0  0  0  0  0  0  0  0  0  0  0  0
  130.3650  127.3650   66.2810 F   0  0  0  0  0  0  0  0  0  0  0  0
  131.0620  124.6670   63.8510 C   0  0  0  0  0  0  0  0  0  0  0  0
  130.0090  124.2770   62.9460 C   0  0  0  0  0  0  0  0  0  0  0  0
  128.7520  124.8250   62.9910 N   0  0  0  0  0  0  0  0  0  0  0  0
  126.6600  123.6780   59.1530 N   0  0  0  0  0  0  0  0  0  0  0  0
  124.1346  124.0181   59.2035 H   0  0  0  0  0  0  0  0  0  0  0  0
  124.4210  124.8706   57.6486 H   0  0  0  0  0  0  0  0  0  0  0  0
  123.7624  123.1994   57.6486 H   0  0  0  0  0  0  0  0  0  0  0  0
  125.6136  122.2742   56.2288 H   0  0  0  0  0  0  0  0  0  0  0  0
  127.9730  121.4113   56.2701 H   0  0  0  0  0  0  0  0  0  0  0  0
  129.4720  122.0166   58.1876 H   0  0  0  0  0  0  0  0  0  0  0  0
  128.8920  124.4900   60.4510 H   0  0  0  0  0  0  0  0  0  0  0  0
  134.5760  125.0311   67.0609 H   0  0  0  0  0  0  0  0  0  0  0  0
  135.4008  124.1979   65.7000 H   0  0  0  0  0  0  0  0  0  0  0  0
  135.2533  125.9881   65.7000 H   0  0  0  0  0  0  0  0  0  0  0  0
  132.4405  126.4389   66.4336 H   0  0  0  0  0  0  0  0  0  0  0  0
  128.6050  125.8230   63.0430 H   0  0  0  0  0  0  0  0  0  0  0  0
  127.9260  124.2440   62.9820 H   0  0  0  0  0  0  0  0  0  0  0  0
  1  2  1  0
  2  3  2  0
  3  4  1  0
  4  5  2  0
  5  6  1  0
  6  7  1  0
  7  8  1  0
  8  9  2  0
  8 10  1  0
 10 11  1  0
 11 12  1  0
 12 13  2  0
 13 14  1  0
 14 15  1  0
 14 16  2  0
 16 17  1  0
 17 18  1  0
 18 19  1  0
 18 20  1  0
 18 21  1  0
 17 22  2  0
 22 23  1  0
 23 24  1  0
  6 25  2  0
 25  2  1  0
 23 10  2  0
 22 12  1  0
  1 26  1  0
  1 27  1  0
  1 28  1  0
  3 29  1  0
  4 30  1  0
  5 31  1  0
  7 32  1  0
 15 33  1  0
 15 34  1  0
 15 35  1  0
 16 36  1  0
 24 37  1  0
 24 38  1  0
M  END
>  <Binding energies>  (1) 
[-6.59]

>  <Ligand effiencies>  (1) 
[-0.23535714285714285]

>  <Interactions>  (1) 
["V-B:TYR:539:CE2:9845, V-A:GLY:454:C:4043, V-B:TYR:539:CA:9838, V-A:HIS:456:CE1:4066, V-B:TYR:539:CG:9841, V-B:TYR:539:CD1:9842, V-B:TYR:539:CZ:9846, V-A:GLY:453:C:4038, V-B:PRO:540:CA:9852, V-A:ARG:545:CG:4919, V-A:ARG:545:CZ:4923, V-B:TYR:539:CE1:9844, V-A:ARG:545:CD:4920, V-A:GLY:453:CA:4040, V-B:ALA:541:CB:9861, H-A:GLY:454:N:4046, V-B:TYR:539:C:9836, H-A:TYR:484:OH:4344, V-A:GLY:454:CA:4045, V-B:PRO:540:N:9853, V-B:PRO:540:CB:9854, V-B:TYR:539:CD2:9843, H-B:GLU:543:OE2:9879, V-A:GLU:543:CB:4903, V-B:GLU:543:CB:9875, V-B:GLU:543:CD:9877, V-B:GLU:543:CG:9876, V-A:GLU:543:CD:4905, V-A:LEU:475:CD1:4254, V-B:PRO:540:CD:9856, H-B:GLU:543:OE1:9878, V-B:LEU:363:CD1:8157"]

$$$$
4bf_Grossjean_2025
     RDKit          3D

 35 37  0  0  0  0  0  0  0  0999 V2000
  134.5920  125.0020   65.6120 C   0  0  0  0  0  0  0  0  0  0  0  0
  133.2690  124.8900   64.8760 C   0  0  0  0  0  0  0  0  0  0  0  0
  132.1820  125.6840   65.2310 C   0  0  0  0  0  0  0  0  0  0  0  0
  130.9630  125.5680   64.5440 C   0  0  0  0  0  0  0  0  0  0  0  0
  129.7940  126.4610   64.9710 C   0  0  0  0  0  0  0  0  0  0  0  0
  128.7900  125.7760   65.5260 F   0  0  0  0  0  0  0  0  0  0  0  0
  130.2110  127.3540   65.8680 F   0  0  0  0  0  0  0  0  0  0  0  0
  129.3010  127.0990   63.9090 F   0  0  0  0  0  0  0  0  0  0  0  0
  130.8990  124.6150   63.4840 C   0  0  0  0  0  0  0  0  0  0  0  0
  129.8470  124.2230   62.5790 C   0  0  0  0  0  0  0  0  0  0  0  0
  128.5980  124.7890   62.6080 N   0  0  0  0  0  0  0  0  0  0  0  0
  130.2170  123.2200   61.6680 C   0  0  0  0  0  0  0  0  0  0  0  0
  129.3960  122.5710   60.6400 C   0  0  0  0  0  0  0  0  0  0  0  0
  129.4090  121.3470   60.5080 O   0  0  0  0  0  0  0  0  0  0  0  0
  128.6400  123.4080   59.8880 N   0  0  0  0  0  0  0  0  0  0  0  0
  127.7920  123.1170   58.8020 C   0  0  0  0  0  0  0  0  0  0  0  0
  126.4430  123.4990   58.6980 C   0  0  0  0  0  0  0  0  0  0  0  0
  125.7060  123.1310   57.5690 C   0  0  0  0  0  0  0  0  0  0  0  0
  126.3380  122.3850   56.5730 C   0  0  0  0  0  0  0  0  0  0  0  0
  127.6350  121.9990   56.6540 N   0  0  0  0  0  0  0  0  0  0  0  0
  128.3380  122.3640   57.7570 C   0  0  0  0  0  0  0  0  0  0  0  0
  131.8900  122.7250   61.9110 S   0  0  0  0  0  0  0  0  0  0  0  0
  132.0870  123.8640   63.2220 C   0  0  0  0  0  0  0  0  0  0  0  0
  133.2410  123.9780   63.8760 N   0  0  0  0  0  0  0  0  0  0  0  0
  134.4105  124.9866   66.6968 H   0  0  0  0  0  0  0  0  0  0  0  0
  135.2378  124.1553   65.3362 H   0  0  0  0  0  0  0  0  0  0  0  0
  135.0863  125.9452   65.3362 H   0  0  0  0  0  0  0  0  0  0  0  0
  132.2787  126.4066   66.0547 H   0  0  0  0  0  0  0  0  0  0  0  0
  128.4630  125.7880   62.5610 H   0  0  0  0  0  0  0  0  0  0  0  0
  127.7650  124.2200   62.6770 H   0  0  0  0  0  0  0  0  0  0  0  0
  128.6770  124.3850   60.1380 H   0  0  0  0  0  0  0  0  0  0  0  0
  125.9703  124.0842   59.5006 H   0  0  0  0  0  0  0  0  0  0  0  0
  124.6503  123.4231   57.4675 H   0  0  0  0  0  0  0  0  0  0  0  0
  125.7583  122.0977   55.6834 H   0  0  0  0  0  0  0  0  0  0  0  0
  129.3900  122.0518   57.8326 H   0  0  0  0  0  0  0  0  0  0  0  0
  1  2  1  0
  2  3  2  0
  3  4  1  0
  4  5  1  0
  5  6  1  0
  5  7  1  0
  5  8  1  0
  4  9  2  0
  9 10  1  0
 10 11  1  0
 10 12  2  0
 12 13  1  0
 13 14  2  0
 13 15  1  0
 15 16  1  0
 16 17  2  0
 17 18  1  0
 18 19  2  0
 19 20  1  0
 20 21  2  0
 12 22  1  0
 22 23  1  0
 23 24  2  0
 24  2  1  0
 23  9  1  0
 21 16  1  0
  1 25  1  0
  1 26  1  0
  1 27  1  0
  3 28  1  0
 11 29  1  0
 11 30  1  0
 15 31  1  0
 17 32  1  0
 18 33  1  0
 19 34  1  0
 21 35  1  0
M  END
>  <Binding energies>  (1) 
[-6.65]

>  <Ligand effiencies>  (1) 
[-0.24629629629629632]

>  <Interactions>  (1) 
["V-B:TYR:539:CE2:9845, V-A:GLY:454:C:4043, V-A:HIS:456:CE1:4066, V-B:TYR:539:CG:9841, V-B:TYR:539:CD1:9842, V-B:TYR:539:CZ:9846, V-A:GLY:453:C:4038, V-B:PRO:540:CA:9852, V-A:ARG:545:CG:4919, V-A:ARG:545:CZ:4923, V-B:TYR:539:CE1:9844, V-A:ARG:545:CD:4920, V-A:GLY:453:CA:4040, V-B:ALA:541:CB:9861, H-A:GLY:454:N:4046, V-B:TYR:539:C:9836, H-A:TYR:484:OH:4344, V-A:GLY:454:CA:4045, V-B:PRO:540:N:9853, V-B:PRO:540:CB:9854, V-B:TYR:539:CD2:9843, H-B:GLU:543:OE2:9879, V-A:GLU:543:CB:4903, V-B:GLU:543:CB:9875, V-B:GLU:543:CD:9877, V-B:GLU:543:CG:9876, V-A:GLU:543:CD:4905, H-B:TYR:539:N:9839, V-B:PRO:540:CD:9856, H-B:GLU:543:OE1:9878, V-B:ILE:538:CB:9831"]

$$$$
4bg_Grossjean_2025
     RDKit          3D

 39 41  0  0  0  0  0  0  0  0999 V2000
  134.8930  125.3470   65.8300 C   0  0  0  0  0  0  0  0  0  0  0  0
  133.5400  125.1320   65.1770 C   0  0  0  0  0  0  0  0  0  0  0  0
  132.4170  125.8360   65.6050 C   0  0  0  0  0  0  0  0  0  0  0  0
  131.1700  125.6240   64.9950 C   0  0  0  0  0  0  0  0  0  0  0  0
  129.9630  126.4210   65.5010 C   0  0  0  0  0  0  0  0  0  0  0  0
  129.3410  127.0960   64.5320 F   0  0  0  0  0  0  0  0  0  0  0  0
  129.0720  125.5920   66.0450 F   0  0  0  0  0  0  0  0  0  0  0  0
  130.3570  127.3060   66.4150 F   0  0  0  0  0  0  0  0  0  0  0  0
  131.1170  124.6700   63.9350 C   0  0  0  0  0  0  0  0  0  0  0  0
  130.0440  124.1930   63.0980 C   0  0  0  0  0  0  0  0  0  0  0  0
  128.7510  124.6350   63.2230 N   0  0  0  0  0  0  0  0  0  0  0  0
  130.4420  123.2460   62.1420 C   0  0  0  0  0  0  0  0  0  0  0  0
  129.6190  122.5380   61.1620 C   0  0  0  0  0  0  0  0  0  0  0  0
  129.5530  121.3080   61.1460 O   0  0  0  0  0  0  0  0  0  0  0  0
  128.9150  123.3140   60.3120 N   0  0  0  0  0  0  0  0  0  0  0  0
  128.0410  122.8270   59.2440 C   0  0  0  0  0  0  0  0  0  0  0  0
  126.5730  123.1710   59.4540 C   0  0  0  0  0  0  0  0  0  0  0  0
  126.0330  123.1880   60.7430 C   0  0  0  0  0  0  0  0  0  0  0  0
  124.7000  123.5400   60.9350 C   0  0  0  0  0  0  0  0  0  0  0  0
  123.9130  123.8890   59.8390 C   0  0  0  0  0  0  0  0  0  0  0  0
  124.4480  123.8910   58.5530 C   0  0  0  0  0  0  0  0  0  0  0  0
  125.7820  123.5370   58.3610 C   0  0  0  0  0  0  0  0  0  0  0  0
  132.1610  122.8850   62.2750 S   0  0  0  0  0  0  0  0  0  0  0  0
  132.3420  124.0230   63.5890 C   0  0  0  0  0  0  0  0  0  0  0  0
  133.5230  124.2270   64.1730 N   0  0  0  0  0  0  0  0  0  0  0  0
  134.7792  125.3289   66.9239 H   0  0  0  0  0  0  0  0  0  0  0  0
  135.5812  124.5469   65.5197 H   0  0  0  0  0  0  0  0  0  0  0  0
  135.2993  126.3210   65.5197 H   0  0  0  0  0  0  0  0  0  0  0  0
  132.5074  126.5626   66.4259 H   0  0  0  0  0  0  0  0  0  0  0  0
  128.5330  125.5640   63.5530 H   0  0  0  0  0  0  0  0  0  0  0  0
  127.9670  124.0380   62.9950 H   0  0  0  0  0  0  0  0  0  0  0  0
  129.0790  124.3100   60.3300 H   0  0  0  0  0  0  0  0  0  0  0  0
  128.3705  123.2734   58.2942 H   0  0  0  0  0  0  0  0  0  0  0  0
  128.1179  121.7297   59.2391 H   0  0  0  0  0  0  0  0  0  0  0  0
  126.6615  122.9231   61.6060 H   0  0  0  0  0  0  0  0  0  0  0  0
  124.2697  123.5427   61.9473 H   0  0  0  0  0  0  0  0  0  0  0  0
  122.8592  124.1655   59.9910 H   0  0  0  0  0  0  0  0  0  0  0  0
  123.8209  124.1705   57.6936 H   0  0  0  0  0  0  0  0  0  0  0  0
  126.2129  123.5455   57.3489 H   0  0  0  0  0  0  0  0  0  0  0  0
  1  2  1  0
  2  3  2  0
  3  4  1  0
  4  5  1  0
  5  6  1  0
  5  7  1  0
  5  8  1  0
  4  9  2  0
  9 10  1  0
 10 11  1  0
 10 12  2  0
 12 13  1  0
 13 14  2  0
 13 15  1  0
 15 16  1  0
 16 17  1  0
 17 18  2  0
 18 19  1  0
 19 20  2  0
 20 21  1  0
 21 22  2  0
 12 23  1  0
 23 24  1  0
 24 25  2  0
 25  2  1  0
 24  9  1  0
 22 17  1  0
  1 26  1  0
  1 27  1  0
  1 28  1  0
  3 29  1  0
 11 30  1  0
 11 31  1  0
 15 32  1  0
 16 33  1  0
 16 34  1  0
 18 35  1  0
 19 36  1  0
 20 37  1  0
 21 38  1  0
 22 39  1  0
M  END
>  <Binding energies>  (1) 
[-6.61]

>  <Ligand effiencies>  (1) 
[-0.23607142857142857]

>  <Interactions>  (1) 
["V-B:PRO:540:C:9850, V-B:TYR:539:CE2:9845, V-A:GLY:454:C:4043, V-A:HIS:456:CE1:4066, V-B:ASN:362:CB:8144, V-A:GLY:453:C:4038, V-B:PRO:540:CA:9852, V-A:ARG:545:CG:4919, V-A:ARG:545:CZ:4923, V-A:ARG:545:CD:4920, V-A:GLY:453:CA:4040, V-B:ALA:541:CB:9861, H-A:GLY:454:N:4046, V-B:ASN:362:C:8140, H-A:TYR:484:OH:4344, V-A:GLY:454:CA:4045, V-B:PRO:540:CB:9854, H-B:GLU:543:OE2:9879, V-A:GLU:543:CB:4903, V-B:GLU:543:CB:9875, V-B:GLU:543:CD:9877, V-B:GLU:543:CG:9876, V-A:GLU:543:CD:4905, V-B:LEU:363:CA:8153, V-A:LEU:475:CD1:4254, H-B:GLU:543:OE1:9878, V-B:LEU:363:CD1:8157"]

$$$$
4bh_Grossjean_2025
     RDKit          3D

 51 53  0  0  0  0  0  0  0  0999 V2000
  129.6080  123.1560   71.6280 C   0  0  0  0  0  0  0  0  0  0  0  0
  128.8220  124.2790   72.0100 O   0  0  0  0  0  0  0  0  0  0  0  0
  128.9830  125.4790   71.3410 C   0  0  0  0  0  0  0  0  0  0  0  0
  128.6320  125.6800   69.9970 C   0  0  0  0  0  0  0  0  0  0  0  0
  128.8240  126.9190   69.3850 C   0  0  0  0  0  0  0  0  0  0  0  0
  128.3960  127.1320   67.9380 C   0  0  0  0  0  0  0  0  0  0  0  0
  129.2220  126.4080   66.9710 N   0  0  0  0  0  0  0  0  0  0  0  0
  130.5560  126.5450   66.8250 C   0  0  0  0  0  0  0  0  0  0  0  0
  131.2160  127.3480   67.4870 O   0  0  0  0  0  0  0  0  0  0  0  0
  131.1790  125.7120   65.7950 C   0  0  0  0  0  0  0  0  0  0  0  0
  132.7830  126.1110   65.1900 S   0  0  0  0  0  0  0  0  0  0  0  0
  132.7400  124.7710   64.0690 C   0  0  0  0  0  0  0  0  0  0  0  0
  133.7620  124.5140   63.2530 N   0  0  0  0  0  0  0  0  0  0  0  0
  133.6140  123.4480   62.4330 C   0  0  0  0  0  0  0  0  0  0  0  0
  134.7890  123.1740   61.5110 C   0  0  0  0  0  0  0  0  0  0  0  0
  132.4810  122.6400   62.4090 C   0  0  0  0  0  0  0  0  0  0  0  0
  131.4000  122.9060   63.2650 C   0  0  0  0  0  0  0  0  0  0  0  0
  130.1750  121.9880   63.2060 C   0  0  0  0  0  0  0  0  0  0  0  0
  130.3390  120.9490   62.3840 F   0  0  0  0  0  0  0  0  0  0  0  0
  129.9180  121.4990   64.4190 F   0  0  0  0  0  0  0  0  0  0  0  0
  129.1170  122.6750   62.7750 F   0  0  0  0  0  0  0  0  0  0  0  0
  131.5230  124.0250   64.1410 C   0  0  0  0  0  0  0  0  0  0  0  0
  130.6430  124.5980   65.1300 C   0  0  0  0  0  0  0  0  0  0  0  0
  129.3980  124.0910   65.4000 N   0  0  0  0  0  0  0  0  0  0  0  0
  129.3460  127.9800   70.1280 C   0  0  0  0  0  0  0  0  0  0  0  0
  129.7120  127.8060   71.4720 C   0  0  0  0  0  0  0  0  0  0  0  0
  130.2470  128.8070   72.2620 O   0  0  0  0  0  0  0  0  0  0  0  0
  129.5000  130.0000   72.4770 C   0  0  0  0  0  0  0  0  0  0  0  0
  129.5310  126.5480   72.0650 C   0  0  0  0  0  0  0  0  0  0  0  0
  129.8680  126.3680   73.3860 O   0  0  0  0  0  0  0  0  0  0  0  0
  130.9580  125.4790   73.5870 C   0  0  0  0  0  0  0  0  0  0  0  0
  129.9702  122.6385   72.5286 H   0  0  0  0  0  0  0  0  0  0  0  0
  128.9949  122.4657   71.0301 H   0  0  0  0  0  0  0  0  0  0  0  0
  130.4665  123.4957   71.0301 H   0  0  0  0  0  0  0  0  0  0  0  0
  128.2000  124.8500   69.4187 H   0  0  0  0  0  0  0  0  0  0  0  0
  127.3552  126.7928   67.8295 H   0  0  0  0  0  0  0  0  0  0  0  0
  128.5107  128.2044   67.7218 H   0  0  0  0  0  0  0  0  0  0  0  0
  128.7590  125.6730   66.4560 H   0  0  0  0  0  0  0  0  0  0  0  0
  135.6860  122.9648   62.1124 H   0  0  0  0  0  0  0  0  0  0  0  0
  134.5621  122.3047   60.8763 H   0  0  0  0  0  0  0  0  0  0  0  0
  134.9701  124.0540   60.8763 H   0  0  0  0  0  0  0  0  0  0  0  0
  132.4320  121.7878   61.7152 H   0  0  0  0  0  0  0  0  0  0  0  0
  129.2620  123.3210   66.0410 H   0  0  0  0  0  0  0  0  0  0  0  0
  128.5710  124.4660   64.9590 H   0  0  0  0  0  0  0  0  0  0  0  0
  129.4720  128.9646   69.6540 H   0  0  0  0  0  0  0  0  0  0  0  0
  129.3907  130.1745   73.5576 H   0  0  0  0  0  0  0  0  0  0  0  0
  130.0273  130.8502   72.0198 H   0  0  0  0  0  0  0  0  0  0  0  0
  128.5049  129.8969   72.0198 H   0  0  0  0  0  0  0  0  0  0  0  0
  131.1256  125.3423   74.6655 H   0  0  0  0  0  0  0  0  0  0  0  0
  130.7285  124.5072   73.1255 H   0  0  0  0  0  0  0  0  0  0  0  0
  131.8638  125.8992   73.1255 H   0  0  0  0  0  0  0  0  0  0  0  0
  1  2  1  0
  2  3  1  0
  3  4  2  0
  4  5  1  0
  5  6  1  0
  6  7  1  0
  7  8  1  0
  8  9  2  0
  8 10  1  0
 10 11  1  0
 11 12  1  0
 12 13  2  0
 13 14  1  0
 14 15  1  0
 14 16  2  0
 16 17  1  0
 17 18  1  0
 18 19  1  0
 18 20  1  0
 18 21  1  0
 17 22  2  0
 22 23  1  0
 23 24  1  0
  5 25  2  0
 25 26  1  0
 26 27  1  0
 27 28  1  0
 26 29  2  0
 29 30  1  0
 30 31  1  0
 29  3  1  0
 23 10  2  0
 22 12  1  0
  1 32  1  0
  1 33  1  0
  1 34  1  0
  4 35  1  0
  6 36  1  0
  6 37  1  0
  7 38  1  0
 15 39  1  0
 15 40  1  0
 15 41  1  0
 16 42  1  0
 24 43  1  0
 24 44  1  0
 25 45  1  0
 28 46  1  0
 28 47  1  0
 28 48  1  0
 31 49  1  0
 31 50  1  0
 31 51  1  0
M  END
>  <Binding energies>  (1) 
[-6.62]

>  <Ligand effiencies>  (1) 
[-0.19470588235294117]

>  <Interactions>  (1) 
["V-A:HIS:456:CE1:4066, V-A:GLY:453:C:4038, V-A:ARG:545:CG:4919, V-A:ARG:545:CZ:4923, V-A:ARG:545:CD:4920, V-A:GLY:453:CA:4040, V-B:ALA:541:CB:9861, H-A:GLY:454:N:4046, H-A:TYR:484:OH:4344, V-A:GLY:454:CA:4045, H-B:GLU:543:OE2:9879, V-A:TYR:484:CE1:4341, V-B:HIS:456:CD2:9036, V-A:LYS:547:CE:4947, H-A:LYS:547:NZ:4948, V-B:LYS:547:CE:9919, V-B:GLU:543:CB:9875, V-B:GLU:543:CD:9877, V-B:HIS:456:CE1:9038, V-B:GLU:543:CG:9876, V-A:LEU:475:CD1:4254, V-A:ILE:369:CG1:3234, V-A:LEU:475:CD2:4255, V-A:HIS:456:CD2:4064, V-B:GLU:543:C:9871, H-B:GLU:543:OE1:9878, V-B:GLU:543:CA:9873, V-A:TYR:484:CG:4338, V-A:TYR:484:CD2:4340, H-B:LYS:547:NZ:9920, V-A:TYR:484:CD1:4339, V-A:LEU:475:CG:4253, V-A:GLY:544:CA:4911"]

$$$$
4bi_Grossjean_2025
     RDKit          3D

 32 34  0  0  0  0  0  0  0  0999 V2000
  134.4880  124.9970   65.6220 C   0  0  0  0  0  0  0  0  0  0  0  0
  133.1650  124.7980   64.9050 C   0  0  0  0  0  0  0  0  0  0  0  0
  132.0370  125.5300   65.2650 C   0  0  0  0  0  0  0  0  0  0  0  0
  130.8200  125.3390   64.5890 C   0  0  0  0  0  0  0  0  0  0  0  0
  129.6080  126.1740   65.0150 C   0  0  0  0  0  0  0  0  0  0  0  0
  128.9270  126.6720   63.9800 F   0  0  0  0  0  0  0  0  0  0  0  0
  128.7650  125.4200   65.7200 F   0  0  0  0  0  0  0  0  0  0  0  0
  130.0090  127.2040   65.7620 F   0  0  0  0  0  0  0  0  0  0  0  0
  130.8010  124.3720   63.5410 C   0  0  0  0  0  0  0  0  0  0  0  0
  129.7650  123.9110   62.6500 C   0  0  0  0  0  0  0  0  0  0  0  0
  128.4810  124.3930   62.6930 N   0  0  0  0  0  0  0  0  0  0  0  0
  130.1880  122.9340   61.7330 C   0  0  0  0  0  0  0  0  0  0  0  0
  129.4030  122.2440   60.7060 C   0  0  0  0  0  0  0  0  0  0  0  0
  129.2150  121.0270   60.7680 O   0  0  0  0  0  0  0  0  0  0  0  0
  128.9020  123.0370   59.7260 N   0  0  0  0  0  0  0  0  0  0  0  0
  128.1200  122.6530   58.6440 C   0  0  0  0  0  0  0  0  0  0  0  0
  126.9380  123.3020   58.2900 C   0  0  0  0  0  0  0  0  0  0  0  0
  126.4750  122.6270   57.1840 C   0  0  0  0  0  0  0  0  0  0  0  0
  127.3350  121.6230   56.8870 O   0  0  0  0  0  0  0  0  0  0  0  0
  128.3740  121.6500   57.8200 N   0  0  0  0  0  0  0  0  0  0  0  0
  131.8880  122.5360   61.9660 S   0  0  0  0  0  0  0  0  0  0  0  0
  132.0270  123.6900   63.2720 C   0  0  0  0  0  0  0  0  0  0  0  0
  133.1800  123.8760   63.9150 N   0  0  0  0  0  0  0  0  0  0  0  0
  134.3231  124.9722   66.7093 H   0  0  0  0  0  0  0  0  0  0  0  0
  135.1834  124.1934   65.3382 H   0  0  0  0  0  0  0  0  0  0  0  0
  134.9162  125.9697   65.3382 H   0  0  0  0  0  0  0  0  0  0  0  0
  132.0987  126.2623   66.0835 H   0  0  0  0  0  0  0  0  0  0  0  0
  127.7020  123.8130   62.9730 H   0  0  0  0  0  0  0  0  0  0  0  0
  128.2690  125.3480   62.4400 H   0  0  0  0  0  0  0  0  0  0  0  0
  129.1080  124.0240   59.7830 H   0  0  0  0  0  0  0  0  0  0  0  0
  126.4753  124.1671   58.7876 H   0  0  0  0  0  0  0  0  0  0  0  0
  125.5548  122.8643   56.6301 H   0  0  0  0  0  0  0  0  0  0  0  0
  1  2  1  0
  2  3  2  0
  3  4  1  0
  4  5  1  0
  5  6  1  0
  5  7  1  0
  5  8  1  0
  4  9  2  0
  9 10  1  0
 10 11  1  0
 10 12  2  0
 12 13  1  0
 13 14  2  0
 13 15  1  0
 15 16  1  0
 16 17  1  0
 17 18  2  0
 18 19  1  0
 19 20  1  0
 12 21  1  0
 21 22  1  0
 22 23  2  0
 23  2  1  0
 22  9  1  0
 20 16  2  0
  1 24  1  0
  1 25  1  0
  1 26  1  0
  3 27  1  0
 11 28  1  0
 11 29  1  0
 15 30  1  0
 17 31  1  0
 18 32  1  0
M  END
>  <Binding energies>  (1) 
[-6.32]

>  <Ligand effiencies>  (1) 
[-0.24307692307692308]

>  <Interactions>  (1) 
["V-B:TYR:539:CE2:9845, V-A:GLY:454:C:4043, V-A:HIS:456:CE1:4066, V-B:TYR:539:CZ:9846, V-A:GLY:453:C:4038, V-B:PRO:540:CA:9852, V-A:ARG:545:CG:4919, V-A:ARG:545:CZ:4923, V-A:ARG:545:CD:4920, V-A:GLY:453:CA:4040, V-B:ALA:541:CB:9861, H-A:GLY:454:N:4046, V-B:TYR:539:C:9836, H-A:TYR:484:OH:4344, V-A:GLY:454:CA:4045, V-B:PRO:540:N:9853, V-B:PRO:540:CB:9854, V-B:TYR:539:CD2:9843, H-B:GLU:543:OE2:9879, V-B:GLU:543:CB:9875, V-B:GLU:543:CD:9877, V-B:GLU:543:CG:9876, V-A:GLU:543:CD:4905, V-A:LEU:475:CD1:4254, H-B:TYR:539:N:9839, V-B:PRO:540:CD:9856, H-B:GLU:543:OE1:9878"]

$$$$
4bj_Grossjean_2025
     RDKit          3D

 32 34  0  0  0  0  0  0  0  0999 V2000
  133.4950  125.4610   65.4200 C   0  0  0  0  0  0  0  0  0  0  0  0
  132.8530  124.9380   64.1480 C   0  0  0  0  0  0  0  0  0  0  0  0
  133.6300  124.5110   63.0750 C   0  0  0  0  0  0  0  0  0  0  0  0
  133.0230  124.0360   61.9020 C   0  0  0  0  0  0  0  0  0  0  0  0
  133.9210  123.5800   60.7460 C   0  0  0  0  0  0  0  0  0  0  0  0
  133.6040  124.1520   59.5830 F   0  0  0  0  0  0  0  0  0  0  0  0
  135.1890  123.8900   61.0110 F   0  0  0  0  0  0  0  0  0  0  0  0
  133.8120  122.2610   60.5860 F   0  0  0  0  0  0  0  0  0  0  0  0
  131.5970  124.0100   61.8700 C   0  0  0  0  0  0  0  0  0  0  0  0
  130.6450  123.6040   60.8650 C   0  0  0  0  0  0  0  0  0  0  0  0
  131.0230  123.1250   59.6360 N   0  0  0  0  0  0  0  0  0  0  0  0
  129.3040  123.7350   61.2590 C   0  0  0  0  0  0  0  0  0  0  0  0
  128.0930  123.4280   60.4940 C   0  0  0  0  0  0  0  0  0  0  0  0
  128.1630  122.8470   59.4080 O   0  0  0  0  0  0  0  0  0  0  0  0
  126.9270  123.8120   61.0690 N   0  0  0  0  0  0  0  0  0  0  0  0
  125.6480  123.6310   60.5620 C   0  0  0  0  0  0  0  0  0  0  0  0
  124.6040  123.1090   61.1680 N   0  0  0  0  0  0  0  0  0  0  0  0
  123.5430  123.0990   60.3860 C   0  0  0  0  0  0  0  0  0  0  0  0
  123.7150  123.6220   59.1090 C   0  0  0  0  0  0  0  0  0  0  0  0
  125.3620  124.1510   58.9320 S   0  0  0  0  0  0  0  0  0  0  0  0
  129.1790  124.3920   62.8900 S   0  0  0  0  0  0  0  0  0  0  0  0
  130.9190  124.4710   63.0400 C   0  0  0  0  0  0  0  0  0  0  0  0
  131.4990  124.9250   64.1500 N   0  0  0  0  0  0  0  0  0  0  0  0
  132.9762  125.0384   66.2931 H   0  0  0  0  0  0  0  0  0  0  0  0
  134.5543  125.1655   65.4444 H   0  0  0  0  0  0  0  0  0  0  0  0
  133.4198  126.5582   65.4444 H   0  0  0  0  0  0  0  0  0  0  0  0
  134.7271  124.5460   63.1468 H   0  0  0  0  0  0  0  0  0  0  0  0
  131.9900  123.0920   59.3490 H   0  0  0  0  0  0  0  0  0  0  0  0
  130.3400  122.7920   58.9700 H   0  0  0  0  0  0  0  0  0  0  0  0
  126.9820  124.2730   61.9650 H   0  0  0  0  0  0  0  0  0  0  0  0
  122.5757  122.6994   60.7245 H   0  0  0  0  0  0  0  0  0  0  0  0
  122.9354  123.6900   58.3360 H   0  0  0  0  0  0  0  0  0  0  0  0
  1  2  1  0
  2  3  2  0
  3  4  1  0
  4  5  1  0
  5  6  1  0
  5  7  1  0
  5  8  1  0
  4  9  2  0
  9 10  1  0
 10 11  1  0
 10 12  2  0
 12 13  1  0
 13 14  2  0
 13 15  1  0
 15 16  1  0
 16 17  2  0
 17 18  1  0
 18 19  2  0
 19 20  1  0
 12 21  1  0
 21 22  1  0
 22 23  2  0
 23  2  1  0
 22  9  1  0
 20 16  1  0
  1 24  1  0
  1 25  1  0
  1 26  1  0
  3 27  1  0
 11 28  1  0
 11 29  1  0
 15 30  1  0
 18 31  1  0
 19 32  1  0
M  END
>  <Binding energies>  (1) 
[-6.13]

>  <Ligand effiencies>  (1) 
[-0.23576923076923076]

>  <Interactions>  (1) 
["H-B:ALA:541:N:9860, V-B:TYR:539:CE2:9845, V-A:HIS:456:CE1:4066, V-B:TYR:539:CZ:9846, V-B:ASN:362:CB:8144, V-A:GLY:453:C:4038, V-B:PRO:540:CA:9852, V-A:ARG:545:CG:4919, V-A:ARG:545:CZ:4923, V-A:ARG:545:CD:4920, V-A:GLY:453:CA:4040, V-B:ALA:541:CB:9861, V-B:ASN:362:C:8140, V-A:GLY:454:CA:4045, V-B:PRO:540:CB:9854, V-B:TYR:539:CD2:9843, V-A:ASP:366:CG:3209, H-B:GLU:543:OE2:9879, V-B:GLU:543:CD:9877, V-B:GLU:543:CG:9876, V-A:ILE:369:CB:3232, V-B:LEU:363:CA:8153, V-A:ILE:369:CG2:3233, V-A:ILE:369:CG1:3234, H-B:TYR:539:OH:9847, V-A:ASP:366:CB:3208, V-B:LEU:363:CD1:8157, V-B:LEU:363:CB:8155, V-A:ASP:366:CA:3206"]

$$$$
4bk_Grossjean_2025
     RDKit          3D

 50 51  0  0  0  0  0  0  0  0999 V2000
  129.5000  123.5450   71.7000 C   0  0  0  0  0  0  0  0  0  0  0  0
  129.9000  123.6180   73.0600 O   0  0  0  0  0  0  0  0  0  0  0  0
  130.1600  124.9440   73.5020 C   0  0  0  0  0  0  0  0  0  0  0  0
  130.0270  125.9130   72.3210 C   0  0  0  0  0  0  0  0  0  0  0  0
  129.5440  127.1650   72.7890 O   0  0  0  0  0  0  0  0  0  0  0  0
  128.2990  127.5490   72.2210 C   0  0  0  0  0  0  0  0  0  0  0  0
  127.9690  126.6230   71.0420 C   0  0  0  0  0  0  0  0  0  0  0  0
  128.8120  126.9430   69.9440 O   0  0  0  0  0  0  0  0  0  0  0  0
  128.2320  126.6660   68.6740 C   0  0  0  0  0  0  0  0  0  0  0  0
  128.7510  127.6830   67.6440 C   0  0  0  0  0  0  0  0  0  0  0  0
  129.5030  127.0750   66.5450 N   0  0  0  0  0  0  0  0  0  0  0  0
  130.8440  127.1160   66.4020 C   0  0  0  0  0  0  0  0  0  0  0  0
  131.5790  127.6710   67.2200 O   0  0  0  0  0  0  0  0  0  0  0  0
  131.3850  126.4510   65.2150 C   0  0  0  0  0  0  0  0  0  0  0  0
  132.7720  125.3760   65.3600 S   0  0  0  0  0  0  0  0  0  0  0  0
  132.7370  125.0280   63.6480 C   0  0  0  0  0  0  0  0  0  0  0  0
  133.6210  124.2030   63.0870 N   0  0  0  0  0  0  0  0  0  0  0  0
  133.4920  124.0110   61.7540 C   0  0  0  0  0  0  0  0  0  0  0  0
  134.5070  123.0660   61.1370 C   0  0  0  0  0  0  0  0  0  0  0  0
  132.5110  124.6190   60.9750 C   0  0  0  0  0  0  0  0  0  0  0  0
  131.5780  125.4900   61.5590 C   0  0  0  0  0  0  0  0  0  0  0  0
  130.5190  126.1380   60.6610 C   0  0  0  0  0  0  0  0  0  0  0  0
  130.5140  127.4710   60.7370 F   0  0  0  0  0  0  0  0  0  0  0  0
  130.7450  125.8110   59.3890 F   0  0  0  0  0  0  0  0  0  0  0  0
  129.3070  125.7150   61.0150 F   0  0  0  0  0  0  0  0  0  0  0  0
  131.6850  125.7140   62.9640 C   0  0  0  0  0  0  0  0  0  0  0  0
  130.9260  126.5170   63.8910 C   0  0  0  0  0  0  0  0  0  0  0  0
  129.8530  127.2790   63.5060 N   0  0  0  0  0  0  0  0  0  0  0  0
  128.4192  123.3478   71.6458 H   0  0  0  0  0  0  0  0  0  0  0  0
  129.7242  124.4989   71.2002 H   0  0  0  0  0  0  0  0  0  0  0  0
  130.0467  122.7318   71.2002 H   0  0  0  0  0  0  0  0  0  0  0  0
  129.4367  125.2180   74.2841 H   0  0  0  0  0  0  0  0  0  0  0  0
  131.1803  125.0008   73.9092 H   0  0  0  0  0  0  0  0  0  0  0  0
  131.0104  126.0526   71.8484 H   0  0  0  0  0  0  0  0  0  0  0  0
  129.3223  125.4996   71.5845 H   0  0  0  0  0  0  0  0  0  0  0  0
  127.5086  127.4702   72.9819 H   0  0  0  0  0  0  0  0  0  0  0  0
  128.3623  128.5880   71.8655 H   0  0  0  0  0  0  0  0  0  0  0  0
  128.1337  125.5768   71.3391 H   0  0  0  0  0  0  0  0  0  0  0  0
  126.9169  126.7577   70.7506 H   0  0  0  0  0  0  0  0  0  0  0  0
  128.5087  125.6494   68.3578 H   0  0  0  0  0  0  0  0  0  0  0  0
  127.1369  126.7410   68.7454 H   0  0  0  0  0  0  0  0  0  0  0  0
  127.8890  128.2191   67.2203 H   0  0  0  0  0  0  0  0  0  0  0  0
  129.4426  128.3539   68.1746 H   0  0  0  0  0  0  0  0  0  0  0  0
  128.9570  126.6040   65.8390 H   0  0  0  0  0  0  0  0  0  0  0  0
  135.0607  122.5505   61.9355 H   0  0  0  0  0  0  0  0  0  0  0  0
  133.9859  122.3240   60.5142 H   0  0  0  0  0  0  0  0  0  0  0  0
  135.2099  123.6387   60.5142 H   0  0  0  0  0  0  0  0  0  0  0  0
  132.4669  124.4154   59.8949 H   0  0  0  0  0  0  0  0  0  0  0  0
  128.9250  126.8870   63.4100 H   0  0  0  0  0  0  0  0  0  0  0  0
  129.9520  128.2650   63.3090 H   0  0  0  0  0  0  0  0  0  0  0  0
  1  2  1  0
  2  3  1  0
  3  4  1  0
  4  5  1  0
  5  6  1  0
  6  7  1  0
  7  8  1  0
  8  9  1  0
  9 10  1  0
 10 11  1  0
 11 12  1  0
 12 13  2  0
 12 14  1  0
 14 15  1  0
 15 16  1  0
 16 17  2  0
 17 18  1  0
 18 19  1  0
 18 20  2  0
 20 21  1  0
 21 22  1  0
 22 23  1  0
 22 24  1  0
 22 25  1  0
 21 26  2  0
 26 27  1  0
 27 28  1  0
 27 14  2  0
 26 16  1  0
  1 29  1  0
  1 30  1  0
  1 31  1  0
  3 32  1  0
  3 33  1  0
  4 34  1  0
  4 35  1  0
  6 36  1  0
  6 37  1  0
  7 38  1  0
  7 39  1  0
  9 40  1  0
  9 41  1  0
 10 42  1  0
 10 43  1  0
 11 44  1  0
 19 45  1  0
 19 46  1  0
 19 47  1  0
 20 48  1  0
 28 49  1  0
 28 50  1  0
M  END
>  <Binding energies>  (1) 
[-5.39]

>  <Ligand effiencies>  (1) 
[-0.17387096774193547]

>  <Interactions>  (1) 
["V-A:HIS:456:CE1:4066, V-A:ARG:545:CZ:4923, H-A:GLY:454:N:4046, V-A:ASP:366:CG:3209, H-B:GLU:543:OE2:9879, V-B:HIS:456:CD2:9036, V-A:GLU:543:CB:4903, H-A:LYS:547:NZ:4948, V-B:GLY:544:C:9881, V-B:LYS:547:CE:9919, V-B:GLU:543:CB:9875, V-B:HIS:456:CE1:9038, V-A:GLU:543:CD:4905, V-A:ILE:369:CB:3232, V-A:ILE:369:CG1:3234, H-A:GLU:543:OE2:4907, H-A:GLU:543:OE1:4906, V-A:HIS:456:CD2:4064, V-B:GLU:543:C:9871, H-B:GLU:543:OE1:9878, H-B:LYS:547:NZ:9920"]

$$$$
4ca_Grossjean_2025
     RDKit          3D

 52 55  0  0  0  0  0  0  0  0999 V2000
  127.5640  127.3380   72.8060 C   0  0  0  0  0  0  0  0  0  0  0  0
  128.8790  126.6020   73.0810 C   0  0  0  0  0  0  0  0  0  0  0  0
  129.9380  127.2520   72.3910 O   0  0  0  0  0  0  0  0  0  0  0  0
  129.6860  128.1490   71.4020 C   0  0  0  0  0  0  0  0  0  0  0  0
  129.4930  129.3510   71.6090 O   0  0  0  0  0  0  0  0  0  0  0  0
  129.6670  127.5330   70.0340 C   0  0  0  0  0  0  0  0  0  0  0  0
  128.7980  126.4640   69.7760 C   0  0  0  0  0  0  0  0  0  0  0  0
  128.7550  125.8750   68.5150 C   0  0  0  0  0  0  0  0  0  0  0  0
  129.5820  126.3350   67.4910 C   0  0  0  0  0  0  0  0  0  0  0  0
  129.4500  125.6730   66.2550 N   0  0  0  0  0  0  0  0  0  0  0  0
  130.3870  125.3670   65.3240 C   0  0  0  0  0  0  0  0  0  0  0  0
  131.5900  125.5990   65.4520 O   0  0  0  0  0  0  0  0  0  0  0  0
  129.8800  124.7050   64.1200 C   0  0  0  0  0  0  0  0  0  0  0  0
  128.7890  125.5590   63.0320 S   0  0  0  0  0  0  0  0  0  0  0  0
  128.7270  124.1900   61.9470 C   0  0  0  0  0  0  0  0  0  0  0  0
  128.0030  124.2220   60.8310 N   0  0  0  0  0  0  0  0  0  0  0  0
  128.0280  123.1170   60.0420 C   0  0  0  0  0  0  0  0  0  0  0  0
  127.2090  123.1870   58.7860 C   0  0  0  0  0  0  0  0  0  0  0  0
  126.0550  123.9850   58.7230 C   0  0  0  0  0  0  0  0  0  0  0  0
  125.2890  124.0500   57.5620 C   0  0  0  0  0  0  0  0  0  0  0  0
  125.6670  123.3150   56.4430 C   0  0  0  0  0  0  0  0  0  0  0  0
  126.8040  122.5150   56.4790 C   0  0  0  0  0  0  0  0  0  0  0  0
  127.5670  122.4520   57.6410 C   0  0  0  0  0  0  0  0  0  0  0  0
  128.7610  121.9770   60.3900 C   0  0  0  0  0  0  0  0  0  0  0  0
  129.5230  121.9320   61.5670 C   0  0  0  0  0  0  0  0  0  0  0  0
  130.3050  120.6520   61.8860 C   0  0  0  0  0  0  0  0  0  0  0  0
  131.6120  120.7610   61.6360 F   0  0  0  0  0  0  0  0  0  0  0  0
  130.1700  120.3490   63.1770 F   0  0  0  0  0  0  0  0  0  0  0  0
  129.8420  119.6440   61.1460 F   0  0  0  0  0  0  0  0  0  0  0  0
  129.5190  123.0920   62.3930 C   0  0  0  0  0  0  0  0  0  0  0  0
  130.1690  123.4160   63.6390 C   0  0  0  0  0  0  0  0  0  0  0  0
  130.9950  122.5390   64.2930 N   0  0  0  0  0  0  0  0  0  0  0  0
  130.4520  127.4070   67.7370 C   0  0  0  0  0  0  0  0  0  0  0  0
  130.4920  127.9970   68.9980 C   0  0  0  0  0  0  0  0  0  0  0  0
  127.0868  127.6051   73.7604 H   0  0  0  0  0  0  0  0  0  0  0  0
  127.7691  128.2524   72.2301 H   0  0  0  0  0  0  0  0  0  0  0  0
  126.8918  126.6850   72.2301 H   0  0  0  0  0  0  0  0  0  0  0  0
  129.0853  126.6108   74.1615 H   0  0  0  0  0  0  0  0  0  0  0  0
  128.7974  125.5620   72.7321 H   0  0  0  0  0  0  0  0  0  0  0  0
  128.1444  126.0871   70.5765 H   0  0  0  0  0  0  0  0  0  0  0  0
  128.0636  125.0408   68.3253 H   0  0  0  0  0  0  0  0  0  0  0  0
  128.5090  125.3750   66.0450 H   0  0  0  0  0  0  0  0  0  0  0  0
  125.7514  124.5680   59.6050 H   0  0  0  0  0  0  0  0  0  0  0  0
  124.3881  124.6803   57.5298 H   0  0  0  0  0  0  0  0  0  0  0  0
  125.0634  123.3669   55.5249 H   0  0  0  0  0  0  0  0  0  0  0  0
  127.0990  121.9344   55.5925 H   0  0  0  0  0  0  0  0  0  0  0  0
  128.4649  121.8170   57.6647 H   0  0  0  0  0  0  0  0  0  0  0  0
  128.7393  121.0990   59.7277 H   0  0  0  0  0  0  0  0  0  0  0  0
  131.3300  122.7170   65.2310 H   0  0  0  0  0  0  0  0  0  0  0  0
  131.2990  121.6770   63.8600 H   0  0  0  0  0  0  0  0  0  0  0  0
  131.1031  127.7821   66.9337 H   0  0  0  0  0  0  0  0  0  0  0  0
  131.1782  128.8364   69.1840 H   0  0  0  0  0  0  0  0  0  0  0  0
  1  2  1  0
  2  3  1  0
  3  4  1  0
  4  5  2  0
  4  6  1  0
  6  7  2  0
  7  8  1  0
  8  9  2  0
  9 10  1  0
 10 11  1  0
 11 12  2  0
 11 13  1  0
 13 14  1  0
 14 15  1  0
 15 16  2  0
 16 17  1  0
 17 18  1  0
 18 19  2  0
 19 20  1  0
 20 21  2  0
 21 22  1  0
 22 23  2  0
 17 24  2  0
 24 25  1  0
 25 26  1  0
 26 27  1  0
 26 28  1  0
 26 29  1  0
 25 30  2  0
 30 31  1  0
 31 32  1  0
  9 33  1  0
 33 34  2  0
 34  6  1  0
 31 13  2  0
 30 15  1  0
 23 18  1  0
  1 35  1  0
  1 36  1  0
  1 37  1  0
  2 38  1  0
  2 39  1  0
  7 40  1  0
  8 41  1  0
 10 42  1  0
 19 43  1  0
 20 44  1  0
 21 45  1  0
 22 46  1  0
 23 47  1  0
 24 48  1  0
 32 49  1  0
 32 50  1  0
 33 51  1  0
 34 52  1  0
M  END
>  <Binding energies>  (1) 
[-8.36]

>  <Ligand effiencies>  (1) 
[-0.22594594594594594]

>  <Interactions>  (1) 
["V-B:TYR:539:CE2:9845, V-A:HIS:456:CE1:4066, V-B:PRO:540:CA:9852, V-B:ALA:541:CB:9861, V-B:TYR:539:C:9836, H-A:TYR:484:OH:4344, V-B:PRO:540:N:9853, V-B:TYR:539:CD2:9843, V-A:TYR:484:CE1:4341, V-B:HIS:456:CD2:9036, V-A:GLU:543:CB:4903, H-A:LYS:547:NZ:4948, V-B:LYS:547:CE:9919, V-B:GLU:543:CB:9875, V-B:GLU:543:CD:9877, V-A:GLU:543:C:4899, V-A:TYR:484:CZ:4343, V-B:GLU:543:CG:9876, V-A:LEU:475:CD1:4254, V-B:PRO:540:CD:9856, V-A:LEU:475:CD2:4255, V-B:GLU:543:C:9871, H-B:GLU:543:OE1:9878, V-B:LEU:363:CD1:8157, V-B:ILE:538:CB:9831, V-A:PRO:482:CG:4323, V-A:LEU:475:CG:4253, V-A:PRO:482:CB:4322"]

$$$$
4cb_Grossjean_2025
     RDKit          3D

 49 52  0  0  0  0  0  0  0  0999 V2000
  128.0260  127.3070   72.7980 C   0  0  0  0  0  0  0  0  0  0  0  0
  129.3820  127.1890   72.3880 O   0  0  0  0  0  0  0  0  0  0  0  0
  129.9000  128.0110   71.4400 C   0  0  0  0  0  0  0  0  0  0  0  0
  130.3660  129.1280   71.6880 O   0  0  0  0  0  0  0  0  0  0  0  0
  129.8510  127.4270   70.0570 C   0  0  0  0  0  0  0  0  0  0  0  0
  129.0750  126.2840   69.8240 C   0  0  0  0  0  0  0  0  0  0  0  0
  129.0030  125.7240   68.5520 C   0  0  0  0  0  0  0  0  0  0  0  0
  129.7080  126.2890   67.4890 C   0  0  0  0  0  0  0  0  0  0  0  0
  129.5520  125.6500   66.2440 N   0  0  0  0  0  0  0  0  0  0  0  0
  130.4400  125.4770   65.2350 C   0  0  0  0  0  0  0  0  0  0  0  0
  131.6170  125.8390   65.2780 O   0  0  0  0  0  0  0  0  0  0  0  0
  129.9140  124.7930   64.0500 C   0  0  0  0  0  0  0  0  0  0  0  0
  128.8030  125.6260   62.9650 S   0  0  0  0  0  0  0  0  0  0  0  0
  128.7250  124.2390   61.9040 C   0  0  0  0  0  0  0  0  0  0  0  0
  127.9830  124.2490   60.8010 N   0  0  0  0  0  0  0  0  0  0  0  0
  127.9940  123.1280   60.0340 C   0  0  0  0  0  0  0  0  0  0  0  0
  127.1510  123.1710   58.7920 C   0  0  0  0  0  0  0  0  0  0  0  0
  125.9650  123.9220   58.7560 C   0  0  0  0  0  0  0  0  0  0  0  0
  125.1760  123.9630   57.6090 C   0  0  0  0  0  0  0  0  0  0  0  0
  125.5630  123.2510   56.4790 C   0  0  0  0  0  0  0  0  0  0  0  0
  126.7320  122.4970   56.4890 C   0  0  0  0  0  0  0  0  0  0  0  0
  127.5160  122.4570   57.6380 C   0  0  0  0  0  0  0  0  0  0  0  0
  128.7350  121.9960   60.3910 C   0  0  0  0  0  0  0  0  0  0  0  0
  129.5180  121.9740   61.5540 C   0  0  0  0  0  0  0  0  0  0  0  0
  130.3070  120.7010   61.8860 C   0  0  0  0  0  0  0  0  0  0  0  0
  130.1940  120.3340   63.1640 F   0  0  0  0  0  0  0  0  0  0  0  0
  129.8630  119.6900   61.1390 F   0  0  0  0  0  0  0  0  0  0  0  0
  131.6020  120.8950   61.6390 F   0  0  0  0  0  0  0  0  0  0  0  0
  129.5260  123.1510   62.3580 C   0  0  0  0  0  0  0  0  0  0  0  0
  130.2000  123.4980   63.5860 C   0  0  0  0  0  0  0  0  0  0  0  0
  131.0420  122.6350   64.2390 N   0  0  0  0  0  0  0  0  0  0  0  0
  130.4850  127.4360   67.7130 C   0  0  0  0  0  0  0  0  0  0  0  0
  130.5550  127.9950   68.9850 C   0  0  0  0  0  0  0  0  0  0  0  0
  127.9742  127.3115   73.8968 H   0  0  0  0  0  0  0  0  0  0  0  0
  127.6051  128.2452   72.4072 H   0  0  0  0  0  0  0  0  0  0  0  0
  127.4494  126.4556   72.4072 H   0  0  0  0  0  0  0  0  0  0  0  0
  128.5176  125.8251   70.6539 H   0  0  0  0  0  0  0  0  0  0  0  0
  128.3857  124.8293   68.3835 H   0  0  0  0  0  0  0  0  0  0  0  0
  128.6340  125.2570   66.0960 H   0  0  0  0  0  0  0  0  0  0  0  0
  125.6543  124.4866   59.6474 H   0  0  0  0  0  0  0  0  0  0  0  0
  124.2500  124.5565   57.5970 H   0  0  0  0  0  0  0  0  0  0  0  0
  124.9413  123.2842   55.5721 H   0  0  0  0  0  0  0  0  0  0  0  0
  127.0351  121.9352   55.5932 H   0  0  0  0  0  0  0  0  0  0  0  0
  128.4374  121.8561   57.6430 H   0  0  0  0  0  0  0  0  0  0  0  0
  128.7026  121.1054   59.7463 H   0  0  0  0  0  0  0  0  0  0  0  0
  131.3560  122.8080   65.1830 H   0  0  0  0  0  0  0  0  0  0  0  0
  131.3760  121.7900   63.7960 H   0  0  0  0  0  0  0  0  0  0  0  0
  131.0399  127.8940   66.8810 H   0  0  0  0  0  0  0  0  0  0  0  0
  131.1691  128.8922   69.1519 H   0  0  0  0  0  0  0  0  0  0  0  0
  1  2  1  0
  2  3  1  0
  3  4  2  0
  3  5  1  0
  5  6  2  0
  6  7  1  0
  7  8  2  0
  8  9  1  0
  9 10  1  0
 10 11  2  0
 10 12  1  0
 12 13  1  0
 13 14  1  0
 14 15  2  0
 15 16  1  0
 16 17  1  0
 17 18  2  0
 18 19  1  0
 19 20  2  0
 20 21  1  0
 21 22  2  0
 16 23  2  0
 23 24  1  0
 24 25  1  0
 25 26  1  0
 25 27  1  0
 25 28  1  0
 24 29  2  0
 29 30  1  0
 30 31  1  0
  8 32  1  0
 32 33  2  0
 33  5  1  0
 30 12  2  0
 29 14  1  0
 22 17  1  0
  1 34  1  0
  1 35  1  0
  1 36  1  0
  6 37  1  0
  7 38  1  0
  9 39  1  0
 18 40  1  0
 19 41  1  0
 20 42  1  0
 21 43  1  0
 22 44  1  0
 23 45  1  0
 31 46  1  0
 31 47  1  0
 32 48  1  0
 33 49  1  0
M  END
>  <Binding energies>  (1) 
[-8.25]

>  <Ligand effiencies>  (1) 
[-0.22916666666666666]

>  <Interactions>  (1) 
["V-B:TYR:539:CE2:9845, V-A:HIS:456:CE1:4066, V-B:PRO:540:CA:9852, V-B:ALA:541:CB:9861, V-B:TYR:539:C:9836, H-A:TYR:484:OH:4344, V-B:PRO:540:N:9853, V-B:PRO:540:CB:9854, V-B:TYR:539:CD2:9843, V-A:TYR:484:CE1:4341, V-B:HIS:456:CD2:9036, V-A:GLU:543:CB:4903, H-A:LYS:547:NZ:4948, V-B:LYS:547:CE:9919, V-B:GLU:543:CB:9875, V-B:GLU:543:CD:9877, V-A:GLU:543:C:4899, V-A:TYR:484:CZ:4343, V-B:GLU:543:CG:9876, V-A:LEU:475:CD1:4254, V-B:PRO:540:CD:9856, V-A:LEU:475:CD2:4255, V-A:HIS:456:CD2:4064, V-B:GLU:543:C:9871, H-B:GLU:543:OE1:9878, V-B:LEU:363:CD1:8157, V-B:ILE:538:CB:9831, V-A:PRO:482:CG:4323, V-A:LEU:475:CG:4253"]

$$$$
4cc_Grossjean_2025
     RDKit          3D

 47 50  0  0  0  0  0  0  0  0999 V2000
  128.7590  127.7750   71.9360 C   0  0  0  0  0  0  0  0  0  0  0  0
  129.8040  128.1070   71.0280 O   0  0  0  0  0  0  0  0  0  0  0  0
  129.7980  127.5550   69.7610 C   0  0  0  0  0  0  0  0  0  0  0  0
  128.9580  126.4600   69.5640 C   0  0  0  0  0  0  0  0  0  0  0  0
  128.8830  125.8380   68.3200 C   0  0  0  0  0  0  0  0  0  0  0  0
  129.6590  126.3010   67.2560 C   0  0  0  0  0  0  0  0  0  0  0  0
  129.5050  125.6210   66.0330 N   0  0  0  0  0  0  0  0  0  0  0  0
  130.4210  125.3840   65.0630 C   0  0  0  0  0  0  0  0  0  0  0  0
  131.6040  125.7200   65.1360 O   0  0  0  0  0  0  0  0  0  0  0  0
  129.9170  124.6810   63.8790 C   0  0  0  0  0  0  0  0  0  0  0  0
  128.8400  125.5020   62.7510 S   0  0  0  0  0  0  0  0  0  0  0  0
  128.7470  124.0810   61.7370 C   0  0  0  0  0  0  0  0  0  0  0  0
  128.0180  124.0690   60.6230 N   0  0  0  0  0  0  0  0  0  0  0  0
  128.0150  122.9220   59.8950 C   0  0  0  0  0  0  0  0  0  0  0  0
  127.1830  122.9380   58.6460 C   0  0  0  0  0  0  0  0  0  0  0  0
  127.6610  122.3620   57.4580 C   0  0  0  0  0  0  0  0  0  0  0  0
  126.8960  122.3740   56.2940 C   0  0  0  0  0  0  0  0  0  0  0  0
  125.6370  122.9650   56.3030 C   0  0  0  0  0  0  0  0  0  0  0  0
  125.1410  123.5460   57.4650 C   0  0  0  0  0  0  0  0  0  0  0  0
  125.9100  123.5320   58.6260 C   0  0  0  0  0  0  0  0  0  0  0  0
  128.7280  121.7890   60.2980 C   0  0  0  0  0  0  0  0  0  0  0  0
  129.4980  121.7900   61.4730 C   0  0  0  0  0  0  0  0  0  0  0  0
  130.2590  120.5150   61.8510 C   0  0  0  0  0  0  0  0  0  0  0  0
  129.8620  119.4430   61.1610 F   0  0  0  0  0  0  0  0  0  0  0  0
  131.5600  120.6800   61.6170 F   0  0  0  0  0  0  0  0  0  0  0  0
  130.0760  120.2470   63.1440 F   0  0  0  0  0  0  0  0  0  0  0  0
  129.5160  122.9910   62.2390 C   0  0  0  0  0  0  0  0  0  0  0  0
  130.1710  123.3630   63.4690 C   0  0  0  0  0  0  0  0  0  0  0  0
  130.9750  122.5000   64.1710 N   0  0  0  0  0  0  0  0  0  0  0  0
  130.4970  127.4110   67.4430 C   0  0  0  0  0  0  0  0  0  0  0  0
  130.5680  128.0290   68.6880 C   0  0  0  0  0  0  0  0  0  0  0  0
  129.1203  127.8898   72.9686 H   0  0  0  0  0  0  0  0  0  0  0  0
  127.9027  128.4453   71.7705 H   0  0  0  0  0  0  0  0  0  0  0  0
  128.4466  126.7334   71.7705 H   0  0  0  0  0  0  0  0  0  0  0  0
  128.3487  126.0836   70.3989 H   0  0  0  0  0  0  0  0  0  0  0  0
  128.2105  124.9796   68.1756 H   0  0  0  0  0  0  0  0  0  0  0  0
  128.5850  125.2360   65.8820 H   0  0  0  0  0  0  0  0  0  0  0  0
  128.6562  121.8935   57.4463 H   0  0  0  0  0  0  0  0  0  0  0  0
  127.2858  121.9182   55.3719 H   0  0  0  0  0  0  0  0  0  0  0  0
  125.0301  122.9729   55.3856 H   0  0  0  0  0  0  0  0  0  0  0  0
  124.1458  124.0145   57.4671 H   0  0  0  0  0  0  0  0  0  0  0  0
  125.5141  123.9937   59.5426 H   0  0  0  0  0  0  0  0  0  0  0  0
  128.6852  120.8783   59.6826 H   0  0  0  0  0  0  0  0  0  0  0  0
  131.2590  121.6070   63.7920 H   0  0  0  0  0  0  0  0  0  0  0  0
  131.3090  122.7290   65.0960 H   0  0  0  0  0  0  0  0  0  0  0  0
  131.0983  127.7930   66.6048 H   0  0  0  0  0  0  0  0  0  0  0  0
  131.2318  128.8943   68.8317 H   0  0  0  0  0  0  0  0  0  0  0  0
  1  2  1  0
  2  3  1  0
  3  4  2  0
  4  5  1  0
  5  6  2  0
  6  7  1  0
  7  8  1  0
  8  9  2  0
  8 10  1  0
 10 11  1  0
 11 12  1  0
 12 13  2  0
 13 14  1  0
 14 15  1  0
 15 16  2  0
 16 17  1  0
 17 18  2  0
 18 19  1  0
 19 20  2  0
 14 21  2  0
 21 22  1  0
 22 23  1  0
 23 24  1  0
 23 25  1  0
 23 26  1  0
 22 27  2  0
 27 28  1  0
 28 29  1  0
  6 30  1  0
 30 31  2  0
 31  3  1  0
 28 10  2  0
 27 12  1  0
 20 15  1  0
  1 32  1  0
  1 33  1  0
  1 34  1  0
  4 35  1  0
  5 36  1  0
  7 37  1  0
 16 38  1  0
 17 39  1  0
 18 40  1  0
 19 41  1  0
 20 42  1  0
 21 43  1  0
 29 44  1  0
 29 45  1  0
 30 46  1  0
 31 47  1  0
M  END
>  <Binding energies>  (1) 
[-7.59]

>  <Ligand effiencies>  (1) 
[-0.22323529411764706]

>  <Interactions>  (1) 
["V-B:TYR:539:CE2:9845, V-A:HIS:456:CE1:4066, V-B:TYR:539:CD1:9842, V-B:PRO:540:CA:9852, V-B:TYR:539:CE1:9844, V-B:ALA:541:CB:9861, V-B:TYR:539:C:9836, H-A:TYR:484:OH:4344, V-B:PRO:540:N:9853, V-B:PRO:540:CB:9854, V-B:TYR:539:CD2:9843, H-B:GLU:543:OE2:9879, V-A:TYR:484:CE1:4341, V-B:HIS:456:CD2:9036, V-A:GLU:543:CB:4903, V-B:GLU:543:CB:9875, V-B:GLU:543:CD:9877, V-A:GLU:543:C:4899, V-A:TYR:484:CZ:4343, V-B:GLU:543:CG:9876, V-A:LEU:475:CD1:4254, V-B:PRO:540:CD:9856, V-A:LEU:475:CD2:4255, V-B:GLU:543:C:9871, H-B:GLU:543:OE1:9878, V-B:LEU:363:CD1:8157, V-B:ILE:538:CB:9831, V-A:PRO:482:CG:4323, V-A:LEU:475:CG:4253, V-B:ILE:538:CA:9829, V-A:PRO:482:CB:4322"]

$$$$
4cd_Grossjean_2025
     RDKit          3D

 43 46  0  0  0  0  0  0  0  0999 V2000
  131.0180  122.4360   64.1570 N   0  0  0  0  0  0  0  0  0  0  0  0
  130.2050  123.2990   63.4670 C   0  0  0  0  0  0  0  0  0  0  0  0
  129.9450  124.6140   63.8870 C   0  0  0  0  0  0  0  0  0  0  0  0
  130.4360  125.3040   65.0840 C   0  0  0  0  0  0  0  0  0  0  0  0
  131.6440  125.4380   65.2810 O   0  0  0  0  0  0  0  0  0  0  0  0
  129.4760  125.7710   65.9190 N   0  0  0  0  0  0  0  0  0  0  0  0
  129.6060  126.4220   67.1590 C   0  0  0  0  0  0  0  0  0  0  0  0
  128.7600  125.9750   68.1780 C   0  0  0  0  0  0  0  0  0  0  0  0
  128.8230  126.5470   69.4450 C   0  0  0  0  0  0  0  0  0  0  0  0
  129.7380  127.5660   69.6970 C   0  0  0  0  0  0  0  0  0  0  0  0
  130.5960  128.0130   68.6960 C   0  0  0  0  0  0  0  0  0  0  0  0
  130.5360  127.4420   67.4260 C   0  0  0  0  0  0  0  0  0  0  0  0
  128.8710  125.4410   62.7610 S   0  0  0  0  0  0  0  0  0  0  0  0
  128.7700  124.0230   61.7450 C   0  0  0  0  0  0  0  0  0  0  0  0
  128.0360  124.0140   60.6340 N   0  0  0  0  0  0  0  0  0  0  0  0
  128.0090  122.8610   59.9170 C   0  0  0  0  0  0  0  0  0  0  0  0
  127.1710  122.8810   58.6710 C   0  0  0  0  0  0  0  0  0  0  0  0
  127.6400  122.3040   57.4800 C   0  0  0  0  0  0  0  0  0  0  0  0
  126.8680  122.3180   56.3220 C   0  0  0  0  0  0  0  0  0  0  0  0
  125.6100  122.9120   56.3390 C   0  0  0  0  0  0  0  0  0  0  0  0
  125.1200  123.4880   57.5050 C   0  0  0  0  0  0  0  0  0  0  0  0
  125.8940  123.4690   58.6620 C   0  0  0  0  0  0  0  0  0  0  0  0
  128.7330  121.7300   60.3060 C   0  0  0  0  0  0  0  0  0  0  0  0
  129.5130  121.7300   61.4740 C   0  0  0  0  0  0  0  0  0  0  0  0
  130.2780  120.4540   61.8450 C   0  0  0  0  0  0  0  0  0  0  0  0
  129.8820  119.3850   61.1510 F   0  0  0  0  0  0  0  0  0  0  0  0
  131.5790  120.6230   61.6080 F   0  0  0  0  0  0  0  0  0  0  0  0
  130.0980  120.1800   63.1370 F   0  0  0  0  0  0  0  0  0  0  0  0
  129.5400  122.9290   62.2410 C   0  0  0  0  0  0  0  0  0  0  0  0
  131.4270  122.6840   65.0470 H   0  0  0  0  0  0  0  0  0  0  0  0
  131.2330  121.5160   63.7980 H   0  0  0  0  0  0  0  0  0  0  0  0
  128.5220  125.6520   65.6100 H   0  0  0  0  0  0  0  0  0  0  0  0
  128.0409  125.1671   67.9774 H   0  0  0  0  0  0  0  0  0  0  0  0
  128.1531  126.1958   70.2437 H   0  0  0  0  0  0  0  0  0  0  0  0
  129.7833  128.0222   70.6969 H   0  0  0  0  0  0  0  0  0  0  0  0
  131.3192  128.8146   68.9068 H   0  0  0  0  0  0  0  0  0  0  0  0
  131.2154  127.7890   66.6336 H   0  0  0  0  0  0  0  0  0  0  0  0
  128.6340  121.8331   57.4618 H   0  0  0  0  0  0  0  0  0  0  0  0
  127.2508  121.8614   55.3974 H   0  0  0  0  0  0  0  0  0  0  0  0
  124.9995  122.9258   55.4240 H   0  0  0  0  0  0  0  0  0  0  0  0
  124.1250  123.9569   57.5137 H   0  0  0  0  0  0  0  0  0  0  0  0
  125.5001  123.9214   59.5841 H   0  0  0  0  0  0  0  0  0  0  0  0
  128.6909  120.8228   59.6854 H   0  0  0  0  0  0  0  0  0  0  0  0
  1  2  1  0
  2  3  2  0
  3  4  1  0
  4  5  2  0
  4  6  1  0
  6  7  1  0
  7  8  2  0
  8  9  1  0
  9 10  2  0
 10 11  1  0
 11 12  2  0
  3 13  1  0
 13 14  1  0
 14 15  2  0
 15 16  1  0
 16 17  1  0
 17 18  2  0
 18 19  1  0
 19 20  2  0
 20 21  1  0
 21 22  2  0
 16 23  2  0
 23 24  1  0
 24 25  1  0
 25 26  1  0
 25 27  1  0
 25 28  1  0
 24 29  2  0
 29  2  1  0
 12  7  1  0
 29 14  1  0
 22 17  1  0
  1 30  1  0
  1 31  1  0
  6 32  1  0
  8 33  1  0
  9 34  1  0
 10 35  1  0
 11 36  1  0
 12 37  1  0
 18 38  1  0
 19 39  1  0
 20 40  1  0
 21 41  1  0
 22 42  1  0
 23 43  1  0
M  END
>  <Binding energies>  (1) 
[-7.7]

>  <Ligand effiencies>  (1) 
[-0.240625]

>  <Interactions>  (1) 
["V-B:TYR:539:CE2:9845, V-A:HIS:456:CE1:4066, V-B:TYR:539:CG:9841, V-B:TYR:539:CD1:9842, V-B:PRO:540:CA:9852, V-B:TYR:539:CE1:9844, V-B:ALA:541:CB:9861, V-B:TYR:539:C:9836, H-A:TYR:484:OH:4344, V-B:PRO:540:N:9853, V-B:PRO:540:CB:9854, V-B:TYR:539:CD2:9843, H-B:GLU:543:OE2:9879, V-A:TYR:484:CE1:4341, V-A:GLU:543:CB:4903, V-B:GLU:543:CB:9875, V-B:GLU:543:CD:9877, V-A:GLU:543:C:4899, V-A:TYR:484:CZ:4343, V-B:GLU:543:CG:9876, V-A:LEU:475:CD1:4254, V-B:PRO:540:CD:9856, V-A:LEU:475:CD2:4255, V-B:GLU:543:C:9871, H-B:GLU:543:OE1:9878, V-B:LEU:363:CD1:8157, V-B:ILE:538:CB:9831, V-A:PRO:482:CG:4323, V-A:LEU:475:CG:4253, V-B:ILE:538:CA:9829, V-A:PRO:482:CB:4322"]

$$$$
4ce_Grossjean_2025
     RDKit          3D

 45 48  0  0  0  0  0  0  0  0999 V2000
  128.0900  126.3550   70.8350 C   0  0  0  0  0  0  0  0  0  0  0  0
  129.0010  126.7380   69.6840 C   0  0  0  0  0  0  0  0  0  0  0  0
  130.0050  127.6980   69.8350 C   0  0  0  0  0  0  0  0  0  0  0  0
  130.8120  127.9930   68.7350 C   0  0  0  0  0  0  0  0  0  0  0  0
  130.5990  127.3290   67.5260 C   0  0  0  0  0  0  0  0  0  0  0  0
  129.5710  126.3820   67.4420 C   0  0  0  0  0  0  0  0  0  0  0  0
  129.4220  125.7300   66.2050 N   0  0  0  0  0  0  0  0  0  0  0  0
  130.3830  125.2420   65.3810 C   0  0  0  0  0  0  0  0  0  0  0  0
  131.5890  125.2940   65.6290 O   0  0  0  0  0  0  0  0  0  0  0  0
  129.8990  124.6290   64.1420 C   0  0  0  0  0  0  0  0  0  0  0  0
  128.9030  125.5590   63.0240 S   0  0  0  0  0  0  0  0  0  0  0  0
  128.8210  124.2150   61.9100 C   0  0  0  0  0  0  0  0  0  0  0  0
  128.1520  124.3040   60.7640 N   0  0  0  0  0  0  0  0  0  0  0  0
  128.1570  123.2110   59.9550 C   0  0  0  0  0  0  0  0  0  0  0  0
  127.3980  123.3460   58.6680 C   0  0  0  0  0  0  0  0  0  0  0  0
  127.8990  122.7900   57.4790 C   0  0  0  0  0  0  0  0  0  0  0  0
  127.2040  122.9180   56.2800 C   0  0  0  0  0  0  0  0  0  0  0  0
  125.9940  123.6030   56.2520 C   0  0  0  0  0  0  0  0  0  0  0  0
  125.4760  124.1640   57.4150 C   0  0  0  0  0  0  0  0  0  0  0  0
  126.1760  124.0370   58.6120 C   0  0  0  0  0  0  0  0  0  0  0  0
  128.8140  122.0300   60.3120 C   0  0  0  0  0  0  0  0  0  0  0  0
  129.5190  121.9240   61.5220 C   0  0  0  0  0  0  0  0  0  0  0  0
  130.2180  120.6000   61.8490 C   0  0  0  0  0  0  0  0  0  0  0  0
  130.0450  120.2150   63.1150 F   0  0  0  0  0  0  0  0  0  0  0  0
  129.7390  119.6310   61.0680 F   0  0  0  0  0  0  0  0  0  0  0  0
  131.5300  120.7210   61.6450 F   0  0  0  0  0  0  0  0  0  0  0  0
  129.5330  123.0680   62.3700 C   0  0  0  0  0  0  0  0  0  0  0  0
  130.1390  123.3350   63.6520 C   0  0  0  0  0  0  0  0  0  0  0  0
  130.8850  122.4030   64.3280 N   0  0  0  0  0  0  0  0  0  0  0  0
  128.7810  126.0840   68.5140 N   0  0  0  0  0  0  0  0  0  0  0  0
  128.5952  126.5674   71.7888 H   0  0  0  0  0  0  0  0  0  0  0  0
  127.1590  126.9379   70.7754 H   0  0  0  0  0  0  0  0  0  0  0  0
  127.8552  125.2820   70.7754 H   0  0  0  0  0  0  0  0  0  0  0  0
  130.1558  128.2089   70.7974 H   0  0  0  0  0  0  0  0  0  0  0  0
  131.6110  128.7442   68.8205 H   0  0  0  0  0  0  0  0  0  0  0  0
  131.2298  127.5465   66.6515 H   0  0  0  0  0  0  0  0  0  0  0  0
  128.4660  125.5760   65.9210 H   0  0  0  0  0  0  0  0  0  0  0  0
  128.8546  122.2455   57.4960 H   0  0  0  0  0  0  0  0  0  0  0  0
  127.6106  122.4786   55.3572 H   0  0  0  0  0  0  0  0  0  0  0  0
  125.4433  123.7018   55.3049 H   0  0  0  0  0  0  0  0  0  0  0  0
  124.5186  124.7050   57.3891 H   0  0  0  0  0  0  0  0  0  0  0  0
  125.7654  124.4851   59.5289 H   0  0  0  0  0  0  0  0  0  0  0  0
  128.7781  121.1664   59.6316 H   0  0  0  0  0  0  0  0  0  0  0  0
  131.6900  122.6620   64.8810 H   0  0  0  0  0  0  0  0  0  0  0  0
  130.6540  121.4200   64.2930 H   0  0  0  0  0  0  0  0  0  0  0  0
  1  2  1  0
  2  3  2  0
  3  4  1  0
  4  5  2  0
  5  6  1  0
  6  7  1  0
  7  8  1  0
  8  9  2  0
  8 10  1  0
 10 11  1  0
 11 12  1  0
 12 13  2  0
 13 14  1  0
 14 15  1  0
 15 16  2  0
 16 17  1  0
 17 18  2  0
 18 19  1  0
 19 20  2  0
 14 21  2  0
 21 22  1  0
 22 23  1  0
 23 24  1  0
 23 25  1  0
 23 26  1  0
 22 27  2  0
 27 28  1  0
 28 29  1  0
  6 30  2  0
 30  2  1  0
 28 10  2  0
 27 12  1  0
 20 15  1  0
  1 31  1  0
  1 32  1  0
  1 33  1  0
  3 34  1  0
  4 35  1  0
  5 36  1  0
  7 37  1  0
 16 38  1  0
 17 39  1  0
 18 40  1  0
 19 41  1  0
 20 42  1  0
 21 43  1  0
 29 44  1  0
 29 45  1  0
M  END
>  <Binding energies>  (1) 
[-7.4]

>  <Ligand effiencies>  (1) 
[-0.22424242424242424]

>  <Interactions>  (1) 
["V-B:TYR:539:CE2:9845, V-A:HIS:456:CE1:4066, V-B:TYR:539:CG:9841, V-B:TYR:539:CD1:9842, V-B:TYR:539:CZ:9846, V-B:PRO:540:CA:9852, V-B:TYR:539:CE1:9844, V-B:ALA:541:CB:9861, V-B:TYR:539:C:9836, H-A:TYR:484:OH:4344, V-B:TYR:539:CD2:9843, H-B:GLU:543:OE2:9879, V-A:TYR:484:CE1:4341, V-A:GLU:543:CB:4903, V-B:GLY:544:C:9881, V-B:GLU:543:CB:9875, V-B:GLU:543:CD:9877, V-A:GLU:543:C:4899, V-A:TYR:484:CZ:4343, V-B:GLU:543:CG:9876, V-A:LEU:475:CD1:4254, V-A:LEU:475:CD2:4255, V-B:MET:535:CE:9804, H-B:GLU:543:OE1:9878, V-A:PRO:482:CG:4323, V-A:LEU:475:CG:4253, V-A:PRO:482:CB:4322"]

$$$$
4cf_Grossjean_2025
     RDKit          3D

 42 45  0  0  0  0  0  0  0  0999 V2000
  131.0270  122.5120   64.0860 N   0  0  0  0  0  0  0  0  0  0  0  0
  130.2240  123.3820   63.3950 C   0  0  0  0  0  0  0  0  0  0  0  0
  129.9850  124.7030   63.8080 C   0  0  0  0  0  0  0  0  0  0  0  0
  130.4750  125.3880   65.0080 C   0  0  0  0  0  0  0  0  0  0  0  0
  131.6840  125.5220   65.2030 O   0  0  0  0  0  0  0  0  0  0  0  0
  129.5160  125.8530   65.8430 N   0  0  0  0  0  0  0  0  0  0  0  0
  129.6440  126.5020   67.0860 C   0  0  0  0  0  0  0  0  0  0  0  0
  130.6220  127.4630   67.4090 C   0  0  0  0  0  0  0  0  0  0  0  0
  130.6470  128.0200   68.6890 C   0  0  0  0  0  0  0  0  0  0  0  0
  129.6940  127.6020   69.6180 C   0  0  0  0  0  0  0  0  0  0  0  0
  128.7460  126.6740   69.3350 N   0  0  0  0  0  0  0  0  0  0  0  0
  128.7360  126.1400   68.0870 C   0  0  0  0  0  0  0  0  0  0  0  0
  128.9150  125.5370   62.6840 S   0  0  0  0  0  0  0  0  0  0  0  0
  128.7890  124.1140   61.6770 C   0  0  0  0  0  0  0  0  0  0  0  0
  128.0440  124.1070   60.5730 N   0  0  0  0  0  0  0  0  0  0  0  0
  127.9960  122.9490   59.8650 C   0  0  0  0  0  0  0  0  0  0  0  0
  127.1430  122.9690   58.6300 C   0  0  0  0  0  0  0  0  0  0  0  0
  127.6010  122.3970   57.4320 C   0  0  0  0  0  0  0  0  0  0  0  0
  126.8160  122.4100   56.2820 C   0  0  0  0  0  0  0  0  0  0  0  0
  125.5550  122.9960   56.3160 C   0  0  0  0  0  0  0  0  0  0  0  0
  125.0750  123.5680   57.4900 C   0  0  0  0  0  0  0  0  0  0  0  0
  125.8630  123.5520   58.6360 C   0  0  0  0  0  0  0  0  0  0  0  0
  128.7130  121.8130   60.2530 C   0  0  0  0  0  0  0  0  0  0  0  0
  129.5040  121.8120   61.4130 C   0  0  0  0  0  0  0  0  0  0  0  0
  130.2600  120.5300   61.7840 C   0  0  0  0  0  0  0  0  0  0  0  0
  129.8350  119.4580   61.1120 F   0  0  0  0  0  0  0  0  0  0  0  0
  131.5570  120.6790   61.5180 F   0  0  0  0  0  0  0  0  0  0  0  0
  130.1040  120.2740   63.0830 F   0  0  0  0  0  0  0  0  0  0  0  0
  129.5480  123.0150   62.1740 C   0  0  0  0  0  0  0  0  0  0  0  0
  131.3650  122.7200   65.0160 H   0  0  0  0  0  0  0  0  0  0  0  0
  131.3100  121.6270   63.6880 H   0  0  0  0  0  0  0  0  0  0  0  0
  128.5610  125.7250   65.5390 H   0  0  0  0  0  0  0  0  0  0  0  0
  131.3622  127.7730   66.6566 H   0  0  0  0  0  0  0  0  0  0  0  0
  131.4023  128.7726   68.9592 H   0  0  0  0  0  0  0  0  0  0  0  0
  129.7121  128.0446   70.6249 H   0  0  0  0  0  0  0  0  0  0  0  0
  127.9740  125.3829   67.8503 H   0  0  0  0  0  0  0  0  0  0  0  0
  128.5968  121.9308   57.4016 H   0  0  0  0  0  0  0  0  0  0  0  0
  127.1912  121.9592   55.3514 H   0  0  0  0  0  0  0  0  0  0  0  0
  124.9331  123.0073   55.4087 H   0  0  0  0  0  0  0  0  0  0  0  0
  124.0772  124.0306   57.5117 H   0  0  0  0  0  0  0  0  0  0  0  0
  125.4786  124.0029   59.5628 H   0  0  0  0  0  0  0  0  0  0  0  0
  128.6563  120.9029   59.6378 H   0  0  0  0  0  0  0  0  0  0  0  0
  1  2  1  0
  2  3  2  0
  3  4  1  0
  4  5  2  0
  4  6  1  0
  6  7  1  0
  7  8  2  0
  8  9  1  0
  9 10  2  0
 10 11  1  0
 11 12  2  0
  3 13  1  0
 13 14  1  0
 14 15  2  0
 15 16  1  0
 16 17  1  0
 17 18  2  0
 18 19  1  0
 19 20  2  0
 20 21  1  0
 21 22  2  0
 16 23  2  0
 23 24  1  0
 24 25  1  0
 25 26  1  0
 25 27  1  0
 25 28  1  0
 24 29  2  0
 29  2  1  0
 12  7  1  0
 29 14  1  0
 22 17  1  0
  1 30  1  0
  1 31  1  0
  6 32  1  0
  8 33  1  0
  9 34  1  0
 10 35  1  0
 12 36  1  0
 18 37  1  0
 19 38  1  0
 20 39  1  0
 21 40  1  0
 22 41  1  0
 23 42  1  0
M  END
>  <Binding energies>  (1) 
[-7.37]

>  <Ligand effiencies>  (1) 
[-0.2303125]

>  <Interactions>  (1) 
["V-B:TYR:539:CE2:9845, V-A:HIS:456:CE1:4066, V-B:TYR:539:CD1:9842, V-B:PRO:540:CA:9852, V-B:TYR:539:CE1:9844, V-B:ALA:541:CB:9861, V-B:TYR:539:C:9836, H-A:TYR:484:OH:4344, V-B:PRO:540:N:9853, V-B:PRO:540:CB:9854, V-B:TYR:539:CD2:9843, H-B:GLU:543:OE2:9879, V-A:TYR:484:CE1:4341, V-A:GLU:543:CB:4903, V-B:GLU:543:CB:9875, V-B:GLU:543:CD:9877, V-A:GLU:543:C:4899, V-B:GLU:543:CG:9876, V-A:LEU:475:CD1:4254, V-B:PRO:540:CD:9856, V-A:LEU:475:CD2:4255, H-B:GLU:543:OE1:9878, V-B:LEU:363:CD1:8157, V-B:ILE:538:CB:9831, V-A:PRO:482:CG:4323, V-A:LEU:475:CG:4253, V-A:PRO:482:CB:4322"]

$$$$
4cg_Grossjean_2025
     RDKit          3D

 46 49  0  0  0  0  0  0  0  0999 V2000
  131.2060  122.4170   64.0320 N   0  0  0  0  0  0  0  0  0  0  0  0
  130.3870  123.2950   63.3690 C   0  0  0  0  0  0  0  0  0  0  0  0
  130.1940  124.6220   63.7790 C   0  0  0  0  0  0  0  0  0  0  0  0
  130.8170  125.3330   64.8950 C   0  0  0  0  0  0  0  0  0  0  0  0
  131.8920  124.9630   65.3710 O   0  0  0  0  0  0  0  0  0  0  0  0
  130.1260  126.3820   65.3890 N   0  0  0  0  0  0  0  0  0  0  0  0
  130.5640  127.2460   66.4820 C   0  0  0  0  0  0  0  0  0  0  0  0
  129.7750  127.0430   67.7710 C   0  0  0  0  0  0  0  0  0  0  0  0
  130.2200  127.6310   68.9580 C   0  0  0  0  0  0  0  0  0  0  0  0
  129.4840  127.4730   70.1300 C   0  0  0  0  0  0  0  0  0  0  0  0
  128.3020  126.7370   70.1090 C   0  0  0  0  0  0  0  0  0  0  0  0
  127.8450  126.1620   68.9250 C   0  0  0  0  0  0  0  0  0  0  0  0
  128.5790  126.3200   67.7520 C   0  0  0  0  0  0  0  0  0  0  0  0
  129.0980  125.4760   62.6950 S   0  0  0  0  0  0  0  0  0  0  0  0
  128.8890  124.0440   61.7140 C   0  0  0  0  0  0  0  0  0  0  0  0
  128.1010  124.0470   60.6420 N   0  0  0  0  0  0  0  0  0  0  0  0
  128.0030  122.8890   59.9380 C   0  0  0  0  0  0  0  0  0  0  0  0
  127.1040  122.9240   58.7350 C   0  0  0  0  0  0  0  0  0  0  0  0
  125.8330  123.5180   58.8010 C   0  0  0  0  0  0  0  0  0  0  0  0
  124.9970  123.5520   57.6890 C   0  0  0  0  0  0  0  0  0  0  0  0
  125.4190  122.9880   56.4890 C   0  0  0  0  0  0  0  0  0  0  0  0
  126.6710  122.3900   56.3970 C   0  0  0  0  0  0  0  0  0  0  0  0
  127.5040  122.3580   57.5110 C   0  0  0  0  0  0  0  0  0  0  0  0
  128.6830  121.7290   60.3270 C   0  0  0  0  0  0  0  0  0  0  0  0
  129.5160  121.7150   61.4560 C   0  0  0  0  0  0  0  0  0  0  0  0
  130.2310  120.4100   61.8250 C   0  0  0  0  0  0  0  0  0  0  0  0
  130.1210  120.1010   63.1190 F   0  0  0  0  0  0  0  0  0  0  0  0
  129.7130  119.3990   61.1270 F   0  0  0  0  0  0  0  0  0  0  0  0
  131.5300  120.5140   61.5500 F   0  0  0  0  0  0  0  0  0  0  0  0
  129.6370  122.9290   62.1930 C   0  0  0  0  0  0  0  0  0  0  0  0
  131.7240  122.6870   64.8570 H   0  0  0  0  0  0  0  0  0  0  0  0
  131.3130  121.4620   63.7200 H   0  0  0  0  0  0  0  0  0  0  0  0
  129.2900  126.6710   64.9020 H   0  0  0  0  0  0  0  0  0  0  0  0
  131.6246  127.0382   66.6865 H   0  0  0  0  0  0  0  0  0  0  0  0
  130.3970  128.2846   66.1604 H   0  0  0  0  0  0  0  0  0  0  0  0
  131.1503  128.2179   68.9668 H   0  0  0  0  0  0  0  0  0  0  0  0
  129.8350  127.9277   71.0681 H   0  0  0  0  0  0  0  0  0  0  0  0
  127.7237  126.6084   71.0358 H   0  0  0  0  0  0  0  0  0  0  0  0
  126.9082  125.5855   68.9167 H   0  0  0  0  0  0  0  0  0  0  0  0
  128.2181  125.8766   66.8123 H   0  0  0  0  0  0  0  0  0  0  0  0
  125.4927  123.9637   59.7473 H   0  0  0  0  0  0  0  0  0  0  0  0
  124.0055  124.0233   57.7585 H   0  0  0  0  0  0  0  0  0  0  0  0
  124.7593  123.0153   55.6092 H   0  0  0  0  0  0  0  0  0  0  0  0
  127.0015  121.9440   55.4473 H   0  0  0  0  0  0  0  0  0  0  0  0
  128.4925  121.8818   57.4332 H   0  0  0  0  0  0  0  0  0  0  0  0
  128.5618  120.8095   59.7355 H   0  0  0  0  0  0  0  0  0  0  0  0
  1  2  1  0
  2  3  2  0
  3  4  1  0
  4  5  2  0
  4  6  1  0
  6  7  1  0
  7  8  1  0
  8  9  2  0
  9 10  1  0
 10 11  2  0
 11 12  1  0
 12 13  2  0
  3 14  1  0
 14 15  1  0
 15 16  2  0
 16 17  1  0
 17 18  1  0
 18 19  2  0
 19 20  1  0
 20 21  2  0
 21 22  1  0
 22 23  2  0
 17 24  2  0
 24 25  1  0
 25 26  1  0
 26 27  1  0
 26 28  1  0
 26 29  1  0
 25 30  2  0
 30  2  1  0
 13  8  1  0
 30 15  1  0
 23 18  1  0
  1 31  1  0
  1 32  1  0
  6 33  1  0
  7 34  1  0
  7 35  1  0
  9 36  1  0
 10 37  1  0
 11 38  1  0
 12 39  1  0
 13 40  1  0
 19 41  1  0
 20 42  1  0
 21 43  1  0
 22 44  1  0
 23 45  1  0
 24 46  1  0
M  END
>  <Binding energies>  (1) 
[-7.75]

>  <Ligand effiencies>  (1) 
[-0.23484848484848486]

>  <Interactions>  (1) 
["V-B:TYR:539:CE2:9845, V-A:HIS:456:CE1:4066, V-B:TYR:539:CD1:9842, V-B:PRO:540:CA:9852, V-B:ALA:541:CB:9861, V-B:TYR:539:C:9836, H-A:TYR:484:OH:4344, V-B:PRO:540:N:9853, V-B:PRO:540:CB:9854, V-B:TYR:539:CD2:9843, V-A:TYR:484:CE1:4341, V-B:HIS:456:CD2:9036, V-A:GLU:543:CB:4903, V-B:GLU:543:CB:9875, V-B:GLU:543:CD:9877, V-B:HIS:456:CE1:9038, V-A:GLU:543:CD:4905, V-A:LEU:475:CD1:4254, H-A:GLU:543:OE1:4906, V-B:PRO:540:CD:9856, V-A:LEU:475:CD2:4255, V-B:GLU:543:C:9871, H-B:GLU:543:OE1:9878, V-B:LEU:363:CD1:8157, V-B:ILE:538:CB:9831, V-A:PRO:482:CG:4323, V-A:LEU:475:CG:4253, V-A:PRO:482:CB:4322"]

$$$$
4ch_Grossjean_2025
     RDKit          3D

 58 61  0  0  0  0  0  0  0  0999 V2000
  129.8940  122.7250   71.9130 C   0  0  0  0  0  0  0  0  0  0  0  0
  129.7130  123.8060   72.8230 O   0  0  0  0  0  0  0  0  0  0  0  0
  129.1950  125.0010   72.3600 C   0  0  0  0  0  0  0  0  0  0  0  0
  128.3470  125.1100   71.2450 C   0  0  0  0  0  0  0  0  0  0  0  0
  127.8590  126.3520   70.8350 C   0  0  0  0  0  0  0  0  0  0  0  0
  126.9630  126.4530   69.6070 C   0  0  0  0  0  0  0  0  0  0  0  0
  127.6760  126.3400   68.3330 N   0  0  0  0  0  0  0  0  0  0  0  0
  128.7800  127.0340   67.9880 C   0  0  0  0  0  0  0  0  0  0  0  0
  129.3250  127.8350   68.7500 O   0  0  0  0  0  0  0  0  0  0  0  0
  129.3230  126.7540   66.6580 C   0  0  0  0  0  0  0  0  0  0  0  0
  130.6970  125.6670   66.4770 S   0  0  0  0  0  0  0  0  0  0  0  0
  130.6730  125.8560   64.7400 C   0  0  0  0  0  0  0  0  0  0  0  0
  131.5540  125.2340   63.9610 N   0  0  0  0  0  0  0  0  0  0  0  0
  131.4540  125.4370   62.6220 C   0  0  0  0  0  0  0  0  0  0  0  0
  132.4670  124.7250   61.7720 C   0  0  0  0  0  0  0  0  0  0  0  0
  133.6420  124.2040   62.3380 C   0  0  0  0  0  0  0  0  0  0  0  0
  134.5860  123.5440   61.5550 C   0  0  0  0  0  0  0  0  0  0  0  0
  134.3670  123.3950   60.1900 C   0  0  0  0  0  0  0  0  0  0  0  0
  133.2140  123.9050   59.6020 C   0  0  0  0  0  0  0  0  0  0  0  0
  132.2740  124.5670   60.3890 C   0  0  0  0  0  0  0  0  0  0  0  0
  130.4810  126.2790   62.0730 C   0  0  0  0  0  0  0  0  0  0  0  0
  129.5470  126.9420   62.8850 C   0  0  0  0  0  0  0  0  0  0  0  0
  128.5070  127.8490   62.2190 C   0  0  0  0  0  0  0  0  0  0  0  0
  127.2930  127.2970   62.1560 F   0  0  0  0  0  0  0  0  0  0  0  0
  128.3930  128.9850   62.9050 F   0  0  0  0  0  0  0  0  0  0  0  0
  128.8830  128.1260   60.9710 F   0  0  0  0  0  0  0  0  0  0  0  0
  129.6350  126.7250   64.2910 C   0  0  0  0  0  0  0  0  0  0  0  0
  128.8700  127.2150   65.4120 C   0  0  0  0  0  0  0  0  0  0  0  0
  127.8020  128.0640   65.2700 N   0  0  0  0  0  0  0  0  0  0  0  0
  128.2320  127.5020   71.5320 C   0  0  0  0  0  0  0  0  0  0  0  0
  129.0790  127.4230   72.6500 C   0  0  0  0  0  0  0  0  0  0  0  0
  129.4870  128.5190   73.3870 O   0  0  0  0  0  0  0  0  0  0  0  0
  129.1880  129.8290   72.9160 C   0  0  0  0  0  0  0  0  0  0  0  0
  129.5480  126.1660   73.0570 C   0  0  0  0  0  0  0  0  0  0  0  0
  130.3900  126.0760   74.1390 O   0  0  0  0  0  0  0  0  0  0  0  0
  131.5960  125.3720   73.8780 C   0  0  0  0  0  0  0  0  0  0  0  0
  130.0500  121.7934   72.4767 H   0  0  0  0  0  0  0  0  0  0  0  0
  129.0001  122.6251   71.2798 H   0  0  0  0  0  0  0  0  0  0  0  0
  130.7717  122.9218   71.2798 H   0  0  0  0  0  0  0  0  0  0  0  0
  128.0639  124.2048   70.6878 H   0  0  0  0  0  0  0  0  0  0  0  0
  126.2165  125.6466   69.6573 H   0  0  0  0  0  0  0  0  0  0  0  0
  126.5098  127.4551   69.6279 H   0  0  0  0  0  0  0  0  0  0  0  0
  127.2520  125.7410   67.6390 H   0  0  0  0  0  0  0  0  0  0  0  0
  133.8197  124.3191   63.4174 H   0  0  0  0  0  0  0  0  0  0  0  0
  135.5011  123.1422   62.0146 H   0  0  0  0  0  0  0  0  0  0  0  0
  135.1101  122.8706   59.5712 H   0  0  0  0  0  0  0  0  0  0  0  0
  133.0453  123.7863   58.5215 H   0  0  0  0  0  0  0  0  0  0  0  0
  131.3655  124.9728   59.9199 H   0  0  0  0  0  0  0  0  0  0  0  0
  130.4470  126.4246   60.9832 H   0  0  0  0  0  0  0  0  0  0  0  0
  126.8480  127.7370   65.3270 H   0  0  0  0  0  0  0  0  0  0  0  0
  127.9350  129.0520   65.1060 H   0  0  0  0  0  0  0  0  0  0  0  0
  127.8582  128.4825   71.2019 H   0  0  0  0  0  0  0  0  0  0  0  0
  129.0347  130.5008   73.7734 H   0  0  0  0  0  0  0  0  0  0  0  0
  130.0248  130.1990   72.3054 H   0  0  0  0  0  0  0  0  0  0  0  0
  128.2735  129.7993   72.3054 H   0  0  0  0  0  0  0  0  0  0  0  0
  132.0718  125.0942   74.8301 H   0  0  0  0  0  0  0  0  0  0  0  0
  131.3722  124.4627   73.3009 H   0  0  0  0  0  0  0  0  0  0  0  0
  132.2778  126.0140   73.3009 H   0  0  0  0  0  0  0  0  0  0  0  0
  1  2  1  0
  2  3  1  0
  3  4  2  0
  4  5  1  0
  5  6  1  0
  6  7  1  0
  7  8  1  0
  8  9  2  0
  8 10  1  0
 10 11  1  0
 11 12  1  0
 12 13  2  0
 13 14  1  0
 14 15  1  0
 15 16  2  0
 16 17  1  0
 17 18  2  0
 18 19  1  0
 19 20  2  0
 14 21  2  0
 21 22  1  0
 22 23  1  0
 23 24  1  0
 23 25  1  0
 23 26  1  0
 22 27  2  0
 27 28  1  0
 28 29  1  0
  5 30  2  0
 30 31  1  0
 31 32  1  0
 32 33  1  0
 31 34  2  0
 34 35  1  0
 35 36  1  0
 34  3  1  0
 28 10  2  0
 27 12  1  0
 20 15  1  0
  1 37  1  0
  1 38  1  0
  1 39  1  0
  4 40  1  0
  6 41  1  0
  6 42  1  0
  7 43  1  0
 16 44  1  0
 17 45  1  0
 18 46  1  0
 19 47  1  0
 20 48  1  0
 21 49  1  0
 29 50  1  0
 29 51  1  0
 30 52  1  0
 33 53  1  0
 33 54  1  0
 33 55  1  0
 36 56  1  0
 36 57  1  0
 36 58  1  0
M  END
>  <Binding energies>  (1) 
[-7.28]

>  <Ligand effiencies>  (1) 
[-0.18666666666666668]

>  <Interactions>  (1) 
["V-B:TYR:539:CE2:9845, V-A:HIS:456:CE1:4066, V-B:TYR:539:CZ:9846, V-A:GLY:453:C:4038, V-A:GLY:453:CA:4040, V-A:GLY:454:CA:4045, V-A:ASP:366:CG:3209, H-B:GLU:543:OE2:9879, V-B:HIS:456:CD2:9036, V-A:LYS:547:CE:4947, H-A:LYS:547:NZ:4948, V-B:GLY:544:C:9881, V-B:LYS:547:CE:9919, V-B:GLU:543:CB:9875, V-B:GLU:543:CD:9877, V-B:HIS:456:CE1:9038, V-A:GLU:543:CD:4905, V-A:ILE:369:CB:3232, V-A:ILE:369:CG2:3233, V-A:ILE:369:CG1:3234, H-A:GLU:543:OE2:4907, V-A:ASP:366:CB:3208, V-A:HIS:456:CD2:4064, V-B:GLU:543:C:9871, H-B:GLU:543:OE1:9878, V-B:GLY:544:CA:9883, V-B:HIS:456:CG:9034, V-A:ASP:366:CA:3206, V-A:TYR:484:CG:4338, V-A:TYR:484:CD2:4340, V-A:TYR:484:CB:4337, H-B:LYS:547:NZ:9920, V-A:TYR:484:CD1:4339, H-B:GLU:543:O:9872"]

$$$$
4ci_Grossjean_2025
     RDKit          3D

 39 42  0  0  0  0  0  0  0  0999 V2000
  127.4310  128.0910   66.2740 N   0  0  0  0  0  0  0  0  0  0  0  0
  128.4210  127.1420   66.2940 C   0  0  0  0  0  0  0  0  0  0  0  0
  128.8200  126.4710   67.4610 C   0  0  0  0  0  0  0  0  0  0  0  0
  128.2950  126.6160   68.8220 C   0  0  0  0  0  0  0  0  0  0  0  0
  127.0980  126.4340   69.0570 O   0  0  0  0  0  0  0  0  0  0  0  0
  129.2060  126.9660   69.7650 N   0  0  0  0  0  0  0  0  0  0  0  0
  128.9840  127.1720   71.1200 C   0  0  0  0  0  0  0  0  0  0  0  0
  127.7600  126.9220   71.7390 C   0  0  0  0  0  0  0  0  0  0  0  0
  127.9520  127.2500   73.0610 C   0  0  0  0  0  0  0  0  0  0  0  0
  129.2280  127.6750   73.2300 O   0  0  0  0  0  0  0  0  0  0  0  0
  129.8710  127.6220   71.9920 N   0  0  0  0  0  0  0  0  0  0  0  0
  130.1050  125.3150   67.1230 S   0  0  0  0  0  0  0  0  0  0  0  0
  130.1060  125.7430   65.4280 C   0  0  0  0  0  0  0  0  0  0  0  0
  130.9350  125.1610   64.5640 N   0  0  0  0  0  0  0  0  0  0  0  0
  130.8600  125.5560   63.2670 C   0  0  0  0  0  0  0  0  0  0  0  0
  131.8110  124.8860   62.3170 C   0  0  0  0  0  0  0  0  0  0  0  0
  133.0980  124.5060   62.7350 C   0  0  0  0  0  0  0  0  0  0  0  0
  133.9840  123.8830   61.8590 C   0  0  0  0  0  0  0  0  0  0  0  0
  133.5940  123.6310   60.5480 C   0  0  0  0  0  0  0  0  0  0  0  0
  132.3290  124.0000   60.1070 C   0  0  0  0  0  0  0  0  0  0  0  0
  131.4470  124.6240   60.9850 C   0  0  0  0  0  0  0  0  0  0  0  0
  129.9660  126.5470   62.8480 C   0  0  0  0  0  0  0  0  0  0  0  0
  129.0860  127.1670   63.7510 C   0  0  0  0  0  0  0  0  0  0  0  0
  128.1320  128.2440   63.2230 C   0  0  0  0  0  0  0  0  0  0  0  0
  128.0400  129.3030   64.0280 F   0  0  0  0  0  0  0  0  0  0  0  0
  128.5590  128.6800   62.0380 F   0  0  0  0  0  0  0  0  0  0  0  0
  126.9070  127.7350   63.0890 F   0  0  0  0  0  0  0  0  0  0  0  0
  129.1480  126.7500   65.1110 C   0  0  0  0  0  0  0  0  0  0  0  0
  126.4770  127.8640   66.0300 H   0  0  0  0  0  0  0  0  0  0  0  0
  127.6230  129.0550   66.5110 H   0  0  0  0  0  0  0  0  0  0  0  0
  130.1580  127.0970   69.4570 H   0  0  0  0  0  0  0  0  0  0  0  0
  126.8391  126.5439   71.2710 H   0  0  0  0  0  0  0  0  0  0  0  0
  127.1924  127.1789   73.8534 H   0  0  0  0  0  0  0  0  0  0  0  0
  133.4107  124.7038   63.7709 H   0  0  0  0  0  0  0  0  0  0  0  0
  134.9875  123.5917   62.2026 H   0  0  0  0  0  0  0  0  0  0  0  0
  134.2914  123.1364   59.8558 H   0  0  0  0  0  0  0  0  0  0  0  0
  132.0258  123.7999   59.0687 H   0  0  0  0  0  0  0  0  0  0  0  0
  130.4479  124.9171   60.6301 H   0  0  0  0  0  0  0  0  0  0  0  0
  129.9517  126.8471   61.7898 H   0  0  0  0  0  0  0  0  0  0  0  0
  1  2  1  0
  2  3  2  0
  3  4  1  0
  4  5  2  0
  4  6  1  0
  6  7  1  0
  7  8  1  0
  8  9  2  0
  9 10  1  0
 10 11  1  0
  3 12  1  0
 12 13  1  0
 13 14  2  0
 14 15  1  0
 15 16  1  0
 16 17  2  0
 17 18  1  0
 18 19  2  0
 19 20  1  0
 20 21  2  0
 15 22  2  0
 22 23  1  0
 23 24  1  0
 24 25  1  0
 24 26  1  0
 24 27  1  0
 23 28  2  0
 28  2  1  0
 11  7  2  0
 28 13  1  0
 21 16  1  0
  1 29  1  0
  1 30  1  0
  6 31  1  0
  8 32  1  0
  9 33  1  0
 17 34  1  0
 18 35  1  0
 19 36  1  0
 20 37  1  0
 21 38  1  0
 22 39  1  0
M  END
>  <Binding energies>  (1) 
[-7.0]

>  <Ligand effiencies>  (1) 
[-0.22580645161290322]

>  <Interactions>  (1) 
["V-B:TYR:539:CE2:9845, V-A:HIS:456:CE1:4066, V-B:TYR:539:CZ:9846, V-A:ASP:366:CG:3209, V-A:TYR:484:CE1:4341, V-B:HIS:456:CD2:9036, H-A:LYS:547:NZ:4948, V-B:GLY:544:C:9881, V-B:LYS:547:CE:9919, V-B:GLU:543:CB:9875, V-B:GLU:543:CD:9877, V-B:HIS:456:CE1:9038, V-A:TYR:484:CZ:4343, V-A:GLU:543:CD:4905, V-A:GLU:543:CG:4904, H-B:GLU:543:OE1:9878, H-A:HIS:456:NE2:4067, H-B:HIS:456:NE2:9039"]

$$$$
4cj_Grossjean_2025
     RDKit          3D

 39 42  0  0  0  0  0  0  0  0999 V2000
  131.0360  122.5590   64.1300 N   0  0  0  0  0  0  0  0  0  0  0  0
  130.2020  123.4080   63.4490 C   0  0  0  0  0  0  0  0  0  0  0  0
  129.9310  124.7210   63.8690 C   0  0  0  0  0  0  0  0  0  0  0  0
  130.4490  125.4300   65.0410 C   0  0  0  0  0  0  0  0  0  0  0  0
  131.6630  125.5350   65.2300 O   0  0  0  0  0  0  0  0  0  0  0  0
  129.5090  125.9350   65.8780 N   0  0  0  0  0  0  0  0  0  0  0  0
  129.7310  126.6450   67.0500 C   0  0  0  0  0  0  0  0  0  0  0  0
  130.6760  127.5290   67.2920 N   0  0  0  0  0  0  0  0  0  0  0  0
  130.5870  128.0100   68.5160 C   0  0  0  0  0  0  0  0  0  0  0  0
  129.5490  127.5150   69.2990 C   0  0  0  0  0  0  0  0  0  0  0  0
  128.6440  126.3550   68.3710 S   0  0  0  0  0  0  0  0  0  0  0  0
  128.8310  125.5310   62.7550 S   0  0  0  0  0  0  0  0  0  0  0  0
  128.7410  124.1110   61.7410 C   0  0  0  0  0  0  0  0  0  0  0  0
  128.0020  124.0940   60.6340 N   0  0  0  0  0  0  0  0  0  0  0  0
  128.0000  122.9480   59.9050 C   0  0  0  0  0  0  0  0  0  0  0  0
  127.1660  122.9670   58.6560 C   0  0  0  0  0  0  0  0  0  0  0  0
  125.8950  123.5630   58.6500 C   0  0  0  0  0  0  0  0  0  0  0  0
  125.1140  123.5790   57.4960 C   0  0  0  0  0  0  0  0  0  0  0  0
  125.5960  122.9950   56.3290 C   0  0  0  0  0  0  0  0  0  0  0  0
  126.8500  122.3960   56.3090 C   0  0  0  0  0  0  0  0  0  0  0  0
  127.6270  122.3840   57.4640 C   0  0  0  0  0  0  0  0  0  0  0  0
  128.7190  121.8170   60.3050 C   0  0  0  0  0  0  0  0  0  0  0  0
  129.5000  121.8230   61.4710 C   0  0  0  0  0  0  0  0  0  0  0  0
  130.2670  120.5500   61.8480 C   0  0  0  0  0  0  0  0  0  0  0  0
  129.8730  119.4770   61.1590 F   0  0  0  0  0  0  0  0  0  0  0  0
  131.5670  120.7210   61.6120 F   0  0  0  0  0  0  0  0  0  0  0  0
  130.0870  120.2810   63.1410 F   0  0  0  0  0  0  0  0  0  0  0  0
  129.5260  123.0260   62.2330 C   0  0  0  0  0  0  0  0  0  0  0  0
  131.3370  121.6760   63.7390 H   0  0  0  0  0  0  0  0  0  0  0  0
  131.3840  122.7910   65.0500 H   0  0  0  0  0  0  0  0  0  0  0  0
  128.5410  125.7770   65.6380 H   0  0  0  0  0  0  0  0  0  0  0  0
  131.2943  128.7612   68.8973 H   0  0  0  0  0  0  0  0  0  0  0  0
  129.3352  127.8095   70.3370 H   0  0  0  0  0  0  0  0  0  0  0  0
  125.5094  124.0248   59.5709 H   0  0  0  0  0  0  0  0  0  0  0  0
  124.1207  124.0514   57.5078 H   0  0  0  0  0  0  0  0  0  0  0  0
  124.9812  123.0074   55.4169 H   0  0  0  0  0  0  0  0  0  0  0  0
  127.2268  121.9335   55.3848 H   0  0  0  0  0  0  0  0  0  0  0  0
  128.6193  121.9097   57.4429 H   0  0  0  0  0  0  0  0  0  0  0  0
  128.6714  120.9041   59.6932 H   0  0  0  0  0  0  0  0  0  0  0  0
  1  2  1  0
  2  3  2  0
  3  4  1  0
  4  5  2  0
  4  6  1  0
  6  7  1  0
  7  8  2  0
  8  9  1  0
  9 10  2  0
 10 11  1  0
  3 12  1  0
 12 13  1  0
 13 14  2  0
 14 15  1  0
 15 16  1  0
 16 17  2  0
 17 18  1  0
 18 19  2  0
 19 20  1  0
 20 21  2  0
 15 22  2  0
 22 23  1  0
 23 24  1  0
 24 25  1  0
 24 26  1  0
 24 27  1  0
 23 28  2  0
 28  2  1  0
 11  7  1  0
 28 13  1  0
 21 16  1  0
  1 29  1  0
  1 30  1  0
  6 31  1  0
  9 32  1  0
 10 33  1  0
 17 34  1  0
 18 35  1  0
 19 36  1  0
 20 37  1  0
 21 38  1  0
 22 39  1  0
M  END
>  <Binding energies>  (1) 
[-7.01]

>  <Ligand effiencies>  (1) 
[-0.22612903225806452]

>  <Interactions>  (1) 
["V-B:TYR:539:CE2:9845, V-A:HIS:456:CE1:4066, V-B:TYR:539:CD1:9842, V-B:PRO:540:CA:9852, V-B:TYR:539:CE1:9844, V-B:ALA:541:CB:9861, V-B:TYR:539:C:9836, H-A:TYR:484:OH:4344, V-B:PRO:540:N:9853, V-B:PRO:540:CB:9854, V-B:TYR:539:CD2:9843, H-B:GLU:543:OE2:9879, V-A:TYR:484:CE1:4341, V-A:GLU:543:CB:4903, V-B:GLU:543:CB:9875, V-B:GLU:543:CD:9877, V-A:GLU:543:C:4899, V-A:TYR:484:CZ:4343, V-B:GLU:543:CG:9876, V-A:LEU:475:CD1:4254, V-B:PRO:540:CD:9856, V-A:LEU:475:CD2:4255, H-B:GLU:543:OE1:9878, V-B:LEU:363:CD1:8157, V-B:ILE:538:CB:9831, V-A:PRO:482:CG:4323, V-A:LEU:475:CG:4253, V-A:PRO:482:CB:4322"]

$$$$
4ck_Grossjean_2025
     RDKit          3D

 57 59  0  0  0  0  0  0  0  0999 V2000
  124.3830  123.8540   60.9820 C   0  0  0  0  0  0  0  0  0  0  0  0
  125.3800  122.8440   61.0000 O   0  0  0  0  0  0  0  0  0  0  0  0
  126.6920  123.3420   60.7800 C   0  0  0  0  0  0  0  0  0  0  0  0
  127.1050  123.0440   59.3330 C   0  0  0  0  0  0  0  0  0  0  0  0
  128.1000  122.0290   59.3350 O   0  0  0  0  0  0  0  0  0  0  0  0
  128.6440  121.7700   60.6220 C   0  0  0  0  0  0  0  0  0  0  0  0
  130.0480  122.3830   60.7070 C   0  0  0  0  0  0  0  0  0  0  0  0
  130.7610  121.7480   61.7600 O   0  0  0  0  0  0  0  0  0  0  0  0
  132.1480  121.5820   61.4950 C   0  0  0  0  0  0  0  0  0  0  0  0
  132.9410  122.7040   62.1820 C   0  0  0  0  0  0  0  0  0  0  0  0
  132.0650  123.7230   62.7600 N   0  0  0  0  0  0  0  0  0  0  0  0
  132.4560  124.7500   63.5430 C   0  0  0  0  0  0  0  0  0  0  0  0
  133.6360  124.9520   63.8350 O   0  0  0  0  0  0  0  0  0  0  0  0
  131.3900  125.6290   64.0240 C   0  0  0  0  0  0  0  0  0  0  0  0
  130.5830  126.7310   62.9110 S   0  0  0  0  0  0  0  0  0  0  0  0
  129.5170  127.2950   64.1760 C   0  0  0  0  0  0  0  0  0  0  0  0
  128.5890  128.2200   63.9410 N   0  0  0  0  0  0  0  0  0  0  0  0
  127.8070  128.5970   64.9870 C   0  0  0  0  0  0  0  0  0  0  0  0
  126.7590  129.6280   64.6840 C   0  0  0  0  0  0  0  0  0  0  0  0
  125.4010  129.2750   64.6180 C   0  0  0  0  0  0  0  0  0  0  0  0
  124.4230  130.2270   64.3360 C   0  0  0  0  0  0  0  0  0  0  0  0
  124.7910  131.5490   64.1160 C   0  0  0  0  0  0  0  0  0  0  0  0
  126.1280  131.9270   64.1800 C   0  0  0  0  0  0  0  0  0  0  0  0
  127.1020  130.9730   64.4640 C   0  0  0  0  0  0  0  0  0  0  0  0
  127.9550  128.0370   66.2600 C   0  0  0  0  0  0  0  0  0  0  0  0
  128.9320  127.0620   66.5180 C   0  0  0  0  0  0  0  0  0  0  0  0
  129.0420  126.4930   67.9390 C   0  0  0  0  0  0  0  0  0  0  0  0
  130.1120  126.9380   68.5990 F   0  0  0  0  0  0  0  0  0  0  0  0
  127.9650  126.8350   68.6460 F   0  0  0  0  0  0  0  0  0  0  0  0
  129.1300  125.1640   67.8850 F   0  0  0  0  0  0  0  0  0  0  0  0
  129.7580  126.6610   65.4300 C   0  0  0  0  0  0  0  0  0  0  0  0
  130.8330  125.7050   65.3100 C   0  0  0  0  0  0  0  0  0  0  0  0
  131.2710  124.9440   66.3630 N   0  0  0  0  0  0  0  0  0  0  0  0
  124.1162  124.1243   62.0144 H   0  0  0  0  0  0  0  0  0  0  0  0
  124.7692  124.7412   60.4588 H   0  0  0  0  0  0  0  0  0  0  0  0
  123.4909  123.4793   60.4588 H   0  0  0  0  0  0  0  0  0  0  0  0
  126.7073  124.4285   60.9513 H   0  0  0  0  0  0  0  0  0  0  0  0
  127.3942  122.8565   61.4737 H   0  0  0  0  0  0  0  0  0  0  0  0
  126.2292  122.7007   58.7629 H   0  0  0  0  0  0  0  0  0  0  0  0
  127.5054  123.9558   58.8657 H   0  0  0  0  0  0  0  0  0  0  0  0
  127.9989  122.2190   61.3916 H   0  0  0  0  0  0  0  0  0  0  0  0
  128.7034  120.6841   60.7872 H   0  0  0  0  0  0  0  0  0  0  0  0
  130.5776  122.2278   59.7555 H   0  0  0  0  0  0  0  0  0  0  0  0
  129.9736  123.4628   60.9034 H   0  0  0  0  0  0  0  0  0  0  0  0
  132.4809  120.6079   61.8827 H   0  0  0  0  0  0  0  0  0  0  0  0
  132.3204  121.6242   60.4094 H   0  0  0  0  0  0  0  0  0  0  0  0
  133.5529  122.2658   62.9843 H   0  0  0  0  0  0  0  0  0  0  0  0
  133.5692  123.1897   61.4208 H   0  0  0  0  0  0  0  0  0  0  0  0
  131.0930  123.6740   62.4920 H   0  0  0  0  0  0  0  0  0  0  0  0
  125.1046  128.2300   64.7917 H   0  0  0  0  0  0  0  0  0  0  0  0
  123.3641  129.9332   64.2877 H   0  0  0  0  0  0  0  0  0  0  0  0
  124.0204  132.3007   63.8900 H   0  0  0  0  0  0  0  0  0  0  0  0
  126.4148  132.9748   64.0071 H   0  0  0  0  0  0  0  0  0  0  0  0
  128.1577  131.2774   64.5170 H   0  0  0  0  0  0  0  0  0  0  0  0
  127.2934  128.3666   67.0747 H   0  0  0  0  0  0  0  0  0  0  0  0
  132.2040  125.0350   66.7400 H   0  0  0  0  0  0  0  0  0  0  0  0
  130.6670  124.2630   66.8060 H   0  0  0  0  0  0  0  0  0  0  0  0
  1  2  1  0
  2  3  1  0
  3  4  1  0
  4  5  1  0
  5  6  1  0
  6  7  1  0
  7  8  1  0
  8  9  1  0
  9 10  1  0
 10 11  1  0
 11 12  1  0
 12 13  2  0
 12 14  1  0
 14 15  1  0
 15 16  1  0
 16 17  2  0
 17 18  1  0
 18 19  1  0
 19 20  2  0
 20 21  1  0
 21 22  2  0
 22 23  1  0
 23 24  2  0
 18 25  2  0
 25 26  1  0
 26 27  1  0
 27 28  1  0
 27 29  1  0
 27 30  1  0
 26 31  2  0
 31 32  1  0
 32 33  1  0
 32 14  2  0
 31 16  1  0
 24 19  1  0
  1 34  1  0
  1 35  1  0
  1 36  1  0
  3 37  1  0
  3 38  1  0
  4 39  1  0
  4 40  1  0
  6 41  1  0
  6 42  1  0
  7 43  1  0
  7 44  1  0
  9 45  1  0
  9 46  1  0
 10 47  1  0
 10 48  1  0
 11 49  1  0
 20 50  1  0
 21 51  1  0
 22 52  1  0
 23 53  1  0
 24 54  1  0
 25 55  1  0
 33 56  1  0
 33 57  1  0
M  END
>  <Binding energies>  (1) 
[-6.66]

>  <Ligand effiencies>  (1) 
[-0.185]

>  <Interactions>  (1) 
["H-B:ALA:541:N:9860, V-B:TYR:539:CE2:9845, V-A:HIS:456:CE1:4066, V-B:TYR:539:CZ:9846, V-B:ASN:362:CB:8144, V-B:PRO:540:CA:9852, V-B:ALA:541:CB:9861, H-A:GLY:454:N:4046, H-A:TYR:484:OH:4344, V-A:GLY:454:CA:4045, V-B:PRO:540:CB:9854, V-B:TYR:539:CD2:9843, V-A:TYR:484:CE1:4341, V-B:GLU:543:CB:9875, V-B:GLU:543:CD:9877, V-B:HIS:456:CE1:9038, V-A:TYR:484:CZ:4343, V-B:GLU:543:CG:9876, V-A:GLU:543:CD:4905, H-A:ARG:545:NH2:4925, H-A:ARG:545:NH1:4924, V-A:LEU:475:CD1:4254, V-B:ARG:545:CZ:9895, V-A:GLU:543:CG:4904, V-B:GLU:543:C:9871, V-B:GLU:543:CA:9873, V-B:GLY:454:CA:9017, H-A:HIS:456:NE2:4067"]

$$$$
4dd_Grossjean_2025
     RDKit          3D

 43 46  0  0  0  0  0  0  0  0999 V2000
  130.2460  120.4610   61.9150 C   0  0  0  0  0  0  0  0  0  0  0  0
  129.5020  121.7280   61.5220 C   0  0  0  0  0  0  0  0  0  0  0  0
  128.7390  121.7080   60.3480 C   0  0  0  0  0  0  0  0  0  0  0  0
  128.0310  122.8420   59.9310 C   0  0  0  0  0  0  0  0  0  0  0  0
  127.2100  122.8510   58.6760 C   0  0  0  0  0  0  0  0  0  0  0  0
  127.6530  122.1850   57.5210 C   0  0  0  0  0  0  0  0  0  0  0  0
  126.8950  122.1870   56.3530 C   0  0  0  0  0  0  0  0  0  0  0  0
  125.6790  122.8600   56.3220 C   0  0  0  0  0  0  0  0  0  0  0  0
  125.2140  123.5270   57.4510 C   0  0  0  0  0  0  0  0  0  0  0  0
  125.9750  123.5200   58.6180 C   0  0  0  0  0  0  0  0  0  0  0  0
  128.0610  124.0070   60.6340 N   0  0  0  0  0  0  0  0  0  0  0  0
  128.7810  124.0250   61.7550 C   0  0  0  0  0  0  0  0  0  0  0  0
  128.8920  125.4500   62.7640 S   0  0  0  0  0  0  0  0  0  0  0  0
  129.9460  124.6150   63.9080 C   0  0  0  0  0  0  0  0  0  0  0  0
  130.4360  125.3040   65.1030 C   0  0  0  0  0  0  0  0  0  0  0  0
  131.6440  125.4280   65.3060 O   0  0  0  0  0  0  0  0  0  0  0  0
  129.4750  125.7820   65.9320 N   0  0  0  0  0  0  0  0  0  0  0  0
  129.6040  126.4350   67.1710 C   0  0  0  0  0  0  0  0  0  0  0  0
  128.7210  126.0240   68.1740 C   0  0  0  0  0  0  0  0  0  0  0  0
  128.7790  126.5990   69.4400 C   0  0  0  0  0  0  0  0  0  0  0  0
  129.7260  127.5830   69.7080 C   0  0  0  0  0  0  0  0  0  0  0  0
  130.6200  127.9940   68.7230 C   0  0  0  0  0  0  0  0  0  0  0  0
  130.5650  127.4200   67.4550 C   0  0  0  0  0  0  0  0  0  0  0  0
  130.1900  123.2950   63.4990 C   0  0  0  0  0  0  0  0  0  0  0  0
  130.9800  122.4130   64.1950 N   0  0  0  0  0  0  0  0  0  0  0  0
  129.5320  122.9320   62.2720 C   0  0  0  0  0  0  0  0  0  0  0  0
  130.2897  120.3866   63.0116 H   0  0  0  0  0  0  0  0  0  0  0  0
  129.7187  119.5852   61.5088 H   0  0  0  0  0  0  0  0  0  0  0  0
  131.2677  120.4948   61.5088 H   0  0  0  0  0  0  0  0  0  0  0  0
  128.6952  120.7890   59.7451 H   0  0  0  0  0  0  0  0  0  0  0  0
  128.6154  121.6527   57.5397 H   0  0  0  0  0  0  0  0  0  0  0  0
  127.2568  121.6584   55.4588 H   0  0  0  0  0  0  0  0  0  0  0  0
  125.0806  122.8652   55.3990 H   0  0  0  0  0  0  0  0  0  0  0  0
  124.2506  124.0571   57.4224 H   0  0  0  0  0  0  0  0  0  0  0  0
  125.6031  124.0469   59.5091 H   0  0  0  0  0  0  0  0  0  0  0  0
  128.5230  125.6700   65.6180 H   0  0  0  0  0  0  0  0  0  0  0  0
  127.9768  125.2423   67.9615 H   0  0  0  0  0  0  0  0  0  0  0  0
  128.0794  126.2771   70.2254 H   0  0  0  0  0  0  0  0  0  0  0  0
  129.7686  128.0403   70.7075 H   0  0  0  0  0  0  0  0  0  0  0  0
  131.3675  128.7697   68.9454 H   0  0  0  0  0  0  0  0  0  0  0  0
  131.2738  127.7378   66.6761 H   0  0  0  0  0  0  0  0  0  0  0  0
  131.1590  121.4780   63.8590 H   0  0  0  0  0  0  0  0  0  0  0  0
  131.4130  122.6760   65.0690 H   0  0  0  0  0  0  0  0  0  0  0  0
  1  2  1  0
  2  3  2  0
  3  4  1  0
  4  5  1  0
  5  6  2  0
  6  7  1  0
  7  8  2  0
  8  9  1  0
  9 10  2  0
  4 11  2  0
 11 12  1  0
 12 13  1  0
 13 14  1  0
 14 15  1  0
 15 16  2  0
 15 17  1  0
 17 18  1  0
 18 19  2  0
 19 20  1  0
 20 21  2  0
 21 22  1  0
 22 23  2  0
 14 24  2  0
 24 25  1  0
 24 26  1  0
 26  2  1  0
 10  5  1  0
 26 12  2  0
 23 18  1  0
  1 27  1  0
  1 28  1  0
  1 29  1  0
  3 30  1  0
  6 31  1  0
  7 32  1  0
  8 33  1  0
  9 34  1  0
 10 35  1  0
 17 36  1  0
 19 37  1  0
 20 38  1  0
 21 39  1  0
 22 40  1  0
 23 41  1  0
 25 42  1  0
 25 43  1  0
M  END
>  <Binding energies>  (1) 
[-8.02]

>  <Ligand effiencies>  (1) 
[-0.276551724137931]

>  <Interactions>  (1) 
["V-B:TYR:539:CE2:9845, V-A:HIS:456:CE1:4066, V-B:TYR:539:CG:9841, V-B:TYR:539:CD1:9842, V-B:PRO:540:CA:9852, V-B:TYR:539:CE1:9844, V-B:ALA:541:CB:9861, V-B:TYR:539:C:9836, H-A:TYR:484:OH:4344, V-B:PRO:540:N:9853, V-B:PRO:540:CB:9854, V-B:TYR:539:CD2:9843, H-B:GLU:543:OE2:9879, V-A:TYR:484:CE1:4341, V-A:GLU:543:CB:4903, V-B:GLU:543:CB:9875, V-B:GLU:543:CD:9877, V-A:GLU:543:C:4899, V-B:HIS:456:CE1:9038, V-A:TYR:484:CZ:4343, V-B:GLU:543:CG:9876, V-A:LEU:475:CD1:4254, V-B:PRO:540:CD:9856, V-A:LEU:475:CD2:4255, V-B:GLU:543:C:9871, H-B:GLU:543:OE1:9878, V-B:LEU:363:CD1:8157, V-B:ILE:538:CB:9831, V-B:ILE:538:CA:9829"]

$$$$
4dg_Grossjean_2025
     RDKit          3D

 46 49  0  0  0  0  0  0  0  0999 V2000
  132.1020  128.6310   68.6130 C   0  0  0  0  0  0  0  0  0  0  0  0
  130.9200  127.7110   68.3480 C   0  0  0  0  0  0  0  0  0  0  0  0
  130.7870  127.1590   67.0680 C   0  0  0  0  0  0  0  0  0  0  0  0
  129.7220  126.3040   66.7600 C   0  0  0  0  0  0  0  0  0  0  0  0
  129.5540  125.6960   65.3960 C   0  0  0  0  0  0  0  0  0  0  0  0
  129.1980  126.4880   64.2920 C   0  0  0  0  0  0  0  0  0  0  0  0
  129.0370  125.9280   63.0270 C   0  0  0  0  0  0  0  0  0  0  0  0
  129.2310  124.5640   62.8460 C   0  0  0  0  0  0  0  0  0  0  0  0
  129.5810  123.7540   63.9220 C   0  0  0  0  0  0  0  0  0  0  0  0
  129.7390  124.3180   65.1850 C   0  0  0  0  0  0  0  0  0  0  0  0
  128.7870  125.9600   67.6860 N   0  0  0  0  0  0  0  0  0  0  0  0
  128.9110  126.4840   68.9050 C   0  0  0  0  0  0  0  0  0  0  0  0
  127.7760  126.1300   70.1860 S   0  0  0  0  0  0  0  0  0  0  0  0
  128.6600  127.1590   71.3130 C   0  0  0  0  0  0  0  0  0  0  0  0
  128.1670  127.3470   72.6760 C   0  0  0  0  0  0  0  0  0  0  0  0
  128.9280  127.6490   73.5980 O   0  0  0  0  0  0  0  0  0  0  0  0
  126.8470  127.1340   72.8610 N   0  0  0  0  0  0  0  0  0  0  0  0
  126.1340  127.2850   74.1290 C   0  0  0  0  0  0  0  0  0  0  0  0
  125.7970  128.7330   74.4650 C   0  0  0  0  0  0  0  0  0  0  0  0
  124.5620  129.0420   75.0440 C   0  0  0  0  0  0  0  0  0  0  0  0
  124.2630  130.3590   75.3810 C   0  0  0  0  0  0  0  0  0  0  0  0
  125.2020  131.3610   75.1490 C   0  0  0  0  0  0  0  0  0  0  0  0
  126.4410  131.0580   74.5880 C   0  0  0  0  0  0  0  0  0  0  0  0
  126.7410  129.7410   74.2520 C   0  0  0  0  0  0  0  0  0  0  0  0
  129.7720  127.7520   70.6970 C   0  0  0  0  0  0  0  0  0  0  0  0
  130.6300  128.6110   71.3350 N   0  0  0  0  0  0  0  0  0  0  0  0
  129.9440  127.3720   69.3200 C   0  0  0  0  0  0  0  0  0  0  0  0
  132.2443  128.7418   69.6981 H   0  0  0  0  0  0  0  0  0  0  0  0
  133.0099  128.1995   68.1663 H   0  0  0  0  0  0  0  0  0  0  0  0
  131.9066  129.6170   68.1663 H   0  0  0  0  0  0  0  0  0  0  0  0
  131.5298  127.4006   66.2935 H   0  0  0  0  0  0  0  0  0  0  0  0
  129.0438  127.5685   64.4288 H   0  0  0  0  0  0  0  0  0  0  0  0
  128.7571  126.5635   62.1739 H   0  0  0  0  0  0  0  0  0  0  0  0
  129.1072  124.1220   61.8464 H   0  0  0  0  0  0  0  0  0  0  0  0
  129.7320  122.6743   63.7755 H   0  0  0  0  0  0  0  0  0  0  0  0
  130.0136  123.6739   66.0334 H   0  0  0  0  0  0  0  0  0  0  0  0
  126.2730  126.9680   72.0470 H   0  0  0  0  0  0  0  0  0  0  0  0
  125.1962  126.7129   74.0720 H   0  0  0  0  0  0  0  0  0  0  0  0
  126.7997  126.9140   74.9222 H   0  0  0  0  0  0  0  0  0  0  0  0
  123.8277  128.2451   75.2329 H   0  0  0  0  0  0  0  0  0  0  0  0
  123.2893  130.6073   75.8286 H   0  0  0  0  0  0  0  0  0  0  0  0
  124.9631  132.4022   75.4113 H   0  0  0  0  0  0  0  0  0  0  0  0
  127.1780  131.8553   74.4116 H   0  0  0  0  0  0  0  0  0  0  0  0
  127.7214  129.4937   73.8187 H   0  0  0  0  0  0  0  0  0  0  0  0
  131.4320  128.2800   71.8500 H   0  0  0  0  0  0  0  0  0  0  0  0
  130.4880  129.6120   71.3040 H   0  0  0  0  0  0  0  0  0  0  0  0
  1  2  1  0
  2  3  2  0
  3  4  1  0
  4  5  1  0
  5  6  2  0
  6  7  1  0
  7  8  2  0
  8  9  1  0
  9 10  2  0
  4 11  2  0
 11 12  1  0
 12 13  1  0
 13 14  1  0
 14 15  1  0
 15 16  2  0
 15 17  1  0
 17 18  1  0
 18 19  1  0
 19 20  2  0
 20 21  1  0
 21 22  2  0
 22 23  1  0
 23 24  2  0
 14 25  2  0
 25 26  1  0
 25 27  1  0
 27  2  1  0
 10  5  1  0
 27 12  2  0
 24 19  1  0
  1 28  1  0
  1 29  1  0
  1 30  1  0
  3 31  1  0
  6 32  1  0
  7 33  1  0
  8 34  1  0
  9 35  1  0
 10 36  1  0
 17 37  1  0
 18 38  1  0
 18 39  1  0
 20 40  1  0
 21 41  1  0
 22 42  1  0
 23 43  1  0
 24 44  1  0
 26 45  1  0
 26 46  1  0
M  END
>  <Binding energies>  (1) 
[-8.13]

>  <Ligand effiencies>  (1) 
[-0.271]

>  <Interactions>  (1) 
["V-A:HIS:456:CE1:4066, V-A:ARG:545:CG:4919, V-B:ALA:541:CB:9861, V-A:TYR:484:CE1:4341, V-B:HIS:456:CD2:9036, V-A:GLU:543:CB:4903, H-B:GLY:544:O:9882, V-B:VAL:458:CG2:9055, V-B:LYS:547:CG:9917, V-B:LYS:547:CD:9918, H-A:LYS:547:NZ:4948, V-B:GLY:544:C:9881, V-B:LYS:547:CE:9919, V-B:VAL:457:C:9041, V-B:GLU:543:CB:9875, V-B:GLU:543:CD:9877, V-B:HIS:456:CB:9033, V-A:GLU:543:C:4899, V-B:HIS:456:CE1:9038, V-B:GLU:543:CG:9876, V-A:GLY:544:C:4909, V-B:GLU:543:C:9871, V-B:ASP:473:CG:9208, V-B:HIS:456:C:9029, V-B:GLY:544:CA:9883, V-B:LYS:471:CE:9188, V-B:HIS:456:CG:9034, H-A:GLU:543:O:4900, H-B:HIS:456:NE2:9039, V-A:GLU:543:CA:4901, V-A:GLY:544:CA:4911, V-A:ARG:545:CA:4916, H-A:GLY:544:O:4910, V-B:HIS:456:CA:9031, V-B:VAL:457:CA:9043, V-B:ASP:473:CB:9207, V-A:ARG:545:CB:4918"]

$$$$
4dj_Grossjean_2025
     RDKit          3D

 39 42  0  0  0  0  0  0  0  0999 V2000
  130.2670  120.4720   61.9890 C   0  0  0  0  0  0  0  0  0  0  0  0
  129.5500  121.7480   61.5740 C   0  0  0  0  0  0  0  0  0  0  0  0
  128.8220  121.7370   60.3790 C   0  0  0  0  0  0  0  0  0  0  0  0
  128.1410  122.8790   59.9400 C   0  0  0  0  0  0  0  0  0  0  0  0
  127.3470  122.8940   58.6650 C   0  0  0  0  0  0  0  0  0  0  0  0
  127.8710  122.3450   57.4830 C   0  0  0  0  0  0  0  0  0  0  0  0
  127.1400  122.3560   56.2980 C   0  0  0  0  0  0  0  0  0  0  0  0
  125.8700  122.9240   56.2760 C   0  0  0  0  0  0  0  0  0  0  0  0
  125.3280  123.4790   57.4300 C   0  0  0  0  0  0  0  0  0  0  0  0
  126.0620  123.4640   58.6130 C   0  0  0  0  0  0  0  0  0  0  0  0
  128.1420  124.0360   60.6570 N   0  0  0  0  0  0  0  0  0  0  0  0
  128.8360  124.0490   61.7940 C   0  0  0  0  0  0  0  0  0  0  0  0
  128.9300  125.4710   62.8080 S   0  0  0  0  0  0  0  0  0  0  0  0
  129.9540  124.6300   63.9730 C   0  0  0  0  0  0  0  0  0  0  0  0
  130.4400  125.3230   65.1670 C   0  0  0  0  0  0  0  0  0  0  0  0
  131.6390  125.3090   65.4610 O   0  0  0  0  0  0  0  0  0  0  0  0
  129.4910  125.9540   65.9030 N   0  0  0  0  0  0  0  0  0  0  0  0
  129.6850  126.6760   67.0720 C   0  0  0  0  0  0  0  0  0  0  0  0
  130.6840  127.4780   67.3700 N   0  0  0  0  0  0  0  0  0  0  0  0
  130.5430  128.0010   68.5730 C   0  0  0  0  0  0  0  0  0  0  0  0
  129.4050  127.6240   69.2790 C   0  0  0  0  0  0  0  0  0  0  0  0
  128.4760  126.5240   68.3060 S   0  0  0  0  0  0  0  0  0  0  0  0
  130.2010  123.3090   63.5690 C   0  0  0  0  0  0  0  0  0  0  0  0
  130.9710  122.4240   64.2810 N   0  0  0  0  0  0  0  0  0  0  0  0
  129.5710  122.9510   62.3270 C   0  0  0  0  0  0  0  0  0  0  0  0
  130.3012  120.4111   63.0868 H   0  0  0  0  0  0  0  0  0  0  0  0
  129.7261  119.6012   61.5901 H   0  0  0  0  0  0  0  0  0  0  0  0
  131.2921  120.4811   61.5901 H   0  0  0  0  0  0  0  0  0  0  0  0
  128.7842  120.8179   59.7758 H   0  0  0  0  0  0  0  0  0  0  0  0
  128.8763  121.8986   57.4937 H   0  0  0  0  0  0  0  0  0  0  0  0
  127.5648  121.9175   55.3830 H   0  0  0  0  0  0  0  0  0  0  0  0
  125.2915  122.9340   55.3405 H   0  0  0  0  0  0  0  0  0  0  0  0
  124.3240  123.9278   57.4084 H   0  0  0  0  0  0  0  0  0  0  0  0
  125.6295  123.9056   59.5229 H   0  0  0  0  0  0  0  0  0  0  0  0
  128.5380  125.8950   65.5770 H   0  0  0  0  0  0  0  0  0  0  0  0
  131.2839  128.6964   68.9943 H   0  0  0  0  0  0  0  0  0  0  0  0
  129.1368  127.9667   70.2893 H   0  0  0  0  0  0  0  0  0  0  0  0
  131.3350  122.6480   65.1950 H   0  0  0  0  0  0  0  0  0  0  0  0
  131.1990  121.5120   63.9100 H   0  0  0  0  0  0  0  0  0  0  0  0
  1  2  1  0
  2  3  2  0
  3  4  1  0
  4  5  1  0
  5  6  2  0
  6  7  1  0
  7  8  2  0
  8  9  1  0
  9 10  2  0
  4 11  2  0
 11 12  1  0
 12 13  1  0
 13 14  1  0
 14 15  1  0
 15 16  2  0
 15 17  1  0
 17 18  1  0
 18 19  2  0
 19 20  1  0
 20 21  2  0
 21 22  1  0
 14 23  2  0
 23 24  1  0
 23 25  1  0
 25  2  1  0
 10  5  1  0
 25 12  2  0
 22 18  1  0
  1 26  1  0
  1 27  1  0
  1 28  1  0
  3 29  1  0
  6 30  1  0
  7 31  1  0
  8 32  1  0
  9 33  1  0
 10 34  1  0
 17 35  1  0
 20 36  1  0
 21 37  1  0
 24 38  1  0
 24 39  1  0
M  END
>  <Binding energies>  (1) 
[-7.37]

>  <Ligand effiencies>  (1) 
[-0.26321428571428573]

>  <Interactions>  (1) 
["V-B:TYR:539:CE2:9845, V-A:HIS:456:CE1:4066, V-B:TYR:539:CG:9841, V-B:TYR:539:CD1:9842, V-B:TYR:539:CZ:9846, V-B:PRO:540:CA:9852, V-B:TYR:539:CE1:9844, V-B:ALA:541:CB:9861, V-B:TYR:539:C:9836, H-A:TYR:484:OH:4344, V-B:PRO:540:N:9853, V-B:PRO:540:CB:9854, V-B:TYR:539:CD2:9843, H-B:GLU:543:OE2:9879, V-A:TYR:484:CE1:4341, V-A:GLU:543:CB:4903, V-B:GLU:543:CB:9875, V-B:GLU:543:CD:9877, V-A:GLU:543:C:4899, V-B:HIS:456:CE1:9038, V-A:TYR:484:CZ:4343, V-B:GLU:543:CG:9876, V-A:LEU:475:CD1:4254, V-A:LEU:475:CD2:4255, H-B:GLU:543:OE1:9878, V-B:LEU:363:CD1:8157, V-B:ILE:538:CB:9831, V-B:ILE:538:CA:9829"]

$$$$
4ea_Grossjean_2025
     RDKit          3D

 52 55  0  0  0  0  0  0  0  0999 V2000
  124.9200  127.6230   74.0000 C   0  0  0  0  0  0  0  0  0  0  0  0
  126.3930  128.0150   73.8520 C   0  0  0  0  0  0  0  0  0  0  0  0
  127.0010  127.2000   72.8590 O   0  0  0  0  0  0  0  0  0  0  0  0
  128.2850  127.4100   72.4690 C   0  0  0  0  0  0  0  0  0  0  0  0
  129.1760  127.7850   73.2370 O   0  0  0  0  0  0  0  0  0  0  0  0
  128.5130  127.1390   71.0100 C   0  0  0  0  0  0  0  0  0  0  0  0
  129.6820  127.6140   70.4020 C   0  0  0  0  0  0  0  0  0  0  0  0
  129.9230  127.3800   69.0510 C   0  0  0  0  0  0  0  0  0  0  0  0
  129.0030  126.6680   68.2810 C   0  0  0  0  0  0  0  0  0  0  0  0
  129.3510  126.4930   66.9270 N   0  0  0  0  0  0  0  0  0  0  0  0
  129.8620  125.4130   66.2850 C   0  0  0  0  0  0  0  0  0  0  0  0
  130.1170  124.3390   66.8290 O   0  0  0  0  0  0  0  0  0  0  0  0
  130.1030  125.5970   64.8510 C   0  0  0  0  0  0  0  0  0  0  0  0
  129.3070  126.9050   63.9720 S   0  0  0  0  0  0  0  0  0  0  0  0
  130.0810  126.4360   62.4760 C   0  0  0  0  0  0  0  0  0  0  0  0
  129.8690  127.0940   61.3350 N   0  0  0  0  0  0  0  0  0  0  0  0
  130.5300  126.6290   60.2470 C   0  0  0  0  0  0  0  0  0  0  0  0
  130.2740  127.3930   58.9600 C   0  0  0  0  0  0  0  0  0  0  0  0
  131.3890  125.5330   60.2720 C   0  0  0  0  0  0  0  0  0  0  0  0
  131.6090  124.8450   61.4700 C   0  0  0  0  0  0  0  0  0  0  0  0
  132.5250  123.6830   61.4800 C   0  0  0  0  0  0  0  0  0  0  0  0
  133.9100  123.8780   61.4830 C   0  0  0  0  0  0  0  0  0  0  0  0
  134.7720  122.7850   61.4950 C   0  0  0  0  0  0  0  0  0  0  0  0
  134.2480  121.4940   61.5010 C   0  0  0  0  0  0  0  0  0  0  0  0
  132.8710  121.2880   61.4930 C   0  0  0  0  0  0  0  0  0  0  0  0
  132.0100  122.3820   61.4810 C   0  0  0  0  0  0  0  0  0  0  0  0
  130.9340  125.3020   62.6350 C   0  0  0  0  0  0  0  0  0  0  0  0
  130.9280  124.8440   64.0010 C   0  0  0  0  0  0  0  0  0  0  0  0
  131.6680  123.7660   64.4140 N   0  0  0  0  0  0  0  0  0  0  0  0
  127.8290  126.1880   68.8820 C   0  0  0  0  0  0  0  0  0  0  0  0
  127.5900  126.4230   70.2330 C   0  0  0  0  0  0  0  0  0  0  0  0
  124.6642  127.5549   75.0677 H   0  0  0  0  0  0  0  0  0  0  0  0
  124.2879  128.3842   73.5193 H   0  0  0  0  0  0  0  0  0  0  0  0
  124.7499  126.6483   73.5193 H   0  0  0  0  0  0  0  0  0  0  0  0
  126.4634  129.0713   73.5534 H   0  0  0  0  0  0  0  0  0  0  0  0
  126.9098  127.8711   74.8123 H   0  0  0  0  0  0  0  0  0  0  0  0
  130.4161  128.1769   70.9972 H   0  0  0  0  0  0  0  0  0  0  0  0
  130.8456  127.7593   68.5873 H   0  0  0  0  0  0  0  0  0  0  0  0
  129.1910  127.3080   66.3550 H   0  0  0  0  0  0  0  0  0  0  0  0
  129.9329  128.4110   59.1996 H   0  0  0  0  0  0  0  0  0  0  0  0
  131.2034  127.4461   58.3740 H   0  0  0  0  0  0  0  0  0  0  0  0
  129.5002  126.8754   58.3740 H   0  0  0  0  0  0  0  0  0  0  0  0
  131.8941  125.2086   59.3503 H   0  0  0  0  0  0  0  0  0  0  0  0
  134.3196  124.8989   61.4759 H   0  0  0  0  0  0  0  0  0  0  0  0
  135.8611  122.9397   61.4997 H   0  0  0  0  0  0  0  0  0  0  0  0
  134.9283  120.6297   61.5122 H   0  0  0  0  0  0  0  0  0  0  0  0
  132.4653  120.2656   61.4961 H   0  0  0  0  0  0  0  0  0  0  0  0
  130.9216  122.2231   61.4723 H   0  0  0  0  0  0  0  0  0  0  0  0
  131.5720  123.3770   65.3420 H   0  0  0  0  0  0  0  0  0  0  0  0
  132.3380  123.3210   63.8010 H   0  0  0  0  0  0  0  0  0  0  0  0
  127.0967  125.6253   68.2845 H   0  0  0  0  0  0  0  0  0  0  0  0
  126.6675  126.0432   70.6964 H   0  0  0  0  0  0  0  0  0  0  0  0
  1  2  1  0
  2  3  1  0
  3  4  1  0
  4  5  2  0
  4  6  1  0
  6  7  2  0
  7  8  1  0
  8  9  2  0
  9 10  1  0
 10 11  1  0
 11 12  2  0
 11 13  1  0
 13 14  1  0
 14 15  1  0
 15 16  2  0
 16 17  1  0
 17 18  1  0
 17 19  2  0
 19 20  1  0
 20 21  1  0
 21 22  2  0
 22 23  1  0
 23 24  2  0
 24 25  1  0
 25 26  2  0
 20 27  2  0
 27 28  1  0
 28 29  1  0
  9 30  1  0
 30 31  2  0
 31  6  1  0
 28 13  2  0
 27 15  1  0
 26 21  1  0
  1 32  1  0
  1 33  1  0
  1 34  1  0
  2 35  1  0
  2 36  1  0
  7 37  1  0
  8 38  1  0
 10 39  1  0
 18 40  1  0
 18 41  1  0
 18 42  1  0
 19 43  1  0
 22 44  1  0
 23 45  1  0
 24 46  1  0
 25 47  1  0
 26 48  1  0
 29 49  1  0
 29 50  1  0
 30 51  1  0
 31 52  1  0
M  END
>  <Binding energies>  (1) 
[-7.9]

>  <Ligand effiencies>  (1) 
[-0.2323529411764706]

>  <Interactions>  (1) 
["V-B:TYR:539:CE2:9845, V-A:HIS:456:CE1:4066, V-A:GLY:453:C:4038, V-A:GLY:453:CA:4040, H-A:TYR:484:OH:4344, V-A:GLY:454:CA:4045, V-A:ASP:366:CG:3209, V-B:HIS:456:CD2:9036, V-B:LYS:547:CD:9918, H-A:LYS:547:NZ:4948, V-B:GLY:544:C:9881, V-B:LYS:547:CE:9919, V-B:GLU:543:CB:9875, V-B:GLU:543:CD:9877, V-B:HIS:456:CB:9033, V-B:HIS:456:CE1:9038, V-A:TYR:484:CZ:4343, V-B:GLU:543:CG:9876, V-A:GLU:543:CD:4905, V-A:LEU:475:CD1:4254, V-A:ILE:369:CG2:3233, V-A:ILE:369:CG1:3234, H-A:GLU:543:OE1:4906, V-B:GLU:543:C:9871, H-B:GLU:543:OE1:9878, V-B:HIS:456:CG:9034"]

$$$$
4eb_Grossjean_2025
     RDKit          3D

 49 52  0  0  0  0  0  0  0  0999 V2000
  129.1040  129.6310   73.1310 C   0  0  0  0  0  0  0  0  0  0  0  0
  129.2610  128.2200   73.0930 O   0  0  0  0  0  0  0  0  0  0  0  0
  128.4070  127.4410   72.3790 C   0  0  0  0  0  0  0  0  0  0  0  0
  127.3980  126.9200   72.8620 O   0  0  0  0  0  0  0  0  0  0  0  0
  128.8140  127.2770   70.9420 C   0  0  0  0  0  0  0  0  0  0  0  0
  128.0340  126.4750   70.0990 C   0  0  0  0  0  0  0  0  0  0  0  0
  128.3850  126.3030   68.7630 C   0  0  0  0  0  0  0  0  0  0  0  0
  129.5190  126.9280   68.2430 C   0  0  0  0  0  0  0  0  0  0  0  0
  129.7760  126.6820   66.8790 N   0  0  0  0  0  0  0  0  0  0  0  0
  130.1080  125.5330   66.2420 C   0  0  0  0  0  0  0  0  0  0  0  0
  130.2470  124.4450   66.8000 O   0  0  0  0  0  0  0  0  0  0  0  0
  130.3020  125.6550   64.7950 C   0  0  0  0  0  0  0  0  0  0  0  0
  129.4560  126.9080   63.8830 S   0  0  0  0  0  0  0  0  0  0  0  0
  130.1930  126.3840   62.3860 C   0  0  0  0  0  0  0  0  0  0  0  0
  129.9330  126.9860   61.2240 N   0  0  0  0  0  0  0  0  0  0  0  0
  130.5680  126.4840   60.1380 C   0  0  0  0  0  0  0  0  0  0  0  0
  130.2590  127.1840   58.8270 C   0  0  0  0  0  0  0  0  0  0  0  0
  131.4480  125.4050   60.1840 C   0  0  0  0  0  0  0  0  0  0  0  0
  131.7170  124.7760   61.4050 C   0  0  0  0  0  0  0  0  0  0  0  0
  132.6540  123.6300   61.4390 C   0  0  0  0  0  0  0  0  0  0  0  0
  134.0350  123.8520   61.4600 C   0  0  0  0  0  0  0  0  0  0  0  0
  134.9170  122.7740   61.4930 C   0  0  0  0  0  0  0  0  0  0  0  0
  134.4170  121.4740   61.5020 C   0  0  0  0  0  0  0  0  0  0  0  0
  133.0430  121.2430   61.4780 C   0  0  0  0  0  0  0  0  0  0  0  0
  132.1630  122.3210   61.4450 C   0  0  0  0  0  0  0  0  0  0  0  0
  131.0700  125.2730   62.5690 C   0  0  0  0  0  0  0  0  0  0  0  0
  131.1140  124.8790   63.9530 C   0  0  0  0  0  0  0  0  0  0  0  0
  131.8860  123.8320   64.3920 N   0  0  0  0  0  0  0  0  0  0  0  0
  130.3060  127.7330   69.0800 C   0  0  0  0  0  0  0  0  0  0  0  0
  129.9540  127.9040   70.4160 C   0  0  0  0  0  0  0  0  0  0  0  0
  129.0665  129.9677   74.1775 H   0  0  0  0  0  0  0  0  0  0  0  0
  129.9546  130.1084   72.6225 H   0  0  0  0  0  0  0  0  0  0  0  0
  128.1693  129.9098   72.6225 H   0  0  0  0  0  0  0  0  0  0  0  0
  127.1370  125.9772   70.4959 H   0  0  0  0  0  0  0  0  0  0  0  0
  127.7639  125.6698   68.1125 H   0  0  0  0  0  0  0  0  0  0  0  0
  129.6970  127.5000   66.2940 H   0  0  0  0  0  0  0  0  0  0  0  0
  129.8227  128.1725   59.0331 H   0  0  0  0  0  0  0  0  0  0  0  0
  131.1869  127.3061   58.2489 H   0  0  0  0  0  0  0  0  0  0  0  0
  129.5436  126.5807   58.2489 H   0  0  0  0  0  0  0  0  0  0  0  0
  131.9306  125.0480   59.2622 H   0  0  0  0  0  0  0  0  0  0  0  0
  134.4256  124.8803   61.4504 H   0  0  0  0  0  0  0  0  0  0  0  0
  136.0029  122.9487   61.5119 H   0  0  0  0  0  0  0  0  0  0  0  0
  135.1127  120.6224   61.5283 H   0  0  0  0  0  0  0  0  0  0  0  0
  132.6556  120.2135   61.4851 H   0  0  0  0  0  0  0  0  0  0  0  0
  131.0778  122.1424   61.4236 H   0  0  0  0  0  0  0  0  0  0  0  0
  132.6070  123.4260   63.8130 H   0  0  0  0  0  0  0  0  0  0  0  0
  131.7580  123.4320   65.3110 H   0  0  0  0  0  0  0  0  0  0  0  0
  131.2023  128.2297   68.6802 H   0  0  0  0  0  0  0  0  0  0  0  0
  130.5758  128.5371   71.0660 H   0  0  0  0  0  0  0  0  0  0  0  0
  1  2  1  0
  2  3  1  0
  3  4  2  0
  3  5  1  0
  5  6  2  0
  6  7  1  0
  7  8  2  0
  8  9  1  0
  9 10  1  0
 10 11  2  0
 10 12  1  0
 12 13  1  0
 13 14  1  0
 14 15  2  0
 15 16  1  0
 16 17  1  0
 16 18  2  0
 18 19  1  0
 19 20  1  0
 20 21  2  0
 21 22  1  0
 22 23  2  0
 23 24  1  0
 24 25  2  0
 19 26  2  0
 26 27  1  0
 27 28  1  0
  8 29  1  0
 29 30  2  0
 30  5  1  0
 27 12  2  0
 26 14  1  0
 25 20  1  0
  1 31  1  0
  1 32  1  0
  1 33  1  0
  6 34  1  0
  7 35  1  0
  9 36  1  0
 17 37  1  0
 17 38  1  0
 17 39  1  0
 18 40  1  0
 21 41  1  0
 22 42  1  0
 23 43  1  0
 24 44  1  0
 25 45  1  0
 28 46  1  0
 28 47  1  0
 29 48  1  0
 30 49  1  0
M  END
>  <Binding energies>  (1) 
[-7.59]

>  <Ligand effiencies>  (1) 
[-0.22999999999999998]

>  <Interactions>  (1) 
["V-B:TYR:539:CE2:9845, V-A:HIS:456:CE1:4066, V-A:GLY:453:C:4038, V-A:GLY:453:CA:4040, H-A:TYR:484:OH:4344, V-A:GLY:454:CA:4045, V-A:ASP:366:CG:3209, V-B:HIS:456:CD2:9036, V-A:GLU:543:CB:4903, V-A:LYS:547:CE:4947, H-A:LYS:547:NZ:4948, V-B:GLY:544:C:9881, V-B:LYS:547:CE:9919, V-B:GLU:543:CB:9875, V-B:GLU:543:CD:9877, V-A:GLU:543:C:4899, V-B:HIS:456:CE1:9038, V-A:GLU:543:CD:4905, V-A:ILE:369:CB:3232, V-A:LEU:475:CD1:4254, V-A:ILE:369:CG2:3233, V-A:ILE:369:CG1:3234, H-A:GLU:543:OE1:4906, V-B:GLU:543:C:9871"]

$$$$
8a_Ghoteimi_2023
     RDKit          3D

 67 71  0  0  0  0  0  0  0  0999 V2000
  125.2640  127.7580   74.2350 C   0  0  0  0  0  0  0  0  0  0  0  0
  126.3050  127.6400   73.1190 C   0  0  0  0  0  0  0  0  0  0  0  0
  127.5750  128.0470   73.6110 O   0  0  0  0  0  0  0  0  0  0  0  0
  128.6980  127.3360   73.3270 C   0  0  0  0  0  0  0  0  0  0  0  0
  129.4760  126.9200   74.1900 O   0  0  0  0  0  0  0  0  0  0  0  0
  128.9000  127.1100   71.8560 C   0  0  0  0  0  0  0  0  0  0  0  0
  129.5000  128.1150   71.0870 C   0  0  0  0  0  0  0  0  0  0  0  0
  129.7000  127.9360   69.7210 C   0  0  0  0  0  0  0  0  0  0  0  0
  129.3060  126.7530   69.0950 C   0  0  0  0  0  0  0  0  0  0  0  0
  129.5540  126.6860   67.7100 N   0  0  0  0  0  0  0  0  0  0  0  0
  129.6910  125.6120   66.8940 C   0  0  0  0  0  0  0  0  0  0  0  0
  129.6160  124.4420   67.2690 O   0  0  0  0  0  0  0  0  0  0  0  0
  129.9370  125.9260   65.4830 C   0  0  0  0  0  0  0  0  0  0  0  0
  129.3650  127.4460   64.7960 S   0  0  0  0  0  0  0  0  0  0  0  0
  130.0080  127.0320   63.2240 C   0  0  0  0  0  0  0  0  0  0  0  0
  129.8650  127.8400   62.1740 N   0  0  0  0  0  0  0  0  0  0  0  0
  130.3980  127.4200   60.9960 C   0  0  0  0  0  0  0  0  0  0  0  0
  130.2090  128.3330   59.8270 C   0  0  0  0  0  0  0  0  0  0  0  0
  130.2420  127.8430   58.5140 C   0  0  0  0  0  0  0  0  0  0  0  0
  130.0760  128.7000   57.4290 C   0  0  0  0  0  0  0  0  0  0  0  0
  129.8710  130.0640   57.6290 C   0  0  0  0  0  0  0  0  0  0  0  0
  129.7200  130.8380   56.4940 O   0  0  0  0  0  0  0  0  0  0  0  0
  130.6330  131.9040   56.2540 C   0  0  0  0  0  0  0  0  0  0  0  0
  129.8300  130.5630   58.9380 C   0  0  0  0  0  0  0  0  0  0  0  0
  129.9990  129.7040   60.0210 C   0  0  0  0  0  0  0  0  0  0  0  0
  131.0740  126.2040   60.8740 C   0  0  0  0  0  0  0  0  0  0  0  0
  131.2400  125.3600   61.9770 C   0  0  0  0  0  0  0  0  0  0  0  0
  131.9950  124.0940   61.7990 C   0  0  0  0  0  0  0  0  0  0  0  0
  133.3910  124.0980   61.8270 C   0  0  0  0  0  0  0  0  0  0  0  0
  134.1020  122.9100   61.6810 C   0  0  0  0  0  0  0  0  0  0  0  0
  133.4320  121.6980   61.5110 C   0  0  0  0  0  0  0  0  0  0  0  0
  134.2200  120.5710   61.3750 O   0  0  0  0  0  0  0  0  0  0  0  0
  133.6740  119.4140   60.7540 C   0  0  0  0  0  0  0  0  0  0  0  0
  132.0290  121.6910   61.4910 C   0  0  0  0  0  0  0  0  0  0  0  0
  131.3200  122.8810   61.6390 C   0  0  0  0  0  0  0  0  0  0  0  0
  130.6710  125.7690   63.2160 C   0  0  0  0  0  0  0  0  0  0  0  0
  130.5990  125.1510   64.5170 C   0  0  0  0  0  0  0  0  0  0  0  0
  131.1190  123.9070   64.7720 N   0  0  0  0  0  0  0  0  0  0  0  0
  128.7080  125.7390   69.8590 C   0  0  0  0  0  0  0  0  0  0  0  0
  128.5090  125.9190   71.2250 C   0  0  0  0  0  0  0  0  0  0  0  0
  125.7659  127.7011   75.2121 H   0  0  0  0  0  0  0  0  0  0  0  0
  124.7401  128.7213   74.1474 H   0  0  0  0  0  0  0  0  0  0  0  0
  124.5378  126.9364   74.1474 H   0  0  0  0  0  0  0  0  0  0  0  0
  126.3611  126.5954   72.7788 H   0  0  0  0  0  0  0  0  0  0  0  0
  126.0142  128.2848   72.2765 H   0  0  0  0  0  0  0  0  0  0  0  0
  129.8158  129.0534   71.5662 H   0  0  0  0  0  0  0  0  0  0  0  0
  130.1728  128.7342   69.1300 H   0  0  0  0  0  0  0  0  0  0  0  0
  129.6290  127.5880   67.2620 H   0  0  0  0  0  0  0  0  0  0  0  0
  130.4009  126.7688   58.3387 H   0  0  0  0  0  0  0  0  0  0  0  0
  130.1069  128.2972   56.4059 H   0  0  0  0  0  0  0  0  0  0  0  0
  130.9818  132.3113   57.2145 H   0  0  0  0  0  0  0  0  0  0  0  0
  131.4934  131.5279   55.6811 H   0  0  0  0  0  0  0  0  0  0  0  0
  130.1291  132.6964   55.6811 H   0  0  0  0  0  0  0  0  0  0  0  0
  129.6638  131.6366   59.1105 H   0  0  0  0  0  0  0  0  0  0  0  0
  129.9671  130.1081   61.0436 H   0  0  0  0  0  0  0  0  0  0  0  0
  131.4816  125.9058   59.8968 H   0  0  0  0  0  0  0  0  0  0  0  0
  133.9323  125.0456   61.9653 H   0  0  0  0  0  0  0  0  0  0  0  0
  135.2017  122.9270   61.6998 H   0  0  0  0  0  0  0  0  0  0  0  0
  133.3400  118.7061   61.5269 H   0  0  0  0  0  0  0  0  0  0  0  0
  132.8176  119.7038   60.1274 H   0  0  0  0  0  0  0  0  0  0  0  0
  134.4421  118.9372   60.1274 H   0  0  0  0  0  0  0  0  0  0  0  0
  131.4873  120.7429   61.3580 H   0  0  0  0  0  0  0  0  0  0  0  0
  130.2201  122.8656   61.6298 H   0  0  0  0  0  0  0  0  0  0  0  0
  131.6250  123.3930   64.0640 H   0  0  0  0  0  0  0  0  0  0  0  0
  131.0200  123.4640   65.6740 H   0  0  0  0  0  0  0  0  0  0  0  0
  128.3960  124.8004   69.3777 H   0  0  0  0  0  0  0  0  0  0  0  0
  128.0401  125.1188   71.8164 H   0  0  0  0  0  0  0  0  0  0  0  0
  1  2  1  0
  2  3  1  0
  3  4  1  0
  4  5  2  0
  4  6  1  0
  6  7  2  0
  7  8  1  0
  8  9  2  0
  9 10  1  0
 10 11  1  0
 11 12  2  0
 11 13  1  0
 13 14  1  0
 14 15  1  0
 15 16  2  0
 16 17  1  0
 17 18  1  0
 18 19  2  0
 19 20  1  0
 20 21  2  0
 21 22  1  0
 22 23  1  0
 21 24  1  0
 24 25  2  0
 17 26  2  0
 26 27  1  0
 27 28  1  0
 28 29  2  0
 29 30  1  0
 30 31  2  0
 31 32  1  0
 32 33  1  0
 31 34  1  0
 34 35  2  0
 27 36  2  0
 36 37  1  0
 37 38  1  0
  9 39  1  0
 39 40  2  0
 40  6  1  0
 37 13  2  0
 36 15  1  0
 25 18  1  0
 35 28  1  0
  1 41  1  0
  1 42  1  0
  1 43  1  0
  2 44  1  0
  2 45  1  0
  7 46  1  0
  8 47  1  0
 10 48  1  0
 19 49  1  0
 20 50  1  0
 23 51  1  0
 23 52  1  0
 23 53  1  0
 24 54  1  0
 25 55  1  0
 26 56  1  0
 29 57  1  0
 30 58  1  0
 33 59  1  0
 33 60  1  0
 33 61  1  0
 34 62  1  0
 35 63  1  0
 38 64  1  0
 38 65  1  0
 39 66  1  0
 40 67  1  0
M  END
>  <Binding energies>  (1) 
[-7.59]

>  <Ligand effiencies>  (1) 
[-0.17651162790697675]

>  <Interactions>  (1) 
["V-B:TYR:539:CE2:9845, V-A:HIS:456:CE1:4066, V-A:GLY:453:C:4038, H-A:TYR:484:OH:4344, V-A:GLY:454:CA:4045, V-B:TYR:539:CD2:9843, V-A:ASP:366:CG:3209, V-A:TYR:484:CE1:4341, V-B:HIS:456:CD2:9036, V-B:LYS:547:CD:9918, H-A:LYS:547:NZ:4948, V-B:LYS:547:CE:9919, V-B:GLU:543:CB:9875, V-B:HIS:456:CB:9033, V-A:TYR:484:CZ:4343, V-A:GLU:543:CD:4905, V-A:LEU:475:CD1:4254, V-A:ILE:369:CG2:3233, V-B:GLU:543:C:9871, V-B:HIS:456:CG:9034, V-A:TRP:381:CH2:3368, H-A:TYR:531:OH:4792, V-A:ILE:538:CD1:4862"]

$$$$
8b_Ghoteimi_2023
     RDKit          3D

 54 58  0  0  0  0  0  0  0  0999 V2000
  123.9330  133.5910   61.8960 C   0  0  0  0  0  0  0  0  0  0  0  0
  124.0920  133.2800   63.2770 O   0  0  0  0  0  0  0  0  0  0  0  0
  124.8950  132.2150   63.6380 C   0  0  0  0  0  0  0  0  0  0  0  0
  126.1820  132.5240   64.0740 C   0  0  0  0  0  0  0  0  0  0  0  0
  127.0610  131.5160   64.4580 C   0  0  0  0  0  0  0  0  0  0  0  0
  126.6740  130.1690   64.4160 C   0  0  0  0  0  0  0  0  0  0  0  0
  127.6160  129.0810   64.8250 C   0  0  0  0  0  0  0  0  0  0  0  0
  127.8070  128.7380   66.1680 C   0  0  0  0  0  0  0  0  0  0  0  0
  128.6920  127.7170   66.5240 C   0  0  0  0  0  0  0  0  0  0  0  0
  128.8780  127.3860   67.9560 C   0  0  0  0  0  0  0  0  0  0  0  0
  129.9120  127.9760   68.6850 C   0  0  0  0  0  0  0  0  0  0  0  0
  130.0800  127.6710   70.0340 C   0  0  0  0  0  0  0  0  0  0  0  0
  129.2220  126.7730   70.6700 C   0  0  0  0  0  0  0  0  0  0  0  0
  129.4630  126.5320   72.0090 O   0  0  0  0  0  0  0  0  0  0  0  0
  128.4990  126.9430   72.9730 C   0  0  0  0  0  0  0  0  0  0  0  0
  128.1860  126.1780   69.9330 C   0  0  0  0  0  0  0  0  0  0  0  0
  128.0190  126.4840   68.5850 C   0  0  0  0  0  0  0  0  0  0  0  0
  129.3820  127.0370   65.4850 C   0  0  0  0  0  0  0  0  0  0  0  0
  130.3370  125.9600   65.4890 C   0  0  0  0  0  0  0  0  0  0  0  0
  130.7670  125.3650   66.6480 N   0  0  0  0  0  0  0  0  0  0  0  0
  130.7750  125.5830   64.2100 C   0  0  0  0  0  0  0  0  0  0  0  0
  131.7290  124.5340   63.8450 C   0  0  0  0  0  0  0  0  0  0  0  0
  131.8220  123.5060   64.5200 O   0  0  0  0  0  0  0  0  0  0  0  0
  132.4770  124.7860   62.7410 N   0  0  0  0  0  0  0  0  0  0  0  0
  133.4460  123.9700   62.1730 C   0  0  0  0  0  0  0  0  0  0  0  0
  133.1530  122.7510   61.5630 C   0  0  0  0  0  0  0  0  0  0  0  0
  134.3680  122.2620   61.1400 C   0  0  0  0  0  0  0  0  0  0  0  0
  135.3410  123.1420   61.4740 O   0  0  0  0  0  0  0  0  0  0  0  0
  134.7440  124.2220   62.1270 N   0  0  0  0  0  0  0  0  0  0  0  0
  130.0050  126.5620   62.9600 S   0  0  0  0  0  0  0  0  0  0  0  0
  129.1050  127.4660   64.1560 C   0  0  0  0  0  0  0  0  0  0  0  0
  128.2640  128.4420   63.8150 N   0  0  0  0  0  0  0  0  0  0  0  0
  125.3780  129.8640   63.9790 C   0  0  0  0  0  0  0  0  0  0  0  0
  124.4960  130.8710   63.5930 C   0  0  0  0  0  0  0  0  0  0  0  0
  123.4344  134.5663   61.7948 H   0  0  0  0  0  0  0  0  0  0  0  0
  124.9206  133.6323   61.4134 H   0  0  0  0  0  0  0  0  0  0  0  0
  123.3212  132.8146   61.4134 H   0  0  0  0  0  0  0  0  0  0  0  0
  126.5060  133.5744   64.1150 H   0  0  0  0  0  0  0  0  0  0  0  0
  128.0731  131.7794   64.7991 H   0  0  0  0  0  0  0  0  0  0  0  0
  127.2548  129.2776   66.9515 H   0  0  0  0  0  0  0  0  0  0  0  0
  130.5958  128.6835   68.1932 H   0  0  0  0  0  0  0  0  0  0  0  0
  130.8956  128.1419   70.6023 H   0  0  0  0  0  0  0  0  0  0  0  0
  128.8966  126.7735   73.9845 H   0  0  0  0  0  0  0  0  0  0  0  0
  128.2801  128.0127   72.8396 H   0  0  0  0  0  0  0  0  0  0  0  0
  127.5756  126.3603   72.8396 H   0  0  0  0  0  0  0  0  0  0  0  0
  127.5036  125.4674   70.4222 H   0  0  0  0  0  0  0  0  0  0  0  0
  127.2061  126.0125   68.0132 H   0  0  0  0  0  0  0  0  0  0  0  0
  130.5070  125.7290   67.5540 H   0  0  0  0  0  0  0  0  0  0  0  0
  131.3600  124.5470   66.6370 H   0  0  0  0  0  0  0  0  0  0  0  0
  132.3150  125.6620   62.2680 H   0  0  0  0  0  0  0  0  0  0  0  0
  132.1651  122.2818   61.4453 H   0  0  0  0  0  0  0  0  0  0  0  0
  134.5236  121.3083   60.6144 H   0  0  0  0  0  0  0  0  0  0  0  0
  125.0523  128.8141   63.9402 H   0  0  0  0  0  0  0  0  0  0  0  0
  123.4831  130.6112   63.2517 H   0  0  0  0  0  0  0  0  0  0  0  0
  1  2  1  0
  2  3  1  0
  3  4  2  0
  4  5  1  0
  5  6  2  0
  6  7  1  0
  7  8  2  0
  8  9  1  0
  9 10  1  0
 10 11  2  0
 11 12  1  0
 12 13  2  0
 13 14  1  0
 14 15  1  0
 13 16  1  0
 16 17  2  0
  9 18  2  0
 18 19  1  0
 19 20  1  0
 19 21  2  0
 21 22  1  0
 22 23  2  0
 22 24  1  0
 24 25  1  0
 25 26  1  0
 26 27  2  0
 27 28  1  0
 28 29  1  0
 21 30  1  0
 30 31  1  0
 31 32  2  0
  6 33  1  0
 33 34  2  0
 34  3  1  0
 32  7  1  0
 17 10  1  0
 31 18  1  0
 29 25  2  0
  1 35  1  0
  1 36  1  0
  1 37  1  0
  4 38  1  0
  5 39  1  0
  8 40  1  0
 11 41  1  0
 12 42  1  0
 15 43  1  0
 15 44  1  0
 15 45  1  0
 16 46  1  0
 17 47  1  0
 20 48  1  0
 20 49  1  0
 24 50  1  0
 26 51  1  0
 27 52  1  0
 33 53  1  0
 34 54  1  0
M  END
>  <Binding energies>  (1) 
[-8.56]

>  <Ligand effiencies>  (1) 
[-0.23135135135135138]

>  <Interactions>  (1) 
["V-A:HIS:456:CE1:4066, H-A:GLY:454:N:4046, H-A:TYR:484:OH:4344, V-A:GLY:454:CA:4045, V-A:TYR:484:CE1:4341, V-A:GLU:543:CB:4903, V-B:LYS:547:CE:9919, V-B:GLU:543:CB:9875, V-B:GLU:543:CD:9877, V-A:GLU:543:C:4899, V-B:HIS:456:CE1:9038, V-A:TYR:484:CZ:4343, V-A:GLU:543:CD:4905, V-A:ILE:369:CB:3232, H-A:ASP:366:OD2:3211, V-A:ILE:369:CG2:3233, V-A:ILE:369:CG1:3234, H-B:GLY:454:N:9018, V-B:ARG:545:CZ:9895, H-A:ASP:366:OD1:3210, V-A:HIS:456:CD2:4064, V-B:GLU:543:C:9871, V-B:GLY:454:CA:9017, V-B:LEU:475:CD2:9227, H-A:HIS:456:NE2:4067, V-B:ILE:369:CD1:8207, V-B:ILE:369:CG2:8205"]

$$$$
8c_Ghoteimi_2023
     RDKit          3D

 54 58  0  0  0  0  0  0  0  0999 V2000
  123.9960  133.6080   62.1240 C   0  0  0  0  0  0  0  0  0  0  0  0
  124.2530  133.4090   63.5100 O   0  0  0  0  0  0  0  0  0  0  0  0
  125.1250  132.4090   63.8960 C   0  0  0  0  0  0  0  0  0  0  0  0
  124.6840  131.0980   63.7290 C   0  0  0  0  0  0  0  0  0  0  0  0
  125.4950  130.0280   64.0940 C   0  0  0  0  0  0  0  0  0  0  0  0
  126.7710  130.2410   64.6350 C   0  0  0  0  0  0  0  0  0  0  0  0
  127.6460  129.0950   65.0320 C   0  0  0  0  0  0  0  0  0  0  0  0
  127.9510  128.8290   66.3710 C   0  0  0  0  0  0  0  0  0  0  0  0
  128.7700  127.7480   66.7150 C   0  0  0  0  0  0  0  0  0  0  0  0
  129.0810  127.5000   68.1410 C   0  0  0  0  0  0  0  0  0  0  0  0
  130.2350  128.0400   68.7150 C   0  0  0  0  0  0  0  0  0  0  0  0
  130.5200  127.8140   70.0570 C   0  0  0  0  0  0  0  0  0  0  0  0
  129.6630  127.0440   70.8450 C   0  0  0  0  0  0  0  0  0  0  0  0
  130.0260  126.8740   72.1680 O   0  0  0  0  0  0  0  0  0  0  0  0
  129.8470  125.6020   72.7790 C   0  0  0  0  0  0  0  0  0  0  0  0
  128.5070  126.4980   70.2660 C   0  0  0  0  0  0  0  0  0  0  0  0
  128.2210  126.7260   68.9230 C   0  0  0  0  0  0  0  0  0  0  0  0
  129.2740  126.9320   65.6680 C   0  0  0  0  0  0  0  0  0  0  0  0
  130.1200  125.7670   65.6600 C   0  0  0  0  0  0  0  0  0  0  0  0
  130.6200  125.2140   66.8120 N   0  0  0  0  0  0  0  0  0  0  0  0
  130.3780  125.2600   64.3760 C   0  0  0  0  0  0  0  0  0  0  0  0
  131.1850  124.0980   64.0000 C   0  0  0  0  0  0  0  0  0  0  0  0
  131.2190  123.0950   64.7170 O   0  0  0  0  0  0  0  0  0  0  0  0
  131.8710  124.2180   62.8360 N   0  0  0  0  0  0  0  0  0  0  0  0
  132.7010  123.2700   62.2550 C   0  0  0  0  0  0  0  0  0  0  0  0
  134.0110  123.3050   62.1420 N   0  0  0  0  0  0  0  0  0  0  0  0
  134.4730  122.2300   61.5350 C   0  0  0  0  0  0  0  0  0  0  0  0
  133.5260  121.2920   61.1380 C   0  0  0  0  0  0  0  0  0  0  0  0
  131.9460  121.8590   61.5890 S   0  0  0  0  0  0  0  0  0  0  0  0
  129.5680  126.2210   63.1380 S   0  0  0  0  0  0  0  0  0  0  0  0
  128.8940  127.2930   64.3430 C   0  0  0  0  0  0  0  0  0  0  0  0
  128.1150  128.3230   64.0140 N   0  0  0  0  0  0  0  0  0  0  0  0
  127.2090  131.5630   64.7970 C   0  0  0  0  0  0  0  0  0  0  0  0
  126.4000  132.6360   64.4350 C   0  0  0  0  0  0  0  0  0  0  0  0
  123.1315  134.2774   62.0038 H   0  0  0  0  0  0  0  0  0  0  0  0
  124.8789  134.0603   61.6486 H   0  0  0  0  0  0  0  0  0  0  0  0
  123.7791  132.6400   61.6486 H   0  0  0  0  0  0  0  0  0  0  0  0
  123.6869  130.9074   63.3053 H   0  0  0  0  0  0  0  0  0  0  0  0
  125.1297  128.9996   63.9561 H   0  0  0  0  0  0  0  0  0  0  0  0
  127.5429  129.4761   67.1614 H   0  0  0  0  0  0  0  0  0  0  0  0
  130.9199  128.6456   68.1034 H   0  0  0  0  0  0  0  0  0  0  0  0
  131.4288  128.2458   70.5016 H   0  0  0  0  0  0  0  0  0  0  0  0
  129.8629  125.7152   73.8730 H   0  0  0  0  0  0  0  0  0  0  0  0
  128.8804  125.1787   72.4682 H   0  0  0  0  0  0  0  0  0  0  0  0
  130.6592  124.9284   72.4682 H   0  0  0  0  0  0  0  0  0  0  0  0
  127.8245  125.8877   70.8757 H   0  0  0  0  0  0  0  0  0  0  0  0
  127.3134  126.2945   68.4756 H   0  0  0  0  0  0  0  0  0  0  0  0
  130.5700  125.7010   67.6960 H   0  0  0  0  0  0  0  0  0  0  0  0
  131.0570  124.3030   66.8170 H   0  0  0  0  0  0  0  0  0  0  0  0
  131.7690  125.0850   62.3270 H   0  0  0  0  0  0  0  0  0  0  0  0
  135.5478  122.0830   61.3526 H   0  0  0  0  0  0  0  0  0  0  0  0
  133.7419  120.3447   60.6222 H   0  0  0  0  0  0  0  0  0  0  0  0
  128.2075  131.7551   65.2167 H   0  0  0  0  0  0  0  0  0  0  0  0
  126.7617  133.6658   64.5720 H   0  0  0  0  0  0  0  0  0  0  0  0
  1  2  1  0
  2  3  1  0
  3  4  2  0
  4  5  1  0
  5  6  2  0
  6  7  1  0
  7  8  2  0
  8  9  1  0
  9 10  1  0
 10 11  2  0
 11 12  1  0
 12 13  2  0
 13 14  1  0
 14 15  1  0
 13 16  1  0
 16 17  2  0
  9 18  2  0
 18 19  1  0
 19 20  1  0
 19 21  2  0
 21 22  1  0
 22 23  2  0
 22 24  1  0
 24 25  1  0
 25 26  2  0
 26 27  1  0
 27 28  2  0
 28 29  1  0
 21 30  1  0
 30 31  1  0
 31 32  2  0
  6 33  1  0
 33 34  2  0
 34  3  1  0
 32  7  1  0
 17 10  1  0
 31 18  1  0
 29 25  1  0
  1 35  1  0
  1 36  1  0
  1 37  1  0
  4 38  1  0
  5 39  1  0
  8 40  1  0
 11 41  1  0
 12 42  1  0
 15 43  1  0
 15 44  1  0
 15 45  1  0
 16 46  1  0
 17 47  1  0
 20 48  1  0
 20 49  1  0
 24 50  1  0
 27 51  1  0
 28 52  1  0
 33 53  1  0
 34 54  1  0
M  END
>  <Binding energies>  (1) 
[-8.7]

>  <Ligand effiencies>  (1) 
[-0.23513513513513512]

>  <Interactions>  (1) 
["V-B:TYR:539:CE2:9845, V-A:HIS:456:CE1:4066, V-A:GLY:453:C:4038, H-A:GLY:454:N:4046, H-A:TYR:484:OH:4344, V-A:GLY:454:CA:4045, V-A:TYR:484:CE1:4341, V-A:GLU:543:CB:4903, H-A:LYS:547:NZ:4948, V-B:LYS:547:CE:9919, V-B:GLU:543:CB:9875, V-B:GLU:543:CD:9877, V-A:GLU:543:C:4899, V-B:HIS:456:CE1:9038, V-A:TYR:484:CZ:4343, V-A:GLY:544:C:4909, V-A:GLU:543:CD:4905, V-A:LEU:475:CD1:4254, V-A:ILE:369:CG2:3233, V-A:ILE:369:CG1:3234, H-B:GLY:454:N:9018, V-A:GLU:543:CG:4904, V-A:HIS:456:CD2:4064, V-B:TYR:484:CE1:9313, V-B:TYR:484:CZ:9315, V-B:GLY:454:CA:9017, V-B:LEU:475:CD2:9227, H-A:HIS:456:NE2:4067, V-B:ILE:369:CD1:8207, V-B:ILE:369:CG2:8205"]

$$$$
8d_Ghoteimi_2023
     RDKit          3D

 50 53  0  0  0  0  0  0  0  0999 V2000
  132.8560  125.1540   64.5800 C   0  0  0  0  0  0  0  0  0  0  0  0
  132.2520  123.9500   64.1270 O   0  0  0  0  0  0  0  0  0  0  0  0
  130.9400  123.6950   64.3700 C   0  0  0  0  0  0  0  0  0  0  0  0
  130.4370  122.5690   64.3310 O   0  0  0  0  0  0  0  0  0  0  0  0
  130.1660  124.9140   64.6910 C   0  0  0  0  0  0  0  0  0  0  0  0
  129.3970  125.8340   63.3970 S   0  0  0  0  0  0  0  0  0  0  0  0
  128.7650  126.9930   64.5430 C   0  0  0  0  0  0  0  0  0  0  0  0
  128.0270  128.0340   64.1570 N   0  0  0  0  0  0  0  0  0  0  0  0
  127.5840  128.8740   65.1300 C   0  0  0  0  0  0  0  0  0  0  0  0
  126.7620  130.0360   64.6700 C   0  0  0  0  0  0  0  0  0  0  0  0
  125.4450  129.8590   64.2210 C   0  0  0  0  0  0  0  0  0  0  0  0
  124.6840  130.9430   63.7930 C   0  0  0  0  0  0  0  0  0  0  0  0
  125.2180  132.2310   63.8010 C   0  0  0  0  0  0  0  0  0  0  0  0
  124.3910  133.2450   63.3600 O   0  0  0  0  0  0  0  0  0  0  0  0
  124.0690  133.3260   61.9750 C   0  0  0  0  0  0  0  0  0  0  0  0
  126.5330  132.4200   64.2500 C   0  0  0  0  0  0  0  0  0  0  0  0
  127.2910  131.3320   64.6780 C   0  0  0  0  0  0  0  0  0  0  0  0
  127.8860  128.6760   66.4810 C   0  0  0  0  0  0  0  0  0  0  0  0
  128.6580  127.5830   66.8860 C   0  0  0  0  0  0  0  0  0  0  0  0
  128.9540  127.3960   68.3260 C   0  0  0  0  0  0  0  0  0  0  0  0
  130.0820  127.9920   68.8940 C   0  0  0  0  0  0  0  0  0  0  0  0
  130.3650  127.8090   70.2450 C   0  0  0  0  0  0  0  0  0  0  0  0
  129.5260  127.0340   71.0460 C   0  0  0  0  0  0  0  0  0  0  0  0
  129.8860  126.9070   72.3730 O   0  0  0  0  0  0  0  0  0  0  0  0
  129.8880  125.6160   72.9720 C   0  0  0  0  0  0  0  0  0  0  0  0
  128.3900  126.4390   70.4730 C   0  0  0  0  0  0  0  0  0  0  0  0
  128.1090  126.6220   69.1220 C   0  0  0  0  0  0  0  0  0  0  0  0
  129.1290  126.6910   65.8860 C   0  0  0  0  0  0  0  0  0  0  0  0
  129.9290  125.4990   65.9410 C   0  0  0  0  0  0  0  0  0  0  0  0
  130.4170  124.9890   67.1170 N   0  0  0  0  0  0  0  0  0  0  0  0
  132.8636  125.1692   65.6799 H   0  0  0  0  0  0  0  0  0  0  0  0
  133.8887  125.2097   64.2054 H   0  0  0  0  0  0  0  0  0  0  0  0
  132.2832  126.0151   64.2054 H   0  0  0  0  0  0  0  0  0  0  0  0
  125.0076  128.8498   64.2069 H   0  0  0  0  0  0  0  0  0  0  0  0
  123.6528  130.7822   63.4456 H   0  0  0  0  0  0  0  0  0  0  0  0
  123.0081  133.5929   61.8602 H   0  0  0  0  0  0  0  0  0  0  0  0
  124.6942  134.0948   61.4975 H   0  0  0  0  0  0  0  0  0  0  0  0
  124.2560  132.3528   61.4975 H   0  0  0  0  0  0  0  0  0  0  0  0
  126.9675  133.4304   64.2644 H   0  0  0  0  0  0  0  0  0  0  0  0
  128.3213  131.4940   65.0277 H   0  0  0  0  0  0  0  0  0  0  0  0
  127.5125  129.3872   67.2324 H   0  0  0  0  0  0  0  0  0  0  0  0
  130.7487  128.6077   68.2724 H   0  0  0  0  0  0  0  0  0  0  0  0
  131.2572  128.2792   70.6842 H   0  0  0  0  0  0  0  0  0  0  0  0
  129.8878  125.7199   74.0671 H   0  0  0  0  0  0  0  0  0  0  0  0
  128.9907  125.0638   72.6559 H   0  0  0  0  0  0  0  0  0  0  0  0
  130.7870  125.0665   72.6559 H   0  0  0  0  0  0  0  0  0  0  0  0
  127.7200  125.8263   71.0940 H   0  0  0  0  0  0  0  0  0  0  0  0
  127.2168  126.1543   68.6800 H   0  0  0  0  0  0  0  0  0  0  0  0
  130.1020  125.3340   68.0130 H   0  0  0  0  0  0  0  0  0  0  0  0
  131.1040  124.2490   67.1300 H   0  0  0  0  0  0  0  0  0  0  0  0
  1  2  1  0
  2  3  1  0
  3  4  2  0
  3  5  1  0
  5  6  1  0
  6  7  1  0
  7  8  2  0
  8  9  1  0
  9 10  1  0
 10 11  2  0
 11 12  1  0
 12 13  2  0
 13 14  1  0
 14 15  1  0
 13 16  1  0
 16 17  2  0
  9 18  2  0
 18 19  1  0
 19 20  1  0
 20 21  2  0
 21 22  1  0
 22 23  2  0
 23 24  1  0
 24 25  1  0
 23 26  1  0
 26 27  2  0
 19 28  2  0
 28 29  1  0
 29 30  1  0
 29  5  2  0
 28  7  1  0
 17 10  1  0
 27 20  1  0
  1 31  1  0
  1 32  1  0
  1 33  1  0
 11 34  1  0
 12 35  1  0
 15 36  1  0
 15 37  1  0
 15 38  1  0
 16 39  1  0
 17 40  1  0
 18 41  1  0
 21 42  1  0
 22 43  1  0
 25 44  1  0
 25 45  1  0
 25 46  1  0
 26 47  1  0
 27 48  1  0
 30 49  1  0
 30 50  1  0
M  END
>  <Binding energies>  (1) 
[-7.58]

>  <Ligand effiencies>  (1) 
[-0.236875]

>  <Interactions>  (1) 
["V-A:HIS:456:CE1:4066, V-A:ARG:545:CZ:4923, H-A:TYR:484:OH:4344, V-A:TYR:484:CE1:4341, V-A:GLU:543:CB:4903, H-A:LYS:547:NZ:4948, V-B:LYS:547:CE:9919, V-B:GLU:543:CB:9875, V-B:GLU:543:CD:9877, V-A:GLU:543:C:4899, V-B:HIS:456:CE1:9038, V-A:TYR:484:CZ:4343, V-B:GLU:543:CG:9876, V-A:GLU:543:CD:4905, H-B:GLY:454:N:9018, V-A:GLU:543:CG:4904, V-A:HIS:456:CD2:4064, V-B:TYR:484:CE1:9313, V-B:TYR:484:CZ:9315, V-B:GLY:454:CA:9017, V-B:LEU:475:CD2:9227, H-A:HIS:456:NE2:4067, H-B:GLU:543:O:9872, V-B:ILE:369:CD1:8207, V-B:ILE:369:CG2:8205"]

$$$$
9a_Ghoteimi_2023
     RDKit          3D

 85 91  0  0  0  0  0  0  0  0999 V2000
  136.9810  117.8080   57.4280 C   0  0  0  0  0  0  0  0  0  0  0  0
  135.6010  117.1580   57.2810 C   0  0  0  0  0  0  0  0  0  0  0  0
  134.8910  117.2710   58.5080 O   0  0  0  0  0  0  0  0  0  0  0  0
  135.4930  117.7540   59.6250 C   0  0  0  0  0  0  0  0  0  0  0  0
  136.5790  117.3410   60.0450 O   0  0  0  0  0  0  0  0  0  0  0  0
  134.7050  118.8370   60.3030 C   0  0  0  0  0  0  0  0  0  0  0  0
  135.3740  119.7700   61.1060 C   0  0  0  0  0  0  0  0  0  0  0  0
  134.6710  120.7850   61.7500 C   0  0  0  0  0  0  0  0  0  0  0  0
  133.2880  120.8900   61.6040 C   0  0  0  0  0  0  0  0  0  0  0  0
  132.6830  121.9540   62.3010 N   0  0  0  0  0  0  0  0  0  0  0  0
  132.6450  123.2800   62.0190 C   0  0  0  0  0  0  0  0  0  0  0  0
  133.1740  123.7930   61.0330 O   0  0  0  0  0  0  0  0  0  0  0  0
  131.9070  124.1040   62.9810 C   0  0  0  0  0  0  0  0  0  0  0  0
  132.1300  123.8620   64.7150 S   0  0  0  0  0  0  0  0  0  0  0  0
  130.9980  125.1430   65.0840 C   0  0  0  0  0  0  0  0  0  0  0  0
  130.7240  125.4920   66.3400 N   0  0  0  0  0  0  0  0  0  0  0  0
  129.8390  126.5080   66.5190 C   0  0  0  0  0  0  0  0  0  0  0  0
  129.5560  126.8900   67.9360 C   0  0  0  0  0  0  0  0  0  0  0  0
  128.3690  126.4850   68.5570 C   0  0  0  0  0  0  0  0  0  0  0  0
  128.0970  126.8360   69.8770 C   0  0  0  0  0  0  0  0  0  0  0  0
  129.0090  127.5940   70.6290 C   0  0  0  0  0  0  0  0  0  0  0  0
  128.7410  127.9700   71.9500 N   0  0  0  0  0  0  0  0  0  0  0  0
  128.4980  126.9640   73.0040 C   0  0  0  0  0  0  0  0  0  0  0  0
  127.8710  127.5480   74.2880 C   0  0  0  0  0  0  0  0  0  0  0  0
  128.6660  128.6150   74.7760 O   0  0  0  0  0  0  0  0  0  0  0  0
  128.7680  129.6640   73.8260 C   0  0  0  0  0  0  0  0  0  0  0  0
  129.4270  129.1410   72.5330 C   0  0  0  0  0  0  0  0  0  0  0  0
  130.1890  128.0090   69.9970 C   0  0  0  0  0  0  0  0  0  0  0  0
  130.4590  127.6610   68.6760 C   0  0  0  0  0  0  0  0  0  0  0  0
  129.2140  127.1490   65.4470 C   0  0  0  0  0  0  0  0  0  0  0  0
  129.4840  126.7720   64.1270 C   0  0  0  0  0  0  0  0  0  0  0  0
  128.7640  127.4620   63.0260 C   0  0  0  0  0  0  0  0  0  0  0  0
  127.3690  127.4210   62.9530 C   0  0  0  0  0  0  0  0  0  0  0  0
  126.6950  128.0800   61.9290 C   0  0  0  0  0  0  0  0  0  0  0  0
  127.3980  128.8130   60.9590 C   0  0  0  0  0  0  0  0  0  0  0  0
  126.7440  129.4730   59.9160 N   0  0  0  0  0  0  0  0  0  0  0  0
  125.8200  130.5800   60.2320 C   0  0  0  0  0  0  0  0  0  0  0  0
  125.4710  131.4530   59.0070 C   0  0  0  0  0  0  0  0  0  0  0  0
  124.9530  130.6430   57.9640 O   0  0  0  0  0  0  0  0  0  0  0  0
  125.8890  129.6610   57.5480 C   0  0  0  0  0  0  0  0  0  0  0  0
  126.2490  128.7400   58.7340 C   0  0  0  0  0  0  0  0  0  0  0  0
  128.7970  128.8500   61.0450 C   0  0  0  0  0  0  0  0  0  0  0  0
  129.4710  128.1880   62.0660 C   0  0  0  0  0  0  0  0  0  0  0  0
  130.4350  125.7340   63.9150 C   0  0  0  0  0  0  0  0  0  0  0  0
  130.9910  125.1360   62.7270 C   0  0  0  0  0  0  0  0  0  0  0  0
  130.6590  125.5570   61.4640 N   0  0  0  0  0  0  0  0  0  0  0  0
  132.6090  119.9620   60.7990 C   0  0  0  0  0  0  0  0  0  0  0  0
  133.3140  118.9470   60.1560 C   0  0  0  0  0  0  0  0  0  0  0  0
  137.2212  117.9211   58.4955 H   0  0  0  0  0  0  0  0  0  0  0  0
  137.7389  117.1722   56.9470 H   0  0  0  0  0  0  0  0  0  0  0  0
  136.9735  118.7972   56.9470 H   0  0  0  0  0  0  0  0  0  0  0  0
  135.0390  117.6668   56.4839 H   0  0  0  0  0  0  0  0  0  0  0  0
  135.7216  116.0954   57.0235 H   0  0  0  0  0  0  0  0  0  0  0  0
  136.4649  119.7001   61.2289 H   0  0  0  0  0  0  0  0  0  0  0  0
  135.2103  121.5091   62.3783 H   0  0  0  0  0  0  0  0  0  0  0  0
  132.2010  121.6720   63.1420 H   0  0  0  0  0  0  0  0  0  0  0  0
  127.6411  125.8814   67.9950 H   0  0  0  0  0  0  0  0  0  0  0  0
  127.1517  126.5140   70.3383 H   0  0  0  0  0  0  0  0  0  0  0  0
  127.8177  126.1983   72.6028 H   0  0  0  0  0  0  0  0  0  0  0  0
  129.4778  126.5502   73.2848 H   0  0  0  0  0  0  0  0  0  0  0  0
  126.8607  127.9204   74.0628 H   0  0  0  0  0  0  0  0  0  0  0  0
  127.8172  126.7597   75.0533 H   0  0  0  0  0  0  0  0  0  0  0  0
  127.7624  130.0449   73.5943 H   0  0  0  0  0  0  0  0  0  0  0  0
  129.3852  130.4724   74.2449 H   0  0  0  0  0  0  0  0  0  0  0  0
  129.4241  129.9514   71.7892 H   0  0  0  0  0  0  0  0  0  0  0  0
  130.4449  128.8189   72.7979 H   0  0  0  0  0  0  0  0  0  0  0  0
  130.9144  128.6202   70.5541 H   0  0  0  0  0  0  0  0  0  0  0  0
  131.3958  127.9971   68.2075 H   0  0  0  0  0  0  0  0  0  0  0  0
  128.4993  127.9618   65.6433 H   0  0  0  0  0  0  0  0  0  0  0  0
  126.7991  126.8635   63.7109 H   0  0  0  0  0  0  0  0  0  0  0  0
  125.5975  128.0260   61.8788 H   0  0  0  0  0  0  0  0  0  0  0  0
  124.8889  130.1537   60.6336 H   0  0  0  0  0  0  0  0  0  0  0  0
  126.3268  131.2294   60.9610 H   0  0  0  0  0  0  0  0  0  0  0  0
  124.7175  132.2007   59.2956 H   0  0  0  0  0  0  0  0  0  0  0  0
  126.3819  131.9578   58.6528 H   0  0  0  0  0  0  0  0  0  0  0  0
  125.4500  129.0587   56.7390 H   0  0  0  0  0  0  0  0  0  0  0  0
  126.8008  130.1602   57.1882 H   0  0  0  0  0  0  0  0  0  0  0  0
  125.3494  128.1773   59.0241 H   0  0  0  0  0  0  0  0  0  0  0  0
  127.0618  128.0796   58.3974 H   0  0  0  0  0  0  0  0  0  0  0  0
  129.3708  129.4115   60.2930 H   0  0  0  0  0  0  0  0  0  0  0  0
  130.5687  128.2369   62.1172 H   0  0  0  0  0  0  0  0  0  0  0  0
  131.2870  125.4410   60.6810 H   0  0  0  0  0  0  0  0  0  0  0  0
  129.7700  125.9990   61.2750 H   0  0  0  0  0  0  0  0  0  0  0  0
  131.5185  120.0363   60.6757 H   0  0  0  0  0  0  0  0  0  0  0  0
  132.7744  118.2242   59.5264 H   0  0  0  0  0  0  0  0  0  0  0  0
  1  2  1  0
  2  3  1  0
  3  4  1  0
  4  5  2  0
  4  6  1  0
  6  7  2  0
  7  8  1  0
  8  9  2  0
  9 10  1  0
 10 11  1  0
 11 12  2  0
 11 13  1  0
 13 14  1  0
 14 15  1  0
 15 16  2  0
 16 17  1  0
 17 18  1  0
 18 19  2  0
 19 20  1  0
 20 21  2  0
 21 22  1  0
 22 23  1  0
 23 24  1  0
 24 25  1  0
 25 26  1  0
 26 27  1  0
 21 28  1  0
 28 29  2  0
 17 30  2  0
 30 31  1  0
 31 32  1  0
 32 33  2  0
 33 34  1  0
 34 35  2  0
 35 36  1  0
 36 37  1  0
 37 38  1  0
 38 39  1  0
 39 40  1  0
 40 41  1  0
 35 42  1  0
 42 43  2  0
 31 44  2  0
 44 45  1  0
 45 46  1  0
  9 47  1  0
 47 48  2  0
 48  6  1  0
 45 13  2  0
 44 15  1  0
 29 18  1  0
 43 32  1  0
 27 22  1  0
 41 36  1  0
  1 49  1  0
  1 50  1  0
  1 51  1  0
  2 52  1  0
  2 53  1  0
  7 54  1  0
  8 55  1  0
 10 56  1  0
 19 57  1  0
 20 58  1  0
 23 59  1  0
 23 60  1  0
 24 61  1  0
 24 62  1  0
 26 63  1  0
 26 64  1  0
 27 65  1  0
 27 66  1  0
 28 67  1  0
 29 68  1  0
 30 69  1  0
 33 70  1  0
 34 71  1  0
 37 72  1  0
 37 73  1  0
 38 74  1  0
 38 75  1  0
 40 76  1  0
 40 77  1  0
 41 78  1  0
 41 79  1  0
 42 80  1  0
 43 81  1  0
 46 82  1  0
 46 83  1  0
 47 84  1  0
 48 85  1  0
M  END
>  <Binding energies>  (1) 
[-3.97]

>  <Ligand effiencies>  (1) 
[-0.07784313725490197]

>  <Interactions>  (1) 
["V-B:TYR:539:CE2:9845, V-A:HIS:456:CE1:4066, V-B:TYR:539:CZ:9846, H-A:TYR:484:OH:4344, V-A:GLY:454:CA:4045, V-B:TYR:539:CD2:9843, V-B:HIS:456:CD2:9036, V-A:GLU:543:CB:4903, V-A:LYS:547:CE:4947, V-B:LYS:547:CD:9918, H-A:LYS:547:NZ:4948, V-B:LYS:547:CE:9919, V-B:GLU:543:CB:9875, V-B:GLU:543:CD:9877, V-A:GLU:543:C:4899, V-B:HIS:456:CE1:9038, V-A:TYR:484:CZ:4343, V-A:GLU:543:CD:4905, V-A:ILE:369:CB:3232, V-A:LEU:475:CD1:4254, V-A:ILE:369:CG2:3233, V-A:ILE:369:CG1:3234, H-A:ASP:366:OD1:3210, H-B:TYR:531:OH:9764, V-B:ASP:366:CG:8181, V-B:ASP:366:CB:8180, V-A:TYR:539:CE2:4873, V-A:SER:385:C:3401, V-A:SER:385:CA:3403, V-A:ILE:369:CD1:3235, V-A:TRP:381:CH2:3368, V-A:TRP:381:CZ2:3366, H-A:MET:386:N:3412, H-A:ASN:382:ND2:3377, V-A:VAL:384:C:3393, V-A:ILE:369:CA:3230, V-A:ASN:372:CB:3263, V-A:VAL:384:CG1:3398, V-A:ILE:369:C:3228, V-A:ASN:382:CG:3375, V-A:LEU:373:CD2:3277, H-A:SER:385:N:3404, V-A:ASN:372:C:3259"]

$$$$
9b_Ghoteimi_2023
     RDKit          3D

 72 78  0  0  0  0  0  0  0  0999 V2000
  129.6200  126.9430   62.0090 N   0  0  0  0  0  0  0  0  0  0  0  0
  129.0080  127.6360   63.0230 C   0  0  0  0  0  0  0  0  0  0  0  0
  128.2290  128.7840   62.8150 C   0  0  0  0  0  0  0  0  0  0  0  0
  127.8920  129.4430   61.5500 C   0  0  0  0  0  0  0  0  0  0  0  0
  126.9770  129.0180   60.8430 O   0  0  0  0  0  0  0  0  0  0  0  0
  128.6530  130.5210   61.2350 N   0  0  0  0  0  0  0  0  0  0  0  0
  128.5620  131.3200   60.1020 C   0  0  0  0  0  0  0  0  0  0  0  0
  129.3920  131.1640   58.9920 C   0  0  0  0  0  0  0  0  0  0  0  0
  128.9840  132.1300   58.1020 C   0  0  0  0  0  0  0  0  0  0  0  0
  127.9610  132.8310   58.6480 O   0  0  0  0  0  0  0  0  0  0  0  0
  127.7030  132.3080   59.9150 N   0  0  0  0  0  0  0  0  0  0  0  0
  127.6260  129.4310   64.3410 S   0  0  0  0  0  0  0  0  0  0  0  0
  128.4350  128.1740   65.2450 C   0  0  0  0  0  0  0  0  0  0  0  0
  128.3810  128.1260   66.5750 N   0  0  0  0  0  0  0  0  0  0  0  0
  129.0590  127.1180   67.1840 C   0  0  0  0  0  0  0  0  0  0  0  0
  128.9990  127.0990   68.6770 C   0  0  0  0  0  0  0  0  0  0  0  0
  127.9290  126.4980   69.3510 C   0  0  0  0  0  0  0  0  0  0  0  0
  127.8700  126.4960   70.7410 C   0  0  0  0  0  0  0  0  0  0  0  0
  128.8730  127.1080   71.5090 C   0  0  0  0  0  0  0  0  0  0  0  0
  128.8290  127.1110   72.9080 N   0  0  0  0  0  0  0  0  0  0  0  0
  129.4930  126.0560   73.7010 C   0  0  0  0  0  0  0  0  0  0  0  0
  129.6400  126.4010   75.1970 C   0  0  0  0  0  0  0  0  0  0  0  0
  128.3740  126.7270   75.7460 O   0  0  0  0  0  0  0  0  0  0  0  0
  127.8010  127.8520   75.1000 C   0  0  0  0  0  0  0  0  0  0  0  0
  127.6000  127.5560   73.5980 C   0  0  0  0  0  0  0  0  0  0  0  0
  129.9520  127.6900   70.8300 C   0  0  0  0  0  0  0  0  0  0  0  0
  130.0130  127.6890   69.4390 C   0  0  0  0  0  0  0  0  0  0  0  0
  129.7650  126.1510   66.4640 C   0  0  0  0  0  0  0  0  0  0  0  0
  129.8080  126.1870   65.0650 C   0  0  0  0  0  0  0  0  0  0  0  0
  130.5460  125.1180   64.3450 C   0  0  0  0  0  0  0  0  0  0  0  0
  131.7930  125.3840   63.7770 C   0  0  0  0  0  0  0  0  0  0  0  0
  132.4960  124.3800   63.1180 C   0  0  0  0  0  0  0  0  0  0  0  0
  131.9710  123.0830   63.0080 C   0  0  0  0  0  0  0  0  0  0  0  0
  132.6670  122.0560   62.3650 N   0  0  0  0  0  0  0  0  0  0  0  0
  131.9470  121.1740   61.4260 C   0  0  0  0  0  0  0  0  0  0  0  0
  132.7130  119.8720   61.1070 C   0  0  0  0  0  0  0  0  0  0  0  0
  134.0090  120.1790   60.6140 O   0  0  0  0  0  0  0  0  0  0  0  0
  134.7690  120.9160   61.5600 C   0  0  0  0  0  0  0  0  0  0  0  0
  134.0540  122.2420   61.8950 C   0  0  0  0  0  0  0  0  0  0  0  0
  130.7260  122.8230   63.5990 C   0  0  0  0  0  0  0  0  0  0  0  0
  130.0220  123.8280   64.2580 C   0  0  0  0  0  0  0  0  0  0  0  0
  129.1330  127.2540   64.4080 C   0  0  0  0  0  0  0  0  0  0  0  0
  130.3730  127.3450   61.4680 H   0  0  0  0  0  0  0  0  0  0  0  0
  129.3360  126.0030   61.7680 H   0  0  0  0  0  0  0  0  0  0  0  0
  129.3710  130.7850   61.8940 H   0  0  0  0  0  0  0  0  0  0  0  0
  130.1982  130.4279   58.8575 H   0  0  0  0  0  0  0  0  0  0  0  0
  129.4184  132.3054   57.1067 H   0  0  0  0  0  0  0  0  0  0  0  0
  127.1237  126.0207   68.7734 H   0  0  0  0  0  0  0  0  0  0  0  0
  127.0240  126.0071   71.2462 H   0  0  0  0  0  0  0  0  0  0  0  0
  128.9011  125.1329   73.6146 H   0  0  0  0  0  0  0  0  0  0  0  0
  130.5099  125.9437   73.2968 H   0  0  0  0  0  0  0  0  0  0  0  0
  130.0567  125.5345   75.7315 H   0  0  0  0  0  0  0  0  0  0  0  0
  130.3132  127.2643   75.3041 H   0  0  0  0  0  0  0  0  0  0  0  0
  126.8277  128.0788   75.5596 H   0  0  0  0  0  0  0  0  0  0  0  0
  128.4766  128.7131   75.2100 H   0  0  0  0  0  0  0  0  0  0  0  0
  126.8411  126.7659   73.4987 H   0  0  0  0  0  0  0  0  0  0  0  0
  127.2902  128.4992   73.1242 H   0  0  0  0  0  0  0  0  0  0  0  0
  130.7651  128.1558   71.4061 H   0  0  0  0  0  0  0  0  0  0  0  0
  130.8695  128.1582   68.9328 H   0  0  0  0  0  0  0  0  0  0  0  0
  130.2938  125.3512   67.0031 H   0  0  0  0  0  0  0  0  0  0  0  0
  132.2228  126.3939   63.8508 H   0  0  0  0  0  0  0  0  0  0  0  0
  133.4779  124.6063   62.6767 H   0  0  0  0  0  0  0  0  0  0  0  0
  130.9761  120.9088   61.8699 H   0  0  0  0  0  0  0  0  0  0  0  0
  131.8321  121.7259   60.4814 H   0  0  0  0  0  0  0  0  0  0  0  0
  132.8049  119.2698   62.0229 H   0  0  0  0  0  0  0  0  0  0  0  0
  132.1606  119.3063   60.3423 H   0  0  0  0  0  0  0  0  0  0  0  0
  134.8825  120.3214   62.4785 H   0  0  0  0  0  0  0  0  0  0  0  0
  135.7586  121.1375   61.1337 H   0  0  0  0  0  0  0  0  0  0  0  0
  134.6236  122.7561   62.6832 H   0  0  0  0  0  0  0  0  0  0  0  0
  134.0069  122.8299   60.9665 H   0  0  0  0  0  0  0  0  0  0  0  0
  130.2994  121.8108   63.5413 H   0  0  0  0  0  0  0  0  0  0  0  0
  129.0461  123.6030   64.7130 H   0  0  0  0  0  0  0  0  0  0  0  0
  1  2  1  0
  2  3  2  0
  3  4  1  0
  4  5  2  0
  4  6  1  0
  6  7  1  0
  7  8  1  0
  8  9  2  0
  9 10  1  0
 10 11  1  0
  3 12  1  0
 12 13  1  0
 13 14  2  0
 14 15  1  0
 15 16  1  0
 16 17  2  0
 17 18  1  0
 18 19  2  0
 19 20  1  0
 20 21  1  0
 21 22  1  0
 22 23  1  0
 23 24  1  0
 24 25  1  0
 19 26  1  0
 26 27  2  0
 15 28  2  0
 28 29  1  0
 29 30  1  0
 30 31  2  0
 31 32  1  0
 32 33  2  0
 33 34  1  0
 34 35  1  0
 35 36  1  0
 36 37  1  0
 37 38  1  0
 38 39  1  0
 33 40  1  0
 40 41  2  0
 29 42  2  0
 42  2  1  0
 11  7  2  0
 42 13  1  0
 27 16  1  0
 41 30  1  0
 25 20  1  0
 39 34  1  0
  1 43  1  0
  1 44  1  0
  6 45  1  0
  8 46  1  0
  9 47  1  0
 17 48  1  0
 18 49  1  0
 21 50  1  0
 21 51  1  0
 22 52  1  0
 22 53  1  0
 24 54  1  0
 24 55  1  0
 25 56  1  0
 25 57  1  0
 26 58  1  0
 27 59  1  0
 28 60  1  0
 31 61  1  0
 32 62  1  0
 35 63  1  0
 35 64  1  0
 36 65  1  0
 36 66  1  0
 38 67  1  0
 38 68  1  0
 39 69  1  0
 39 70  1  0
 40 71  1  0
 41 72  1  0
M  END
>  <Binding energies>  (1) 
[-8.42]

>  <Ligand effiencies>  (1) 
[-0.18711111111111112]

>  <Interactions>  (1) 
["V-B:TYR:539:CE2:9845, V-A:HIS:456:CE1:4066, V-A:GLY:453:C:4038, V-A:ARG:545:CZ:4923, V-A:GLY:454:CA:4045, V-B:TYR:539:CD2:9843, V-B:HIS:456:CD2:9036, V-A:LYS:547:CE:4947, V-B:LYS:547:CD:9918, V-B:GLY:544:C:9881, V-B:LYS:547:CE:9919, V-B:GLU:543:CB:9875, V-B:GLU:543:CD:9877, V-B:HIS:456:CE1:9038, V-B:GLU:543:CG:9876, V-A:GLU:543:CD:4905, V-A:ILE:369:CB:3232, V-A:LEU:475:CD1:4254, V-A:ILE:369:CG2:3233, V-A:ILE:369:CG1:3234, H-A:GLU:543:OE2:4907, V-A:GLU:543:CG:4904, H-A:ASP:366:OD1:3210, V-B:GLU:543:C:9871, V-A:TYR:539:C:4864, V-A:ILE:369:CD1:3235"]

$$$$
9c_Ghoteimi_2023
     RDKit          3D

 72 78  0  0  0  0  0  0  0  0999 V2000
  129.7380  126.8790   62.0290 N   0  0  0  0  0  0  0  0  0  0  0  0
  129.1290  127.6080   63.0200 C   0  0  0  0  0  0  0  0  0  0  0  0
  128.3730  128.7640   62.7750 C   0  0  0  0  0  0  0  0  0  0  0  0
  128.0650  129.3990   61.4900 C   0  0  0  0  0  0  0  0  0  0  0  0
  127.0680  129.0680   60.8460 O   0  0  0  0  0  0  0  0  0  0  0  0
  128.9460  130.3460   61.0840 N   0  0  0  0  0  0  0  0  0  0  0  0
  128.8960  131.0830   59.9090 C   0  0  0  0  0  0  0  0  0  0  0  0
  127.8640  131.7150   59.3940 N   0  0  0  0  0  0  0  0  0  0  0  0
  128.1760  132.3100   58.2590 C   0  0  0  0  0  0  0  0  0  0  0  0
  129.4930  132.1640   57.8300 C   0  0  0  0  0  0  0  0  0  0  0  0
  130.3590  131.1950   58.9830 S   0  0  0  0  0  0  0  0  0  0  0  0
  127.7660  129.4590   64.2780 S   0  0  0  0  0  0  0  0  0  0  0  0
  128.5430  128.2110   65.2220 C   0  0  0  0  0  0  0  0  0  0  0  0
  128.4720  128.1950   66.5520 N   0  0  0  0  0  0  0  0  0  0  0  0
  129.1250  127.1910   67.1930 C   0  0  0  0  0  0  0  0  0  0  0  0
  129.0470  127.2100   68.6850 C   0  0  0  0  0  0  0  0  0  0  0  0
  129.9620  127.9420   69.4500 C   0  0  0  0  0  0  0  0  0  0  0  0
  129.8910  127.9490   70.8390 C   0  0  0  0  0  0  0  0  0  0  0  0
  128.9070  127.2120   71.5170 C   0  0  0  0  0  0  0  0  0  0  0  0
  128.8170  127.2140   72.9140 N   0  0  0  0  0  0  0  0  0  0  0  0
  129.4430  126.1500   73.7260 C   0  0  0  0  0  0  0  0  0  0  0  0
  129.5480  126.4930   75.2280 C   0  0  0  0  0  0  0  0  0  0  0  0
  128.2680  126.8330   75.7360 O   0  0  0  0  0  0  0  0  0  0  0  0
  127.7300  127.9640   75.0730 C   0  0  0  0  0  0  0  0  0  0  0  0
  127.5720  127.6710   73.5650 C   0  0  0  0  0  0  0  0  0  0  0  0
  127.9810  126.4950   70.7460 C   0  0  0  0  0  0  0  0  0  0  0  0
  128.0510  126.4920   69.3560 C   0  0  0  0  0  0  0  0  0  0  0  0
  129.8210  126.1940   66.5040 C   0  0  0  0  0  0  0  0  0  0  0  0
  129.8790  126.1940   65.1060 C   0  0  0  0  0  0  0  0  0  0  0  0
  130.6040  125.0960   64.4200 C   0  0  0  0  0  0  0  0  0  0  0  0
  129.8990  124.0370   63.8450 C   0  0  0  0  0  0  0  0  0  0  0  0
  130.5740  123.0140   63.1850 C   0  0  0  0  0  0  0  0  0  0  0  0
  131.9740  123.0210   63.0850 C   0  0  0  0  0  0  0  0  0  0  0  0
  132.6720  122.0100   62.4180 N   0  0  0  0  0  0  0  0  0  0  0  0
  131.9450  121.1310   61.4810 C   0  0  0  0  0  0  0  0  0  0  0  0
  132.7220  119.8450   61.1250 C   0  0  0  0  0  0  0  0  0  0  0  0
  134.0030  120.1780   60.6110 O   0  0  0  0  0  0  0  0  0  0  0  0
  134.7720  120.9100   61.5520 C   0  0  0  0  0  0  0  0  0  0  0  0
  134.0460  122.2220   61.9230 C   0  0  0  0  0  0  0  0  0  0  0  0
  132.6710  124.1000   63.6480 C   0  0  0  0  0  0  0  0  0  0  0  0
  131.9950  125.1240   64.3080 C   0  0  0  0  0  0  0  0  0  0  0  0
  129.2310  127.2570   64.4140 C   0  0  0  0  0  0  0  0  0  0  0  0
  129.2290  126.5500   61.2200 H   0  0  0  0  0  0  0  0  0  0  0  0
  130.7190  126.6440   62.0760 H   0  0  0  0  0  0  0  0  0  0  0  0
  129.7250  130.5470   61.6940 H   0  0  0  0  0  0  0  0  0  0  0  0
  127.4381  132.8886   57.6840 H   0  0  0  0  0  0  0  0  0  0  0  0
  129.9164  132.5929   56.9098 H   0  0  0  0  0  0  0  0  0  0  0  0
  130.7495  128.5207   68.9450 H   0  0  0  0  0  0  0  0  0  0  0  0
  130.6171  128.5412   71.4153 H   0  0  0  0  0  0  0  0  0  0  0  0
  128.8425  125.2344   73.6204 H   0  0  0  0  0  0  0  0  0  0  0  0
  130.4703  126.0248   73.3532 H   0  0  0  0  0  0  0  0  0  0  0  0
  129.9378  125.6217   75.7747 H   0  0  0  0  0  0  0  0  0  0  0  0
  130.2280  127.3479   75.3577 H   0  0  0  0  0  0  0  0  0  0  0  0
  126.7457  128.2030   75.5021 H   0  0  0  0  0  0  0  0  0  0  0  0
  128.4129  128.8163   75.2041 H   0  0  0  0  0  0  0  0  0  0  0  0
  126.8085  126.8888   73.4416 H   0  0  0  0  0  0  0  0  0  0  0  0
  127.2862  128.6173   73.0824 H   0  0  0  0  0  0  0  0  0  0  0  0
  127.1855  125.9251   71.2484 H   0  0  0  0  0  0  0  0  0  0  0  0
  127.3132  125.9173   68.7770 H   0  0  0  0  0  0  0  0  0  0  0  0
  130.3300  125.3987   67.0683 H   0  0  0  0  0  0  0  0  0  0  0  0
  128.8015  124.0108   63.9140 H   0  0  0  0  0  0  0  0  0  0  0  0
  130.0023  122.1887   62.7356 H   0  0  0  0  0  0  0  0  0  0  0  0
  130.9879  120.8448   61.9415 H   0  0  0  0  0  0  0  0  0  0  0  0
  131.8025  121.6954   60.5476 H   0  0  0  0  0  0  0  0  0  0  0  0
  132.8410  119.2293   62.0288 H   0  0  0  0  0  0  0  0  0  0  0  0
  132.1617  119.2841   60.3625 H   0  0  0  0  0  0  0  0  0  0  0  0
  134.9125  120.3028   62.4584 H   0  0  0  0  0  0  0  0  0  0  0  0
  135.7494  121.1516   61.1089 H   0  0  0  0  0  0  0  0  0  0  0  0
  134.6249  122.7313   62.7075 H   0  0  0  0  0  0  0  0  0  0  0  0
  133.9720  122.8237   61.0051 H   0  0  0  0  0  0  0  0  0  0  0  0
  133.7674  124.1384   63.5673 H   0  0  0  0  0  0  0  0  0  0  0  0
  132.5614  125.9602   64.7438 H   0  0  0  0  0  0  0  0  0  0  0  0
  1  2  1  0
  2  3  2  0
  3  4  1  0
  4  5  2  0
  4  6  1  0
  6  7  1  0
  7  8  2  0
  8  9  1  0
  9 10  2  0
 10 11  1  0
  3 12  1  0
 12 13  1  0
 13 14  2  0
 14 15  1  0
 15 16  1  0
 16 17  2  0
 17 18  1  0
 18 19  2  0
 19 20  1  0
 20 21  1  0
 21 22  1  0
 22 23  1  0
 23 24  1  0
 24 25  1  0
 19 26  1  0
 26 27  2  0
 15 28  2  0
 28 29  1  0
 29 30  1  0
 30 31  2  0
 31 32  1  0
 32 33  2  0
 33 34  1  0
 34 35  1  0
 35 36  1  0
 36 37  1  0
 37 38  1  0
 38 39  1  0
 33 40  1  0
 40 41  2  0
 29 42  2  0
 42  2  1  0
 11  7  1  0
 42 13  1  0
 27 16  1  0
 41 30  1  0
 25 20  1  0
 39 34  1  0
  1 43  1  0
  1 44  1  0
  6 45  1  0
  9 46  1  0
 10 47  1  0
 17 48  1  0
 18 49  1  0
 21 50  1  0
 21 51  1  0
 22 52  1  0
 22 53  1  0
 24 54  1  0
 24 55  1  0
 25 56  1  0
 25 57  1  0
 26 58  1  0
 27 59  1  0
 28 60  1  0
 31 61  1  0
 32 62  1  0
 35 63  1  0
 35 64  1  0
 36 65  1  0
 36 66  1  0
 38 67  1  0
 38 68  1  0
 39 69  1  0
 39 70  1  0
 40 71  1  0
 41 72  1  0
M  END
>  <Binding energies>  (1) 
[-8.45]

>  <Ligand effiencies>  (1) 
[-0.18777777777777777]

>  <Interactions>  (1) 
["V-B:TYR:539:CE2:9845, V-A:HIS:456:CE1:4066, V-A:GLY:453:C:4038, V-A:GLY:454:CA:4045, V-B:TYR:539:CD2:9843, V-B:HIS:456:CD2:9036, V-A:LYS:547:CE:4947, V-B:LYS:547:CD:9918, V-B:GLY:544:C:9881, V-B:LYS:547:CE:9919, V-B:GLU:543:CD:9877, V-A:GLU:543:C:4899, V-B:HIS:456:CE1:9038, V-B:GLU:543:CG:9876, V-A:GLU:543:CD:4905, V-A:ILE:369:CB:3232, V-A:LEU:475:CD1:4254, V-A:ILE:369:CG2:3233, V-A:ILE:369:CG1:3234, H-A:GLU:543:OE2:4907, V-A:GLU:543:CG:4904, H-A:ASP:366:OD1:3210, V-B:GLU:543:C:9871, V-A:PRO:540:N:4881, V-A:PRO:540:CA:4880, V-A:TYR:539:C:4864, V-A:TYR:539:CE2:4873, V-A:TYR:539:CD2:4871, V-A:ILE:369:CD1:3235, V-A:TRP:381:CH2:3368"]

$$$$
9d_Ghoteimi_2023
     RDKit          3D

 68 73  0  0  0  0  0  0  0  0999 V2000
  134.0010  123.5350   59.2080 C   0  0  0  0  0  0  0  0  0  0  0  0
  133.7950  123.1230   60.5510 O   0  0  0  0  0  0  0  0  0  0  0  0
  134.2780  123.8570   61.5870 C   0  0  0  0  0  0  0  0  0  0  0  0
  135.4740  124.1180   61.7490 O   0  0  0  0  0  0  0  0  0  0  0  0
  133.2190  124.3150   62.5130 C   0  0  0  0  0  0  0  0  0  0  0  0
  133.6090  124.6370   64.2020 S   0  0  0  0  0  0  0  0  0  0  0  0
  131.9600  125.1130   64.5330 C   0  0  0  0  0  0  0  0  0  0  0  0
  131.5840  125.5350   65.7390 N   0  0  0  0  0  0  0  0  0  0  0  0
  130.2840  125.8990   65.8880 C   0  0  0  0  0  0  0  0  0  0  0  0
  129.8910  126.3940   67.2440 C   0  0  0  0  0  0  0  0  0  0  0  0
  130.5250  127.5070   67.8040 C   0  0  0  0  0  0  0  0  0  0  0  0
  130.1690  127.9740   69.0660 C   0  0  0  0  0  0  0  0  0  0  0  0
  129.1540  127.3510   69.8100 C   0  0  0  0  0  0  0  0  0  0  0  0
  128.7960  127.7990   71.0870 N   0  0  0  0  0  0  0  0  0  0  0  0
  128.1410  126.9010   72.0600 C   0  0  0  0  0  0  0  0  0  0  0  0
  127.5130  127.6360   73.2620 C   0  0  0  0  0  0  0  0  0  0  0  0
  128.4850  128.4500   73.8960 O   0  0  0  0  0  0  0  0  0  0  0  0
  128.9970  129.4320   73.0100 C   0  0  0  0  0  0  0  0  0  0  0  0
  129.6710  128.7540   71.7980 C   0  0  0  0  0  0  0  0  0  0  0  0
  128.5320  126.2260   69.2500 C   0  0  0  0  0  0  0  0  0  0  0  0
  128.8910  125.7580   67.9890 C   0  0  0  0  0  0  0  0  0  0  0  0
  129.3590  125.8090   64.8450 C   0  0  0  0  0  0  0  0  0  0  0  0
  129.7450  125.3470   63.5810 C   0  0  0  0  0  0  0  0  0  0  0  0
  128.7150  125.2440   62.5130 C   0  0  0  0  0  0  0  0  0  0  0  0
  128.2170  126.3910   61.8900 C   0  0  0  0  0  0  0  0  0  0  0  0
  127.2660  126.2880   60.8780 C   0  0  0  0  0  0  0  0  0  0  0  0
  126.8010  125.0340   60.4510 C   0  0  0  0  0  0  0  0  0  0  0  0
  125.8410  124.9050   59.4440 N   0  0  0  0  0  0  0  0  0  0  0  0
  126.0850  125.5400   58.1350 C   0  0  0  0  0  0  0  0  0  0  0  0
  125.1640  125.0050   57.0170 C   0  0  0  0  0  0  0  0  0  0  0  0
  123.8040  125.1420   57.4020 O   0  0  0  0  0  0  0  0  0  0  0  0
  123.5200  124.4190   58.5910 C   0  0  0  0  0  0  0  0  0  0  0  0
  124.3980  124.9440   59.7470 C   0  0  0  0  0  0  0  0  0  0  0  0
  127.3080  123.8900   61.0850 C   0  0  0  0  0  0  0  0  0  0  0  0
  128.2560  123.9940   62.0980 C   0  0  0  0  0  0  0  0  0  0  0  0
  131.1120  125.0010   63.3910 C   0  0  0  0  0  0  0  0  0  0  0  0
  131.8660  124.5600   62.2470 C   0  0  0  0  0  0  0  0  0  0  0  0
  131.3130  124.4160   61.0010 N   0  0  0  0  0  0  0  0  0  0  0  0
  134.4929  124.5188   59.1976 H   0  0  0  0  0  0  0  0  0  0  0  0
  134.6382  122.8010   58.6929 H   0  0  0  0  0  0  0  0  0  0  0  0
  133.0315  123.6043   58.6929 H   0  0  0  0  0  0  0  0  0  0  0  0
  131.3166  128.0211   67.2392 H   0  0  0  0  0  0  0  0  0  0  0  0
  130.6914  128.8455   69.4875 H   0  0  0  0  0  0  0  0  0  0  0  0
  127.3466  126.3461   71.5394 H   0  0  0  0  0  0  0  0  0  0  0  0
  128.9229  126.2399   72.4621 H   0  0  0  0  0  0  0  0  0  0  0  0
  126.6835  128.2668   72.9100 H   0  0  0  0  0  0  0  0  0  0  0  0
  127.1386  126.8941   73.9827 H   0  0  0  0  0  0  0  0  0  0  0  0
  128.1726  130.0696   72.6581 H   0  0  0  0  0  0  0  0  0  0  0  0
  129.7422  130.0424   73.5412 H   0  0  0  0  0  0  0  0  0  0  0  0
  129.9784  129.5369   71.0891 H   0  0  0  0  0  0  0  0  0  0  0  0
  130.5248  128.1791   72.1860 H   0  0  0  0  0  0  0  0  0  0  0  0
  127.7468  125.7042   69.8168 H   0  0  0  0  0  0  0  0  0  0  0  0
  128.3819  124.8764   67.5724 H   0  0  0  0  0  0  0  0  0  0  0  0
  128.3140  126.1049   65.0191 H   0  0  0  0  0  0  0  0  0  0  0  0
  128.5786  127.3822   62.2010 H   0  0  0  0  0  0  0  0  0  0  0  0
  126.8739  127.2014   60.4068 H   0  0  0  0  0  0  0  0  0  0  0  0
  125.9196  126.6228   58.2357 H   0  0  0  0  0  0  0  0  0  0  0  0
  127.1199  125.3046   57.8459 H   0  0  0  0  0  0  0  0  0  0  0  0
  125.3409  125.5770   56.0942 H   0  0  0  0  0  0  0  0  0  0  0  0
  125.3854  123.9414   56.8444 H   0  0  0  0  0  0  0  0  0  0  0  0
  122.4590  124.5474   58.8514 H   0  0  0  0  0  0  0  0  0  0  0  0
  123.7361  123.3529   58.4272 H   0  0  0  0  0  0  0  0  0  0  0  0
  124.1129  125.9853   59.9576 H   0  0  0  0  0  0  0  0  0  0  0  0
  124.2275  124.2862   60.6120 H   0  0  0  0  0  0  0  0  0  0  0  0
  126.9509  122.8963   60.7768 H   0  0  0  0  0  0  0  0  0  0  0  0
  128.6466  123.0832   62.5754 H   0  0  0  0  0  0  0  0  0  0  0  0
  130.4360  124.8520   60.7540 H   0  0  0  0  0  0  0  0  0  0  0  0
  131.7680  123.8700   60.2820 H   0  0  0  0  0  0  0  0  0  0  0  0
  1  2  1  0
  2  3  1  0
  3  4  2  0
  3  5  1  0
  5  6  1  0
  6  7  1  0
  7  8  2  0
  8  9  1  0
  9 10  1  0
 10 11  2  0
 11 12  1  0
 12 13  2  0
 13 14  1  0
 14 15  1  0
 15 16  1  0
 16 17  1  0
 17 18  1  0
 18 19  1  0
 13 20  1  0
 20 21  2  0
  9 22  2  0
 22 23  1  0
 23 24  1  0
 24 25  2  0
 25 26  1  0
 26 27  2  0
 27 28  1  0
 28 29  1  0
 29 30  1  0
 30 31  1  0
 31 32  1  0
 32 33  1  0
 27 34  1  0
 34 35  2  0
 23 36  2  0
 36 37  1  0
 37 38  1  0
 37  5  2  0
 36  7  1  0
 21 10  1  0
 35 24  1  0
 19 14  1  0
 33 28  1  0
  1 39  1  0
  1 40  1  0
  1 41  1  0
 11 42  1  0
 12 43  1  0
 15 44  1  0
 15 45  1  0
 16 46  1  0
 16 47  1  0
 18 48  1  0
 18 49  1  0
 19 50  1  0
 19 51  1  0
 20 52  1  0
 21 53  1  0
 22 54  1  0
 25 55  1  0
 26 56  1  0
 29 57  1  0
 29 58  1  0
 30 59  1  0
 30 60  1  0
 32 61  1  0
 32 62  1  0
 33 63  1  0
 33 64  1  0
 34 65  1  0
 35 66  1  0
 38 67  1  0
 38 68  1  0
M  END
>  <Binding energies>  (1) 
[-8.35]

>  <Ligand effiencies>  (1) 
[-0.20875]

>  <Interactions>  (1) 
["V-B:TYR:539:CE2:9845, V-A:HIS:456:CE1:4066, V-B:TYR:539:CZ:9846, V-A:GLY:453:C:4038, V-A:ARG:545:CZ:4923, V-A:GLY:453:CA:4040, V-B:ALA:541:CB:9861, H-A:GLY:454:N:4046, H-A:TYR:484:OH:4344, V-A:GLY:454:CA:4045, V-B:PRO:540:CB:9854, V-A:ASP:366:CG:3209, V-B:HIS:456:CD2:9036, V-A:GLU:543:CB:4903, V-A:LYS:547:CE:4947, H-A:LYS:547:NZ:4948, V-B:LYS:547:CE:9919, V-B:GLU:543:CB:9875, V-B:GLU:543:CD:9877, V-A:GLU:543:C:4899, V-B:HIS:456:CE1:9038, V-B:GLU:543:CG:9876, V-A:ILE:369:CB:3232, V-B:LEU:363:CA:8153, V-A:ILE:369:CG2:3233, V-A:ILE:369:CG1:3234, H-B:TYR:539:OH:9847, V-A:ASP:366:CB:3208, V-B:MET:535:CE:9804, V-B:GLU:543:C:9871, V-B:LEU:363:CD1:8157, V-B:TYR:531:CE2:9762, V-B:TYR:531:CZ:9763, H-B:TYR:531:OH:9764, V-B:LEU:363:CB:8155, V-B:ASP:366:CG:8181, V-A:ASP:366:CA:3206, V-A:ASP:366:C:3204"]

$$$$
RR10_Rahimova_2017
     RDKit          3D

 66 70  0  0  0  0  0  0  0  0999 V2000
  124.5640  132.7830   60.5340 C   0  0  0  0  0  0  0  0  0  0  0  0
  125.0100  132.1440   59.2080 C   0  0  1  0  0  0  0  0  0  0  0  0
  126.3890  131.4540   59.3340 C   0  0  0  0  0  0  0  0  0  0  0  0
  126.8320  130.8500   57.9820 C   0  0  0  0  0  0  0  0  0  0  0  0
  125.8020  129.8300   57.4330 C   0  0  1  0  0  0  0  0  0  0  0  0
  125.7620  128.6260   58.2740 N   0  0  0  0  0  0  0  0  0  0  0  0
  126.4310  127.4840   58.0340 C   0  0  0  0  0  0  0  0  0  0  0  0
  127.1840  127.3370   57.0680 O   0  0  0  0  0  0  0  0  0  0  0  0
  126.2080  126.3260   59.0300 C   0  0  1  0  0  0  0  0  0  0  0  0
  124.7810  125.7500   58.8370 C   0  0  0  0  0  0  0  0  0  0  0  0
  124.5860  124.5300   59.7690 C   0  0  0  0  0  0  0  0  0  0  0  0
  125.7120  123.4820   59.6170 C   0  0  0  0  0  0  0  0  0  0  0  0
  127.0480  124.1250   59.7510 N   0  0  0  0  0  0  0  0  0  0  0  0
  128.3980  122.9860   59.8920 S   0  0  0  0  0  0  0  0  0  0  0  0
  129.4310  123.3810   58.9270 O   0  0  0  0  0  0  0  0  0  0  0  0
  127.8460  121.6260   59.8690 O   0  0  0  0  0  0  0  0  0  0  0  0
  129.0820  123.2760   61.5250 C   0  0  0  0  0  0  0  0  0  0  0  0
  129.9530  122.3320   62.0790 C   0  0  0  0  0  0  0  0  0  0  0  0
  130.5180  122.4970   63.3470 C   0  0  0  0  0  0  0  0  0  0  0  0
  130.1700  123.6600   64.0390 C   0  0  0  0  0  0  0  0  0  0  0  0
  130.4990  124.1690   65.2730 N   0  0  0  0  0  0  0  0  0  0  0  0
  129.8440  125.3740   65.4240 C   0  0  0  0  0  0  0  0  0  0  0  0
  129.9490  126.2280   66.6550 C   0  0  0  0  0  0  0  0  0  0  0  0
  130.9590  127.1940   66.7630 C   0  0  0  0  0  0  0  0  0  0  0  0
  131.0560  127.9900   67.9020 C   0  0  0  0  0  0  0  0  0  0  0  0
  130.1430  127.8220   68.9400 C   0  0  0  0  0  0  0  0  0  0  0  0
  129.1340  126.8670   68.8480 C   0  0  0  0  0  0  0  0  0  0  0  0
  129.0390  126.0720   67.7090 C   0  0  0  0  0  0  0  0  0  0  0  0
  129.1200  125.6770   64.3690 N   0  0  0  0  0  0  0  0  0  0  0  0
  129.2990  124.6350   63.4970 C   0  0  0  0  0  0  0  0  0  0  0  0
  128.7490  124.4440   62.2210 C   0  0  0  0  0  0  0  0  0  0  0  0
  127.2730  125.2300   58.7850 C   0  0  0  0  0  0  0  0  0  0  0  0
  124.4200  130.5300   57.3270 C   0  0  0  0  0  0  0  0  0  0  0  0
  123.9700  131.1290   58.6790 C   0  0  0  0  0  0  0  0  0  0  0  0
  124.9694  132.2021   61.3756 H   0  0  0  0  0  0  0  0  0  0  0  0
  124.9383  133.8160   60.5874 H   0  0  0  0  0  0  0  0  0  0  0  0
  123.4653  132.7879   60.5874 H   0  0  0  0  0  0  0  0  0  0  0  0
  125.0955  132.9690   58.4855 H   0  0  0  0  0  0  0  0  0  0  0  0
  127.1340  132.1956   59.6580 H   0  0  0  0  0  0  0  0  0  0  0  0
  126.3082  130.6415   60.0710 H   0  0  0  0  0  0  0  0  0  0  0  0
  126.9491  131.6639   57.2514 H   0  0  0  0  0  0  0  0  0  0  0  0
  127.7815  130.3187   58.1435 H   0  0  0  0  0  0  0  0  0  0  0  0
  126.0976  129.4916   56.4290 H   0  0  0  0  0  0  0  0  0  0  0  0
  125.0850  128.6350   59.0230 H   0  0  0  0  0  0  0  0  0  0  0  0
  126.3054  126.6925   60.0626 H   0  0  0  0  0  0  0  0  0  0  0  0
  124.0375  126.5223   59.0837 H   0  0  0  0  0  0  0  0  0  0  0  0
  124.6509  125.4363   57.7907 H   0  0  0  0  0  0  0  0  0  0  0  0
  124.5698  124.8815   60.8112 H   0  0  0  0  0  0  0  0  0  0  0  0
  123.6387  124.0451   59.4905 H   0  0  0  0  0  0  0  0  0  0  0  0
  125.5999  122.7152   60.3977 H   0  0  0  0  0  0  0  0  0  0  0  0
  125.6375  123.0236   58.6198 H   0  0  0  0  0  0  0  0  0  0  0  0
  130.2012  121.4312   61.4985 H   0  0  0  0  0  0  0  0  0  0  0  0
  131.2011  121.7501   63.7776 H   0  0  0  0  0  0  0  0  0  0  0  0
  131.1020  123.7720   65.9790 H   0  0  0  0  0  0  0  0  0  0  0  0
  131.6800  127.3244   65.9426 H   0  0  0  0  0  0  0  0  0  0  0  0
  131.8497  128.7474   67.9811 H   0  0  0  0  0  0  0  0  0  0  0  0
  130.2196  128.4492   69.8404 H   0  0  0  0  0  0  0  0  0  0  0  0
  128.4154  126.7412   69.6713 H   0  0  0  0  0  0  0  0  0  0  0  0
  128.2436  125.3157   67.6360 H   0  0  0  0  0  0  0  0  0  0  0  0
  128.0742  125.1919   61.7791 H   0  0  0  0  0  0  0  0  0  0  0  0
  128.2785  125.6512   58.9317 H   0  0  0  0  0  0  0  0  0  0  0  0
  127.1916  124.8510   57.7556 H   0  0  0  0  0  0  0  0  0  0  0  0
  124.4876  131.3391   56.5848 H   0  0  0  0  0  0  0  0  0  0  0  0
  123.6787  129.7752   57.0258 H   0  0  0  0  0  0  0  0  0  0  0  0
  123.0054  131.6399   58.5430 H   0  0  0  0  0  0  0  0  0  0  0  0
  123.8735  130.3125   59.4097 H   0  0  0  0  0  0  0  0  0  0  0  0
  1  2  1  0
  2  3  1  0
  3  4  1  0
  4  5  1  0
  5  6  1  0
  6  7  1  0
  7  8  2  0
  7  9  1  0
  9 10  1  0
 10 11  1  0
 11 12  1  0
 12 13  1  0
 13 14  1  0
 14 15  2  0
 14 16  2  0
 14 17  1  0
 17 18  2  0
 18 19  1  0
 19 20  2  0
 20 21  1  0
 21 22  1  0
 22 23  1  0
 23 24  2  0
 24 25  1  0
 25 26  2  0
 26 27  1  0
 27 28  2  0
 22 29  2  0
 29 30  1  0
 30 31  2  0
 13 32  1  0
  5 33  1  0
 33 34  1  0
 34  2  1  0
 32  9  1  0
 31 17  1  0
 30 20  1  0
 28 23  1  0
  1 35  1  0
  1 36  1  0
  1 37  1  0
  2 38  1  6
  3 39  1  0
  3 40  1  0
  4 41  1  0
  4 42  1  0
  5 43  1  6
  6 44  1  0
  9 45  1  1
 10 46  1  0
 10 47  1  0
 11 48  1  0
 11 49  1  0
 12 50  1  0
 12 51  1  0
 18 52  1  0
 19 53  1  0
 21 54  1  0
 24 55  1  0
 25 56  1  0
 26 57  1  0
 27 58  1  0
 28 59  1  0
 31 60  1  0
 32 61  1  0
 32 62  1  0
 33 63  1  0
 33 64  1  0
 34 65  1  0
 34 66  1  0
M  END
>  <Binding energies>  (1) 
[-9.86]

>  <Ligand effiencies>  (1) 
[-0.27388888888888885]

>  <Interactions>  (1) 
["H-B:ALA:541:N:9860, V-A:HIS:456:CE1:4066, V-B:PRO:540:CA:9852, V-A:ARG:545:CG:4919, V-B:ALA:541:CB:9861, H-A:TYR:484:OH:4344, V-B:PRO:540:CB:9854, V-A:TYR:484:CE1:4341, V-A:GLU:543:CB:4903, V-B:GLU:543:CB:9875, V-B:GLU:543:CD:9877, V-A:GLU:543:C:4899, V-A:TYR:484:CZ:4343, V-B:GLU:543:CG:9876, V-A:GLU:543:CD:4905, V-A:LEU:475:CD1:4254, H-B:TYR:539:OH:9847, H-B:ASP:366:OD1:8182, V-B:TYR:531:CZ:9763, H-B:TYR:531:OH:9764, V-B:ASP:366:CG:8181, V-B:ASP:366:CB:8180, H-B:ASP:366:OD2:8183, V-A:TYR:539:CE2:4873, V-B:ASP:366:CA:8178, V-B:ILE:369:CD1:8207, V-B:ASP:366:C:8176, V-B:ILE:369:CG2:8205, V-B:ILE:369:CB:8204"]

$$$$
RR11_Rahimova_2017
     RDKit          3D

 55 60  0  0  0  0  0  0  0  0999 V2000
  129.4570  128.0690   69.9760 N   0  0  0  0  0  0  0  0  0  0  0  0
  129.8270  127.4490   68.7840 C   0  0  0  0  0  0  0  0  0  0  0  0
  129.1740  126.2890   68.3740 C   0  0  0  0  0  0  0  0  0  0  0  0
  129.5430  125.6720   67.1820 C   0  0  0  0  0  0  0  0  0  0  0  0
  130.5670  126.2080   66.3900 C   0  0  0  0  0  0  0  0  0  0  0  0
  130.9590  125.5460   65.1030 C   0  0  0  0  0  0  0  0  0  0  0  0
  131.2700  126.1900   63.9990 N   0  0  0  0  0  0  0  0  0  0  0  0
  131.5730  125.2170   63.0840 C   0  0  0  0  0  0  0  0  0  0  0  0
  131.9770  125.3510   61.7490 C   0  0  0  0  0  0  0  0  0  0  0  0
  132.2490  124.1900   61.0160 C   0  0  0  0  0  0  0  0  0  0  0  0
  132.6840  124.3040   59.5610 C   0  0  0  0  0  0  0  0  0  0  0  0
  131.7880  125.2250   58.7440 C   0  0  0  0  0  0  0  0  0  0  0  0
  132.0290  125.3830   57.3750 C   0  0  0  0  0  0  0  0  0  0  0  0
  131.2300  126.2090   56.5820 C   0  0  0  0  0  0  0  0  0  0  0  0
  130.1620  126.8800   57.1940 C   0  0  0  0  0  0  0  0  0  0  0  0
  129.2490  127.7410   56.6440 N   0  0  0  0  0  0  0  0  0  0  0  0
  128.4640  128.0960   57.6390 C   0  0  0  0  0  0  0  0  0  0  0  0
  127.3130  129.0530   57.5120 C   0  0  0  0  0  0  0  0  0  0  0  0
  127.4530  130.2400   56.7820 C   0  0  0  0  0  0  0  0  0  0  0  0
  126.3900  131.1320   56.6740 C   0  0  0  0  0  0  0  0  0  0  0  0
  125.1770  130.8430   57.2950 C   0  0  0  0  0  0  0  0  0  0  0  0
  124.1130  131.7380   57.1910 N   0  0  0  0  0  0  0  0  0  0  0  0
  125.0220  129.6650   58.0210 C   0  0  0  0  0  0  0  0  0  0  0  0
  126.0860  128.7730   58.1290 C   0  0  0  0  0  0  0  0  0  0  0  0
  128.8260  127.4910   58.8230 N   0  0  0  0  0  0  0  0  0  0  0  0
  129.9230  126.6990   58.5770 C   0  0  0  0  0  0  0  0  0  0  0  0
  130.7160  125.8700   59.3740 C   0  0  0  0  0  0  0  0  0  0  0  0
  132.0960  122.9260   61.5980 C   0  0  0  0  0  0  0  0  0  0  0  0
  131.6910  122.7590   62.9250 C   0  0  0  0  0  0  0  0  0  0  0  0
  131.4380  123.9260   63.6490 C   0  0  0  0  0  0  0  0  0  0  0  0
  131.0410  124.1780   64.9420 N   0  0  0  0  0  0  0  0  0  0  0  0
  131.2160  127.3750   66.8160 C   0  0  0  0  0  0  0  0  0  0  0  0
  130.8480  127.9940   68.0070 C   0  0  0  0  0  0  0  0  0  0  0  0
  129.0330  127.5200   70.7110 H   0  0  0  0  0  0  0  0  0  0  0  0
  129.6530  129.0510   70.1070 H   0  0  0  0  0  0  0  0  0  0  0  0
  128.3692  125.8618   68.9903 H   0  0  0  0  0  0  0  0  0  0  0  0
  129.0264  124.7561   66.8592 H   0  0  0  0  0  0  0  0  0  0  0  0
  132.0780  126.3447   61.2881 H   0  0  0  0  0  0  0  0  0  0  0  0
  133.7109  124.6971   59.5317 H   0  0  0  0  0  0  0  0  0  0  0  0
  132.6167  123.2998   59.1172 H   0  0  0  0  0  0  0  0  0  0  0  0
  132.8684  124.8434   56.9121 H   0  0  0  0  0  0  0  0  0  0  0  0
  131.4328  126.3298   55.5076 H   0  0  0  0  0  0  0  0  0  0  0  0
  128.4100  130.4690   56.2904 H   0  0  0  0  0  0  0  0  0  0  0  0
  126.5075  132.0628   56.0997 H   0  0  0  0  0  0  0  0  0  0  0  0
  123.8660  132.3120   57.9860 H   0  0  0  0  0  0  0  0  0  0  0  0
  123.6240  131.8280   56.3120 H   0  0  0  0  0  0  0  0  0  0  0  0
  124.0617  129.4396   58.5079 H   0  0  0  0  0  0  0  0  0  0  0  0
  125.9627  127.8424   58.7024 H   0  0  0  0  0  0  0  0  0  0  0  0
  128.3410  127.6430   59.6950 H   0  0  0  0  0  0  0  0  0  0  0  0
  130.5085  125.7304   60.4452 H   0  0  0  0  0  0  0  0  0  0  0  0
  132.3018  122.0330   60.9895 H   0  0  0  0  0  0  0  0  0  0  0  0
  131.5776  121.7617   63.3751 H   0  0  0  0  0  0  0  0  0  0  0  0
  130.8370  123.5190   65.6780 H   0  0  0  0  0  0  0  0  0  0  0  0
  132.0226  127.8051   66.2041 H   0  0  0  0  0  0  0  0  0  0  0  0
  131.3612  128.9103   68.3341 H   0  0  0  0  0  0  0  0  0  0  0  0
  1  2  1  0
  2  3  2  0
  3  4  1  0
  4  5  2  0
  5  6  1  0
  6  7  2  0
  7  8  1  0
  8  9  2  0
  9 10  1  0
 10 11  1  0
 11 12  1  0
 12 13  2  0
 13 14  1  0
 14 15  2  0
 15 16  1  0
 16 17  2  0
 17 18  1  0
 18 19  2  0
 19 20  1  0
 20 21  2  0
 21 22  1  0
 21 23  1  0
 23 24  2  0
 17 25  1  0
 25 26  1  0
 26 27  2  0
 10 28  2  0
 28 29  1  0
 29 30  2  0
 30 31  1  0
  5 32  1  0
 32 33  2  0
 33  2  1  0
 31  6  1  0
 30  8  1  0
 27 12  1  0
 26 15  1  0
 24 18  1  0
  1 34  1  0
  1 35  1  0
  3 36  1  0
  4 37  1  0
  9 38  1  0
 11 39  1  0
 11 40  1  0
 13 41  1  0
 14 42  1  0
 19 43  1  0
 20 44  1  0
 22 45  1  0
 22 46  1  0
 23 47  1  0
 24 48  1  0
 25 49  1  0
 27 50  1  0
 28 51  1  0
 29 52  1  0
 31 53  1  0
 32 54  1  0
 33 55  1  0
M  END
>  <Binding energies>  (1) 
[-6.79]

>  <Ligand effiencies>  (1) 
[-0.1741025641025641]

>  <Interactions>  (1) 
["V-B:TYR:539:CE2:9845, V-A:HIS:456:CE1:4066, V-B:TYR:539:CZ:9846, V-A:ARG:545:CG:4919, H-A:TYR:484:OH:4344, V-A:ASP:366:CG:3209, V-A:TYR:484:CE1:4341, V-B:HIS:456:CD2:9036, V-A:GLU:543:CB:4903, V-B:GLU:543:CB:9875, V-A:GLU:543:C:4899, V-B:HIS:456:CE1:9038, V-A:TYR:484:CZ:4343, V-A:GLU:543:CD:4905, H-A:ARG:545:NH2:4925, V-A:LEU:475:CD1:4254, V-A:ASP:366:CB:3208, V-B:ASP:366:CG:8181, V-B:ASP:366:CB:8180, V-A:TYR:539:CE2:4873, V-A:ASP:366:CA:3206, H-A:GLU:543:O:4900, H-B:HIS:456:NE2:9039, V-A:TYR:539:CZ:4874, V-B:ILE:369:CG2:8205, H-A:TYR:539:OH:4875, H-B:ASP:366:O:8177"]

$$$$
RR11_Rahimova_2017-again1
     RDKit          3D

 56 61  0  0  0  0  0  0  0  0999 V2000
  126.2030  121.7910   56.5920 N   0  0  0  0  0  0  0  0  0  0  0  0
  126.4100  123.1130   56.9840 C   0  0  0  0  0  0  0  0  0  0  0  0
  125.4840  124.0940   56.6350 C   0  0  0  0  0  0  0  0  0  0  0  0
  125.6940  125.4150   57.0250 C   0  0  0  0  0  0  0  0  0  0  0  0
  126.8310  125.7650   57.7650 C   0  0  0  0  0  0  0  0  0  0  0  0
  127.0610  127.1900   58.1770 C   0  0  0  0  0  0  0  0  0  0  0  0
  127.8210  128.0390   57.5210 N   0  0  0  0  0  0  0  0  0  0  0  0
  127.7700  129.2030   58.2430 C   0  0  0  0  0  0  0  0  0  0  0  0
  128.4020  130.4290   57.9960 C   0  0  0  0  0  0  0  0  0  0  0  0
  128.1970  131.4700   58.9030 C   0  0  0  0  0  0  0  0  0  0  0  0
  127.3880  131.3090   60.0330 C   0  0  0  0  0  0  0  0  0  0  0  0
  127.2020  132.4760   60.9930 C   0  0  0  0  0  0  0  0  0  0  0  0
  127.2400  132.0470   62.4530 C   0  0  0  0  0  0  0  0  0  0  0  0
  126.7960  132.9290   63.4440 C   0  0  0  0  0  0  0  0  0  0  0  0
  126.8090  132.5920   64.8000 C   0  0  0  0  0  0  0  0  0  0  0  0
  127.2870  131.3190   65.1240 C   0  0  0  0  0  0  0  0  0  0  0  0
  127.4480  130.6730   66.3430 N   0  0  0  0  0  0  0  0  0  0  0  0
  127.9690  129.4150   66.1460 C   0  0  0  0  0  0  0  0  0  0  0  0
  128.3070  128.4080   67.1970 C   0  0  0  0  0  0  0  0  0  0  0  0
  127.5620  127.2280   67.3040 C   0  0  0  0  0  0  0  0  0  0  0  0
  127.8780  126.2820   68.2760 C   0  0  0  0  0  0  0  0  0  0  0  0
  128.9420  126.5130   69.1460 C   0  0  0  0  0  0  0  0  0  0  0  0
  129.2600  125.5630   70.1160 N   0  0  0  0  0  0  0  0  0  0  0  0
  129.6900  127.6850   69.0490 C   0  0  0  0  0  0  0  0  0  0  0  0
  129.3730  128.6300   68.0770 C   0  0  0  0  0  0  0  0  0  0  0  0
  128.1270  129.2700   64.7870 N   0  0  0  0  0  0  0  0  0  0  0  0
  127.7210  130.4240   64.1330 C   0  0  0  0  0  0  0  0  0  0  0  0
  127.6990  130.7640   62.7780 C   0  0  0  0  0  0  0  0  0  0  0  0
  126.7260  130.1000   60.2890 C   0  0  0  0  0  0  0  0  0  0  0  0
  126.9420  129.0600   59.3820 C   0  0  0  0  0  0  0  0  0  0  0  0
  126.5010  127.7600   59.3010 N   0  0  0  0  0  0  0  0  0  0  0  0
  127.7540  124.7680   58.1090 C   0  0  0  0  0  0  0  0  0  0  0  0
  127.5440  123.4470   57.7210 C   0  0  0  0  0  0  0  0  0  0  0  0
  125.2950  121.5110   56.2520 H   0  0  0  0  0  0  0  0  0  0  0  0
  126.9510  121.1210   56.6920 H   0  0  0  0  0  0  0  0  0  0  0  0
  124.5897  123.8262   56.0532 H   0  0  0  0  0  0  0  0  0  0  0  0
  124.9619  126.1886   56.7500 H   0  0  0  0  0  0  0  0  0  0  0  0
  129.0418  130.5672   57.1120 H   0  0  0  0  0  0  0  0  0  0  0  0
  128.6833  132.4405   58.7250 H   0  0  0  0  0  0  0  0  0  0  0  0
  128.0064  133.2060   60.8196 H   0  0  0  0  0  0  0  0  0  0  0  0
  126.2100  132.9104   60.7999 H   0  0  0  0  0  0  0  0  0  0  0  0
  126.4244  133.9205   63.1459 H   0  0  0  0  0  0  0  0  0  0  0  0
  126.4608  133.2928   65.5731 H   0  0  0  0  0  0  0  0  0  0  0  0
  127.2370  131.0340   67.2620 H   0  0  0  0  0  0  0  0  0  0  0  0
  126.7224  127.0468   66.6167 H   0  0  0  0  0  0  0  0  0  0  0  0
  127.2900  125.3559   68.3568 H   0  0  0  0  0  0  0  0  0  0  0  0
  129.0460  124.5900   69.9490 H   0  0  0  0  0  0  0  0  0  0  0  0
  129.6750  125.8610   70.9870 H   0  0  0  0  0  0  0  0  0  0  0  0
  130.5284  127.8628   69.7385 H   0  0  0  0  0  0  0  0  0  0  0  0
  129.9628  129.5553   68.0001 H   0  0  0  0  0  0  0  0  0  0  0  0
  128.4960  128.4260   64.3750 H   0  0  0  0  0  0  0  0  0  0  0  0
  128.0270  130.0567   62.0020 H   0  0  0  0  0  0  0  0  0  0  0  0
  126.0683  129.9764   61.1620 H   0  0  0  0  0  0  0  0  0  0  0  0
  125.8880  127.2610   59.9290 H   0  0  0  0  0  0  0  0  0  0  0  0
  128.6506  125.0307   58.6895 H   0  0  0  0  0  0  0  0  0  0  0  0
  128.2718  122.6693   57.9958 H   0  0  0  0  0  0  0  0  0  0  0  0
  1  2  1  0
  2  3  2  0
  3  4  1  0
  4  5  2  0
  5  6  1  0
  6  7  2  0
  7  8  1  0
  8  9  2  0
  9 10  1  0
 10 11  2  0
 11 12  1  0
 12 13  1  0
 13 14  2  0
 14 15  1  0
 15 16  2  0
 16 17  1  0
 17 18  1  0
 18 19  1  0
 19 20  2  0
 20 21  1  0
 21 22  2  0
 22 23  1  0
 22 24  1  0
 24 25  2  0
 18 26  2  0
 26 27  1  0
 27 28  2  0
 11 29  1  0
 29 30  2  0
 30 31  1  0
  5 32  1  0
 32 33  2  0
 33  2  1  0
 31  6  1  0
 30  8  1  0
 28 13  1  0
 27 16  1  0
 25 19  1  0
  1 34  1  0
  1 35  1  0
  3 36  1  0
  4 37  1  0
  9 38  1  0
 10 39  1  0
 12 40  1  0
 12 41  1  0
 14 42  1  0
 15 43  1  0
 17 44  1  0
 20 45  1  0
 21 46  1  0
 23 47  1  0
 23 48  1  0
 24 49  1  0
 25 50  1  0
 26 51  1  0
 28 52  1  0
 29 53  1  0
 31 54  1  0
 32 55  1  0
 33 56  1  0
M  CHG  1  26   1
M  END
>  <Binding energies>  (1) 
[-7.33]

>  <Ligand effiencies>  (1) 
[-0.18325]

>  <Interactions>  (1) 
["V-B:TYR:539:CA:9838, V-A:HIS:456:CE1:4066, V-B:PRO:540:CA:9852, V-B:TYR:539:C:9836, V-B:PRO:540:N:9853, V-B:PRO:540:CB:9854, V-A:GLU:543:CB:4903, V-B:GLU:543:CB:9875, V-B:GLU:543:CD:9877, V-A:GLU:543:C:4899, V-B:HIS:456:CE1:9038, V-A:GLU:543:CD:4905, H-B:TYR:539:O:9837, H-A:GLU:543:OE2:4907, H-A:GLU:543:OE1:4906, H-B:TYR:484:OH:9316, V-A:GLU:543:CG:4904, V-B:PRO:540:CD:9856, V-B:MET:535:CE:9804, V-A:HIS:456:CD2:4064, V-B:GLU:543:C:9871, H-B:ASP:366:OD1:8182, H-B:GLU:543:OE1:9878, V-B:LEU:363:CD1:8157, V-B:TYR:531:CZ:9763, V-B:ASP:366:CG:8181, V-A:ALA:541:CB:4889, V-B:TYR:484:CE1:9313, V-B:TYR:484:CZ:9315, V-B:ILE:538:CB:9831, V-B:LEU:475:CD2:9227, H-A:HIS:456:NE2:4067, H-B:GLU:543:O:9872, H-B:HIS:456:NE2:9039, V-A:GLU:543:CA:4901, V-B:ILE:538:CA:9829, V-B:PRO:540:CG:9855"]

$$$$
RR11_Rahimova_2017-again2
     RDKit          3D

 57 62  0  0  0  0  0  0  0  0999 V2000
  127.5540  121.7120   56.8170 N   0  0  0  0  0  0  0  0  0  0  0  0
  127.4040  123.0490   57.1810 C   0  0  0  0  0  0  0  0  0  0  0  0
  128.5290  123.8290   57.4390 C   0  0  0  0  0  0  0  0  0  0  0  0
  128.3790  125.1630   57.8080 C   0  0  0  0  0  0  0  0  0  0  0  0
  127.1010  125.7250   57.9200 C   0  0  0  0  0  0  0  0  0  0  0  0
  126.9390  127.1540   58.3250 C   0  0  0  0  0  0  0  0  0  0  0  0
  126.6000  127.6220   59.5750 N   0  0  0  0  0  0  0  0  0  0  0  0
  126.5660  129.0100   59.5700 C   0  0  0  0  0  0  0  0  0  0  0  0
  126.2890  129.9360   60.5790 C   0  0  0  0  0  0  0  0  0  0  0  0
  126.3620  131.2920   60.2350 C   0  0  0  0  0  0  0  0  0  0  0  0
  126.0760  132.3480   61.2930 C   0  0  0  0  0  0  0  0  0  0  0  0
  126.5980  131.9610   62.6700 C   0  0  0  0  0  0  0  0  0  0  0  0
  126.9800  132.9630   63.5700 C   0  0  0  0  0  0  0  0  0  0  0  0
  127.4670  132.6680   64.8460 C   0  0  0  0  0  0  0  0  0  0  0  0
  127.5510  131.3170   65.1880 C   0  0  0  0  0  0  0  0  0  0  0  0
  127.9880  130.6810   66.3420 N   0  0  0  0  0  0  0  0  0  0  0  0
  127.8830  129.3170   66.2000 C   0  0  0  0  0  0  0  0  0  0  0  0
  128.2650  128.2780   67.2040 C   0  0  0  0  0  0  0  0  0  0  0  0
  129.5130  128.3300   67.8340 C   0  0  0  0  0  0  0  0  0  0  0  0
  129.8660  127.3680   68.7780 C   0  0  0  0  0  0  0  0  0  0  0  0
  128.9700  126.3490   69.0950 C   0  0  0  0  0  0  0  0  0  0  0  0
  129.3200  125.3880   70.0440 N   0  0  0  0  0  0  0  0  0  0  0  0
  127.7250  126.2840   68.4700 C   0  0  0  0  0  0  0  0  0  0  0  0
  127.3740  127.2470   67.5280 C   0  0  0  0  0  0  0  0  0  0  0  0
  127.3660  129.0970   64.9450 N   0  0  0  0  0  0  0  0  0  0  0  0
  127.1550  130.3070   64.2960 C   0  0  0  0  0  0  0  0  0  0  0  0
  126.6630  130.6060   63.0230 C   0  0  0  0  0  0  0  0  0  0  0  0
  126.6710  131.6910   58.9290 C   0  0  0  0  0  0  0  0  0  0  0  0
  126.9430  130.7700   57.9140 C   0  0  0  0  0  0  0  0  0  0  0  0
  126.8880  129.4190   58.2660 C   0  0  0  0  0  0  0  0  0  0  0  0
  127.1090  128.2620   57.5280 N   0  0  0  0  0  0  0  0  0  0  0  0
  125.9770  124.9340   57.6540 C   0  0  0  0  0  0  0  0  0  0  0  0
  126.1270  123.6000   57.2850 C   0  0  0  0  0  0  0  0  0  0  0  0
  128.4080  121.2270   57.0490 H   0  0  0  0  0  0  0  0  0  0  0  0
  126.8350  121.2610   56.2690 H   0  0  0  0  0  0  0  0  0  0  0  0
  129.5344  123.3915   57.3513 H   0  0  0  0  0  0  0  0  0  0  0  0
  129.2678  125.7781   58.0124 H   0  0  0  0  0  0  0  0  0  0  0  0
  126.4200  127.0050   60.3520 H   0  0  0  0  0  0  0  0  0  0  0  0
  126.0255  129.6147   61.5975 H   0  0  0  0  0  0  0  0  0  0  0  0
  126.5550  133.2900   60.9877 H   0  0  0  0  0  0  0  0  0  0  0  0
  124.9836  132.4516   61.3703 H   0  0  0  0  0  0  0  0  0  0  0  0
  126.8940  134.0158   63.2629 H   0  0  0  0  0  0  0  0  0  0  0  0
  127.7692  133.4607   65.5462 H   0  0  0  0  0  0  0  0  0  0  0  0
  128.3450  131.1100   67.1840 H   0  0  0  0  0  0  0  0  0  0  0  0
  130.2195  129.1348   67.5827 H   0  0  0  0  0  0  0  0  0  0  0  0
  130.8482  127.4127   69.2712 H   0  0  0  0  0  0  0  0  0  0  0  0
  129.3460  124.4150   69.7800 H   0  0  0  0  0  0  0  0  0  0  0  0
  129.4790  125.6710   71.0000 H   0  0  0  0  0  0  0  0  0  0  0  0
  127.0231  125.4749   68.7204 H   0  0  0  0  0  0  0  0  0  0  0  0
  126.3916  127.1980   67.0355 H   0  0  0  0  0  0  0  0  0  0  0  0
  127.1890  128.1690   64.5880 H   0  0  0  0  0  0  0  0  0  0  0  0
  126.3415  129.8147   62.3298 H   0  0  0  0  0  0  0  0  0  0  0  0
  126.7006  132.7652   58.6942 H   0  0  0  0  0  0  0  0  0  0  0  0
  127.1877  131.0919   56.8910 H   0  0  0  0  0  0  0  0  0  0  0  0
  127.3630  128.1930   56.5540 H   0  0  0  0  0  0  0  0  0  0  0  0
  124.9700  125.3688   57.7370 H   0  0  0  0  0  0  0  0  0  0  0  0
  125.2410  122.9824   57.0761 H   0  0  0  0  0  0  0  0  0  0  0  0
  1  2  1  0
  2  3  2  0
  3  4  1  0
  4  5  2  0
  5  6  1  0
  6  7  1  0
  7  8  1  0
  8  9  2  0
  9 10  1  0
 10 11  1  0
 11 12  1  0
 12 13  2  0
 13 14  1  0
 14 15  2  0
 15 16  1  0
 16 17  1  0
 17 18  1  0
 18 19  2  0
 19 20  1  0
 20 21  2  0
 21 22  1  0
 21 23  1  0
 23 24  2  0
 17 25  2  0
 25 26  1  0
 26 27  2  0
 10 28  2  0
 28 29  1  0
 29 30  2  0
 30 31  1  0
  5 32  1  0
 32 33  2  0
 33  2  1  0
 31  6  2  0
 30  8  1  0
 27 12  1  0
 26 15  1  0
 24 18  1  0
  1 34  1  0
  1 35  1  0
  3 36  1  0
  4 37  1  0
  7 38  1  0
  9 39  1  0
 11 40  1  0
 11 41  1  0
 13 42  1  0
 14 43  1  0
 16 44  1  0
 19 45  1  0
 20 46  1  0
 22 47  1  0
 22 48  1  0
 23 49  1  0
 24 50  1  0
 25 51  1  0
 27 52  1  0
 28 53  1  0
 29 54  1  0
 31 55  1  0
 32 56  1  0
 33 57  1  0
M  CHG  2  25   1  31   1
M  END
>  <Binding energies>  (1) 
[-7.56]

>  <Ligand effiencies>  (1) 
[-0.18439024390243902]

>  <Interactions>  (1) 
["V-B:TYR:539:CA:9838, V-A:HIS:456:CE1:4066, V-B:TYR:539:CG:9841, V-B:TYR:539:CD1:9842, V-B:TYR:539:CZ:9846, V-B:PRO:540:CA:9852, V-B:TYR:539:CE1:9844, V-B:TYR:539:C:9836, V-B:PRO:540:N:9853, H-B:GLU:543:OE2:9879, V-A:GLU:543:CB:4903, V-B:GLU:543:CB:9875, V-B:GLU:543:CD:9877, V-B:HIS:456:CE1:9038, V-A:GLU:543:CD:4905, H-B:TYR:539:O:9837, H-B:TYR:484:OH:9316, V-A:GLU:543:CG:4904, V-B:PRO:540:CD:9856, V-B:MET:535:CE:9804, V-A:HIS:456:CD2:4064, V-B:GLU:543:C:9871, H-B:ASP:366:OD1:8182, H-B:GLU:543:OE1:9878, H-B:TYR:531:OH:9764, V-B:ASP:366:CG:8181, V-A:ALA:541:CB:4889, V-B:TYR:484:CE1:9313, V-B:TYR:484:CZ:9315, V-A:TYR:539:CE2:4873, V-A:TYR:539:CD2:4871, V-B:LEU:475:CD2:9227, H-A:HIS:456:NE2:4067, H-B:GLU:543:O:9872, H-A:GLU:543:O:4900, H-B:HIS:456:NE2:9039, V-A:GLU:543:CA:4901, V-B:ILE:538:C:9827"]

$$$$
RR12_Rahimova_2017
     RDKit          3D

 51 53  0  0  0  0  0  0  0  0999 V2000
  129.4530  124.2240   57.6970 C   0  0  0  0  0  0  0  0  0  0  0  0
  128.3700  123.6800   56.7560 C   0  0  0  0  0  0  0  0  0  0  0  0
  127.6640  122.4350   57.3230 C   0  0  0  0  0  0  0  0  0  0  0  0
  127.0300  122.7380   58.6050 N   0  0  0  0  0  0  0  0  0  0  0  0
  127.4980  122.4250   59.8720 C   0  0  0  0  0  0  0  0  0  0  0  0
  128.7740  121.6450   60.1360 C   0  0  0  0  0  0  0  0  0  0  0  0
  129.4310  122.0300   61.4740 C   0  0  0  0  0  0  0  0  0  0  0  0
  130.8780  121.5160   61.5970 C   0  0  0  0  0  0  0  0  0  0  0  0
  131.8630  122.5740   61.8170 N   0  0  0  0  0  0  0  0  0  0  0  0
  133.0570  122.6570   61.2010 C   0  0  0  0  0  0  0  0  0  0  0  0
  133.4500  121.8300   60.3750 O   0  0  0  0  0  0  0  0  0  0  0  0
  133.9200  123.8650   61.5870 C   0  0  0  0  0  0  0  0  0  0  0  0
  133.8590  124.0620   63.0010 O   0  0  0  0  0  0  0  0  0  0  0  0
  132.8560  124.8500   63.5320 C   0  0  0  0  0  0  0  0  0  0  0  0
  132.7970  124.9240   64.9250 C   0  0  0  0  0  0  0  0  0  0  0  0
  131.8220  125.6960   65.5520 C   0  0  0  0  0  0  0  0  0  0  0  0
  130.9010  126.4000   64.7820 C   0  0  0  0  0  0  0  0  0  0  0  0
  130.9440  126.3360   63.3920 C   0  0  0  0  0  0  0  0  0  0  0  0
  131.9190  125.5630   62.7660 C   0  0  0  0  0  0  0  0  0  0  0  0
  126.7180  122.8540   60.8330 N   0  0  0  0  0  0  0  0  0  0  0  0
  125.6980  123.5040   60.1950 C   0  0  0  0  0  0  0  0  0  0  0  0
  124.5910  124.1660   60.7470 C   0  0  0  0  0  0  0  0  0  0  0  0
  123.6810  124.7640   59.8750 C   0  0  0  0  0  0  0  0  0  0  0  0
  123.8610  124.7110   58.4920 C   0  0  0  0  0  0  0  0  0  0  0  0
  124.9510  124.0590   57.9130 C   0  0  0  0  0  0  0  0  0  0  0  0
  125.8630  123.4570   58.7880 C   0  0  0  0  0  0  0  0  0  0  0  0
  129.1434  124.0685   58.7410 H   0  0  0  0  0  0  0  0  0  0  0  0
  130.3991  123.6942   57.5123 H   0  0  0  0  0  0  0  0  0  0  0  0
  129.5928  125.2993   57.5123 H   0  0  0  0  0  0  0  0  0  0  0  0
  127.6189  124.4666   56.5913 H   0  0  0  0  0  0  0  0  0  0  0  0
  128.8617  123.3856   55.8171 H   0  0  0  0  0  0  0  0  0  0  0  0
  126.8956  122.1001   56.6107 H   0  0  0  0  0  0  0  0  0  0  0  0
  128.4127  121.6441   57.4775 H   0  0  0  0  0  0  0  0  0  0  0  0
  128.5341  120.5717   60.1562 H   0  0  0  0  0  0  0  0  0  0  0  0
  129.4856  121.8840   59.3319 H   0  0  0  0  0  0  0  0  0  0  0  0
  129.4389  123.1267   61.5592 H   0  0  0  0  0  0  0  0  0  0  0  0
  128.8437  121.5631   62.2784 H   0  0  0  0  0  0  0  0  0  0  0  0
  130.9265  120.8154   62.4437 H   0  0  0  0  0  0  0  0  0  0  0  0
  131.1305  121.0370   60.6395 H   0  0  0  0  0  0  0  0  0  0  0  0
  131.6090  123.2920   62.4810 H   0  0  0  0  0  0  0  0  0  0  0  0
  134.9623  123.6818   61.2870 H   0  0  0  0  0  0  0  0  0  0  0  0
  133.5435  124.7630   61.0752 H   0  0  0  0  0  0  0  0  0  0  0  0
  133.5265  124.3680   65.5322 H   0  0  0  0  0  0  0  0  0  0  0  0
  131.7801  125.7490   66.6499 H   0  0  0  0  0  0  0  0  0  0  0  0
  130.1323  127.0124   65.2760 H   0  0  0  0  0  0  0  0  0  0  0  0
  130.2110  126.8936   62.7905 H   0  0  0  0  0  0  0  0  0  0  0  0
  131.9554  125.5107   61.6678 H   0  0  0  0  0  0  0  0  0  0  0  0
  124.4448  124.2122   61.8363 H   0  0  0  0  0  0  0  0  0  0  0  0
  122.8048  125.2873   60.2853 H   0  0  0  0  0  0  0  0  0  0  0  0
  123.1218  125.1976   57.8387 H   0  0  0  0  0  0  0  0  0  0  0  0
  125.0868  124.0201   56.8221 H   0  0  0  0  0  0  0  0  0  0  0  0
  1  2  1  0
  2  3  1  0
  3  4  1  0
  4  5  1  0
  5  6  1  0
  6  7  1  0
  7  8  1  0
  8  9  1  0
  9 10  1  0
 10 11  2  0
 10 12  1  0
 12 13  1  0
 13 14  1  0
 14 15  2  0
 15 16  1  0
 16 17  2  0
 17 18  1  0
 18 19  2  0
  5 20  2  0
 20 21  1  0
 21 22  2  0
 22 23  1  0
 23 24  2  0
 24 25  1  0
 25 26  2  0
 26  4  1  0
 19 14  1  0
 26 21  1  0
  1 27  1  0
  1 28  1  0
  1 29  1  0
  2 30  1  0
  2 31  1  0
  3 32  1  0
  3 33  1  0
  6 34  1  0
  6 35  1  0
  7 36  1  0
  7 37  1  0
  8 38  1  0
  8 39  1  0
  9 40  1  0
 12 41  1  0
 12 42  1  0
 15 43  1  0
 16 44  1  0
 17 45  1  0
 18 46  1  0
 19 47  1  0
 22 48  1  0
 23 49  1  0
 24 50  1  0
 25 51  1  0
M  END
>  <Binding energies>  (1) 
[-7.09]

>  <Ligand effiencies>  (1) 
[-0.2625925925925926]

>  <Interactions>  (1) 
["V-B:PRO:540:C:9850, H-B:ALA:541:N:9860, V-B:TYR:539:CE2:9845, V-A:HIS:456:CE1:4066, V-B:TYR:539:CD1:9842, V-B:TYR:539:CZ:9846, V-B:ASN:362:CB:8144, V-B:PRO:540:CA:9852, V-A:ARG:545:CZ:4923, V-B:TYR:539:CE1:9844, V-B:ALA:541:CB:9861, H-A:GLY:454:N:4046, V-B:TYR:539:C:9836, V-B:ASN:362:C:8140, V-B:PRO:540:N:9853, V-B:PRO:540:CB:9854, V-B:TYR:539:CD2:9843, V-A:ASP:366:CG:3209, V-A:GLU:543:CD:4905, V-B:LEU:363:CA:8153, V-A:LEU:475:CD1:4254, H-B:TYR:539:OH:9847, V-B:MET:535:CE:9804, V-B:LEU:363:CD1:8157, V-B:ASP:366:CG:8181, V-B:ASP:366:CB:8180"]

$$$$
RR13_Rahimova_2017
     RDKit          3D

 84 90  0  0  0  0  0  0  0  0999 V2000
  126.1870  129.0090   62.8820 Cl  0  0  0  0  0  0  0  0  0  0  0  0
  127.2530  129.6360   61.6700 C   0  0  0  0  0  0  0  0  0  0  0  0
  127.4920  131.0120   61.6630 C   0  0  0  0  0  0  0  0  0  0  0  0
  128.3220  131.5810   60.7010 C   0  0  0  0  0  0  0  0  0  0  0  0
  128.9190  130.7750   59.7350 C   0  0  0  0  0  0  0  0  0  0  0  0
  128.6860  129.4010   59.7360 C   0  0  0  0  0  0  0  0  0  0  0  0
  127.8610  128.8070   60.7050 C   0  0  0  0  0  0  0  0  0  0  0  0
  127.5990  127.2850   60.6690 C   0  0  1  0  0  0  0  0  0  0  0  0
  127.0760  126.8480   59.2920 C   0  0  0  0  0  0  0  0  0  0  0  0
  127.5430  127.2190   58.1200 N   0  0  0  0  0  0  0  0  0  0  0  0
  126.7390  126.5920   57.1740 N   0  0  0  0  0  0  0  0  0  0  0  0
  125.7600  125.8480   57.8010 N   0  0  0  0  0  0  0  0  0  0  0  0
  125.9730  126.0410   59.1070 N   0  0  0  0  0  0  0  0  0  0  0  0
  125.1410  125.3690   60.0980 C   0  0  0  0  0  0  0  0  0  0  0  0
  124.8780  123.9120   59.6750 C   0  0  0  0  0  0  0  0  0  0  0  0
  126.1200  123.2470   59.1000 C   0  0  0  0  0  0  0  0  0  0  0  0
  127.1920  122.9310   59.9380 C   0  0  0  0  0  0  0  0  0  0  0  0
  128.3320  122.3290   59.4100 C   0  0  0  0  0  0  0  0  0  0  0  0
  128.3940  122.0470   58.0470 C   0  0  0  0  0  0  0  0  0  0  0  0
  127.3290  122.3610   57.2070 C   0  0  0  0  0  0  0  0  0  0  0  0
  126.1890  122.9630   57.7340 C   0  0  0  0  0  0  0  0  0  0  0  0
  128.7580  126.4760   61.1160 N   0  0  0  0  0  0  0  0  0  0  0  0
  128.3010  125.2430   61.7830 C   0  0  0  0  0  0  0  0  0  0  0  0
  129.5000  124.3310   62.1320 C   0  0  0  0  0  0  0  0  0  0  0  0
  130.4200  125.0140   63.0570 N   0  0  0  0  0  0  0  0  0  0  0  0
  131.5420  124.1470   63.4840 C   0  0  1  0  0  0  0  0  0  0  0  0
  132.3570  123.5020   62.3420 C   0  0  0  0  0  0  0  0  0  0  0  0
  133.4480  124.2300   61.8450 C   0  0  0  0  0  0  0  0  0  0  0  0
  134.2500  123.7180   60.8260 C   0  0  0  0  0  0  0  0  0  0  0  0
  133.9690  122.4680   60.2820 C   0  0  0  0  0  0  0  0  0  0  0  0
  132.8810  121.7370   60.7500 C   0  0  0  0  0  0  0  0  0  0  0  0
  132.0680  122.2420   61.7680 C   0  0  0  0  0  0  0  0  0  0  0  0
  130.7000  121.2880   62.2330 Cl  0  0  0  0  0  0  0  0  0  0  0  0
  132.4820  124.8270   64.4820 C   0  0  0  0  0  0  0  0  0  0  0  0
  133.7750  124.6200   64.5740 N   0  0  0  0  0  0  0  0  0  0  0  0
  134.2250  125.4530   65.5930 N   0  0  0  0  0  0  0  0  0  0  0  0
  133.1720  126.1830   66.1060 N   0  0  0  0  0  0  0  0  0  0  0  0
  132.1100  125.7960   65.3900 N   0  0  0  0  0  0  0  0  0  0  0  0
  130.7930  126.3550   65.6770 C   0  0  0  0  0  0  0  0  0  0  0  0
  130.8960  127.4430   66.7610 C   0  0  0  0  0  0  0  0  0  0  0  0
  129.9810  127.1650   67.9430 C   0  0  0  0  0  0  0  0  0  0  0  0
  128.8230  126.4020   67.7650 C   0  0  0  0  0  0  0  0  0  0  0  0
  127.9890  126.1410   68.8490 C   0  0  0  0  0  0  0  0  0  0  0  0
  128.3150  126.6440   70.1070 C   0  0  0  0  0  0  0  0  0  0  0  0
  129.4680  127.4050   70.2910 C   0  0  0  0  0  0  0  0  0  0  0  0
  130.3030  127.6660   69.2080 C   0  0  0  0  0  0  0  0  0  0  0  0
  130.8780  126.2430   62.3840 C   0  0  0  0  0  0  0  0  0  0  0  0
  129.6760  127.1550   62.0470 C   0  0  0  0  0  0  0  0  0  0  0  0
  127.0206  131.6514   62.4238 H   0  0  0  0  0  0  0  0  0  0  0  0
  128.5059  132.6655   60.7039 H   0  0  0  0  0  0  0  0  0  0  0  0
  129.5735  131.2222   58.9723 H   0  0  0  0  0  0  0  0  0  0  0  0
  129.1557  128.7718   58.9656 H   0  0  0  0  0  0  0  0  0  0  0  0
  126.8090  127.0845   61.4077 H   0  0  0  0  0  0  0  0  0  0  0  0
  125.6559  125.3774   61.0700 H   0  0  0  0  0  0  0  0  0  0  0  0
  124.1798  125.8980   60.1764 H   0  0  0  0  0  0  0  0  0  0  0  0
  124.5464  123.3419   60.5554 H   0  0  0  0  0  0  0  0  0  0  0  0
  124.1068  123.9222   58.8907 H   0  0  0  0  0  0  0  0  0  0  0  0
  127.1361  123.1571   61.0131 H   0  0  0  0  0  0  0  0  0  0  0  0
  129.1787  122.0776   60.0657 H   0  0  0  0  0  0  0  0  0  0  0  0
  129.2939  121.5712   57.6301 H   0  0  0  0  0  0  0  0  0  0  0  0
  127.3877  122.1347   56.1321 H   0  0  0  0  0  0  0  0  0  0  0  0
  125.3444  123.2144   57.0757 H   0  0  0  0  0  0  0  0  0  0  0  0
  127.7691  125.5094   62.7083 H   0  0  0  0  0  0  0  0  0  0  0  0
  127.6318  124.6997   61.0997 H   0  0  0  0  0  0  0  0  0  0  0  0
  129.1280  123.4108   62.6062 H   0  0  0  0  0  0  0  0  0  0  0  0
  130.0429  124.0899   61.2062 H   0  0  0  0  0  0  0  0  0  0  0  0
  131.0230  123.3205   63.9914 H   0  0  0  0  0  0  0  0  0  0  0  0
  133.6745  125.2207   62.2659 H   0  0  0  0  0  0  0  0  0  0  0  0
  135.1043  124.3015   60.4522 H   0  0  0  0  0  0  0  0  0  0  0  0
  134.6056  122.0587   59.4837 H   0  0  0  0  0  0  0  0  0  0  0  0
  132.6589  120.7518   60.3141 H   0  0  0  0  0  0  0  0  0  0  0  0
  130.3788  126.7966   64.7586 H   0  0  0  0  0  0  0  0  0  0  0  0
  130.1357  125.5511   66.0399 H   0  0  0  0  0  0  0  0  0  0  0  0
  131.9348  127.4880   67.1201 H   0  0  0  0  0  0  0  0  0  0  0  0
  130.5860  128.3978   66.3114 H   0  0  0  0  0  0  0  0  0  0  0  0
  128.5710  126.0082   66.7693 H   0  0  0  0  0  0  0  0  0  0  0  0
  127.0773  125.5407   68.7130 H   0  0  0  0  0  0  0  0  0  0  0  0
  127.6558  126.4384   70.9633 H   0  0  0  0  0  0  0  0  0  0  0  0
  129.7173  127.7978   71.2878 H   0  0  0  0  0  0  0  0  0  0  0  0
  131.2147  128.2655   69.3473 H   0  0  0  0  0  0  0  0  0  0  0  0
  131.5680  126.7840   63.0483 H   0  0  0  0  0  0  0  0  0  0  0  0
  131.3892  125.9679   61.4497 H   0  0  0  0  0  0  0  0  0  0  0  0
  129.1362  127.3996   62.9737 H   0  0  0  0  0  0  0  0  0  0  0  0
  130.0492  128.0741   61.5716 H   0  0  0  0  0  0  0  0  0  0  0  0
  1  2  1  0
  2  3  2  0
  3  4  1  0
  4  5  2  0
  5  6  1  0
  6  7  2  0
  7  8  1  0
  8  9  1  0
  9 10  2  0
 10 11  1  0
 11 12  2  0
 12 13  1  0
 13 14  1  0
 14 15  1  0
 15 16  1  0
 16 17  2  0
 17 18  1  0
 18 19  2  0
 19 20  1  0
 20 21  2  0
  8 22  1  0
 22 23  1  0
 23 24  1  0
 24 25  1  0
 25 26  1  0
 26 27  1  0
 27 28  2  0
 28 29  1  0
 29 30  2  0
 30 31  1  0
 31 32  2  0
 32 33  1  0
 26 34  1  0
 34 35  2  0
 35 36  1  0
 36 37  2  0
 37 38  1  0
 38 39  1  0
 39 40  1  0
 40 41  1  0
 41 42  2  0
 42 43  1  0
 43 44  2  0
 44 45  1  0
 45 46  2  0
 25 47  1  0
 47 48  1  0
  7  2  1  0
 13  9  1  0
 21 16  1  0
 48 22  1  0
 32 27  1  0
 38 34  1  0
 46 41  1  0
  3 49  1  0
  4 50  1  0
  5 51  1  0
  6 52  1  0
  8 53  1  1
 14 54  1  0
 14 55  1  0
 15 56  1  0
 15 57  1  0
 17 58  1  0
 18 59  1  0
 19 60  1  0
 20 61  1  0
 21 62  1  0
 23 63  1  0
 23 64  1  0
 24 65  1  0
 24 66  1  0
 26 67  1  1
 28 68  1  0
 29 69  1  0
 30 70  1  0
 31 71  1  0
 39 72  1  0
 39 73  1  0
 40 74  1  0
 40 75  1  0
 42 76  1  0
 43 77  1  0
 44 78  1  0
 45 79  1  0
 46 80  1  0
 47 81  1  0
 47 82  1  0
 48 83  1  0
 48 84  1  0
M  END
>  <Binding energies>  (1) 
[-11.48]

>  <Ligand effiencies>  (1) 
[-0.23916666666666667]

>  <Interactions>  (1) 
["V-B:TYR:539:CE2:9845, V-A:HIS:456:CE1:4066, V-B:TYR:539:CG:9841, V-B:TYR:539:CD1:9842, V-B:TYR:539:CZ:9846, V-B:PRO:540:CA:9852, V-A:ARG:545:CZ:4923, V-B:TYR:539:CE1:9844, V-B:ALA:541:CB:9861, H-A:GLY:454:N:4046, V-B:TYR:539:C:9836, H-A:TYR:484:OH:4344, V-B:PRO:540:N:9853, V-B:PRO:540:CB:9854, V-B:TYR:539:CD2:9843, V-A:ASP:366:CG:3209, V-B:HIS:456:CD2:9036, V-A:GLU:543:CB:4903, V-B:GLU:543:CB:9875, V-B:GLU:543:CD:9877, V-B:HIS:456:CE1:9038, V-A:GLU:543:CD:4905, V-A:ILE:369:CB:3232, H-A:ARG:545:NH1:4924, V-A:LEU:475:CD1:4254, V-A:ILE:369:CG2:3233, V-A:ILE:369:CG1:3234, V-B:GLU:543:C:9871, H-A:ARG:545:NE:4921, H-B:TYR:531:OH:9764, V-B:ASP:366:CG:8181, V-A:ASP:366:CA:3206, H-A:HIS:456:ND1:4063"]

$$$$
RR14_Rahimova_2017
     RDKit          3D

 76 80  0  0  0  0  0  0  0  0999 V2000
  127.8720  122.7690   58.0970 C   0  0  0  0  0  0  0  0  0  0  0  0
  127.7500  121.9540   59.2570 O   0  0  0  0  0  0  0  0  0  0  0  0
  128.4000  122.3310   60.4160 C   0  0  0  0  0  0  0  0  0  0  0  0
  129.4200  121.4900   60.8610 C   0  0  0  0  0  0  0  0  0  0  0  0
  130.1150  121.7760   62.0320 C   0  0  0  0  0  0  0  0  0  0  0  0
  129.7890  122.9110   62.7770 C   0  0  0  0  0  0  0  0  0  0  0  0
  130.5020  123.1930   64.0940 C   0  0  0  0  0  0  0  0  0  0  0  0
  131.8090  123.8270   63.9210 N   0  0  0  0  0  0  0  0  0  0  0  0
  132.5920  123.4910   62.8890 N   0  0  0  0  0  0  0  0  0  0  0  0
  133.7350  124.2480   63.0540 N   0  0  0  0  0  0  0  0  0  0  0  0
  133.6280  125.0320   64.1990 N   0  0  0  0  0  0  0  0  0  0  0  0
  132.4530  124.7540   64.7120 C   0  0  0  0  0  0  0  0  0  0  0  0
  131.8920  125.3520   65.9950 C   0  0  0  0  0  0  0  0  0  0  0  0
  130.4760  125.7340   65.8650 N   0  0  0  0  0  0  0  0  0  0  0  0
  129.5930  124.8270   66.6110 C   0  0  0  0  0  0  0  0  0  0  0  0
  129.4980  125.1630   68.1150 C   0  0  0  0  0  0  0  0  0  0  0  0
  128.3080  126.0780   68.4720 C   0  0  0  0  0  0  0  0  0  0  0  0
  128.5010  126.8190   69.7230 N   0  0  0  0  0  0  0  0  0  0  0  0
  129.8800  127.3140   69.8150 C   0  0  0  0  0  0  0  0  0  0  0  0
  130.1310  128.0560   71.1460 C   0  0  0  0  0  0  0  0  0  0  0  0
  129.7820  127.2200   72.2450 O   0  0  0  0  0  0  0  0  0  0  0  0
  128.4140  126.8330   72.2150 C   0  0  0  0  0  0  0  0  0  0  0  0
  128.1110  126.0530   70.9170 C   0  0  0  0  0  0  0  0  0  0  0  0
  130.2830  127.1220   66.3100 C   0  0  0  0  0  0  0  0  0  0  0  0
  129.1850  127.9080   65.5980 C   0  0  0  0  0  0  0  0  0  0  0  0
  128.9050  127.6910   64.2890 C   0  0  0  0  0  0  0  0  0  0  0  0
  127.8750  128.4650   63.5660 C   0  0  0  0  0  0  0  0  0  0  0  0
  127.5470  128.2530   62.2170 C   0  0  0  0  0  0  0  0  0  0  0  0
  128.2430  127.1850   61.3830 C   0  0  0  0  0  0  0  0  0  0  0  0
  126.5540  129.0400   61.6270 C   0  0  0  0  0  0  0  0  0  0  0  0
  125.8950  130.0230   62.3630 C   0  0  0  0  0  0  0  0  0  0  0  0
  126.2130  130.2400   63.7070 C   0  0  0  0  0  0  0  0  0  0  0  0
  125.4730  131.3210   64.4840 C   0  0  0  0  0  0  0  0  0  0  0  0
  127.2090  129.4560   64.3090 C   0  0  0  0  0  0  0  0  0  0  0  0
  127.5660  129.6410   65.6610 N   0  0  0  0  0  0  0  0  0  0  0  0
  128.5020  128.9560   66.3640 C   0  0  0  0  0  0  0  0  0  0  0  0
  128.7240  129.2330   67.5420 O   0  0  0  0  0  0  0  0  0  0  0  0
  128.7900  123.7760   62.3250 C   0  0  0  0  0  0  0  0  0  0  0  0
  128.0960  123.4870   61.1540 C   0  0  0  0  0  0  0  0  0  0  0  0
  128.0286  123.8152   58.3987 H   0  0  0  0  0  0  0  0  0  0  0  0
  128.7291  122.4280   57.4978 H   0  0  0  0  0  0  0  0  0  0  0  0
  126.9526  122.6939   57.4978 H   0  0  0  0  0  0  0  0  0  0  0  0
  129.6775  120.5918   60.2805 H   0  0  0  0  0  0  0  0  0  0  0  0
  130.9209  121.1082   62.3706 H   0  0  0  0  0  0  0  0  0  0  0  0
  129.8684  123.8588   64.6983 H   0  0  0  0  0  0  0  0  0  0  0  0
  130.6728  122.2239   64.5857 H   0  0  0  0  0  0  0  0  0  0  0  0
  131.9847  124.6090   66.8009 H   0  0  0  0  0  0  0  0  0  0  0  0
  132.4657  126.2635   66.2185 H   0  0  0  0  0  0  0  0  0  0  0  0
  128.5844  124.8864   66.1761 H   0  0  0  0  0  0  0  0  0  0  0  0
  130.0218  123.8172   66.5304 H   0  0  0  0  0  0  0  0  0  0  0  0
  129.3929  124.2221   68.6751 H   0  0  0  0  0  0  0  0  0  0  0  0
  130.4149  125.7095   68.3809 H   0  0  0  0  0  0  0  0  0  0  0  0
  128.1668  126.8017   67.6557 H   0  0  0  0  0  0  0  0  0  0  0  0
  127.4290  125.4310   68.6088 H   0  0  0  0  0  0  0  0  0  0  0  0
  130.5707  126.4607   69.7464 H   0  0  0  0  0  0  0  0  0  0  0  0
  130.0467  128.0222   68.9900 H   0  0  0  0  0  0  0  0  0  0  0  0
  131.1951  128.3256   71.2173 H   0  0  0  0  0  0  0  0  0  0  0  0
  129.5122  128.9650   71.1740 H   0  0  0  0  0  0  0  0  0  0  0  0
  128.1980  126.1927   73.0830 H   0  0  0  0  0  0  0  0  0  0  0  0
  127.7843  127.7343   72.2485 H   0  0  0  0  0  0  0  0  0  0  0  0
  128.6689  125.1051   70.9313 H   0  0  0  0  0  0  0  0  0  0  0  0
  127.0274  125.8695   70.8701 H   0  0  0  0  0  0  0  0  0  0  0  0
  130.0396  127.1005   67.3825 H   0  0  0  0  0  0  0  0  0  0  0  0
  131.2221  127.6426   66.0710 H   0  0  0  0  0  0  0  0  0  0  0  0
  129.4632  126.9130   63.7476 H   0  0  0  0  0  0  0  0  0  0  0  0
  128.7205  126.4522   62.0501 H   0  0  0  0  0  0  0  0  0  0  0  0
  127.5031  126.6754   60.7483 H   0  0  0  0  0  0  0  0  0  0  0  0
  129.0080  127.6561   60.7483 H   0  0  0  0  0  0  0  0  0  0  0  0
  126.2899  128.8819   60.5709 H   0  0  0  0  0  0  0  0  0  0  0  0
  125.1171  130.6340   61.8818 H   0  0  0  0  0  0  0  0  0  0  0  0
  125.5937  131.1447   65.5630 H   0  0  0  0  0  0  0  0  0  0  0  0
  125.8866  132.3069   64.2251 H   0  0  0  0  0  0  0  0  0  0  0  0
  124.4043  131.2922   64.2251 H   0  0  0  0  0  0  0  0  0  0  0  0
  127.0910  130.3600   66.1850 H   0  0  0  0  0  0  0  0  0  0  0  0
  128.5517  124.6862   62.8949 H   0  0  0  0  0  0  0  0  0  0  0  0
  127.3053  124.1672   60.8044 H   0  0  0  0  0  0  0  0  0  0  0  0
  1  2  1  0
  2  3  1  0
  3  4  2  0
  4  5  1  0
  5  6  2  0
  6  7  1  0
  7  8  1  0
  8  9  1  0
  9 10  2  0
 10 11  1  0
 11 12  2  0
 12 13  1  0
 13 14  1  0
 14 15  1  0
 15 16  1  0
 16 17  1  0
 17 18  1  0
 18 19  1  0
 19 20  1  0
 20 21  1  0
 21 22  1  0
 22 23  1  0
 14 24  1  0
 24 25  1  0
 25 26  2  0
 26 27  1  0
 27 28  2  0
 28 29  1  0
 28 30  1  0
 30 31  2  0
 31 32  1  0
 32 33  1  0
 32 34  2  0
 34 35  1  0
 35 36  1  0
 36 37  2  0
  6 38  1  0
 38 39  2  0
 39  3  1  0
 12  8  1  0
 23 18  1  0
 36 25  1  0
 34 27  1  0
  1 40  1  0
  1 41  1  0
  1 42  1  0
  4 43  1  0
  5 44  1  0
  7 45  1  0
  7 46  1  0
 13 47  1  0
 13 48  1  0
 15 49  1  0
 15 50  1  0
 16 51  1  0
 16 52  1  0
 17 53  1  0
 17 54  1  0
 19 55  1  0
 19 56  1  0
 20 57  1  0
 20 58  1  0
 22 59  1  0
 22 60  1  0
 23 61  1  0
 23 62  1  0
 24 63  1  0
 24 64  1  0
 26 65  1  0
 29 66  1  0
 29 67  1  0
 29 68  1  0
 30 69  1  0
 31 70  1  0
 33 71  1  0
 33 72  1  0
 33 73  1  0
 35 74  1  0
 38 75  1  0
 39 76  1  0
M  END
>  <Binding energies>  (1) 
[-9.39]

>  <Ligand effiencies>  (1) 
[-0.23475000000000001]

>  <Interactions>  (1) 
["V-B:TYR:539:CE2:9845, V-A:HIS:456:CE1:4066, V-B:PRO:540:CA:9852, V-B:ALA:541:CB:9861, H-A:GLY:454:N:4046, H-A:TYR:484:OH:4344, V-B:TYR:539:CD2:9843, V-A:TYR:484:CE1:4341, V-B:HIS:456:CD2:9036, V-A:GLU:543:CB:4903, H-A:LYS:547:NZ:4948, V-B:GLY:544:C:9881, V-B:LYS:547:CE:9919, V-B:GLU:543:CB:9875, V-B:GLU:543:CD:9877, V-B:HIS:456:CE1:9038, V-A:TYR:484:CZ:4343, V-B:GLU:543:CG:9876, V-A:GLY:544:C:4909, V-A:GLU:543:CD:4905, H-A:ARG:545:NH2:4925, H-A:ARG:545:NH1:4924, V-A:LEU:475:CD1:4254, H-B:TYR:484:OH:9316, V-A:GLU:543:CG:4904, V-A:HIS:456:CD2:4064, V-B:GLU:543:C:9871, H-A:ARG:545:NE:4921, V-B:ASP:366:CG:8181, V-B:GLU:543:CA:9873, H-B:HIS:456:NE2:9039"]

$$$$
RR15_Rahimova_2017
     RDKit          3D

 85 89  0  0  0  0  0  0  0  0999 V2000
  127.0630  128.0770   74.1960 C   0  0  0  0  0  0  0  0  0  0  0  0
  128.2240  127.3400   73.8270 O   0  0  0  0  0  0  0  0  0  0  0  0
  128.5370  127.1880   72.4870 C   0  0  0  0  0  0  0  0  0  0  0  0
  128.0260  126.1590   71.6810 C   0  0  0  0  0  0  0  0  0  0  0  0
  128.3840  126.0620   70.3380 C   0  0  0  0  0  0  0  0  0  0  0  0
  129.2620  126.9860   69.7630 C   0  0  0  0  0  0  0  0  0  0  0  0
  129.6540  126.8780   68.3150 C   0  0  0  0  0  0  0  0  0  0  0  0
  130.7590  127.4230   67.8250 N   0  0  0  0  0  0  0  0  0  0  0  0
  130.7680  127.1210   66.4790 N   0  0  0  0  0  0  0  0  0  0  0  0
  129.6710  126.3810   66.3150 N   0  0  0  0  0  0  0  0  0  0  0  0
  129.2000  125.9760   64.9910 C   0  0  0  0  0  0  0  0  0  0  0  0
  128.9650  127.1440   64.0000 C   0  0  0  0  0  0  0  0  0  0  0  0
  128.6040  128.2310   64.4560 O   0  0  0  0  0  0  0  0  0  0  0  0
  129.1910  126.9540   62.6640 N   0  0  0  0  0  0  0  0  0  0  0  0
  128.0950  126.5870   61.7450 C   0  0  0  0  0  0  0  0  0  0  0  0
  126.8560  127.5000   61.8660 C   0  0  0  0  0  0  0  0  0  0  0  0
  127.1670  129.0150   61.9040 C   0  0  0  0  0  0  0  0  0  0  0  0
  126.3630  129.7590   62.8790 N   0  0  0  0  0  0  0  0  0  0  0  0
  125.3020  130.5730   62.2670 C   0  0  0  0  0  0  0  0  0  0  0  0
  124.4330  131.2660   63.3390 C   0  0  0  0  0  0  0  0  0  0  0  0
  123.9150  130.3020   64.2500 O   0  0  0  0  0  0  0  0  0  0  0  0
  124.9430  129.5830   64.9210 C   0  0  0  0  0  0  0  0  0  0  0  0
  125.8250  128.8410   63.8930 C   0  0  0  0  0  0  0  0  0  0  0  0
  130.4870  127.2820   61.9940 C   0  0  2  0  0  0  0  0  0  0  0  0
  130.3290  128.0560   60.6480 C   0  0  0  0  0  0  0  0  0  0  0  0
  130.0690  127.4630   59.6010 O   0  0  0  0  0  0  0  0  0  0  0  0
  130.4550  129.3920   60.7270 N   0  0  0  0  0  0  0  0  0  0  0  0
  130.2490  130.3260   59.6260 C   0  0  0  0  0  0  0  0  0  0  0  0
  131.2470  131.4970   59.6940 C   0  0  2  0  0  0  0  0  0  0  0  0
  132.6530  131.1980   59.1460 C   0  0  0  0  0  0  0  0  0  0  0  0
  133.4970  130.9640   60.3760 C   0  0  0  0  0  0  0  0  0  0  0  0
  132.8500  131.9150   61.3680 C   0  0  0  0  0  0  0  0  0  0  0  0
  131.4640  131.7550   61.0880 O   0  0  0  0  0  0  0  0  0  0  0  0
  131.4190  126.0760   62.0050 C   0  0  0  0  0  0  0  0  0  0  0  0
  132.0670  125.7540   63.2040 C   0  0  0  0  0  0  0  0  0  0  0  0
  132.9290  124.6640   63.2730 C   0  0  0  0  0  0  0  0  0  0  0  0
  133.1500  123.8850   62.1410 C   0  0  0  0  0  0  0  0  0  0  0  0
  133.9870  122.8250   62.2080 F   0  0  0  0  0  0  0  0  0  0  0  0
  132.5130  124.1880   60.9410 C   0  0  0  0  0  0  0  0  0  0  0  0
  131.6510  125.2790   60.8720 C   0  0  0  0  0  0  0  0  0  0  0  0
  128.9270  126.2380   67.4180 N   0  0  0  0  0  0  0  0  0  0  0  0
  129.7690  128.0140   70.5700 C   0  0  0  0  0  0  0  0  0  0  0  0
  129.4150  128.1270   71.9250 C   0  0  0  0  0  0  0  0  0  0  0  0
  129.8860  129.1250   72.7600 O   0  0  0  0  0  0  0  0  0  0  0  0
  129.5070  130.4770   72.5240 C   0  0  0  0  0  0  0  0  0  0  0  0
  126.9909  128.1227   75.2927 H   0  0  0  0  0  0  0  0  0  0  0  0
  127.1319  129.0971   73.7902 H   0  0  0  0  0  0  0  0  0  0  0  0
  126.1692  127.5806   73.7902 H   0  0  0  0  0  0  0  0  0  0  0  0
  127.3351  125.4208   72.1144 H   0  0  0  0  0  0  0  0  0  0  0  0
  127.9711  125.2490   69.7228 H   0  0  0  0  0  0  0  0  0  0  0  0
  129.9497  125.3009   64.5527 H   0  0  0  0  0  0  0  0  0  0  0  0
  128.2214  125.4972   65.1433 H   0  0  0  0  0  0  0  0  0  0  0  0
  128.4716  126.6465   60.7132 H   0  0  0  0  0  0  0  0  0  0  0  0
  127.7742  125.5700   62.0149 H   0  0  0  0  0  0  0  0  0  0  0  0
  126.2028  127.3064   61.0024 H   0  0  0  0  0  0  0  0  0  0  0  0
  126.3852  127.2565   62.8299 H   0  0  0  0  0  0  0  0  0  0  0  0
  128.2292  129.1449   62.1588 H   0  0  0  0  0  0  0  0  0  0  0  0
  126.9206  129.4181   60.9106 H   0  0  0  0  0  0  0  0  0  0  0  0
  125.7635  131.3412   61.6292 H   0  0  0  0  0  0  0  0  0  0  0  0
  124.6556  129.9093   61.6740 H   0  0  0  0  0  0  0  0  0  0  0  0
  125.0471  131.9936   63.8900 H   0  0  0  0  0  0  0  0  0  0  0  0
  123.5952  131.7798   62.8450 H   0  0  0  0  0  0  0  0  0  0  0  0
  125.5648  130.2862   65.4944 H   0  0  0  0  0  0  0  0  0  0  0  0
  124.4859  128.8494   65.6013 H   0  0  0  0  0  0  0  0  0  0  0  0
  126.6626  128.3619   64.4211 H   0  0  0  0  0  0  0  0  0  0  0  0
  125.2022  128.0916   63.3827 H   0  0  0  0  0  0  0  0  0  0  0  0
  131.0120  128.0401   62.5937 H   0  0  0  0  0  0  0  0  0  0  0  0
  130.6410  129.8050   61.6300 H   0  0  0  0  0  0  0  0  0  0  0  0
  130.3855  129.7932   58.6734 H   0  0  0  0  0  0  0  0  0  0  0  0
  129.2297  130.7327   59.7007 H   0  0  0  0  0  0  0  0  0  0  0  0
  130.8096  132.3092   59.0948 H   0  0  0  0  0  0  0  0  0  0  0  0
  132.6391  130.3021   58.5079 H   0  0  0  0  0  0  0  0  0  0  0  0
  133.0413  132.0165   58.5221 H   0  0  0  0  0  0  0  0  0  0  0  0
  133.4306  129.9203   60.7170 H   0  0  0  0  0  0  0  0  0  0  0  0
  134.5726  131.1366   60.2231 H   0  0  0  0  0  0  0  0  0  0  0  0
  133.0822  131.6273   62.4040 H   0  0  0  0  0  0  0  0  0  0  0  0
  133.1999  132.9535   61.2725 H   0  0  0  0  0  0  0  0  0  0  0  0
  131.8929  126.3685   64.0996 H   0  0  0  0  0  0  0  0  0  0  0  0
  133.4341  124.4188   64.2189 H   0  0  0  0  0  0  0  0  0  0  0  0
  132.6901  123.5675   60.0502 H   0  0  0  0  0  0  0  0  0  0  0  0
  131.1481  125.5185   59.9235 H   0  0  0  0  0  0  0  0  0  0  0  0
  130.4601  128.7493   70.1322 H   0  0  0  0  0  0  0  0  0  0  0  0
  129.3630  130.9907   73.4860 H   0  0  0  0  0  0  0  0  0  0  0  0
  130.2974  130.9848   71.9519 H   0  0  0  0  0  0  0  0  0  0  0  0
  128.5678  130.5000   71.9519 H   0  0  0  0  0  0  0  0  0  0  0  0
  1  2  1  0
  2  3  1  0
  3  4  2  0
  4  5  1  0
  5  6  2  0
  6  7  1  0
  7  8  1  0
  8  9  2  0
  9 10  1  0
 10 11  1  0
 11 12  1  0
 12 13  2  0
 12 14  1  0
 14 15  1  0
 15 16  1  0
 16 17  1  0
 17 18  1  0
 18 19  1  0
 19 20  1  0
 20 21  1  0
 21 22  1  0
 22 23  1  0
 14 24  1  0
 24 25  1  0
 25 26  2  0
 25 27  1  0
 27 28  1  0
 28 29  1  0
 29 30  1  0
 30 31  1  0
 31 32  1  0
 32 33  1  0
 24 34  1  0
 34 35  2  0
 35 36  1  0
 36 37  2  0
 37 38  1  0
 37 39  1  0
 39 40  2  0
 10 41  1  0
  6 42  1  0
 42 43  2  0
 43 44  1  0
 44 45  1  0
 43  3  1  0
 41  7  2  0
 23 18  1  0
 33 29  1  0
 40 34  1  0
  1 46  1  0
  1 47  1  0
  1 48  1  0
  4 49  1  0
  5 50  1  0
 11 51  1  0
 11 52  1  0
 15 53  1  0
 15 54  1  0
 16 55  1  0
 16 56  1  0
 17 57  1  0
 17 58  1  0
 19 59  1  0
 19 60  1  0
 20 61  1  0
 20 62  1  0
 22 63  1  0
 22 64  1  0
 23 65  1  0
 23 66  1  0
 24 67  1  1
 27 68  1  0
 28 69  1  0
 28 70  1  0
 29 71  1  6
 30 72  1  0
 30 73  1  0
 31 74  1  0
 31 75  1  0
 32 76  1  0
 32 77  1  0
 35 78  1  0
 36 79  1  0
 39 80  1  0
 40 81  1  0
 42 82  1  0
 45 83  1  0
 45 84  1  0
 45 85  1  0
M  END
>  <Binding energies>  (1) 
[-9.7]

>  <Ligand effiencies>  (1) 
[-0.21086956521739128]

>  <Interactions>  (1) 
["V-A:HIS:456:CE1:4066, V-A:GLY:453:C:4038, V-A:ARG:545:CZ:4923, V-A:GLY:454:CA:4045, V-A:ASP:366:CG:3209, V-B:HIS:456:CD2:9036, V-A:LYS:547:CE:4947, H-A:LYS:547:NZ:4948, V-B:GLY:544:C:9881, V-B:LYS:547:CE:9919, V-B:GLU:543:CB:9875, V-B:GLU:543:CD:9877, V-A:GLU:543:C:4899, V-B:GLU:543:CG:9876, V-A:GLU:543:CD:4905, H-A:GLU:543:OE2:4907, H-B:GLY:454:N:9018, H-A:GLU:543:OE1:4906, V-B:ARG:545:CZ:9895, H-A:ASP:366:OD1:3210, V-B:GLU:543:C:9871, H-A:ALA:541:N:4888, V-B:ASP:366:CG:8181, V-A:PRO:540:C:4878, V-A:ASN:362:C:3168, V-A:PRO:540:CA:4880, V-A:PRO:540:CB:4882, V-A:ASN:362:CB:3172, V-A:LEU:363:CA:3181, V-A:ASN:362:CA:3170, V-B:GLY:454:CA:9017, V-A:GLY:544:CA:4911"]

$$$$
RR16_Rahimova_2017
     RDKit          3D

 80 85  0  0  0  0  0  0  0  0999 V2000
  123.8150  130.8540   62.9530 O   0  0  0  0  0  0  0  0  0  0  0  0
  125.0530  131.5910   63.2350 S   0  0  0  0  0  0  0  0  0  0  0  0
  125.0130  132.9980   63.6480 O   0  0  0  0  0  0  0  0  0  0  0  0
  126.0820  131.4670   61.8070 N   0  0  0  0  0  0  0  0  0  0  0  0
  126.3240  130.1600   61.1540 C   0  0  0  0  0  0  0  0  0  0  0  0
  127.0080  130.3950   59.7810 C   0  0  0  0  0  0  0  0  0  0  0  0
  126.7420  129.3580   58.6720 C   0  0  0  0  0  0  0  0  0  0  0  0
  126.5310  127.9260   59.1930 C   0  0  0  0  0  0  0  0  0  0  0  0
  127.5170  127.4560   60.2790 C   0  0  0  0  0  0  0  0  0  0  0  0
  127.1520  127.7660   61.7440 C   0  0  0  0  0  0  0  0  0  0  0  0
  127.0970  129.2540   62.1410 C   0  0  0  0  0  0  0  0  0  0  0  0
  125.9280  130.6710   64.4960 C   0  0  0  0  0  0  0  0  0  0  0  0
  127.2500  130.9920   64.8120 C   0  0  0  0  0  0  0  0  0  0  0  0
  127.9580  130.1930   65.7050 C   0  0  0  0  0  0  0  0  0  0  0  0
  127.3420  129.0790   66.2780 C   0  0  0  0  0  0  0  0  0  0  0  0
  128.2920  127.9700   67.3160 S   0  0  0  0  0  0  0  0  0  0  0  0
  127.3440  127.0480   67.9570 O   0  0  0  0  0  0  0  0  0  0  0  0
  129.1910  128.7940   68.1330 O   0  0  0  0  0  0  0  0  0  0  0  0
  129.2800  127.0430   66.1700 N   0  0  0  0  0  0  0  0  0  0  0  0
  128.8990  127.2200   64.7450 C   0  0  0  0  0  0  0  0  0  0  0  0
  129.5880  126.1570   63.8660 C   0  0  0  0  0  0  0  0  0  0  0  0
  131.1220  126.1380   64.0840 C   0  0  0  0  0  0  0  0  0  0  0  0
  131.8210  125.0580   63.2540 C   0  0  0  0  0  0  0  0  0  0  0  0
  133.1960  125.1570   62.9990 C   0  0  0  0  0  0  0  0  0  0  0  0
  133.8750  124.1910   62.2550 C   0  0  0  0  0  0  0  0  0  0  0  0
  135.2210  124.3030   62.0190 O   0  0  0  0  0  0  0  0  0  0  0  0
  133.1430  123.1010   61.7600 C   0  0  0  0  0  0  0  0  0  0  0  0
  133.5340  122.0160   61.0300 N   0  0  0  0  0  0  0  0  0  0  0  0
  132.4220  121.2260   60.8330 N   0  0  0  0  0  0  0  0  0  0  0  0
  131.3610  121.8380   61.3940 N   0  0  0  0  0  0  0  0  0  0  0  0
  130.0600  121.1810   61.4100 C   0  0  0  0  0  0  0  0  0  0  0  0
  128.9720  122.0160   60.7520 C   0  0  0  0  0  0  0  0  0  0  0  0
  128.2860  122.9850   61.4930 C   0  0  0  0  0  0  0  0  0  0  0  0
  127.3030  123.7670   60.8860 C   0  0  0  0  0  0  0  0  0  0  0  0
  127.0020  123.5870   59.5350 C   0  0  0  0  0  0  0  0  0  0  0  0
  127.6840  122.6250   58.7900 C   0  0  0  0  0  0  0  0  0  0  0  0
  127.3210  122.4070   57.1170 Cl  0  0  0  0  0  0  0  0  0  0  0  0
  128.6650  121.8390   59.3990 C   0  0  0  0  0  0  0  0  0  0  0  0
  131.7540  123.0120   62.0140 C   0  0  0  0  0  0  0  0  0  0  0  0
  131.0720  123.9810   62.7570 C   0  0  0  0  0  0  0  0  0  0  0  0
  131.5020  126.0810   65.5870 C   0  0  0  0  0  0  0  0  0  0  0  0
  130.7430  127.1380   66.4130 C   0  0  0  0  0  0  0  0  0  0  0  0
  126.0070  128.7840   65.9930 C   0  0  0  0  0  0  0  0  0  0  0  0
  125.3000  129.5800   65.0970 C   0  0  0  0  0  0  0  0  0  0  0  0
  126.1510  132.2960   61.2100 H   0  0  0  0  0  0  0  0  0  0  0  0
  125.3927  129.6228   60.9212 H   0  0  0  0  0  0  0  0  0  0  0  0
  126.6706  131.3728   59.4068 H   0  0  0  0  0  0  0  0  0  0  0  0
  128.0861  130.3191   59.9859 H   0  0  0  0  0  0  0  0  0  0  0  0
  125.8392  129.6629   58.1225 H   0  0  0  0  0  0  0  0  0  0  0  0
  127.6382  129.3363   58.0346 H   0  0  0  0  0  0  0  0  0  0  0  0
  125.5150  127.8649   59.6102 H   0  0  0  0  0  0  0  0  0  0  0  0
  126.7004  127.2658   58.3296 H   0  0  0  0  0  0  0  0  0  0  0  0
  127.6154  126.3643   60.1864 H   0  0  0  0  0  0  0  0  0  0  0  0
  128.4391  128.0253   60.0901 H   0  0  0  0  0  0  0  0  0  0  0  0
  126.1607  127.3313   61.9402 H   0  0  0  0  0  0  0  0  0  0  0  0
  127.9677  127.3357   62.3436 H   0  0  0  0  0  0  0  0  0  0  0  0
  126.6117  129.3279   63.1254 H   0  0  0  0  0  0  0  0  0  0  0  0
  128.1367  129.6131   62.1420 H   0  0  0  0  0  0  0  0  0  0  0  0
  127.7291  131.8717   64.3575 H   0  0  0  0  0  0  0  0  0  0  0  0
  128.9998  130.4386   65.9585 H   0  0  0  0  0  0  0  0  0  0  0  0
  127.8080  127.1193   64.6467 H   0  0  0  0  0  0  0  0  0  0  0  0
  129.2190  128.2185   64.4125 H   0  0  0  0  0  0  0  0  0  0  0  0
  129.1800  125.1671   64.1184 H   0  0  0  0  0  0  0  0  0  0  0  0
  129.3950  126.4066   62.8122 H   0  0  0  0  0  0  0  0  0  0  0  0
  131.5019  127.0992   63.7074 H   0  0  0  0  0  0  0  0  0  0  0  0
  133.7540  126.0181   63.3955 H   0  0  0  0  0  0  0  0  0  0  0  0
  135.4380  124.9880   61.3830 H   0  0  0  0  0  0  0  0  0  0  0  0
  130.1423  120.2244   60.8733 H   0  0  0  0  0  0  0  0  0  0  0  0
  129.7751  121.0341   62.4623 H   0  0  0  0  0  0  0  0  0  0  0  0
  128.5226  123.1305   62.5574 H   0  0  0  0  0  0  0  0  0  0  0  0
  126.7647  124.5261   61.4726 H   0  0  0  0  0  0  0  0  0  0  0  0
  126.2266  124.2041   59.0576 H   0  0  0  0  0  0  0  0  0  0  0  0
  129.1986  121.0772   58.8117 H   0  0  0  0  0  0  0  0  0  0  0  0
  129.9910  123.9017   62.9443 H   0  0  0  0  0  0  0  0  0  0  0  0
  131.2580  125.0821   65.9777 H   0  0  0  0  0  0  0  0  0  0  0  0
  132.5786  126.2893   65.6742 H   0  0  0  0  0  0  0  0  0  0  0  0
  130.9430  126.9728   67.4820 H   0  0  0  0  0  0  0  0  0  0  0  0
  131.0877  128.1378   66.1104 H   0  0  0  0  0  0  0  0  0  0  0  0
  125.5162  127.9256   66.4750 H   0  0  0  0  0  0  0  0  0  0  0  0
  124.2500  129.3498   64.8635 H   0  0  0  0  0  0  0  0  0  0  0  0
  1  2  2  0
  2  3  2  0
  2  4  1  0
  4  5  1  0
  5  6  1  0
  6  7  1  0
  7  8  1  0
  8  9  1  0
  9 10  1  0
 10 11  1  0
  2 12  1  0
 12 13  2  0
 13 14  1  0
 14 15  2  0
 15 16  1  0
 16 17  2  0
 16 18  2  0
 16 19  1  0
 19 20  1  0
 20 21  1  0
 21 22  1  0
 22 23  1  0
 23 24  2  0
 24 25  1  0
 25 26  1  0
 25 27  2  0
 27 28  1  0
 28 29  2  0
 29 30  1  0
 30 31  1  0
 31 32  1  0
 32 33  2  0
 33 34  1  0
 34 35  2  0
 35 36  1  0
 36 37  1  0
 36 38  2  0
 30 39  1  0
 39 40  2  0
 22 41  1  0
 41 42  1  0
 15 43  1  0
 43 44  2  0
 11  5  1  0
 44 12  1  0
 42 19  1  0
 40 23  1  0
 39 27  1  0
 38 32  1  0
  4 45  1  0
  5 46  1  0
  6 47  1  0
  6 48  1  0
  7 49  1  0
  7 50  1  0
  8 51  1  0
  8 52  1  0
  9 53  1  0
  9 54  1  0
 10 55  1  0
 10 56  1  0
 11 57  1  0
 11 58  1  0
 13 59  1  0
 14 60  1  0
 20 61  1  0
 20 62  1  0
 21 63  1  0
 21 64  1  0
 22 65  1  0
 24 66  1  0
 26 67  1  0
 31 68  1  0
 31 69  1  0
 33 70  1  0
 34 71  1  0
 35 72  1  0
 38 73  1  0
 40 74  1  0
 41 75  1  0
 41 76  1  0
 42 77  1  0
 42 78  1  0
 43 79  1  0
 44 80  1  0
M  END
>  <Binding energies>  (1) 
[-8.98]

>  <Ligand effiencies>  (1) 
[-0.18708333333333335]

>  <Interactions>  (1) 
["V-B:TYR:539:CE2:9845, V-A:HIS:456:CE1:4066, V-B:TYR:539:CG:9841, V-B:TYR:539:CD1:9842, V-B:TYR:539:CZ:9846, V-A:GLY:453:C:4038, V-B:PRO:540:CA:9852, V-A:ARG:545:CZ:4923, V-A:GLY:453:CA:4040, V-B:ALA:541:CB:9861, H-A:GLY:454:N:4046, V-B:TYR:539:C:9836, V-B:PRO:540:N:9853, V-B:TYR:539:CD2:9843, V-A:ASP:366:CG:3209, V-A:GLU:543:CB:4903, V-B:GLU:543:CD:9877, V-B:HIS:456:CE1:9038, V-A:GLU:543:CD:4905, H-A:ARG:545:NH1:4924, V-A:LEU:475:CD1:4254, H-A:ASP:366:OD2:3211, H-B:GLY:454:N:9018, V-B:ARG:545:CZ:9895, H-B:TYR:484:OH:9316, V-A:GLU:543:CG:4904, V-B:ASP:366:CG:8181"]

$$$$
RR17_Rahimova_2017
     RDKit          3D

 63 66  0  0  0  0  0  0  0  0999 V2000
  129.7170  132.0560   59.1910 C   0  0  0  0  0  0  0  0  0  0  0  0
  129.8150  132.0060   60.7190 C   0  0  0  0  0  0  0  0  0  0  0  0
  128.7490  132.7740   61.2710 O   0  0  0  0  0  0  0  0  0  0  0  0
  127.8890  132.1850   62.1800 C   0  0  0  0  0  0  0  0  0  0  0  0
  127.6330  130.8270   62.0040 C   0  0  0  0  0  0  0  0  0  0  0  0
  126.7790  130.1490   62.8690 C   0  0  0  0  0  0  0  0  0  0  0  0
  126.1610  130.8200   63.9330 C   0  0  0  0  0  0  0  0  0  0  0  0
  125.2460  130.0620   64.8500 C   0  0  0  0  0  0  0  0  0  0  0  0
  124.0190  130.1950   64.8180 O   0  0  0  0  0  0  0  0  0  0  0  0
  125.9070  129.1030   65.8660 C   0  0  0  0  0  0  0  0  0  0  0  0
  127.6510  129.5450   66.1950 S   0  0  0  0  0  0  0  0  0  0  0  0
  128.4480  128.0580   65.6600 C   0  0  0  0  0  0  0  0  0  0  0  0
  128.4830  127.6160   64.4250 N   0  0  0  0  0  0  0  0  0  0  0  0
  129.2070  126.4300   64.4170 N   0  0  0  0  0  0  0  0  0  0  0  0
  129.5860  126.2020   65.6490 C   0  0  0  0  0  0  0  0  0  0  0  0
  130.4180  125.0060   66.0890 C   0  0  0  0  0  0  0  0  0  0  0  0
  130.4550  123.9210   65.1110 N   0  0  0  0  0  0  0  0  0  0  0  0
  131.4470  123.7960   64.1220 C   0  0  0  0  0  0  0  0  0  0  0  0
  131.4550  122.6240   63.3650 C   0  0  0  0  0  0  0  0  0  0  0  0
  132.4130  122.4340   62.3730 C   0  0  0  0  0  0  0  0  0  0  0  0
  133.3740  123.4170   62.1230 C   0  0  0  0  0  0  0  0  0  0  0  0
  134.4220  123.1900   61.0340 C   0  0  0  0  0  0  0  0  0  0  0  0
  135.5860  123.7750   61.3230 F   0  0  0  0  0  0  0  0  0  0  0  0
  134.6470  121.8850   60.8710 F   0  0  0  0  0  0  0  0  0  0  0  0
  133.9740  123.6930   59.8840 F   0  0  0  0  0  0  0  0  0  0  0  0
  133.3620  124.5970   62.8750 C   0  0  0  0  0  0  0  0  0  0  0  0
  132.4040  124.7870   63.8660 C   0  0  0  0  0  0  0  0  0  0  0  0
  129.1270  127.1920   66.4930 N   0  0  0  0  0  0  0  0  0  0  0  0
  129.3330  127.3070   67.8760 C   0  0  0  0  0  0  0  0  0  0  0  0
  130.5090  127.8890   68.3500 C   0  0  0  0  0  0  0  0  0  0  0  0
  130.7150  128.0000   69.7220 C   0  0  0  0  0  0  0  0  0  0  0  0
  129.7460  127.5280   70.6240 C   0  0  0  0  0  0  0  0  0  0  0  0
  129.8650  127.5960   71.9990 O   0  0  0  0  0  0  0  0  0  0  0  0
  128.8430  127.0290   72.8130 C   0  0  0  0  0  0  0  0  0  0  0  0
  128.5760  126.9460   70.1310 C   0  0  0  0  0  0  0  0  0  0  0  0
  128.3640  126.8330   68.7600 C   0  0  0  0  0  0  0  0  0  0  0  0
  126.4200  132.1870   64.1100 C   0  0  0  0  0  0  0  0  0  0  0  0
  127.2760  132.8640   63.2430 C   0  0  0  0  0  0  0  0  0  0  0  0
  128.7721  132.5381   58.8998 H   0  0  0  0  0  0  0  0  0  0  0  0
  130.5624  132.6329   58.7880 H   0  0  0  0  0  0  0  0  0  0  0  0
  129.7461  131.0329   58.7880 H   0  0  0  0  0  0  0  0  0  0  0  0
  129.7358  130.9635   61.0610 H   0  0  0  0  0  0  0  0  0  0  0  0
  130.7814  132.4172   61.0460 H   0  0  0  0  0  0  0  0  0  0  0  0
  128.1102  130.2856   61.1738 H   0  0  0  0  0  0  0  0  0  0  0  0
  126.5874  129.0767   62.7161 H   0  0  0  0  0  0  0  0  0  0  0  0
  125.3458  129.1458   66.8111 H   0  0  0  0  0  0  0  0  0  0  0  0
  125.8893  128.0903   65.4370 H   0  0  0  0  0  0  0  0  0  0  0  0
  131.4484  125.3472   66.2675 H   0  0  0  0  0  0  0  0  0  0  0  0
  129.9446  124.6031   66.9965 H   0  0  0  0  0  0  0  0  0  0  0  0
  129.6240  123.3570   65.0130 H   0  0  0  0  0  0  0  0  0  0  0  0
  130.7004  121.8461   63.5530 H   0  0  0  0  0  0  0  0  0  0  0  0
  132.4134  121.5055   61.7831 H   0  0  0  0  0  0  0  0  0  0  0  0
  134.1128  125.3774   62.6819 H   0  0  0  0  0  0  0  0  0  0  0  0
  132.3979  125.7187   64.4507 H   0  0  0  0  0  0  0  0  0  0  0  0
  131.2681  128.2576   67.6443 H   0  0  0  0  0  0  0  0  0  0  0  0
  131.6397  128.4589   70.1018 H   0  0  0  0  0  0  0  0  0  0  0  0
  129.0982  127.1706   73.8736 H   0  0  0  0  0  0  0  0  0  0  0  0
  127.8850  127.5246   72.5970 H   0  0  0  0  0  0  0  0  0  0  0  0
  128.7565  125.9539   72.5970 H   0  0  0  0  0  0  0  0  0  0  0  0
  127.8151  126.5735   70.8326 H   0  0  0  0  0  0  0  0  0  0  0  0
  127.4405  126.3740   68.3772 H   0  0  0  0  0  0  0  0  0  0  0  0
  125.9436  132.7294   64.9400 H   0  0  0  0  0  0  0  0  0  0  0  0
  127.4717  133.9360   63.3933 H   0  0  0  0  0  0  0  0  0  0  0  0
  1  2  1  0
  2  3  1  0
  3  4  1  0
  4  5  2  0
  5  6  1  0
  6  7  2  0
  7  8  1  0
  8  9  2  0
  8 10  1  0
 10 11  1  0
 11 12  1  0
 12 13  2  0
 13 14  1  0
 14 15  2  0
 15 16  1  0
 16 17  1  0
 17 18  1  0
 18 19  2  0
 19 20  1  0
 20 21  2  0
 21 22  1  0
 22 23  1  0
 22 24  1  0
 22 25  1  0
 21 26  1  0
 26 27  2  0
 15 28  1  0
 28 29  1  0
 29 30  2  0
 30 31  1  0
 31 32  2  0
 32 33  1  0
 33 34  1  0
 32 35  1  0
 35 36  2  0
  7 37  1  0
 37 38  2  0
 38  4  1  0
 28 12  1  0
 36 29  1  0
 27 18  1  0
  1 39  1  0
  1 40  1  0
  1 41  1  0
  2 42  1  0
  2 43  1  0
  5 44  1  0
  6 45  1  0
 10 46  1  0
 10 47  1  0
 16 48  1  0
 16 49  1  0
 17 50  1  0
 19 51  1  0
 20 52  1  0
 26 53  1  0
 27 54  1  0
 30 55  1  0
 31 56  1  0
 34 57  1  0
 34 58  1  0
 34 59  1  0
 35 60  1  0
 36 61  1  0
 37 62  1  0
 38 63  1  0
M  END
>  <Binding energies>  (1) 
[-8.35]

>  <Ligand effiencies>  (1) 
[-0.2141025641025641]

>  <Interactions>  (1) 
["V-A:HIS:456:CE1:4066, V-A:GLY:453:C:4038, V-A:ARG:545:CZ:4923, V-A:GLY:453:CA:4040, H-A:TYR:484:OH:4344, V-A:GLY:454:CA:4045, V-A:ASP:366:CG:3209, V-A:TYR:484:CE1:4341, V-B:HIS:456:CD2:9036, V-A:GLU:543:CB:4903, H-A:LYS:547:NZ:4948, V-B:LYS:547:CE:9919, V-B:GLU:543:CD:9877, V-A:GLU:543:C:4899, V-B:HIS:456:CE1:9038, V-A:TYR:484:CZ:4343, V-B:GLU:543:CG:9876, V-A:GLY:544:C:4909, V-A:GLU:543:CD:4905, V-A:ILE:369:CB:3232, V-A:LEU:475:CD1:4254, V-A:ILE:369:CG2:3233, V-A:ILE:369:CG1:3234, H-B:GLY:454:N:9018, H-B:TYR:484:OH:9316, V-A:ASP:366:CB:3208, H-A:ALA:541:N:4888, V-A:PRO:540:N:4881, V-A:PRO:540:CA:4880, V-A:TYR:539:C:4864, V-A:ALA:541:CB:4889, V-B:LEU:475:CD2:9227, V-A:ASP:366:CA:3206, V-A:ILE:369:CD1:3235"]

$$$$
RR18_Rahimova_2017
     RDKit          3D

 56 61  0  0  0  0  0  0  0  0999 V2000
  133.7720  125.0310   65.2520 C   0  0  0  0  0  0  0  0  0  0  0  0
  132.6880  125.1510   64.2110 C   0  0  0  0  0  0  0  0  0  0  0  0
  132.6560  125.0260   62.8310 C   0  0  0  0  0  0  0  0  0  0  0  0
  131.3380  125.2540   62.4370 C   0  0  0  0  0  0  0  0  0  0  0  0
  130.6120  125.5100   63.5890 C   0  0  0  0  0  0  0  0  0  0  0  0
  129.1450  125.8240   63.8670 C   0  0  1  0  0  0  0  0  0  0  0  0
  128.9900  126.8310   65.0450 C   0  0  0  0  0  0  0  0  0  0  0  0
  129.3970  126.4560   66.3960 C   0  0  0  0  0  0  0  0  0  0  0  0
  129.8460  125.3370   66.6520 O   0  0  0  0  0  0  0  0  0  0  0  0
  129.2530  127.4420   67.3120 N   0  0  0  0  0  0  0  0  0  0  0  0
  129.5180  127.4450   68.6990 C   0  0  0  0  0  0  0  0  0  0  0  0
  130.6860  127.9890   69.2630 C   0  0  0  0  0  0  0  0  0  0  0  0
  130.8900  127.9540   70.6410 C   0  0  0  0  0  0  0  0  0  0  0  0
  129.9400  127.3720   71.4740 C   0  0  0  0  0  0  0  0  0  0  0  0
  128.7840  126.8180   70.9280 C   0  0  0  0  0  0  0  0  0  0  0  0
  128.5650  126.8460   69.5470 C   0  0  0  0  0  0  0  0  0  0  0  0
  127.2850  126.2220   68.9990 C   0  0  0  0  0  0  0  0  0  0  0  0
  128.5660  128.0920   64.7680 C   0  0  0  0  0  0  0  0  0  0  0  0
  128.1470  128.5190   63.5440 N   0  0  0  0  0  0  0  0  0  0  0  0
  128.0600  127.6800   62.5790 C   0  0  0  0  0  0  0  0  0  0  0  0
  127.4000  128.0460   61.0030 S   0  0  0  0  0  0  0  0  0  0  0  0
  127.6610  126.3640   60.4450 C   0  0  0  0  0  0  0  0  0  0  0  0
  127.3590  125.8410   59.2060 C   0  0  0  0  0  0  0  0  0  0  0  0
  126.6790  126.6670   58.1970 C   0  0  0  0  0  0  0  0  0  0  0  0
  126.3190  127.8430   58.2480 O   0  0  0  0  0  0  0  0  0  0  0  0
  126.4680  125.8950   57.1260 N   0  0  0  0  0  0  0  0  0  0  0  0
  126.9610  124.6340   57.2750 C   0  0  0  0  0  0  0  0  0  0  0  0
  126.9240  123.5880   56.3530 C   0  0  0  0  0  0  0  0  0  0  0  0
  127.5170  122.3750   56.6900 C   0  0  0  0  0  0  0  0  0  0  0  0
  128.1410  122.2320   57.9280 C   0  0  0  0  0  0  0  0  0  0  0  0
  128.1640  123.2950   58.8350 C   0  0  0  0  0  0  0  0  0  0  0  0
  127.5490  124.5220   58.5230 C   0  0  0  0  0  0  0  0  0  0  0  0
  128.2480  125.6070   61.5510 C   0  0  0  0  0  0  0  0  0  0  0  0
  128.5160  124.4090   61.5550 O   0  0  0  0  0  0  0  0  0  0  0  0
  128.4640  126.3850   62.6460 N   0  0  0  0  0  0  0  0  0  0  0  0
  131.4420  125.4450   64.6650 O   0  0  0  0  0  0  0  0  0  0  0  0
  133.3239  125.0806   66.2554 H   0  0  0  0  0  0  0  0  0  0  0  0
  134.2927  124.0697   65.1301 H   0  0  0  0  0  0  0  0  0  0  0  0
  134.4903  125.8551   65.1301 H   0  0  0  0  0  0  0  0  0  0  0  0
  133.5063  124.7921   62.1735 H   0  0  0  0  0  0  0  0  0  0  0  0
  130.9490  125.2344   61.4083 H   0  0  0  0  0  0  0  0  0  0  0  0
  128.6657  124.8732   64.1434 H   0  0  0  0  0  0  0  0  0  0  0  0
  128.9550  128.3350   66.9520 H   0  0  0  0  0  0  0  0  0  0  0  0
  131.4448  128.4459   68.6108 H   0  0  0  0  0  0  0  0  0  0  0  0
  131.8047  128.3878   71.0713 H   0  0  0  0  0  0  0  0  0  0  0  0
  130.1011  127.3492   72.5619 H   0  0  0  0  0  0  0  0  0  0  0  0
  128.0369  126.3545   71.5891 H   0  0  0  0  0  0  0  0  0  0  0  0
  126.6426  125.9088   69.8352 H   0  0  0  0  0  0  0  0  0  0  0  0
  126.7512  126.9610   68.3834 H   0  0  0  0  0  0  0  0  0  0  0  0
  127.5384  125.3463   68.3834 H   0  0  0  0  0  0  0  0  0  0  0  0
  128.5607  128.8209   65.5918 H   0  0  0  0  0  0  0  0  0  0  0  0
  126.0090  126.2260   56.2900 H   0  0  0  0  0  0  0  0  0  0  0  0
  126.4347  123.7196   55.3767 H   0  0  0  0  0  0  0  0  0  0  0  0
  127.4934  121.5330   55.9826 H   0  0  0  0  0  0  0  0  0  0  0  0
  128.6182  121.2769   58.1927 H   0  0  0  0  0  0  0  0  0  0  0  0
  128.6688  123.1713   59.8044 H   0  0  0  0  0  0  0  0  0  0  0  0
  1  2  1  0
  2  3  2  0
  3  4  1  0
  4  5  2  0
  5  6  1  0
  6  7  1  0
  7  8  1  0
  8  9  2  0
  8 10  1  0
 10 11  1  0
 11 12  2  0
 12 13  1  0
 13 14  2  0
 14 15  1  0
 15 16  2  0
 16 17  1  0
  7 18  2  0
 18 19  1  0
 19 20  2  0
 20 21  1  0
 21 22  1  0
 22 23  2  0
 23 24  1  0
 24 25  2  0
 24 26  1  0
 26 27  1  0
 27 28  2  0
 28 29  1  0
 29 30  2  0
 30 31  1  0
 31 32  2  0
 22 33  1  0
 33 34  2  0
 33 35  1  0
  5 36  1  0
 36  2  1  0
 35  6  1  0
 16 11  1  0
 35 20  1  0
 32 23  1  0
 32 27  1  0
  1 37  1  0
  1 38  1  0
  1 39  1  0
  3 40  1  0
  4 41  1  0
  6 42  1  1
 10 43  1  0
 12 44  1  0
 13 45  1  0
 14 46  1  0
 15 47  1  0
 17 48  1  0
 17 49  1  0
 17 50  1  0
 18 51  1  0
 26 52  1  0
 28 53  1  0
 29 54  1  0
 30 55  1  0
 31 56  1  0
M  END
>  <Binding energies>  (1) 
[-8.77]

>  <Ligand effiencies>  (1) 
[-0.23078947368421052]

>  <Interactions>  (1) 
["V-B:TYR:539:CE2:9845, V-A:HIS:456:CE1:4066, V-B:TYR:539:CG:9841, V-B:TYR:539:CD1:9842, V-B:TYR:539:CZ:9846, V-B:PRO:540:CA:9852, V-A:ARG:545:CZ:4923, V-B:TYR:539:CE1:9844, V-A:ARG:545:CD:4920, V-B:TYR:539:C:9836, H-A:TYR:484:OH:4344, V-A:GLY:454:CA:4045, V-B:PRO:540:N:9853, V-B:TYR:539:CD2:9843, V-B:HIS:456:CD2:9036, V-A:GLU:543:CB:4903, V-B:GLY:544:C:9881, V-B:GLU:543:CB:9875, V-B:GLU:543:CD:9877, V-A:GLU:543:C:4899, V-B:HIS:456:CE1:9038, V-B:GLU:543:CG:9876, V-A:GLY:544:C:4909, V-A:GLU:543:CD:4905, V-B:MET:535:CE:9804, V-A:HIS:456:CD2:4064, V-B:GLU:543:C:9871, H-B:TYR:531:OH:9764, H-B:HIS:456:NE2:9039, H-B:MET:535:SD:9803"]

$$$$
RR19_Rahimova_2017
     RDKit          3D

 72 77  0  0  0  0  0  0  0  0999 V2000
  129.5360  121.0080   61.5220 O   0  0  0  0  0  0  0  0  0  0  0  0
  129.4860  122.2300   61.3580 C   0  0  0  0  0  0  0  0  0  0  0  0
  129.5620  123.1700   62.3350 N   0  0  0  0  0  0  0  0  0  0  0  0
  129.9130  123.1140   63.6620 C   0  0  0  0  0  0  0  0  0  0  0  0
  130.6250  121.7880   64.4380 S   0  0  0  0  0  0  0  0  0  0  0  0
  129.5930  124.3110   64.2520 N   0  0  0  0  0  0  0  0  0  0  0  0
  129.8470  124.8350   65.4780 C   0  0  0  0  0  0  0  0  0  0  0  0
  130.6230  124.3800   66.3210 O   0  0  0  0  0  0  0  0  0  0  0  0
  129.0340  126.1150   65.7950 C   0  0  2  0  0  0  0  0  0  0  0  0
  129.2620  127.2950   64.8060 C   0  0  0  0  0  0  0  0  0  0  0  0
  128.1250  128.3010   64.7250 C   0  0  0  0  0  0  0  0  0  0  0  0
  127.1610  128.2240   63.6970 C   0  0  0  0  0  0  0  0  0  0  0  0
  126.0860  129.1020   63.6850 C   0  0  0  0  0  0  0  0  0  0  0  0
  125.9430  130.0490   64.6920 C   0  0  0  0  0  0  0  0  0  0  0  0
  126.8680  130.1170   65.7270 C   0  0  0  0  0  0  0  0  0  0  0  0
  127.9490  129.2460   65.7590 C   0  0  0  0  0  0  0  0  0  0  0  0
  129.2270  126.5420   67.2080 N   0  0  0  0  0  0  0  0  0  0  0  0
  130.4090  127.0710   67.6340 C   0  0  0  0  0  0  0  0  0  0  0  0
  131.4350  127.2370   66.9710 O   0  0  0  0  0  0  0  0  0  0  0  0
  130.2000  127.4080   69.0630 C   0  0  0  0  0  0  0  0  0  0  0  0
  131.0630  127.9700   70.0060 C   0  0  0  0  0  0  0  0  0  0  0  0
  130.5870  128.1880   71.3040 C   0  0  0  0  0  0  0  0  0  0  0  0
  129.2690  127.8480   71.6390 C   0  0  0  0  0  0  0  0  0  0  0  0
  128.4190  127.2870   70.6780 C   0  0  0  0  0  0  0  0  0  0  0  0
  128.9140  127.0760   69.3910 C   0  0  0  0  0  0  0  0  0  0  0  0
  128.2650  126.5180   68.1790 C   0  0  0  0  0  0  0  0  0  0  0  0
  127.1020  126.1260   68.0720 O   0  0  0  0  0  0  0  0  0  0  0  0
  129.3070  122.8040   59.9270 C   0  0  2  0  0  0  0  0  0  0  0  0
  130.3740  123.8670   59.5360 C   0  0  0  0  0  0  0  0  0  0  0  0
  131.4840  124.0310   60.5580 C   0  0  0  0  0  0  0  0  0  0  0  0
  132.5940  123.1580   60.5430 C   0  0  0  0  0  0  0  0  0  0  0  0
  133.6560  123.3720   61.4120 C   0  0  0  0  0  0  0  0  0  0  0  0
  133.6450  124.4570   62.2780 C   0  0  0  0  0  0  0  0  0  0  0  0
  132.5780  125.3470   62.2770 C   0  0  0  0  0  0  0  0  0  0  0  0
  131.5050  125.1500   61.4160 C   0  0  0  0  0  0  0  0  0  0  0  0
  127.9240  123.2920   59.6550 N   0  0  0  0  0  0  0  0  0  0  0  0
  127.3240  124.2230   60.4470 C   0  0  0  0  0  0  0  0  0  0  0  0
  127.7890  124.7580   61.4540 O   0  0  0  0  0  0  0  0  0  0  0  0
  125.9900  124.4560   59.8380 C   0  0  0  0  0  0  0  0  0  0  0  0
  124.9440  125.2980   60.2220 C   0  0  0  0  0  0  0  0  0  0  0  0
  123.7810  125.3170   59.4440 C   0  0  0  0  0  0  0  0  0  0  0  0
  123.6790  124.5070   58.3060 C   0  0  0  0  0  0  0  0  0  0  0  0
  124.7400  123.6720   57.9360 C   0  0  0  0  0  0  0  0  0  0  0  0
  125.8910  123.6660   58.7270 C   0  0  0  0  0  0  0  0  0  0  0  0
  127.1570  122.9050   58.5930 C   0  0  0  0  0  0  0  0  0  0  0  0
  127.4530  122.0980   57.7110 O   0  0  0  0  0  0  0  0  0  0  0  0
  129.4220  124.1100   61.9960 H   0  0  0  0  0  0  0  0  0  0  0  0
  128.9660  124.8780   63.7000 H   0  0  0  0  0  0  0  0  0  0  0  0
  127.9819  125.8277   65.6517 H   0  0  0  0  0  0  0  0  0  0  0  0
  130.1694  127.8317   65.1200 H   0  0  0  0  0  0  0  0  0  0  0  0
  129.3420  126.8438   63.8060 H   0  0  0  0  0  0  0  0  0  0  0  0
  127.2617  127.4676   62.9047 H   0  0  0  0  0  0  0  0  0  0  0  0
  125.3439  129.0480   62.8748 H   0  0  0  0  0  0  0  0  0  0  0  0
  125.0939  130.7479   64.6698 H   0  0  0  0  0  0  0  0  0  0  0  0
  126.7432  130.8642   66.5245 H   0  0  0  0  0  0  0  0  0  0  0  0
  128.6682  129.2923   66.5900 H   0  0  0  0  0  0  0  0  0  0  0  0
  132.0953  128.2358   69.7344 H   0  0  0  0  0  0  0  0  0  0  0  0
  131.2496  128.6277   72.0640 H   0  0  0  0  0  0  0  0  0  0  0  0
  128.9010  128.0226   72.6608 H   0  0  0  0  0  0  0  0  0  0  0  0
  127.3831  127.0184   70.9325 H   0  0  0  0  0  0  0  0  0  0  0  0
  129.4773  121.9398   59.2681 H   0  0  0  0  0  0  0  0  0  0  0  0
  130.8262  123.5677   58.5790 H   0  0  0  0  0  0  0  0  0  0  0  0
  129.8528  124.8337   59.4737 H   0  0  0  0  0  0  0  0  0  0  0  0
  132.6174  122.3093   59.8436 H   0  0  0  0  0  0  0  0  0  0  0  0
  134.5099  122.6785   61.4141 H   0  0  0  0  0  0  0  0  0  0  0  0
  134.4863  124.6131   62.9693 H   0  0  0  0  0  0  0  0  0  0  0  0
  132.5826  126.2097   62.9594 H   0  0  0  0  0  0  0  0  0  0  0  0
  130.6714  125.8676   61.4038 H   0  0  0  0  0  0  0  0  0  0  0  0
  125.0324  125.9323   61.1163 H   0  0  0  0  0  0  0  0  0  0  0  0
  122.9432  125.9710   59.7275 H   0  0  0  0  0  0  0  0  0  0  0  0
  122.7611  124.5270   57.7002 H   0  0  0  0  0  0  0  0  0  0  0  0
  124.6687  123.0348   57.0422 H   0  0  0  0  0  0  0  0  0  0  0  0
  1  2  2  0
  2  3  1  0
  3  4  1  0
  4  5  2  0
  4  6  1  0
  6  7  1  0
  7  8  2  0
  7  9  1  0
  9 10  1  0
 10 11  1  0
 11 12  2  0
 12 13  1  0
 13 14  2  0
 14 15  1  0
 15 16  2  0
  9 17  1  0
 17 18  1  0
 18 19  2  0
 18 20  1  0
 20 21  2  0
 21 22  1  0
 22 23  2  0
 23 24  1  0
 24 25  2  0
 25 26  1  0
 26 27  2  0
  2 28  1  0
 28 29  1  0
 29 30  1  0
 30 31  2  0
 31 32  1  0
 32 33  2  0
 33 34  1  0
 34 35  2  0
 28 36  1  0
 36 37  1  0
 37 38  2  0
 37 39  1  0
 39 40  2  0
 40 41  1  0
 41 42  2  0
 42 43  1  0
 43 44  2  0
 44 45  1  0
 45 46  2  0
 16 11  1  0
 26 17  1  0
 35 30  1  0
 45 36  1  0
 25 20  1  0
 44 39  1  0
  3 47  1  0
  6 48  1  0
  9 49  1  1
 10 50  1  0
 10 51  1  0
 12 52  1  0
 13 53  1  0
 14 54  1  0
 15 55  1  0
 16 56  1  0
 21 57  1  0
 22 58  1  0
 23 59  1  0
 24 60  1  0
 28 61  1  6
 29 62  1  0
 29 63  1  0
 31 64  1  0
 32 65  1  0
 33 66  1  0
 34 67  1  0
 35 68  1  0
 40 69  1  0
 41 70  1  0
 42 71  1  0
 43 72  1  0
M  END
>  <Binding energies>  (1) 
[-11.08]

>  <Ligand effiencies>  (1) 
[-0.23083333333333333]

>  <Interactions>  (1) 
["V-B:TYR:539:CE2:9845, V-A:HIS:456:CE1:4066, V-B:TYR:539:CZ:9846, V-B:PRO:540:CA:9852, V-A:ARG:545:CZ:4923, V-B:ALA:541:CB:9861, V-B:ASN:362:C:8140, H-A:TYR:484:OH:4344, V-B:PRO:540:N:9853, V-B:PRO:540:CB:9854, V-B:TYR:539:CD2:9843, V-A:ASP:366:CG:3209, H-B:GLU:543:OE2:9879, V-A:TYR:484:CE1:4341, V-B:HIS:456:CD2:9036, V-A:GLU:543:CB:4903, V-B:GLU:543:CB:9875, V-B:GLU:543:CD:9877, V-A:GLU:543:C:4899, V-B:HIS:456:CE1:9038, V-A:TYR:484:CZ:4343, V-B:GLU:543:CG:9876, V-A:GLY:544:C:4909, V-A:GLU:543:CD:4905, V-B:LEU:363:CA:8153, V-A:LEU:475:CD1:4254, V-B:ARG:545:CZ:9895, V-A:GLU:543:CG:4904, H-B:TYR:539:N:9839, V-A:LEU:475:CD2:4255, V-A:HIS:456:CD2:4064, H-B:GLU:543:OE1:9878, V-B:LEU:363:CD1:8157, V-B:LEU:363:CB:8155, V-B:ASP:366:CG:8181, V-B:ASP:366:CB:8180, V-B:TYR:484:CZ:9315, V-A:LEU:475:CG:4253, V-A:GLY:544:CA:4911"]

$$$$
RR19_Rahimova_2017-again1
     RDKit          3D

 71 76  0  0  0  0  0  0  0  0999 V2000
  130.1750  121.1390   61.6560 O   0  0  0  0  0  0  0  0  0  0  0  0
  129.7490  122.2870   61.5040 C   0  0  0  0  0  0  0  0  0  0  0  0
  129.3840  123.1330   62.4970 N   0  0  0  0  0  0  0  0  0  0  0  0
  129.4950  123.0710   63.8570 C   0  0  0  0  0  0  0  0  0  0  0  0
  130.0420  121.8280   64.8460 S   0  0  0  0  0  0  0  0  0  0  0  0
  129.1300  124.3150   64.3410 N   0  0  0  0  0  0  0  0  0  0  0  0
  129.7880  125.1150   65.1160 C   0  0  0  0  0  0  0  0  0  0  0  0
  130.9470  125.0310   65.5690 O   0  0  0  0  0  0  0  0  0  0  0  0
  129.0080  126.3910   65.5810 C   0  0  2  0  0  0  0  0  0  0  0  0
  129.1460  127.5540   64.5420 C   0  0  0  0  0  0  0  0  0  0  0  0
  127.8810  128.3870   64.3510 C   0  0  0  0  0  0  0  0  0  0  0  0
  127.2170  128.3740   63.1220 C   0  0  0  0  0  0  0  0  0  0  0  0
  126.0550  129.1210   62.9510 C   0  0  0  0  0  0  0  0  0  0  0  0
  125.5620  129.8830   64.0100 C   0  0  0  0  0  0  0  0  0  0  0  0
  126.2230  129.9040   65.2370 C   0  0  0  0  0  0  0  0  0  0  0  0
  127.3850  129.1570   65.4070 C   0  0  0  0  0  0  0  0  0  0  0  0
  129.2930  126.7850   67.0000 N   0  0  0  0  0  0  0  0  0  0  0  0
  128.3540  126.6540   67.9790 C   0  0  0  0  0  0  0  0  0  0  0  0
  127.2020  126.2340   67.8600 O   0  0  0  0  0  0  0  0  0  0  0  0
  129.0130  127.1280   69.2230 C   0  0  0  0  0  0  0  0  0  0  0  0
  128.5350  127.2250   70.5310 C   0  0  0  0  0  0  0  0  0  0  0  0
  129.3930  127.7160   71.5220 C   0  0  0  0  0  0  0  0  0  0  0  0
  130.7020  128.0960   71.1990 C   0  0  0  0  0  0  0  0  0  0  0  0
  131.1620  127.9900   69.8820 C   0  0  0  0  0  0  0  0  0  0  0  0
  130.2900  127.5000   68.9080 C   0  0  0  0  0  0  0  0  0  0  0  0
  130.4860  127.2760   67.4560 C   0  0  0  0  0  0  0  0  0  0  0  0
  131.5080  127.4860   66.8040 O   0  0  0  0  0  0  0  0  0  0  0  0
  129.5940  122.8670   60.0680 C   0  0  2  0  0  0  0  0  0  0  0  0
  130.6270  123.9790   59.7270 C   0  0  0  0  0  0  0  0  0  0  0  0
  131.6990  124.1710   60.7840 C   0  0  0  0  0  0  0  0  0  0  0  0
  132.9360  123.5020   60.6670 C   0  0  0  0  0  0  0  0  0  0  0  0
  133.9520  123.7530   61.5800 C   0  0  0  0  0  0  0  0  0  0  0  0
  133.7660  124.6830   62.5960 C   0  0  0  0  0  0  0  0  0  0  0  0
  132.5670  125.3770   62.7010 C   0  0  0  0  0  0  0  0  0  0  0  0
  131.5390  125.1400   61.7970 C   0  0  0  0  0  0  0  0  0  0  0  0
  128.1970  123.2740   59.7230 N   0  0  0  0  0  0  0  0  0  0  0  0
  127.5770  124.3090   60.3580 C   0  0  0  0  0  0  0  0  0  0  0  0
  128.0070  124.9700   61.3040 O   0  0  0  0  0  0  0  0  0  0  0  0
  126.2780  124.4780   59.6620 C   0  0  0  0  0  0  0  0  0  0  0  0
  125.2400  125.3870   59.8720 C   0  0  0  0  0  0  0  0  0  0  0  0
  124.1200  125.3290   59.0360 C   0  0  0  0  0  0  0  0  0  0  0  0
  124.0500  124.3730   58.0140 C   0  0  0  0  0  0  0  0  0  0  0  0
  125.1000  123.4670   57.8210 C   0  0  0  0  0  0  0  0  0  0  0  0
  126.2090  123.5440   58.6650 C   0  0  0  0  0  0  0  0  0  0  0  0
  127.4670  122.7570   58.6910 C   0  0  0  0  0  0  0  0  0  0  0  0
  127.7880  121.8410   57.9320 O   0  0  0  0  0  0  0  0  0  0  0  0
  129.0390  124.0220   62.1670 H   0  0  0  0  0  0  0  0  0  0  0  0
  127.9400  126.1285   65.6010 H   0  0  0  0  0  0  0  0  0  0  0  0
  129.9502  128.2236   64.8809 H   0  0  0  0  0  0  0  0  0  0  0  0
  129.3589  127.0822   63.5714 H   0  0  0  0  0  0  0  0  0  0  0  0
  127.6124  127.7735   62.2895 H   0  0  0  0  0  0  0  0  0  0  0  0
  125.5282  129.1104   61.9854 H   0  0  0  0  0  0  0  0  0  0  0  0
  124.6432  130.4728   63.8757 H   0  0  0  0  0  0  0  0  0  0  0  0
  125.8281  130.5081   66.0671 H   0  0  0  0  0  0  0  0  0  0  0  0
  127.9129  129.1725   66.3720 H   0  0  0  0  0  0  0  0  0  0  0  0
  127.5066  126.9222   70.7775 H   0  0  0  0  0  0  0  0  0  0  0  0
  129.0377  127.8039   72.5593 H   0  0  0  0  0  0  0  0  0  0  0  0
  131.3708  128.4792   71.9838 H   0  0  0  0  0  0  0  0  0  0  0  0
  132.1883  128.2863   69.6196 H   0  0  0  0  0  0  0  0  0  0  0  0
  129.8304  122.0156   59.4129 H   0  0  0  0  0  0  0  0  0  0  0  0
  131.1191  123.7151   58.7793 H   0  0  0  0  0  0  0  0  0  0  0  0
  130.0681  124.9244   59.6653 H   0  0  0  0  0  0  0  0  0  0  0  0
  133.0957  122.7809   59.8518 H   0  0  0  0  0  0  0  0  0  0  0  0
  134.9073  123.2138   61.4987 H   0  0  0  0  0  0  0  0  0  0  0  0
  134.5721  124.8705   63.3206 H   0  0  0  0  0  0  0  0  0  0  0  0
  132.4311  126.1172   63.5032 H   0  0  0  0  0  0  0  0  0  0  0  0
  130.5999  125.7080   61.8710 H   0  0  0  0  0  0  0  0  0  0  0  0
  125.3013  126.1332   60.6778 H   0  0  0  0  0  0  0  0  0  0  0  0
  123.2907  126.0369   59.1815 H   0  0  0  0  0  0  0  0  0  0  0  0
  123.1661  124.3341   57.3603 H   0  0  0  0  0  0  0  0  0  0  0  0
  125.0520  122.7119   57.0226 H   0  0  0  0  0  0  0  0  0  0  0  0
  1  2  2  0
  2  3  1  0
  3  4  1  0
  4  5  2  0
  4  6  1  0
  6  7  2  0
  7  8  1  0
  7  9  1  0
  9 10  1  0
 10 11  1  0
 11 12  2  0
 12 13  1  0
 13 14  2  0
 14 15  1  0
 15 16  2  0
  9 17  1  0
 17 18  1  0
 18 19  2  0
 18 20  1  0
 20 21  2  0
 21 22  1  0
 22 23  2  0
 23 24  1  0
 24 25  2  0
 25 26  1  0
 26 27  2  0
  2 28  1  0
 28 29  1  0
 29 30  1  0
 30 31  2  0
 31 32  1  0
 32 33  2  0
 33 34  1  0
 34 35  2  0
 28 36  1  0
 36 37  1  0
 37 38  2  0
 37 39  1  0
 39 40  2  0
 40 41  1  0
 41 42  2  0
 42 43  1  0
 43 44  2  0
 44 45  1  0
 45 46  2  0
 16 11  1  0
 26 17  1  0
 35 30  1  0
 45 36  1  0
 25 20  1  0
 44 39  1  0
  3 47  1  0
  9 48  1  1
 10 49  1  0
 10 50  1  0
 12 51  1  0
 13 52  1  0
 14 53  1  0
 15 54  1  0
 16 55  1  0
 21 56  1  0
 22 57  1  0
 23 58  1  0
 24 59  1  0
 28 60  1  6
 29 61  1  0
 29 62  1  0
 31 63  1  0
 32 64  1  0
 33 65  1  0
 34 66  1  0
 35 67  1  0
 40 68  1  0
 41 69  1  0
 42 70  1  0
 43 71  1  0
M  CHG  1   8  -1
M  END
>  <Binding energies>  (1) 
[-9.61]

>  <Ligand effiencies>  (1) 
[-0.20446808510638298]

>  <Interactions>  (1) 
["V-B:TYR:539:CE2:9845, V-A:HIS:456:CE1:4066, V-B:TYR:539:CZ:9846, V-B:PRO:540:CA:9852, V-A:ARG:545:CZ:4923, V-A:GLY:453:CA:4040, V-B:ALA:541:CB:9861, V-B:TYR:539:C:9836, H-A:TYR:484:OH:4344, V-B:PRO:540:N:9853, V-B:PRO:540:CB:9854, V-B:TYR:539:CD2:9843, V-A:ASP:366:CG:3209, H-B:GLU:543:OE2:9879, V-A:TYR:484:CE1:4341, V-B:HIS:456:CD2:9036, V-A:GLU:543:CB:4903, V-B:GLU:543:CB:9875, V-B:GLU:543:CD:9877, V-A:GLU:543:C:4899, V-B:HIS:456:CE1:9038, V-A:TYR:484:CZ:4343, V-B:GLU:543:CG:9876, V-A:GLY:544:C:4909, V-A:GLU:543:CD:4905, V-B:LEU:363:CA:8153, V-A:LEU:475:CD1:4254, H-B:TYR:539:N:9839, V-A:LEU:475:CD2:4255, V-A:HIS:456:CD2:4064, V-B:LEU:363:CD1:8157, V-B:ASP:366:CG:8181, V-B:ASP:366:CB:8180, V-A:LEU:475:CG:4253, V-A:GLY:544:CA:4911"]

$$$$
RR1_Rahimova_2017
     RDKit          3D

 68 71  0  0  0  0  0  0  0  0999 V2000
  124.0080  131.3070   57.2360 C   0  0  0  0  0  0  0  0  0  0  0  0
  123.8460  132.0130   58.4610 O   0  0  0  0  0  0  0  0  0  0  0  0
  124.4440  131.5240   59.6060 C   0  0  0  0  0  0  0  0  0  0  0  0
  125.6540  130.8110   59.6240 C   0  0  0  0  0  0  0  0  0  0  0  0
  126.1780  130.3490   60.8280 C   0  0  0  0  0  0  0  0  0  0  0  0
  125.5110  130.5950   62.0290 C   0  0  0  0  0  0  0  0  0  0  0  0
  126.0970  130.0480   63.1870 N   0  0  0  0  0  0  0  0  0  0  0  0
  125.5420  129.8070   64.3940 C   0  0  0  0  0  0  0  0  0  0  0  0
  124.3900  130.1060   64.7090 O   0  0  0  0  0  0  0  0  0  0  0  0
  126.4740  129.1110   65.3980 C   0  0  0  0  0  0  0  0  0  0  0  0
  128.1830  128.8290   64.8170 S   0  0  0  0  0  0  0  0  0  0  0  0
  128.7800  127.9690   66.2340 C   0  0  0  0  0  0  0  0  0  0  0  0
  128.3090  128.1280   67.4450 N   0  0  0  0  0  0  0  0  0  0  0  0
  129.0300  127.2890   68.1800 C   0  0  0  0  0  0  0  0  0  0  0  0
  128.8170  127.1280   69.6580 C   0  0  0  0  0  0  0  0  0  0  0  0
  129.5690  127.8580   70.5920 C   0  0  0  0  0  0  0  0  0  0  0  0
  129.3510  127.6840   71.9610 C   0  0  0  0  0  0  0  0  0  0  0  0
  128.3750  126.7760   72.3680 C   0  0  0  0  0  0  0  0  0  0  0  0
  127.6300  126.0540   71.4930 N   0  0  0  0  0  0  0  0  0  0  0  0
  127.8570  126.2380   70.1670 C   0  0  0  0  0  0  0  0  0  0  0  0
  129.9450  126.6020   67.5210 N   0  0  0  0  0  0  0  0  0  0  0  0
  129.7870  127.0390   66.2680 N   0  0  0  0  0  0  0  0  0  0  0  0
  130.6090  126.5010   65.1840 C   0  0  0  0  0  0  0  0  0  0  0  0
  129.8210  125.9210   63.9960 C   0  0  0  0  0  0  0  0  0  0  0  0
  129.4590  124.7400   63.9940 O   0  0  0  0  0  0  0  0  0  0  0  0
  129.5780  126.7910   62.9970 N   0  0  0  0  0  0  0  0  0  0  0  0
  128.7480  126.3820   61.9620 N   0  0  0  0  0  0  0  0  0  0  0  0
  127.9550  127.3110   61.3850 C   0  0  0  0  0  0  0  0  0  0  0  0
  127.9970  128.5180   61.6500 O   0  0  0  0  0  0  0  0  0  0  0  0
  126.9930  126.7920   60.3370 C   0  0  0  0  0  0  0  0  0  0  0  0
  126.9210  127.4140   59.0850 C   0  0  0  0  0  0  0  0  0  0  0  0
  126.0360  126.9610   58.1120 C   0  0  0  0  0  0  0  0  0  0  0  0
  125.1860  125.8730   58.3650 C   0  0  0  0  0  0  0  0  0  0  0  0
  124.2750  125.3820   57.4470 O   0  0  0  0  0  0  0  0  0  0  0  0
  124.6340  124.2800   56.6220 C   0  0  0  0  0  0  0  0  0  0  0  0
  125.2370  125.2410   59.6150 C   0  0  0  0  0  0  0  0  0  0  0  0
  124.3650  124.1850   59.8210 O   0  0  0  0  0  0  0  0  0  0  0  0
  124.2170  123.6390   61.1270 C   0  0  0  0  0  0  0  0  0  0  0  0
  126.1420  125.7040   60.5880 C   0  0  0  0  0  0  0  0  0  0  0  0
  124.3020  131.3080   62.0150 C   0  0  0  0  0  0  0  0  0  0  0  0
  123.7820  131.7690   60.8090 C   0  0  0  0  0  0  0  0  0  0  0  0
  124.2494  130.2550   57.4482 H   0  0  0  0  0  0  0  0  0  0  0  0
  123.0745  131.3593   56.6564 H   0  0  0  0  0  0  0  0  0  0  0  0
  124.8253  131.7610   56.6564 H   0  0  0  0  0  0  0  0  0  0  0  0
  126.1896  130.6169   58.6830 H   0  0  0  0  0  0  0  0  0  0  0  0
  127.1234  129.7867   60.8329 H   0  0  0  0  0  0  0  0  0  0  0  0
  127.0820  129.8420   63.0970 H   0  0  0  0  0  0  0  0  0  0  0  0
  126.5220  129.7332   66.3039 H   0  0  0  0  0  0  0  0  0  0  0  0
  126.0438  128.1131   65.5688 H   0  0  0  0  0  0  0  0  0  0  0  0
  130.3326  128.5696   70.2448 H   0  0  0  0  0  0  0  0  0  0  0  0
  129.9361  128.2505   72.7005 H   0  0  0  0  0  0  0  0  0  0  0  0
  128.2010  126.6386   73.4454 H   0  0  0  0  0  0  0  0  0  0  0  0
  127.2556  125.6578   69.4516 H   0  0  0  0  0  0  0  0  0  0  0  0
  131.2484  127.3123   64.8058 H   0  0  0  0  0  0  0  0  0  0  0  0
  131.1759  125.6628   65.6153 H   0  0  0  0  0  0  0  0  0  0  0  0
  129.6770  127.7950   63.0680 H   0  0  0  0  0  0  0  0  0  0  0  0
  128.4310  125.4330   62.0960 H   0  0  0  0  0  0  0  0  0  0  0  0
  127.5732  128.2727   58.8676 H   0  0  0  0  0  0  0  0  0  0  0  0
  126.0019  127.4613   57.1329 H   0  0  0  0  0  0  0  0  0  0  0  0
  124.9128  123.4241   57.2543 H   0  0  0  0  0  0  0  0  0  0  0  0
  123.7794  124.0037   55.9869 H   0  0  0  0  0  0  0  0  0  0  0  0
  125.4874  124.5601   55.9869 H   0  0  0  0  0  0  0  0  0  0  0  0
  124.4278  124.4168   61.8757 H   0  0  0  0  0  0  0  0  0  0  0  0
  123.1875  123.2741   61.2574 H   0  0  0  0  0  0  0  0  0  0  0  0
  124.9212  122.8041   61.2574 H   0  0  0  0  0  0  0  0  0  0  0  0
  126.1836  125.2027   61.5663 H   0  0  0  0  0  0  0  0  0  0  0  0
  123.7662  131.5022   62.9559 H   0  0  0  0  0  0  0  0  0  0  0  0
  122.8377  132.3332   60.8046 H   0  0  0  0  0  0  0  0  0  0  0  0
  1  2  1  0
  2  3  1  0
  3  4  2  0
  4  5  1  0
  5  6  2  0
  6  7  1  0
  7  8  1  0
  8  9  2  0
  8 10  1  0
 10 11  1  0
 11 12  1  0
 12 13  2  0
 13 14  1  0
 14 15  1  0
 15 16  2  0
 16 17  1  0
 17 18  2  0
 18 19  1  0
 19 20  2  0
 14 21  2  0
 21 22  1  0
 22 23  1  0
 23 24  1  0
 24 25  2  0
 24 26  1  0
 26 27  1  0
 27 28  1  0
 28 29  2  0
 28 30  1  0
 30 31  2  0
 31 32  1  0
 32 33  2  0
 33 34  1  0
 34 35  1  0
 33 36  1  0
 36 37  1  0
 37 38  1  0
 36 39  2  0
  6 40  1  0
 40 41  2  0
 41  3  1  0
 22 12  1  0
 39 30  1  0
 20 15  1  0
  1 42  1  0
  1 43  1  0
  1 44  1  0
  4 45  1  0
  5 46  1  0
  7 47  1  0
 10 48  1  0
 10 49  1  0
 16 50  1  0
 17 51  1  0
 18 52  1  0
 20 53  1  0
 23 54  1  0
 23 55  1  0
 26 56  1  0
 27 57  1  0
 31 58  1  0
 32 59  1  0
 35 60  1  0
 35 61  1  0
 35 62  1  0
 38 63  1  0
 38 64  1  0
 38 65  1  0
 39 66  1  0
 40 67  1  0
 41 68  1  0
M  END
>  <Binding energies>  (1) 
[-7.56]

>  <Ligand effiencies>  (1) 
[-0.17181818181818181]

>  <Interactions>  (1) 
["V-B:ASN:362:CB:8144, V-B:ASN:362:C:8140, V-B:PRO:540:CB:9854, H-B:GLU:543:OE2:9879, V-B:HIS:456:CD2:9036, V-A:GLU:543:CB:4903, V-B:GLY:544:C:9881, V-B:LYS:547:CE:9919, V-B:GLU:543:CD:9877, V-B:HIS:456:CE1:9038, V-A:GLU:543:CD:4905, H-A:GLU:543:OE2:4907, H-B:GLY:454:N:9018, H-A:GLU:543:OE1:4906, H-B:TYR:484:OH:9316, V-B:GLU:543:C:9871, V-B:LEU:363:CD1:8157, V-B:TYR:531:CE2:9762, H-B:TYR:531:OH:9764, V-B:ASP:366:CG:8181, V-B:ASP:366:CB:8180, V-A:TYR:539:CE2:4873, V-B:ASP:366:CA:8178, V-B:ILE:369:CD1:8207, V-A:TYR:539:CZ:4874, V-B:ASP:366:C:8176, V-B:ILE:369:CG2:8205, V-B:ILE:369:CB:8204"]

$$$$
RR20_Rahimova_2017
     RDKit          3D

 68 73  0  0  0  0  0  0  0  0999 V2000
  125.2820  130.0800   75.3800 C   0  0  0  0  0  0  0  0  0  0  0  0
  126.2260  129.1960   74.5860 C   0  0  0  0  0  0  0  0  0  0  0  0
  125.7320  128.0720   73.9230 C   0  0  0  0  0  0  0  0  0  0  0  0
  126.5940  127.2640   73.1870 C   0  0  0  0  0  0  0  0  0  0  0  0
  127.9590  127.5660   73.1180 C   0  0  0  0  0  0  0  0  0  0  0  0
  128.8760  126.6870   72.2950 C   0  0  0  0  0  0  0  0  0  0  0  0
  128.9810  125.5040   72.6260 O   0  0  0  0  0  0  0  0  0  0  0  0
  129.5320  127.2220   71.2250 N   0  0  0  0  0  0  0  0  0  0  0  0
  130.9520  127.6040   71.3020 C   0  0  0  0  0  0  0  0  0  0  0  0
  131.3640  128.0080   69.8970 C   0  0  0  0  0  0  0  0  0  0  0  0
  130.2500  127.4660   69.0530 C   0  0  0  0  0  0  0  0  0  0  0  0
  130.1240  127.4580   67.6640 C   0  0  0  0  0  0  0  0  0  0  0  0
  128.9280  127.0510   67.0590 C   0  0  0  0  0  0  0  0  0  0  0  0
  128.7930  127.0340   65.5620 C   0  0  0  0  0  0  0  0  0  0  0  0
  129.1000  125.9200   64.9160 N   0  0  0  0  0  0  0  0  0  0  0  0
  128.9270  126.0120   63.6220 C   0  0  0  0  0  0  0  0  0  0  0  0
  129.1460  125.0380   62.6600 N   0  0  0  0  0  0  0  0  0  0  0  0
  129.4160  123.7270   62.8740 C   0  0  0  0  0  0  0  0  0  0  0  0
  129.4840  123.2110   63.9910 O   0  0  0  0  0  0  0  0  0  0  0  0
  129.6270  122.8180   61.6400 C   0  0  0  0  0  0  0  0  0  0  0  0
  128.6570  123.0780   60.5600 N   0  0  0  0  0  0  0  0  0  0  0  0
  128.6510  122.0150   59.5440 C   0  0  0  0  0  0  0  0  0  0  0  0
  127.8260  122.4590   58.3140 C   0  0  0  0  0  0  0  0  0  0  0  0
  126.4870  123.0940   58.6920 C   0  0  0  0  0  0  0  0  0  0  0  0
  125.4950  123.3100   57.7280 C   0  0  0  0  0  0  0  0  0  0  0  0
  124.2900  123.9240   58.0640 C   0  0  0  0  0  0  0  0  0  0  0  0
  124.0620  124.3270   59.3760 C   0  0  0  0  0  0  0  0  0  0  0  0
  125.0370  124.1090   60.3470 C   0  0  0  0  0  0  0  0  0  0  0  0
  126.2520  123.4950   60.0230 C   0  0  0  0  0  0  0  0  0  0  0  0
  127.2980  123.2040   61.0990 C   0  0  0  0  0  0  0  0  0  0  0  0
  128.3630  127.5460   63.0870 S   0  0  0  0  0  0  0  0  0  0  0  0
  128.3710  128.1030   64.7430 C   0  0  0  0  0  0  0  0  0  0  0  0
  127.9890  129.5300   65.0740 C   0  0  0  0  0  0  0  0  0  0  0  0
  127.8450  126.7060   67.8830 C   0  0  0  0  0  0  0  0  0  0  0  0
  127.9630  126.7310   69.2720 C   0  0  0  0  0  0  0  0  0  0  0  0
  129.1900  127.0580   69.8630 C   0  0  0  0  0  0  0  0  0  0  0  0
  128.4430  128.7120   73.7610 C   0  0  0  0  0  0  0  0  0  0  0  0
  127.5810  129.5210   74.4970 C   0  0  0  0  0  0  0  0  0  0  0  0
  125.4500  129.9227   76.4557 H   0  0  0  0  0  0  0  0  0  0  0  0
  125.4698  131.1346   75.1299 H   0  0  0  0  0  0  0  0  0  0  0  0
  124.2420  129.8235   75.1299 H   0  0  0  0  0  0  0  0  0  0  0  0
  124.6618  127.8245   73.9819 H   0  0  0  0  0  0  0  0  0  0  0  0
  126.2006  126.3840   72.6571 H   0  0  0  0  0  0  0  0  0  0  0  0
  131.0817  128.4489   71.9943 H   0  0  0  0  0  0  0  0  0  0  0  0
  131.5689  126.7732   71.6752 H   0  0  0  0  0  0  0  0  0  0  0  0
  131.4347  129.1018   69.8043 H   0  0  0  0  0  0  0  0  0  0  0  0
  132.3540  127.6258   69.6076 H   0  0  0  0  0  0  0  0  0  0  0  0
  130.9715  127.7741   67.0380 H   0  0  0  0  0  0  0  0  0  0  0  0
  129.1050  125.3470   61.6990 H   0  0  0  0  0  0  0  0  0  0  0  0
  130.6410  122.9879   61.2488 H   0  0  0  0  0  0  0  0  0  0  0  0
  129.4824  121.7783   61.9687 H   0  0  0  0  0  0  0  0  0  0  0  0
  129.6846  121.8044   59.2319 H   0  0  0  0  0  0  0  0  0  0  0  0
  128.1974  121.1096   59.9735 H   0  0  0  0  0  0  0  0  0  0  0  0
  128.4139  123.1933   57.7437 H   0  0  0  0  0  0  0  0  0  0  0  0
  127.6081  121.5587   57.7207 H   0  0  0  0  0  0  0  0  0  0  0  0
  125.6693  122.9903   56.6900 H   0  0  0  0  0  0  0  0  0  0  0  0
  123.5216  124.0895   57.2945 H   0  0  0  0  0  0  0  0  0  0  0  0
  123.1146  124.8164   59.6459 H   0  0  0  0  0  0  0  0  0  0  0  0
  124.8489  124.4243   61.3839 H   0  0  0  0  0  0  0  0  0  0  0  0
  127.2860  124.0255   61.8304 H   0  0  0  0  0  0  0  0  0  0  0  0
  127.0364  122.2397   61.5592 H   0  0  0  0  0  0  0  0  0  0  0  0
  127.9551  129.6566   66.1662 H   0  0  0  0  0  0  0  0  0  0  0  0
  128.7348  130.2174   64.6482 H   0  0  0  0  0  0  0  0  0  0  0  0
  126.9996  129.7529   64.6482 H   0  0  0  0  0  0  0  0  0  0  0  0
  126.8888  126.4115   67.4258 H   0  0  0  0  0  0  0  0  0  0  0  0
  127.0936  126.4942   69.9029 H   0  0  0  0  0  0  0  0  0  0  0  0
  129.5085  128.9742   73.6844 H   0  0  0  0  0  0  0  0  0  0  0  0
  127.9673  130.4153   75.0078 H   0  0  0  0  0  0  0  0  0  0  0  0
  1  2  1  0
  2  3  2  0
  3  4  1  0
  4  5  2  0
  5  6  1  0
  6  7  2  0
  6  8  1  0
  8  9  1  0
  9 10  1  0
 10 11  1  0
 11 12  2  0
 12 13  1  0
 13 14  1  0
 14 15  1  0
 15 16  2  0
 16 17  1  0
 17 18  1  0
 18 19  2  0
 18 20  1  0
 20 21  1  0
 21 22  1  0
 22 23  1  0
 23 24  1  0
 24 25  2  0
 25 26  1  0
 26 27  2  0
 27 28  1  0
 28 29  2  0
 29 30  1  0
 16 31  1  0
 31 32  1  0
 32 33  1  0
 13 34  2  0
 34 35  1  0
 35 36  2  0
  5 37  1  0
 37 38  2  0
 38  2  1  0
 36  8  1  0
 36 11  1  0
 32 14  2  0
 30 21  1  0
 29 24  1  0
  1 39  1  0
  1 40  1  0
  1 41  1  0
  3 42  1  0
  4 43  1  0
  9 44  1  0
  9 45  1  0
 10 46  1  0
 10 47  1  0
 12 48  1  0
 17 49  1  0
 20 50  1  0
 20 51  1  0
 22 52  1  0
 22 53  1  0
 23 54  1  0
 23 55  1  0
 25 56  1  0
 26 57  1  0
 27 58  1  0
 28 59  1  0
 30 60  1  0
 30 61  1  0
 33 62  1  0
 33 63  1  0
 33 64  1  0
 34 65  1  0
 35 66  1  0
 37 67  1  0
 38 68  1  0
M  END
>  <Binding energies>  (1) 
[-10.31]

>  <Ligand effiencies>  (1) 
[-0.2643589743589744]

>  <Interactions>  (1) 
["V-B:TYR:539:CE2:9845, V-A:HIS:456:CE1:4066, V-B:TYR:539:CZ:9846, V-B:PRO:540:CA:9852, V-B:ALA:541:CB:9861, V-B:TYR:539:C:9836, V-B:PRO:540:N:9853, V-B:PRO:540:CB:9854, V-B:TYR:539:CD2:9843, H-B:GLU:543:OE2:9879, V-B:HIS:456:CD2:9036, V-A:GLU:543:CB:4903, V-A:LYS:547:CE:4947, V-B:VAL:458:CG2:9055, V-B:LYS:547:CD:9918, V-B:GLY:544:C:9881, V-B:LYS:547:CE:9919, V-B:GLU:543:CB:9875, V-B:GLU:543:CD:9877, V-B:HIS:456:CB:9033, V-A:GLU:543:C:4899, V-B:HIS:456:CE1:9038, V-B:GLU:543:CG:9876, V-A:GLY:544:C:4909, V-A:GLU:543:CD:4905, V-B:LEU:363:CA:8153, V-A:GLU:543:CG:4904, V-A:HIS:456:CD2:4064, V-B:LEU:363:CD1:8157, V-B:HIS:456:C:9029, V-B:LYS:471:CE:9188, V-B:HIS:456:CG:9034, H-B:LYS:547:NZ:9920, V-A:GLY:544:CA:4911, V-A:ARG:545:CA:4916"]

$$$$
RR20_Rahimova_2017-again1
     RDKit          3D

 68 73  0  0  0  0  0  0  0  0999 V2000
  127.7030  127.0500   73.0230 C   0  0  0  0  0  0  0  0  0  0  0  0
  128.4520  127.2180   71.7130 C   0  0  0  0  0  0  0  0  0  0  0  0
  129.7030  127.8350   71.7010 C   0  0  0  0  0  0  0  0  0  0  0  0
  130.3940  127.9830   70.5020 C   0  0  0  0  0  0  0  0  0  0  0  0
  129.8360  127.5240   69.3030 C   0  0  0  0  0  0  0  0  0  0  0  0
  130.6090  127.6770   68.0120 C   0  0  0  0  0  0  0  0  0  0  0  0
  131.7870  128.0320   68.0880 O   0  0  0  0  0  0  0  0  0  0  0  0
  129.9920  127.3930   66.8270 N   0  0  0  0  0  0  0  0  0  0  0  0
  128.8310  128.1680   66.3620 C   0  0  0  0  0  0  0  0  0  0  0  0
  128.5170  127.6710   64.9600 C   0  0  0  0  0  0  0  0  0  0  0  0
  129.7570  126.9120   64.5920 C   0  0  0  0  0  0  0  0  0  0  0  0
  130.0830  126.2970   63.3830 C   0  0  0  0  0  0  0  0  0  0  0  0
  131.2230  125.4850   63.2790 C   0  0  0  0  0  0  0  0  0  0  0  0
  131.5710  124.8170   61.9800 C   0  0  0  0  0  0  0  0  0  0  0  0
  130.6220  124.6960   61.0640 N   0  0  0  0  0  0  0  0  0  0  0  0
  131.0110  124.0930   59.9670 C   0  0  0  0  0  0  0  0  0  0  0  0
  130.2800  123.7710   58.8540 N   0  0  0  0  0  0  0  0  0  0  0  0
  129.2790  124.4510   58.4040 C   0  0  0  0  0  0  0  0  0  0  0  0
  128.7860  125.5350   58.7690 O   0  0  0  0  0  0  0  0  0  0  0  0
  128.5810  123.8050   57.1900 C   0  0  0  0  0  0  0  0  0  0  0  0
  127.7600  122.5650   57.6480 N   0  0  2  0  0  0  0  0  0  0  0  0
  126.6230  122.2110   56.6660 C   0  0  0  0  0  0  0  0  0  0  0  0
  125.5740  123.3380   56.6490 C   0  0  0  0  0  0  0  0  0  0  0  0
  125.1310  123.7680   58.0450 C   0  0  0  0  0  0  0  0  0  0  0  0
  123.9220  124.4540   58.2080 C   0  0  0  0  0  0  0  0  0  0  0  0
  123.5090  124.9040   59.4600 C   0  0  0  0  0  0  0  0  0  0  0  0
  124.3070  124.6680   60.5730 C   0  0  0  0  0  0  0  0  0  0  0  0
  125.5060  123.9750   60.4280 C   0  0  0  0  0  0  0  0  0  0  0  0
  125.9340  123.5080   59.1800 C   0  0  0  0  0  0  0  0  0  0  0  0
  127.2380  122.7050   59.0980 C   0  0  0  0  0  0  0  0  0  0  0  0
  132.6600  123.5900   60.0150 S   0  0  0  0  0  0  0  0  0  0  0  0
  132.8240  124.2880   61.6080 C   0  0  0  0  0  0  0  0  0  0  0  0
  134.1580  124.2660   62.3230 C   0  0  0  0  0  0  0  0  0  0  0  0
  131.9970  125.2720   64.4270 C   0  0  0  0  0  0  0  0  0  0  0  0
  131.6640  125.8720   65.6420 C   0  0  0  0  0  0  0  0  0  0  0  0
  130.5680  126.7420   65.7140 C   0  0  0  0  0  0  0  0  0  0  0  0
  128.5930  126.8770   69.3280 C   0  0  0  0  0  0  0  0  0  0  0  0
  127.9020  126.7300   70.5270 C   0  0  0  0  0  0  0  0  0  0  0  0
  128.3952  127.2053   73.8637 H   0  0  0  0  0  0  0  0  0  0  0  0
  126.8890  127.7879   73.0772 H   0  0  0  0  0  0  0  0  0  0  0  0
  127.2821  126.0351   73.0772 H   0  0  0  0  0  0  0  0  0  0  0  0
  130.1432  128.2045   72.6389 H   0  0  0  0  0  0  0  0  0  0  0  0
  131.3837  128.4631   70.4965 H   0  0  0  0  0  0  0  0  0  0  0  0
  127.9707  128.0003   67.0267 H   0  0  0  0  0  0  0  0  0  0  0  0
  129.0450  129.2470   66.3641 H   0  0  0  0  0  0  0  0  0  0  0  0
  127.6353  127.0133   64.9608 H   0  0  0  0  0  0  0  0  0  0  0  0
  128.2757  128.4799   64.2547 H   0  0  0  0  0  0  0  0  0  0  0  0
  129.4407  126.4499   62.5032 H   0  0  0  0  0  0  0  0  0  0  0  0
  127.9054  124.5381   56.7252 H   0  0  0  0  0  0  0  0  0  0  0  0
  129.3420  123.4864   56.4624 H   0  0  0  0  0  0  0  0  0  0  0  0
  128.4040  121.7840   57.6330 H   0  0  0  0  0  0  0  0  0  0  0  0
  127.0397  122.0856   55.6557 H   0  0  0  0  0  0  0  0  0  0  0  0
  126.1436  121.2754   56.9898 H   0  0  0  0  0  0  0  0  0  0  0  0
  126.0056  124.2096   56.1352 H   0  0  0  0  0  0  0  0  0  0  0  0
  124.6857  122.9500   56.1291 H   0  0  0  0  0  0  0  0  0  0  0  0
  123.2856  124.6414   57.3306 H   0  0  0  0  0  0  0  0  0  0  0  0
  122.5563  125.4433   59.5671 H   0  0  0  0  0  0  0  0  0  0  0  0
  123.9928  125.0271   61.5641 H   0  0  0  0  0  0  0  0  0  0  0  0
  126.1309  123.7904   61.3143 H   0  0  0  0  0  0  0  0  0  0  0  0
  128.0042  123.2147   59.7007 H   0  0  0  0  0  0  0  0  0  0  0  0
  127.0308  121.6933   59.4768 H   0  0  0  0  0  0  0  0  0  0  0  0
  133.9913  124.2687   63.4103 H   0  0  0  0  0  0  0  0  0  0  0  0
  134.7112  123.3586   62.0391 H   0  0  0  0  0  0  0  0  0  0  0  0
  134.7409  125.1547   62.0391 H   0  0  0  0  0  0  0  0  0  0  0  0
  132.8819  124.6210   64.3697 H   0  0  0  0  0  0  0  0  0  0  0  0
  132.2610  125.6623   66.5418 H   0  0  0  0  0  0  0  0  0  0  0  0
  128.1617  126.4836   68.3957 H   0  0  0  0  0  0  0  0  0  0  0  0
  126.9226  126.2293   70.5398 H   0  0  0  0  0  0  0  0  0  0  0  0
  1  2  1  0
  2  3  2  0
  3  4  1  0
  4  5  2  0
  5  6  1  0
  6  7  2  0
  6  8  1  0
  8  9  1  0
  9 10  1  0
 10 11  1  0
 11 12  2  0
 12 13  1  0
 13 14  1  0
 14 15  1  0
 15 16  2  0
 16 17  1  0
 17 18  2  0
 18 19  1  0
 18 20  1  0
 20 21  1  0
 21 22  1  0
 22 23  1  0
 23 24  1  0
 24 25  2  0
 25 26  1  0
 26 27  2  0
 27 28  1  0
 28 29  2  0
 29 30  1  0
 16 31  1  0
 31 32  1  0
 32 33  1  0
 13 34  2  0
 34 35  1  0
 35 36  2  0
  5 37  1  0
 37 38  2  0
 38  2  1  0
 36  8  1  0
 36 11  1  0
 32 14  2  0
 30 21  1  0
 29 24  1  0
  1 39  1  0
  1 40  1  0
  1 41  1  0
  3 42  1  0
  4 43  1  0
  9 44  1  0
  9 45  1  0
 10 46  1  0
 10 47  1  0
 12 48  1  0
 20 49  1  0
 20 50  1  0
 21 51  1  1
 22 52  1  0
 22 53  1  0
 23 54  1  0
 23 55  1  0
 25 56  1  0
 26 57  1  0
 27 58  1  0
 28 59  1  0
 30 60  1  0
 30 61  1  0
 33 62  1  0
 33 63  1  0
 33 64  1  0
 34 65  1  0
 35 66  1  0
 37 67  1  0
 38 68  1  0
M  CHG  2  19  -1  21   1
M  END
>  <Binding energies>  (1) 
[-9.74]

>  <Ligand effiencies>  (1) 
[-0.24974358974358976]

>  <Interactions>  (1) 
["V-B:TYR:539:CE2:9845, V-A:HIS:456:CE1:4066, V-B:TYR:539:CD1:9842, V-B:TYR:539:CZ:9846, V-B:ASN:362:CB:8144, V-A:GLY:453:C:4038, V-B:PRO:540:CA:9852, V-A:ARG:545:CZ:4923, V-B:TYR:539:CE1:9844, V-A:GLY:453:CA:4040, V-B:TYR:539:C:9836, V-B:ASN:362:C:8140, V-A:GLY:454:CA:4045, V-B:PRO:540:N:9853, V-B:PRO:540:CB:9854, V-A:ASP:366:CG:3209, V-B:HIS:456:CD2:9036, V-A:GLU:543:CB:4903, V-B:GLY:544:C:9881, V-B:LYS:547:CE:9919, V-B:GLU:543:CD:9877, V-A:GLU:543:C:4899, V-B:HIS:456:CE1:9038, V-A:GLY:544:C:4909, V-A:GLU:543:CD:4905, V-B:LEU:363:CA:8153, H-B:TYR:539:O:9837, V-A:GLU:543:CG:4904, V-B:PRO:540:CD:9856, H-B:TYR:539:OH:9847, V-B:LEU:363:CD1:8157, V-B:ASP:366:CG:8181, V-B:ASP:366:CB:8180, V-B:ILE:538:CB:9831, H-A:ARG:545:N:4917"]

$$$$
RR21_Rahimova_2017
     RDKit          3D

 62 67  0  0  0  0  0  0  0  0999 V2000
  133.2800  123.3100   61.8420 C   0  0  0  0  0  0  0  0  0  0  0  0
  132.8060  122.8080   63.0890 O   0  0  0  0  0  0  0  0  0  0  0  0
  132.1040  123.6490   63.9320 C   0  0  0  0  0  0  0  0  0  0  0  0
  132.5430  124.9250   64.3210 C   0  0  0  0  0  0  0  0  0  0  0  0
  131.7710  125.7120   65.1750 C   0  0  0  0  0  0  0  0  0  0  0  0
  130.5410  125.2480   65.6570 C   0  0  0  0  0  0  0  0  0  0  0  0
  129.7110  126.0980   66.5690 C   0  0  0  0  0  0  0  0  0  0  0  0
  129.8420  125.9780   67.8760 N   0  0  0  0  0  0  0  0  0  0  0  0
  128.9870  126.8510   68.4300 N   0  0  0  0  0  0  0  0  0  0  0  0
  128.8860  126.9970   69.8380 C   0  0  0  0  0  0  0  0  0  0  0  0
  127.8830  126.3290   70.5580 C   0  0  0  0  0  0  0  0  0  0  0  0
  127.7970  126.4760   71.9400 C   0  0  0  0  0  0  0  0  0  0  0  0
  128.7100  127.2900   72.6060 C   0  0  0  0  0  0  0  0  0  0  0  0
  129.7080  127.9610   71.9030 C   0  0  0  0  0  0  0  0  0  0  0  0
  129.7960  127.8160   70.5210 C   0  0  0  0  0  0  0  0  0  0  0  0
  128.3180  127.5450   67.4530 C   0  0  0  0  0  0  0  0  0  0  0  0
  128.7500  127.0750   66.2220 C   0  0  0  0  0  0  0  0  0  0  0  0
  128.3610  127.5350   64.8980 C   0  0  0  0  0  0  0  0  0  0  0  0
  127.5260  128.5500   64.5750 C   0  0  0  0  0  0  0  0  0  0  0  0
  126.6390  129.6260   65.6780 S   0  0  0  0  0  0  0  0  0  0  0  0
  125.9790  130.4800   64.2910 C   0  0  0  0  0  0  0  0  0  0  0  0
  125.1800  131.5020   64.2920 N   0  0  0  0  0  0  0  0  0  0  0  0
  124.7260  132.1110   63.0890 C   0  0  0  0  0  0  0  0  0  0  0  0
  123.9880  133.0920   63.0050 O   0  0  0  0  0  0  0  0  0  0  0  0
  125.2420  131.4490   61.8410 C   0  0  0  0  0  0  0  0  0  0  0  0
  124.8030  132.0070   60.4810 C   0  0  0  0  0  0  0  0  0  0  0  0
  125.8690  131.9180   59.3910 C   0  0  0  0  0  0  0  0  0  0  0  0
  125.6040  131.2240   58.2070 C   0  0  0  0  0  0  0  0  0  0  0  0
  126.5700  131.1580   57.2060 C   0  0  0  0  0  0  0  0  0  0  0  0
  127.8030  131.7880   57.3850 C   0  0  0  0  0  0  0  0  0  0  0  0
  128.8480  131.7230   56.2860 C   0  0  0  0  0  0  0  0  0  0  0  0
  128.0660  132.4920   58.5620 C   0  0  0  0  0  0  0  0  0  0  0  0
  127.1000  132.5580   59.5630 C   0  0  0  0  0  0  0  0  0  0  0  0
  126.0330  130.4260   61.8550 N   0  0  0  0  0  0  0  0  0  0  0  0
  126.4120  129.9340   63.1110 N   0  0  0  0  0  0  0  0  0  0  0  0
  127.2540  128.8750   63.1820 C   0  0  0  0  0  0  0  0  0  0  0  0
  127.7240  128.2810   62.2040 O   0  0  0  0  0  0  0  0  0  0  0  0
  130.1060  123.9760   65.2740 C   0  0  0  0  0  0  0  0  0  0  0  0
  130.8770  123.1860   64.4210 C   0  0  0  0  0  0  0  0  0  0  0  0
  130.4270  121.9590   64.0690 F   0  0  0  0  0  0  0  0  0  0  0  0
  134.0248  124.0988   62.0236 H   0  0  0  0  0  0  0  0  0  0  0  0
  133.7435  122.4927   61.2700 H   0  0  0  0  0  0  0  0  0  0  0  0
  132.4374  123.7259   61.2700 H   0  0  0  0  0  0  0  0  0  0  0  0
  133.5049  125.3073   63.9486 H   0  0  0  0  0  0  0  0  0  0  0  0
  132.1320  126.7074   65.4730 H   0  0  0  0  0  0  0  0  0  0  0  0
  127.1629  125.6875   70.0289 H   0  0  0  0  0  0  0  0  0  0  0  0
  127.0112  125.9514   72.5034 H   0  0  0  0  0  0  0  0  0  0  0  0
  128.6423  127.4042   73.6980 H   0  0  0  0  0  0  0  0  0  0  0  0
  130.4237  128.6029   72.4376 H   0  0  0  0  0  0  0  0  0  0  0  0
  130.5822  128.3459   69.9632 H   0  0  0  0  0  0  0  0  0  0  0  0
  127.5706  128.3351   67.6175 H   0  0  0  0  0  0  0  0  0  0  0  0
  128.8017  126.9882   64.0513 H   0  0  0  0  0  0  0  0  0  0  0  0
  123.9200  131.4430   60.1461 H   0  0  0  0  0  0  0  0  0  0  0  0
  124.5954  133.0767   60.6317 H   0  0  0  0  0  0  0  0  0  0  0  0
  124.6316  130.7295   58.0657 H   0  0  0  0  0  0  0  0  0  0  0  0
  126.3617  130.6100   56.2752 H   0  0  0  0  0  0  0  0  0  0  0  0
  129.8499  131.6607   56.7359 H   0  0  0  0  0  0  0  0  0  0  0  0
  128.6700  130.8342   55.6628 H   0  0  0  0  0  0  0  0  0  0  0  0
  128.7815  132.6270   55.6628 H   0  0  0  0  0  0  0  0  0  0  0  0
  129.0353  132.9939   58.6984 H   0  0  0  0  0  0  0  0  0  0  0  0
  127.3057  133.1140   60.4896 H   0  0  0  0  0  0  0  0  0  0  0  0
  129.1452  123.5938   65.6493 H   0  0  0  0  0  0  0  0  0  0  0  0
  1  2  1  0
  2  3  1  0
  3  4  2  0
  4  5  1  0
  5  6  2  0
  6  7  1  0
  7  8  2  0
  8  9  1  0
  9 10  1  0
 10 11  2  0
 11 12  1  0
 12 13  2  0
 13 14  1  0
 14 15  2  0
  9 16  1  0
 16 17  2  0
 17 18  1  0
 18 19  2  0
 19 20  1  0
 20 21  1  0
 21 22  2  0
 22 23  1  0
 23 24  2  0
 23 25  1  0
 25 26  1  0
 26 27  1  0
 27 28  2  0
 28 29  1  0
 29 30  2  0
 30 31  1  0
 30 32  1  0
 32 33  2  0
 25 34  2  0
 34 35  1  0
 35 36  1  0
 36 37  2  0
  6 38  1  0
 38 39  2  0
 39 40  1  0
 39  3  1  0
 17  7  1  0
 36 19  1  0
 15 10  1  0
 35 21  1  0
 33 27  1  0
  1 41  1  0
  1 42  1  0
  1 43  1  0
  4 44  1  0
  5 45  1  0
 11 46  1  0
 12 47  1  0
 13 48  1  0
 14 49  1  0
 15 50  1  0
 16 51  1  0
 18 52  1  0
 26 53  1  0
 26 54  1  0
 28 55  1  0
 29 56  1  0
 31 57  1  0
 31 58  1  0
 31 59  1  0
 32 60  1  0
 33 61  1  0
 38 62  1  0
M  END
>  <Binding energies>  (1) 
[-9.77]

>  <Ligand effiencies>  (1) 
[-0.24425]

>  <Interactions>  (1) 
["V-A:HIS:456:CE1:4066, V-A:ARG:545:CZ:4923, V-B:ALA:541:CB:9861, H-A:GLY:454:N:4046, V-A:TYR:484:CE1:4341, V-B:HIS:456:CD2:9036, V-B:GLY:544:C:9881, V-B:LYS:547:CE:9919, V-B:GLU:543:CB:9875, V-B:GLU:543:CD:9877, V-B:HIS:456:CE1:9038, V-A:TYR:484:CZ:4343, V-B:GLU:543:CG:9876, V-A:GLU:543:CD:4905, V-A:LEU:475:CD1:4254, H-B:GLY:454:N:9018, H-B:TYR:484:OH:9316, V-A:LEU:475:CD2:4255, V-A:TYR:539:C:4864, V-A:TYR:539:CE2:4873, V-A:TYR:539:CD2:4871, V-B:GLY:454:CA:9017, V-A:LEU:475:CG:4253, V-A:TYR:539:CZ:4874, V-B:ILE:369:CG2:8205"]

$$$$
RR22_Rahimova_2017
     RDKit          3D

 49 54  0  0  0  0  0  0  0  0999 V2000
  129.9100  129.5680   60.4850 O   0  0  0  0  0  0  0  0  0  0  0  0
  129.7790  128.3760   60.7500 C   0  0  0  0  0  0  0  0  0  0  0  0
  130.7770  127.4570   61.0240 N   0  0  0  0  0  0  0  0  0  0  0  0
  130.4490  126.1090   61.3760 C   0  0  1  0  0  0  0  0  0  0  0  0
  131.1540  125.2940   60.4340 O   0  0  0  0  0  0  0  0  0  0  0  0
  132.0850  124.3750   60.9200 C   0  0  0  0  0  0  0  0  0  0  0  0
  133.0020  123.8720   59.9970 C   0  0  0  0  0  0  0  0  0  0  0  0
  133.9380  122.9190   60.3990 C   0  0  0  0  0  0  0  0  0  0  0  0
  133.9500  122.4640   61.7180 C   0  0  0  0  0  0  0  0  0  0  0  0
  133.0310  122.9660   62.6410 C   0  0  0  0  0  0  0  0  0  0  0  0
  132.1030  123.9400   62.2590 C   0  0  0  0  0  0  0  0  0  0  0  0
  131.0410  124.5150   63.1690 C   0  0  1  0  0  0  0  0  0  0  0  0
  131.2530  124.6880   64.6600 C   0  0  0  0  0  0  0  0  0  0  0  0
  130.3580  125.9050   64.9110 C   0  0  0  0  0  0  0  0  0  0  0  0
  129.8810  126.2800   66.2570 C   0  0  0  0  0  0  0  0  0  0  0  0
  129.5190  125.2930   67.1860 C   0  0  0  0  0  0  0  0  0  0  0  0
  129.0700  125.6520   68.4540 C   0  0  0  0  0  0  0  0  0  0  0  0
  128.9810  126.9970   68.8020 C   0  0  0  0  0  0  0  0  0  0  0  0
  129.3370  127.9890   67.8910 C   0  0  0  0  0  0  0  0  0  0  0  0
  129.7870  127.6320   66.6230 C   0  0  0  0  0  0  0  0  0  0  0  0
  130.1190  126.5360   63.8230 N   0  0  0  0  0  0  0  0  0  0  0  0
  130.7940  125.8720   62.7850 N   0  0  0  0  0  0  0  0  0  0  0  0
  128.9640  125.9340   61.0930 C   0  0  0  0  0  0  0  0  0  0  0  0
  128.3730  124.7220   60.9790 C   0  0  0  0  0  0  0  0  0  0  0  0
  126.9520  124.4110   60.7290 C   0  0  0  0  0  0  0  0  0  0  0  0
  126.0710  125.3020   60.0990 C   0  0  0  0  0  0  0  0  0  0  0  0
  124.7390  124.9390   59.8970 C   0  0  0  0  0  0  0  0  0  0  0  0
  124.3170  123.6860   60.3390 C   0  0  0  0  0  0  0  0  0  0  0  0
  125.1430  122.8070   60.9580 N   0  0  0  0  0  0  0  0  0  0  0  0
  126.4360  123.1780   61.1450 C   0  0  0  0  0  0  0  0  0  0  0  0
  128.1860  127.5040   60.8460 S   0  0  0  0  0  0  0  0  0  0  0  0
  131.7500  127.7090   60.9380 H   0  0  0  0  0  0  0  0  0  0  0  0
  132.9871  124.2257   58.9555 H   0  0  0  0  0  0  0  0  0  0  0  0
  134.6673  122.5258   59.6755 H   0  0  0  0  0  0  0  0  0  0  0  0
  134.6852  121.7081   62.0311 H   0  0  0  0  0  0  0  0  0  0  0  0
  133.0368  122.5930   63.6758 H   0  0  0  0  0  0  0  0  0  0  0  0
  130.2755  123.7358   63.0392 H   0  0  0  0  0  0  0  0  0  0  0  0
  130.9147  123.8077   65.2262 H   0  0  0  0  0  0  0  0  0  0  0  0
  132.3014  124.8096   64.9699 H   0  0  0  0  0  0  0  0  0  0  0  0
  129.5903  124.2303   66.9112 H   0  0  0  0  0  0  0  0  0  0  0  0
  128.7863  124.8749   69.1790 H   0  0  0  0  0  0  0  0  0  0  0  0
  128.6267  127.2788   69.8045 H   0  0  0  0  0  0  0  0  0  0  0  0
  129.2628  129.0498   68.1724 H   0  0  0  0  0  0  0  0  0  0  0  0
  130.0707  128.4141   65.9034 H   0  0  0  0  0  0  0  0  0  0  0  0
  129.0398  123.8538   61.0869 H   0  0  0  0  0  0  0  0  0  0  0  0
  126.4299  126.2865   59.7643 H   0  0  0  0  0  0  0  0  0  0  0  0
  124.0379  125.6258   59.4003 H   0  0  0  0  0  0  0  0  0  0  0  0
  123.2676  123.3978   60.1785 H   0  0  0  0  0  0  0  0  0  0  0  0
  127.1130  122.4730   61.6496 H   0  0  0  0  0  0  0  0  0  0  0  0
  1  2  2  0
  2  3  1  0
  3  4  1  0
  4  5  1  6
  5  6  1  0
  6  7  2  0
  7  8  1  0
  8  9  2  0
  9 10  1  0
 10 11  2  0
 11 12  1  0
 12 13  1  0
 13 14  1  0
 14 15  1  0
 15 16  2  0
 16 17  1  0
 17 18  2  0
 18 19  1  0
 19 20  2  0
 14 21  2  0
 21 22  1  0
  4 23  1  0
 23 24  2  0
 24 25  1  0
 25 26  2  0
 26 27  1  0
 27 28  2  0
 28 29  1  0
 29 30  2  0
 23 31  1  0
 31  2  1  0
 22  4  1  0
 30 25  1  0
 11  6  1  0
 22 12  1  0
 20 15  1  0
  3 32  1  0
  7 33  1  0
  8 34  1  0
  9 35  1  0
 10 36  1  0
 12 37  1  1
 13 38  1  0
 13 39  1  0
 16 40  1  0
 17 41  1  0
 18 42  1  0
 19 43  1  0
 20 44  1  0
 24 45  1  0
 26 46  1  0
 27 47  1  0
 28 48  1  0
 30 49  1  0
M  END
>  <Binding energies>  (1) 
[-8.89]

>  <Ligand effiencies>  (1) 
[-0.2778125]

>  <Interactions>  (1) 
["V-B:PRO:540:C:9850, H-B:ALA:541:N:9860, V-B:TYR:539:CE2:9845, V-A:HIS:456:CE1:4066, V-B:TYR:539:CZ:9846, V-B:ASN:362:CB:8144, V-B:PRO:540:CA:9852, V-B:ALA:541:CB:9861, V-A:GLY:454:CA:4045, V-B:PRO:540:CB:9854, V-A:ASP:366:CG:3209, V-A:TYR:484:CE1:4341, V-A:GLU:543:CB:4903, V-B:GLU:543:CB:9875, V-B:GLU:543:CD:9877, V-B:HIS:456:CE1:9038, V-B:GLU:543:CG:9876, V-A:GLU:543:CD:4905, V-A:ILE:369:CB:3232, V-A:LEU:475:CD1:4254, H-A:ASP:366:OD2:3211, V-A:ILE:369:CG2:3233, V-A:ILE:369:CG1:3234, H-A:ASP:366:OD1:3210, V-A:ASP:366:CB:3208, V-B:GLU:543:C:9871, V-B:ALA:541:CA:9859, V-B:ASP:366:CG:8181"]

$$$$
RR23_Rahimova_2017
     RDKit          3D

 65 70  0  0  0  0  0  0  0  0999 V2000
  133.9900  129.8690   57.9540 C   0  0  0  0  0  0  0  0  0  0  0  0
  132.6310  130.5200   57.7700 C   0  0  0  0  0  0  0  0  0  0  0  0
  132.5100  131.6770   57.0000 C   0  0  0  0  0  0  0  0  0  0  0  0
  131.2610  132.2680   56.8250 C   0  0  0  0  0  0  0  0  0  0  0  0
  130.1260  131.7130   57.4270 C   0  0  0  0  0  0  0  0  0  0  0  0
  128.7760  132.3580   57.2070 C   0  0  0  0  0  0  0  0  0  0  0  0
  128.6880  133.2110   56.3210 O   0  0  0  0  0  0  0  0  0  0  0  0
  127.7150  131.9700   57.9750 N   0  0  0  0  0  0  0  0  0  0  0  0
  126.5820  131.2250   57.4030 C   0  0  0  0  0  0  0  0  0  0  0  0
  125.6850  130.8480   58.5700 C   0  0  0  0  0  0  0  0  0  0  0  0
  126.5680  131.0810   59.7580 C   0  0  0  0  0  0  0  0  0  0  0  0
  126.3150  130.8220   61.1060 C   0  0  0  0  0  0  0  0  0  0  0  0
  127.2100  131.2620   62.0930 C   0  0  0  0  0  0  0  0  0  0  0  0
  126.9690  130.9980   63.5870 C   0  0  2  0  0  0  0  0  0  0  0  0
  127.7750  129.9030   64.0850 N   0  0  0  0  0  0  0  0  0  0  0  0
  127.1850  129.2650   65.0140 C   0  0  0  0  0  0  0  0  0  0  0  0
  127.6260  128.1710   65.6920 N   0  0  0  0  0  0  0  0  0  0  0  0
  128.7260  127.4180   65.4500 C   0  0  0  0  0  0  0  0  0  0  0  0
  129.5610  127.6320   64.5680 O   0  0  0  0  0  0  0  0  0  0  0  0
  128.9120  126.2010   66.3710 C   0  0  0  0  0  0  0  0  0  0  0  0
  129.1020  126.6700   67.7620 N   0  0  0  0  0  0  0  0  0  0  0  0
  130.3290  127.2660   68.0270 N   0  0  0  0  0  0  0  0  0  0  0  0
  130.6200  127.7180   69.2050 N   0  0  0  0  0  0  0  0  0  0  0  0
  129.6880  127.6110   70.2400 C   0  0  0  0  0  0  0  0  0  0  0  0
  130.0340  128.1060   71.4990 C   0  0  0  0  0  0  0  0  0  0  0  0
  129.1240  128.0130   72.5540 C   0  0  0  0  0  0  0  0  0  0  0  0
  127.8730  127.4270   72.3520 C   0  0  0  0  0  0  0  0  0  0  0  0
  127.5250  126.9300   71.0940 C   0  0  0  0  0  0  0  0  0  0  0  0
  128.4370  127.0250   70.0370 C   0  0  0  0  0  0  0  0  0  0  0  0
  128.0810  126.4910   68.6690 C   0  0  0  0  0  0  0  0  0  0  0  0
  127.0050  125.9480   68.4030 O   0  0  0  0  0  0  0  0  0  0  0  0
  125.5660  129.8490   65.4970 S   0  0  0  0  0  0  0  0  0  0  0  0
  125.4840  130.7970   63.9670 C   0  0  2  0  0  0  0  0  0  0  0  0
  124.6050  130.0380   62.9520 C   0  0  0  0  0  0  0  0  0  0  0  0
  128.3310  132.0040   61.7050 C   0  0  0  0  0  0  0  0  0  0  0  0
  128.5740  132.2810   60.3590 C   0  0  0  0  0  0  0  0  0  0  0  0
  127.7190  131.7700   59.3740 C   0  0  0  0  0  0  0  0  0  0  0  0
  130.2520  130.5350   58.1760 C   0  0  0  0  0  0  0  0  0  0  0  0
  131.5000  129.9440   58.3500 C   0  0  0  0  0  0  0  0  0  0  0  0
  134.2049  129.7661   59.0279 H   0  0  0  0  0  0  0  0  0  0  0  0
  133.9869  128.8746   57.4837 H   0  0  0  0  0  0  0  0  0  0  0  0
  134.7629  130.4946   57.4837 H   0  0  0  0  0  0  0  0  0  0  0  0
  133.4002  132.1221   56.5315 H   0  0  0  0  0  0  0  0  0  0  0  0
  131.1662  133.1755   56.2106 H   0  0  0  0  0  0  0  0  0  0  0  0
  126.0327  131.8565   56.6892 H   0  0  0  0  0  0  0  0  0  0  0  0
  126.9249  130.3328   56.8586 H   0  0  0  0  0  0  0  0  0  0  0  0
  124.7930  131.4906   58.6075 H   0  0  0  0  0  0  0  0  0  0  0  0
  125.3009  129.8191   58.5087 H   0  0  0  0  0  0  0  0  0  0  0  0
  125.4089  130.2699   61.3962 H   0  0  0  0  0  0  0  0  0  0  0  0
  127.2897  131.9254   64.0840 H   0  0  0  0  0  0  0  0  0  0  0  0
  127.0350  127.8490   66.4440 H   0  0  0  0  0  0  0  0  0  0  0  0
  128.0204  125.5590   66.3174 H   0  0  0  0  0  0  0  0  0  0  0  0
  129.7930  125.6254   66.0507 H   0  0  0  0  0  0  0  0  0  0  0  0
  131.0196  128.5674   71.6591 H   0  0  0  0  0  0  0  0  0  0  0  0
  129.3935  128.4025   73.5468 H   0  0  0  0  0  0  0  0  0  0  0  0
  127.1593  127.3565   73.1861 H   0  0  0  0  0  0  0  0  0  0  0  0
  126.5400  126.4667   70.9351 H   0  0  0  0  0  0  0  0  0  0  0  0
  124.9999  131.7829   64.0277 H   0  0  0  0  0  0  0  0  0  0  0  0
  123.8795  129.4115   63.4916 H   0  0  0  0  0  0  0  0  0  0  0  0
  124.0673  130.7604   62.3203 H   0  0  0  0  0  0  0  0  0  0  0  0
  125.2413  129.4008   62.3203 H   0  0  0  0  0  0  0  0  0  0  0  0
  129.0293  132.3735   62.4703 H   0  0  0  0  0  0  0  0  0  0  0  0
  129.4365  132.9003   60.0716 H   0  0  0  0  0  0  0  0  0  0  0  0
  129.3607  130.0756   58.6282 H   0  0  0  0  0  0  0  0  0  0  0  0
  131.5948  129.0233   58.9444 H   0  0  0  0  0  0  0  0  0  0  0  0
  1  2  1  0
  2  3  2  0
  3  4  1  0
  4  5  2  0
  5  6  1  0
  6  7  2  0
  6  8  1  0
  8  9  1  0
  9 10  1  0
 10 11  1  0
 11 12  2  0
 12 13  1  0
 13 14  1  0
 14 15  1  0
 15 16  2  0
 16 17  1  0
 17 18  1  0
 18 19  2  0
 18 20  1  0
 20 21  1  0
 21 22  1  0
 22 23  2  0
 23 24  1  0
 24 25  2  0
 25 26  1  0
 26 27  2  0
 27 28  1  0
 28 29  2  0
 29 30  1  0
 30 31  2  0
 16 32  1  0
 32 33  1  0
 33 34  1  0
 13 35  2  0
 35 36  1  0
 36 37  2  0
  5 38  1  0
 38 39  2  0
 39  2  1  0
 37  8  1  0
 37 11  1  0
 33 14  1  0
 30 21  1  0
 29 24  1  0
  1 40  1  0
  1 41  1  0
  1 42  1  0
  3 43  1  0
  4 44  1  0
  9 45  1  0
  9 46  1  0
 10 47  1  0
 10 48  1  0
 12 49  1  0
 14 50  1  1
 17 51  1  0
 20 52  1  0
 20 53  1  0
 25 54  1  0
 26 55  1  0
 27 56  1  0
 28 57  1  0
 33 58  1  1
 34 59  1  0
 34 60  1  0
 34 61  1  0
 35 62  1  0
 36 63  1  0
 38 64  1  0
 39 65  1  0
M  END
>  <Binding energies>  (1) 
[-10.38]

>  <Ligand effiencies>  (1) 
[-0.2595]

>  <Interactions>  (1) 
["V-A:ASP:366:CG:3209, V-B:HIS:456:CD2:9036, V-A:LYS:547:CE:4947, V-B:GLY:544:C:9881, V-B:LYS:547:CE:9919, V-B:GLU:543:CB:9875, V-B:GLU:543:CD:9877, V-B:HIS:456:CE1:9038, V-B:GLU:543:CG:9876, V-A:GLU:543:CD:4905, V-B:ARG:545:CZ:9895, H-B:TYR:484:OH:9316, V-A:ASP:366:CB:3208, H-B:GLU:543:OE1:9878, V-B:HIS:456:CG:9034, V-A:PRO:540:N:4881, V-A:LEU:363:CB:3183, V-B:ASP:366:CG:8181, V-A:ASN:362:C:3168, V-A:PRO:540:CA:4880, V-A:PRO:540:CB:4882, V-A:LEU:363:CD1:3185, V-A:TYR:539:C:4864, V-A:ALA:541:CB:4889, V-A:LEU:363:CA:3181, V-A:TYR:539:CE2:4873, V-A:TYR:539:CD2:4871, V-A:PRO:540:CD:4884, V-A:TYR:539:CZ:4874, H-A:TYR:539:N:4867, V-A:LEU:363:C:3179"]

$$$$
RR24_Rahimova_2017
     RDKit          3D

 65 71  0  0  0  0  0  0  0  0999 V2000
  125.7010  122.8050   56.4280 C   0  0  0  0  0  0  0  0  0  0  0  0
  125.4730  123.6140   57.7120 C   0  0  2  0  0  0  0  0  0  0  0  0
  125.3280  125.1430   57.4570 C   0  0  0  0  0  0  0  0  0  0  0  0
  124.2690  125.7450   57.6630 O   0  0  0  0  0  0  0  0  0  0  0  0
  126.4740  125.7020   56.9680 O   0  0  0  0  0  0  0  0  0  0  0  0
  126.8790  126.9340   57.4290 C   0  0  0  0  0  0  0  0  0  0  0  0
  127.3300  127.0590   58.7450 C   0  0  0  0  0  0  0  0  0  0  0  0
  127.7510  128.2980   59.2190 C   0  0  0  0  0  0  0  0  0  0  0  0
  127.7320  129.4150   58.3780 C   0  0  0  0  0  0  0  0  0  0  0  0
  128.1790  130.7810   58.9120 C   0  0  1  0  0  0  0  0  0  0  0  0
  127.2830  131.2680   60.0750 C   0  0  0  0  0  0  0  0  0  0  0  0
  127.7810  131.6930   61.2500 C   0  0  0  0  0  0  0  0  0  0  0  0
  129.1300  131.7220   61.5050 N   0  0  0  0  0  0  0  0  0  0  0  0
  130.0450  131.3140   60.5630 C   0  0  0  0  0  0  0  0  0  0  0  0
  131.3370  131.4130   60.9680 N   0  0  0  0  0  0  0  0  0  0  0  0
  132.3760  130.9830   60.2010 C   0  0  0  0  0  0  0  0  0  0  0  0
  133.4760  130.7990   60.7250 O   0  0  0  0  0  0  0  0  0  0  0  0
  132.0170  130.6350   58.9080 N   0  0  0  0  0  0  0  0  0  0  0  0
  133.1210  130.2480   58.0050 C   0  0  0  0  0  0  0  0  0  0  0  0
  130.7390  130.5000   58.3930 C   0  0  0  0  0  0  0  0  0  0  0  0
  130.4920  130.1340   57.2400 O   0  0  0  0  0  0  0  0  0  0  0  0
  129.6750  130.8570   59.3380 C   0  0  0  0  0  0  0  0  0  0  0  0
  126.7130  132.0890   62.1530 C   0  0  0  0  0  0  0  0  0  0  0  0
  126.7050  132.5820   63.4580 C   0  0  0  0  0  0  0  0  0  0  0  0
  125.4820  132.8750   64.0680 C   0  0  0  0  0  0  0  0  0  0  0  0
  124.2840  132.6770   63.3750 C   0  0  0  0  0  0  0  0  0  0  0  0
  124.3000  132.1830   62.0680 C   0  0  0  0  0  0  0  0  0  0  0  0
  125.5240  131.8900   61.4640 C   0  0  0  0  0  0  0  0  0  0  0  0
  125.8280  131.3680   60.1150 C   0  0  0  0  0  0  0  0  0  0  0  0
  125.0660  131.0690   59.1970 O   0  0  0  0  0  0  0  0  0  0  0  0
  127.2970  129.2830   57.0550 C   0  0  0  0  0  0  0  0  0  0  0  0
  126.8780  128.0440   56.5800 C   0  0  0  0  0  0  0  0  0  0  0  0
  126.4920  123.3060   58.7580 N   0  0  0  0  0  0  0  0  0  0  0  0
  126.4890  123.9390   59.9650 C   0  0  0  0  0  0  0  0  0  0  0  0
  125.7060  124.8080   60.3520 O   0  0  0  0  0  0  0  0  0  0  0  0
  127.6300  123.3600   60.7180 C   0  0  0  0  0  0  0  0  0  0  0  0
  128.1070  123.6270   62.0020 C   0  0  0  0  0  0  0  0  0  0  0  0
  129.2200  122.9150   62.4630 C   0  0  0  0  0  0  0  0  0  0  0  0
  129.8330  121.9570   61.6470 C   0  0  0  0  0  0  0  0  0  0  0  0
  129.3400  121.7030   60.3630 C   0  0  0  0  0  0  0  0  0  0  0  0
  128.2300  122.4240   59.9200 C   0  0  0  0  0  0  0  0  0  0  0  0
  127.4890  122.3780   58.6350 C   0  0  0  0  0  0  0  0  0  0  0  0
  127.7220  121.6530   57.6660 O   0  0  0  0  0  0  0  0  0  0  0  0
  125.9909  121.7765   56.6892 H   0  0  0  0  0  0  0  0  0  0  0  0
  124.7733  122.7857   55.8372 H   0  0  0  0  0  0  0  0  0  0  0  0
  126.5023  123.2729   55.8372 H   0  0  0  0  0  0  0  0  0  0  0  0
  124.5000  123.2864   58.1069 H   0  0  0  0  0  0  0  0  0  0  0  0
  127.3524  126.1797   59.4056 H   0  0  0  0  0  0  0  0  0  0  0  0
  128.0994  128.3988   60.2575 H   0  0  0  0  0  0  0  0  0  0  0  0
  128.0645  131.4531   58.0488 H   0  0  0  0  0  0  0  0  0  0  0  0
  129.4620  132.0510   62.4010 H   0  0  0  0  0  0  0  0  0  0  0  0
  131.5670  131.7900   61.8760 H   0  0  0  0  0  0  0  0  0  0  0  0
  133.9929  129.9424   58.6019 H   0  0  0  0  0  0  0  0  0  0  0  0
  132.7988  129.4092   57.3705 H   0  0  0  0  0  0  0  0  0  0  0  0
  133.3930  131.1044   57.3705 H   0  0  0  0  0  0  0  0  0  0  0  0
  127.6493  132.7382   64.0001 H   0  0  0  0  0  0  0  0  0  0  0  0
  125.4620  133.2628   65.0972 H   0  0  0  0  0  0  0  0  0  0  0  0
  123.3251  132.9110   63.8605 H   0  0  0  0  0  0  0  0  0  0  0  0
  123.3585  132.0267   61.5211 H   0  0  0  0  0  0  0  0  0  0  0  0
  127.2862  130.1591   56.3899 H   0  0  0  0  0  0  0  0  0  0  0  0
  126.5461  127.9383   55.5366 H   0  0  0  0  0  0  0  0  0  0  0  0
  127.6189  124.3805   62.6376 H   0  0  0  0  0  0  0  0  0  0  0  0
  129.6150  123.1090   63.4712 H   0  0  0  0  0  0  0  0  0  0  0  0
  130.7069  121.4011   62.0175 H   0  0  0  0  0  0  0  0  0  0  0  0
  129.8166  120.9515   59.7164 H   0  0  0  0  0  0  0  0  0  0  0  0
  1  2  1  0
  2  3  1  0
  3  4  2  0
  3  5  1  0
  5  6  1  0
  6  7  2  0
  7  8  1  0
  8  9  2  0
  9 10  1  0
 10 11  1  0
 11 12  2  0
 12 13  1  0
 13 14  1  0
 14 15  1  0
 15 16  1  0
 16 17  2  0
 16 18  1  0
 18 19  1  0
 18 20  1  0
 20 21  2  0
 20 22  1  0
 12 23  1  0
 23 24  2  0
 24 25  1  0
 25 26  2  0
 26 27  1  0
 27 28  2  0
 28 29  1  0
 29 30  2  0
  9 31  1  0
 31 32  2  0
  2 33  1  0
 33 34  1  0
 34 35  2  0
 34 36  1  0
 36 37  2  0
 37 38  1  0
 38 39  2  0
 39 40  1  0
 40 41  2  0
 41 42  1  0
 42 43  2  0
 32  6  1  0
 42 33  1  0
 22 10  1  0
 28 23  1  0
 41 36  1  0
 29 11  1  0
 22 14  2  0
  1 44  1  0
  1 45  1  0
  1 46  1  0
  2 47  1  1
  7 48  1  0
  8 49  1  0
 10 50  1  6
 13 51  1  0
 15 52  1  0
 19 53  1  0
 19 54  1  0
 19 55  1  0
 24 56  1  0
 25 57  1  0
 26 58  1  0
 27 59  1  0
 31 60  1  0
 32 61  1  0
 37 62  1  0
 38 63  1  0
 39 64  1  0
 40 65  1  0
M  END
>  <Binding energies>  (1) 
[-10.55]

>  <Ligand effiencies>  (1) 
[-0.23444444444444446]

>  <Interactions>  (1) 
["V-B:TYR:539:CE2:9845, V-B:TYR:539:CZ:9846, V-B:PRO:540:CA:9852, V-B:ALA:541:CB:9861, V-B:TYR:539:C:9836, V-B:PRO:540:N:9853, V-B:PRO:540:CB:9854, V-B:TYR:539:CD2:9843, V-A:ASP:366:CG:3209, V-B:GLU:543:CD:9877, V-B:GLU:543:CG:9876, V-A:GLU:543:CD:4905, H-A:ARG:545:NH2:4925, H-A:GLU:543:OE2:4907, H-B:TYR:539:N:9839, V-B:PRO:540:CD:9856, V-A:ASP:366:CB:3208, V-B:MET:535:CE:9804, V-B:LEU:363:CD1:8157, V-B:TYR:531:CZ:9763, H-B:TYR:531:OH:9764, V-A:PRO:540:CA:4880, V-A:PRO:540:CB:4882, V-A:ALA:541:CB:4889, V-A:LEU:363:CA:3181, V-B:ILE:538:CB:9831, V-B:GLY:454:CA:9017, V-B:LEU:475:CD2:9227, V-B:ILE:369:CD1:8207, H-A:TYR:531:OH:4792, H-A:LEU:363:N:3182, H-A:ALA:541:O:4886"]

$$$$
RR24_Rahimova_2017-again1
     RDKit          3D

 63 69  0  0  0  0  0  0  0  0999 V2000
  126.0430  122.9830   56.6620 C   0  0  0  0  0  0  0  0  0  0  0  0
  125.9710  123.8800   57.9050 C   0  0  2  0  0  0  0  0  0  0  0  0
  125.7180  125.3790   57.5690 C   0  0  0  0  0  0  0  0  0  0  0  0
  124.6260  125.9210   57.7740 O   0  0  0  0  0  0  0  0  0  0  0  0
  126.8100  125.9860   57.0170 O   0  0  0  0  0  0  0  0  0  0  0  0
  127.1460  127.2640   57.4030 C   0  0  0  0  0  0  0  0  0  0  0  0
  127.2170  128.2760   56.4440 C   0  0  0  0  0  0  0  0  0  0  0  0
  127.5370  129.5740   56.8290 C   0  0  0  0  0  0  0  0  0  0  0  0
  127.7790  129.8700   58.1750 C   0  0  0  0  0  0  0  0  0  0  0  0
  128.1330  131.3010   58.6040 C   0  0  1  0  0  0  0  0  0  0  0  0
  127.1310  131.8370   59.6540 C   0  0  0  0  0  0  0  0  0  0  0  0
  125.8060  132.0980   59.5960 C   0  0  0  0  0  0  0  0  0  0  0  0
  125.0740  131.9680   58.5420 O   0  0  0  0  0  0  0  0  0  0  0  0
  125.3150  132.5220   60.9060 C   0  0  0  0  0  0  0  0  0  0  0  0
  124.0430  132.8860   61.3650 C   0  0  0  0  0  0  0  0  0  0  0  0
  123.8700  133.2470   62.7030 C   0  0  0  0  0  0  0  0  0  0  0  0
  124.9610  133.2450   63.5750 C   0  0  0  0  0  0  0  0  0  0  0  0
  126.2270  132.8830   63.1120 C   0  0  0  0  0  0  0  0  0  0  0  0
  126.3970  132.5180   61.7740 C   0  0  0  0  0  0  0  0  0  0  0  0
  127.5670  132.1190   61.0120 C   0  0  0  0  0  0  0  0  0  0  0  0
  128.7900  132.0160   61.3750 N   0  0  0  0  0  0  0  0  0  0  0  0
  129.7810  131.7410   60.4810 C   0  0  0  0  0  0  0  0  0  0  0  0
  131.0310  131.8330   61.0230 N   0  0  0  0  0  0  0  0  0  0  0  0
  132.0560  131.5810   60.2890 C   0  0  0  0  0  0  0  0  0  0  0  0
  133.1390  131.6910   60.8870 O   0  0  0  0  0  0  0  0  0  0  0  0
  131.9420  131.2220   58.9460 N   0  0  0  0  0  0  0  0  0  0  0  0
  133.1040  130.9240   58.0750 C   0  0  0  0  0  0  0  0  0  0  0  0
  130.7200  131.1220   58.3100 C   0  0  0  0  0  0  0  0  0  0  0  0
  130.5770  130.8310   57.1180 O   0  0  0  0  0  0  0  0  0  0  0  0
  129.5680  131.4010   59.1720 C   0  0  0  0  0  0  0  0  0  0  0  0
  127.6950  128.8560   59.1340 C   0  0  0  0  0  0  0  0  0  0  0  0
  127.3730  127.5570   58.7500 C   0  0  0  0  0  0  0  0  0  0  0  0
  127.1490  123.6910   58.8010 N   0  0  0  0  0  0  0  0  0  0  0  0
  127.0010  123.3290   60.1070 C   0  0  0  0  0  0  0  0  0  0  0  0
  125.9470  123.1200   60.7110 O   0  0  0  0  0  0  0  0  0  0  0  0
  128.3790  123.2410   60.6500 C   0  0  0  0  0  0  0  0  0  0  0  0
  128.8390  122.9180   61.9290 C   0  0  0  0  0  0  0  0  0  0  0  0
  130.2180  122.9130   62.1620 C   0  0  0  0  0  0  0  0  0  0  0  0
  131.1110  123.2250   61.1290 C   0  0  0  0  0  0  0  0  0  0  0  0
  130.6310  123.5450   59.8540 C   0  0  0  0  0  0  0  0  0  0  0  0
  129.2510  123.5460   59.6420 C   0  0  0  0  0  0  0  0  0  0  0  0
  128.4560  123.8370   58.4230 C   0  0  0  0  0  0  0  0  0  0  0  0
  128.8820  124.1420   57.3090 O   0  0  0  0  0  0  0  0  0  0  0  0
  126.1274  121.9313   56.9732 H   0  0  0  0  0  0  0  0  0  0  0  0
  125.1313  123.1155   56.0609 H   0  0  0  0  0  0  0  0  0  0  0  0
  126.9219  123.2592   56.0609 H   0  0  0  0  0  0  0  0  0  0  0  0
  125.0839  123.5488   58.4648 H   0  0  0  0  0  0  0  0  0  0  0  0
  127.0203  128.0476   55.3861 H   0  0  0  0  0  0  0  0  0  0  0  0
  127.6000  130.3703   56.0727 H   0  0  0  0  0  0  0  0  0  0  0  0
  128.0741  131.9185   57.6956 H   0  0  0  0  0  0  0  0  0  0  0  0
  123.1855  132.8876   60.6760 H   0  0  0  0  0  0  0  0  0  0  0  0
  122.8735  133.5332   63.0704 H   0  0  0  0  0  0  0  0  0  0  0  0
  124.8223  133.5292   64.6286 H   0  0  0  0  0  0  0  0  0  0  0  0
  127.0872  132.8850   63.7975 H   0  0  0  0  0  0  0  0  0  0  0  0
  133.9816  130.6989   58.6988 H   0  0  0  0  0  0  0  0  0  0  0  0
  132.8732  130.0560   57.4400 H   0  0  0  0  0  0  0  0  0  0  0  0
  133.3194  131.7960   57.4400 H   0  0  0  0  0  0  0  0  0  0  0  0
  127.8836  129.0848   60.1933 H   0  0  0  0  0  0  0  0  0  0  0  0
  127.2974  126.7621   59.5066 H   0  0  0  0  0  0  0  0  0  0  0  0
  128.1320  122.6729   62.7352 H   0  0  0  0  0  0  0  0  0  0  0  0
  130.6032  122.6628   63.1615 H   0  0  0  0  0  0  0  0  0  0  0  0
  132.1941  123.2185   61.3207 H   0  0  0  0  0  0  0  0  0  0  0  0
  131.3255  123.7903   59.0370 H   0  0  0  0  0  0  0  0  0  0  0  0
  1  2  1  0
  2  3  1  0
  3  4  2  0
  3  5  1  0
  5  6  1  0
  6  7  2  0
  7  8  1  0
  8  9  2  0
  9 10  1  0
 10 11  1  0
 11 12  2  0
 12 13  1  0
 12 14  1  0
 14 15  2  0
 15 16  1  0
 16 17  2  0
 17 18  1  0
 18 19  2  0
 19 20  1  0
 20 21  2  0
 21 22  1  0
 22 23  1  0
 23 24  2  0
 24 25  1  0
 24 26  1  0
 26 27  1  0
 26 28  1  0
 28 29  2  0
 28 30  1  0
  9 31  1  0
 31 32  2  0
  2 33  1  0
 33 34  1  0
 34 35  2  0
 34 36  1  0
 36 37  2  0
 37 38  1  0
 38 39  2  0
 39 40  1  0
 40 41  2  0
 41 42  1  0
 42 43  2  0
 32  6  1  0
 42 33  1  0
 30 10  1  0
 41 36  1  0
 20 11  1  0
 30 22  2  0
 19 14  1  0
  1 44  1  0
  1 45  1  0
  1 46  1  0
  2 47  1  1
  7 48  1  0
  8 49  1  0
 10 50  1  6
 15 51  1  0
 16 52  1  0
 17 53  1  0
 18 54  1  0
 27 55  1  0
 27 56  1  0
 27 57  1  0
 31 58  1  0
 32 59  1  0
 37 60  1  0
 38 61  1  0
 39 62  1  0
 40 63  1  0
M  CHG  2  13  -1  25  -1
M  END
>  <Binding energies>  (1) 
[-8.49]

>  <Ligand effiencies>  (1) 
[-0.19744186046511628]

>  <Interactions>  (1) 
["H-B:ALA:541:N:9860, V-B:TYR:539:CE2:9845, V-B:TYR:539:CZ:9846, V-B:PRO:540:CA:9852, V-B:ALA:541:CB:9861, V-B:PRO:540:N:9853, V-B:MET:535:CE:9804, H-B:TYR:531:OH:9764, H-A:ALA:541:N:4888, V-A:PRO:540:C:4878, V-A:PRO:540:CA:4880, V-A:PRO:540:CB:4882, V-A:LEU:363:CD1:3185, V-A:LEU:363:CA:3181, V-A:TYR:539:CE2:4873, V-B:GLY:454:CA:9017, V-B:LEU:475:CD2:9227, V-B:ILE:369:CD1:8207, V-B:ILE:369:CG2:8205, H-A:TYR:531:OH:4792"]

$$$$
RR25_Rahimova_2017
     RDKit          3D

 63 68  0  0  0  0  0  0  0  0999 V2000
  126.2890  129.7040   59.0330 O   0  0  0  0  0  0  0  0  0  0  0  0
  126.5220  128.5040   59.1870 C   0  0  0  0  0  0  0  0  0  0  0  0
  125.9720  127.6560   58.2570 O   0  0  0  0  0  0  0  0  0  0  0  0
  126.3580  126.3300   58.1720 C   0  0  0  0  0  0  0  0  0  0  0  0
  126.2050  125.7110   56.9330 C   0  0  0  0  0  0  0  0  0  0  0  0
  126.5660  124.3740   56.7780 C   0  0  0  0  0  0  0  0  0  0  0  0
  127.0790  123.6380   57.8570 C   0  0  0  0  0  0  0  0  0  0  0  0
  127.4700  122.2170   57.6870 N   0  0  0  0  0  0  0  0  0  0  0  0
  127.2290  121.6650   56.6160 O   0  0  0  0  0  0  0  0  0  0  0  0
  128.0200  121.6440   58.6230 O   0  0  0  0  0  0  0  0  0  0  0  0
  127.2130  124.2780   59.1000 C   0  0  0  0  0  0  0  0  0  0  0  0
  126.8490  125.6150   59.2740 C   0  0  0  0  0  0  0  0  0  0  0  0
  126.9850  126.3530   60.5930 C   0  0  0  0  0  0  0  0  0  0  0  0
  127.3500  127.8410   60.3260 C   0  0  2  0  0  0  0  0  0  0  0  0
  127.4010  128.6530   61.6530 C   0  0  0  0  0  0  0  0  0  0  0  0
  126.6560  129.6350   61.7170 O   0  0  0  0  0  0  0  0  0  0  0  0
  128.1280  128.2370   62.7330 N   0  0  0  0  0  0  0  0  0  0  0  0
  129.2490  127.2790   62.6230 C   0  0  0  0  0  0  0  0  0  0  0  0
  129.2480  126.3600   63.8620 C   0  0  0  0  0  0  0  0  0  0  0  0
  129.2830  127.1370   65.1050 N   0  0  0  0  0  0  0  0  0  0  0  0
  129.4160  126.2660   66.2800 C   0  0  0  0  0  0  0  0  0  0  0  0
  130.8170  125.6060   66.3870 C   0  0  0  0  0  0  0  0  0  0  0  0
  131.2330  124.7600   65.2300 N   0  0  0  0  0  0  0  0  0  0  0  0
  130.4050  123.6930   64.9540 C   0  0  0  0  0  0  0  0  0  0  0  0
  129.4040  123.4200   65.6280 O   0  0  0  0  0  0  0  0  0  0  0  0
  130.8050  122.8820   63.7370 C   0  0  0  0  0  0  0  0  0  0  0  0
  130.0170  121.7890   63.3490 C   0  0  0  0  0  0  0  0  0  0  0  0
  130.3510  121.0270   62.2310 C   0  0  0  0  0  0  0  0  0  0  0  0
  131.4750  121.3320   61.4650 C   0  0  0  0  0  0  0  0  0  0  0  0
  132.3010  122.4260   61.8190 C   0  0  0  0  0  0  0  0  0  0  0  0
  133.4550  122.7910   61.0860 C   0  0  0  0  0  0  0  0  0  0  0  0
  134.2220  123.8830   61.4870 C   0  0  0  0  0  0  0  0  0  0  0  0
  133.8710  124.6300   62.6100 C   0  0  0  0  0  0  0  0  0  0  0  0
  132.7380  124.3060   63.3660 C   0  0  0  0  0  0  0  0  0  0  0  0
  131.9510  123.1960   62.9630 C   0  0  0  0  0  0  0  0  0  0  0  0
  132.3850  125.1480   64.5770 C   0  0  0  0  0  0  0  0  0  0  0  0
  133.0730  126.1120   64.9280 O   0  0  0  0  0  0  0  0  0  0  0  0
  128.0950  127.9870   65.1940 C   0  0  0  0  0  0  0  0  0  0  0  0
  128.0130  128.9800   64.0090 C   0  0  0  0  0  0  0  0  0  0  0  0
  125.8006  126.2759   56.0801 H   0  0  0  0  0  0  0  0  0  0  0  0
  126.4473  123.8895   55.7976 H   0  0  0  0  0  0  0  0  0  0  0  0
  127.6134  123.7138   59.9552 H   0  0  0  0  0  0  0  0  0  0  0  0
  126.0320  126.3028   61.1400 H   0  0  0  0  0  0  0  0  0  0  0  0
  127.7799  125.8848   61.1921 H   0  0  0  0  0  0  0  0  0  0  0  0
  128.3718  127.8537   59.9189 H   0  0  0  0  0  0  0  0  0  0  0  0
  129.1275  126.6721   61.7136 H   0  0  0  0  0  0  0  0  0  0  0  0
  130.2015  127.8265   62.5672 H   0  0  0  0  0  0  0  0  0  0  0  0
  128.3363  125.7446   63.8503 H   0  0  0  0  0  0  0  0  0  0  0  0
  130.1469  125.7272   63.8241 H   0  0  0  0  0  0  0  0  0  0  0  0
  129.2413  126.8674   67.1843 H   0  0  0  0  0  0  0  0  0  0  0  0
  128.6772  125.4576   66.1771 H   0  0  0  0  0  0  0  0  0  0  0  0
  131.5596  126.4096   66.5002 H   0  0  0  0  0  0  0  0  0  0  0  0
  130.7575  124.9228   67.2470 H   0  0  0  0  0  0  0  0  0  0  0  0
  129.1230  121.5295   63.9351 H   0  0  0  0  0  0  0  0  0  0  0  0
  129.7185  120.1724   61.9489 H   0  0  0  0  0  0  0  0  0  0  0  0
  131.7207  120.7214   60.5836 H   0  0  0  0  0  0  0  0  0  0  0  0
  133.7472  122.2115   60.1978 H   0  0  0  0  0  0  0  0  0  0  0  0
  135.1165  124.1592   60.9095 H   0  0  0  0  0  0  0  0  0  0  0  0
  134.4935  125.4870   62.9068 H   0  0  0  0  0  0  0  0  0  0  0  0
  127.1988  127.3492   65.1877 H   0  0  0  0  0  0  0  0  0  0  0  0
  128.1577  128.5684   66.1257 H   0  0  0  0  0  0  0  0  0  0  0  0
  127.0489  129.5087   64.0398 H   0  0  0  0  0  0  0  0  0  0  0  0
  128.8335  129.7088   64.0840 H   0  0  0  0  0  0  0  0  0  0  0  0
  1  2  2  0
  2  3  1  0
  3  4  1  0
  4  5  2  0
  5  6  1  0
  6  7  2  0
  7  8  1  0
  8  9  2  0
  8 10  1  0
  7 11  1  0
 11 12  2  0
 12 13  1  0
 13 14  1  0
 14 15  1  0
 15 16  2  0
 15 17  1  0
 17 18  1  0
 18 19  1  0
 19 20  1  0
 20 21  1  0
 21 22  1  0
 22 23  1  0
 23 24  1  0
 24 25  2  0
 24 26  1  0
 26 27  2  0
 27 28  1  0
 28 29  2  0
 29 30  1  0
 30 31  2  0
 31 32  1  0
 32 33  2  0
 33 34  1  0
 34 35  2  0
 34 36  1  0
 36 37  2  0
 20 38  1  0
 38 39  1  0
 14  2  1  0
 39 17  1  0
 12  4  1  0
 36 23  1  0
 35 26  1  0
 35 30  1  0
  5 40  1  0
  6 41  1  0
 11 42  1  0
 13 43  1  0
 13 44  1  0
 14 45  1  6
 18 46  1  0
 18 47  1  0
 19 48  1  0
 19 49  1  0
 21 50  1  0
 21 51  1  0
 22 52  1  0
 22 53  1  0
 27 54  1  0
 28 55  1  0
 29 56  1  0
 31 57  1  0
 32 58  1  0
 33 59  1  0
 38 60  1  0
 38 61  1  0
 39 62  1  0
 39 63  1  0
M  CHG  2   8   1  10  -1
M  END
>  <Binding energies>  (1) 
[-8.77]

>  <Ligand effiencies>  (1) 
[-0.22487179487179487]

>  <Interactions>  (1) 
["V-B:TYR:539:CE2:9845, V-A:HIS:456:CE1:4066, V-B:TYR:539:CD1:9842, V-A:GLY:453:C:4038, V-B:PRO:540:CA:9852, V-A:ARG:545:CZ:4923, V-A:GLY:453:CA:4040, V-B:ALA:541:CB:9861, V-B:TYR:539:C:9836, H-A:TYR:484:OH:4344, V-B:PRO:540:N:9853, V-B:TYR:539:CD2:9843, V-A:ASP:366:CG:3209, V-A:TYR:484:CE1:4341, V-B:GLU:543:CB:9875, V-B:GLU:543:CD:9877, V-A:TYR:484:CZ:4343, V-B:GLU:543:CG:9876, V-A:GLU:543:CD:4905, H-A:ARG:545:NH2:4925, H-A:ARG:545:NH1:4924, V-A:LEU:475:CD1:4254, H-B:TYR:539:N:9839, V-A:LEU:475:CD2:4255, V-B:MET:535:CE:9804, H-A:ARG:545:NE:4921, H-B:TYR:531:OH:9764, V-B:ASP:366:CG:8181"]

$$$$
RR26_Rahimova_2017
     RDKit          3D

 59 65  0  0  0  0  0  0  0  0999 V2000
  131.0540  128.0060   69.6750 C   0  0  0  0  0  0  0  0  0  0  0  0
  129.7280  127.5520   70.2720 C   0  0  0  0  0  0  0  0  0  0  0  0
  129.4020  127.9800   71.5640 C   0  0  0  0  0  0  0  0  0  0  0  0
  128.1850  127.6280   72.1430 C   0  0  0  0  0  0  0  0  0  0  0  0
  127.2770  126.8490   71.4320 C   0  0  0  0  0  0  0  0  0  0  0  0
  127.5910  126.4180   70.1450 C   0  0  0  0  0  0  0  0  0  0  0  0
  128.8150  126.7540   69.5480 C   0  0  0  0  0  0  0  0  0  0  0  0
  129.0800  126.2350   68.1640 C   0  0  0  0  0  0  0  0  0  0  0  0
  129.5980  125.0300   67.9430 N   0  0  0  0  0  0  0  0  0  0  0  0
  129.6430  124.9900   66.6390 C   0  0  0  0  0  0  0  0  0  0  0  0
  130.1620  123.8500   65.4530 S   0  0  0  0  0  0  0  0  0  0  0  0
  129.6810  125.0100   64.1590 C   0  0  0  0  0  0  0  0  0  0  0  0
  129.7850  124.8480   62.8220 C   0  0  0  0  0  0  0  0  0  0  0  0
  130.3010  123.6990   62.0960 C   0  0  0  0  0  0  0  0  0  0  0  0
  131.5080  123.0420   62.2790 C   0  0  0  0  0  0  0  0  0  0  0  0
  131.5540  121.9900   61.3990 N   0  0  0  0  0  0  0  0  0  0  0  0
  132.5890  121.0350   61.2260 C   0  0  0  0  0  0  0  0  0  0  0  0
  133.9370  121.4090   61.3300 C   0  0  0  0  0  0  0  0  0  0  0  0
  134.9420  120.4620   61.1550 C   0  0  0  0  0  0  0  0  0  0  0  0
  134.6050  119.1400   60.8800 C   0  0  0  0  0  0  0  0  0  0  0  0
  133.2700  118.7540   60.7770 C   0  0  0  0  0  0  0  0  0  0  0  0
  132.2630  119.6990   60.9490 C   0  0  0  0  0  0  0  0  0  0  0  0
  130.4200  121.9310   60.6850 N   0  0  0  0  0  0  0  0  0  0  0  0
  129.6710  122.9410   61.0830 C   0  0  0  0  0  0  0  0  0  0  0  0
  128.3260  123.1610   60.4630 C   0  0  0  0  0  0  0  0  0  0  0  0
  128.2080  123.3870   59.0830 C   0  0  0  0  0  0  0  0  0  0  0  0
  126.9590  123.5970   58.4960 C   0  0  0  0  0  0  0  0  0  0  0  0
  125.8140  123.5850   59.2890 C   0  0  0  0  0  0  0  0  0  0  0  0
  125.9160  123.3420   60.6670 C   0  0  0  0  0  0  0  0  0  0  0  0
  127.1650  123.1390   61.2510 C   0  0  0  0  0  0  0  0  0  0  0  0
  124.8130  123.3650   61.4980 O   0  0  0  0  0  0  0  0  0  0  0  0
  123.5640  123.2100   60.8170 C   0  0  0  0  0  0  0  0  0  0  0  0
  123.5240  124.0940   59.5470 C   0  0  0  0  0  0  0  0  0  0  0  0
  124.5950  123.7490   58.6610 O   0  0  0  0  0  0  0  0  0  0  0  0
  129.1370  126.2520   64.7020 C   0  0  0  0  0  0  0  0  0  0  0  0
  128.7220  127.2460   64.1030 O   0  0  0  0  0  0  0  0  0  0  0  0
  129.1630  126.1250   66.0990 N   0  0  0  0  0  0  0  0  0  0  0  0
  128.7870  126.9450   67.0850 N   0  0  0  0  0  0  0  0  0  0  0  0
  131.7577  128.2469   70.4855 H   0  0  0  0  0  0  0  0  0  0  0  0
  131.4718  127.1997   69.0542 H   0  0  0  0  0  0  0  0  0  0  0  0
  130.8900  128.8992   69.0542 H   0  0  0  0  0  0  0  0  0  0  0  0
  130.1140  128.6006   72.1279 H   0  0  0  0  0  0  0  0  0  0  0  0
  127.9418  127.9655   73.1613 H   0  0  0  0  0  0  0  0  0  0  0  0
  126.3132  126.5741   71.8854 H   0  0  0  0  0  0  0  0  0  0  0  0
  126.8675  125.8044   69.5881 H   0  0  0  0  0  0  0  0  0  0  0  0
  129.4360  125.6899   62.2061 H   0  0  0  0  0  0  0  0  0  0  0  0
  132.2906  123.3156   63.0019 H   0  0  0  0  0  0  0  0  0  0  0  0
  134.2006  122.4539   61.5505 H   0  0  0  0  0  0  0  0  0  0  0  0
  135.9987  120.7574   61.2338 H   0  0  0  0  0  0  0  0  0  0  0  0
  135.4002  118.3925   60.7426 H   0  0  0  0  0  0  0  0  0  0  0  0
  133.0132  117.7065   60.5606 H   0  0  0  0  0  0  0  0  0  0  0  0
  131.2083  119.3975   60.8675 H   0  0  0  0  0  0  0  0  0  0  0  0
  129.1115  123.3988   58.4557 H   0  0  0  0  0  0  0  0  0  0  0  0
  126.8795  123.7711   57.4128 H   0  0  0  0  0  0  0  0  0  0  0  0
  127.2411  122.9608   62.3338 H   0  0  0  0  0  0  0  0  0  0  0  0
  123.4378  122.1561   60.5283 H   0  0  0  0  0  0  0  0  0  0  0  0
  122.7514  123.5193   61.4908 H   0  0  0  0  0  0  0  0  0  0  0  0
  122.5644  123.9427   59.0309 H   0  0  0  0  0  0  0  0  0  0  0  0
  123.6335  125.1476   59.8437 H   0  0  0  0  0  0  0  0  0  0  0  0
  1  2  1  0
  2  3  2  0
  3  4  1  0
  4  5  2  0
  5  6  1  0
  6  7  2  0
  7  8  1  0
  8  9  1  0
  9 10  2  0
 10 11  1  0
 11 12  1  0
 12 13  2  0
 13 14  1  0
 14 15  2  0
 15 16  1  0
 16 17  1  0
 17 18  2  0
 18 19  1  0
 19 20  2  0
 20 21  1  0
 21 22  2  0
 16 23  1  0
 23 24  2  0
 24 25  1  0
 25 26  2  0
 26 27  1  0
 27 28  2  0
 28 29  1  0
 29 30  2  0
 29 31  1  0
 31 32  1  0
 32 33  1  0
 33 34  1  0
 12 35  1  0
 35 36  2  0
 35 37  1  0
 37 38  1  0
  7  2  1  0
 38  8  2  0
 37 10  1  0
 24 14  1  0
 30 25  1  0
 22 17  1  0
 34 28  1  0
  1 39  1  0
  1 40  1  0
  1 41  1  0
  3 42  1  0
  4 43  1  0
  5 44  1  0
  6 45  1  0
 13 46  1  0
 15 47  1  0
 18 48  1  0
 19 49  1  0
 20 50  1  0
 21 51  1  0
 22 52  1  0
 26 53  1  0
 27 54  1  0
 30 55  1  0
 32 56  1  0
 32 57  1  0
 33 58  1  0
 33 59  1  0
M  END
>  <Binding energies>  (1) 
[-9.08]

>  <Ligand effiencies>  (1) 
[-0.23894736842105263]

>  <Interactions>  (1) 
["V-B:PRO:540:C:9850, H-B:ALA:541:N:9860, V-B:TYR:539:CE2:9845, V-B:ASN:362:CA:8142, V-A:HIS:456:CE1:4066, V-B:ASN:362:CB:8144, V-B:PRO:540:CA:9852, V-B:ALA:541:CB:9861, V-B:ASN:362:C:8140, H-A:TYR:484:OH:4344, V-A:GLY:454:CA:4045, V-B:PRO:540:CB:9854, V-B:TYR:539:CD2:9843, V-A:TYR:484:CE1:4341, V-B:HIS:456:CD2:9036, V-B:GLY:544:C:9881, V-B:LYS:547:CE:9919, V-B:GLU:543:CB:9875, V-B:GLU:543:CD:9877, V-A:GLU:543:C:4899, V-B:HIS:456:CE1:9038, V-A:TYR:484:CZ:4343, V-B:GLU:543:CG:9876, V-A:GLY:544:C:4909, V-A:ILE:369:CB:3232, V-B:LEU:363:CA:8153, V-A:LEU:475:CD1:4254, V-A:ILE:369:CG2:3233, V-A:ILE:369:CG1:3234, V-A:HIS:456:CD2:4064, V-B:GLU:543:C:9871, V-B:LEU:363:CD1:8157, V-B:HIS:456:CG:9034, V-B:LEU:363:CB:8155, V-B:ALA:541:CA:9859, V-A:SER:385:C:3401, V-A:SER:385:CA:3403, V-A:ILE:369:CD1:3235, V-A:TRP:381:CH2:3368, V-A:TRP:381:CZ2:3366"]

$$$$
RR27_Rahimova_2017
     RDKit          3D

 66 71  0  0  0  0  0  0  0  0999 V2000
  129.3650  123.8140   61.4090 O   0  0  0  0  0  0  0  0  0  0  0  0
  130.0320  124.8530   61.3880 C   0  0  0  0  0  0  0  0  0  0  0  0
  131.3040  124.9320   62.2820 C   0  0  0  0  0  0  0  0  0  0  0  0
  132.3450  123.8470   61.9490 C   0  0  0  0  0  0  0  0  0  0  0  0
  131.9870  122.4980   61.8020 C   0  0  0  0  0  0  0  0  0  0  0  0
  132.9530  121.5430   61.4990 C   0  0  0  0  0  0  0  0  0  0  0  0
  134.2810  121.9310   61.3420 C   0  0  0  0  0  0  0  0  0  0  0  0
  134.6510  123.2650   61.4870 C   0  0  0  0  0  0  0  0  0  0  0  0
  133.6850  124.2190   61.7900 C   0  0  0  0  0  0  0  0  0  0  0  0
  130.9470  125.0530   63.7750 C   0  0  0  0  0  0  0  0  0  0  0  0
  130.1540  124.0960   64.4230 C   0  0  0  0  0  0  0  0  0  0  0  0
  129.8400  124.2420   65.7730 C   0  0  0  0  0  0  0  0  0  0  0  0
  130.3130  125.3460   66.4760 C   0  0  0  0  0  0  0  0  0  0  0  0
  131.0930  126.3090   65.8430 C   0  0  0  0  0  0  0  0  0  0  0  0
  131.4050  126.1640   64.4950 C   0  0  0  0  0  0  0  0  0  0  0  0
  129.7670  125.8550   60.5020 N   0  0  0  0  0  0  0  0  0  0  0  0
  130.3540  127.2000   60.5990 C   0  0  0  0  0  0  0  0  0  0  0  0
  129.4290  128.0260   61.5200 C   0  0  0  0  0  0  0  0  0  0  0  0
  127.9450  128.0360   61.0330 C   0  0  0  0  0  0  0  0  0  0  0  0
  126.9610  128.7520   61.9760 C   0  0  0  0  0  0  0  0  0  0  0  0
  126.9640  128.3450   63.2800 N   0  0  0  0  0  0  0  0  0  0  0  0
  126.1310  128.9650   64.1610 C   0  0  0  0  0  0  0  0  0  0  0  0
  126.0470  128.6490   65.4920 O   0  0  0  0  0  0  0  0  0  0  0  0
  125.2990  130.0000   63.6920 C   0  0  0  0  0  0  0  0  0  0  0  0
  124.3780  130.8100   64.2880 N   0  0  0  0  0  0  0  0  0  0  0  0
  123.8670  131.6420   63.3080 N   0  0  0  0  0  0  0  0  0  0  0  0
  124.4690  131.3540   62.1350 N   0  0  0  0  0  0  0  0  0  0  0  0
  124.0990  132.0700   60.9170 C   0  0  0  0  0  0  0  0  0  0  0  0
  124.9340  131.6850   59.7030 C   0  0  0  0  0  0  0  0  0  0  0  0
  124.3460  131.0090   58.6290 C   0  0  0  0  0  0  0  0  0  0  0  0
  125.1090  130.6670   57.5120 C   0  0  0  0  0  0  0  0  0  0  0  0
  126.4620  131.0020   57.4600 C   0  0  0  0  0  0  0  0  0  0  0  0
  127.0530  131.6850   58.5240 C   0  0  0  0  0  0  0  0  0  0  0  0
  128.7210  132.1250   58.4510 Cl  0  0  0  0  0  0  0  0  0  0  0  0
  126.2920  132.0210   59.6440 C   0  0  0  0  0  0  0  0  0  0  0  0
  125.3760  130.3240   62.3200 C   0  0  0  0  0  0  0  0  0  0  0  0
  126.1780  129.7280   61.4330 N   0  0  0  0  0  0  0  0  0  0  0  0
  127.4650  126.6170   60.6010 C   0  0  0  0  0  0  0  0  0  0  0  0
  128.5070  125.8560   59.7420 C   0  0  0  0  0  0  0  0  0  0  0  0
  131.8213  125.8705   62.0336 H   0  0  0  0  0  0  0  0  0  0  0  0
  130.9373  122.1938   61.9269 H   0  0  0  0  0  0  0  0  0  0  0  0
  132.6687  120.4866   61.3841 H   0  0  0  0  0  0  0  0  0  0  0  0
  135.0445  121.1766   61.1012 H   0  0  0  0  0  0  0  0  0  0  0  0
  135.7024  123.5635   61.3626 H   0  0  0  0  0  0  0  0  0  0  0  0
  133.9763  125.2734   61.9055 H   0  0  0  0  0  0  0  0  0  0  0  0
  129.7781  123.2264   63.8639 H   0  0  0  0  0  0  0  0  0  0  0  0
  129.2209  123.4877   66.2807 H   0  0  0  0  0  0  0  0  0  0  0  0
  130.0679  125.4585   67.5424 H   0  0  0  0  0  0  0  0  0  0  0  0
  131.4608  127.1800   66.4053 H   0  0  0  0  0  0  0  0  0  0  0  0
  132.0158  126.9273   63.9908 H   0  0  0  0  0  0  0  0  0  0  0  0
  131.3641  127.1420   61.0306 H   0  0  0  0  0  0  0  0  0  0  0  0
  130.4397  127.6655   59.6060 H   0  0  0  0  0  0  0  0  0  0  0  0
  129.4643  127.5954   62.5316 H   0  0  0  0  0  0  0  0  0  0  0  0
  129.7896  129.0651   61.5069 H   0  0  0  0  0  0  0  0  0  0  0  0
  127.9407  128.6653   60.1308 H   0  0  0  0  0  0  0  0  0  0  0  0
  125.8940  127.7140   65.6420 H   0  0  0  0  0  0  0  0  0  0  0  0
  123.0434  131.8549   60.6948 H   0  0  0  0  0  0  0  0  0  0  0  0
  124.2789  133.1388   61.1051 H   0  0  0  0  0  0  0  0  0  0  0  0
  123.2785  130.7461   58.6651 H   0  0  0  0  0  0  0  0  0  0  0  0
  124.6428  130.1324   56.6712 H   0  0  0  0  0  0  0  0  0  0  0  0
  127.0631  130.7279   56.5805 H   0  0  0  0  0  0  0  0  0  0  0  0
  126.7612  132.5526   60.4850 H   0  0  0  0  0  0  0  0  0  0  0  0
  127.2597  126.0266   61.5062 H   0  0  0  0  0  0  0  0  0  0  0  0
  126.5654  126.7502   59.9822 H   0  0  0  0  0  0  0  0  0  0  0  0
  128.1706  124.8237   59.5656 H   0  0  0  0  0  0  0  0  0  0  0  0
  128.6380  126.3385   58.7622 H   0  0  0  0  0  0  0  0  0  0  0  0
  1  2  2  0
  2  3  1  0
  3  4  1  0
  4  5  2  0
  5  6  1  0
  6  7  2  0
  7  8  1  0
  8  9  2  0
  3 10  1  0
 10 11  2  0
 11 12  1  0
 12 13  2  0
 13 14  1  0
 14 15  2  0
  2 16  1  0
 16 17  1  0
 17 18  1  0
 18 19  1  0
 19 20  1  0
 20 21  2  0
 21 22  1  0
 22 23  1  0
 22 24  2  0
 24 25  1  0
 25 26  2  0
 26 27  1  0
 27 28  1  0
 28 29  1  0
 29 30  2  0
 30 31  1  0
 31 32  2  0
 32 33  1  0
 33 34  1  0
 33 35  2  0
 27 36  1  0
 36 37  2  0
 19 38  1  0
 38 39  1  0
  9  4  1  0
 15 10  1  0
 39 16  1  0
 37 20  1  0
 36 24  1  0
 35 29  1  0
  3 40  1  0
  5 41  1  0
  6 42  1  0
  7 43  1  0
  8 44  1  0
  9 45  1  0
 11 46  1  0
 12 47  1  0
 13 48  1  0
 14 49  1  0
 15 50  1  0
 17 51  1  0
 17 52  1  0
 18 53  1  0
 18 54  1  0
 19 55  1  0
 23 56  1  0
 28 57  1  0
 28 58  1  0
 30 59  1  0
 31 60  1  0
 32 61  1  0
 35 62  1  0
 38 63  1  0
 38 64  1  0
 39 65  1  0
 39 66  1  0
M  END
>  <Binding energies>  (1) 
[-9.49]

>  <Ligand effiencies>  (1) 
[-0.23725000000000002]

>  <Interactions>  (1) 
["V-B:TYR:539:CE2:9845, V-A:HIS:456:CE1:4066, V-A:GLY:453:C:4038, V-A:ARG:545:CZ:4923, V-A:GLY:453:CA:4040, V-A:GLY:454:CA:4045, V-A:ASP:366:CG:3209, H-B:GLU:543:OE2:9879, V-A:TYR:484:CE1:4341, V-B:GLU:543:CB:9875, V-B:GLU:543:CD:9877, V-A:TYR:484:CZ:4343, V-B:GLU:543:CG:9876, V-A:ILE:369:CB:3232, V-A:LEU:475:CD1:4254, V-A:ILE:369:CG2:3233, V-A:ILE:369:CG1:3234, H-B:GLY:454:N:9018, V-B:ARG:545:CZ:9895, H-B:TYR:484:OH:9316, H-B:ARG:545:NH2:9897, H-B:GLU:543:OE1:9878, V-B:ASP:366:CG:8181, V-A:TYR:539:C:4864, V-B:ASP:366:CB:8180, V-A:TYR:539:CE2:4873, V-A:TYR:539:CD2:4871, V-B:ASP:366:CA:8178, V-B:ILE:369:CD1:8207, V-B:ILE:369:CG2:8205, H-B:ARG:545:NE:9893"]

$$$$
RR27_Rahimova_2017-again1
     RDKit          3D

 66 71  0  0  0  0  0  0  0  0999 V2000
  130.6240  123.5590   58.8830 O   0  0  0  0  0  0  0  0  0  0  0  0
  129.5180  123.7300   59.4060 C   0  0  0  0  0  0  0  0  0  0  0  0
  128.6480  124.9260   58.9140 C   0  0  0  0  0  0  0  0  0  0  0  0
  128.3640  125.9480   60.0300 C   0  0  0  0  0  0  0  0  0  0  0  0
  127.0630  126.2140   60.4840 C   0  0  0  0  0  0  0  0  0  0  0  0
  126.8470  127.1440   61.4970 C   0  0  0  0  0  0  0  0  0  0  0  0
  127.9290  127.8150   62.0610 C   0  0  0  0  0  0  0  0  0  0  0  0
  129.2240  127.5620   61.6230 C   0  0  0  0  0  0  0  0  0  0  0  0
  129.4410  126.6310   60.6100 C   0  0  0  0  0  0  0  0  0  0  0  0
  127.3840  124.4530   58.1710 C   0  0  0  0  0  0  0  0  0  0  0  0
  126.3930  125.3590   57.7640 C   0  0  0  0  0  0  0  0  0  0  0  0
  125.2490  124.9060   57.1120 C   0  0  0  0  0  0  0  0  0  0  0  0
  125.0910  123.5450   56.8610 C   0  0  0  0  0  0  0  0  0  0  0  0
  126.0650  122.6350   57.2600 C   0  0  0  0  0  0  0  0  0  0  0  0
  127.2050  123.0860   57.9190 C   0  0  0  0  0  0  0  0  0  0  0  0
  128.9950  122.8130   60.2710 N   0  0  0  0  0  0  0  0  0  0  0  0
  127.8350  123.0750   61.1340 C   0  0  0  0  0  0  0  0  0  0  0  0
  128.3510  123.7610   62.4210 C   0  0  0  0  0  0  0  0  0  0  0  0
  129.6410  123.1400   63.0500 C   0  0  0  0  0  0  0  0  0  0  0  0
  130.4510  124.1340   63.8880 C   0  0  0  0  0  0  0  0  0  0  0  0
  129.8520  125.0230   64.6170 N   0  0  0  0  0  0  0  0  0  0  0  0
  130.6710  125.8590   65.3140 C   0  0  0  0  0  0  0  0  0  0  0  0
  132.0580  125.8430   65.3090 C   0  0  0  0  0  0  0  0  0  0  0  0
  132.5320  126.7980   66.0890 N   0  0  0  0  0  0  0  0  0  0  0  0
  131.4420  127.4710   66.6340 N   0  0  0  0  0  0  0  0  0  0  0  0
  130.3310  126.8770   66.1660 N   0  0  0  0  0  0  0  0  0  0  0  0
  129.0090  127.3650   66.5360 C   0  0  0  0  0  0  0  0  0  0  0  0
  128.6250  127.0370   67.9720 C   0  0  0  0  0  0  0  0  0  0  0  0
  127.3700  126.4860   68.2540 C   0  0  0  0  0  0  0  0  0  0  0  0
  127.0120  126.1940   69.5710 C   0  0  0  0  0  0  0  0  0  0  0  0
  127.9060  126.4490   70.6100 C   0  0  0  0  0  0  0  0  0  0  0  0
  129.1600  126.9930   70.3350 C   0  0  0  0  0  0  0  0  0  0  0  0
  130.2640  127.3120   71.6220 Cl  0  0  0  0  0  0  0  0  0  0  0  0
  129.5200  127.2850   69.0190 C   0  0  0  0  0  0  0  0  0  0  0  0
  132.7580  124.8450   64.5000 C   0  0  0  0  0  0  0  0  0  0  0  0
  133.9680  124.6750   64.3720 O   0  0  0  0  0  0  0  0  0  0  0  0
  131.8400  124.0540   63.8430 N   0  0  0  0  0  0  0  0  0  0  0  0
  130.5430  122.3090   62.0840 C   0  0  0  0  0  0  0  0  0  0  0  0
  129.8500  121.7490   60.8170 C   0  0  0  0  0  0  0  0  0  0  0  0
  129.2440  125.4738   58.1692 H   0  0  0  0  0  0  0  0  0  0  0  0
  126.2089  125.6845   60.0367 H   0  0  0  0  0  0  0  0  0  0  0  0
  125.8256  127.3481   61.8506 H   0  0  0  0  0  0  0  0  0  0  0  0
  127.7576  128.5515   62.8599 H   0  0  0  0  0  0  0  0  0  0  0  0
  130.0737  128.0949   62.0746 H   0  0  0  0  0  0  0  0  0  0  0  0
  130.4654  126.4306   60.2629 H   0  0  0  0  0  0  0  0  0  0  0  0
  126.5205  126.4336   57.9611 H   0  0  0  0  0  0  0  0  0  0  0  0
  124.4736  125.6197   56.7966 H   0  0  0  0  0  0  0  0  0  0  0  0
  124.1890  123.1868   56.3432 H   0  0  0  0  0  0  0  0  0  0  0  0
  125.9344  121.5621   57.0552 H   0  0  0  0  0  0  0  0  0  0  0  0
  127.9699  122.3653   58.2439 H   0  0  0  0  0  0  0  0  0  0  0  0
  127.1246  123.7362   60.6161 H   0  0  0  0  0  0  0  0  0  0  0  0
  127.3176  122.1358   61.3792 H   0  0  0  0  0  0  0  0  0  0  0  0
  128.5649  124.8129   62.1808 H   0  0  0  0  0  0  0  0  0  0  0  0
  127.5575  123.6271   63.1709 H   0  0  0  0  0  0  0  0  0  0  0  0
  129.2299  122.3901   63.7418 H   0  0  0  0  0  0  0  0  0  0  0  0
  128.9930  128.4578   66.4115 H   0  0  0  0  0  0  0  0  0  0  0  0
  128.2817  126.8620   65.8818 H   0  0  0  0  0  0  0  0  0  0  0  0
  126.6638  126.2825   67.4356 H   0  0  0  0  0  0  0  0  0  0  0  0
  126.0240  125.7625   69.7893 H   0  0  0  0  0  0  0  0  0  0  0  0
  127.6217  126.2208   71.6478 H   0  0  0  0  0  0  0  0  0  0  0  0
  130.5108  127.7116   68.8036 H   0  0  0  0  0  0  0  0  0  0  0  0
  132.2420  123.3370   63.2580 H   0  0  0  0  0  0  0  0  0  0  0  0
  131.3700  122.9561   61.7564 H   0  0  0  0  0  0  0  0  0  0  0  0
  130.8603  121.4279   62.6610 H   0  0  0  0  0  0  0  0  0  0  0  0
  130.6065  121.4572   60.0737 H   0  0  0  0  0  0  0  0  0  0  0  0
  129.2504  120.8608   61.0652 H   0  0  0  0  0  0  0  0  0  0  0  0
  1  2  2  0
  2  3  1  0
  3  4  1  0
  4  5  2  0
  5  6  1  0
  6  7  2  0
  7  8  1  0
  8  9  2  0
  3 10  1  0
 10 11  2  0
 11 12  1  0
 12 13  2  0
 13 14  1  0
 14 15  2  0
  2 16  1  0
 16 17  1  0
 17 18  1  0
 18 19  1  0
 19 20  1  0
 20 21  2  0
 21 22  1  0
 22 23  2  0
 23 24  1  0
 24 25  2  0
 25 26  1  0
 26 27  1  0
 27 28  1  0
 28 29  2  0
 29 30  1  0
 30 31  2  0
 31 32  1  0
 32 33  1  0
 32 34  2  0
 23 35  1  0
 35 36  2  0
 35 37  1  0
 19 38  1  0
 38 39  1  0
  9  4  1  0
 15 10  1  0
 39 16  1  0
 37 20  1  0
 26 22  1  0
 34 28  1  0
  3 40  1  0
  5 41  1  0
  6 42  1  0
  7 43  1  0
  8 44  1  0
  9 45  1  0
 11 46  1  0
 12 47  1  0
 13 48  1  0
 14 49  1  0
 15 50  1  0
 17 51  1  0
 17 52  1  0
 18 53  1  0
 18 54  1  0
 19 55  1  0
 27 56  1  0
 27 57  1  0
 29 58  1  0
 30 59  1  0
 31 60  1  0
 34 61  1  0
 37 62  1  0
 38 63  1  0
 38 64  1  0
 39 65  1  0
 39 66  1  0
M  END
>  <Binding energies>  (1) 
[-9.63]

>  <Ligand effiencies>  (1) 
[-0.24075000000000002]

>  <Interactions>  (1) 
["V-B:TYR:539:CE2:9845, V-A:HIS:456:CE1:4066, V-B:TYR:539:CZ:9846, V-B:PRO:540:CA:9852, V-A:ARG:545:CZ:4923, V-B:ALA:541:CB:9861, H-A:GLY:454:N:4046, H-A:TYR:484:OH:4344, V-B:PRO:540:N:9853, V-B:PRO:540:CB:9854, V-B:TYR:539:CD2:9843, V-B:HIS:456:CD2:9036, V-B:GLY:544:C:9881, V-B:GLU:543:CB:9875, V-B:GLU:543:CD:9877, V-B:HIS:456:CE1:9038, V-B:GLU:543:CG:9876, V-A:GLU:543:CD:4905, V-B:PRO:540:CD:9856, H-B:TYR:539:OH:9847, V-B:MET:535:CE:9804, V-A:HIS:456:CD2:4064, V-B:GLU:543:C:9871, H-A:ARG:545:NE:4921, V-B:LEU:363:CD1:8157, V-B:TYR:531:CE2:9762, V-B:GLY:544:CA:9883"]

$$$$
RR28_Rahimova_2017
     RDKit          3D

 82 85  0  0  0  0  0  0  0  0999 V2000
  124.3490  132.5720   62.9810 C   0  0  0  0  0  0  0  0  0  0  0  0
  124.6880  131.1080   63.2380 C   0  0  0  0  0  0  0  0  0  0  0  0
  123.8110  130.3430   63.6350 O   0  0  0  0  0  0  0  0  0  0  0  0
  125.9650  130.7410   63.0060 N   0  0  0  0  0  0  0  0  0  0  0  0
  126.5780  129.4040   63.1740 C   0  0  0  0  0  0  0  0  0  0  0  0
  126.7180  128.7540   61.7680 C   0  0  0  0  0  0  0  0  0  0  0  0
  126.6680  129.5670   60.6250 C   0  0  0  0  0  0  0  0  0  0  0  0
  126.7860  129.0200   59.3520 C   0  0  0  0  0  0  0  0  0  0  0  0
  126.9560  127.6440   59.1900 C   0  0  0  0  0  0  0  0  0  0  0  0
  127.0780  127.0600   57.7840 C   0  0  0  0  0  0  0  0  0  0  0  0
  128.2440  126.4380   57.5930 F   0  0  0  0  0  0  0  0  0  0  0  0
  126.1020  126.1800   57.5610 F   0  0  0  0  0  0  0  0  0  0  0  0
  126.9810  128.0450   56.8900 F   0  0  0  0  0  0  0  0  0  0  0  0
  127.0060  126.8220   60.3200 C   0  0  0  0  0  0  0  0  0  0  0  0
  126.8870  127.3720   61.5940 C   0  0  0  0  0  0  0  0  0  0  0  0
  125.7470  128.5410   64.1890 C   0  0  0  0  0  0  0  0  0  0  0  0
  125.7710  129.1020   65.6340 C   0  0  0  0  0  0  0  0  0  0  0  0
  127.1850  129.1470   66.0400 N   0  0  0  0  0  0  0  0  0  0  0  0
  127.7390  128.1060   66.7200 C   0  0  0  0  0  0  0  0  0  0  0  0
  127.0590  127.1790   67.1640 O   0  0  0  0  0  0  0  0  0  0  0  0
  129.2420  128.1680   67.0880 C   0  0  0  0  0  0  0  0  0  0  0  0
  130.2240  127.5990   66.0280 C   0  0  0  0  0  0  0  0  0  0  0  0
  130.1570  126.0660   65.8270 C   0  0  0  0  0  0  0  0  0  0  0  0
  130.5310  125.3440   66.7560 O   0  0  0  0  0  0  0  0  0  0  0  0
  129.5690  125.5560   64.7080 N   0  0  0  0  0  0  0  0  0  0  0  0
  129.4000  126.3190   63.4660 C   0  0  0  0  0  0  0  0  0  0  0  0
  130.7170  126.1670   62.6730 C   0  0  0  0  0  0  0  0  0  0  0  0
  131.1350  124.6850   62.3740 C   0  0  0  0  0  0  0  0  0  0  0  0
  132.5610  124.6530   61.9860 N   0  0  0  0  0  0  0  0  0  0  0  0
  133.3430  123.5740   61.7800 C   0  0  0  0  0  0  0  0  0  0  0  0
  134.7950  123.8530   61.4030 C   0  0  0  0  0  0  0  0  0  0  0  0
  132.9540  122.4110   61.8810 O   0  0  0  0  0  0  0  0  0  0  0  0
  130.3010  124.2020   61.1430 C   0  0  0  0  0  0  0  0  0  0  0  0
  129.2430  123.2840   61.2530 C   0  0  0  0  0  0  0  0  0  0  0  0
  128.5240  122.8810   60.1320 C   0  0  0  0  0  0  0  0  0  0  0  0
  128.8460  123.3820   58.8690 C   0  0  0  0  0  0  0  0  0  0  0  0
  128.0630  122.9520   57.6290 C   0  0  0  0  0  0  0  0  0  0  0  0
  128.5880  123.4970   56.5290 F   0  0  0  0  0  0  0  0  0  0  0  0
  128.1200  121.6260   57.5150 F   0  0  0  0  0  0  0  0  0  0  0  0
  126.7800  123.3120   57.6930 F   0  0  0  0  0  0  0  0  0  0  0  0
  129.9000  124.2890   58.7420 C   0  0  0  0  0  0  0  0  0  0  0  0
  130.6160  124.6900   59.8650 C   0  0  0  0  0  0  0  0  0  0  0  0
  130.8970  123.8130   63.6670 C   0  0  0  0  0  0  0  0  0  0  0  0
  129.5940  124.1090   64.4580 C   0  0  0  0  0  0  0  0  0  0  0  0
  127.9860  130.0970   65.2550 C   0  0  0  0  0  0  0  0  0  0  0  0
  128.0030  129.5790   63.7940 C   0  0  0  0  0  0  0  0  0  0  0  0
  124.2280  133.0944   63.9414 H   0  0  0  0  0  0  0  0  0  0  0  0
  125.1622  133.0416   62.4081 H   0  0  0  0  0  0  0  0  0  0  0  0
  123.4122  132.6363   62.4081 H   0  0  0  0  0  0  0  0  0  0  0  0
  126.6010  131.4630   62.7020 H   0  0  0  0  0  0  0  0  0  0  0  0
  126.5335  130.6529   60.7379 H   0  0  0  0  0  0  0  0  0  0  0  0
  126.7452  129.6745   58.4688 H   0  0  0  0  0  0  0  0  0  0  0  0
  127.1399  125.7365   60.2023 H   0  0  0  0  0  0  0  0  0  0  0  0
  126.9260  126.7146   62.4751 H   0  0  0  0  0  0  0  0  0  0  0  0
  124.7027  128.5067   63.8450 H   0  0  0  0  0  0  0  0  0  0  0  0
  126.2062  127.5419   64.2196 H   0  0  0  0  0  0  0  0  0  0  0  0
  125.3365  130.1123   65.6569 H   0  0  0  0  0  0  0  0  0  0  0  0
  125.1807  128.4721   66.3157 H   0  0  0  0  0  0  0  0  0  0  0  0
  129.5040  129.2227   67.2583 H   0  0  0  0  0  0  0  0  0  0  0  0
  129.3579  127.5278   67.9750 H   0  0  0  0  0  0  0  0  0  0  0  0
  130.0004  128.0792   65.0639 H   0  0  0  0  0  0  0  0  0  0  0  0
  131.2361  127.8151   66.4008 H   0  0  0  0  0  0  0  0  0  0  0  0
  128.5579  125.9159   62.8843 H   0  0  0  0  0  0  0  0  0  0  0  0
  129.1829  127.3767   63.6762 H   0  0  0  0  0  0  0  0  0  0  0  0
  130.6010  126.6907   61.7126 H   0  0  0  0  0  0  0  0  0  0  0  0
  131.5108  126.5921   63.3048 H   0  0  0  0  0  0  0  0  0  0  0  0
  132.9990  125.5590   61.9040 H   0  0  0  0  0  0  0  0  0  0  0  0
  135.3955  123.9684   62.3173 H   0  0  0  0  0  0  0  0  0  0  0  0
  135.1876  123.0139   60.8099 H   0  0  0  0  0  0  0  0  0  0  0  0
  134.8486  124.7779   60.8099 H   0  0  0  0  0  0  0  0  0  0  0  0
  128.9791  122.8777   62.2405 H   0  0  0  0  0  0  0  0  0  0  0  0
  127.6973  122.1637   60.2413 H   0  0  0  0  0  0  0  0  0  0  0  0
  130.1647  124.6874   57.7514 H   0  0  0  0  0  0  0  0  0  0  0  0
  131.4453  125.4034   59.7495 H   0  0  0  0  0  0  0  0  0  0  0  0
  130.8720  122.7568   63.3606 H   0  0  0  0  0  0  0  0  0  0  0  0
  131.7218  124.0645   64.3500 H   0  0  0  0  0  0  0  0  0  0  0  0
  128.7158  123.8117   63.8660 H   0  0  0  0  0  0  0  0  0  0  0  0
  129.5684  123.5448   65.4019 H   0  0  0  0  0  0  0  0  0  0  0  0
  127.5313  131.0978   65.2954 H   0  0  0  0  0  0  0  0  0  0  0  0
  129.0076  130.1732   65.6557 H   0  0  0  0  0  0  0  0  0  0  0  0
  128.5646  130.2963   63.1775 H   0  0  0  0  0  0  0  0  0  0  0  0
  128.4715  128.5839   63.8105 H   0  0  0  0  0  0  0  0  0  0  0  0
  1  2  1  0
  2  3  2  0
  2  4  1  0
  4  5  1  0
  5  6  1  0
  6  7  2  0
  7  8  1  0
  8  9  2  0
  9 10  1  0
 10 11  1  0
 10 12  1  0
 10 13  1  0
  9 14  1  0
 14 15  2  0
  5 16  1  0
 16 17  1  0
 17 18  1  0
 18 19  1  0
 19 20  2  0
 19 21  1  0
 21 22  1  0
 22 23  1  0
 23 24  2  0
 23 25  1  0
 25 26  1  0
 26 27  1  0
 27 28  1  0
 28 29  1  0
 29 30  1  0
 30 31  1  0
 30 32  2  0
 28 33  1  0
 33 34  2  0
 34 35  1  0
 35 36  2  0
 36 37  1  0
 37 38  1  0
 37 39  1  0
 37 40  1  0
 36 41  1  0
 41 42  2  0
 28 43  1  0
 43 44  1  0
 18 45  1  0
 45 46  1  0
 46  5  1  0
 15  6  1  0
 44 25  1  0
 42 33  1  0
  1 47  1  0
  1 48  1  0
  1 49  1  0
  4 50  1  0
  7 51  1  0
  8 52  1  0
 14 53  1  0
 15 54  1  0
 16 55  1  0
 16 56  1  0
 17 57  1  0
 17 58  1  0
 21 59  1  0
 21 60  1  0
 22 61  1  0
 22 62  1  0
 26 63  1  0
 26 64  1  0
 27 65  1  0
 27 66  1  0
 29 67  1  0
 31 68  1  0
 31 69  1  0
 31 70  1  0
 34 71  1  0
 35 72  1  0
 41 73  1  0
 42 74  1  0
 43 75  1  0
 43 76  1  0
 44 77  1  0
 44 78  1  0
 45 79  1  0
 45 80  1  0
 46 81  1  0
 46 82  1  0
M  END
>  <Binding energies>  (1) 
[-7.55]

>  <Ligand effiencies>  (1) 
[-0.15729166666666666]

>  <Interactions>  (1) 
["V-B:TYR:539:CE2:9845, V-B:TYR:539:CA:9838, V-B:TYR:539:CG:9841, V-B:TYR:539:CD1:9842, V-B:TYR:539:CZ:9846, V-A:GLY:453:C:4038, V-B:PRO:540:CA:9852, V-B:TYR:539:CE1:9844, V-A:GLY:453:CA:4040, V-B:ALA:541:CB:9861, V-B:TYR:539:C:9836, H-A:TYR:484:OH:4344, V-B:PRO:540:N:9853, V-B:TYR:539:CD2:9843, V-A:ASP:366:CG:3209, V-A:GLU:543:CB:4903, V-B:GLU:543:CB:9875, V-B:GLU:543:CD:9877, V-B:HIS:456:CE1:9038, V-B:GLU:543:CG:9876, V-A:GLU:543:CD:4905, H-A:ASP:366:OD2:3211, V-A:ILE:369:CG1:3234, H-B:GLY:454:N:9018, V-B:ARG:545:CZ:9895, V-A:GLU:543:CG:4904, H-A:ASP:366:OD1:3210, V-B:MET:535:CE:9804, V-B:ASP:366:CG:8181, V-B:GLY:454:CA:9017, V-B:LEU:475:CD2:9227, V-B:TYR:539:CB:9840, H-B:ARG:545:NH1:9896"]

$$$$
RR29_Rahimova_2017
     RDKit          3D

 35 36  0  0  0  0  0  0  0  0999 V2000
  129.2200  125.3350   66.0700 C   0  0  0  0  0  0  0  0  0  0  0  0
  129.1810  126.7100   65.4190 C   0  0  0  0  0  0  0  0  0  0  0  0
  129.4780  127.8560   66.4110 C   0  0  0  0  0  0  0  0  0  0  0  0
  130.3370  127.3740   67.5990 C   0  0  0  0  0  0  0  0  0  0  0  0
  129.5180  127.1920   68.8670 C   0  0  0  0  0  0  0  0  0  0  0  0
  128.2510  126.5780   68.8050 C   0  0  0  0  0  0  0  0  0  0  0  0
  127.4800  126.3990   69.9620 C   0  0  0  0  0  0  0  0  0  0  0  0
  128.0070  126.8600   71.1630 C   0  0  0  0  0  0  0  0  0  0  0  0
  129.2340  127.4580   71.2290 C   0  0  0  0  0  0  0  0  0  0  0  0
  130.0250  127.6390   70.1000 C   0  0  0  0  0  0  0  0  0  0  0  0
  129.5100  127.7760   72.5220 O   0  0  0  0  0  0  0  0  0  0  0  0
  128.3210  127.5490   73.2300 C   0  0  0  0  0  0  0  0  0  0  0  0
  127.4760  126.7830   72.4120 O   0  0  0  0  0  0  0  0  0  0  0  0
  128.9080  126.7890   64.1690 N   0  0  0  0  0  0  0  0  0  0  0  0
  128.7870  128.0370   63.5960 N   0  0  0  0  0  0  0  0  0  0  0  0
  127.7670  128.4040   62.8040 C   0  0  0  0  0  0  0  0  0  0  0  0
  126.7330  127.6260   62.4830 N   0  0  0  0  0  0  0  0  0  0  0  0
  127.7860  129.6310   62.3040 N   0  0  0  0  0  0  0  0  0  0  0  0
  129.2168  125.4472   67.1643 H   0  0  0  0  0  0  0  0  0  0  0  0
  128.3379  124.7565   65.7581 H   0  0  0  0  0  0  0  0  0  0  0  0
  130.1335  124.8074   65.7581 H   0  0  0  0  0  0  0  0  0  0  0  0
  130.0179  128.6549   65.8816 H   0  0  0  0  0  0  0  0  0  0  0  0
  128.5199  128.2235   66.8073 H   0  0  0  0  0  0  0  0  0  0  0  0
  130.7980  126.4110   67.3344 H   0  0  0  0  0  0  0  0  0  0  0  0
  131.0983  128.1428   67.7976 H   0  0  0  0  0  0  0  0  0  0  0  0
  127.8617  126.2344   67.8353 H   0  0  0  0  0  0  0  0  0  0  0  0
  126.4946  125.9119   69.9211 H   0  0  0  0  0  0  0  0  0  0  0  0
  131.0139  128.1157   70.1690 H   0  0  0  0  0  0  0  0  0  0  0  0
  128.5374  127.0031   74.1602 H   0  0  0  0  0  0  0  0  0  0  0  0
  127.8411  128.5034   73.4925 H   0  0  0  0  0  0  0  0  0  0  0  0
  129.5360  128.6910   63.7730 H   0  0  0  0  0  0  0  0  0  0  0  0
  125.8690  128.0370   62.1600 H   0  0  0  0  0  0  0  0  0  0  0  0
  126.8170  126.6240   62.5760 H   0  0  0  0  0  0  0  0  0  0  0  0
  128.6570  130.1380   62.2410 H   0  0  0  0  0  0  0  0  0  0  0  0
  126.9290  130.0550   61.9800 H   0  0  0  0  0  0  0  0  0  0  0  0
  1  2  1  0
  2  3  1  0
  3  4  1  0
  4  5  1  0
  5  6  2  0
  6  7  1  0
  7  8  2  0
  8  9  1  0
  9 10  2  0
  9 11  1  0
 11 12  1  0
 12 13  1  0
  2 14  2  0
 14 15  1  0
 15 16  1  0
 16 17  1  0
 16 18  2  0
 10  5  1  0
 13  8  1  0
  1 19  1  0
  1 20  1  0
  1 21  1  0
  3 22  1  0
  3 23  1  0
  4 24  1  0
  4 25  1  0
  6 26  1  0
  7 27  1  0
 10 28  1  0
 12 29  1  0
 12 30  1  0
 15 31  1  0
 17 32  1  0
 17 33  1  0
 18 34  1  0
 18 35  1  0
M  CHG  1  18   1
M  END
>  <Binding energies>  (1) 
[-7.27]

>  <Ligand effiencies>  (1) 
[-0.3160869565217391]

>  <Interactions>  (1) 
["V-A:HIS:456:CE1:4066, H-B:GLU:543:OE2:9879, V-B:HIS:456:CD2:9036, V-A:GLU:543:CB:4903, H-A:LYS:547:NZ:4948, V-B:GLY:544:C:9881, V-B:LYS:547:CE:9919, V-B:GLU:543:CB:9875, V-B:GLU:543:CD:9877, V-B:HIS:456:CE1:9038, V-B:GLU:543:CG:9876, V-A:GLU:543:CD:4905, H-A:GLU:543:OE2:4907, H-A:GLU:543:OE1:4906, V-A:GLU:543:CG:4904, V-B:GLU:543:C:9871, H-B:ASP:366:OD1:8182, H-B:GLU:543:OE1:9878"]

$$$$
RR29_Rahimova_2017-again1
     RDKit          3D

 34 35  0  0  0  0  0  0  0  0999 V2000
  123.9230  131.8720   60.7620 C   0  0  0  0  0  0  0  0  0  0  0  0
  124.4400  131.7370   62.1860 C   0  0  0  0  0  0  0  0  0  0  0  0
  125.7440  132.5170   62.4430 C   0  0  0  0  0  0  0  0  0  0  0  0
  126.1400  133.3750   61.2230 C   0  0  0  0  0  0  0  0  0  0  0  0
  127.4100  132.8720   60.5530 C   0  0  0  0  0  0  0  0  0  0  0  0
  127.4110  132.5830   59.1750 C   0  0  0  0  0  0  0  0  0  0  0  0
  128.5700  132.1200   58.5370 C   0  0  0  0  0  0  0  0  0  0  0  0
  129.7090  131.9500   59.3160 C   0  0  0  0  0  0  0  0  0  0  0  0
  129.7130  132.2260   60.6550 C   0  0  0  0  0  0  0  0  0  0  0  0
  128.5810  132.6960   61.3110 C   0  0  0  0  0  0  0  0  0  0  0  0
  130.9560  132.0030   61.1550 O   0  0  0  0  0  0  0  0  0  0  0  0
  131.6710  131.3710   60.1270 C   0  0  0  0  0  0  0  0  0  0  0  0
  130.9490  131.5450   58.9360 O   0  0  0  0  0  0  0  0  0  0  0  0
  123.7940  131.0030   63.0220 N   0  0  0  0  0  0  0  0  0  0  0  0
  124.2820  130.8910   64.2150 N   0  0  0  0  0  0  0  0  0  0  0  0
  124.9730  129.8410   64.4730 C   0  0  0  0  0  0  0  0  0  0  0  0
  125.2790  128.7570   63.6030 N   0  0  0  0  0  0  0  0  0  0  0  0
  125.5490  129.6380   65.7450 N   0  0  0  0  0  0  0  0  0  0  0  0
  122.8589  132.1499   60.7831 H   0  0  0  0  0  0  0  0  0  0  0  0
  124.4950  132.6509   60.2365 H   0  0  0  0  0  0  0  0  0  0  0  0
  124.0412  130.9129   60.2365 H   0  0  0  0  0  0  0  0  0  0  0  0
  125.6009  133.1760   63.3120 H   0  0  0  0  0  0  0  0  0  0  0  0
  126.5490  131.7911   62.6302 H   0  0  0  0  0  0  0  0  0  0  0  0
  125.3195  133.3494   60.4908 H   0  0  0  0  0  0  0  0  0  0  0  0
  126.3288  134.3989   61.5779 H   0  0  0  0  0  0  0  0  0  0  0  0
  126.4894  132.7225   58.5910 H   0  0  0  0  0  0  0  0  0  0  0  0
  128.5781  131.8992   57.4594 H   0  0  0  0  0  0  0  0  0  0  0  0
  128.6008  132.9226   62.3872 H   0  0  0  0  0  0  0  0  0  0  0  0
  132.6683  131.8249   60.0303 H   0  0  0  0  0  0  0  0  0  0  0  0
  131.7984  130.3009   60.3476 H   0  0  0  0  0  0  0  0  0  0  0  0
  124.9450  128.7240   62.6500 H   0  0  0  0  0  0  0  0  0  0  0  0
  125.8300  127.9650   63.8960 H   0  0  0  0  0  0  0  0  0  0  0  0
  125.4360  130.3020   66.4970 H   0  0  0  0  0  0  0  0  0  0  0  0
  126.0920  128.8180   65.9700 H   0  0  0  0  0  0  0  0  0  0  0  0
  1  2  1  0
  2  3  1  0
  3  4  1  0
  4  5  1  0
  5  6  2  0
  6  7  1  0
  7  8  2  0
  8  9  1  0
  9 10  2  0
  9 11  1  0
 11 12  1  0
 12 13  1  0
  2 14  2  0
 14 15  1  0
 15 16  2  0
 16 17  1  0
 16 18  1  0
 10  5  1  0
 13  8  1  0
  1 19  1  0
  1 20  1  0
  1 21  1  0
  3 22  1  0
  3 23  1  0
  4 24  1  0
  4 25  1  0
  6 26  1  0
  7 27  1  0
 10 28  1  0
 12 29  1  0
 12 30  1  0
 17 31  1  0
 17 32  1  0
 18 33  1  0
 18 34  1  0
M  END
>  <Binding energies>  (1) 
[-6.37]

>  <Ligand effiencies>  (1) 
[-0.28954545454545455]

>  <Interactions>  (1) 
["H-B:GLU:543:OE2:9879, V-B:GLU:543:CD:9877, V-B:HIS:456:CE1:9038, H-B:GLY:454:N:9018, V-B:ARG:545:CZ:9895, H-B:TYR:484:OH:9316, H-B:ASP:366:OD1:8182, H-B:GLU:543:OE1:9878, H-A:ALA:541:N:4888, V-B:ASP:366:CG:8181, V-A:PRO:540:C:4878, V-A:PRO:540:CA:4880, V-A:PRO:540:CB:4882, V-A:TYR:539:C:4864, V-A:ALA:541:CB:4889, H-B:ASP:366:OD2:8183, V-A:TYR:539:CE2:4873, V-A:TYR:539:CD2:4871, V-B:LEU:475:CD2:9227, H-B:HIS:456:NE2:9039, V-B:ILE:369:CD1:8207, V-B:ILE:369:CG2:8205"]

$$$$
RR2_Rahimova_2017
     RDKit          3D

 76 80  0  0  0  0  0  0  0  0999 V2000
  124.5480  130.9170   62.2970 C   0  0  0  0  0  0  0  0  0  0  0  0
  125.2260  130.3350   63.4040 O   0  0  0  0  0  0  0  0  0  0  0  0
  126.3760  129.6000   63.1810 C   0  0  0  0  0  0  0  0  0  0  0  0
  127.0400  128.8520   64.1630 C   0  0  0  0  0  0  0  0  0  0  0  0
  128.1970  128.1450   63.8450 C   0  0  0  0  0  0  0  0  0  0  0  0
  128.7170  128.1710   62.5440 C   0  0  0  0  0  0  0  0  0  0  0  0
  129.9820  127.3980   62.2260 C   0  0  0  0  0  0  0  0  0  0  0  0
  130.8960  127.3290   63.0550 O   0  0  0  0  0  0  0  0  0  0  0  0
  130.0310  126.8250   61.0000 N   0  0  0  0  0  0  0  0  0  0  0  0
  131.2060  126.1830   60.6220 N   0  0  0  0  0  0  0  0  0  0  0  0
  131.1510  125.3010   59.6040 C   0  0  0  0  0  0  0  0  0  0  0  0
  130.1100  124.8800   59.0910 O   0  0  0  0  0  0  0  0  0  0  0  0
  132.5080  124.8330   59.0610 C   0  0  0  0  0  0  0  0  0  0  0  0
  133.2610  123.4310   59.9650 S   0  0  0  0  0  0  0  0  0  0  0  0
  133.0620  123.9750   61.6350 C   0  0  0  0  0  0  0  0  0  0  0  0
  134.0600  124.3850   62.3760 N   0  0  0  0  0  0  0  0  0  0  0  0
  133.5560  124.6630   63.6380 N   0  0  0  0  0  0  0  0  0  0  0  0
  132.2640  124.4380   63.6050 C   0  0  0  0  0  0  0  0  0  0  0  0
  131.3630  124.6430   64.7800 C   0  0  0  0  0  0  0  0  0  0  0  0
  131.4970  125.7910   65.5660 C   0  0  0  0  0  0  0  0  0  0  0  0
  130.6680  125.9860   66.6670 C   0  0  0  0  0  0  0  0  0  0  0  0
  129.6850  125.0420   66.9830 C   0  0  0  0  0  0  0  0  0  0  0  0
  128.8300  125.1810   68.0860 N   0  0  0  0  0  0  0  0  0  0  0  0
  128.0400  126.6990   68.5690 S   0  0  0  0  0  0  0  0  0  0  0  0
  126.6000  126.4760   68.4020 O   0  0  0  0  0  0  0  0  0  0  0  0
  128.7160  127.8040   67.8780 O   0  0  0  0  0  0  0  0  0  0  0  0
  128.3390  126.8430   70.3290 C   0  0  0  0  0  0  0  0  0  0  0  0
  129.6420  126.8810   70.8290 C   0  0  0  0  0  0  0  0  0  0  0  0
  129.8530  126.9770   72.2020 C   0  0  0  0  0  0  0  0  0  0  0  0
  128.7620  127.0420   73.0730 C   0  0  0  0  0  0  0  0  0  0  0  0
  128.9940  127.1320   74.5700 C   0  0  0  0  0  0  0  0  0  0  0  0
  127.4600  127.0000   72.5700 C   0  0  0  0  0  0  0  0  0  0  0  0
  127.2480  126.9020   71.1980 C   0  0  0  0  0  0  0  0  0  0  0  0
  129.5510  123.8980   66.1960 C   0  0  0  0  0  0  0  0  0  0  0  0
  130.3840  123.6980   65.0990 C   0  0  0  0  0  0  0  0  0  0  0  0
  131.8790  123.9910   62.3520 N   0  0  0  0  0  0  0  0  0  0  0  0
  130.5970  123.5990   61.9160 C   0  0  0  0  0  0  0  0  0  0  0  0
  130.4480  122.4600   61.1230 C   0  0  0  0  0  0  0  0  0  0  0  0
  129.1790  122.0760   60.7010 C   0  0  0  0  0  0  0  0  0  0  0  0
  128.0540  122.8190   61.0610 C   0  0  0  0  0  0  0  0  0  0  0  0
  126.8380  122.3600   60.5930 O   0  0  0  0  0  0  0  0  0  0  0  0
  125.7750  123.2870   60.3950 C   0  0  0  0  0  0  0  0  0  0  0  0
  128.2130  123.9640   61.8590 C   0  0  0  0  0  0  0  0  0  0  0  0
  129.4800  124.3520   62.2860 C   0  0  0  0  0  0  0  0  0  0  0  0
  128.0430  128.9180   61.5650 C   0  0  0  0  0  0  0  0  0  0  0  0
  126.8860  129.6230   61.8850 C   0  0  0  0  0  0  0  0  0  0  0  0
  123.7609  131.5926   62.6631 H   0  0  0  0  0  0  0  0  0  0  0  0
  125.2644  131.4857   61.6860 H   0  0  0  0  0  0  0  0  0  0  0  0
  124.0944  130.1227   61.6860 H   0  0  0  0  0  0  0  0  0  0  0  0
  126.6455  128.8233   65.1894 H   0  0  0  0  0  0  0  0  0  0  0  0
  128.7082  127.5598   64.6236 H   0  0  0  0  0  0  0  0  0  0  0  0
  129.5570  127.2330   60.2080 H   0  0  0  0  0  0  0  0  0  0  0  0
  132.0400  126.6980   60.8690 H   0  0  0  0  0  0  0  0  0  0  0  0
  132.3696  124.5284   58.0131 H   0  0  0  0  0  0  0  0  0  0  0  0
  133.1968  125.6821   59.1817 H   0  0  0  0  0  0  0  0  0  0  0  0
  132.2597  126.5424   65.3138 H   0  0  0  0  0  0  0  0  0  0  0  0
  130.7861  126.8847   67.2903 H   0  0  0  0  0  0  0  0  0  0  0  0
  128.6280  124.3550   68.6310 H   0  0  0  0  0  0  0  0  0  0  0  0
  130.4989  126.8353   70.1407 H   0  0  0  0  0  0  0  0  0  0  0  0
  130.8778  127.0017   72.6009 H   0  0  0  0  0  0  0  0  0  0  0  0
  128.0963  126.7837   75.1018 H   0  0  0  0  0  0  0  0  0  0  0  0
  129.8518  126.5014   74.8467 H   0  0  0  0  0  0  0  0  0  0  0  0
  129.2021  128.1761   74.8467 H   0  0  0  0  0  0  0  0  0  0  0  0
  126.6026  127.0443   73.2577 H   0  0  0  0  0  0  0  0  0  0  0  0
  126.2233  126.8711   70.7993 H   0  0  0  0  0  0  0  0  0  0  0  0
  128.7832  123.1503   66.4436 H   0  0  0  0  0  0  0  0  0  0  0  0
  130.2716  122.7944   64.4819 H   0  0  0  0  0  0  0  0  0  0  0  0
  131.3293  121.8690   60.8332 H   0  0  0  0  0  0  0  0  0  0  0  0
  129.0614  121.1776   60.0773 H   0  0  0  0  0  0  0  0  0  0  0  0
  125.3927  123.6204   61.3710 H   0  0  0  0  0  0  0  0  0  0  0  0
  126.1460  124.1552   59.8305 H   0  0  0  0  0  0  0  0  0  0  0  0
  124.9654  122.8014   59.8305 H   0  0  0  0  0  0  0  0  0  0  0  0
  127.3325  124.5567   62.1478 H   0  0  0  0  0  0  0  0  0  0  0  0
  129.6011  125.2481   62.9124 H   0  0  0  0  0  0  0  0  0  0  0  0
  128.4323  128.9465   60.5366 H   0  0  0  0  0  0  0  0  0  0  0  0
  126.3695  130.2039   61.1067 H   0  0  0  0  0  0  0  0  0  0  0  0
  1  2  1  0
  2  3  1  0
  3  4  2  0
  4  5  1  0
  5  6  2  0
  6  7  1  0
  7  8  2  0
  7  9  1  0
  9 10  1  0
 10 11  1  0
 11 12  2  0
 11 13  1  0
 13 14  1  0
 14 15  1  0
 15 16  2  0
 16 17  1  0
 17 18  2  0
 18 19  1  0
 19 20  2  0
 20 21  1  0
 21 22  2  0
 22 23  1  0
 23 24  1  0
 24 25  2  0
 24 26  2  0
 24 27  1  0
 27 28  2  0
 28 29  1  0
 29 30  2  0
 30 31  1  0
 30 32  1  0
 32 33  2  0
 22 34  1  0
 34 35  2  0
 18 36  1  0
 36 37  1  0
 37 38  2  0
 38 39  1  0
 39 40  2  0
 40 41  1  0
 41 42  1  0
 40 43  1  0
 43 44  2  0
  6 45  1  0
 45 46  2  0
 46  3  1  0
 36 15  1  0
 44 37  1  0
 35 19  1  0
 33 27  1  0
  1 47  1  0
  1 48  1  0
  1 49  1  0
  4 50  1  0
  5 51  1  0
  9 52  1  0
 10 53  1  0
 13 54  1  0
 13 55  1  0
 20 56  1  0
 21 57  1  0
 23 58  1  0
 28 59  1  0
 29 60  1  0
 31 61  1  0
 31 62  1  0
 31 63  1  0
 32 64  1  0
 33 65  1  0
 34 66  1  0
 35 67  1  0
 38 68  1  0
 39 69  1  0
 42 70  1  0
 42 71  1  0
 42 72  1  0
 43 73  1  0
 44 74  1  0
 45 75  1  0
 46 76  1  0
M  END
>  <Binding energies>  (1) 
[-9.26]

>  <Ligand effiencies>  (1) 
[-0.18897959183673468]

>  <Interactions>  (1) 
["V-B:PRO:540:C:9850, H-B:ALA:541:N:9860, V-B:TYR:539:CE2:9845, V-A:HIS:456:CE1:4066, V-B:TYR:539:CZ:9846, V-B:PRO:540:CA:9852, V-B:ALA:541:CB:9861, H-A:GLY:454:N:4046, V-B:PRO:540:CB:9854, V-B:TYR:539:CD2:9843, V-A:ASP:366:CG:3209, V-A:TYR:484:CE1:4341, V-B:HIS:456:CD2:9036, V-A:LYS:547:CE:4947, V-B:GLY:544:C:9881, V-B:LYS:547:CE:9919, V-B:GLU:543:CB:9875, V-B:GLU:543:CD:9877, V-B:HIS:456:CE1:9038, V-A:TYR:484:CZ:4343, V-B:GLU:543:CG:9876, V-A:GLU:543:CD:4905, H-A:ARG:545:NH2:4925, H-A:ASP:366:OD2:3211, H-A:ASP:366:OD1:3210, H-B:TYR:539:OH:9847, V-A:ASP:366:CB:3208, V-A:HIS:456:CD2:4064, V-B:GLU:543:C:9871, V-B:HIS:456:CG:9034, V-B:ASP:366:CG:8181, V-B:GLU:543:CA:9873, V-A:ASP:366:CA:3206, H-A:HIS:456:NE2:4067, H-B:ARG:545:N:9889, H-B:GLU:543:O:9872"]

$$$$
RR30_Rahimova_2017
     RDKit          3D

 29 30  0  0  0  0  0  0  0  0999 V2000
  130.2700  124.6750   65.5580 C   0  0  0  0  0  0  0  0  0  0  0  0
  131.6330  125.3060   65.2380 C   0  0  0  0  0  0  0  0  0  0  0  0
  132.3330  124.6090   64.0930 C   0  0  0  0  0  0  0  0  0  0  0  0
  133.5830  124.7240   63.7170 N   0  0  0  0  0  0  0  0  0  0  0  0
  133.7280  123.8870   62.6140 N   0  0  0  0  0  0  0  0  0  0  0  0
  132.5530  123.3460   62.4120 C   0  0  0  0  0  0  0  0  0  0  0  0
  132.1040  122.1830   61.1640 S   0  0  0  0  0  0  0  0  0  0  0  0
  130.3030  122.1240   61.4260 C   0  0  0  0  0  0  0  0  0  0  0  0
  129.5250  122.6540   60.2190 C   0  0  0  0  0  0  0  0  0  0  0  0
  129.6630  123.8330   59.8850 O   0  0  0  0  0  0  0  0  0  0  0  0
  128.6960  121.7720   59.6170 N   0  0  0  0  0  0  0  0  0  0  0  0
  127.8910  122.0190   58.5150 C   0  0  0  0  0  0  0  0  0  0  0  0
  127.9910  121.5150   57.3050 N   0  0  0  0  0  0  0  0  0  0  0  0
  127.0040  121.9930   56.4510 N   0  0  0  0  0  0  0  0  0  0  0  0
  126.1840  122.8420   57.0270 C   0  0  0  0  0  0  0  0  0  0  0  0
  125.0330  123.5010   56.3030 C   0  0  0  0  0  0  0  0  0  0  0  0
  126.5670  123.1250   58.7030 S   0  0  0  0  0  0  0  0  0  0  0  0
  131.6240  123.7550   63.3130 O   0  0  0  0  0  0  0  0  0  0  0  0
  130.1407  124.6151   66.6487 H   0  0  0  0  0  0  0  0  0  0  0  0
  129.4692  125.2940   65.1272 H   0  0  0  0  0  0  0  0  0  0  0  0
  130.2238  123.6639   65.1272 H   0  0  0  0  0  0  0  0  0  0  0  0
  131.4798  126.3616   64.9691 H   0  0  0  0  0  0  0  0  0  0  0  0
  132.2678  125.2072   66.1309 H   0  0  0  0  0  0  0  0  0  0  0  0
  130.0057  121.0808   61.6087 H   0  0  0  0  0  0  0  0  0  0  0  0
  130.0662  122.7649   62.2881 H   0  0  0  0  0  0  0  0  0  0  0  0
  128.6450  120.8400   60.0010 H   0  0  0  0  0  0  0  0  0  0  0  0
  124.3225  123.9078   57.0376 H   0  0  0  0  0  0  0  0  0  0  0  0
  125.4156  124.3169   55.6722 H   0  0  0  0  0  0  0  0  0  0  0  0
  124.5231  122.7580   55.6722 H   0  0  0  0  0  0  0  0  0  0  0  0
  1  2  1  0
  2  3  1  0
  3  4  2  0
  4  5  1  0
  5  6  2  0
  6  7  1  0
  7  8  1  0
  8  9  1  0
  9 10  2  0
  9 11  1  0
 11 12  1  0
 12 13  2  0
 13 14  1  0
 14 15  2  0
 15 16  1  0
 15 17  1  0
  6 18  1  0
 18  3  1  0
 17 12  1  0
  1 19  1  0
  1 20  1  0
  1 21  1  0
  2 22  1  0
  2 23  1  0
  8 24  1  0
  8 25  1  0
 11 26  1  0
 16 27  1  0
 16 28  1  0
 16 29  1  0
M  END
>  <Binding energies>  (1) 
[-6.71]

>  <Ligand effiencies>  (1) 
[-0.3531578947368421]

>  <Interactions>  (1) 
["V-B:TYR:539:CE2:9845, V-A:HIS:456:CE1:4066, V-B:TYR:539:CG:9841, V-B:TYR:539:CZ:9846, V-B:PRO:540:CA:9852, V-B:ALA:541:CB:9861, H-A:GLY:454:N:4046, V-B:TYR:539:C:9836, V-B:PRO:540:N:9853, V-B:PRO:540:CB:9854, V-B:TYR:539:CD2:9843, V-A:TYR:484:CE1:4341, V-A:TYR:484:CZ:4343, V-B:GLU:543:CG:9876, H-A:ARG:545:NH2:4925, H-B:TYR:539:O:9837, H-B:TYR:539:N:9839, V-B:PRO:540:CD:9856, V-B:LEU:363:CD1:8157"]

$$$$
RR31_Rahimova_2017
     RDKit          3D

 44 45  0  0  0  0  0  0  0  0999 V2000
  127.9410  127.0290   72.0100 C   0  0  0  0  0  0  0  0  0  0  0  0
  128.3970  126.9150   70.5610 C   0  0  0  0  0  0  0  0  0  0  0  0
  127.5410  126.3400   69.6210 C   0  0  0  0  0  0  0  0  0  0  0  0
  127.9280  126.2240   68.2880 C   0  0  0  0  0  0  0  0  0  0  0  0
  129.1790  126.6880   67.8520 C   0  0  0  0  0  0  0  0  0  0  0  0
  129.5850  126.5700   66.5210 N   0  0  0  0  0  0  0  0  0  0  0  0
  128.8640  127.2400   65.4210 C   0  0  0  0  0  0  0  0  0  0  0  0
  129.1910  126.6770   64.0180 C   0  0  0  0  0  0  0  0  0  0  0  0
  130.6320  126.7240   63.7580 N   0  0  0  0  0  0  0  0  0  0  0  0
  130.9710  126.2290   62.4200 C   0  0  0  0  0  0  0  0  0  0  0  0
  129.8490  126.4650   61.3890 C   0  0  0  0  0  0  0  0  0  0  0  0
  129.9590  127.8410   60.7120 C   0  0  0  0  0  0  0  0  0  0  0  0
  130.9190  128.7380   61.5020 N   0  0  0  0  0  0  0  0  0  0  0  0
  131.2860  125.8940   64.7700 C   0  0  0  0  0  0  0  0  0  0  0  0
  131.0180  126.4450   66.1880 C   0  0  0  0  0  0  0  0  0  0  0  0
  130.0330  127.2560   68.8090 C   0  0  0  0  0  0  0  0  0  0  0  0
  129.6570  127.3770   70.1520 C   0  0  0  0  0  0  0  0  0  0  0  0
  130.6320  128.0010   71.1430 C   0  0  0  0  0  0  0  0  0  0  0  0
  128.7883  126.8172   72.6788 H   0  0  0  0  0  0  0  0  0  0  0  0
  127.5706  128.0474   72.1988 H   0  0  0  0  0  0  0  0  0  0  0  0
  127.1349  126.3047   72.1988 H   0  0  0  0  0  0  0  0  0  0  0  0
  126.5520  125.9752   69.9354 H   0  0  0  0  0  0  0  0  0  0  0  0
  127.2413  125.7607   67.5643 H   0  0  0  0  0  0  0  0  0  0  0  0
  127.7839  127.1264   65.5959 H   0  0  0  0  0  0  0  0  0  0  0  0
  129.1860  128.2918   65.4242 H   0  0  0  0  0  0  0  0  0  0  0  0
  128.8486  125.6333   63.9601 H   0  0  0  0  0  0  0  0  0  0  0  0
  128.6779  127.2924   63.2643 H   0  0  0  0  0  0  0  0  0  0  0  0
  131.8788  126.7453   62.0747 H   0  0  0  0  0  0  0  0  0  0  0  0
  131.1222  125.1423   62.4994 H   0  0  0  0  0  0  0  0  0  0  0  0
  129.9089  125.6846   60.6161 H   0  0  0  0  0  0  0  0  0  0  0  0
  128.8880  126.4284   61.9230 H   0  0  0  0  0  0  0  0  0  0  0  0
  130.3390  127.7138   59.6876 H   0  0  0  0  0  0  0  0  0  0  0  0
  128.9648  128.3110   60.6851 H   0  0  0  0  0  0  0  0  0  0  0  0
  130.6100  129.6990   61.4590 H   0  0  0  0  0  0  0  0  0  0  0  0
  131.8500  128.6780   61.1140 H   0  0  0  0  0  0  0  0  0  0  0  0
  130.9500  128.4500   62.4690 H   0  0  0  0  0  0  0  0  0  0  0  0
  130.8956  124.8678   64.7021 H   0  0  0  0  0  0  0  0  0  0  0  0
  132.3706  125.9039   64.5870 H   0  0  0  0  0  0  0  0  0  0  0  0
  131.4850  125.7665   66.9171 H   0  0  0  0  0  0  0  0  0  0  0  0
  131.4430  127.4590   66.2218 H   0  0  0  0  0  0  0  0  0  0  0  0
  131.0242  127.6158   68.4959 H   0  0  0  0  0  0  0  0  0  0  0  0
  130.2985  127.7876   72.1693 H   0  0  0  0  0  0  0  0  0  0  0  0
  131.6348  127.5764   70.9875 H   0  0  0  0  0  0  0  0  0  0  0  0
  130.6665  129.0894   70.9875 H   0  0  0  0  0  0  0  0  0  0  0  0
  1  2  1  0
  2  3  2  0
  3  4  1  0
  4  5  2  0
  5  6  1  0
  6  7  1  0
  7  8  1  0
  8  9  1  0
  9 10  1  0
 10 11  1  0
 11 12  1  0
 12 13  1  0
  9 14  1  0
 14 15  1  0
  5 16  1  0
 16 17  2  0
 17 18  1  0
 17  2  1  0
 15  6  1  0
  1 19  1  0
  1 20  1  0
  1 21  1  0
  3 22  1  0
  4 23  1  0
  7 24  1  0
  7 25  1  0
  8 26  1  0
  8 27  1  0
 10 28  1  0
 10 29  1  0
 11 30  1  0
 11 31  1  0
 12 32  1  0
 12 33  1  0
 13 34  1  0
 13 35  1  0
 13 36  1  0
 14 37  1  0
 14 38  1  0
 15 39  1  0
 15 40  1  0
 16 41  1  0
 18 42  1  0
 18 43  1  0
 18 44  1  0
M  CHG  1  13   1
M  END
>  <Binding energies>  (1) 
[-6.7]

>  <Ligand effiencies>  (1) 
[-0.3190476190476191]

>  <Interactions>  (1) 
["V-A:HIS:456:CE1:4066, V-B:HIS:456:CD2:9036, V-B:GLY:544:C:9881, V-B:LYS:547:CE:9919, V-B:GLU:543:CB:9875, V-B:GLU:543:CD:9877, V-B:HIS:456:CE1:9038, V-A:GLY:544:C:4909, V-A:GLU:543:CD:4905, H-A:ARG:545:NH2:4925, H-A:GLU:543:OE2:4907, H-A:GLU:543:OE1:4906, H-A:ASP:366:OD1:3210, V-A:HIS:456:CD2:4064, V-B:GLU:543:C:9871"]

$$$$
RR32_Rahimova_2017
     RDKit          3D

 37 39  0  0  0  0  0  0  0  0999 V2000
  129.9590  132.0910   56.4050 C   0  0  0  0  0  0  0  0  0  0  0  0
  130.0890  132.0890   57.9250 C   0  0  0  0  0  0  0  0  0  0  0  0
  128.9840  132.4790   58.6820 C   0  0  0  0  0  0  0  0  0  0  0  0
  129.0650  132.4870   60.0710 C   0  0  0  0  0  0  0  0  0  0  0  0
  127.9660  132.8750   60.8190 N   0  0  0  0  0  0  0  0  0  0  0  0
  126.6730  132.9760   60.1180 C   0  0  0  0  0  0  0  0  0  0  0  0
  125.5520  133.5870   60.9900 C   0  0  0  0  0  0  0  0  0  0  0  0
  125.3640  132.7920   62.2030 N   0  0  0  0  0  0  0  0  0  0  0  0
  124.2850  133.3500   63.0100 C   0  0  0  0  0  0  0  0  0  0  0  0
  126.6180  132.8090   62.9520 C   0  0  0  0  0  0  0  0  0  0  0  0
  127.7570  132.1890   62.1090 C   0  0  0  0  0  0  0  0  0  0  0  0
  130.1900  132.1290   60.7410 N   0  0  0  0  0  0  0  0  0  0  0  0
  131.2860  131.7460   60.0300 C   0  0  0  0  0  0  0  0  0  0  0  0
  132.4470  131.3800   60.7550 C   0  0  0  0  0  0  0  0  0  0  0  0
  133.5950  130.9810   60.0820 C   0  0  0  0  0  0  0  0  0  0  0  0
  133.6190  130.9350   58.6930 C   0  0  0  0  0  0  0  0  0  0  0  0
  132.4950  131.2890   57.9510 C   0  0  0  0  0  0  0  0  0  0  0  0
  131.2960  131.7050   58.5980 C   0  0  0  0  0  0  0  0  0  0  0  0
  128.8946  132.1074   56.1281 H   0  0  0  0  0  0  0  0  0  0  0  0
  130.4582  132.9816   55.9955 H   0  0  0  0  0  0  0  0  0  0  0  0
  130.4305  131.1855   55.9955 H   0  0  0  0  0  0  0  0  0  0  0  0
  128.0513  132.7794   58.1822 H   0  0  0  0  0  0  0  0  0  0  0  0
  126.8067  133.6080   59.2277 H   0  0  0  0  0  0  0  0  0  0  0  0
  126.3626  131.9535   59.8569 H   0  0  0  0  0  0  0  0  0  0  0  0
  125.8280  134.6147   61.2686 H   0  0  0  0  0  0  0  0  0  0  0  0
  124.6138  133.5920   60.4158 H   0  0  0  0  0  0  0  0  0  0  0  0
  124.5235  133.2267   64.0767 H   0  0  0  0  0  0  0  0  0  0  0  0
  124.1714  134.4199   62.7810 H   0  0  0  0  0  0  0  0  0  0  0  0
  123.3463  132.8243   62.7810 H   0  0  0  0  0  0  0  0  0  0  0  0
  126.8767  133.8484   63.2024 H   0  0  0  0  0  0  0  0  0  0  0  0
  126.4926  132.2190   63.8719 H   0  0  0  0  0  0  0  0  0  0  0  0
  128.6902  132.2431   62.6888 H   0  0  0  0  0  0  0  0  0  0  0  0
  127.4694  131.1513   61.8843 H   0  0  0  0  0  0  0  0  0  0  0  0
  132.4394  131.4119   61.8545 H   0  0  0  0  0  0  0  0  0  0  0  0
  134.4921  130.6993   60.6529 H   0  0  0  0  0  0  0  0  0  0  0  0
  134.5352  130.6157   58.1746 H   0  0  0  0  0  0  0  0  0  0  0  0
  132.5334  131.2469   56.8525 H   0  0  0  0  0  0  0  0  0  0  0  0
  1  2  1  0
  2  3  2  0
  3  4  1  0
  4  5  1  0
  5  6  1  0
  6  7  1  0
  7  8  1  0
  8  9  1  0
  8 10  1  0
 10 11  1  0
  4 12  2  0
 12 13  1  0
 13 14  2  0
 14 15  1  0
 15 16  2  0
 16 17  1  0
 17 18  2  0
 18  2  1  0
 11  5  1  0
 18 13  1  0
  1 19  1  0
  1 20  1  0
  1 21  1  0
  3 22  1  0
  6 23  1  0
  6 24  1  0
  7 25  1  0
  7 26  1  0
  9 27  1  0
  9 28  1  0
  9 29  1  0
 10 30  1  0
 10 31  1  0
 11 32  1  0
 11 33  1  0
 14 34  1  0
 15 35  1  0
 16 36  1  0
 17 37  1  0
M  END
>  <Binding energies>  (1) 
[-6.24]

>  <Ligand effiencies>  (1) 
[-0.3466666666666667]

>  <Interactions>  (1) 
["V-A:ASP:366:CG:3209, H-A:ALA:541:N:4888, V-A:PRO:540:N:4881, V-A:LEU:363:CB:3183, V-A:PRO:540:C:4878, V-A:ASN:362:C:3168, V-A:PRO:540:CA:4880, V-A:PRO:540:CB:4882, V-A:TYR:539:C:4864, V-A:ALA:541:CB:4889, V-A:ASN:362:CB:3172, V-A:LEU:363:CA:3181, V-A:ASN:362:CA:3170, V-A:TYR:539:CE2:4873, V-A:TYR:539:CD2:4871, V-B:GLY:454:CA:9017, V-B:LEU:475:CD2:9227"]

$$$$
RR32_Rahimova_2017-again1
     RDKit          3D

 38 40  0  0  0  0  0  0  0  0999 V2000
  129.3090  132.1250   56.9300 C   0  0  0  0  0  0  0  0  0  0  0  0
  129.6880  132.0740   58.4030 C   0  0  0  0  0  0  0  0  0  0  0  0
  128.7480  132.3930   59.3830 C   0  0  0  0  0  0  0  0  0  0  0  0
  129.0980  132.3420   60.7360 C   0  0  0  0  0  0  0  0  0  0  0  0
  128.1750  132.6670   61.7360 N   0  0  0  0  0  0  0  0  0  0  0  0
  126.7410  132.8040   61.4110 C   0  0  0  0  0  0  0  0  0  0  0  0
  125.9880  131.4540   61.4630 C   0  0  0  0  0  0  0  0  0  0  0  0
  126.0900  130.8900   62.8940 N   0  0  0  0  0  0  0  0  0  0  0  0
  125.3690  129.5320   63.0000 C   0  0  0  0  0  0  0  0  0  0  0  0
  127.5810  130.7460   63.2630 C   0  0  0  0  0  0  0  0  0  0  0  0
  128.2620  132.1260   63.1090 C   0  0  0  0  0  0  0  0  0  0  0  0
  130.3580  132.0090   61.1300 N   0  0  0  0  0  0  0  0  0  0  0  0
  131.2960  131.6910   60.1970 C   0  0  0  0  0  0  0  0  0  0  0  0
  132.5920  131.3350   60.6430 C   0  0  0  0  0  0  0  0  0  0  0  0
  133.5810  130.9990   59.7230 C   0  0  0  0  0  0  0  0  0  0  0  0
  133.3100  131.0090   58.3590 C   0  0  0  0  0  0  0  0  0  0  0  0
  132.0460  131.3560   57.8890 C   0  0  0  0  0  0  0  0  0  0  0  0
  131.0090  131.7050   58.7980 C   0  0  0  0  0  0  0  0  0  0  0  0
  128.2228  132.2712   56.8357 H   0  0  0  0  0  0  0  0  0  0  0  0
  129.8349  132.9605   56.4448 H   0  0  0  0  0  0  0  0  0  0  0  0
  129.5953  131.1802   56.4448 H   0  0  0  0  0  0  0  0  0  0  0  0
  127.7287  132.6855   59.0908 H   0  0  0  0  0  0  0  0  0  0  0  0
  126.2800  133.4927   62.1343 H   0  0  0  0  0  0  0  0  0  0  0  0
  126.6675  133.1872   60.3825 H   0  0  0  0  0  0  0  0  0  0  0  0
  124.9312  131.6085   61.1998 H   0  0  0  0  0  0  0  0  0  0  0  0
  126.4332  130.7471   60.7474 H   0  0  0  0  0  0  0  0  0  0  0  0
  125.6640  131.5490   63.5290 H   0  0  0  0  0  0  0  0  0  0  0  0
  125.2309  129.2719   64.0599 H   0  0  0  0  0  0  0  0  0  0  0  0
  124.3875  129.5986   62.5079 H   0  0  0  0  0  0  0  0  0  0  0  0
  125.9740  128.7562   62.5079 H   0  0  0  0  0  0  0  0  0  0  0  0
  127.6738  130.4008   64.3033 H   0  0  0  0  0  0  0  0  0  0  0  0
  128.0634  130.0124   62.6003 H   0  0  0  0  0  0  0  0  0  0  0  0
  127.7759  132.8346   63.7957 H   0  0  0  0  0  0  0  0  0  0  0  0
  129.3289  131.9924   63.3413 H   0  0  0  0  0  0  0  0  0  0  0  0
  132.8178  131.3240   61.7195 H   0  0  0  0  0  0  0  0  0  0  0  0
  134.5851  130.7233   60.0777 H   0  0  0  0  0  0  0  0  0  0  0  0
  134.1019  130.7402   57.6444 H   0  0  0  0  0  0  0  0  0  0  0  0
  131.8480  131.3603   56.8070 H   0  0  0  0  0  0  0  0  0  0  0  0
  1  2  1  0
  2  3  2  0
  3  4  1  0
  4  5  1  0
  5  6  1  0
  6  7  1  0
  7  8  1  0
  8  9  1  0
  8 10  1  0
 10 11  1  0
  4 12  2  0
 12 13  1  0
 13 14  2  0
 14 15  1  0
 15 16  2  0
 16 17  1  0
 17 18  2  0
 18  2  1  0
 11  5  1  0
 18 13  1  0
  1 19  1  0
  1 20  1  0
  1 21  1  0
  3 22  1  0
  6 23  1  0
  6 24  1  0
  7 25  1  0
  7 26  1  0
  8 27  1  0
  9 28  1  0
  9 29  1  0
  9 30  1  0
 10 31  1  0
 10 32  1  0
 11 33  1  0
 11 34  1  0
 14 35  1  0
 15 36  1  0
 16 37  1  0
 17 38  1  0
M  CHG  1   8   1
M  END
>  <Binding energies>  (1) 
[-6.31]

>  <Ligand effiencies>  (1) 
[-0.33210526315789474]

>  <Interactions>  (1) 
["V-A:ASP:366:CG:3209, V-A:GLU:543:CD:4905, V-B:ARG:545:CZ:9895, V-A:GLU:543:CG:4904, H-A:ALA:541:N:4888, V-A:PRO:540:N:4881, V-A:LEU:363:CB:3183, V-B:ASP:366:CG:8181, V-A:PRO:540:C:4878, V-A:ASN:362:C:3168, V-A:PRO:540:CA:4880, V-A:PRO:540:CB:4882, V-A:LEU:363:CD1:3185, V-A:TYR:539:C:4864, V-A:ALA:541:CB:4889, V-A:ASN:362:CB:3172, V-A:LEU:363:CA:3181"]

$$$$
RR32_Rahimova_2017-again2
     RDKit          3D

 39 41  0  0  0  0  0  0  0  0999 V2000
  128.2550  122.6340   60.0200 C   0  0  0  0  0  0  0  0  0  0  0  0
  127.5260  123.9690   60.0840 C   0  0  0  0  0  0  0  0  0  0  0  0
  128.0040  124.9910   60.9090 C   0  0  0  0  0  0  0  0  0  0  0  0
  127.3440  126.2250   60.9860 C   0  0  0  0  0  0  0  0  0  0  0  0
  127.8030  127.3150   61.8100 N   0  0  0  0  0  0  0  0  0  0  0  0
  129.1530  127.2820   62.4340 C   0  0  0  0  0  0  0  0  0  0  0  0
  130.2280  127.8100   61.4460 C   0  0  0  0  0  0  0  0  0  0  0  0
  129.8850  129.2640   61.0400 N   0  0  0  0  0  0  0  0  0  0  0  0
  130.9010  129.8040   60.0140 C   0  0  0  0  0  0  0  0  0  0  0  0
  128.4430  129.3370   60.4830 C   0  0  0  0  0  0  0  0  0  0  0  0
  127.4630  128.7320   61.5230 C   0  0  0  0  0  0  0  0  0  0  0  0
  126.2390  126.3970   60.2330 N   0  0  0  0  0  0  0  0  0  0  0  0
  125.6960  125.4520   59.3930 C   0  0  0  0  0  0  0  0  0  0  0  0
  124.5300  125.7350   58.6470 C   0  0  0  0  0  0  0  0  0  0  0  0
  124.0110  124.7560   57.8040 C   0  0  0  0  0  0  0  0  0  0  0  0
  124.6290  123.5130   57.6950 C   0  0  0  0  0  0  0  0  0  0  0  0
  125.7800  123.2190   58.4260 C   0  0  0  0  0  0  0  0  0  0  0  0
  126.3500  124.1870   59.3010 C   0  0  0  0  0  0  0  0  0  0  0  0
  128.4515  122.2742   61.0408 H   0  0  0  0  0  0  0  0  0  0  0  0
  127.6319  121.9012   59.4865 H   0  0  0  0  0  0  0  0  0  0  0  0
  129.2084  122.7621   59.4865 H   0  0  0  0  0  0  0  0  0  0  0  0
  128.9121  124.8243   61.5070 H   0  0  0  0  0  0  0  0  0  0  0  0
  129.1497  127.9131   63.3350 H   0  0  0  0  0  0  0  0  0  0  0  0
  129.3954  126.2418   62.6971 H   0  0  0  0  0  0  0  0  0  0  0  0
  131.2148  127.7878   61.9315 H   0  0  0  0  0  0  0  0  0  0  0  0
  130.2465  127.1733   60.5492 H   0  0  0  0  0  0  0  0  0  0  0  0
  129.9220  129.8340   61.8740 H   0  0  0  0  0  0  0  0  0  0  0  0
  131.7521  130.2564   60.5440 H   0  0  0  0  0  0  0  0  0  0  0  0
  131.2594  128.9774   59.3829 H   0  0  0  0  0  0  0  0  0  0  0  0
  130.4164  130.5636   59.3829 H   0  0  0  0  0  0  0  0  0  0  0  0
  128.1750  130.3867   60.2922 H   0  0  0  0  0  0  0  0  0  0  0  0
  128.3808  128.7694   59.5428 H   0  0  0  0  0  0  0  0  0  0  0  0
  127.5235  129.3128   62.4552 H   0  0  0  0  0  0  0  0  0  0  0  0
  126.4440  128.7723   61.1106 H   0  0  0  0  0  0  0  0  0  0  0  0
  125.7770  127.2920   60.2860 H   0  0  0  0  0  0  0  0  0  0  0  0
  124.0388  126.7157   58.7311 H   0  0  0  0  0  0  0  0  0  0  0  0
  123.1039  124.9665   57.2184 H   0  0  0  0  0  0  0  0  0  0  0  0
  124.2038  122.7527   57.0234 H   0  0  0  0  0  0  0  0  0  0  0  0
  126.2517  122.2303   58.3256 H   0  0  0  0  0  0  0  0  0  0  0  0
  1  2  1  0
  2  3  2  0
  3  4  1  0
  4  5  1  0
  5  6  1  0
  6  7  1  0
  7  8  1  0
  8  9  1  0
  8 10  1  0
 10 11  1  0
  4 12  2  0
 12 13  1  0
 13 14  2  0
 14 15  1  0
 15 16  2  0
 16 17  1  0
 17 18  2  0
 18  2  1  0
 11  5  1  0
 18 13  1  0
  1 19  1  0
  1 20  1  0
  1 21  1  0
  3 22  1  0
  6 23  1  0
  6 24  1  0
  7 25  1  0
  7 26  1  0
  8 27  1  0
  9 28  1  0
  9 29  1  0
  9 30  1  0
 10 31  1  0
 10 32  1  0
 11 33  1  0
 11 34  1  0
 12 35  1  0
 14 36  1  0
 15 37  1  0
 16 38  1  0
 17 39  1  0
M  CHG  2   8   1  12   1
M  END
>  <Binding energies>  (1) 
[-7.4]

>  <Ligand effiencies>  (1) 
[-0.37]

>  <Interactions>  (1) 
["V-B:PRO:540:CA:9852, V-B:ALA:541:CB:9861, V-B:PRO:540:N:9853, V-B:PRO:540:CB:9854, V-B:GLU:543:CD:9877, V-A:GLU:543:CD:4905, V-B:LEU:363:CA:8153, H-A:GLU:543:OE2:4907, H-A:GLU:543:OE1:4906, H-B:ASP:366:OD1:8182, V-B:LEU:363:CD1:8157, V-B:TYR:531:CE2:9762, V-B:ASP:366:CG:8181, V-B:ASP:366:CB:8180"]

$$$$
RR33_Rahimova_2017
     RDKit          3D

 36 37  0  0  0  0  0  0  0  0999 V2000
  134.7850  124.9970   66.0400 C   0  0  0  0  0  0  0  0  0  0  0  0
  133.4790  125.0550   65.2410 C   0  0  0  0  0  0  0  0  0  0  0  0
  133.6040  124.2110   64.0990 O   0  0  0  0  0  0  0  0  0  0  0  0
  132.4830  123.9210   63.3450 C   0  0  0  0  0  0  0  0  0  0  0  0
  132.4570  124.4290   62.0470 C   0  0  0  0  0  0  0  0  0  0  0  0
  131.3670  124.1910   61.2140 C   0  0  0  0  0  0  0  0  0  0  0  0
  130.2820  123.4370   61.6700 C   0  0  0  0  0  0  0  0  0  0  0  0
  129.1120  123.1820   60.7750 C   0  0  0  0  0  0  0  0  0  0  0  0
  127.8410  123.3930   61.0370 N   0  0  0  0  0  0  0  0  0  0  0  0
  127.1930  123.0180   59.9450 C   0  0  0  0  0  0  0  0  0  0  0  0
  125.6850  123.1260   59.8600 C   0  0  0  0  0  0  0  0  0  0  0  0
  125.0960  123.1430   61.1900 N   0  0  0  0  0  0  0  0  0  0  0  0
  123.9110  123.9850   61.2160 C   0  0  0  0  0  0  0  0  0  0  0  0
  128.1000  122.5660   58.9950 C   0  0  0  0  0  0  0  0  0  0  0  0
  128.0030  122.0250   57.5900 C   0  0  0  0  0  0  0  0  0  0  0  0
  129.3360  122.6730   59.5360 O   0  0  0  0  0  0  0  0  0  0  0  0
  130.3050  122.9210   62.9700 C   0  0  0  0  0  0  0  0  0  0  0  0
  131.3960  123.1600   63.8040 C   0  0  0  0  0  0  0  0  0  0  0  0
  134.5572  125.0071   67.1161 H   0  0  0  0  0  0  0  0  0  0  0  0
  135.3279  124.0739   65.7888 H   0  0  0  0  0  0  0  0  0  0  0  0
  135.4076  125.8684   65.7888 H   0  0  0  0  0  0  0  0  0  0  0  0
  132.6453  124.7073   65.8687 H   0  0  0  0  0  0  0  0  0  0  0  0
  133.2799  126.0890   64.9229 H   0  0  0  0  0  0  0  0  0  0  0  0
  133.3056  125.0234   61.6775 H   0  0  0  0  0  0  0  0  0  0  0  0
  131.3597  124.5983   60.1922 H   0  0  0  0  0  0  0  0  0  0  0  0
  125.4183  124.0551   59.3349 H   0  0  0  0  0  0  0  0  0  0  0  0
  125.2978  122.2541   59.3124 H   0  0  0  0  0  0  0  0  0  0  0  0
  125.7710  123.5070   61.8490 H   0  0  0  0  0  0  0  0  0  0  0  0
  123.6273  124.1866   62.2595 H   0  0  0  0  0  0  0  0  0  0  0  0
  124.1248  124.9349   60.7041 H   0  0  0  0  0  0  0  0  0  0  0  0
  123.0844  123.4706   60.7041 H   0  0  0  0  0  0  0  0  0  0  0  0
  127.8090  120.9429   57.6264 H   0  0  0  0  0  0  0  0  0  0  0  0
  127.1806  122.5274   57.0596 H   0  0  0  0  0  0  0  0  0  0  0  0
  128.9487  122.2103   57.0596 H   0  0  0  0  0  0  0  0  0  0  0  0
  129.4573  122.3232   63.3362 H   0  0  0  0  0  0  0  0  0  0  0  0
  131.4054  122.7511   64.8251 H   0  0  0  0  0  0  0  0  0  0  0  0
  1  2  1  0
  2  3  1  0
  3  4  1  0
  4  5  2  0
  5  6  1  0
  6  7  2  0
  7  8  1  0
  8  9  2  0
  9 10  1  0
 10 11  1  0
 11 12  1  0
 12 13  1  0
 10 14  2  0
 14 15  1  0
 14 16  1  0
  7 17  1  0
 17 18  2  0
 18  4  1  0
 16  8  1  0
  1 19  1  0
  1 20  1  0
  1 21  1  0
  2 22  1  0
  2 23  1  0
  5 24  1  0
  6 25  1  0
 11 26  1  0
 11 27  1  0
 12 28  1  0
 13 29  1  0
 13 30  1  0
 13 31  1  0
 15 32  1  0
 15 33  1  0
 15 34  1  0
 17 35  1  0
 18 36  1  0
M  END
>  <Binding energies>  (1) 
[-5.88]

>  <Ligand effiencies>  (1) 
[-0.3094736842105263]

>  <Interactions>  (1) 
["V-B:PRO:540:C:9850, H-B:ALA:541:N:9860, V-B:TYR:539:CE2:9845, V-B:ASN:362:CA:8142, V-A:GLY:454:C:4043, V-B:TYR:539:CA:9838, V-A:HIS:456:CE1:4066, V-B:TYR:539:CG:9841, V-B:TYR:539:CD1:9842, V-B:TYR:539:CZ:9846, V-B:ASN:362:CB:8144, V-A:GLY:453:C:4038, V-B:PRO:540:CA:9852, V-A:ARG:545:CG:4919, V-A:ARG:545:CZ:4923, V-B:TYR:539:CE1:9844, V-A:ARG:545:CD:4920, V-A:GLY:453:CA:4040, V-B:ALA:541:CB:9861, H-A:GLY:454:N:4046, V-B:TYR:539:C:9836, V-B:ASN:362:C:8140, H-A:TYR:484:OH:4344, V-A:GLY:454:CA:4045, V-B:PRO:540:N:9853, V-B:PRO:540:CB:9854, V-B:TYR:539:CD2:9843, V-A:ASP:366:CG:3209, H-B:GLU:543:OE2:9879"]

$$$$
RR33_Rahimova_2017-again1
     RDKit          3D

 37 38  0  0  0  0  0  0  0  0999 V2000
  127.0350  127.7950   73.7180 C   0  0  0  0  0  0  0  0  0  0  0  0
  128.3820  128.5020   73.5440 C   0  0  0  0  0  0  0  0  0  0  0  0
  129.3000  127.5980   72.9380 O   0  0  0  0  0  0  0  0  0  0  0  0
  129.2950  127.4450   71.5650 C   0  0  0  0  0  0  0  0  0  0  0  0
  130.3770  127.9900   70.8740 C   0  0  0  0  0  0  0  0  0  0  0  0
  130.4610  127.8850   69.4880 C   0  0  0  0  0  0  0  0  0  0  0  0
  129.4540  127.2310   68.7700 C   0  0  0  0  0  0  0  0  0  0  0  0
  129.5400  127.1150   67.2810 C   0  0  0  0  0  0  0  0  0  0  0  0
  128.7260  127.6330   66.3880 N   0  0  0  0  0  0  0  0  0  0  0  0
  129.2100  127.2620   65.2120 C   0  0  0  0  0  0  0  0  0  0  0  0
  128.5260  127.6630   63.9200 C   0  0  0  0  0  0  0  0  0  0  0  0
  127.0540  128.0000   64.2130 N   0  0  0  0  0  0  0  0  0  0  0  0
  126.6260  129.3810   63.6980 C   0  0  0  0  0  0  0  0  0  0  0  0
  130.3480  126.4870   65.4040 C   0  0  0  0  0  0  0  0  0  0  0  0
  131.3290  125.7770   64.5030 C   0  0  0  0  0  0  0  0  0  0  0  0
  130.5570  126.3990   66.7380 O   0  0  0  0  0  0  0  0  0  0  0  0
  128.3670  126.6830   69.4590 C   0  0  0  0  0  0  0  0  0  0  0  0
  128.2860  126.7880   70.8450 C   0  0  0  0  0  0  0  0  0  0  0  0
  126.8168  127.6805   74.7900 H   0  0  0  0  0  0  0  0  0  0  0  0
  126.2429  128.3936   73.2445 H   0  0  0  0  0  0  0  0  0  0  0  0
  127.0777  126.8031   73.2445 H   0  0  0  0  0  0  0  0  0  0  0  0
  128.2553  129.3860   72.9018 H   0  0  0  0  0  0  0  0  0  0  0  0
  128.7651  128.8226   74.5240 H   0  0  0  0  0  0  0  0  0  0  0  0
  131.1724  128.5082   71.4297 H   0  0  0  0  0  0  0  0  0  0  0  0
  131.3214  128.3174   68.9563 H   0  0  0  0  0  0  0  0  0  0  0  0
  129.0283  128.5448   63.4957 H   0  0  0  0  0  0  0  0  0  0  0  0
  128.5798  126.8336   63.1994 H   0  0  0  0  0  0  0  0  0  0  0  0
  126.4680  127.2950   63.7900 H   0  0  0  0  0  0  0  0  0  0  0  0
  126.9100  127.9650   65.2130 H   0  0  0  0  0  0  0  0  0  0  0  0
  126.4207  130.0433   64.5519 H   0  0  0  0  0  0  0  0  0  0  0  0
  127.4331  129.8106   63.0865 H   0  0  0  0  0  0  0  0  0  0  0  0
  125.7174  129.2789   63.0865 H   0  0  0  0  0  0  0  0  0  0  0  0
  132.0688  125.2416   65.1162 H   0  0  0  0  0  0  0  0  0  0  0  0
  130.7900  125.0584   63.8681 H   0  0  0  0  0  0  0  0  0  0  0  0
  131.8431  126.5136   63.8681 H   0  0  0  0  0  0  0  0  0  0  0  0
  127.5714  126.1660   68.9025 H   0  0  0  0  0  0  0  0  0  0  0  0
  127.4271  126.3539   71.3778 H   0  0  0  0  0  0  0  0  0  0  0  0
  1  2  1  0
  2  3  1  0
  3  4  1  0
  4  5  2  0
  5  6  1  0
  6  7  2  0
  7  8  1  0
  8  9  2  0
  9 10  1  0
 10 11  1  0
 11 12  1  0
 12 13  1  0
 10 14  2  0
 14 15  1  0
 14 16  1  0
  7 17  1  0
 17 18  2  0
 18  4  1  0
 16  8  1  0
  1 19  1  0
  1 20  1  0
  1 21  1  0
  2 22  1  0
  2 23  1  0
  5 24  1  0
  6 25  1  0
 11 26  1  0
 11 27  1  0
 12 28  1  0
 12 29  1  0
 13 30  1  0
 13 31  1  0
 13 32  1  0
 15 33  1  0
 15 34  1  0
 15 35  1  0
 17 36  1  0
 18 37  1  0
M  CHG  1  12   1
M  END
>  <Binding energies>  (1) 
[-6.46]

>  <Ligand effiencies>  (1) 
[-0.323]

>  <Interactions>  (1) 
["V-A:HIS:456:CE1:4066, H-B:GLU:543:OE2:9879, V-B:HIS:456:CD2:9036, V-A:LYS:547:CE:4947, V-B:LYS:547:CD:9918, H-A:LYS:547:NZ:4948, V-B:LYS:547:CE:9919, V-B:GLU:543:CD:9877, V-A:GLU:543:C:4899, V-B:HIS:456:CE1:9038, V-A:GLY:544:C:4909, V-A:GLU:543:CD:4905, H-B:GLU:543:OE1:9878"]

$$$$
RR3_Rahimova_2017
     RDKit          3D

 63 69  0  0  0  0  0  0  0  0999 V2000
  123.9800  132.7340   62.8660 C   0  0  0  0  0  0  0  0  0  0  0  0
  123.8770  131.4970   62.2380 C   0  0  0  0  0  0  0  0  0  0  0  0
  124.7980  130.4960   62.5310 C   0  0  0  0  0  0  0  0  0  0  0  0
  125.8320  130.7160   63.4530 C   0  0  0  0  0  0  0  0  0  0  0  0
  126.8220  129.6370   63.7680 C   0  0  0  0  0  0  0  0  0  0  0  0
  127.3110  128.7930   62.7620 C   0  0  0  0  0  0  0  0  0  0  0  0
  128.2290  127.7880   63.0560 C   0  0  0  0  0  0  0  0  0  0  0  0
  128.6730  127.5990   64.3670 C   0  0  0  0  0  0  0  0  0  0  0  0
  129.6550  126.5180   64.6910 C   0  0  0  0  0  0  0  0  0  0  0  0
  130.2160  125.8150   63.7130 N   0  0  0  0  0  0  0  0  0  0  0  0
  131.0530  124.9820   64.2820 C   0  0  0  0  0  0  0  0  0  0  0  0
  131.8890  124.0150   63.5760 C   0  0  0  0  0  0  0  0  0  0  0  0
  132.4430  122.8700   64.1240 C   0  0  0  0  0  0  0  0  0  0  0  0
  133.1610  122.1910   63.1750 N   0  0  0  0  0  0  0  0  0  0  0  0
  133.1070  122.8650   61.9750 C   0  0  0  0  0  0  0  0  0  0  0  0
  133.6780  122.5670   60.7330 C   0  0  0  0  0  0  0  0  0  0  0  0
  133.4360  123.4630   59.6930 C   0  0  0  0  0  0  0  0  0  0  0  0
  132.6640  124.6060   59.8740 C   0  0  0  0  0  0  0  0  0  0  0  0
  132.0950  124.9040   61.1110 C   0  0  0  0  0  0  0  0  0  0  0  0
  132.3080  124.0320   62.1940 C   0  0  0  0  0  0  0  0  0  0  0  0
  131.0410  125.1300   65.6420 N   0  0  0  0  0  0  0  0  0  0  0  0
  130.1260  126.1040   65.9490 C   0  0  0  0  0  0  0  0  0  0  0  0
  129.7990  126.4950   67.3520 C   0  0  0  0  0  0  0  0  0  0  0  0
  128.8790  125.7490   68.0910 C   0  0  0  0  0  0  0  0  0  0  0  0
  128.5620  126.1180   69.3940 C   0  0  0  0  0  0  0  0  0  0  0  0
  129.1580  127.2380   69.9910 C   0  0  0  0  0  0  0  0  0  0  0  0
  128.8000  127.6440   71.3860 C   0  0  0  0  0  0  0  0  0  0  0  0
  129.4200  128.7440   71.9980 C   0  0  0  0  0  0  0  0  0  0  0  0
  129.0830  129.1240   73.2950 C   0  0  0  0  0  0  0  0  0  0  0  0
  128.1190  128.4060   73.9950 C   0  0  0  0  0  0  0  0  0  0  0  0
  127.4910  127.3130   73.4080 C   0  0  0  0  0  0  0  0  0  0  0  0
  127.8310  126.9350   72.1120 C   0  0  0  0  0  0  0  0  0  0  0  0
  130.0930  127.9690   69.2450 C   0  0  0  0  0  0  0  0  0  0  0  0
  130.4130  127.6030   67.9410 C   0  0  0  0  0  0  0  0  0  0  0  0
  128.2010  128.4440   65.3740 C   0  0  0  0  0  0  0  0  0  0  0  0
  127.2830  129.4480   65.0780 C   0  0  0  0  0  0  0  0  0  0  0  0
  125.9170  131.9710   64.0740 C   0  0  0  0  0  0  0  0  0  0  0  0
  124.9970  132.9750   63.7840 C   0  0  0  0  0  0  0  0  0  0  0  0
  123.2528  133.5264   62.6353 H   0  0  0  0  0  0  0  0  0  0  0  0
  123.0710  131.3110   61.5129 H   0  0  0  0  0  0  0  0  0  0  0  0
  124.7141  129.5189   62.0328 H   0  0  0  0  0  0  0  0  0  0  0  0
  126.9651  128.9261   61.7263 H   0  0  0  0  0  0  0  0  0  0  0  0
  128.6065  127.1395   62.2517 H   0  0  0  0  0  0  0  0  0  0  0  0
  132.3238  122.5517   65.1702 H   0  0  0  0  0  0  0  0  0  0  0  0
  133.6420  121.3260   63.3740 H   0  0  0  0  0  0  0  0  0  0  0  0
  134.2907  121.6657   60.5838 H   0  0  0  0  0  0  0  0  0  0  0  0
  133.8675  123.2606   58.7016 H   0  0  0  0  0  0  0  0  0  0  0  0
  132.4997  125.2868   59.0257 H   0  0  0  0  0  0  0  0  0  0  0  0
  131.4861  125.8111   61.2389 H   0  0  0  0  0  0  0  0  0  0  0  0
  131.5870  124.5960   66.3030 H   0  0  0  0  0  0  0  0  0  0  0  0
  128.4028  124.8655   67.6408 H   0  0  0  0  0  0  0  0  0  0  0  0
  127.8335  125.5228   69.9642 H   0  0  0  0  0  0  0  0  0  0  0  0
  130.1822  129.3137   71.4462 H   0  0  0  0  0  0  0  0  0  0  0  0
  129.5770  129.9880   73.7636 H   0  0  0  0  0  0  0  0  0  0  0  0
  127.8518  128.7047   75.0194 H   0  0  0  0  0  0  0  0  0  0  0  0
  126.7285  126.7492   73.9655 H   0  0  0  0  0  0  0  0  0  0  0  0
  127.3334  126.0690   71.6510 H   0  0  0  0  0  0  0  0  0  0  0  0
  130.5811  128.8450   69.6971 H   0  0  0  0  0  0  0  0  0  0  0  0
  131.1513  128.1877   67.3726 H   0  0  0  0  0  0  0  0  0  0  0  0
  128.5567  128.3155   66.4070 H   0  0  0  0  0  0  0  0  0  0  0  0
  126.9148  130.1014   65.8827 H   0  0  0  0  0  0  0  0  0  0  0  0
  126.7209  132.1644   64.7995 H   0  0  0  0  0  0  0  0  0  0  0  0
  125.0740  133.9545   64.2786 H   0  0  0  0  0  0  0  0  0  0  0  0
  1  2  2  0
  2  3  1  0
  3  4  2  0
  4  5  1  0
  5  6  2  0
  6  7  1  0
  7  8  2  0
  8  9  1  0
  9 10  1  0
 10 11  2  0
 11 12  1  0
 12 13  2  0
 13 14  1  0
 14 15  1  0
 15 16  2  0
 16 17  1  0
 17 18  2  0
 18 19  1  0
 19 20  2  0
 11 21  1  0
 21 22  1  0
 22 23  1  0
 23 24  2  0
 24 25  1  0
 25 26  2  0
 26 27  1  0
 27 28  2  0
 28 29  1  0
 29 30  2  0
 30 31  1  0
 31 32  2  0
 26 33  1  0
 33 34  2  0
  8 35  1  0
 35 36  2  0
  4 37  1  0
 37 38  2  0
 38  1  1  0
 36  5  1  0
 22  9  2  0
 34 23  1  0
 20 12  1  0
 32 27  1  0
 20 15  1  0
  1 39  1  0
  2 40  1  0
  3 41  1  0
  6 42  1  0
  7 43  1  0
 13 44  1  0
 14 45  1  0
 16 46  1  0
 17 47  1  0
 18 48  1  0
 19 49  1  0
 21 50  1  0
 24 51  1  0
 25 52  1  0
 28 53  1  0
 29 54  1  0
 30 55  1  0
 31 56  1  0
 32 57  1  0
 33 58  1  0
 34 59  1  0
 35 60  1  0
 36 61  1  0
 37 62  1  0
 38 63  1  0
M  END
>  <Binding energies>  (1) 
[-10.17]

>  <Ligand effiencies>  (1) 
[-0.25425]

>  <Interactions>  (1) 
["V-B:TYR:539:CE2:9845, V-A:HIS:456:CE1:4066, V-B:TYR:539:CZ:9846, H-A:TYR:484:OH:4344, V-A:GLY:454:CA:4045, V-A:ASP:366:CG:3209, V-B:HIS:456:CD2:9036, V-A:GLU:543:CB:4903, V-A:LYS:547:CE:4947, V-B:LYS:547:CD:9918, V-B:LYS:547:CE:9919, V-B:GLU:543:CB:9875, V-B:GLU:543:CD:9877, V-A:GLU:543:C:4899, V-B:HIS:456:CE1:9038, V-A:TYR:484:CZ:4343, V-A:GLU:543:CD:4905, V-A:ILE:369:CB:3232, V-A:LEU:475:CD1:4254, V-A:ILE:369:CG2:3233, V-A:ILE:369:CG1:3234, V-A:GLU:543:CG:4904, V-A:ASP:366:CB:3208, V-B:GLU:543:C:9871, V-B:ASP:366:CG:8181, V-B:GLY:454:CA:9017, V-B:LEU:475:CD2:9227, V-A:ASP:366:CA:3206, H-A:HIS:456:NE2:4067, V-B:ILE:369:CD1:8207"]

$$$$
RR4_Rahimova_2017
     RDKit          3D

 66 70  0  0  0  0  0  0  0  0999 V2000
  128.7380  127.2600   74.0300 C   0  0  0  0  0  0  0  0  0  0  0  0
  129.8280  127.2390   73.1150 O   0  0  0  0  0  0  0  0  0  0  0  0
  129.5680  127.1920   71.7590 C   0  0  0  0  0  0  0  0  0  0  0  0
  130.4260  127.9150   70.9330 C   0  0  0  0  0  0  0  0  0  0  0  0
  130.2420  127.9250   69.5530 C   0  0  0  0  0  0  0  0  0  0  0  0
  129.1900  127.2130   68.9580 C   0  0  0  0  0  0  0  0  0  0  0  0
  128.9940  127.2270   67.4690 C   0  0  0  0  0  0  0  0  0  0  0  0
  128.0500  128.0440   66.8370 C   0  0  0  0  0  0  0  0  0  0  0  0
  127.9080  128.0240   65.4430 C   0  0  0  0  0  0  0  0  0  0  0  0
  126.8990  128.9450   64.8370 C   0  0  0  0  0  0  0  0  0  0  0  0
  125.5900  128.9720   65.3260 C   0  0  0  0  0  0  0  0  0  0  0  0
  124.6470  129.8350   64.7740 C   0  0  0  0  0  0  0  0  0  0  0  0
  124.9950  130.6900   63.7290 C   0  0  0  0  0  0  0  0  0  0  0  0
  123.9940  131.5110   63.2460 O   0  0  0  0  0  0  0  0  0  0  0  0
  123.8650  131.6940   61.8400 C   0  0  0  0  0  0  0  0  0  0  0  0
  126.3090  130.6700   63.2390 C   0  0  0  0  0  0  0  0  0  0  0  0
  127.2510  129.8060   63.7930 C   0  0  0  0  0  0  0  0  0  0  0  0
  128.7200  127.1380   64.6950 C   0  0  0  0  0  0  0  0  0  0  0  0
  128.6130  127.0770   63.2340 C   0  0  0  0  0  0  0  0  0  0  0  0
  128.5280  127.0300   62.0810 N   0  0  0  0  0  0  0  0  0  0  0  0
  129.6320  126.3200   65.4010 C   0  0  0  0  0  0  0  0  0  0  0  0
  130.7190  125.1420   64.6270 S   0  0  0  0  0  0  0  0  0  0  0  0
  129.8600  123.5330   64.5870 C   0  0  0  0  0  0  0  0  0  0  0  0
  129.5380  123.0180   63.1770 C   0  0  0  0  0  0  0  0  0  0  0  0
  130.0530  121.9780   62.7580 O   0  0  0  0  0  0  0  0  0  0  0  0
  128.6840  123.7950   62.4710 N   0  0  0  0  0  0  0  0  0  0  0  0
  128.1990  123.5980   61.1760 C   0  0  0  0  0  0  0  0  0  0  0  0
  126.4980  123.4920   60.8050 S   0  0  0  0  0  0  0  0  0  0  0  0
  126.8240  123.2570   59.1160 C   0  0  0  0  0  0  0  0  0  0  0  0
  128.2030  123.2570   58.8510 C   0  0  0  0  0  0  0  0  0  0  0  0
  128.9790  123.4650   60.0170 C   0  0  0  0  0  0  0  0  0  0  0  0
  130.4370  123.5270   60.0110 C   0  0  0  0  0  0  0  0  0  0  0  0
  131.5940  123.5750   60.0060 N   0  0  0  0  0  0  0  0  0  0  0  0
  128.7460  123.1050   57.4250 C   0  0  0  0  0  0  0  0  0  0  0  0
  127.6310  123.3620   56.3870 C   0  0  0  0  0  0  0  0  0  0  0  0
  126.3240  122.6330   56.7450 C   0  0  0  0  0  0  0  0  0  0  0  0
  125.7220  123.1430   58.0710 C   0  0  0  0  0  0  0  0  0  0  0  0
  129.7720  126.3820   66.7460 N   0  0  0  0  0  0  0  0  0  0  0  0
  128.3330  126.4850   69.7980 C   0  0  0  0  0  0  0  0  0  0  0  0
  128.5140  126.4730   71.1780 C   0  0  0  0  0  0  0  0  0  0  0  0
  129.1238  127.2526   75.0601 H   0  0  0  0  0  0  0  0  0  0  0  0
  128.1412  128.1698   73.8685 H   0  0  0  0  0  0  0  0  0  0  0  0
  128.1066  126.3739   73.8685 H   0  0  0  0  0  0  0  0  0  0  0  0
  131.2571  128.4836   71.3756 H   0  0  0  0  0  0  0  0  0  0  0  0
  130.9327  128.5005   68.9191 H   0  0  0  0  0  0  0  0  0  0  0  0
  127.4134  128.7082   67.4400 H   0  0  0  0  0  0  0  0  0  0  0  0
  125.3025  128.3064   66.1533 H   0  0  0  0  0  0  0  0  0  0  0  0
  123.6191  129.8423   65.1655 H   0  0  0  0  0  0  0  0  0  0  0  0
  123.2417  132.5782   61.6410 H   0  0  0  0  0  0  0  0  0  0  0  0
  124.8609  131.8400   61.3963 H   0  0  0  0  0  0  0  0  0  0  0  0
  123.3927  130.8051   61.3963 H   0  0  0  0  0  0  0  0  0  0  0  0
  126.5967  131.3388   62.4144 H   0  0  0  0  0  0  0  0  0  0  0  0
  128.2806  129.8011   63.4058 H   0  0  0  0  0  0  0  0  0  0  0  0
  130.4990  122.7899   65.0866 H   0  0  0  0  0  0  0  0  0  0  0  0
  128.8950  123.6809   65.0939 H   0  0  0  0  0  0  0  0  0  0  0  0
  128.3360  124.6210   62.9350 H   0  0  0  0  0  0  0  0  0  0  0  0
  129.5589  123.8294   57.2688 H   0  0  0  0  0  0  0  0  0  0  0  0
  129.1201  122.0786   57.2961 H   0  0  0  0  0  0  0  0  0  0  0  0
  127.4324  124.4429   56.3408 H   0  0  0  0  0  0  0  0  0  0  0  0
  127.9776  122.9766   55.4168 H   0  0  0  0  0  0  0  0  0  0  0  0
  125.5943  122.7954   55.9380 H   0  0  0  0  0  0  0  0  0  0  0  0
  126.5533  121.5639   56.8650 H   0  0  0  0  0  0  0  0  0  0  0  0
  125.2647  124.1305   57.9106 H   0  0  0  0  0  0  0  0  0  0  0  0
  124.9546  122.4372   58.4217 H   0  0  0  0  0  0  0  0  0  0  0  0
  127.5029  125.9133   69.3575 H   0  0  0  0  0  0  0  0  0  0  0  0
  127.8271  125.8969   71.8155 H   0  0  0  0  0  0  0  0  0  0  0  0
  1  2  1  0
  2  3  1  0
  3  4  2  0
  4  5  1  0
  5  6  2  0
  6  7  1  0
  7  8  2  0
  8  9  1  0
  9 10  1  0
 10 11  2  0
 11 12  1  0
 12 13  2  0
 13 14  1  0
 14 15  1  0
 13 16  1  0
 16 17  2  0
  9 18  2  0
 18 19  1  0
 19 20  3  0
 18 21  1  0
 21 22  1  0
 22 23  1  0
 23 24  1  0
 24 25  2  0
 24 26  1  0
 26 27  1  0
 27 28  1  0
 28 29  1  0
 29 30  2  0
 30 31  1  0
 31 32  1  0
 32 33  3  0
 30 34  1  0
 34 35  1  0
 35 36  1  0
 36 37  1  0
 21 38  2  0
  6 39  1  0
 39 40  2  0
 40  3  1  0
 38  7  1  0
 17 10  1  0
 31 27  2  0
 37 29  1  0
  1 41  1  0
  1 42  1  0
  1 43  1  0
  4 44  1  0
  5 45  1  0
  8 46  1  0
 11 47  1  0
 12 48  1  0
 15 49  1  0
 15 50  1  0
 15 51  1  0
 16 52  1  0
 17 53  1  0
 23 54  1  0
 23 55  1  0
 26 56  1  0
 34 57  1  0
 34 58  1  0
 35 59  1  0
 35 60  1  0
 36 61  1  0
 36 62  1  0
 37 63  1  0
 37 64  1  0
 39 65  1  0
 40 66  1  0
M  END
>  <Binding energies>  (1) 
[-11.07]

>  <Ligand effiencies>  (1) 
[-0.27]

>  <Interactions>  (1) 
["V-B:TYR:539:CE2:9845, V-A:HIS:456:CE1:4066, V-B:TYR:539:CD1:9842, V-B:TYR:539:CZ:9846, V-B:PRO:540:CA:9852, V-B:TYR:539:CE1:9844, V-B:ALA:541:CB:9861, V-B:PRO:540:N:9853, V-B:PRO:540:CB:9854, H-B:GLU:543:OE2:9879, V-A:TYR:484:CE1:4341, V-A:LYS:547:CE:4947, H-A:LYS:547:NZ:4948, V-B:LYS:547:CE:9919, V-B:GLU:543:CD:9877, V-A:GLU:543:C:4899, V-B:HIS:456:CE1:9038, V-B:GLU:543:CG:9876, V-A:GLY:544:C:4909, V-A:GLU:543:CD:4905, H-B:GLY:454:N:9018, V-B:ARG:545:CZ:9895, V-B:PRO:540:CD:9856, H-B:TYR:539:OH:9847, V-B:MET:535:CE:9804, V-A:HIS:456:CD2:4064, H-B:GLU:543:OE1:9878, V-B:ASP:366:CG:8181, V-B:ILE:369:CD1:8207"]

$$$$
RR5_Rahimova_2017
     RDKit          3D

 77 82  0  0  0  0  0  0  0  0999 V2000
  127.4610  126.9920   57.4080 O   0  0  0  0  0  0  0  0  0  0  0  0
  126.8020  126.8100   58.4310 C   0  0  0  0  0  0  0  0  0  0  0  0
  126.1680  125.4310   58.6940 C   0  0  0  0  0  0  0  0  0  0  0  0
  125.9760  125.0960   60.2160 C   0  0  2  0  0  0  0  0  0  0  0  0
  127.2250  124.8320   60.9580 N   0  0  0  0  0  0  0  0  0  0  0  0
  128.2160  124.0060   60.4450 C   0  0  0  0  0  0  0  0  0  0  0  0
  128.2140  123.4500   59.3440 O   0  0  0  0  0  0  0  0  0  0  0  0
  129.1920  123.8950   61.3630 O   0  0  0  0  0  0  0  0  0  0  0  0
  128.9140  123.4790   62.6970 C   0  0  0  0  0  0  0  0  0  0  0  0
  130.2220  123.2190   63.4750 C   0  0  0  0  0  0  0  0  0  0  0  0
  131.4550  123.1600   62.5910 C   0  0  0  0  0  0  0  0  0  0  0  0
  131.7350  122.3200   61.5090 C   0  0  0  0  0  0  0  0  0  0  0  0
  132.9380  122.4570   60.8150 C   0  0  0  0  0  0  0  0  0  0  0  0
  133.8630  123.4290   61.2000 C   0  0  0  0  0  0  0  0  0  0  0  0
  133.5870  124.2680   62.2820 C   0  0  0  0  0  0  0  0  0  0  0  0
  132.3830  124.1280   62.9750 C   0  0  0  0  0  0  0  0  0  0  0  0
  131.8450  124.8550   64.1350 C   0  0  0  0  0  0  0  0  0  0  0  0
  132.3790  125.8970   64.8970 C   0  0  0  0  0  0  0  0  0  0  0  0
  131.6580  126.4010   65.9800 C   0  0  0  0  0  0  0  0  0  0  0  0
  130.4070  125.8680   66.2980 C   0  0  0  0  0  0  0  0  0  0  0  0
  129.8750  124.8300   65.5320 C   0  0  0  0  0  0  0  0  0  0  0  0
  130.5920  124.3250   64.4450 C   0  0  0  0  0  0  0  0  0  0  0  0
  125.0000  123.9070   60.3990 C   0  0  0  0  0  0  0  0  0  0  0  0
  124.0480  123.6770   59.6810 O   0  0  0  0  0  0  0  0  0  0  0  0
  125.3880  123.1550   61.4710 O   0  0  0  0  0  0  0  0  0  0  0  0
  126.6030  127.7360   59.3960 N   0  0  0  0  0  0  0  0  0  0  0  0
  127.0240  129.1600   59.5560 C   0  0  0  0  0  0  0  0  0  0  0  0
  127.0800  129.3110   61.1130 C   0  0  0  0  0  0  0  0  0  0  0  0
  127.3280  130.5530   61.7200 C   0  0  0  0  0  0  0  0  0  0  0  0
  127.3750  130.6760   63.1060 C   0  0  0  0  0  0  0  0  0  0  0  0
  127.1850  129.5570   63.9090 C   0  0  0  0  0  0  0  0  0  0  0  0
  126.9360  128.3150   63.3350 C   0  0  0  0  0  0  0  0  0  0  0  0
  126.8800  128.1950   61.9500 C   0  0  0  0  0  0  0  0  0  0  0  0
  128.4300  129.3090   58.8850 C   0  0  0  0  0  0  0  0  0  0  0  0
  129.4890  128.4380   59.1880 C   0  0  0  0  0  0  0  0  0  0  0  0
  130.7380  128.6020   58.5930 C   0  0  0  0  0  0  0  0  0  0  0  0
  130.9450  129.6400   57.6910 C   0  0  0  0  0  0  0  0  0  0  0  0
  129.9110  130.5140   57.3730 C   0  0  0  0  0  0  0  0  0  0  0  0
  128.6620  130.3430   57.9600 C   0  0  0  0  0  0  0  0  0  0  0  0
  125.8930  130.0230   58.9010 C   0  0  0  0  0  0  0  0  0  0  0  0
  125.5610  129.8720   57.5430 C   0  0  0  0  0  0  0  0  0  0  0  0
  124.5620  130.6420   56.9530 C   0  0  0  0  0  0  0  0  0  0  0  0
  123.8720  131.5770   57.7160 C   0  0  0  0  0  0  0  0  0  0  0  0
  124.1680  131.7400   59.0640 C   0  0  0  0  0  0  0  0  0  0  0  0
  125.1670  130.9680   59.6490 C   0  0  0  0  0  0  0  0  0  0  0  0
  125.1820  125.4051   58.2071 H   0  0  0  0  0  0  0  0  0  0  0  0
  126.8610  124.6795   58.2877 H   0  0  0  0  0  0  0  0  0  0  0  0
  125.5530  126.0130   60.6522 H   0  0  0  0  0  0  0  0  0  0  0  0
  127.2770  125.1210   61.9240 H   0  0  0  0  0  0  0  0  0  0  0  0
  128.3410  124.2666   63.2082 H   0  0  0  0  0  0  0  0  0  0  0  0
  128.3340  122.5450   62.6610 H   0  0  0  0  0  0  0  0  0  0  0  0
  129.9900  122.2651   63.9712 H   0  0  0  0  0  0  0  0  0  0  0  0
  131.0082  121.5523   61.2052 H   0  0  0  0  0  0  0  0  0  0  0  0
  133.1578  121.7975   59.9625 H   0  0  0  0  0  0  0  0  0  0  0  0
  134.8102  123.5343   60.6507 H   0  0  0  0  0  0  0  0  0  0  0  0
  134.3143  125.0350   62.5866 H   0  0  0  0  0  0  0  0  0  0  0  0
  133.3633  126.3182   64.6444 H   0  0  0  0  0  0  0  0  0  0  0  0
  132.0757  127.2196   66.5844 H   0  0  0  0  0  0  0  0  0  0  0  0
  129.8407  126.2666   67.1527 H   0  0  0  0  0  0  0  0  0  0  0  0
  128.8905  124.4093   65.7844 H   0  0  0  0  0  0  0  0  0  0  0  0
  125.7560  123.6910   62.1760 H   0  0  0  0  0  0  0  0  0  0  0  0
  125.9570  127.4470   60.1160 H   0  0  0  0  0  0  0  0  0  0  0  0
  127.4874  131.4414   61.0913 H   0  0  0  0  0  0  0  0  0  0  0  0
  127.5623  131.6578   63.5654 H   0  0  0  0  0  0  0  0  0  0  0  0
  127.2319  129.6545   65.0037 H   0  0  0  0  0  0  0  0  0  0  0  0
  126.7841  127.4318   63.9729 H   0  0  0  0  0  0  0  0  0  0  0  0
  126.6761  127.2120   61.5005 H   0  0  0  0  0  0  0  0  0  0  0  0
  129.3306  127.6172   59.9030 H   0  0  0  0  0  0  0  0  0  0  0  0
  131.5591  127.9116   58.8363 H   0  0  0  0  0  0  0  0  0  0  0  0
  131.9332  129.7707   57.2259 H   0  0  0  0  0  0  0  0  0  0  0  0
  130.0801  131.3356   56.6614 H   0  0  0  0  0  0  0  0  0  0  0  0
  127.8421  131.0275   57.6967 H   0  0  0  0  0  0  0  0  0  0  0  0
  126.1009  129.1312   56.9349 H   0  0  0  0  0  0  0  0  0  0  0  0
  124.3199  130.5110   55.8880 H   0  0  0  0  0  0  0  0  0  0  0  0
  123.0873  132.1913   57.2502 H   0  0  0  0  0  0  0  0  0  0  0  0
  123.6150  132.4761   59.6659 H   0  0  0  0  0  0  0  0  0  0  0  0
  125.3936  131.0991   60.7174 H   0  0  0  0  0  0  0  0  0  0  0  0
  1  2  2  0
  2  3  1  0
  3  4  1  0
  4  5  1  0
  5  6  1  0
  6  7  2  0
  6  8  1  0
  8  9  1  0
  9 10  1  0
 10 11  1  0
 11 12  2  0
 12 13  1  0
 13 14  2  0
 14 15  1  0
 15 16  2  0
 16 17  1  0
 17 18  2  0
 18 19  1  0
 19 20  2  0
 20 21  1  0
 21 22  2  0
  4 23  1  0
 23 24  2  0
 23 25  1  0
  2 26  1  0
 26 27  1  0
 27 28  1  0
 28 29  2  0
 29 30  1  0
 30 31  2  0
 31 32  1  0
 32 33  2  0
 27 34  1  0
 34 35  2  0
 35 36  1  0
 36 37  2  0
 37 38  1  0
 38 39  2  0
 27 40  1  0
 40 41  2  0
 41 42  1  0
 42 43  2  0
 43 44  1  0
 44 45  2  0
 22 10  1  0
 33 28  1  0
 39 34  1  0
 45 40  1  0
 16 11  1  0
 22 17  1  0
  3 46  1  0
  3 47  1  0
  4 48  1  1
  5 49  1  0
  9 50  1  0
  9 51  1  0
 10 52  1  0
 12 53  1  0
 13 54  1  0
 14 55  1  0
 15 56  1  0
 18 57  1  0
 19 58  1  0
 20 59  1  0
 21 60  1  0
 25 61  1  0
 26 62  1  0
 29 63  1  0
 30 64  1  0
 31 65  1  0
 32 66  1  0
 33 67  1  0
 35 68  1  0
 36 69  1  0
 37 70  1  0
 38 71  1  0
 39 72  1  0
 41 73  1  0
 42 74  1  0
 43 75  1  0
 44 76  1  0
 45 77  1  0
M  END
>  <Binding energies>  (1) 
[-10.21]

>  <Ligand effiencies>  (1) 
[-0.21270833333333336]

>  <Interactions>  (1) 
["H-B:ALA:541:N:9860, V-B:TYR:539:CE2:9845, V-A:HIS:456:CE1:4066, V-B:TYR:539:CZ:9846, V-B:PRO:540:CA:9852, V-A:ARG:545:CZ:4923, V-B:ALA:541:CB:9861, V-B:PRO:540:CB:9854, V-A:ASP:366:CG:3209, H-B:GLU:543:OE2:9879, V-B:GLU:543:CB:9875, V-B:GLU:543:CD:9877, V-B:GLU:543:CG:9876, V-A:LEU:475:CD1:4254, H-B:ASP:366:OD1:8182, V-B:TYR:531:CZ:9763, H-B:TYR:531:OH:9764, V-B:ASP:366:CG:8181, V-B:ASP:366:CB:8180, V-A:TYR:539:CE2:4873, V-B:ASP:366:CA:8178, V-A:TYR:539:CZ:4874, V-B:ASP:366:C:8176, V-B:TYR:531:CE1:9761, V-B:ILE:369:CG2:8205, V-B:ILE:369:CB:8204"]

$$$$
RR5_Rahimova_2017-again1
     RDKit          3D

 76 81  0  0  0  0  0  0  0  0999 V2000
  127.9340  127.8810   57.6290 O   0  0  0  0  0  0  0  0  0  0  0  0
  127.0890  127.4670   58.4230 C   0  0  0  0  0  0  0  0  0  0  0  0
  126.5800  126.0180   58.2780 C   0  0  0  0  0  0  0  0  0  0  0  0
  125.4760  125.5580   59.2860 C   0  0  2  0  0  0  0  0  0  0  0  0
  126.0500  124.5530   60.2060 N   0  0  0  0  0  0  0  0  0  0  0  0
  126.3170  123.2530   59.7930 C   0  0  0  0  0  0  0  0  0  0  0  0
  126.1030  122.7790   58.6740 O   0  0  0  0  0  0  0  0  0  0  0  0
  126.8570  122.5750   60.8240 O   0  0  0  0  0  0  0  0  0  0  0  0
  127.8670  123.1620   61.6370 C   0  0  0  0  0  0  0  0  0  0  0  0
  129.2620  122.8000   61.0930 C   0  0  0  0  0  0  0  0  0  0  0  0
  129.6690  123.6150   59.8780 C   0  0  0  0  0  0  0  0  0  0  0  0
  129.0520  123.7210   58.6290 C   0  0  0  0  0  0  0  0  0  0  0  0
  129.6000  124.5530   57.6500 C   0  0  0  0  0  0  0  0  0  0  0  0
  130.7650  125.2750   57.9150 C   0  0  0  0  0  0  0  0  0  0  0  0
  131.3860  125.1670   59.1600 C   0  0  0  0  0  0  0  0  0  0  0  0
  130.8360  124.3350   60.1380 C   0  0  0  0  0  0  0  0  0  0  0  0
  131.2780  124.0280   61.5070 C   0  0  0  0  0  0  0  0  0  0  0  0
  132.3810  124.4730   62.2380 C   0  0  0  0  0  0  0  0  0  0  0  0
  132.5820  124.0070   63.5380 C   0  0  0  0  0  0  0  0  0  0  0  0
  131.6830  123.1010   64.1040 C   0  0  0  0  0  0  0  0  0  0  0  0
  130.5800  122.6580   63.3710 C   0  0  0  0  0  0  0  0  0  0  0  0
  130.3750  123.1250   62.0690 C   0  0  0  0  0  0  0  0  0  0  0  0
  124.1890  125.0120   58.5470 C   0  0  0  0  0  0  0  0  0  0  0  0
  123.9800  125.5270   57.4230 O   0  0  0  0  0  0  0  0  0  0  0  0
  123.5420  124.1080   59.1290 O   0  0  0  0  0  0  0  0  0  0  0  0
  126.6750  128.1810   59.4910 N   0  0  0  0  0  0  0  0  0  0  0  0
  127.0110  129.5730   59.8870 C   0  0  0  0  0  0  0  0  0  0  0  0
  126.9950  129.7070   61.4430 C   0  0  0  0  0  0  0  0  0  0  0  0
  127.4550  130.8770   62.0720 C   0  0  0  0  0  0  0  0  0  0  0  0
  127.4300  131.0050   63.4580 C   0  0  0  0  0  0  0  0  0  0  0  0
  126.9380  129.9630   64.2360 C   0  0  0  0  0  0  0  0  0  0  0  0
  126.4730  128.7950   63.6400 C   0  0  0  0  0  0  0  0  0  0  0  0
  126.4990  128.6690   62.2530 C   0  0  0  0  0  0  0  0  0  0  0  0
  128.4460  130.0500   59.4920 C   0  0  0  0  0  0  0  0  0  0  0  0
  129.5820  129.3210   59.8860 C   0  0  0  0  0  0  0  0  0  0  0  0
  130.8620  129.7430   59.5370 C   0  0  0  0  0  0  0  0  0  0  0  0
  131.0230  130.9010   58.7820 C   0  0  0  0  0  0  0  0  0  0  0  0
  129.9150  131.6340   58.3710 C   0  0  0  0  0  0  0  0  0  0  0  0
  128.6370  131.2090   58.7220 C   0  0  0  0  0  0  0  0  0  0  0  0
  125.8730  130.4400   59.2460 C   0  0  0  0  0  0  0  0  0  0  0  0
  125.2880  131.5170   59.9340 C   0  0  0  0  0  0  0  0  0  0  0  0
  124.2910  132.2880   59.3440 C   0  0  0  0  0  0  0  0  0  0  0  0
  123.8730  132.0020   58.0490 C   0  0  0  0  0  0  0  0  0  0  0  0
  124.4500  130.9570   57.3370 C   0  0  0  0  0  0  0  0  0  0  0  0
  125.4470  130.1860   57.9300 C   0  0  0  0  0  0  0  0  0  0  0  0
  126.1712  125.9082   57.2627 H   0  0  0  0  0  0  0  0  0  0  0  0
  127.4515  125.3822   58.4932 H   0  0  0  0  0  0  0  0  0  0  0  0
  125.1422  126.4289   59.8692 H   0  0  0  0  0  0  0  0  0  0  0  0
  126.3120  124.8450   61.1370 H   0  0  0  0  0  0  0  0  0  0  0  0
  127.7474  124.2555   61.6328 H   0  0  0  0  0  0  0  0  0  0  0  0
  127.7705  122.7787   62.6635 H   0  0  0  0  0  0  0  0  0  0  0  0
  129.1566  121.7263   60.8785 H   0  0  0  0  0  0  0  0  0  0  0  0
  128.1360  123.1501   58.4169 H   0  0  0  0  0  0  0  0  0  0  0  0
  129.1124  124.6395   56.6678 H   0  0  0  0  0  0  0  0  0  0  0  0
  131.1938  125.9295   57.1419 H   0  0  0  0  0  0  0  0  0  0  0  0
  132.3045  125.7345   59.3703 H   0  0  0  0  0  0  0  0  0  0  0  0
  133.0882  125.1875   61.7915 H   0  0  0  0  0  0  0  0  0  0  0  0
  133.4501  124.3540   64.1177 H   0  0  0  0  0  0  0  0  0  0  0  0
  131.8438  122.7356   65.1290 H   0  0  0  0  0  0  0  0  0  0  0  0
  129.8734  121.9427   63.8172 H   0  0  0  0  0  0  0  0  0  0  0  0
  125.9340  127.7680   60.0380 H   0  0  0  0  0  0  0  0  0  0  0  0
  127.8410  131.7048   61.4591 H   0  0  0  0  0  0  0  0  0  0  0  0
  127.7975  131.9255   63.9350 H   0  0  0  0  0  0  0  0  0  0  0  0
  126.9162  130.0629   65.3312 H   0  0  0  0  0  0  0  0  0  0  0  0
  126.0863  127.9741   64.2618 H   0  0  0  0  0  0  0  0  0  0  0  0
  126.1268  127.7458   61.7848 H   0  0  0  0  0  0  0  0  0  0  0  0
  129.4574  128.4030   60.4792 H   0  0  0  0  0  0  0  0  0  0  0  0
  131.7413  129.1643   59.8563 H   0  0  0  0  0  0  0  0  0  0  0  0
  132.0335  131.2387   58.5085 H   0  0  0  0  0  0  0  0  0  0  0  0
  130.0481  132.5462   57.7708 H   0  0  0  0  0  0  0  0  0  0  0  0
  127.7632  131.7897   58.3913 H   0  0  0  0  0  0  0  0  0  0  0  0
  125.6234  131.7541   60.9544 H   0  0  0  0  0  0  0  0  0  0  0  0
  123.8353  133.1206   59.9000 H   0  0  0  0  0  0  0  0  0  0  0  0
  123.0802  132.6070   57.5848 H   0  0  0  0  0  0  0  0  0  0  0  0
  124.1208  130.7399   56.3101 H   0  0  0  0  0  0  0  0  0  0  0  0
  125.9082  129.3659   57.3602 H   0  0  0  0  0  0  0  0  0  0  0  0
  1  2  2  0
  2  3  1  0
  3  4  1  0
  4  5  1  0
  5  6  1  0
  6  7  2  0
  6  8  1  0
  8  9  1  0
  9 10  1  0
 10 11  1  0
 11 12  2  0
 12 13  1  0
 13 14  2  0
 14 15  1  0
 15 16  2  0
 16 17  1  0
 17 18  2  0
 18 19  1  0
 19 20  2  0
 20 21  1  0
 21 22  2  0
  4 23  1  0
 23 24  2  0
 23 25  1  0
  2 26  1  0
 26 27  1  0
 27 28  1  0
 28 29  2  0
 29 30  1  0
 30 31  2  0
 31 32  1  0
 32 33  2  0
 27 34  1  0
 34 35  2  0
 35 36  1  0
 36 37  2  0
 37 38  1  0
 38 39  2  0
 27 40  1  0
 40 41  2  0
 41 42  1  0
 42 43  2  0
 43 44  1  0
 44 45  2  0
 22 10  1  0
 33 28  1  0
 39 34  1  0
 45 40  1  0
 16 11  1  0
 22 17  1  0
  3 46  1  0
  3 47  1  0
  4 48  1  1
  5 49  1  0
  9 50  1  0
  9 51  1  0
 10 52  1  0
 12 53  1  0
 13 54  1  0
 14 55  1  0
 15 56  1  0
 18 57  1  0
 19 58  1  0
 20 59  1  0
 21 60  1  0
 26 61  1  0
 29 62  1  0
 30 63  1  0
 31 64  1  0
 32 65  1  0
 33 66  1  0
 35 67  1  0
 36 68  1  0
 37 69  1  0
 38 70  1  0
 39 71  1  0
 41 72  1  0
 42 73  1  0
 43 74  1  0
 44 75  1  0
 45 76  1  0
M  CHG  1  25  -1
M  END
>  <Binding energies>  (1) 
[-9.15]

>  <Ligand effiencies>  (1) 
[-0.1946808510638298]

>  <Interactions>  (1) 
["H-B:ALA:541:N:9860, V-B:TYR:539:CE2:9845, V-B:TYR:539:CZ:9846, V-B:PRO:540:CA:9852, V-B:ALA:541:CB:9861, V-A:GLY:454:CA:4045, V-B:PRO:540:CB:9854, V-A:ASP:366:CG:3209, H-B:GLU:543:OE2:9879, V-B:GLU:543:CD:9877, V-B:GLU:543:CG:9876, V-A:GLU:543:CD:4905, V-A:LEU:475:CD1:4254, V-A:ASP:366:CB:3208, H-B:ASP:366:OD1:8182, V-B:LEU:363:CD1:8157, H-B:TYR:531:OH:9764, V-B:ASP:366:CG:8181, V-A:PRO:540:CA:4880, V-B:ASP:366:CB:8180, V-A:TYR:539:CE2:4873, H-B:LEU:363:N:8154, V-A:TYR:539:CZ:4874, V-B:ILE:369:CG2:8205, V-B:ILE:369:CB:8204"]

$$$$
RR6_Rahimova_2017
     RDKit          3D

 63 66  0  0  0  0  0  0  0  0999 V2000
  126.1940  122.7850   56.2660 C   0  0  0  0  0  0  0  0  0  0  0  0
  124.9860  123.1940   56.8920 O   0  0  0  0  0  0  0  0  0  0  0  0
  124.9350  124.3280   57.6380 C   0  0  0  0  0  0  0  0  0  0  0  0
  124.2020  125.2850   57.3690 O   0  0  0  0  0  0  0  0  0  0  0  0
  125.8570  124.3010   58.8230 C   0  0  0  0  0  0  0  0  0  0  0  0
  126.3880  123.1040   59.3250 C   0  0  0  0  0  0  0  0  0  0  0  0
  127.2350  123.1120   60.4310 C   0  0  0  0  0  0  0  0  0  0  0  0
  127.5630  124.3240   61.0570 C   0  0  0  0  0  0  0  0  0  0  0  0
  128.3830  124.4430   62.1940 N   0  0  0  0  0  0  0  0  0  0  0  0
  129.6630  124.0460   62.3720 C   0  0  0  0  0  0  0  0  0  0  0  0
  130.3630  123.4950   61.5230 O   0  0  0  0  0  0  0  0  0  0  0  0
  130.2330  124.2610   63.7780 C   0  0  0  0  0  0  0  0  0  0  0  0
  130.9280  125.9270   64.0400 S   0  0  0  0  0  0  0  0  0  0  0  0
  129.7280  126.8430   64.9840 C   0  0  0  0  0  0  0  0  0  0  0  0
  129.8000  126.6420   66.3220 N   0  0  0  0  0  0  0  0  0  0  0  0
  128.9550  127.3080   67.1490 C   0  0  0  0  0  0  0  0  0  0  0  0
  129.1410  127.0770   68.6200 C   0  0  0  0  0  0  0  0  0  0  0  0
  128.2890  126.2170   69.3300 C   0  0  0  0  0  0  0  0  0  0  0  0
  128.4530  126.0120   70.6970 C   0  0  0  0  0  0  0  0  0  0  0  0
  129.4800  126.6620   71.3810 C   0  0  0  0  0  0  0  0  0  0  0  0
  129.6500  126.4440   72.8730 C   0  0  0  0  0  0  0  0  0  0  0  0
  130.3380  127.5180   70.6950 C   0  0  0  0  0  0  0  0  0  0  0  0
  130.1690  127.7180   69.3280 C   0  0  0  0  0  0  0  0  0  0  0  0
  128.0000  128.1910   66.6350 C   0  0  0  0  0  0  0  0  0  0  0  0
  127.9020  128.4120   65.2540 C   0  0  0  0  0  0  0  0  0  0  0  0
  126.8720  129.3810   64.7750 C   0  0  0  0  0  0  0  0  0  0  0  0
  127.2030  130.7280   64.5980 C   0  0  0  0  0  0  0  0  0  0  0  0
  126.2530  131.6350   64.1370 C   0  0  0  0  0  0  0  0  0  0  0  0
  124.9580  131.2150   63.8390 C   0  0  0  0  0  0  0  0  0  0  0  0
  124.0840  132.1830   63.3850 O   0  0  0  0  0  0  0  0  0  0  0  0
  123.8760  132.3300   61.9850 C   0  0  0  0  0  0  0  0  0  0  0  0
  124.6220  129.8630   64.0100 C   0  0  0  0  0  0  0  0  0  0  0  0
  125.5750  128.9580   64.4710 C   0  0  0  0  0  0  0  0  0  0  0  0
  128.7880  127.7130   64.3970 C   0  0  0  0  0  0  0  0  0  0  0  0
  128.7210  127.8760   62.9410 C   0  0  0  0  0  0  0  0  0  0  0  0
  128.6690  128.0060   61.7920 N   0  0  0  0  0  0  0  0  0  0  0  0
  127.0500  125.5180   60.5500 C   0  0  0  0  0  0  0  0  0  0  0  0
  126.2010  125.5080   59.4460 C   0  0  0  0  0  0  0  0  0  0  0  0
  126.9386  122.5329   57.0354 H   0  0  0  0  0  0  0  0  0  0  0  0
  126.0013  121.9020   55.6389 H   0  0  0  0  0  0  0  0  0  0  0  0
  126.5774  123.6034   55.6389 H   0  0  0  0  0  0  0  0  0  0  0  0
  126.1333  122.1497   58.8408 H   0  0  0  0  0  0  0  0  0  0  0  0
  127.6472  122.1668   60.8140 H   0  0  0  0  0  0  0  0  0  0  0  0
  127.9120  124.8030   63.0110 H   0  0  0  0  0  0  0  0  0  0  0  0
  129.4256  124.1027   64.5081 H   0  0  0  0  0  0  0  0  0  0  0  0
  131.0584  123.5448   63.9035 H   0  0  0  0  0  0  0  0  0  0  0  0
  127.4789  125.6968   68.7979 H   0  0  0  0  0  0  0  0  0  0  0  0
  127.7727  125.3375   71.2376 H   0  0  0  0  0  0  0  0  0  0  0  0
  129.0640  127.1955   73.4225 H   0  0  0  0  0  0  0  0  0  0  0  0
  129.2964  125.4369   73.1391 H   0  0  0  0  0  0  0  0  0  0  0  0
  130.7129  126.5416   73.1391 H   0  0  0  0  0  0  0  0  0  0  0  0
  131.1471  128.0347   71.2321 H   0  0  0  0  0  0  0  0  0  0  0  0
  130.8544  128.3914   68.7925 H   0  0  0  0  0  0  0  0  0  0  0  0
  127.3194  128.7170   67.3206 H   0  0  0  0  0  0  0  0  0  0  0  0
  128.2223  131.0737   64.8249 H   0  0  0  0  0  0  0  0  0  0  0  0
  126.5268  132.6924   64.0068 H   0  0  0  0  0  0  0  0  0  0  0  0
  122.9891  132.9568   61.8099 H   0  0  0  0  0  0  0  0  0  0  0  0
  124.7574  132.8069   61.5314 H   0  0  0  0  0  0  0  0  0  0  0  0
  123.7207  131.3400   61.5314 H   0  0  0  0  0  0  0  0  0  0  0  0
  123.6035  129.5174   63.7794 H   0  0  0  0  0  0  0  0  0  0  0  0
  125.3041  127.8994   64.5972 H   0  0  0  0  0  0  0  0  0  0  0  0
  127.3177  126.4733   61.0251 H   0  0  0  0  0  0  0  0  0  0  0  0
  125.7971  126.4555   59.0599 H   0  0  0  0  0  0  0  0  0  0  0  0
  1  2  1  0
  2  3  1  0
  3  4  2  0
  3  5  1  0
  5  6  2  0
  6  7  1  0
  7  8  2  0
  8  9  1  0
  9 10  1  0
 10 11  2  0
 10 12  1  0
 12 13  1  0
 13 14  1  0
 14 15  2  0
 15 16  1  0
 16 17  1  0
 17 18  2  0
 18 19  1  0
 19 20  2  0
 20 21  1  0
 20 22  1  0
 22 23  2  0
 16 24  2  0
 24 25  1  0
 25 26  1  0
 26 27  2  0
 27 28  1  0
 28 29  2  0
 29 30  1  0
 30 31  1  0
 29 32  1  0
 32 33  2  0
 25 34  2  0
 34 35  1  0
 35 36  3  0
  8 37  1  0
 37 38  2  0
 38  5  1  0
 34 14  1  0
 23 17  1  0
 33 26  1  0
  1 39  1  0
  1 40  1  0
  1 41  1  0
  6 42  1  0
  7 43  1  0
  9 44  1  0
 12 45  1  0
 12 46  1  0
 18 47  1  0
 19 48  1  0
 21 49  1  0
 21 50  1  0
 21 51  1  0
 22 52  1  0
 23 53  1  0
 24 54  1  0
 27 55  1  0
 28 56  1  0
 31 57  1  0
 31 58  1  0
 31 59  1  0
 32 60  1  0
 33 61  1  0
 37 62  1  0
 38 63  1  0
M  END
>  <Binding energies>  (1) 
[-9.23]

>  <Ligand effiencies>  (1) 
[-0.23666666666666666]

>  <Interactions>  (1) 
["V-A:HIS:456:CE1:4066, V-B:PRO:540:CA:9852, V-B:ALA:541:CB:9861, V-B:PRO:540:N:9853, V-B:PRO:540:CB:9854, H-B:GLU:543:OE2:9879, V-B:LYS:547:CE:9919, V-B:GLU:543:CB:9875, V-B:GLU:543:CD:9877, V-B:HIS:456:CE1:9038, V-B:GLU:543:CG:9876, V-A:GLU:543:CD:4905, H-B:GLY:454:N:9018, V-B:ARG:545:CZ:9895, V-A:GLU:543:CG:4904, V-B:PRO:540:CD:9856, V-A:HIS:456:CD2:4064, V-B:GLU:543:C:9871, H-B:GLU:543:OE1:9878, V-B:LEU:363:CD1:8157, H-B:TYR:531:OH:9764, V-B:ILE:538:CB:9831, V-B:GLY:454:CA:9017, V-B:ILE:369:CD1:8207"]

$$$$
RR7_Rahimova_2017
     RDKit          3D

 80 86  0  0  0  0  0  0  0  0999 V2000
  133.5670  125.0110   65.3070 C   0  0  0  0  0  0  0  0  0  0  0  0
  133.9600  124.6490   63.9870 O   0  0  0  0  0  0  0  0  0  0  0  0
  133.0580  124.7980   62.9510 C   0  0  0  0  0  0  0  0  0  0  0  0
  132.1040  125.8030   63.0960 C   0  0  0  0  0  0  0  0  0  0  0  0
  131.1580  126.0320   62.1030 C   0  0  0  0  0  0  0  0  0  0  0  0
  131.1350  125.2480   60.9400 C   0  0  0  0  0  0  0  0  0  0  0  0
  130.1060  125.5030   59.7950 C   0  0  0  0  0  0  0  0  0  0  0  0
  129.1640  126.4730   60.3040 O   0  0  0  0  0  0  0  0  0  0  0  0
  127.7730  126.1450   60.3910 C   0  0  0  0  0  0  0  0  0  0  0  0
  126.9540  127.4450   60.4470 C   0  0  1  0  0  0  0  0  0  0  0  0
  126.5280  127.6060   61.7970 O   0  0  0  0  0  0  0  0  0  0  0  0
  126.9830  128.8080   62.3490 C   0  0  1  0  0  0  0  0  0  0  0  0
  127.2430  128.6400   63.7660 N   0  0  0  0  0  0  0  0  0  0  0  0
  126.8110  129.4360   64.8120 C   0  0  0  0  0  0  0  0  0  0  0  0
  127.2340  129.0800   66.0000 N   0  0  0  0  0  0  0  0  0  0  0  0
  128.0400  128.0020   65.7500 C   0  0  0  0  0  0  0  0  0  0  0  0
  128.8010  127.1770   66.6010 C   0  0  0  0  0  0  0  0  0  0  0  0
  128.7770  127.4300   67.9860 N   0  0  0  0  0  0  0  0  0  0  0  0
  128.9090  126.5580   69.0130 C   0  0  0  0  0  0  0  0  0  0  0  0
  129.0610  125.3410   68.8770 O   0  0  0  0  0  0  0  0  0  0  0  0
  128.8270  127.1610   70.3990 C   0  0  0  0  0  0  0  0  0  0  0  0
  129.6700  128.2300   70.7410 C   0  0  0  0  0  0  0  0  0  0  0  0
  129.6070  128.8040   72.0080 C   0  0  0  0  0  0  0  0  0  0  0  0
  128.6990  128.3170   72.9420 C   0  0  0  0  0  0  0  0  0  0  0  0
  127.8510  127.2600   72.6210 C   0  0  0  0  0  0  0  0  0  0  0  0
  127.9140  126.6840   71.3540 C   0  0  0  0  0  0  0  0  0  0  0  0
  129.5410  126.1630   66.0600 N   0  0  0  0  0  0  0  0  0  0  0  0
  129.5050  126.0010   64.7110 C   0  0  0  0  0  0  0  0  0  0  0  0
  128.8060  126.7320   63.8030 N   0  0  0  0  0  0  0  0  0  0  0  0
  128.0850  127.7140   64.3620 C   0  0  0  0  0  0  0  0  0  0  0  0
  128.1970  129.1990   61.5140 C   0  0  0  0  0  0  0  0  0  0  0  0
  127.7460  128.7250   60.1430 C   0  0  2  0  0  0  0  0  0  0  0  0
  126.9640  129.6990   59.4740 O   0  0  0  0  0  0  0  0  0  0  0  0
  130.7660  126.1290   58.5370 C   0  0  0  0  0  0  0  0  0  0  0  0
  131.5800  125.3480   57.7010 C   0  0  0  0  0  0  0  0  0  0  0  0
  132.1870  125.9020   56.5790 C   0  0  0  0  0  0  0  0  0  0  0  0
  131.9870  127.2460   56.2800 C   0  0  0  0  0  0  0  0  0  0  0  0
  131.1850  128.0400   57.0950 C   0  0  0  0  0  0  0  0  0  0  0  0
  130.5790  127.4850   58.2180 C   0  0  0  0  0  0  0  0  0  0  0  0
  129.3380  124.2520   59.2840 C   0  0  0  0  0  0  0  0  0  0  0  0
  129.3070  123.0750   60.0500 C   0  0  0  0  0  0  0  0  0  0  0  0
  128.6310  121.9470   59.5970 C   0  0  0  0  0  0  0  0  0  0  0  0
  127.9830  121.9800   58.3660 C   0  0  0  0  0  0  0  0  0  0  0  0
  128.0110  123.1310   57.5840 C   0  0  0  0  0  0  0  0  0  0  0  0
  128.6880  124.2580   58.0380 C   0  0  0  0  0  0  0  0  0  0  0  0
  132.1070  124.2470   60.7920 C   0  0  0  0  0  0  0  0  0  0  0  0
  133.0540  124.0190   61.7860 C   0  0  0  0  0  0  0  0  0  0  0  0
  134.1729  124.4529   66.0360 H   0  0  0  0  0  0  0  0  0  0  0  0
  133.7208  126.0905   65.4523 H   0  0  0  0  0  0  0  0  0  0  0  0
  132.5038  124.7693   65.4523 H   0  0  0  0  0  0  0  0  0  0  0  0
  132.0991  126.4217   64.0055 H   0  0  0  0  0  0  0  0  0  0  0  0
  130.4193  126.8370   62.2309 H   0  0  0  0  0  0  0  0  0  0  0  0
  127.4762  125.5600   59.5080 H   0  0  0  0  0  0  0  0  0  0  0  0
  127.5878  125.5501   61.2975 H   0  0  0  0  0  0  0  0  0  0  0  0
  126.1609  127.3381   59.6923 H   0  0  0  0  0  0  0  0  0  0  0  0
  126.2454  129.6231   62.3098 H   0  0  0  0  0  0  0  0  0  0  0  0
  126.1577  130.3073   64.6570 H   0  0  0  0  0  0  0  0  0  0  0  0
  128.6380  128.3990   68.2320 H   0  0  0  0  0  0  0  0  0  0  0  0
  130.3865  128.6175   70.0018 H   0  0  0  0  0  0  0  0  0  0  0  0
  130.2730  129.6396   72.2692 H   0  0  0  0  0  0  0  0  0  0  0  0
  128.6502  128.7706   73.9429 H   0  0  0  0  0  0  0  0  0  0  0  0
  127.1344  126.8814   73.3647 H   0  0  0  0  0  0  0  0  0  0  0  0
  127.2439  125.8496   71.0996 H   0  0  0  0  0  0  0  0  0  0  0  0
  130.1145  125.1800   64.3055 H   0  0  0  0  0  0  0  0  0  0  0  0
  128.3712  130.2850   61.5324 H   0  0  0  0  0  0  0  0  0  0  0  0
  129.1503  128.7720   61.8587 H   0  0  0  0  0  0  0  0  0  0  0  0
  128.5870  128.5440   59.4574 H   0  0  0  0  0  0  0  0  0  0  0  0
  126.0360  129.4830   59.5960 H   0  0  0  0  0  0  0  0  0  0  0  0
  131.7395  124.2854   57.9363 H   0  0  0  0  0  0  0  0  0  0  0  0
  132.8223  125.2804   55.9309 H   0  0  0  0  0  0  0  0  0  0  0  0
  132.4664  127.6847   55.3925 H   0  0  0  0  0  0  0  0  0  0  0  0
  131.0309  129.1018   56.8523 H   0  0  0  0  0  0  0  0  0  0  0  0
  129.9473  128.1139   58.8625 H   0  0  0  0  0  0  0  0  0  0  0  0
  129.8239  123.0450   61.0205 H   0  0  0  0  0  0  0  0  0  0  0  0
  128.6087  121.0332   60.2089 H   0  0  0  0  0  0  0  0  0  0  0  0
  127.4447  121.0899   58.0083 H   0  0  0  0  0  0  0  0  0  0  0  0
  127.4995  123.1493   56.6103 H   0  0  0  0  0  0  0  0  0  0  0  0
  128.7149  125.1641   57.4149 H   0  0  0  0  0  0  0  0  0  0  0  0
  132.1207  123.6345   59.8784 H   0  0  0  0  0  0  0  0  0  0  0  0
  133.8028  123.2237   61.6567 H   0  0  0  0  0  0  0  0  0  0  0  0
  1  2  1  0
  2  3  1  0
  3  4  2  0
  4  5  1  0
  5  6  2  0
  6  7  1  0
  7  8  1  0
  8  9  1  0
  9 10  1  0
 10 11  1  0
 11 12  1  0
 12 13  1  0
 13 14  1  0
 14 15  2  0
 15 16  1  0
 16 17  2  0
 17 18  1  0
 18 19  1  0
 19 20  2  0
 19 21  1  0
 21 22  2  0
 22 23  1  0
 23 24  2  0
 24 25  1  0
 25 26  2  0
 17 27  1  0
 27 28  2  0
 28 29  1  0
 29 30  2  0
 12 31  1  0
 31 32  1  0
 32 33  1  0
  7 34  1  0
 34 35  2  0
 35 36  1  0
 36 37  2  0
 37 38  1  0
 38 39  2  0
  7 40  1  0
 40 41  2  0
 41 42  1  0
 42 43  2  0
 43 44  1  0
 44 45  2  0
  6 46  1  0
 46 47  2  0
 47  3  1  0
 32 10  1  0
 39 34  1  0
 45 40  1  0
 30 13  1  0
 30 16  1  0
 26 21  1  0
  1 48  1  0
  1 49  1  0
  1 50  1  0
  4 51  1  0
  5 52  1  0
  9 53  1  0
  9 54  1  0
 10 55  1  6
 12 56  1  1
 14 57  1  0
 18 58  1  0
 22 59  1  0
 23 60  1  0
 24 61  1  0
 25 62  1  0
 26 63  1  0
 28 64  1  0
 31 65  1  0
 31 66  1  0
 32 67  1  6
 33 68  1  0
 35 69  1  0
 36 70  1  0
 37 71  1  0
 38 72  1  0
 39 73  1  0
 41 74  1  0
 42 75  1  0
 43 76  1  0
 44 77  1  0
 45 78  1  0
 46 79  1  0
 47 80  1  0
M  END
>  <Binding energies>  (1) 
[-8.46]

>  <Ligand effiencies>  (1) 
[-0.1726530612244898]

>  <Interactions>  (1) 
["V-B:TYR:539:CE2:9845, V-A:HIS:456:CE1:4066, V-B:TYR:539:CG:9841, V-B:TYR:539:CD1:9842, V-B:TYR:539:CZ:9846, V-B:PRO:540:CA:9852, V-A:ARG:545:CZ:4923, V-B:TYR:539:CE1:9844, V-A:ARG:545:CD:4920, H-A:GLY:454:N:4046, V-B:TYR:539:C:9836, V-A:GLY:454:CA:4045, V-B:PRO:540:N:9853, V-B:TYR:539:CD2:9843, V-A:ASP:366:CG:3209, V-B:HIS:456:CD2:9036, V-A:LYS:547:CE:4947, V-B:GLY:544:C:9881, V-B:LYS:547:CE:9919, V-B:GLU:543:CD:9877, V-B:HIS:456:CE1:9038, V-B:GLU:543:CG:9876, V-A:GLU:543:CD:4905, H-A:ARG:545:NH1:4924, V-A:ASP:366:CB:3208, H-B:ARG:545:NH2:9897, H-B:ASP:366:OD1:8182, H-A:GLU:543:O:4900, H-B:HIS:456:NE2:9039, V-A:TYR:531:CZ:4791, V-A:TYR:531:CE1:4789"]

$$$$
RR8_A_Rahimova_2017
     RDKit          3D

 73 77  0  0  0  0  0  0  0  0999 V2000
  131.7740  126.8270   65.6830 O   0  0  0  0  0  0  0  0  0  0  0  0
  130.5900  126.7060   66.0140 C   0  0  0  0  0  0  0  0  0  0  0  0
  129.5720  126.4060   65.1490 O   0  0  0  0  0  0  0  0  0  0  0  0
  129.8410  126.4910   63.7770 C   0  0  1  0  0  0  0  0  0  0  0  0
  130.5590  125.3810   63.3220 O   0  0  0  0  0  0  0  0  0  0  0  0
  130.1330  124.9690   62.0260 C   0  0  2  0  0  0  0  0  0  0  0  0
  131.3540  124.9520   61.0910 C   0  0  0  0  0  0  0  0  0  0  0  0
  131.0910  124.0700   60.0090 O   0  0  0  0  0  0  0  0  0  0  0  0
  130.5040  124.7010   58.8790 C   0  0  0  0  0  0  0  0  0  0  0  0
  129.3250  123.8760   58.3810 C   0  0  0  0  0  0  0  0  0  0  0  0
  128.7000  122.9680   59.2390 C   0  0  0  0  0  0  0  0  0  0  0  0
  127.6170  122.2160   58.7880 C   0  0  0  0  0  0  0  0  0  0  0  0
  127.1610  122.3780   57.4810 C   0  0  0  0  0  0  0  0  0  0  0  0
  127.7750  123.2860   56.6210 C   0  0  0  0  0  0  0  0  0  0  0  0
  128.8570  124.0380   57.0730 C   0  0  0  0  0  0  0  0  0  0  0  0
  129.0380  125.9810   61.6630 C   0  0  1  0  0  0  0  0  0  0  0  0
  127.9400  125.3940   60.9690 O   0  0  0  0  0  0  0  0  0  0  0  0
  126.9580  126.3040   60.4850 C   0  0  0  0  0  0  0  0  0  0  0  0
  125.7770  125.5350   59.9100 C   0  0  0  0  0  0  0  0  0  0  0  0
  125.1060  124.5990   60.7030 C   0  0  0  0  0  0  0  0  0  0  0  0
  124.0310  123.8860   60.1810 C   0  0  0  0  0  0  0  0  0  0  0  0
  123.6290  124.1070   58.8650 C   0  0  0  0  0  0  0  0  0  0  0  0
  124.2950  125.0330   58.0660 C   0  0  0  0  0  0  0  0  0  0  0  0
  125.3720  125.7450   58.5870 C   0  0  0  0  0  0  0  0  0  0  0  0
  128.5230  126.4400   63.0150 C   0  0  2  0  0  0  0  0  0  0  0  0
  127.8770  127.7050   62.9040 O   0  0  0  0  0  0  0  0  0  0  0  0
  127.8800  128.5060   64.0810 C   0  0  0  0  0  0  0  0  0  0  0  0
  126.4660  128.9680   64.3970 C   0  0  0  0  0  0  0  0  0  0  0  0
  125.9900  128.9280   65.7120 C   0  0  0  0  0  0  0  0  0  0  0  0
  124.6980  129.3620   65.9980 C   0  0  0  0  0  0  0  0  0  0  0  0
  123.8870  129.8380   64.9700 C   0  0  0  0  0  0  0  0  0  0  0  0
  124.3550  129.8860   63.6590 C   0  0  0  0  0  0  0  0  0  0  0  0
  125.6470  129.4520   63.3720 C   0  0  0  0  0  0  0  0  0  0  0  0
  130.1180  126.8660   67.4310 C   0  0  0  0  0  0  0  0  0  0  0  0
  130.6760  127.8200   68.2950 C   0  0  0  0  0  0  0  0  0  0  0  0
  130.2170  127.9430   69.6040 C   0  0  0  0  0  0  0  0  0  0  0  0
  129.1920  127.1170   70.0820 C   0  0  0  0  0  0  0  0  0  0  0  0
  128.7030  127.2500   71.4760 N   0  0  0  0  0  0  0  0  0  0  0  0
  127.5250  127.0010   71.7130 O   0  0  0  0  0  0  0  0  0  0  0  0
  129.4950  127.6040   72.3460 O   0  0  0  0  0  0  0  0  0  0  0  0
  128.6380  126.1630   69.2190 C   0  0  0  0  0  0  0  0  0  0  0  0
  129.0950  126.0380   67.9110 C   0  0  0  0  0  0  0  0  0  0  0  0
  130.4092  127.4191   63.6163 H   0  0  0  0  0  0  0  0  0  0  0  0
  129.7213  123.9514   61.9555 H   0  0  0  0  0  0  0  0  0  0  0  0
  131.5381  125.9655   60.7052 H   0  0  0  0  0  0  0  0  0  0  0  0
  132.2422  124.6111   61.6431 H   0  0  0  0  0  0  0  0  0  0  0  0
  130.1536  125.7045   59.1623 H   0  0  0  0  0  0  0  0  0  0  0  0
  131.2540  124.7822   58.0784 H   0  0  0  0  0  0  0  0  0  0  0  0
  129.0626  122.8466   60.2704 H   0  0  0  0  0  0  0  0  0  0  0  0
  127.1244  121.4981   59.4602 H   0  0  0  0  0  0  0  0  0  0  0  0
  126.3074  121.7827   57.1247 H   0  0  0  0  0  0  0  0  0  0  0  0
  127.4076  123.4083   55.5914 H   0  0  0  0  0  0  0  0  0  0  0  0
  129.3437  124.7598   56.4006 H   0  0  0  0  0  0  0  0  0  0  0  0
  129.4428  126.7669   61.0084 H   0  0  0  0  0  0  0  0  0  0  0  0
  126.6109  126.9400   61.3126 H   0  0  0  0  0  0  0  0  0  0  0  0
  127.4015  126.9292   59.6960 H   0  0  0  0  0  0  0  0  0  0  0  0
  125.4282  124.4261   61.7404 H   0  0  0  0  0  0  0  0  0  0  0  0
  123.5008  123.1510   60.8045 H   0  0  0  0  0  0  0  0  0  0  0  0
  122.7777  123.5448   58.4536 H   0  0  0  0  0  0  0  0  0  0  0  0
  123.9716  125.2011   57.0281 H   0  0  0  0  0  0  0  0  0  0  0  0
  125.9051  126.4733   57.9582 H   0  0  0  0  0  0  0  0  0  0  0  0
  127.7581  125.8097   63.4920 H   0  0  0  0  0  0  0  0  0  0  0  0
  128.2672  127.9144   64.9237 H   0  0  0  0  0  0  0  0  0  0  0  0
  128.5203  129.3856   63.9185 H   0  0  0  0  0  0  0  0  0  0  0  0
  126.6361  128.5538   66.5198 H   0  0  0  0  0  0  0  0  0  0  0  0
  124.3197  129.3292   67.0304 H   0  0  0  0  0  0  0  0  0  0  0  0
  122.8661  130.1796   65.1961 H   0  0  0  0  0  0  0  0  0  0  0  0
  123.7075  130.2647   62.8544 H   0  0  0  0  0  0  0  0  0  0  0  0
  126.0232  129.4900   62.3390 H   0  0  0  0  0  0  0  0  0  0  0  0
  131.4825  128.4761   67.9357 H   0  0  0  0  0  0  0  0  0  0  0  0
  130.6640  128.6965   70.2692 H   0  0  0  0  0  0  0  0  0  0  0  0
  127.8330  125.5056   69.5793 H   0  0  0  0  0  0  0  0  0  0  0  0
  128.6491  125.2822   67.2477 H   0  0  0  0  0  0  0  0  0  0  0  0
  1  2  2  0
  2  3  1  0
  3  4  1  0
  4  5  1  0
  5  6  1  0
  6  7  1  0
  7  8  1  0
  8  9  1  0
  9 10  1  0
 10 11  2  0
 11 12  1  0
 12 13  2  0
 13 14  1  0
 14 15  2  0
  6 16  1  0
 16 17  1  0
 17 18  1  0
 18 19  1  0
 19 20  2  0
 20 21  1  0
 21 22  2  0
 22 23  1  0
 23 24  2  0
 16 25  1  0
 25 26  1  0
 26 27  1  0
 27 28  1  0
 28 29  2  0
 29 30  1  0
 30 31  2  0
 31 32  1  0
 32 33  2  0
  2 34  1  0
 34 35  2  0
 35 36  1  0
 36 37  2  0
 37 38  1  0
 38 39  2  0
 38 40  1  0
 37 41  1  0
 41 42  2  0
 25  4  1  0
 33 28  1  0
 42 34  1  0
 15 10  1  0
 24 19  1  0
  4 43  1  1
  6 44  1  1
  7 45  1  0
  7 46  1  0
  9 47  1  0
  9 48  1  0
 11 49  1  0
 12 50  1  0
 13 51  1  0
 14 52  1  0
 15 53  1  0
 16 54  1  6
 18 55  1  0
 18 56  1  0
 20 57  1  0
 21 58  1  0
 22 59  1  0
 23 60  1  0
 24 61  1  0
 25 62  1  1
 27 63  1  0
 27 64  1  0
 29 65  1  0
 30 66  1  0
 31 67  1  0
 32 68  1  0
 33 69  1  0
 35 70  1  0
 36 71  1  0
 41 72  1  0
 42 73  1  0
M  CHG  2  38   1  40  -1
M  END
>  <Binding energies>  (1) 
[-9.35]

>  <Ligand effiencies>  (1) 
[-0.2226190476190476]

>  <Interactions>  (1) 
["V-B:TYR:539:CE2:9845, V-A:HIS:456:CE1:4066, V-B:TYR:539:CZ:9846, V-B:ASN:362:CB:8144, V-B:PRO:540:CA:9852, V-B:TYR:539:CE1:9844, V-B:TYR:539:C:9836, V-B:ASN:362:C:8140, V-B:PRO:540:N:9853, V-B:PRO:540:CB:9854, V-A:ASP:366:CG:3209, V-B:HIS:456:CD2:9036, V-A:GLU:543:CB:4903, H-A:LYS:547:NZ:4948, V-B:GLU:543:CB:9875, V-B:GLU:543:CD:9877, V-A:GLU:543:C:4899, V-B:HIS:456:CE1:9038, V-A:GLU:543:CD:4905, H-A:ARG:545:NH2:4925, V-B:LEU:363:CA:8153, V-B:ARG:545:CZ:9895, V-B:ARG:545:CG:9891, V-B:ARG:545:CD:9892, H-B:TYR:539:OH:9847, V-B:MET:535:CE:9804, V-B:GLU:543:C:9871, H-A:ARG:545:NE:4921, V-B:LEU:363:CD1:8157, V-B:LEU:363:CB:8155, V-B:ASP:366:CG:8181, V-B:ASP:366:CB:8180, V-B:GLY:454:CA:9017, V-B:GLY:453:C:9010, V-B:GLY:453:CA:9012"]

$$$$
RR8_B_Rahimova_2017
     RDKit          3D

 73 77  0  0  0  0  0  0  0  0999 V2000
  130.6540  127.9400   62.3830 O   0  0  0  0  0  0  0  0  0  0  0  0
  129.5800  127.3350   62.4690 C   0  0  0  0  0  0  0  0  0  0  0  0
  129.3680  126.0690   61.9990 O   0  0  0  0  0  0  0  0  0  0  0  0
  128.7450  125.1400   62.8530 C   0  0  2  0  0  0  0  0  0  0  0  0
  129.3320  125.1240   64.1240 O   0  0  0  0  0  0  0  0  0  0  0  0
  130.3750  124.1550   64.2050 C   0  0  2  0  0  0  0  0  0  0  0  0
  131.6920  124.8490   64.5980 C   0  0  0  0  0  0  0  0  0  0  0  0
  131.5550  125.4080   65.8990 O   0  0  0  0  0  0  0  0  0  0  0  0
  130.9850  126.7080   65.9340 C   0  0  0  0  0  0  0  0  0  0  0  0
  130.1450  126.8520   67.1940 C   0  0  0  0  0  0  0  0  0  0  0  0
  130.5500  127.7350   68.2000 C   0  0  0  0  0  0  0  0  0  0  0  0
  129.7990  127.8540   69.3670 C   0  0  0  0  0  0  0  0  0  0  0  0
  128.6430  127.0910   69.5230 C   0  0  0  0  0  0  0  0  0  0  0  0
  128.2300  126.2140   68.5220 C   0  0  0  0  0  0  0  0  0  0  0  0
  128.9830  126.0930   67.3560 C   0  0  0  0  0  0  0  0  0  0  0  0
  130.3720  123.4770   62.8300 C   0  0  1  0  0  0  0  0  0  0  0  0
  130.6870  122.0890   62.9720 O   0  0  0  0  0  0  0  0  0  0  0  0
  131.3140  121.4470   61.8590 C   0  0  0  0  0  0  0  0  0  0  0  0
  132.5500  122.2020   61.3780 C   0  0  0  0  0  0  0  0  0  0  0  0
  133.8090  121.8880   61.8970 C   0  0  0  0  0  0  0  0  0  0  0  0
  134.9390  122.5570   61.4320 C   0  0  0  0  0  0  0  0  0  0  0  0
  134.8040  123.5400   60.4540 C   0  0  0  0  0  0  0  0  0  0  0  0
  133.5520  123.8610   59.9350 C   0  0  0  0  0  0  0  0  0  0  0  0
  132.4220  123.1900   60.3970 C   0  0  0  0  0  0  0  0  0  0  0  0
  128.9600  123.7270   62.3120 C   0  0  2  0  0  0  0  0  0  0  0  0
  128.9310  123.6450   60.8890 O   0  0  0  0  0  0  0  0  0  0  0  0
  128.1640  122.5800   60.3510 C   0  0  0  0  0  0  0  0  0  0  0  0
  126.8480  123.1490   59.8470 C   0  0  0  0  0  0  0  0  0  0  0  0
  125.8530  123.5310   60.7510 C   0  0  0  0  0  0  0  0  0  0  0  0
  124.6430  124.0330   60.2770 C   0  0  0  0  0  0  0  0  0  0  0  0
  124.4330  124.1500   58.9050 C   0  0  0  0  0  0  0  0  0  0  0  0
  125.4220  123.7720   57.9990 C   0  0  0  0  0  0  0  0  0  0  0  0
  126.6320  123.2710   58.4710 C   0  0  0  0  0  0  0  0  0  0  0  0
  128.3450  127.9360   63.0750 C   0  0  0  0  0  0  0  0  0  0  0  0
  127.2220  128.2600   62.2990 C   0  0  0  0  0  0  0  0  0  0  0  0
  126.0960  128.8240   62.8860 C   0  0  0  0  0  0  0  0  0  0  0  0
  126.0640  129.0880   64.2610 C   0  0  0  0  0  0  0  0  0  0  0  0
  124.8710  129.7150   64.8810 N   0  0  0  0  0  0  0  0  0  0  0  0
  124.6660  129.5330   66.0780 O   0  0  0  0  0  0  0  0  0  0  0  0
  124.1310  130.3980   64.1760 O   0  0  0  0  0  0  0  0  0  0  0  0
  127.1830  128.7600   65.0370 C   0  0  0  0  0  0  0  0  0  0  0  0
  128.3090  128.1890   64.4520 C   0  0  0  0  0  0  0  0  0  0  0  0
  127.6858  125.4315   62.9090 H   0  0  0  0  0  0  0  0  0  0  0  0
  130.2392  123.3889   64.9826 H   0  0  0  0  0  0  0  0  0  0  0  0
  132.5100  124.1135   64.5976 H   0  0  0  0  0  0  0  0  0  0  0  0
  131.9203  125.6460   63.8750 H   0  0  0  0  0  0  0  0  0  0  0  0
  131.7866  127.4612   65.9382 H   0  0  0  0  0  0  0  0  0  0  0  0
  130.3507  126.8574   65.0478 H   0  0  0  0  0  0  0  0  0  0  0  0
  131.4621  128.3359   68.0696 H   0  0  0  0  0  0  0  0  0  0  0  0
  130.1163  128.5461   70.1609 H   0  0  0  0  0  0  0  0  0  0  0  0
  128.0508  127.1821   70.4455 H   0  0  0  0  0  0  0  0  0  0  0  0
  127.3134  125.6198   68.6518 H   0  0  0  0  0  0  0  0  0  0  0  0
  128.6630  125.4005   66.5635 H   0  0  0  0  0  0  0  0  0  0  0  0
  131.1244  123.8663   62.1283 H   0  0  0  0  0  0  0  0  0  0  0  0
  131.6135  120.4318   62.1585 H   0  0  0  0  0  0  0  0  0  0  0  0
  130.5898  121.4235   61.0313 H   0  0  0  0  0  0  0  0  0  0  0  0
  133.9076  121.1135   62.6718 H   0  0  0  0  0  0  0  0  0  0  0  0
  135.9325  122.3105   61.8348 H   0  0  0  0  0  0  0  0  0  0  0  0
  135.6963  124.0686   60.0875 H   0  0  0  0  0  0  0  0  0  0  0  0
  133.4560  124.6401   59.1645 H   0  0  0  0  0  0  0  0  0  0  0  0
  131.4302  123.4372   59.9905 H   0  0  0  0  0  0  0  0  0  0  0  0
  128.1827  123.0127   62.6212 H   0  0  0  0  0  0  0  0  0  0  0  0
  128.7099  122.1114   59.5189 H   0  0  0  0  0  0  0  0  0  0  0  0
  127.9777  121.8186   61.1228 H   0  0  0  0  0  0  0  0  0  0  0  0
  126.0247  123.4356   61.8333 H   0  0  0  0  0  0  0  0  0  0  0  0
  123.8563  124.3359   60.9837 H   0  0  0  0  0  0  0  0  0  0  0  0
  123.4762  124.5450   58.5327 H   0  0  0  0  0  0  0  0  0  0  0  0
  125.2476  123.8689   56.9172 H   0  0  0  0  0  0  0  0  0  0  0  0
  127.4177  122.9713   57.7619 H   0  0  0  0  0  0  0  0  0  0  0  0
  127.2330  128.0658   61.2163 H   0  0  0  0  0  0  0  0  0  0  0  0
  125.2211  129.0655   62.2646 H   0  0  0  0  0  0  0  0  0  0  0  0
  127.1715  128.9557   66.1194 H   0  0  0  0  0  0  0  0  0  0  0  0
  129.1781  127.9342   65.0763 H   0  0  0  0  0  0  0  0  0  0  0  0
  1  2  2  0
  2  3  1  0
  3  4  1  0
  4  5  1  0
  5  6  1  0
  6  7  1  0
  7  8  1  0
  8  9  1  0
  9 10  1  0
 10 11  2  0
 11 12  1  0
 12 13  2  0
 13 14  1  0
 14 15  2  0
  6 16  1  0
 16 17  1  0
 17 18  1  0
 18 19  1  0
 19 20  2  0
 20 21  1  0
 21 22  2  0
 22 23  1  0
 23 24  2  0
 16 25  1  0
 25 26  1  0
 26 27  1  0
 27 28  1  0
 28 29  2  0
 29 30  1  0
 30 31  2  0
 31 32  1  0
 32 33  2  0
  2 34  1  0
 34 35  2  0
 35 36  1  0
 36 37  2  0
 37 38  1  0
 38 39  2  0
 38 40  1  0
 37 41  1  0
 41 42  2  0
 25  4  1  0
 33 28  1  0
 42 34  1  0
 15 10  1  0
 24 19  1  0
  4 43  1  1
  6 44  1  1
  7 45  1  0
  7 46  1  0
  9 47  1  0
  9 48  1  0
 11 49  1  0
 12 50  1  0
 13 51  1  0
 14 52  1  0
 15 53  1  0
 16 54  1  6
 18 55  1  0
 18 56  1  0
 20 57  1  0
 21 58  1  0
 22 59  1  0
 23 60  1  0
 24 61  1  0
 25 62  1  1
 27 63  1  0
 27 64  1  0
 29 65  1  0
 30 66  1  0
 31 67  1  0
 32 68  1  0
 33 69  1  0
 35 70  1  0
 36 71  1  0
 41 72  1  0
 42 73  1  0
M  CHG  2  38   1  40  -1
M  END
>  <Binding energies>  (1) 
[-9.48]

>  <Ligand effiencies>  (1) 
[-0.22571428571428573]

>  <Interactions>  (1) 
["V-B:TYR:539:CE2:9845, V-A:HIS:456:CE1:4066, V-B:TYR:539:CZ:9846, V-A:GLY:453:C:4038, V-B:PRO:540:CA:9852, V-A:GLY:453:CA:4040, V-B:ALA:541:CB:9861, H-A:TYR:484:OH:4344, V-A:GLY:454:CA:4045, V-B:PRO:540:CB:9854, V-A:ASP:366:CG:3209, V-B:HIS:456:CD2:9036, V-A:GLU:543:CB:4903, V-B:GLU:543:CB:9875, V-B:GLU:543:CD:9877, V-B:HIS:456:CE1:9038, V-B:GLU:543:CG:9876, V-A:GLU:543:CD:4905, H-A:ARG:545:NH2:4925, V-A:ILE:369:CB:3232, V-A:LEU:475:CD1:4254, V-A:ILE:369:CG2:3233, V-A:ILE:369:CG1:3234, H-B:GLY:454:N:9018, V-B:ARG:545:CZ:9895, H-B:TYR:484:OH:9316, V-A:ASP:366:CB:3208, V-B:GLU:543:C:9871, V-B:LEU:363:CD1:8157, V-A:ASP:366:CA:3206, H-B:ARG:545:NE:9893, H-B:HIS:456:ND1:9035"]

$$$$
RR9_Rahimova_2017
     RDKit          3D

 64 68  0  0  0  0  0  0  0  0999 V2000
  129.7980  126.4740   72.3960 C   0  0  0  0  0  0  0  0  0  0  0  0
  129.0980  127.6630   71.7310 C   0  0  0  0  0  0  0  0  0  0  0  0
  129.9430  128.1770   70.7060 O   0  0  0  0  0  0  0  0  0  0  0  0
  129.9120  127.6020   69.4500 C   0  0  0  0  0  0  0  0  0  0  0  0
  129.0100  126.5560   69.2650 C   0  0  0  0  0  0  0  0  0  0  0  0
  128.9100  125.9150   68.0350 C   0  0  0  0  0  0  0  0  0  0  0  0
  129.7130  126.3030   66.9510 C   0  0  0  0  0  0  0  0  0  0  0  0
  129.6140  125.6120   65.6240 C   0  0  0  0  0  0  0  0  0  0  0  0
  129.2390  126.3030   64.4610 C   0  0  0  0  0  0  0  0  0  0  0  0
  129.1600  125.6530   63.2160 C   0  0  0  0  0  0  0  0  0  0  0  0
  128.8520  126.4690   61.9900 C   0  0  0  0  0  0  0  0  0  0  0  0
  129.7600  127.0040   61.3540 O   0  0  0  0  0  0  0  0  0  0  0  0
  127.5460  126.5820   61.6740 N   0  0  0  0  0  0  0  0  0  0  0  0
  126.9890  127.4250   60.6110 C   0  0  0  0  0  0  0  0  0  0  0  0
  126.8250  126.6760   59.2680 C   0  0  0  0  0  0  0  0  0  0  0  0
  125.6980  125.6500   59.2440 C   0  0  0  0  0  0  0  0  0  0  0  0
  125.2990  125.0180   60.4260 C   0  0  0  0  0  0  0  0  0  0  0  0
  124.2460  124.1070   60.4060 C   0  0  0  0  0  0  0  0  0  0  0  0
  123.6000  123.8260   59.2050 C   0  0  0  0  0  0  0  0  0  0  0  0
  123.9950  124.4480   58.0220 C   0  0  0  0  0  0  0  0  0  0  0  0
  125.0470  125.3610   58.0420 C   0  0  0  0  0  0  0  0  0  0  0  0
  129.4450  124.2650   63.2130 C   0  0  0  0  0  0  0  0  0  0  0  0
  129.4760  123.1640   62.2800 C   0  0  0  0  0  0  0  0  0  0  0  0
  129.0950  123.1330   60.8370 C   0  0  0  0  0  0  0  0  0  0  0  0
  129.8250  123.8700   59.9000 C   0  0  0  0  0  0  0  0  0  0  0  0
  129.4580  123.8520   58.5560 C   0  0  0  0  0  0  0  0  0  0  0  0
  128.3620  123.0930   58.1450 C   0  0  0  0  0  0  0  0  0  0  0  0
  127.9500  123.0880   56.6830 C   0  0  0  0  0  0  0  0  0  0  0  0
  127.6290  122.3570   59.0770 C   0  0  0  0  0  0  0  0  0  0  0  0
  127.9990  122.3740   60.4190 C   0  0  0  0  0  0  0  0  0  0  0  0
  129.8900  122.0670   62.8740 N   0  0  0  0  0  0  0  0  0  0  0  0
  130.0860  122.3490   64.1720 N   0  0  0  0  0  0  0  0  0  0  0  0
  129.8190  123.6710   64.4420 C   0  0  0  0  0  0  0  0  0  0  0  0
  129.9070  124.2810   65.6230 N   0  0  0  0  0  0  0  0  0  0  0  0
  130.6200  127.3540   67.1460 C   0  0  0  0  0  0  0  0  0  0  0  0
  130.7200  127.9990   68.3770 C   0  0  0  0  0  0  0  0  0  0  0  0
  129.7371  126.5774   73.4894 H   0  0  0  0  0  0  0  0  0  0  0  0
  129.3058  125.5397   72.0881 H   0  0  0  0  0  0  0  0  0  0  0  0
  130.8538  126.4510   72.0881 H   0  0  0  0  0  0  0  0  0  0  0  0
  128.1442  127.3332   71.2934 H   0  0  0  0  0  0  0  0  0  0  0  0
  128.8977  128.4451   72.4782 H   0  0  0  0  0  0  0  0  0  0  0  0
  128.3707  126.2342   70.1003 H   0  0  0  0  0  0  0  0  0  0  0  0
  128.1911  125.0919   67.9097 H   0  0  0  0  0  0  0  0  0  0  0  0
  129.0020  127.3753   64.5246 H   0  0  0  0  0  0  0  0  0  0  0  0
  126.8800  126.0380   62.2030 H   0  0  0  0  0  0  0  0  0  0  0  0
  126.0016  127.7878   60.9327 H   0  0  0  0  0  0  0  0  0  0  0  0
  127.6956  128.2510   60.4424 H   0  0  0  0  0  0  0  0  0  0  0  0
  126.6274  127.4203   58.4825 H   0  0  0  0  0  0  0  0  0  0  0  0
  127.7583  126.1159   59.1088 H   0  0  0  0  0  0  0  0  0  0  0  0
  125.8166  125.2404   61.3708 H   0  0  0  0  0  0  0  0  0  0  0  0
  123.9261  123.6117   61.3346 H   0  0  0  0  0  0  0  0  0  0  0  0
  122.7690  123.1054   59.1897 H   0  0  0  0  0  0  0  0  0  0  0  0
  123.4790  124.2193   57.0778 H   0  0  0  0  0  0  0  0  0  0  0  0
  125.3651  125.8543   57.1117 H   0  0  0  0  0  0  0  0  0  0  0  0
  130.6911  124.4655   60.2244 H   0  0  0  0  0  0  0  0  0  0  0  0
  130.0314  124.4352   57.8204 H   0  0  0  0  0  0  0  0  0  0  0  0
  126.8524  123.0747   56.6114 H   0  0  0  0  0  0  0  0  0  0  0  0
  128.3387  123.9909   56.1894 H   0  0  0  0  0  0  0  0  0  0  0  0
  128.3605  122.1948   56.1894 H   0  0  0  0  0  0  0  0  0  0  0  0
  126.7609  121.7648   58.7520 H   0  0  0  0  0  0  0  0  0  0  0  0
  127.4264  121.7878   61.1528 H   0  0  0  0  0  0  0  0  0  0  0  0
  130.3950  121.6330   64.8140 H   0  0  0  0  0  0  0  0  0  0  0  0
  131.2634  127.6748   66.3134 H   0  0  0  0  0  0  0  0  0  0  0  0
  131.4365  128.8235   68.5067 H   0  0  0  0  0  0  0  0  0  0  0  0
  1  2  1  0
  2  3  1  0
  3  4  1  0
  4  5  2  0
  5  6  1  0
  6  7  2  0
  7  8  1  0
  8  9  2  0
  9 10  1  0
 10 11  1  0
 11 12  2  0
 11 13  1  0
 13 14  1  0
 14 15  1  0
 15 16  1  0
 16 17  2  0
 17 18  1  0
 18 19  2  0
 19 20  1  0
 20 21  2  0
 10 22  2  0
 22 23  1  0
 23 24  1  0
 24 25  2  0
 25 26  1  0
 26 27  2  0
 27 28  1  0
 27 29  1  0
 29 30  2  0
 23 31  2  0
 31 32  1  0
 32 33  1  0
 33 34  2  0
  7 35  1  0
 35 36  2  0
 36  4  1  0
 34  8  1  0
 21 16  1  0
 33 22  1  0
 30 24  1  0
  1 37  1  0
  1 38  1  0
  1 39  1  0
  2 40  1  0
  2 41  1  0
  5 42  1  0
  6 43  1  0
  9 44  1  0
 13 45  1  0
 14 46  1  0
 14 47  1  0
 15 48  1  0
 15 49  1  0
 17 50  1  0
 18 51  1  0
 19 52  1  0
 20 53  1  0
 21 54  1  0
 25 55  1  0
 26 56  1  0
 28 57  1  0
 28 58  1  0
 28 59  1  0
 29 60  1  0
 30 61  1  0
 32 62  1  0
 35 63  1  0
 36 64  1  0
M  END
>  <Binding energies>  (1) 
[-8.87]

>  <Ligand effiencies>  (1) 
[-0.23342105263157892]

>  <Interactions>  (1) 
["V-B:TYR:539:CE2:9845, V-A:HIS:456:CE1:4066, V-B:TYR:539:CD1:9842, V-B:TYR:539:CZ:9846, V-B:ASN:362:CB:8144, V-B:PRO:540:CA:9852, V-B:TYR:539:CE1:9844, V-B:ALA:541:CB:9861, V-B:TYR:539:C:9836, V-B:ASN:362:C:8140, H-A:TYR:484:OH:4344, V-B:PRO:540:N:9853, V-B:PRO:540:CB:9854, H-B:GLU:543:OE2:9879, V-A:TYR:484:CE1:4341, V-B:HIS:456:CD2:9036, V-A:GLU:543:CB:4903, V-B:GLU:543:CB:9875, V-B:GLU:543:CD:9877, V-A:GLU:543:C:4899, V-B:GLU:543:CG:9876, V-A:GLU:543:CD:4905, V-B:LEU:363:CA:8153, V-A:LEU:475:CD1:4254, V-A:LEU:475:CD2:4255, V-A:HIS:456:CD2:4064, H-B:GLU:543:OE1:9878, V-B:LEU:363:CD1:8157, V-B:LEU:363:CB:8155"]

$$$$
