1a_Grossjean_2025
     RDKit          3D

 26 27  0  0  0  0  0  0  0  0999 V2000
  124.6760  127.6290   73.9190 C   0  0  0  0  0  0  0  0  0  0  0  0
  126.1450  128.0640   73.9110 C   0  0  0  0  0  0  0  0  0  0  0  0
  126.7990  127.5020   72.7800 O   0  0  0  0  0  0  0  0  0  0  0  0
  128.1450  127.6040   72.6270 C   0  0  0  0  0  0  0  0  0  0  0  0
  128.9120  127.9070   73.5460 O   0  0  0  0  0  0  0  0  0  0  0  0
  128.6060  127.3280   71.2250 C   0  0  0  0  0  0  0  0  0  0  0  0
  129.8100  127.8890   70.7780 C   0  0  0  0  0  0  0  0  0  0  0  0
  130.2610  127.6550   69.4830 C   0  0  0  0  0  0  0  0  0  0  0  0
  129.5210  126.8600   68.6070 C   0  0  0  0  0  0  0  0  0  0  0  0
  130.0700  126.6930   67.3210 N   0  0  0  0  0  0  0  0  0  0  0  0
  130.1050  125.6030   66.5260 C   0  0  0  0  0  0  0  0  0  0  0  0
  129.6320  124.5000   66.8040 O   0  0  0  0  0  0  0  0  0  0  0  0
  130.7980  125.7970   65.1760 C   0  0  0  0  0  0  0  0  0  0  0  0
  132.4630  125.0670   65.1500 S   0  0  0  0  0  0  0  0  0  0  0  0
  132.5690  124.0300   63.7080 C   0  0  0  0  0  0  0  0  0  0  0  0
  133.6910  124.2300   62.9710 N   0  0  0  0  0  0  0  0  0  0  0  0
  133.8700  123.4960   61.8480 C   0  0  0  0  0  0  0  0  0  0  0  0
  135.1410  123.7840   61.0690 C   0  0  0  0  0  0  0  0  0  0  0  0
  132.9550  122.5360   61.4220 C   0  0  0  0  0  0  0  0  0  0  0  0
  131.8060  122.3080   62.1860 C   0  0  0  0  0  0  0  0  0  0  0  0
  130.8240  121.2390   61.7080 C   0  0  0  0  0  0  0  0  0  0  0  0
  131.5980  123.0600   63.3650 C   0  0  0  0  0  0  0  0  0  0  0  0
  130.4260  122.8030   64.2070 C   0  0  0  0  0  0  0  0  0  0  0  0
  129.5000  122.5990   64.8690 N   0  0  0  0  0  0  0  0  0  0  0  0
  128.3180  126.2880   69.0490 C   0  0  0  0  0  0  0  0  0  0  0  0
  127.8670  126.5230   70.3450 C   0  0  0  0  0  0  0  0  0  0  0  0
  1  2  1  0
  2  3  1  0
  3  4  1  0
  4  5  2  0
  4  6  1  0
  6  7  2  0
  7  8  1  0
  8  9  2  0
  9 10  1  0
 10 11  1  0
 11 12  2  0
 11 13  1  0
 13 14  1  0
 14 15  1  0
 15 16  2  0
 16 17  1  0
 17 18  1  0
 17 19  2  0
 19 20  1  0
 20 21  1  0
 20 22  2  0
 22 23  1  0
 23 24  3  0
  9 25  1  0
 25 26  2  0
 26  6  1  0
 22 15  1  0
M  END
>  <Binding energies>  (1) 
[-8.04]

>  <Ligand effiencies>  (1) 
[-0.29777777777777775]

>  <Interactions>  (1) 
["V-B:TYR:539:CE2:9845, V-A:HIS:456:CE1:4066, V-A:GLY:453:C:4038, V-A:GLY:453:CA:4040, V-B:ALA:541:CB:9861, H-A:GLY:454:N:4046, H-A:TYR:484:OH:4344, V-A:GLY:454:CA:4045, V-B:TYR:539:CD2:9843, V-A:ASP:366:CG:3209, V-A:TYR:484:CE1:4341, V-B:HIS:456:CD2:9036, V-B:LYS:547:CD:9918, H-A:LYS:547:NZ:4948, V-B:GLY:544:C:9881, V-B:LYS:547:CE:9919, V-B:GLU:543:CB:9875, V-B:HIS:456:CB:9033, V-B:HIS:456:CE1:9038, V-A:LEU:475:CD1:4254, V-A:ILE:369:CG1:3234, H-A:GLU:543:OE1:4906, V-B:GLU:543:C:9871, V-B:HIS:456:C:9029, V-B:HIS:456:CG:9034, V-A:ASP:366:CA:3206, V-B:HIS:456:CA:9031"]

$$$$
1aa_Ghoteimi_2023
     RDKit          3D

 40 43  0  0  0  0  0  0  0  0999 V2000
  124.3120  124.2190   58.1440 C   0  0  0  0  0  0  0  0  0  0  0  0
  124.9790  123.4890   56.9750 C   0  0  0  0  0  0  0  0  0  0  0  0
  126.3890  123.6640   57.0510 O   0  0  0  0  0  0  0  0  0  0  0  0
  127.1930  122.6740   57.5170 C   0  0  0  0  0  0  0  0  0  0  0  0
  127.4090  121.6260   56.9010 O   0  0  0  0  0  0  0  0  0  0  0  0
  127.7960  122.9800   58.8580 C   0  0  0  0  0  0  0  0  0  0  0  0
  128.6370  122.0710   59.5190 C   0  0  0  0  0  0  0  0  0  0  0  0
  129.1820  122.3820   60.7620 C   0  0  0  0  0  0  0  0  0  0  0  0
  128.8970  123.6150   61.3670 C   0  0  0  0  0  0  0  0  0  0  0  0
  129.3890  124.0370   62.6160 N   0  0  0  0  0  0  0  0  0  0  0  0
  129.9130  123.3220   63.6390 C   0  0  0  0  0  0  0  0  0  0  0  0
  130.0610  122.1000   63.6400 O   0  0  0  0  0  0  0  0  0  0  0  0
  130.3560  124.1010   64.8870 C   0  0  0  0  0  0  0  0  0  0  0  0
  130.4160  125.5060   64.6080 O   0  0  0  0  0  0  0  0  0  0  0  0
  129.6410  126.3990   65.3330 C   0  0  0  0  0  0  0  0  0  0  0  0
  129.7990  126.4340   66.6850 N   0  0  0  0  0  0  0  0  0  0  0  0
  129.0470  127.2850   67.4320 C   0  0  0  0  0  0  0  0  0  0  0  0
  129.2830  127.2640   68.9150 C   0  0  0  0  0  0  0  0  0  0  0  0
  128.4220  126.5650   69.7730 C   0  0  0  0  0  0  0  0  0  0  0  0
  128.6370  126.5450   71.1480 C   0  0  0  0  0  0  0  0  0  0  0  0
  129.7190  127.2210   71.7080 C   0  0  0  0  0  0  0  0  0  0  0  0
  129.8530  127.1460   73.0810 O   0  0  0  0  0  0  0  0  0  0  0  0
  128.6990  127.2980   73.9000 C   0  0  0  0  0  0  0  0  0  0  0  0
  130.5920  127.9190   70.8630 C   0  0  0  0  0  0  0  0  0  0  0  0
  130.3750  127.9370   69.4880 C   0  0  0  0  0  0  0  0  0  0  0  0
  128.1240  128.1440   66.8230 C   0  0  0  0  0  0  0  0  0  0  0  0
  127.9500  128.1360   65.4320 C   0  0  0  0  0  0  0  0  0  0  0  0
  126.9580  129.0830   64.8420 C   0  0  0  0  0  0  0  0  0  0  0  0
  125.6270  129.0660   65.2730 C   0  0  0  0  0  0  0  0  0  0  0  0
  124.6980  129.9520   64.7350 C   0  0  0  0  0  0  0  0  0  0  0  0
  125.0790  130.8760   63.7630 C   0  0  0  0  0  0  0  0  0  0  0  0
  124.0900  131.7150   63.2870 O   0  0  0  0  0  0  0  0  0  0  0  0
  123.8800  131.8140   61.8830 C   0  0  0  0  0  0  0  0  0  0  0  0
  126.4140  130.9020   63.3330 C   0  0  0  0  0  0  0  0  0  0  0  0
  127.3420  130.0140   63.8720 C   0  0  0  0  0  0  0  0  0  0  0  0
  128.7240  127.2320   64.6680 C   0  0  0  0  0  0  0  0  0  0  0  0
  128.5800  127.1210   63.2160 C   0  0  0  0  0  0  0  0  0  0  0  0
  128.4680  127.0320   62.0680 N   0  0  0  0  0  0  0  0  0  0  0  0
  128.0600  124.5200   60.7130 C   0  0  0  0  0  0  0  0  0  0  0  0
  127.5150  124.2080   59.4710 C   0  0  0  0  0  0  0  0  0  0  0  0
  1  2  1  0
  2  3  1  0
  3  4  1  0
  4  5  2  0
  4  6  1  0
  6  7  2  0
  7  8  1  0
  8  9  2  0
  9 10  1  0
 10 11  1  0
 11 12  2  0
 11 13  1  0
 13 14  1  0
 14 15  1  0
 15 16  2  0
 16 17  1  0
 17 18  1  0
 18 19  2  0
 19 20  1  0
 20 21  2  0
 21 22  1  0
 22 23  1  0
 21 24  1  0
 24 25  2  0
 17 26  2  0
 26 27  1  0
 27 28  1  0
 28 29  2  0
 29 30  1  0
 30 31  2  0
 31 32  1  0
 32 33  1  0
 31 34  1  0
 34 35  2  0
 27 36  2  0
 36 37  1  0
 37 38  3  0
  9 39  1  0
 39 40  2  0
 40  6  1  0
 36 15  1  0
 25 18  1  0
 35 28  1  0
M  END
>  <Binding energies>  (2) 
[-9.91]

>  <Ligand effiencies>  (2) 
[-0.24170731707317072]

>  <Interactions>  (2) 
["V-B:TYR:539:CE2:9845, V-A:HIS:456:CE1:4066, V-B:TYR:539:CZ:9846, V-B:PRO:540:CA:9852, V-B:ALA:541:CB:9861, V-B:TYR:539:C:9836, V-B:PRO:540:N:9853, V-B:PRO:540:CB:9854, V-B:TYR:539:CD2:9843, H-B:GLU:543:OE2:9879, V-A:TYR:484:CE1:4341, V-A:LYS:547:CE:4947, H-A:LYS:547:NZ:4948, V-B:LYS:547:CE:9919, V-B:GLU:543:CD:9877, V-A:GLU:543:C:4899, V-B:HIS:456:CE1:9038, V-B:GLU:543:CG:9876, V-A:GLY:544:C:4909, V-A:GLU:543:CD:4905, H-B:GLY:454:N:9018, V-B:ARG:545:CZ:9895, H-B:TYR:539:N:9839, V-A:HIS:456:CD2:4064, V-B:LEU:363:CD1:8157, V-B:ASP:366:CG:8181, V-B:ILE:369:CD1:8207"]

$$$$
1b_Grossjean_2025
     RDKit          3D

 25 26  0  0  0  0  0  0  0  0999 V2000
  129.1180  129.7110   73.1360 C   0  0  0  0  0  0  0  0  0  0  0  0
  129.2590  128.3010   73.0230 O   0  0  0  0  0  0  0  0  0  0  0  0
  128.4240  127.5770   72.2350 C   0  0  0  0  0  0  0  0  0  0  0  0
  127.3280  127.1530   72.6140 O   0  0  0  0  0  0  0  0  0  0  0  0
  128.9620  127.3480   70.8510 C   0  0  0  0  0  0  0  0  0  0  0  0
  130.1390  127.9660   70.4010 C   0  0  0  0  0  0  0  0  0  0  0  0
  130.6100  127.7340   69.1120 C   0  0  0  0  0  0  0  0  0  0  0  0
  129.9210  126.8830   68.2490 C   0  0  0  0  0  0  0  0  0  0  0  0
  130.4880  126.7240   66.9700 N   0  0  0  0  0  0  0  0  0  0  0  0
  130.3010  125.7520   66.0500 C   0  0  0  0  0  0  0  0  0  0  0  0
  129.5540  124.7830   66.1750 O   0  0  0  0  0  0  0  0  0  0  0  0
  131.0970  125.9160   64.7540 C   0  0  0  0  0  0  0  0  0  0  0  0
  132.7320  125.1270   64.8490 S   0  0  0  0  0  0  0  0  0  0  0  0
  132.8860  124.0520   63.4380 C   0  0  0  0  0  0  0  0  0  0  0  0
  133.9830  124.2990   62.6800 N   0  0  0  0  0  0  0  0  0  0  0  0
  134.1990  123.5390   61.5820 C   0  0  0  0  0  0  0  0  0  0  0  0
  135.4540  123.8620   60.7910 C   0  0  0  0  0  0  0  0  0  0  0  0
  133.3340  122.5190   61.1920 C   0  0  0  0  0  0  0  0  0  0  0  0
  132.1880  122.2710   61.9540 C   0  0  0  0  0  0  0  0  0  0  0  0
  131.2450  121.1590   61.4980 C   0  0  0  0  0  0  0  0  0  0  0  0
  131.9410  123.0530   63.1060 C   0  0  0  0  0  0  0  0  0  0  0  0
  130.7260  122.8410   63.8950 C   0  0  0  0  0  0  0  0  0  0  0  0
  129.7650  122.6720   64.5160 N   0  0  0  0  0  0  0  0  0  0  0  0
  128.7430  126.2610   68.6910 C   0  0  0  0  0  0  0  0  0  0  0  0
  128.2730  126.4940   69.9800 C   0  0  0  0  0  0  0  0  0  0  0  0
  1  2  1  0
  2  3  1  0
  3  4  2  0
  3  5  1  0
  5  6  2  0
  6  7  1  0
  7  8  2  0
  8  9  1  0
  9 10  1  0
 10 11  2  0
 10 12  1  0
 12 13  1  0
 13 14  1  0
 14 15  2  0
 15 16  1  0
 16 17  1  0
 16 18  2  0
 18 19  1  0
 19 20  1  0
 19 21  2  0
 21 22  1  0
 22 23  3  0
  8 24  1  0
 24 25  2  0
 25  5  1  0
 21 14  1  0
M  END
>  <Binding energies>  (3) 
[-7.64]

>  <Ligand effiencies>  (3) 
[-0.2938461538461538]

>  <Interactions>  (3) 
["V-B:TYR:539:CE2:9845, V-A:HIS:456:CE1:4066, V-A:GLY:453:C:4038, V-A:GLY:453:CA:4040, H-A:GLY:454:N:4046, H-A:TYR:484:OH:4344, V-A:GLY:454:CA:4045, V-B:TYR:539:CD2:9843, V-A:ASP:366:CG:3209, V-B:HIS:456:CD2:9036, V-A:GLU:543:CB:4903, V-A:LYS:547:CE:4947, H-A:LYS:547:NZ:4948, V-B:GLU:543:CB:9875, V-A:GLU:543:C:4899, V-B:HIS:456:CE1:9038, V-A:ILE:369:CB:3232, V-A:LEU:475:CD1:4254, V-A:ILE:369:CG1:3234, H-A:GLU:543:OE1:4906, V-A:ASP:366:CB:3208, V-A:ASP:366:CA:3206, V-A:CYS:365:C:3200"]

$$$$
1c_Grossjean_2025
     RDKit          3D

 23 24  0  0  0  0  0  0  0  0999 V2000
  127.7620  127.7360   73.0960 C   0  0  0  0  0  0  0  0  0  0  0  0
  129.1220  127.9570   72.7380 O   0  0  0  0  0  0  0  0  0  0  0  0
  129.5140  127.7600   71.4280 C   0  0  0  0  0  0  0  0  0  0  0  0
  128.6440  127.0280   70.6210 C   0  0  0  0  0  0  0  0  0  0  0  0
  128.9500  126.7770   69.2870 C   0  0  0  0  0  0  0  0  0  0  0  0
  130.1440  127.2680   68.7380 C   0  0  0  0  0  0  0  0  0  0  0  0
  130.5570  127.0650   67.4070 N   0  0  0  0  0  0  0  0  0  0  0  0
  130.3890  125.9860   66.6130 C   0  0  0  0  0  0  0  0  0  0  0  0
  129.8020  124.9520   66.9280 O   0  0  0  0  0  0  0  0  0  0  0  0
  130.9890  126.1050   65.2100 C   0  0  0  0  0  0  0  0  0  0  0  0
  132.6550  125.3860   65.1230 S   0  0  0  0  0  0  0  0  0  0  0  0
  132.7090  124.2560   63.7470 C   0  0  0  0  0  0  0  0  0  0  0  0
  133.7940  124.4270   62.9500 N   0  0  0  0  0  0  0  0  0  0  0  0
  133.9420  123.6240   61.8700 C   0  0  0  0  0  0  0  0  0  0  0  0
  135.1840  123.8680   61.0330 C   0  0  0  0  0  0  0  0  0  0  0  0
  133.0200  122.6350   61.5360 C   0  0  0  0  0  0  0  0  0  0  0  0
  131.8850  122.4670   62.3360 C   0  0  0  0  0  0  0  0  0  0  0  0
  130.8790  121.3870   61.9400 C   0  0  0  0  0  0  0  0  0  0  0  0
  131.7080  123.2950   63.4690 C   0  0  0  0  0  0  0  0  0  0  0  0
  130.4990  123.1700   64.2870 C   0  0  0  0  0  0  0  0  0  0  0  0
  129.5450  123.0700   64.9330 N   0  0  0  0  0  0  0  0  0  0  0  0
  131.0240  127.9920   69.5460 C   0  0  0  0  0  0  0  0  0  0  0  0
  130.7130  128.2400   70.8800 C   0  0  0  0  0  0  0  0  0  0  0  0
  1  2  1  0
  2  3  1  0
  3  4  2  0
  4  5  1  0
  5  6  2  0
  6  7  1  0
  7  8  1  0
  8  9  2  0
  8 10  1  0
 10 11  1  0
 11 12  1  0
 12 13  2  0
 13 14  1  0
 14 15  1  0
 14 16  2  0
 16 17  1  0
 17 18  1  0
 17 19  2  0
 19 20  1  0
 20 21  3  0
  6 22  1  0
 22 23  2  0
 23  3  1  0
 19 12  1  0
M  END
>  <Binding energies>  (4) 
[-7.22]

>  <Ligand effiencies>  (4) 
[-0.30083333333333334]

>  <Interactions>  (4) 
["V-B:TYR:539:CE2:9845, V-A:HIS:456:CE1:4066, V-A:GLY:453:C:4038, V-A:GLY:453:CA:4040, V-B:ALA:541:CB:9861, H-A:GLY:454:N:4046, H-A:TYR:484:OH:4344, V-A:GLY:454:CA:4045, V-A:ASP:366:CG:3209, V-A:TYR:484:CE1:4341, V-B:HIS:456:CD2:9036, V-A:GLU:543:CB:4903, H-A:LYS:547:NZ:4948, V-B:LYS:547:CE:9919, V-A:GLU:543:C:4899, V-B:HIS:456:CE1:9038, V-A:GLY:544:C:4909, V-A:LEU:475:CD1:4254, V-A:ILE:369:CG1:3234, H-A:GLU:543:OE1:4906, V-A:HIS:456:CD2:4064, H-A:ARG:545:NE:4921, V-A:ASP:366:CA:3206, V-A:GLY:544:CA:4911"]

$$$$
1d_Grossjean_2025
     RDKit          3D

 21 22  0  0  0  0  0  0  0  0999 V2000
  129.1400  125.7850   65.3630 C   0  0  0  0  0  0  0  0  0  0  0  0
  129.4470  126.3760   66.7250 C   0  0  0  0  0  0  0  0  0  0  0  0
  130.6200  127.0890   66.9650 C   0  0  0  0  0  0  0  0  0  0  0  0
  130.8450  127.6200   68.2390 C   0  0  0  0  0  0  0  0  0  0  0  0
  132.1310  128.4100   68.4730 C   0  0  0  0  0  0  0  0  0  0  0  0
  129.8830  127.4130   69.2540 C   0  0  0  0  0  0  0  0  0  0  0  0
  130.0750  128.0000   70.5820 C   0  0  0  0  0  0  0  0  0  0  0  0
  130.2300  128.4660   71.6300 N   0  0  0  0  0  0  0  0  0  0  0  0
  128.7330  126.6560   68.9290 C   0  0  0  0  0  0  0  0  0  0  0  0
  127.4250  126.2990   70.0800 S   0  0  0  0  0  0  0  0  0  0  0  0
  128.2010  125.7760   71.6390 C   0  0  0  0  0  0  0  0  0  0  0  0
  128.0120  126.8070   72.7520 C   0  0  0  0  0  0  0  0  0  0  0  0
  128.9710  127.1090   73.4620 O   0  0  0  0  0  0  0  0  0  0  0  0
  126.7710  127.3340   72.8470 N   0  0  0  0  0  0  0  0  0  0  0  0
  126.2600  128.2790   73.7550 C   0  0  0  0  0  0  0  0  0  0  0  0
  124.9490  128.0580   74.1860 C   0  0  0  0  0  0  0  0  0  0  0  0
  124.3490  128.9300   75.0890 C   0  0  0  0  0  0  0  0  0  0  0  0
  125.0630  130.0250   75.5700 C   0  0  0  0  0  0  0  0  0  0  0  0
  126.3740  130.2520   75.1570 C   0  0  0  0  0  0  0  0  0  0  0  0
  126.9760  129.3810   74.2520 C   0  0  0  0  0  0  0  0  0  0  0  0
  128.5140  126.1640   67.6830 N   0  0  0  0  0  0  0  0  0  0  0  0
  1  2  1  0
  2  3  2  0
  3  4  1  0
  4  5  1  0
  4  6  2  0
  6  7  1  0
  7  8  3  0
  6  9  1  0
  9 10  1  0
 10 11  1  0
 11 12  1  0
 12 13  2  0
 12 14  1  0
 14 15  1  0
 15 16  2  0
 16 17  1  0
 17 18  2  0
 18 19  1  0
 19 20  2  0
  9 21  2  0
 21  2  1  0
 20 15  1  0
M  END
>  <Binding energies>  (5) 
[-7.13]

>  <Ligand effiencies>  (5) 
[-0.3240909090909091]

>  <Interactions>  (5) 
["V-A:HIS:456:CE1:4066, V-A:ARG:545:CG:4919, V-B:HIS:456:CD2:9036, V-A:GLU:543:CB:4903, H-B:GLY:544:O:9882, V-B:VAL:458:CG2:9055, V-B:LYS:547:CD:9918, H-A:LYS:547:NZ:4948, V-B:GLY:544:C:9881, V-B:LYS:547:CE:9919, V-B:VAL:457:C:9041, V-B:GLU:543:CB:9875, V-B:GLU:543:CD:9877, V-B:HIS:456:CB:9033, V-A:GLU:543:C:4899, V-B:HIS:456:CE1:9038, V-B:GLU:543:CG:9876, V-A:GLY:544:C:4909, V-B:HIS:456:C:9029, V-B:GLY:544:CA:9883, V-B:LYS:471:CE:9188, V-B:HIS:456:CG:9034, V-A:GLU:543:CA:4901, V-A:ARG:545:CA:4916, V-B:HIS:456:CA:9031, V-B:VAL:457:CA:9043, V-A:ARG:545:CB:4918"]

$$$$
1e_Grossjean_2025
     RDKit          3D

 22 23  0  0  0  0  0  0  0  0999 V2000
  125.3070  123.1560   56.6210 C   0  0  0  0  0  0  0  0  0  0  0  0
  125.0730  123.5150   58.0770 C   0  0  0  0  0  0  0  0  0  0  0  0
  123.8090  123.8880   58.5440 C   0  0  0  0  0  0  0  0  0  0  0  0
  123.6700  124.2070   59.8950 C   0  0  0  0  0  0  0  0  0  0  0  0
  124.7820  124.1480   60.7370 C   0  0  0  0  0  0  0  0  0  0  0  0
  126.0180  123.7610   60.2050 C   0  0  0  0  0  0  0  0  0  0  0  0
  127.1030  123.7320   61.0990 N   0  0  0  0  0  0  0  0  0  0  0  0
  128.1710  122.9040   61.0980 C   0  0  0  0  0  0  0  0  0  0  0  0
  128.3630  121.9990   60.2840 O   0  0  0  0  0  0  0  0  0  0  0  0
  129.1820  123.1200   62.2260 C   0  0  0  0  0  0  0  0  0  0  0  0
  130.1980  124.6030   61.9540 S   0  0  0  0  0  0  0  0  0  0  0  0
  130.8770  125.1240   63.5170 C   0  0  0  0  0  0  0  0  0  0  0  0
  129.9760  125.7530   64.3140 N   0  0  0  0  0  0  0  0  0  0  0  0
  130.3760  126.1980   65.5280 C   0  0  0  0  0  0  0  0  0  0  0  0
  129.3130  126.8840   66.3640 C   0  0  0  0  0  0  0  0  0  0  0  0
  131.6810  126.0460   65.9900 C   0  0  0  0  0  0  0  0  0  0  0  0
  132.6250  125.4210   65.1690 C   0  0  0  0  0  0  0  0  0  0  0  0
  134.0540  125.2840   65.6920 C   0  0  0  0  0  0  0  0  0  0  0  0
  132.2300  124.9520   63.8950 C   0  0  0  0  0  0  0  0  0  0  0  0
  133.2190  124.3480   62.9990 C   0  0  0  0  0  0  0  0  0  0  0  0
  134.0030  123.8710   62.2930 N   0  0  0  0  0  0  0  0  0  0  0  0
  126.1630  123.4520   58.8830 N   0  0  0  0  0  0  0  0  0  0  0  0
  1  2  1  0
  2  3  2  0
  3  4  1  0
  4  5  2  0
  5  6  1  0
  6  7  1  0
  7  8  1  0
  8  9  2  0
  8 10  1  0
 10 11  1  0
 11 12  1  0
 12 13  2  0
 13 14  1  0
 14 15  1  0
 14 16  2  0
 16 17  1  0
 17 18  1  0
 17 19  2  0
 19 20  1  0
 20 21  3  0
  6 22  2  0
 22  2  1  0
 19 12  1  0
M  END
>  <Binding energies>  (6) 
[-7.27]

>  <Ligand effiencies>  (6) 
[-0.3160869565217391]

>  <Interactions>  (6) 
["H-B:ALA:541:N:9860, V-A:HIS:456:CE1:4066, V-B:ASN:362:CB:8144, V-B:PRO:540:CA:9852, V-A:ARG:545:CG:4919, V-A:ARG:545:CZ:4923, V-A:ARG:545:CD:4920, V-B:ALA:541:CB:9861, H-A:GLY:454:N:4046, V-B:ASN:362:C:8140, V-B:PRO:540:CB:9854, H-B:GLU:543:OE2:9879, V-B:GLU:543:CD:9877, V-B:LEU:363:CA:8153, V-B:LEU:363:CD1:8157, V-B:LEU:363:CB:8155"]

$$$$
1f_Grossjean_2025
     RDKit          3D

 21 22  0  0  0  0  0  0  0  0999 V2000
  123.8990  124.2740   61.3490 C   0  0  0  0  0  0  0  0  0  0  0  0
  124.7730  123.8280   60.1920 C   0  0  0  0  0  0  0  0  0  0  0  0
  124.4690  124.1670   58.8760 C   0  0  0  0  0  0  0  0  0  0  0  0
  125.3050  123.7170   57.8480 C   0  0  0  0  0  0  0  0  0  0  0  0
  124.9410  124.0860   56.4110 C   0  0  0  0  0  0  0  0  0  0  0  0
  126.4400  122.9390   58.1710 C   0  0  0  0  0  0  0  0  0  0  0  0
  127.2960  122.4110   57.1050 C   0  0  0  0  0  0  0  0  0  0  0  0
  127.9710  121.9960   56.2620 N   0  0  0  0  0  0  0  0  0  0  0  0
  126.6880  122.6670   59.5370 C   0  0  0  0  0  0  0  0  0  0  0  0
  128.0640  121.7050   60.1330 S   0  0  0  0  0  0  0  0  0  0  0  0
  129.5400  122.7790   60.1800 C   0  0  0  0  0  0  0  0  0  0  0  0
  130.1950  122.9180   61.5620 C   0  0  0  0  0  0  0  0  0  0  0  0
  129.9250  122.1230   62.4640 O   0  0  0  0  0  0  0  0  0  0  0  0
  131.0340  123.9680   61.6820 N   0  0  0  0  0  0  0  0  0  0  0  0
  131.7990  124.3860   62.7880 C   0  0  0  0  0  0  0  0  0  0  0  0
  131.2910  124.7190   64.0580 C   0  0  0  0  0  0  0  0  0  0  0  0
  132.1680  125.1150   65.0710 C   0  0  0  0  0  0  0  0  0  0  0  0
  133.5330  125.1660   64.7910 C   0  0  0  0  0  0  0  0  0  0  0  0
  134.0490  124.8460   63.5780 N   0  0  0  0  0  0  0  0  0  0  0  0
  133.1840  124.4620   62.6040 C   0  0  0  0  0  0  0  0  0  0  0  0
  125.8570  123.0880   60.5240 N   0  0  0  0  0  0  0  0  0  0  0  0
  1  2  1  0
  2  3  2  0
  3  4  1  0
  4  5  1  0
  4  6  2  0
  6  7  1  0
  7  8  3  0
  6  9  1  0
  9 10  1  0
 10 11  1  0
 11 12  1  0
 12 13  2  0
 12 14  1  0
 14 15  1  0
 15 16  2  0
 16 17  1  0
 17 18  2  0
 18 19  1  0
 19 20  2  0
  9 21  2  0
 21  2  1  0
 20 15  1  0
M  END
>  <Binding energies>  (7) 
[-7.1]

>  <Ligand effiencies>  (7) 
[-0.3227272727272727]

>  <Interactions>  (7) 
["V-B:PRO:540:C:9850, H-B:ALA:541:N:9860, V-B:TYR:539:CE2:9845, V-B:ASN:362:CA:8142, V-A:HIS:456:CE1:4066, V-B:TYR:539:CZ:9846, V-B:ASN:362:CB:8144, V-B:PRO:540:CA:9852, V-A:ARG:545:CZ:4923, V-A:ARG:545:CD:4920, H-A:GLY:454:N:4046, V-B:TYR:539:C:9836, V-B:ASN:362:C:8140, V-B:PRO:540:N:9853, V-B:PRO:540:CB:9854, V-B:TYR:539:CD2:9843, H-A:ARG:545:NH2:4925, H-A:ARG:545:NH1:4924, V-B:ARG:545:CZ:9895, H-B:TYR:539:N:9839, V-B:MET:535:CE:9804, V-B:LEU:363:CD1:8157, V-B:TYR:531:CE2:9762"]

$$$$
1g_Grossjean_2025
     RDKit          3D

 22 23  0  0  0  0  0  0  0  0999 V2000
  134.9990  123.5090   60.4860 C   0  0  0  0  0  0  0  0  0  0  0  0
  133.8400  123.2560   61.4320 C   0  0  0  0  0  0  0  0  0  0  0  0
  132.7940  122.4000   61.0920 C   0  0  0  0  0  0  0  0  0  0  0  0
  131.7440  122.2180   61.9980 C   0  0  0  0  0  0  0  0  0  0  0  0
  130.6010  121.2860   61.5980 C   0  0  0  0  0  0  0  0  0  0  0  0
  131.7720  122.8990   63.2360 C   0  0  0  0  0  0  0  0  0  0  0  0
  130.6580  122.7650   64.1780 C   0  0  0  0  0  0  0  0  0  0  0  0
  129.7760  122.6580   64.9190 N   0  0  0  0  0  0  0  0  0  0  0  0
  132.8860  123.7290   63.5070 C   0  0  0  0  0  0  0  0  0  0  0  0
  133.0880  124.6490   65.0160 S   0  0  0  0  0  0  0  0  0  0  0  0
  132.0890  126.1600   64.8640 C   0  0  0  0  0  0  0  0  0  0  0  0
  130.7860  126.0680   65.6610 C   0  0  0  0  0  0  0  0  0  0  0  0
  130.5330  125.0540   66.3130 O   0  0  0  0  0  0  0  0  0  0  0  0
  129.9700  127.1330   65.5920 N   0  0  0  0  0  0  0  0  0  0  0  0
  128.7080  127.2830   66.3160 C   0  0  0  0  0  0  0  0  0  0  0  0
  128.8370  127.1720   67.8320 C   0  0  0  0  0  0  0  0  0  0  0  0
  129.9230  127.7630   68.4860 C   0  0  0  0  0  0  0  0  0  0  0  0
  130.0410  127.6620   69.8700 C   0  0  0  0  0  0  0  0  0  0  0  0
  129.0700  126.9750   70.5960 C   0  0  0  0  0  0  0  0  0  0  0  0
  127.9830  126.3890   69.9520 C   0  0  0  0  0  0  0  0  0  0  0  0
  127.8650  126.4880   68.5680 C   0  0  0  0  0  0  0  0  0  0  0  0
  133.8890  123.9160   62.6130 N   0  0  0  0  0  0  0  0  0  0  0  0
  1  2  1  0
  2  3  2  0
  3  4  1  0
  4  5  1  0
  4  6  2  0
  6  7  1  0
  7  8  3  0
  6  9  1  0
  9 10  1  0
 10 11  1  0
 11 12  1  0
 12 13  2  0
 12 14  1  0
 14 15  1  0
 15 16  1  0
 16 17  2  0
 17 18  1  0
 18 19  2  0
 19 20  1  0
 20 21  2  0
  9 22  2  0
 22  2  1  0
 21 16  1  0
M  END
>  <Binding energies>  (8) 
[-7.11]

>  <Ligand effiencies>  (8) 
[-0.3091304347826087]

>  <Interactions>  (8) 
["V-B:TYR:539:CE2:9845, V-A:HIS:456:CE1:4066, V-A:ARG:545:CZ:4923, V-B:ALA:541:CB:9861, H-A:GLY:454:N:4046, H-A:TYR:484:OH:4344, V-A:GLY:454:CA:4045, V-B:TYR:539:CD2:9843, V-A:ASP:366:CG:3209, V-A:TYR:484:CE1:4341, V-B:HIS:456:CD2:9036, V-A:GLU:543:CB:4903, V-B:GLY:544:C:9881, V-B:GLU:543:CB:9875, V-B:GLU:543:CD:9877, V-B:HIS:456:CE1:9038, V-A:GLU:543:CD:4905, V-A:ILE:369:CB:3232, V-A:LEU:475:CD1:4254, V-A:ILE:369:CG2:3233, V-A:ILE:369:CG1:3234, H-A:GLU:543:OE2:4907, H-A:GLU:543:OE1:4906, V-B:GLU:543:C:9871, V-A:ASP:366:CA:3206"]

$$$$
1h_Grossjean_2025
     RDKit          3D

 28 29  0  0  0  0  0  0  0  0999 V2000
  129.4650  130.0040   72.3860 C   0  0  0  0  0  0  0  0  0  0  0  0
  129.8770  128.6880   72.7380 O   0  0  0  0  0  0  0  0  0  0  0  0
  129.5130  127.6250   71.9320 C   0  0  0  0  0  0  0  0  0  0  0  0
  129.1080  127.7580   70.5940 C   0  0  0  0  0  0  0  0  0  0  0  0
  128.7410  126.6400   69.8440 C   0  0  0  0  0  0  0  0  0  0  0  0
  128.3250  126.7960   68.3850 C   0  0  0  0  0  0  0  0  0  0  0  0
  129.4460  126.8090   67.4450 N   0  0  0  0  0  0  0  0  0  0  0  0
  129.9480  125.7300   66.8180 C   0  0  0  0  0  0  0  0  0  0  0  0
  129.4950  124.5930   66.9480 O   0  0  0  0  0  0  0  0  0  0  0  0
  131.1520  125.9690   65.9070 C   0  0  0  0  0  0  0  0  0  0  0  0
  130.6500  126.3600   64.2040 S   0  0  0  0  0  0  0  0  0  0  0  0
  130.7950  124.8720   63.2280 C   0  0  0  0  0  0  0  0  0  0  0  0
  129.6550  124.4510   62.6210 N   0  0  0  0  0  0  0  0  0  0  0  0
  129.6960  123.3310   61.8630 C   0  0  0  0  0  0  0  0  0  0  0  0
  128.3850  122.9270   61.2150 C   0  0  0  0  0  0  0  0  0  0  0  0
  130.8600  122.5880   61.6790 C   0  0  0  0  0  0  0  0  0  0  0  0
  132.0400  123.0100   62.3010 C   0  0  0  0  0  0  0  0  0  0  0  0
  133.3060  122.1840   62.0850 C   0  0  0  0  0  0  0  0  0  0  0  0
  132.0200  124.1780   63.0970 C   0  0  0  0  0  0  0  0  0  0  0  0
  133.2410  124.6420   63.7620 C   0  0  0  0  0  0  0  0  0  0  0  0
  134.2050  125.0090   64.2880 N   0  0  0  0  0  0  0  0  0  0  0  0
  128.8110  125.3710   70.4200 C   0  0  0  0  0  0  0  0  0  0  0  0
  129.2170  125.2080   71.7540 C   0  0  0  0  0  0  0  0  0  0  0  0
  129.3080  123.9820   72.3890 O   0  0  0  0  0  0  0  0  0  0  0  0
  129.6500  122.8260   71.6320 C   0  0  0  0  0  0  0  0  0  0  0  0
  129.5550  126.3440   72.5030 C   0  0  0  0  0  0  0  0  0  0  0  0
  129.9600  126.1990   73.8070 O   0  0  0  0  0  0  0  0  0  0  0  0
  131.0860  125.3480   73.9720 C   0  0  0  0  0  0  0  0  0  0  0  0
  1  2  1  0
  2  3  1  0
  3  4  2  0
  4  5  1  0
  5  6  1  0
  6  7  1  0
  7  8  1  0
  8  9  2  0
  8 10  1  0
 10 11  1  0
 11 12  1  0
 12 13  2  0
 13 14  1  0
 14 15  1  0
 14 16  2  0
 16 17  1  0
 17 18  1  0
 17 19  2  0
 19 20  1  0
 20 21  3  0
  5 22  2  0
 22 23  1  0
 23 24  1  0
 24 25  1  0
 23 26  2  0
 26 27  1  0
 27 28  1  0
 26  3  1  0
 19 12  1  0
M  END
>  <Binding energies>  (9) 
[-6.9]

>  <Ligand effiencies>  (9) 
[-0.23793103448275862]

>  <Interactions>  (9) 
["V-B:TYR:539:CE2:9845, V-A:HIS:456:CE1:4066, V-A:ARG:545:CZ:4923, V-B:ALA:541:CB:9861, H-A:GLY:454:N:4046, H-A:TYR:484:OH:4344, V-A:GLY:454:CA:4045, V-B:HIS:456:CD2:9036, V-A:LYS:547:CE:4947, H-A:LYS:547:NZ:4948, V-B:LYS:547:CE:9919, V-B:GLU:543:CB:9875, V-A:GLU:543:C:4899, V-B:HIS:456:CE1:9038, H-A:ARG:545:NH2:4925, H-A:ARG:545:NH1:4924, V-A:LEU:475:CD1:4254, H-A:GLU:543:OE1:4906, V-A:HIS:456:CD2:4064, V-B:GLU:543:C:9871, H-A:ARG:545:NE:4921, V-A:TYR:484:CG:4338, V-A:TYR:484:CD2:4340, V-A:TYR:484:CB:4337, H-B:LYS:547:NZ:9920, V-A:TYR:484:CD1:4339, V-A:GLY:544:CA:4911"]

$$$$
1i_Grossjean_2025
     RDKit          3D

 20 21  0  0  0  0  0  0  0  0999 V2000
  132.8670  131.3260   61.8070 C   0  0  0  0  0  0  0  0  0  0  0  0
  131.9160  131.5320   60.6430 C   0  0  0  0  0  0  0  0  0  0  0  0
  132.2590  131.1590   59.3450 C   0  0  0  0  0  0  0  0  0  0  0  0
  131.3370  131.3640   58.3120 C   0  0  0  0  0  0  0  0  0  0  0  0
  131.7300  130.9310   56.9010 C   0  0  0  0  0  0  0  0  0  0  0  0
  130.0850  131.9490   58.6090 C   0  0  0  0  0  0  0  0  0  0  0  0
  129.0860  132.1260   57.5520 C   0  0  0  0  0  0  0  0  0  0  0  0
  128.2980  132.2630   56.7160 N   0  0  0  0  0  0  0  0  0  0  0  0
  129.8320  132.3190   59.9510 C   0  0  0  0  0  0  0  0  0  0  0  0
  128.3130  133.0660   60.5010 S   0  0  0  0  0  0  0  0  0  0  0  0
  127.0590  131.7540   60.6020 C   0  0  0  0  0  0  0  0  0  0  0  0
  126.4550  131.6410   62.0030 C   0  0  0  0  0  0  0  0  0  0  0  0
  126.6480  132.5450   62.8180 O   0  0  0  0  0  0  0  0  0  0  0  0
  125.7330  130.5240   62.2380 N   0  0  0  0  0  0  0  0  0  0  0  0
  125.0860  130.1720   63.4140 C   0  0  0  0  0  0  0  0  0  0  0  0
  125.7270  129.5260   64.4700 C   0  0  0  0  0  0  0  0  0  0  0  0
  124.7550  129.3590   65.4300 C   0  0  0  0  0  0  0  0  0  0  0  0
  123.5890  129.8760   64.9740 O   0  0  0  0  0  0  0  0  0  0  0  0
  123.8110  130.3870   63.6940 N   0  0  0  0  0  0  0  0  0  0  0  0
  130.7240  132.0980   60.9490 N   0  0  0  0  0  0  0  0  0  0  0  0
  1  2  1  0
  2  3  2  0
  3  4  1  0
  4  5  1  0
  4  6  2  0
  6  7  1  0
  7  8  3  0
  6  9  1  0
  9 10  1  0
 10 11  1  0
 11 12  1  0
 12 13  2  0
 12 14  1  0
 14 15  1  0
 15 16  1  0
 16 17  2  0
 17 18  1  0
 18 19  1  0
  9 20  2  0
 20  2  1  0
 19 15  2  0
M  END
>  <Binding energies>  (10) 
[-7.14]

>  <Ligand effiencies>  (10) 
[-0.33999999999999997]

>  <Interactions>  (10) 
["V-B:HIS:456:CE1:9038, V-A:GLU:543:CD:4905, H-B:GLY:454:N:9018, V-B:ARG:545:CZ:9895, V-B:ARG:545:CD:9892, H-B:TYR:484:OH:9316, H-B:ASP:366:OD1:8182, H-A:ALA:541:N:4888, V-A:PRO:540:N:4881, V-B:ASP:366:CG:8181, V-A:PRO:540:C:4878, V-A:PRO:540:CA:4880, V-A:PRO:540:CB:4882, V-A:TYR:539:C:4864, V-A:ASN:362:CB:3172, H-B:ASP:366:OD2:8183, V-A:TYR:539:CD2:4871, H-B:ARG:545:NH1:9896, H-B:ARG:545:NE:9893, V-A:ASN:362:CG:3173"]

$$$$
1k_Grossjean_2025
     RDKit          3D

 25 25  0  0  0  0  0  0  0  0999 V2000
  129.8850  122.5050   71.9580 C   0  0  0  0  0  0  0  0  0  0  0  0
  129.1270  123.6470   72.3230 O   0  0  0  0  0  0  0  0  0  0  0  0
  129.9160  124.8160   72.5020 C   0  0  0  0  0  0  0  0  0  0  0  0
  129.0000  126.0460   72.5780 C   0  0  0  0  0  0  0  0  0  0  0  0
  129.7730  127.2230   72.3850 O   0  0  0  0  0  0  0  0  0  0  0  0
  129.8490  127.6410   71.0280 C   0  0  0  0  0  0  0  0  0  0  0  0
  128.7450  126.9480   70.2190 C   0  0  0  0  0  0  0  0  0  0  0  0
  128.9620  127.1730   68.8320 O   0  0  0  0  0  0  0  0  0  0  0  0
  128.4540  126.1380   68.0000 C   0  0  0  0  0  0  0  0  0  0  0  0
  129.5010  125.0160   67.8740 C   0  0  0  0  0  0  0  0  0  0  0  0
  130.4680  125.2220   66.7940 N   0  0  0  0  0  0  0  0  0  0  0  0
  130.7680  126.4090   66.2390 C   0  0  0  0  0  0  0  0  0  0  0  0
  130.2510  127.4690   66.5960 O   0  0  0  0  0  0  0  0  0  0  0  0
  131.8090  126.3670   65.1080 C   0  0  0  0  0  0  0  0  0  0  0  0
  133.0330  125.0150   65.2110 S   0  0  0  0  0  0  0  0  0  0  0  0
  132.9060  123.9960   63.7480 C   0  0  0  0  0  0  0  0  0  0  0  0
  133.9340  124.0950   62.8660 N   0  0  0  0  0  0  0  0  0  0  0  0
  133.8970  123.3570   61.7320 C   0  0  0  0  0  0  0  0  0  0  0  0
  135.0760  123.5290   60.7950 C   0  0  0  0  0  0  0  0  0  0  0  0
  132.8470  122.4920   61.4340 C   0  0  0  0  0  0  0  0  0  0  0  0
  131.7850  122.3760   62.3370 C   0  0  0  0  0  0  0  0  0  0  0  0
  130.6440  121.4210   61.9910 C   0  0  0  0  0  0  0  0  0  0  0  0
  131.8030  123.1400   63.5250 C   0  0  0  0  0  0  0  0  0  0  0  0
  130.7020  123.0410   64.4880 C   0  0  0  0  0  0  0  0  0  0  0  0
  129.8320  122.9630   65.2470 N   0  0  0  0  0  0  0  0  0  0  0  0
  1  2  1  0
  2  3  1  0
  3  4  1  0
  4  5  1  0
  5  6  1  0
  6  7  1  0
  7  8  1  0
  8  9  1  0
  9 10  1  0
 10 11  1  0
 11 12  1  0
 12 13  2  0
 12 14  1  0
 14 15  1  0
 15 16  1  0
 16 17  2  0
 17 18  1  0
 18 19  1  0
 18 20  2  0
 20 21  1  0
 21 22  1  0
 21 23  2  0
 23 24  1  0
 24 25  3  0
 23 16  1  0
M  END
>  <Binding energies>  (11) 
[-6.36]

>  <Ligand effiencies>  (11) 
[-0.24461538461538462]

>  <Interactions>  (11) 
["V-B:TYR:539:CE2:9845, V-A:HIS:456:CE1:4066, V-A:GLY:453:C:4038, V-A:ARG:545:CZ:4923, V-A:GLY:453:CA:4040, V-B:ALA:541:CB:9861, H-A:GLY:454:N:4046, H-A:TYR:484:OH:4344, V-A:GLY:454:CA:4045, V-A:ASP:366:CG:3209, V-A:TYR:484:CE1:4341, V-B:HIS:456:CD2:9036, H-A:LYS:547:NZ:4948, V-B:LYS:547:CE:9919, V-B:GLU:543:CB:9875, V-B:HIS:456:CE1:9038, V-A:TYR:484:CZ:4343, V-A:GLU:543:CD:4905, V-A:ILE:369:CB:3232, V-A:LEU:475:CD1:4254, V-A:ILE:369:CG1:3234, V-A:HIS:456:CD2:4064, V-B:GLU:543:C:9871, V-B:GLU:543:CA:9873, V-A:ASP:366:CA:3206, V-A:TYR:484:CG:4338, V-A:TYR:484:CD2:4340, V-A:TYR:484:CB:4337, H-B:LYS:547:NZ:9920, V-A:TYR:484:CD1:4339, H-A:HIS:456:NE2:4067"]

$$$$
1l_Grossjean_2025
     RDKit          3D

 17 17  0  0  0  0  0  0  0  0999 V2000
  123.8900  123.8500   60.7030 C   0  0  0  0  0  0  0  0  0  0  0  0
  124.9020  122.8570   60.7930 O   0  0  0  0  0  0  0  0  0  0  0  0
  126.1230  123.4510   61.1140 N   0  0  0  0  0  0  0  0  0  0  0  0
  127.2340  123.0510   60.4670 C   0  0  0  0  0  0  0  0  0  0  0  0
  127.2180  122.3550   59.4480 O   0  0  0  0  0  0  0  0  0  0  0  0
  128.5550  123.5380   61.0780 C   0  0  0  0  0  0  0  0  0  0  0  0
  129.7210  122.2160   61.5490 S   0  0  0  0  0  0  0  0  0  0  0  0
  131.3010  122.9680   61.9030 C   0  0  0  0  0  0  0  0  0  0  0  0
  132.2000  122.9590   60.8850 N   0  0  0  0  0  0  0  0  0  0  0  0
  133.4200  123.5120   61.0860 C   0  0  0  0  0  0  0  0  0  0  0  0
  134.3680  123.4630   59.9030 C   0  0  0  0  0  0  0  0  0  0  0  0
  133.7920  124.0930   62.2950 C   0  0  0  0  0  0  0  0  0  0  0  0
  132.8740  124.1100   63.3510 C   0  0  0  0  0  0  0  0  0  0  0  0
  133.3030  124.7530   64.6690 C   0  0  0  0  0  0  0  0  0  0  0  0
  131.5960  123.5370   63.1630 C   0  0  0  0  0  0  0  0  0  0  0  0
  130.6140  123.5410   64.2530 C   0  0  0  0  0  0  0  0  0  0  0  0
  129.8410  123.5440   65.1130 N   0  0  0  0  0  0  0  0  0  0  0  0
  1  2  1  0
  2  3  1  0
  3  4  1  0
  4  5  2  0
  4  6  1  0
  6  7  1  0
  7  8  1  0
  8  9  2  0
  9 10  1  0
 10 11  1  0
 10 12  2  0
 12 13  1  0
 13 14  1  0
 13 15  2  0
 15 16  1  0
 16 17  3  0
 15  8  1  0
M  END
>  <Binding energies>  (12) 
[-5.89]

>  <Ligand effiencies>  (12) 
[-0.3272222222222222]

>  <Interactions>  (12) 
["H-B:ALA:541:N:9860, V-B:ASN:362:CB:8144, V-B:PRO:540:CA:9852, V-A:ARG:545:CZ:4923, V-B:ALA:541:CB:9861, V-B:ASN:362:C:8140, H-A:TYR:484:OH:4344, V-A:GLY:454:CA:4045, V-B:PRO:540:CB:9854, V-A:ASP:366:CG:3209, H-B:GLU:543:OE2:9879, V-B:GLU:543:CD:9877, V-A:ILE:369:CB:3232, V-A:ILE:369:CG2:3233, V-A:ILE:369:CG1:3234, H-B:TYR:539:OH:9847, V-A:ASP:366:CB:3208, V-A:ASP:366:CA:3206"]

$$$$
1m_Grossjean_2025
     RDKit          3D

 20 20  0  0  0  0  0  0  0  0999 V2000
  123.8730  129.5460   66.2090 C   0  0  0  0  0  0  0  0  0  0  0  0
  124.2280  130.4520   65.1740 O   0  0  0  0  0  0  0  0  0  0  0  0
  124.5080  130.0010   63.9330 C   0  0  0  0  0  0  0  0  0  0  0  0
  123.8460  130.2360   62.9180 O   0  0  0  0  0  0  0  0  0  0  0  0
  125.7890  129.1410   63.9200 C   0  0  0  0  0  0  0  0  0  0  0  0
  125.9810  128.4250   62.6490 N   0  0  0  0  0  0  0  0  0  0  0  0
  127.0500  127.6730   62.3260 C   0  0  0  0  0  0  0  0  0  0  0  0
  128.0130  127.5150   63.0790 O   0  0  0  0  0  0  0  0  0  0  0  0
  127.0030  127.0190   60.9390 C   0  0  0  0  0  0  0  0  0  0  0  0
  125.6950  125.7620   60.7330 S   0  0  0  0  0  0  0  0  0  0  0  0
  126.3520  124.4410   59.7370 C   0  0  0  0  0  0  0  0  0  0  0  0
  127.4170  123.8150   60.3000 N   0  0  0  0  0  0  0  0  0  0  0  0
  127.9960  122.7890   59.6340 C   0  0  0  0  0  0  0  0  0  0  0  0
  129.1670  122.1260   60.3350 C   0  0  0  0  0  0  0  0  0  0  0  0
  127.5520  122.3560   58.3870 C   0  0  0  0  0  0  0  0  0  0  0  0
  126.4720  123.0110   57.7850 C   0  0  0  0  0  0  0  0  0  0  0  0
  126.0130  122.5290   56.4100 C   0  0  0  0  0  0  0  0  0  0  0  0
  125.8520  124.0860   58.4610 C   0  0  0  0  0  0  0  0  0  0  0  0
  124.7520  124.8180   57.8270 C   0  0  0  0  0  0  0  0  0  0  0  0
  123.8840  125.3950   57.3260 N   0  0  0  0  0  0  0  0  0  0  0  0
  1  2  1  0
  2  3  1  0
  3  4  2  0
  3  5  1  0
  5  6  1  0
  6  7  1  0
  7  8  2  0
  7  9  1  0
  9 10  1  0
 10 11  1  0
 11 12  2  0
 12 13  1  0
 13 14  1  0
 13 15  2  0
 15 16  1  0
 16 17  1  0
 16 18  2  0
 18 19  1  0
 19 20  3  0
 18 11  1  0
M  END
>  <Binding energies>  (13) 
[-5.88]

>  <Ligand effiencies>  (13) 
[-0.27999999999999997]

>  <Interactions>  (13) 
["V-B:TYR:539:CE2:9845, V-B:TYR:539:CZ:9846, V-B:PRO:540:CA:9852, V-B:ALA:541:CB:9861, V-B:TYR:539:C:9836, V-B:PRO:540:N:9853, V-B:PRO:540:CB:9854, V-B:TYR:539:CD2:9843, V-B:GLU:543:CD:9877, V-B:HIS:456:CE1:9038, H-B:GLY:454:N:9018, V-B:ARG:545:CZ:9895, V-B:ARG:545:CG:9891, V-B:ARG:545:CD:9892, H-B:TYR:484:OH:9316, V-B:PRO:540:CD:9856, H-B:ARG:545:NH2:9897, H-B:ASP:366:OD1:8182, V-B:LEU:363:CD1:8157, H-B:TYR:531:OH:9764, V-B:ASP:366:CG:8181, H-B:ASP:366:OD2:8183, V-B:ILE:538:CB:9831, H-B:ARG:545:NH1:9896"]

$$$$
1n_Grossjean_2025
     RDKit          3D

 27 28  0  0  0  0  0  0  0  0999 V2000
  124.8030  127.6100   73.9480 C   0  0  0  0  0  0  0  0  0  0  0  0
  126.2640  128.0620   73.8630 C   0  0  0  0  0  0  0  0  0  0  0  0
  126.9820  127.1820   73.0060 O   0  0  0  0  0  0  0  0  0  0  0  0
  128.2850  127.4090   72.7000 C   0  0  0  0  0  0  0  0  0  0  0  0
  129.1390  127.7080   73.5400 O   0  0  0  0  0  0  0  0  0  0  0  0
  128.5880  127.2470   71.2370 C   0  0  0  0  0  0  0  0  0  0  0  0
  129.7250  127.8200   70.6460 C   0  0  0  0  0  0  0  0  0  0  0  0
  129.9740  127.6520   69.2880 C   0  0  0  0  0  0  0  0  0  0  0  0
  129.0940  126.9190   68.4910 C   0  0  0  0  0  0  0  0  0  0  0  0
  129.4410  126.8180   67.1300 N   0  0  0  0  0  0  0  0  0  0  0  0
  129.7390  125.7260   66.3930 C   0  0  0  0  0  0  0  0  0  0  0  0
  129.7520  124.5670   66.8090 O   0  0  0  0  0  0  0  0  0  0  0  0
  130.0800  125.9910   64.9210 C   0  0  0  0  0  0  0  0  0  0  0  0
  131.5830  126.2550   64.6860 C   0  0  0  0  0  0  0  0  0  0  0  0
  132.6600  124.8290   65.0200 S   0  0  0  0  0  0  0  0  0  0  0  0
  132.6330  123.7840   63.5800 C   0  0  0  0  0  0  0  0  0  0  0  0
  133.6840  123.9810   62.7460 N   0  0  0  0  0  0  0  0  0  0  0  0
  133.7760  123.2280   61.6250 C   0  0  0  0  0  0  0  0  0  0  0  0
  134.9830  123.4970   60.7460 C   0  0  0  0  0  0  0  0  0  0  0  0
  132.8310  122.2620   61.2890 C   0  0  0  0  0  0  0  0  0  0  0  0
  131.7310  122.0650   62.1320 C   0  0  0  0  0  0  0  0  0  0  0  0
  130.7010  121.0090   61.7360 C   0  0  0  0  0  0  0  0  0  0  0  0
  131.6120  122.8430   63.3060 C   0  0  0  0  0  0  0  0  0  0  0  0
  130.4450  122.6890   64.1750 C   0  0  0  0  0  0  0  0  0  0  0  0
  129.5200  122.5670   64.8610 N   0  0  0  0  0  0  0  0  0  0  0  0
  127.9610  126.3350   69.0760 C   0  0  0  0  0  0  0  0  0  0  0  0
  127.7150  126.5000   70.4370 C   0  0  0  0  0  0  0  0  0  0  0  0
  1  2  1  0
  2  3  1  0
  3  4  1  0
  4  5  2  0
  4  6  1  0
  6  7  2  0
  7  8  1  0
  8  9  2  0
  9 10  1  0
 10 11  1  0
 11 12  2  0
 11 13  1  0
 13 14  1  0
 14 15  1  0
 15 16  1  0
 16 17  2  0
 17 18  1  0
 18 19  1  0
 18 20  2  0
 20 21  1  0
 21 22  1  0
 21 23  2  0
 23 24  1  0
 24 25  3  0
  9 26  1  0
 26 27  2  0
 27  6  1  0
 23 16  1  0
M  END
>  <Binding energies>  (14) 
[-8.25]

>  <Ligand effiencies>  (14) 
[-0.29464285714285715]

>  <Interactions>  (14) 
["V-B:TYR:539:CE2:9845, V-A:HIS:456:CE1:4066, V-A:ARG:545:CZ:4923, V-B:ALA:541:CB:9861, H-A:GLY:454:N:4046, H-A:TYR:484:OH:4344, V-A:GLY:454:CA:4045, V-B:TYR:539:CD2:9843, V-A:ASP:366:CG:3209, V-A:TYR:484:CE1:4341, V-B:HIS:456:CD2:9036, V-B:LYS:547:CD:9918, H-A:LYS:547:NZ:4948, V-B:GLY:544:C:9881, V-B:LYS:547:CE:9919, V-B:GLU:543:CB:9875, V-B:HIS:456:CB:9033, V-B:HIS:456:CE1:9038, V-B:GLU:543:CG:9876, V-A:GLU:543:CD:4905, V-A:ILE:369:CB:3232, V-A:LEU:475:CD1:4254, V-A:ILE:369:CG1:3234, H-A:GLU:543:OE1:4906, V-B:GLU:543:C:9871, V-B:HIS:456:CG:9034, V-A:ASP:366:CA:3206"]

$$$$
1q_Grossjean_2025
     RDKit          3D

 21 21  0  0  0  0  0  0  0  0999 V2000
  127.5860  126.5040   70.2860 C   0  0  0  0  0  0  0  0  0  0  0  0
  128.9530  126.2810   70.6030 O   0  0  0  0  0  0  0  0  0  0  0  0
  129.7700  127.3220   70.8960 C   0  0  0  0  0  0  0  0  0  0  0  0
  129.8990  127.8410   72.0060 O   0  0  0  0  0  0  0  0  0  0  0  0
  130.5500  127.8690   69.6810 C   0  0  0  0  0  0  0  0  0  0  0  0
  130.1540  127.2390   68.4130 N   0  0  0  0  0  0  0  0  0  0  0  0
  130.8090  127.3450   67.2410 C   0  0  0  0  0  0  0  0  0  0  0  0
  131.8440  128.0000   67.1040 O   0  0  0  0  0  0  0  0  0  0  0  0
  130.1990  126.5780   66.0580 C   0  0  0  0  0  0  0  0  0  0  0  0
  131.1490  126.4060   64.8570 C   0  0  0  0  0  0  0  0  0  0  0  0
  132.4710  125.1920   65.1420 S   0  0  0  0  0  0  0  0  0  0  0  0
  132.5670  124.1150   63.7260 C   0  0  0  0  0  0  0  0  0  0  0  0
  133.6980  124.2860   62.9950 N   0  0  0  0  0  0  0  0  0  0  0  0
  133.8830  123.5240   61.8920 C   0  0  0  0  0  0  0  0  0  0  0  0
  135.1610  123.7850   61.1170 C   0  0  0  0  0  0  0  0  0  0  0  0
  132.9640  122.5610   61.4800 C   0  0  0  0  0  0  0  0  0  0  0  0
  131.8080  122.3580   62.2400 C   0  0  0  0  0  0  0  0  0  0  0  0
  130.8240  121.2840   61.7780 C   0  0  0  0  0  0  0  0  0  0  0  0
  131.5930  123.1400   63.3980 C   0  0  0  0  0  0  0  0  0  0  0  0
  130.4170  122.9020   64.2360 C   0  0  0  0  0  0  0  0  0  0  0  0
  129.4860  122.7100   64.8970 N   0  0  0  0  0  0  0  0  0  0  0  0
  1  2  1  0
  2  3  1  0
  3  4  2  0
  3  5  1  0
  5  6  1  0
  6  7  1  0
  7  8  2  0
  7  9  1  0
  9 10  1  0
 10 11  1  0
 11 12  1  0
 12 13  2  0
 13 14  1  0
 14 15  1  0
 14 16  2  0
 16 17  1  0
 17 18  1  0
 17 19  2  0
 19 20  1  0
 20 21  3  0
 19 12  1  0
M  END
>  <Binding energies>  (15) 
[-5.82]

>  <Ligand effiencies>  (15) 
[-0.2645454545454546]

>  <Interactions>  (15) 
["V-B:TYR:539:CE2:9845, V-A:HIS:456:CE1:4066, V-A:GLY:453:C:4038, V-A:GLY:453:CA:4040, V-B:ALA:541:CB:9861, H-A:GLY:454:N:4046, H-A:TYR:484:OH:4344, V-A:GLY:454:CA:4045, V-B:TYR:539:CD2:9843, V-A:ASP:366:CG:3209, V-A:TYR:484:CE1:4341, V-B:HIS:456:CD2:9036, V-A:GLU:543:CB:4903, H-A:LYS:547:NZ:4948, V-B:GLY:544:C:9881, V-A:GLU:543:C:4899, V-B:HIS:456:CE1:9038, V-A:GLU:543:CD:4905, V-A:LEU:475:CD1:4254, V-A:ILE:369:CG1:3234, V-A:HIS:456:CD2:4064, H-A:ARG:545:NE:4921, V-A:ASP:366:CA:3206, H-A:HIS:456:NE2:4067"]

$$$$
2a_Grossjean_2025
     RDKit          3D

 29 30  0  0  0  0  0  0  0  0999 V2000
  124.8420  127.6300   73.9040 C   0  0  0  0  0  0  0  0  0  0  0  0
  126.3360  127.9490   74.0010 C   0  0  0  0  0  0  0  0  0  0  0  0
  127.0320  127.2580   72.9700 O   0  0  0  0  0  0  0  0  0  0  0  0
  128.3130  127.5790   72.6530 C   0  0  0  0  0  0  0  0  0  0  0  0
  129.1170  128.0500   73.4630 O   0  0  0  0  0  0  0  0  0  0  0  0
  128.6600  127.2810   71.2220 C   0  0  0  0  0  0  0  0  0  0  0  0
  127.9100  126.3830   70.4490 C   0  0  0  0  0  0  0  0  0  0  0  0
  128.2600  126.1280   69.1260 C   0  0  0  0  0  0  0  0  0  0  0  0
  129.3660  126.7560   68.5520 C   0  0  0  0  0  0  0  0  0  0  0  0
  129.6340  126.4130   67.2140 N   0  0  0  0  0  0  0  0  0  0  0  0
  130.6780  126.7460   66.4250 C   0  0  0  0  0  0  0  0  0  0  0  0
  131.6180  127.4710   66.7510 O   0  0  0  0  0  0  0  0  0  0  0  0
  130.6520  126.1550   65.0110 C   0  0  0  0  0  0  0  0  0  0  0  0
  130.2910  124.3680   64.9820 S   0  0  0  0  0  0  0  0  0  0  0  0
  130.9070  123.6520   63.4620 C   0  0  0  0  0  0  0  0  0  0  0  0
  129.9850  123.0180   62.6930 N   0  0  0  0  0  0  0  0  0  0  0  0
  130.3830  122.4430   61.5370 C   0  0  0  0  0  0  0  0  0  0  0  0
  129.3010  121.7310   60.7460 C   0  0  0  0  0  0  0  0  0  0  0  0
  131.7020  122.4800   61.0940 C   0  0  0  0  0  0  0  0  0  0  0  0
  132.6710  123.1370   61.8690 C   0  0  0  0  0  0  0  0  0  0  0  0
  134.1260  123.1690   61.3650 C   0  0  0  0  0  0  0  0  0  0  0  0
  134.7800  122.0850   61.7820 F   0  0  0  0  0  0  0  0  0  0  0  0
  134.1460  123.2010   60.0310 F   0  0  0  0  0  0  0  0  0  0  0  0
  134.7990  124.2370   61.8010 F   0  0  0  0  0  0  0  0  0  0  0  0
  132.2680  123.7410   63.0860 C   0  0  0  0  0  0  0  0  0  0  0  0
  133.2390  124.4380   63.9360 C   0  0  0  0  0  0  0  0  0  0  0  0
  134.0060  124.9880   64.6070 N   0  0  0  0  0  0  0  0  0  0  0  0
  130.1160  127.6610   69.3170 C   0  0  0  0  0  0  0  0  0  0  0  0
  129.7620  127.9180   70.6380 C   0  0  0  0  0  0  0  0  0  0  0  0
  1  2  1  0
  2  3  1  0
  3  4  1  0
  4  5  2  0
  4  6  1  0
  6  7  2  0
  7  8  1  0
  8  9  2  0
  9 10  1  0
 10 11  1  0
 11 12  2  0
 11 13  1  0
 13 14  1  0
 14 15  1  0
 15 16  2  0
 16 17  1  0
 17 18  1  0
 17 19  2  0
 19 20  1  0
 20 21  1  0
 21 22  1  0
 21 23  1  0
 21 24  1  0
 20 25  2  0
 25 26  1  0
 26 27  3  0
  9 28  1  0
 28 29  2  0
 29  6  1  0
 25 15  1  0
M  END
>  <Binding energies>  (16) 
[-7.47]

>  <Ligand effiencies>  (16) 
[-0.249]

>  <Interactions>  (16) 
["V-B:TYR:539:CE2:9845, V-A:HIS:456:CE1:4066, V-B:TYR:539:CZ:9846, V-A:GLY:453:C:4038, V-A:ARG:545:CZ:4923, V-A:GLY:453:CA:4040, V-B:ALA:541:CB:9861, H-A:GLY:454:N:4046, H-A:TYR:484:OH:4344, V-A:GLY:454:CA:4045, V-B:TYR:539:CD2:9843, V-A:ASP:366:CG:3209, V-B:HIS:456:CD2:9036, V-B:LYS:547:CD:9918, H-A:LYS:547:NZ:4948, V-B:GLY:544:C:9881, V-B:LYS:547:CE:9919, V-B:GLU:543:CB:9875, V-B:HIS:456:CB:9033, V-B:HIS:456:CE1:9038, V-A:ILE:369:CB:3232, H-A:ARG:545:NH1:4924, V-A:ILE:369:CG2:3233, V-A:ILE:369:CG1:3234, V-B:GLU:543:C:9871, H-B:GLU:543:OE1:9878, H-A:ARG:545:NE:4921, V-B:HIS:456:CG:9034, V-A:ASP:366:CA:3206"]

$$$$
2b_Grossjean_2025
     RDKit          3D

 28 29  0  0  0  0  0  0  0  0999 V2000
  126.2100  127.9570   73.5380 C   0  0  0  0  0  0  0  0  0  0  0  0
  126.9590  127.2680   72.5470 O   0  0  0  0  0  0  0  0  0  0  0  0
  128.3020  127.4340   72.4440 C   0  0  0  0  0  0  0  0  0  0  0  0
  129.0230  127.7560   73.3940 O   0  0  0  0  0  0  0  0  0  0  0  0
  128.8260  127.1900   71.0580 C   0  0  0  0  0  0  0  0  0  0  0  0
  128.3110  126.1750   70.2380 C   0  0  0  0  0  0  0  0  0  0  0  0
  128.8200  125.9740   68.9580 C   0  0  0  0  0  0  0  0  0  0  0  0
  129.8450  126.7840   68.4700 C   0  0  0  0  0  0  0  0  0  0  0  0
  130.2890  126.4900   67.1660 N   0  0  0  0  0  0  0  0  0  0  0  0
  131.3380  126.9910   66.4790 C   0  0  0  0  0  0  0  0  0  0  0  0
  132.1120  127.8560   66.8910 O   0  0  0  0  0  0  0  0  0  0  0  0
  131.5290  126.4180   65.0710 C   0  0  0  0  0  0  0  0  0  0  0  0
  133.0450  125.4190   64.9040 S   0  0  0  0  0  0  0  0  0  0  0  0
  132.8690  124.2660   63.5490 C   0  0  0  0  0  0  0  0  0  0  0  0
  133.8750  124.2700   62.6370 N   0  0  0  0  0  0  0  0  0  0  0  0
  133.8050  123.4280   61.5830 C   0  0  0  0  0  0  0  0  0  0  0  0
  134.9610  123.5030   60.6040 C   0  0  0  0  0  0  0  0  0  0  0  0
  132.7450  122.5450   61.3960 C   0  0  0  0  0  0  0  0  0  0  0  0
  131.6980  122.5180   62.3290 C   0  0  0  0  0  0  0  0  0  0  0  0
  130.5350  121.5320   62.1100 C   0  0  0  0  0  0  0  0  0  0  0  0
  129.4480  122.1910   61.7050 F   0  0  0  0  0  0  0  0  0  0  0  0
  130.8650  120.6320   61.1820 F   0  0  0  0  0  0  0  0  0  0  0  0
  130.2090  120.8630   63.2180 F   0  0  0  0  0  0  0  0  0  0  0  0
  131.7550  123.4020   63.4370 C   0  0  0  0  0  0  0  0  0  0  0  0
  130.6850  123.4200   64.4400 C   0  0  0  0  0  0  0  0  0  0  0  0
  129.8410  123.4340   65.2310 N   0  0  0  0  0  0  0  0  0  0  0  0
  130.3710  127.7960   69.2850 C   0  0  0  0  0  0  0  0  0  0  0  0
  129.8620  127.9950   70.5650 C   0  0  0  0  0  0  0  0  0  0  0  0
  1  2  1  0
  2  3  1  0
  3  4  2  0
  3  5  1  0
  5  6  2  0
  6  7  1  0
  7  8  2  0
  8  9  1  0
  9 10  1  0
 10 11  2  0
 10 12  1  0
 12 13  1  0
 13 14  1  0
 14 15  2  0
 15 16  1  0
 16 17  1  0
 16 18  2  0
 18 19  1  0
 19 20  1  0
 20 21  1  0
 20 22  1  0
 20 23  1  0
 19 24  2  0
 24 25  1  0
 25 26  3  0
  8 27  1  0
 27 28  2  0
 28  5  1  0
 24 14  1  0
M  END
>  <Binding energies>  (17) 
[-7.13]

>  <Ligand effiencies>  (17) 
[-0.24586206896551724]

>  <Interactions>  (17) 
["V-B:TYR:539:CE2:9845, V-A:HIS:456:CE1:4066, V-A:ARG:545:CG:4919, V-A:ARG:545:CZ:4923, V-B:ALA:541:CB:9861, H-A:GLY:454:N:4046, H-A:TYR:484:OH:4344, V-A:GLY:454:CA:4045, V-B:TYR:539:CD2:9843, V-A:ASP:366:CG:3209, V-A:TYR:484:CE1:4341, V-B:HIS:456:CD2:9036, V-A:GLU:543:CB:4903, H-A:LYS:547:NZ:4948, V-B:LYS:547:CE:9919, V-B:GLU:543:CB:9875, V-B:HIS:456:CB:9033, V-A:GLU:543:C:4899, V-A:TYR:484:CZ:4343, V-A:GLU:543:CD:4905, H-A:ARG:545:NH2:4925, V-A:ILE:369:CB:3232, V-A:LEU:475:CD1:4254, V-A:ILE:369:CG2:3233, V-A:ILE:369:CG1:3234, V-A:LEU:475:CD2:4255, V-B:GLU:543:C:9871, H-A:ARG:545:NE:4921, V-B:HIS:456:CG:9034, V-A:ASP:366:CA:3206, V-A:LEU:475:CG:4253"]

$$$$
2c_Grossjean_2025
     RDKit          3D

 26 27  0  0  0  0  0  0  0  0999 V2000
  128.1630  128.3350   73.4240 C   0  0  0  0  0  0  0  0  0  0  0  0
  129.3490  127.8250   72.8220 O   0  0  0  0  0  0  0  0  0  0  0  0
  129.3100  127.4040   71.5070 C   0  0  0  0  0  0  0  0  0  0  0  0
  130.2180  128.0020   70.6350 C   0  0  0  0  0  0  0  0  0  0  0  0
  130.2530  127.6450   69.2890 C   0  0  0  0  0  0  0  0  0  0  0  0
  129.3610  126.6810   68.7980 C   0  0  0  0  0  0  0  0  0  0  0  0
  129.3340  126.2420   67.4620 N   0  0  0  0  0  0  0  0  0  0  0  0
  130.2870  126.3700   66.5130 C   0  0  0  0  0  0  0  0  0  0  0  0
  131.3540  126.9660   66.6680 O   0  0  0  0  0  0  0  0  0  0  0  0
  129.9380  125.7390   65.1570 C   0  0  0  0  0  0  0  0  0  0  0  0
  129.9110  123.9120   65.1240 S   0  0  0  0  0  0  0  0  0  0  0  0
  130.5390  123.3360   63.5520 C   0  0  0  0  0  0  0  0  0  0  0  0
  129.6250  122.7580   62.7300 N   0  0  0  0  0  0  0  0  0  0  0  0
  130.0300  122.2910   61.5290 C   0  0  0  0  0  0  0  0  0  0  0  0
  128.9540  121.6440   60.6780 C   0  0  0  0  0  0  0  0  0  0  0  0
  131.3490  122.3860   61.0920 C   0  0  0  0  0  0  0  0  0  0  0  0
  132.3080  122.9860   61.9200 C   0  0  0  0  0  0  0  0  0  0  0  0
  133.7630  123.0850   61.4220 C   0  0  0  0  0  0  0  0  0  0  0  0
  133.7870  123.1160   60.0880 F   0  0  0  0  0  0  0  0  0  0  0  0
  134.3330  124.1960   61.8910 F   0  0  0  0  0  0  0  0  0  0  0  0
  134.5130  122.0520   61.8130 F   0  0  0  0  0  0  0  0  0  0  0  0
  131.8980  123.4760   63.1860 C   0  0  0  0  0  0  0  0  0  0  0  0
  132.8590  124.1110   64.0940 C   0  0  0  0  0  0  0  0  0  0  0  0
  133.6180  124.6120   64.8100 N   0  0  0  0  0  0  0  0  0  0  0  0
  128.4600  126.0670   69.6710 C   0  0  0  0  0  0  0  0  0  0  0  0
  128.4290  126.4280   71.0150 C   0  0  0  0  0  0  0  0  0  0  0  0
  1  2  1  0
  2  3  1  0
  3  4  2  0
  4  5  1  0
  5  6  2  0
  6  7  1  0
  7  8  1  0
  8  9  2  0
  8 10  1  0
 10 11  1  0
 11 12  1  0
 12 13  2  0
 13 14  1  0
 14 15  1  0
 14 16  2  0
 16 17  1  0
 17 18  1  0
 18 19  1  0
 18 20  1  0
 18 21  1  0
 17 22  2  0
 22 23  1  0
 23 24  3  0
  6 25  1  0
 25 26  2  0
 26  3  1  0
 22 12  1  0
M  END
>  <Binding energies>  (18) 
[-6.87]

>  <Ligand effiencies>  (18) 
[-0.2544444444444445]

>  <Interactions>  (18) 
["V-B:TYR:539:CE2:9845, V-A:HIS:456:CE1:4066, V-B:TYR:539:CZ:9846, V-A:GLY:453:C:4038, V-A:GLY:453:CA:4040, V-B:ALA:541:CB:9861, H-A:GLY:454:N:4046, H-A:TYR:484:OH:4344, V-A:GLY:454:CA:4045, V-B:TYR:539:CD2:9843, V-A:ASP:366:CG:3209, V-B:HIS:456:CD2:9036, H-A:LYS:547:NZ:4948, V-B:GLU:543:CB:9875, V-B:GLU:543:CD:9877, V-A:GLU:543:C:4899, V-B:GLU:543:CG:9876, V-A:GLY:544:C:4909, V-A:ILE:369:CB:3232, V-A:LEU:475:CD1:4254, V-A:ILE:369:CG2:3233, V-A:ILE:369:CG1:3234, V-B:GLU:543:C:9871, H-B:GLU:543:OE1:9878, H-B:GLU:543:O:9872"]

$$$$
2d_Ghoteimi_2023
     RDKit          3D

 38 42  0  0  0  0  0  0  0  0999 V2000
  124.2490  130.7910   62.7930 C   0  0  0  0  0  0  0  0  0  0  0  0
  123.9290  130.4990   64.1450 O   0  0  0  0  0  0  0  0  0  0  0  0
  124.6280  129.5700   64.8290 C   0  0  0  0  0  0  0  0  0  0  0  0
  124.4050  129.2180   65.9910 O   0  0  0  0  0  0  0  0  0  0  0  0
  125.7570  128.9770   63.9720 C   0  0  0  0  0  0  0  0  0  0  0  0
  127.3860  129.6110   64.4970 S   0  0  0  0  0  0  0  0  0  0  0  0
  128.3240  128.2550   65.1720 C   0  0  0  0  0  0  0  0  0  0  0  0
  128.2790  128.1960   66.5260 N   0  0  0  0  0  0  0  0  0  0  0  0
  128.9550  127.2150   67.1760 C   0  0  0  0  0  0  0  0  0  0  0  0
  128.8740  127.2240   68.6690 C   0  0  0  0  0  0  0  0  0  0  0  0
  127.8830  126.4920   69.3320 C   0  0  0  0  0  0  0  0  0  0  0  0
  127.8010  126.4950   70.7230 C   0  0  0  0  0  0  0  0  0  0  0  0
  128.7150  127.2230   71.5000 C   0  0  0  0  0  0  0  0  0  0  0  0
  128.6360  127.2520   72.8970 N   0  0  0  0  0  0  0  0  0  0  0  0
  127.4070  127.6820   73.5920 C   0  0  0  0  0  0  0  0  0  0  0  0
  127.6220  128.0050   75.0850 C   0  0  0  0  0  0  0  0  0  0  0  0
  128.2090  126.8920   75.7410 O   0  0  0  0  0  0  0  0  0  0  0  0
  129.4700  126.5640   75.1820 C   0  0  0  0  0  0  0  0  0  0  0  0
  129.3120  126.2040   73.6890 C   0  0  0  0  0  0  0  0  0  0  0  0
  129.6970  127.9660   70.8300 C   0  0  0  0  0  0  0  0  0  0  0  0
  129.7770  127.9650   69.4410 C   0  0  0  0  0  0  0  0  0  0  0  0
  129.6950  126.2610   66.4730 C   0  0  0  0  0  0  0  0  0  0  0  0
  129.7300  126.2800   65.0740 C   0  0  0  0  0  0  0  0  0  0  0  0
  130.5180  125.2120   64.3890 C   0  0  0  0  0  0  0  0  0  0  0  0
  129.9750  123.9370   64.2210 C   0  0  0  0  0  0  0  0  0  0  0  0
  130.6960  122.9380   63.5730 C   0  0  0  0  0  0  0  0  0  0  0  0
  131.9860  123.1870   63.0760 C   0  0  0  0  0  0  0  0  0  0  0  0
  132.7230  122.2030   62.4100 N   0  0  0  0  0  0  0  0  0  0  0  0
  134.0890  122.4660   61.9180 C   0  0  0  0  0  0  0  0  0  0  0  0
  134.8650  121.1850   61.5430 C   0  0  0  0  0  0  0  0  0  0  0  0
  134.1230  120.4260   60.6010 O   0  0  0  0  0  0  0  0  0  0  0  0
  132.8590  120.0400   61.1180 C   0  0  0  0  0  0  0  0  0  0  0  0
  132.0310  121.2920   61.4780 C   0  0  0  0  0  0  0  0  0  0  0  0
  132.5150  124.4750   63.2320 C   0  0  0  0  0  0  0  0  0  0  0  0
  131.7930  125.4740   63.8790 C   0  0  0  0  0  0  0  0  0  0  0  0
  129.0210  127.3020   64.3950 C   0  0  0  0  0  0  0  0  0  0  0  0
  129.0120  127.3530   62.9300 C   0  0  0  0  0  0  0  0  0  0  0  0
  129.0070  127.3900   61.7720 N   0  0  0  0  0  0  0  0  0  0  0  0
  1  2  1  0
  2  3  1  0
  3  4  2  0
  3  5  1  0
  5  6  1  0
  6  7  1  0
  7  8  2  0
  8  9  1  0
  9 10  1  0
 10 11  2  0
 11 12  1  0
 12 13  2  0
 13 14  1  0
 14 15  1  0
 15 16  1  0
 16 17  1  0
 17 18  1  0
 18 19  1  0
 13 20  1  0
 20 21  2  0
  9 22  2  0
 22 23  1  0
 23 24  1  0
 24 25  2  0
 25 26  1  0
 26 27  2  0
 27 28  1  0
 28 29  1  0
 29 30  1  0
 30 31  1  0
 31 32  1  0
 32 33  1  0
 27 34  1  0
 34 35  2  0
 23 36  2  0
 36 37  1  0
 37 38  3  0
 36  7  1  0
 21 10  1  0
 35 24  1  0
 19 14  1  0
 33 28  1  0
M  END
>  <Binding energies>  (19) 
[-8.79]

>  <Ligand effiencies>  (19) 
[-0.2313157894736842]

>  <Interactions>  (19) 
["V-B:TYR:539:CE2:9845, V-A:HIS:456:CE1:4066, V-A:GLY:453:C:4038, V-A:ARG:545:CZ:4923, V-A:GLY:454:CA:4045, V-B:TYR:539:CD2:9843, V-B:HIS:456:CD2:9036, V-A:LYS:547:CE:4947, V-B:LYS:547:CD:9918, V-B:GLY:544:C:9881, V-B:LYS:547:CE:9919, V-B:GLU:543:CB:9875, V-B:GLU:543:CD:9877, V-A:GLU:543:C:4899, V-B:HIS:456:CE1:9038, V-B:GLU:543:CG:9876, V-A:GLU:543:CD:4905, V-A:ILE:369:CB:3232, V-A:LEU:475:CD1:4254, V-A:ILE:369:CG2:3233, V-A:ILE:369:CG1:3234, H-B:GLY:454:N:9018, V-B:ARG:545:CZ:9895, H-B:TYR:484:OH:9316, V-B:GLU:543:C:9871, V-B:ASP:366:CG:8181, V-A:ILE:369:CD1:3235, H-B:ARG:545:NE:9893"]

$$$$
2d_Grossjean_2025
     RDKit          3D

 24 25  0  0  0  0  0  0  0  0999 V2000
  129.2260  121.8260   60.8220 C   0  0  0  0  0  0  0  0  0  0  0  0
  128.1040  122.5820   60.1370 C   0  0  0  0  0  0  0  0  0  0  0  0
  126.8660  122.7630   60.7490 C   0  0  0  0  0  0  0  0  0  0  0  0
  125.8620  123.4740   60.0760 C   0  0  0  0  0  0  0  0  0  0  0  0
  124.5020  123.6740   60.7730 C   0  0  0  0  0  0  0  0  0  0  0  0
  124.2650  124.9740   60.9470 F   0  0  0  0  0  0  0  0  0  0  0  0
  123.5250  123.1530   60.0290 F   0  0  0  0  0  0  0  0  0  0  0  0
  124.4460  123.0920   61.9730 F   0  0  0  0  0  0  0  0  0  0  0  0
  126.1410  123.9800   58.7810 C   0  0  0  0  0  0  0  0  0  0  0  0
  125.1410  124.7690   58.0550 C   0  0  0  0  0  0  0  0  0  0  0  0
  124.3510  125.3920   57.4840 N   0  0  0  0  0  0  0  0  0  0  0  0
  127.4180  123.7250   58.2280 C   0  0  0  0  0  0  0  0  0  0  0  0
  127.9240  124.2600   56.6040 S   0  0  0  0  0  0  0  0  0  0  0  0
  129.7330  124.4930   56.6020 C   0  0  0  0  0  0  0  0  0  0  0  0
  130.2560  125.1320   57.8910 C   0  0  0  0  0  0  0  0  0  0  0  0
  130.1940  126.3550   58.0210 O   0  0  0  0  0  0  0  0  0  0  0  0
  130.7840  124.2790   58.7940 N   0  0  0  0  0  0  0  0  0  0  0  0
  131.3360  124.5530   60.0590 C   0  0  0  0  0  0  0  0  0  0  0  0
  132.3940  123.7320   60.4570 C   0  0  0  0  0  0  0  0  0  0  0  0
  133.0020  123.9220   61.6950 C   0  0  0  0  0  0  0  0  0  0  0  0
  132.5440  124.9280   62.5420 C   0  0  0  0  0  0  0  0  0  0  0  0
  131.4810  125.7440   62.1620 C   0  0  0  0  0  0  0  0  0  0  0  0
  130.8720  125.5580   60.9240 C   0  0  0  0  0  0  0  0  0  0  0  0
  128.3840  123.0550   58.9010 N   0  0  0  0  0  0  0  0  0  0  0  0
  1  2  1  0
  2  3  2  0
  3  4  1  0
  4  5  1  0
  5  6  1  0
  5  7  1  0
  5  8  1  0
  4  9  2  0
  9 10  1  0
 10 11  3  0
  9 12  1  0
 12 13  1  0
 13 14  1  0
 14 15  1  0
 15 16  2  0
 15 17  1  0
 17 18  1  0
 18 19  2  0
 19 20  1  0
 20 21  2  0
 21 22  1  0
 22 23  2  0
 12 24  2  0
 24  2  1  0
 23 18  1  0
M  END
>  <Binding energies>  (20) 
[-5.96]

>  <Ligand effiencies>  (20) 
[-0.2384]

>  <Interactions>  (20) 
["V-B:PRO:540:C:9850, V-B:TYR:539:CE2:9845, V-B:TYR:539:CZ:9846, V-B:ASN:362:CB:8144, V-B:PRO:540:CA:9852, V-A:ARG:545:CZ:4923, V-B:TYR:539:CE1:9844, V-B:ALA:541:CB:9861, V-B:ASN:362:C:8140, V-B:PRO:540:CB:9854, V-B:TYR:539:CD2:9843, V-A:ASP:366:CG:3209, V-B:GLU:543:CD:9877, V-B:GLU:543:CG:9876, V-B:LEU:363:CA:8153, V-B:ARG:545:CZ:9895, H-B:TYR:539:OH:9847, V-B:MET:535:CE:9804, H-B:TYR:531:OH:9764, V-B:LEU:363:CB:8155, V-B:ALA:541:CA:9859, V-B:ASP:366:CG:8181, V-B:ALA:541:C:9857, V-B:ASN:362:CG:8145"]

$$$$
2e_Grossjean_2025
     RDKit          3D

 25 26  0  0  0  0  0  0  0  0999 V2000
  127.1620  122.4150   56.3990 C   0  0  0  0  0  0  0  0  0  0  0  0
  127.4500  122.7390   57.8530 C   0  0  0  0  0  0  0  0  0  0  0  0
  126.4300  123.0960   58.7380 C   0  0  0  0  0  0  0  0  0  0  0  0
  126.7680  123.3700   60.0650 C   0  0  0  0  0  0  0  0  0  0  0  0
  128.1020  123.2810   60.4690 C   0  0  0  0  0  0  0  0  0  0  0  0
  129.0750  122.9270   59.5280 C   0  0  0  0  0  0  0  0  0  0  0  0
  130.3950  122.8110   59.9980 N   0  0  0  0  0  0  0  0  0  0  0  0
  130.8130  122.3870   61.2110 C   0  0  0  0  0  0  0  0  0  0  0  0
  130.0780  121.9530   62.1000 O   0  0  0  0  0  0  0  0  0  0  0  0
  132.3160  122.5120   61.4790 C   0  0  0  0  0  0  0  0  0  0  0  0
  132.8860  124.2400   61.3820 S   0  0  0  0  0  0  0  0  0  0  0  0
  132.6380  124.9140   63.0100 C   0  0  0  0  0  0  0  0  0  0  0  0
  133.6920  124.7660   63.8500 N   0  0  0  0  0  0  0  0  0  0  0  0
  133.5710  125.2100   65.1210 C   0  0  0  0  0  0  0  0  0  0  0  0
  134.7870  125.0130   66.0060 C   0  0  0  0  0  0  0  0  0  0  0  0
  132.4070  125.8080   65.6020 C   0  0  0  0  0  0  0  0  0  0  0  0
  131.3050  125.9610   64.7480 C   0  0  0  0  0  0  0  0  0  0  0  0
  130.0190  126.6030   65.3000 C   0  0  0  0  0  0  0  0  0  0  0  0
  129.1020  125.6640   65.5360 F   0  0  0  0  0  0  0  0  0  0  0  0
  130.2830  127.2460   66.4380 F   0  0  0  0  0  0  0  0  0  0  0  0
  129.4810  127.4860   64.4560 F   0  0  0  0  0  0  0  0  0  0  0  0
  131.4180  125.5040   63.4110 C   0  0  0  0  0  0  0  0  0  0  0  0
  130.2920  125.6080   62.4780 C   0  0  0  0  0  0  0  0  0  0  0  0
  129.4020  125.6890   61.7420 N   0  0  0  0  0  0  0  0  0  0  0  0
  128.7510  122.6500   58.2310 N   0  0  0  0  0  0  0  0  0  0  0  0
  1  2  1  0
  2  3  2  0
  3  4  1  0
  4  5  2  0
  5  6  1  0
  6  7  1  0
  7  8  1  0
  8  9  2  0
  8 10  1  0
 10 11  1  0
 11 12  1  0
 12 13  2  0
 13 14  1  0
 14 15  1  0
 14 16  2  0
 16 17  1  0
 17 18  1  0
 18 19  1  0
 18 20  1  0
 18 21  1  0
 17 22  2  0
 22 23  1  0
 23 24  3  0
  6 25  2  0
 25  2  1  0
 22 12  1  0
M  END
>  <Binding energies>  (21) 
[-6.43]

>  <Ligand effiencies>  (21) 
[-0.24730769230769228]

>  <Interactions>  (21) 
["V-B:TYR:539:CE2:9845, V-A:GLY:454:C:4043, V-A:HIS:456:CE1:4066, V-B:TYR:539:CD1:9842, V-B:TYR:539:CZ:9846, V-A:GLY:453:C:4038, V-B:PRO:540:CA:9852, V-A:ARG:545:CG:4919, V-A:ARG:545:CZ:4923, V-A:ARG:545:CD:4920, V-A:GLY:453:CA:4040, V-B:ALA:541:CB:9861, H-A:GLY:454:N:4046, V-B:TYR:539:C:9836, V-A:GLY:454:CA:4045, V-B:PRO:540:N:9853, V-B:PRO:540:CB:9854, V-B:TYR:539:CD2:9843, V-A:GLU:543:CB:4903, V-B:GLU:543:CB:9875, V-B:GLU:543:CD:9877, V-B:GLU:543:CG:9876, V-A:GLU:543:CD:4905, H-A:ARG:545:NH2:4925, H-A:ARG:545:NH1:4924, H-B:TYR:539:OH:9847, V-B:ILE:538:CB:9831"]

$$$$
2f_Grossjean_2025
     RDKit          3D

 24 25  0  0  0  0  0  0  0  0999 V2000
  134.8000  123.4240   61.1580 C   0  0  0  0  0  0  0  0  0  0  0  0
  133.6180  123.4090   62.1100 C   0  0  0  0  0  0  0  0  0  0  0  0
  132.5450  122.5410   61.9270 C   0  0  0  0  0  0  0  0  0  0  0  0
  131.4710  122.5700   62.8300 C   0  0  0  0  0  0  0  0  0  0  0  0
  130.2880  121.6100   62.6030 C   0  0  0  0  0  0  0  0  0  0  0  0
  129.8890  121.0910   63.7660 F   0  0  0  0  0  0  0  0  0  0  0  0
  129.2680  122.2680   62.0510 F   0  0  0  0  0  0  0  0  0  0  0  0
  130.5940  120.5920   61.7960 F   0  0  0  0  0  0  0  0  0  0  0  0
  131.5200  123.4860   63.9120 C   0  0  0  0  0  0  0  0  0  0  0  0
  130.3980  123.5950   64.8480 C   0  0  0  0  0  0  0  0  0  0  0  0
  129.5120  123.6790   65.5880 N   0  0  0  0  0  0  0  0  0  0  0  0
  132.6630  124.3120   64.0330 C   0  0  0  0  0  0  0  0  0  0  0  0
  132.8970  125.5090   65.3320 S   0  0  0  0  0  0  0  0  0  0  0  0
  131.4430  126.6120   65.3550 C   0  0  0  0  0  0  0  0  0  0  0  0
  130.9690  127.0350   66.7520 C   0  0  0  0  0  0  0  0  0  0  0  0
  131.5760  127.8980   67.3880 O   0  0  0  0  0  0  0  0  0  0  0  0
  129.8770  126.3740   67.1970 N   0  0  0  0  0  0  0  0  0  0  0  0
  129.1790  126.5150   68.4110 C   0  0  0  0  0  0  0  0  0  0  0  0
  127.8570  126.0950   68.6460 C   0  0  0  0  0  0  0  0  0  0  0  0
  127.2820  126.2910   69.9030 C   0  0  0  0  0  0  0  0  0  0  0  0
  128.0470  126.9000   70.8990 C   0  0  0  0  0  0  0  0  0  0  0  0
  129.3260  127.3060   70.7010 N   0  0  0  0  0  0  0  0  0  0  0  0
  129.8710  127.1080   69.4730 C   0  0  0  0  0  0  0  0  0  0  0  0
  133.6800  124.2850   63.1380 N   0  0  0  0  0  0  0  0  0  0  0  0
  1  2  1  0
  2  3  2  0
  3  4  1  0
  4  5  1  0
  5  6  1  0
  5  7  1  0
  5  8  1  0
  4  9  2  0
  9 10  1  0
 10 11  3  0
  9 12  1  0
 12 13  1  0
 13 14  1  0
 14 15  1  0
 15 16  2  0
 15 17  1  0
 17 18  1  0
 18 19  2  0
 19 20  1  0
 20 21  2  0
 21 22  1  0
 22 23  2  0
 12 24  2  0
 24  2  1  0
 23 18  1  0
M  END
>  <Binding energies>  (22) 
[-5.98]

>  <Ligand effiencies>  (22) 
[-0.23920000000000002]

>  <Interactions>  (22) 
["V-B:TYR:539:CE2:9845, V-A:HIS:456:CE1:4066, V-A:GLY:453:C:4038, V-A:ARG:545:CZ:4923, V-A:GLY:453:CA:4040, V-B:ALA:541:CB:9861, H-A:GLY:454:N:4046, H-A:TYR:484:OH:4344, V-A:GLY:454:CA:4045, V-B:TYR:539:CD2:9843, V-A:ASP:366:CG:3209, V-A:TYR:484:CE1:4341, V-B:HIS:456:CD2:9036, V-A:GLU:543:CB:4903, V-B:GLY:544:C:9881, V-B:GLU:543:CB:9875, V-B:HIS:456:CE1:9038, V-A:TYR:484:CZ:4343, V-B:GLU:543:CG:9876, V-A:GLU:543:CD:4905, V-A:LEU:475:CD1:4254, V-A:ILE:369:CG1:3234, V-A:LEU:475:CD2:4255, V-A:HIS:456:CD2:4064, V-B:GLU:543:C:9871, H-A:ARG:545:NE:4921, V-B:GLY:544:CA:9883, V-B:GLU:543:CA:9873, V-A:LEU:475:CG:4253"]

$$$$
2g_Grossjean_2025
     RDKit          3D

 25 26  0  0  0  0  0  0  0  0999 V2000
  135.1090  123.5120   60.8860 C   0  0  0  0  0  0  0  0  0  0  0  0
  133.9080  123.3370   61.7940 C   0  0  0  0  0  0  0  0  0  0  0  0
  132.8890  122.4360   61.4920 C   0  0  0  0  0  0  0  0  0  0  0  0
  131.7940  122.3160   62.3610 C   0  0  0  0  0  0  0  0  0  0  0  0
  130.6730  121.3200   62.0050 C   0  0  0  0  0  0  0  0  0  0  0  0
  129.6440  121.9630   61.4490 F   0  0  0  0  0  0  0  0  0  0  0  0
  131.1320  120.4120   61.1430 F   0  0  0  0  0  0  0  0  0  0  0  0
  130.2060  120.6660   63.0700 F   0  0  0  0  0  0  0  0  0  0  0  0
  131.7660  123.1160   63.5320 C   0  0  0  0  0  0  0  0  0  0  0  0
  130.6190  123.0710   64.4430 C   0  0  0  0  0  0  0  0  0  0  0  0
  129.7130  123.0340   65.1620 N   0  0  0  0  0  0  0  0  0  0  0  0
  132.8610  123.9820   63.7730 C   0  0  0  0  0  0  0  0  0  0  0  0
  132.9980  125.0340   65.2010 S   0  0  0  0  0  0  0  0  0  0  0  0
  131.7530  126.3580   65.0290 C   0  0  0  0  0  0  0  0  0  0  0  0
  130.5680  126.2540   65.9990 C   0  0  0  0  0  0  0  0  0  0  0  0
  130.4230  125.2750   66.7330 O   0  0  0  0  0  0  0  0  0  0  0  0
  129.7150  127.2940   65.9820 N   0  0  0  0  0  0  0  0  0  0  0  0
  128.5210  127.4280   66.8190 C   0  0  0  0  0  0  0  0  0  0  0  0
  128.7750  127.2380   68.3110 C   0  0  0  0  0  0  0  0  0  0  0  0
  127.9290  126.4160   69.0610 C   0  0  0  0  0  0  0  0  0  0  0  0
  128.1810  126.2110   70.4160 C   0  0  0  0  0  0  0  0  0  0  0  0
  129.2820  126.8190   71.0120 C   0  0  0  0  0  0  0  0  0  0  0  0
  130.1370  127.6290   70.2660 C   0  0  0  0  0  0  0  0  0  0  0  0
  129.8860  127.8340   68.9130 C   0  0  0  0  0  0  0  0  0  0  0  0
  133.8990  124.1020   62.9100 N   0  0  0  0  0  0  0  0  0  0  0  0
  1  2  1  0
  2  3  2  0
  3  4  1  0
  4  5  1  0
  5  6  1  0
  5  7  1  0
  5  8  1  0
  4  9  2  0
  9 10  1  0
 10 11  3  0
  9 12  1  0
 12 13  1  0
 13 14  1  0
 14 15  1  0
 15 16  2  0
 15 17  1  0
 17 18  1  0
 18 19  1  0
 19 20  2  0
 20 21  1  0
 21 22  2  0
 22 23  1  0
 23 24  2  0
 12 25  2  0
 25  2  1  0
 24 19  1  0
M  END
>  <Binding energies>  (23) 
[-6.79]

>  <Ligand effiencies>  (23) 
[-0.2611538461538462]

>  <Interactions>  (23) 
["V-B:TYR:539:CE2:9845, V-A:HIS:456:CE1:4066, V-A:GLY:453:C:4038, V-A:ARG:545:CZ:4923, V-A:GLY:453:CA:4040, V-B:ALA:541:CB:9861, H-A:GLY:454:N:4046, H-A:TYR:484:OH:4344, V-A:GLY:454:CA:4045, V-B:TYR:539:CD2:9843, V-A:ASP:366:CG:3209, V-A:TYR:484:CE1:4341, V-A:GLU:543:CB:4903, V-B:GLY:544:C:9881, V-B:GLU:543:CB:9875, V-B:HIS:456:CE1:9038, V-A:TYR:484:CZ:4343, V-A:GLU:543:CD:4905, V-A:ILE:369:CB:3232, V-A:LEU:475:CD1:4254, V-A:ILE:369:CG1:3234, H-A:GLU:543:OE2:4907, H-A:GLU:543:OE1:4906, V-A:LEU:475:CD2:4255, V-A:HIS:456:CD2:4064, V-B:GLU:543:C:9871, V-A:ASP:366:CA:3206, V-A:LEU:475:CG:4253"]

$$$$
2h_Grossjean_2025
     RDKit          3D

 31 32  0  0  0  0  0  0  0  0999 V2000
  128.3320  127.5250   74.3610 C   0  0  0  0  0  0  0  0  0  0  0  0
  129.3280  127.1740   73.4070 O   0  0  0  0  0  0  0  0  0  0  0  0
  128.9670  126.9940   72.0830 C   0  0  0  0  0  0  0  0  0  0  0  0
  128.0000  126.0700   71.6540 C   0  0  0  0  0  0  0  0  0  0  0  0
  127.6820  125.9510   70.3040 C   0  0  0  0  0  0  0  0  0  0  0  0
  128.3210  126.7480   69.3520 C   0  0  0  0  0  0  0  0  0  0  0  0
  127.9420  126.6130   67.8790 C   0  0  0  0  0  0  0  0  0  0  0  0
  129.0790  126.7330   66.9660 N   0  0  0  0  0  0  0  0  0  0  0  0
  129.8540  125.7110   66.5620 C   0  0  0  0  0  0  0  0  0  0  0  0
  129.7330  124.5610   66.9890 O   0  0  0  0  0  0  0  0  0  0  0  0
  130.9150  126.0600   65.5090 C   0  0  0  0  0  0  0  0  0  0  0  0
  132.4390  125.0610   65.5880 S   0  0  0  0  0  0  0  0  0  0  0  0
  132.4870  124.0790   64.1040 C   0  0  0  0  0  0  0  0  0  0  0  0
  133.6060  124.2670   63.3620 N   0  0  0  0  0  0  0  0  0  0  0  0
  133.7370  123.5840   62.2030 C   0  0  0  0  0  0  0  0  0  0  0  0
  135.0100  123.8490   61.4220 C   0  0  0  0  0  0  0  0  0  0  0  0
  132.7720  122.6900   61.7430 C   0  0  0  0  0  0  0  0  0  0  0  0
  131.6170  122.4670   62.5080 C   0  0  0  0  0  0  0  0  0  0  0  0
  130.5650  121.4690   61.9870 C   0  0  0  0  0  0  0  0  0  0  0  0
  129.5900  122.1230   61.3560 F   0  0  0  0  0  0  0  0  0  0  0  0
  131.0740  120.5840   61.1260 F   0  0  0  0  0  0  0  0  0  0  0  0
  130.0400  120.7840   63.0030 F   0  0  0  0  0  0  0  0  0  0  0  0
  131.4680  123.1710   63.7300 C   0  0  0  0  0  0  0  0  0  0  0  0
  130.3090  122.9300   64.5930 C   0  0  0  0  0  0  0  0  0  0  0  0
  129.3940  122.7350   65.2750 N   0  0  0  0  0  0  0  0  0  0  0  0
  129.3070  127.6580   69.7640 C   0  0  0  0  0  0  0  0  0  0  0  0
  129.9430  128.4440   68.8330 O   0  0  0  0  0  0  0  0  0  0  0  0
  131.3110  128.1190   68.6270 C   0  0  0  0  0  0  0  0  0  0  0  0
  129.6120  127.7910   71.1290 C   0  0  0  0  0  0  0  0  0  0  0  0
  130.5630  128.6950   71.5380 O   0  0  0  0  0  0  0  0  0  0  0  0
  130.0540  129.7530   72.3390 C   0  0  0  0  0  0  0  0  0  0  0  0
  1  2  1  0
  2  3  1  0
  3  4  2  0
  4  5  1  0
  5  6  2  0
  6  7  1  0
  7  8  1  0
  8  9  1  0
  9 10  2  0
  9 11  1  0
 11 12  1  0
 12 13  1  0
 13 14  2  0
 14 15  1  0
 15 16  1  0
 15 17  2  0
 17 18  1  0
 18 19  1  0
 19 20  1  0
 19 21  1  0
 19 22  1  0
 18 23  2  0
 23 24  1  0
 24 25  3  0
  6 26  1  0
 26 27  1  0
 27 28  1  0
 26 29  2  0
 29 30  1  0
 30 31  1  0
 29  3  1  0
 23 13  1  0
M  END
>  <Binding energies>  (24) 
[-6.34]

>  <Ligand effiencies>  (24) 
[-0.198125]

>  <Interactions>  (24) 
["V-B:TYR:539:CE2:9845, V-A:HIS:456:CE1:4066, V-A:GLY:453:C:4038, V-A:ARG:545:CG:4919, V-A:GLY:453:CA:4040, V-B:ALA:541:CB:9861, H-A:GLY:454:N:4046, H-A:TYR:484:OH:4344, V-A:GLY:454:CA:4045, V-B:TYR:539:CD2:9843, V-A:ASP:366:CG:3209, V-A:TYR:484:CE1:4341, V-B:HIS:456:CD2:9036, V-A:GLU:543:CB:4903, V-A:LYS:547:CE:4947, H-A:LYS:547:NZ:4948, V-B:GLY:544:C:9881, V-B:LYS:547:CE:9919, V-B:GLU:543:CB:9875, V-A:GLU:543:C:4899, V-B:HIS:456:CE1:9038, V-A:TYR:484:CZ:4343, V-B:GLU:543:CG:9876, V-A:GLY:544:C:4909, V-A:LEU:475:CD1:4254, V-A:ILE:369:CG1:3234, H-A:GLU:543:OE1:4906, V-A:LEU:475:CD2:4255, V-B:GLU:543:C:9871, V-B:GLY:544:CA:9883, V-A:LEU:475:CG:4253, V-A:GLY:544:CA:4911"]

$$$$
2i_Grossjean_2025
     RDKit          3D

 23 24  0  0  0  0  0  0  0  0999 V2000
  128.7390  126.6230   62.5450 C   0  0  0  0  0  0  0  0  0  0  0  0
  130.0270  126.2400   63.2490 C   0  0  0  0  0  0  0  0  0  0  0  0
  130.9510  125.3800   62.6630 C   0  0  0  0  0  0  0  0  0  0  0  0
  132.1290  125.0580   63.3540 C   0  0  0  0  0  0  0  0  0  0  0  0
  133.1400  124.1040   62.6910 C   0  0  0  0  0  0  0  0  0  0  0  0
  132.7700  123.8470   61.4360 F   0  0  0  0  0  0  0  0  0  0  0  0
  134.3530  124.6570   62.6800 F   0  0  0  0  0  0  0  0  0  0  0  0
  133.2400  122.9340   63.3270 F   0  0  0  0  0  0  0  0  0  0  0  0
  132.3380  125.6260   64.6370 C   0  0  0  0  0  0  0  0  0  0  0  0
  133.5520  125.3250   65.4030 C   0  0  0  0  0  0  0  0  0  0  0  0
  134.5100  125.0880   66.0070 N   0  0  0  0  0  0  0  0  0  0  0  0
  131.3460  126.4880   65.1580 C   0  0  0  0  0  0  0  0  0  0  0  0
  131.4970  127.2540   66.7640 S   0  0  0  0  0  0  0  0  0  0  0  0
  129.8420  127.7920   67.2910 C   0  0  0  0  0  0  0  0  0  0  0  0
  129.4270  127.1670   68.6250 C   0  0  0  0  0  0  0  0  0  0  0  0
  129.0040  126.0100   68.6380 O   0  0  0  0  0  0  0  0  0  0  0  0
  129.5370  127.9660   69.7080 N   0  0  0  0  0  0  0  0  0  0  0  0
  129.2100  127.6390   71.0140 C   0  0  0  0  0  0  0  0  0  0  0  0
  128.1510  126.8680   71.5140 C   0  0  0  0  0  0  0  0  0  0  0  0
  128.3250  126.8780   72.8790 C   0  0  0  0  0  0  0  0  0  0  0  0
  129.4270  127.6060   73.1800 O   0  0  0  0  0  0  0  0  0  0  0  0
  129.9800  128.0760   71.9870 N   0  0  0  0  0  0  0  0  0  0  0  0
  130.2130  126.7880   64.4710 N   0  0  0  0  0  0  0  0  0  0  0  0
  1  2  1  0
  2  3  2  0
  3  4  1  0
  4  5  1  0
  5  6  1  0
  5  7  1  0
  5  8  1  0
  4  9  2  0
  9 10  1  0
 10 11  3  0
  9 12  1  0
 12 13  1  0
 13 14  1  0
 14 15  1  0
 15 16  2  0
 15 17  1  0
 17 18  1  0
 18 19  1  0
 19 20  2  0
 20 21  1  0
 21 22  1  0
 12 23  2  0
 23  2  1  0
 22 18  2  0
M  END
>  <Binding energies>  (25) 
[-6.34]

>  <Ligand effiencies>  (25) 
[-0.26416666666666666]

>  <Interactions>  (25) 
["V-A:HIS:456:CE1:4066, V-A:GLY:453:C:4038, V-A:ARG:545:CG:4919, V-A:ARG:545:CZ:4923, V-A:ARG:545:CD:4920, V-A:GLY:453:CA:4040, H-A:GLY:454:N:4046, H-A:TYR:484:OH:4344, V-A:GLY:454:CA:4045, V-A:ASP:366:CG:3209, V-B:HIS:456:CD2:9036, V-A:GLU:543:CB:4903, H-A:LYS:547:NZ:4948, V-B:LYS:547:CE:9919, V-B:GLU:543:CD:9877, V-B:HIS:456:CE1:9038, V-A:GLU:543:CD:4905, V-A:LEU:475:CD1:4254, H-A:ARG:545:NE:4921, H-A:GLU:543:O:4900, H-B:HIS:456:NE2:9039, H-A:HIS:456:ND1:4063"]

$$$$
2k_Grossjean_2025
     RDKit          3D

 28 28  0  0  0  0  0  0  0  0999 V2000
  124.3480  124.6160   58.3780 C   0  0  0  0  0  0  0  0  0  0  0  0
  124.5190  124.9850   57.0180 O   0  0  0  0  0  0  0  0  0  0  0  0
  125.3530  124.0930   56.2900 C   0  0  0  0  0  0  0  0  0  0  0  0
  125.3720  122.7220   56.9790 C   0  0  0  0  0  0  0  0  0  0  0  0
  126.5090  121.9960   56.5340 O   0  0  0  0  0  0  0  0  0  0  0  0
  127.7490  122.5010   57.0140 C   0  0  0  0  0  0  0  0  0  0  0  0
  127.5050  123.1790   58.3690 C   0  0  0  0  0  0  0  0  0  0  0  0
  127.8700  122.2600   59.3870 O   0  0  0  0  0  0  0  0  0  0  0  0
  129.1800  122.4260   59.9090 C   0  0  0  0  0  0  0  0  0  0  0  0
  129.1530  122.1480   61.4230 C   0  0  0  0  0  0  0  0  0  0  0  0
  129.2690  123.3650   62.2300 N   0  0  0  0  0  0  0  0  0  0  0  0
  129.5380  123.4080   63.5490 C   0  0  0  0  0  0  0  0  0  0  0  0
  129.7490  122.4030   64.2310 O   0  0  0  0  0  0  0  0  0  0  0  0
  129.5470  124.8070   64.1820 C   0  0  0  0  0  0  0  0  0  0  0  0
  130.3540  126.1100   63.1890 S   0  0  0  0  0  0  0  0  0  0  0  0
  131.2300  125.3590   61.8230 C   0  0  0  0  0  0  0  0  0  0  0  0
  130.6160  125.4390   60.6150 N   0  0  0  0  0  0  0  0  0  0  0  0
  131.2190  124.8880   59.5380 C   0  0  0  0  0  0  0  0  0  0  0  0
  130.4650  125.0080   58.2280 C   0  0  0  0  0  0  0  0  0  0  0  0
  132.4540  124.2510   59.6130 C   0  0  0  0  0  0  0  0  0  0  0  0
  133.1120  124.1640   60.8500 C   0  0  0  0  0  0  0  0  0  0  0  0
  134.4810  123.4600   60.9150 C   0  0  0  0  0  0  0  0  0  0  0  0
  135.1010  123.4280   59.7340 F   0  0  0  0  0  0  0  0  0  0  0  0
  135.2820  124.0970   61.7710 F   0  0  0  0  0  0  0  0  0  0  0  0
  134.3270  122.2000   61.3220 F   0  0  0  0  0  0  0  0  0  0  0  0
  132.4860  124.7310   61.9900 C   0  0  0  0  0  0  0  0  0  0  0  0
  133.1260  124.6660   63.3080 C   0  0  0  0  0  0  0  0  0  0  0  0
  133.6310  124.6150   64.3480 N   0  0  0  0  0  0  0  0  0  0  0  0
  1  2  1  0
  2  3  1  0
  3  4  1  0
  4  5  1  0
  5  6  1  0
  6  7  1  0
  7  8  1  0
  8  9  1  0
  9 10  1  0
 10 11  1  0
 11 12  1  0
 12 13  2  0
 12 14  1  0
 14 15  1  0
 15 16  1  0
 16 17  2  0
 17 18  1  0
 18 19  1  0
 18 20  2  0
 20 21  1  0
 21 22  1  0
 22 23  1  0
 22 24  1  0
 22 25  1  0
 21 26  2  0
 26 27  1  0
 27 28  3  0
 26 16  1  0
M  END
>  <Binding energies>  (26) 
[-5.24]

>  <Ligand effiencies>  (26) 
[-0.1806896551724138]

>  <Interactions>  (26) 
["V-B:TYR:539:CE2:9845, V-B:TYR:539:CD1:9842, V-B:TYR:539:CZ:9846, V-A:GLY:453:C:4038, V-B:PRO:540:CA:9852, V-A:ARG:545:CZ:4923, V-B:TYR:539:CE1:9844, V-A:GLY:453:CA:4040, V-B:ALA:541:CB:9861, H-A:GLY:454:N:4046, V-B:TYR:539:C:9836, H-A:TYR:484:OH:4344, V-A:GLY:454:CA:4045, V-B:PRO:540:N:9853, V-B:PRO:540:CB:9854, V-B:TYR:539:CD2:9843, V-A:ASP:366:CG:3209, H-B:GLU:543:OE2:9879, V-B:GLU:543:CD:9877, V-B:GLU:543:CG:9876, V-A:ILE:369:CB:3232, V-A:ILE:369:CG2:3233, V-A:ILE:369:CG1:3234, H-B:TYR:539:N:9839, V-B:PRO:540:CD:9856, V-A:ASP:366:CB:3208, V-B:MET:535:CE:9804, V-B:LEU:363:CD1:8157, H-B:TYR:531:OH:9764, V-A:ASP:366:CA:3206, V-A:ASP:366:C:3204, V-B:PRO:540:CG:9855"]

$$$$
3aa_Grossjean_2025
     RDKit          3D

 34 36  0  0  0  0  0  0  0  0999 V2000
  125.2130  127.6320   73.9250 C   0  0  0  0  0  0  0  0  0  0  0  0
  126.6840  128.0010   73.7120 C   0  0  0  0  0  0  0  0  0  0  0  0
  127.2750  127.0850   72.7990 O   0  0  0  0  0  0  0  0  0  0  0  0
  128.5020  127.3220   72.2680 C   0  0  0  0  0  0  0  0  0  0  0  0
  129.4630  127.7270   72.9290 O   0  0  0  0  0  0  0  0  0  0  0  0
  128.5710  127.0570   70.7900 C   0  0  0  0  0  0  0  0  0  0  0  0
  127.5640  126.3540   70.1140 C   0  0  0  0  0  0  0  0  0  0  0  0
  127.6570  126.1300   68.7420 C   0  0  0  0  0  0  0  0  0  0  0  0
  128.7510  126.6080   68.0200 C   0  0  0  0  0  0  0  0  0  0  0  0
  128.7460  126.3310   66.6390 N   0  0  0  0  0  0  0  0  0  0  0  0
  129.7840  126.1300   65.7970 C   0  0  0  0  0  0  0  0  0  0  0  0
  130.9750  126.1810   66.1070 O   0  0  0  0  0  0  0  0  0  0  0  0
  129.4070  125.8300   64.3460 C   0  0  0  0  0  0  0  0  0  0  0  0
  130.6270  126.5040   63.1780 S   0  0  0  0  0  0  0  0  0  0  0  0
  131.1390  125.1630   62.1280 C   0  0  0  0  0  0  0  0  0  0  0  0
  130.2430  124.8600   61.1580 N   0  0  0  0  0  0  0  0  0  0  0  0
  130.5090  123.8530   60.2860 C   0  0  0  0  0  0  0  0  0  0  0  0
  129.4760  123.5890   59.2330 C   0  0  0  0  0  0  0  0  0  0  0  0
  129.4980  124.2920   58.0180 C   0  0  0  0  0  0  0  0  0  0  0  0
  128.5420  124.0520   57.0340 C   0  0  0  0  0  0  0  0  0  0  0  0
  127.5490  123.1030   57.2530 C   0  0  0  0  0  0  0  0  0  0  0  0
  127.5070  122.3920   58.4480 C   0  0  0  0  0  0  0  0  0  0  0  0
  128.4650  122.6330   59.4280 C   0  0  0  0  0  0  0  0  0  0  0  0
  131.7010  123.1260   60.3700 C   0  0  0  0  0  0  0  0  0  0  0  0
  132.6360  123.4100   61.3770 C   0  0  0  0  0  0  0  0  0  0  0  0
  133.9320  122.5790   61.4440 C   0  0  0  0  0  0  0  0  0  0  0  0
  133.9800  121.7790   62.5110 F   0  0  0  0  0  0  0  0  0  0  0  0
  134.0390  121.8070   60.3620 F   0  0  0  0  0  0  0  0  0  0  0  0
  134.9890  123.3900   61.5020 F   0  0  0  0  0  0  0  0  0  0  0  0
  132.3470  124.4500   62.2940 C   0  0  0  0  0  0  0  0  0  0  0  0
  133.2600  124.7510   63.4010 C   0  0  0  0  0  0  0  0  0  0  0  0
  133.9800  124.9890   64.2750 N   0  0  0  0  0  0  0  0  0  0  0  0
  129.7690  127.3010   68.6930 C   0  0  0  0  0  0  0  0  0  0  0  0
  129.6750  127.5210   70.0630 C   0  0  0  0  0  0  0  0  0  0  0  0
  1  2  1  0
  2  3  1  0
  3  4  1  0
  4  5  2  0
  4  6  1  0
  6  7  2  0
  7  8  1  0
  8  9  2  0
  9 10  1  0
 10 11  1  0
 11 12  2  0
 11 13  1  0
 13 14  1  0
 14 15  1  0
 15 16  2  0
 16 17  1  0
 17 18  1  0
 18 19  2  0
 19 20  1  0
 20 21  2  0
 21 22  1  0
 22 23  2  0
 17 24  2  0
 24 25  1  0
 25 26  1  0
 26 27  1  0
 26 28  1  0
 26 29  1  0
 25 30  2  0
 30 31  1  0
 31 32  3  0
  9 33  1  0
 33 34  2  0
 34  6  1  0
 30 15  1  0
 23 18  1  0
M  END
>  <Binding energies>  (27) 
[-8.83]

>  <Ligand effiencies>  (27) 
[-0.2522857142857143]

>  <Interactions>  (27) 
["V-B:TYR:539:CE2:9845, V-A:HIS:456:CE1:4066, V-B:TYR:539:CZ:9846, V-A:GLY:453:C:4038, V-B:PRO:540:CA:9852, V-A:ARG:545:CZ:4923, V-B:TYR:539:CE1:9844, V-A:GLY:453:CA:4040, H-A:GLY:454:N:4046, V-B:TYR:539:C:9836, V-A:GLY:454:CA:4045, V-B:PRO:540:N:9853, V-B:TYR:539:CD2:9843, H-B:GLU:543:OE2:9879, V-B:HIS:456:CD2:9036, V-B:LYS:547:CD:9918, H-A:LYS:547:NZ:4948, V-B:GLY:544:C:9881, V-B:LYS:547:CE:9919, V-B:GLU:543:CB:9875, V-B:GLU:543:CD:9877, V-B:HIS:456:CB:9033, V-B:HIS:456:CE1:9038, V-B:GLU:543:CG:9876, H-A:ARG:545:NH2:4925, V-A:ILE:369:CB:3232, H-A:ARG:545:NH1:4924, V-A:LEU:475:CD1:4254, V-A:ILE:369:CG2:3233, V-A:ILE:369:CG1:3234, V-B:MET:535:CE:9804, V-B:GLU:543:C:9871, H-B:GLU:543:OE1:9878, H-A:ARG:545:NE:4921, V-B:HIS:456:CG:9034, V-B:GLU:543:CA:9873"]

$$$$
3ad_Grossjean_2025
     RDKit          3D

 29 31  0  0  0  0  0  0  0  0999 V2000
  131.3540  122.3650   64.2120 N   0  0  0  0  0  0  0  0  0  0  0  0
  130.6550  122.4140   63.2910 C   0  0  0  0  0  0  0  0  0  0  0  0
  129.7690  122.4720   62.1240 C   0  0  0  0  0  0  0  0  0  0  0  0
  129.5280  121.3180   61.3400 C   0  0  0  0  0  0  0  0  0  0  0  0
  130.1310  119.9410   61.6790 C   0  0  0  0  0  0  0  0  0  0  0  0
  131.4500  119.8910   61.4840 F   0  0  0  0  0  0  0  0  0  0  0  0
  129.9010  119.6470   62.9600 F   0  0  0  0  0  0  0  0  0  0  0  0
  129.5790  118.9980   60.9130 F   0  0  0  0  0  0  0  0  0  0  0  0
  128.7090  121.4370   60.2070 C   0  0  0  0  0  0  0  0  0  0  0  0
  128.1510  122.6730   59.8640 C   0  0  0  0  0  0  0  0  0  0  0  0
  127.2820  122.8600   58.6550 C   0  0  0  0  0  0  0  0  0  0  0  0
  126.0600  123.5440   58.7500 C   0  0  0  0  0  0  0  0  0  0  0  0
  125.2490  123.7220   57.6320 C   0  0  0  0  0  0  0  0  0  0  0  0
  125.6520  123.2150   56.4000 C   0  0  0  0  0  0  0  0  0  0  0  0
  126.8590  122.5360   56.2800 C   0  0  0  0  0  0  0  0  0  0  0  0
  127.6680  122.3610   57.4000 C   0  0  0  0  0  0  0  0  0  0  0  0
  128.3900  123.7770   60.6150 N   0  0  0  0  0  0  0  0  0  0  0  0
  129.1590  123.6830   61.7250 C   0  0  0  0  0  0  0  0  0  0  0  0
  129.3540  125.2240   62.5920 S   0  0  0  0  0  0  0  0  0  0  0  0
  131.1120  125.3800   63.0280 C   0  0  0  0  0  0  0  0  0  0  0  0
  131.3100  125.9000   64.4540 C   0  0  0  0  0  0  0  0  0  0  0  0
  132.4500  126.1500   64.8470 O   0  0  0  0  0  0  0  0  0  0  0  0
  130.1810  126.0440   65.1800 N   0  0  0  0  0  0  0  0  0  0  0  0
  130.0100  126.5050   66.4990 C   0  0  0  0  0  0  0  0  0  0  0  0
  129.0400  125.8370   67.2530 C   0  0  0  0  0  0  0  0  0  0  0  0
  128.7890  126.2160   68.5690 C   0  0  0  0  0  0  0  0  0  0  0  0
  129.5040  127.2680   69.1320 C   0  0  0  0  0  0  0  0  0  0  0  0
  130.4680  127.9470   68.3910 C   0  0  0  0  0  0  0  0  0  0  0  0
  130.7230  127.5710   67.0740 C   0  0  0  0  0  0  0  0  0  0  0  0
  1  2  3  0
  2  3  1  0
  3  4  2  0
  4  5  1  0
  5  6  1  0
  5  7  1  0
  5  8  1  0
  4  9  1  0
  9 10  2  0
 10 11  1  0
 11 12  2  0
 12 13  1  0
 13 14  2  0
 14 15  1  0
 15 16  2  0
 10 17  1  0
 17 18  2  0
 18 19  1  0
 19 20  1  0
 20 21  1  0
 21 22  2  0
 21 23  1  0
 23 24  1  0
 24 25  2  0
 25 26  1  0
 26 27  2  0
 27 28  1  0
 28 29  2  0
 18  3  1  0
 29 24  1  0
 16 11  1  0
M  END
>  <Binding energies>  (28) 
[-7.31]

>  <Ligand effiencies>  (28) 
[-0.24366666666666664]

>  <Interactions>  (28) 
["V-B:PRO:540:C:9850, V-B:TYR:539:CE2:9845, V-A:HIS:456:CE1:4066, V-B:TYR:539:CG:9841, V-B:TYR:539:CD1:9842, V-B:PRO:540:CA:9852, V-B:TYR:539:CE1:9844, V-B:ALA:541:CB:9861, V-B:TYR:539:C:9836, H-A:TYR:484:OH:4344, V-B:PRO:540:N:9853, V-B:PRO:540:CB:9854, V-B:TYR:539:CD2:9843, V-A:GLU:543:CB:4903, V-B:GLU:543:CB:9875, V-A:GLU:543:C:4899, V-B:GLU:543:CG:9876, V-A:GLU:543:CD:4905, H-A:ARG:545:NH2:4925, V-A:LEU:475:CD1:4254, V-A:LEU:475:CD2:4255, H-B:GLU:543:OE1:9878, H-A:ARG:545:NE:4921, V-B:LEU:363:CD1:8157, V-B:ALA:541:CA:9859, V-B:ILE:538:CB:9831, V-A:PRO:482:CG:4323, V-A:LEU:475:CG:4253, V-A:TRP:381:CH2:3368, V-A:TRP:381:CZ2:3366, V-A:PRO:482:CB:4322"]

$$$$
3ai_Grossjean_2025
     RDKit          3D

 28 30  0  0  0  0  0  0  0  0999 V2000
  128.6610  127.4890   62.5340 N   0  0  0  0  0  0  0  0  0  0  0  0
  128.7530  127.3790   63.6830 C   0  0  0  0  0  0  0  0  0  0  0  0
  128.8700  127.2400   65.1370 C   0  0  0  0  0  0  0  0  0  0  0  0
  129.5210  126.1180   65.7070 C   0  0  0  0  0  0  0  0  0  0  0  0
  130.1750  125.0140   64.8540 C   0  0  0  0  0  0  0  0  0  0  0  0
  129.3500  124.5160   63.9310 F   0  0  0  0  0  0  0  0  0  0  0  0
  131.2410  125.5030   64.2180 F   0  0  0  0  0  0  0  0  0  0  0  0
  130.5620  124.0020   65.6300 F   0  0  0  0  0  0  0  0  0  0  0  0
  129.5650  126.0070   67.1050 C   0  0  0  0  0  0  0  0  0  0  0  0
  128.9740  126.9850   67.9120 C   0  0  0  0  0  0  0  0  0  0  0  0
  128.9820  126.9110   69.4090 C   0  0  0  0  0  0  0  0  0  0  0  0
  129.9500  127.6020   70.1550 C   0  0  0  0  0  0  0  0  0  0  0  0
  129.9610  127.5420   71.5460 C   0  0  0  0  0  0  0  0  0  0  0  0
  128.9990  126.7890   72.2110 C   0  0  0  0  0  0  0  0  0  0  0  0
  128.0270  126.0980   71.4960 C   0  0  0  0  0  0  0  0  0  0  0  0
  128.0190  126.1600   70.1050 C   0  0  0  0  0  0  0  0  0  0  0  0
  128.3450  128.0540   67.3610 N   0  0  0  0  0  0  0  0  0  0  0  0
  128.3100  128.1960   66.0140 C   0  0  0  0  0  0  0  0  0  0  0  0
  127.4630  129.6680   65.4780 S   0  0  0  0  0  0  0  0  0  0  0  0
  125.6690  129.3620   65.6140 C   0  0  0  0  0  0  0  0  0  0  0  0
  124.8020  130.1240   64.6010 C   0  0  0  0  0  0  0  0  0  0  0  0
  123.5920  129.9010   64.5120 O   0  0  0  0  0  0  0  0  0  0  0  0
  125.4740  131.0240   63.8490 N   0  0  0  0  0  0  0  0  0  0  0  0
  124.9520  131.8540   62.8650 C   0  0  0  0  0  0  0  0  0  0  0  0
  124.1930  131.3840   61.7940 C   0  0  0  0  0  0  0  0  0  0  0  0
  123.8770  132.5030   61.0600 C   0  0  0  0  0  0  0  0  0  0  0  0
  124.4160  133.5920   61.6560 O   0  0  0  0  0  0  0  0  0  0  0  0
  125.0950  133.1680   62.8000 N   0  0  0  0  0  0  0  0  0  0  0  0
  1  2  3  0
  2  3  1  0
  3  4  2  0
  4  5  1  0
  5  6  1  0
  5  7  1  0
  5  8  1  0
  4  9  1  0
  9 10  2  0
 10 11  1  0
 11 12  2  0
 12 13  1  0
 13 14  2  0
 14 15  1  0
 15 16  2  0
 10 17  1  0
 17 18  2  0
 18 19  1  0
 19 20  1  0
 20 21  1  0
 21 22  2  0
 21 23  1  0
 23 24  1  0
 24 25  1  0
 25 26  2  0
 26 27  1  0
 27 28  1  0
 18  3  1  0
 28 24  2  0
 16 11  1  0
M  END
>  <Binding energies>  (29) 
[-6.86]

>  <Ligand effiencies>  (29) 
[-0.23655172413793105]

>  <Interactions>  (29) 
["V-A:HIS:456:CE1:4066, V-A:TYR:484:CE1:4341, V-B:GLY:544:C:9881, V-B:LYS:547:CE:9919, V-B:GLU:543:CB:9875, V-B:GLU:543:CD:9877, V-B:HIS:456:CE1:9038, V-A:TYR:484:CZ:4343, V-B:GLU:543:CG:9876, V-A:GLU:543:CD:4905, H-B:GLY:454:N:9018, V-B:ARG:545:CZ:9895, H-B:TYR:484:OH:9316, V-A:HIS:456:CD2:4064, H-B:ARG:545:NH2:9897, V-B:GLU:543:C:9871, V-B:ASP:366:CG:8181, V-B:ILE:369:CD1:8207, V-B:ILE:369:CG2:8205, H-B:ARG:545:NH1:9896, V-B:ILE:369:CB:8204, H-B:ARG:545:NE:9893"]

$$$$
3aj_Grossjean_2025
     RDKit          3D

 28 30  0  0  0  0  0  0  0  0999 V2000
  128.0460  128.1910   62.5260 N   0  0  0  0  0  0  0  0  0  0  0  0
  128.3210  127.9990   63.6330 C   0  0  0  0  0  0  0  0  0  0  0  0
  128.6720  127.7530   65.0350 C   0  0  0  0  0  0  0  0  0  0  0  0
  129.5610  126.7080   65.3860 C   0  0  0  0  0  0  0  0  0  0  0  0
  130.2390  125.8050   64.3370 C   0  0  0  0  0  0  0  0  0  0  0  0
  129.3640  125.2190   63.5160 F   0  0  0  0  0  0  0  0  0  0  0  0
  131.0750  126.5240   63.5880 F   0  0  0  0  0  0  0  0  0  0  0  0
  130.9260  124.8370   64.9440 F   0  0  0  0  0  0  0  0  0  0  0  0
  129.8270  126.4840   66.7460 C   0  0  0  0  0  0  0  0  0  0  0  0
  129.2210  127.2770   67.7260 C   0  0  0  0  0  0  0  0  0  0  0  0
  129.4630  127.0740   69.1900 C   0  0  0  0  0  0  0  0  0  0  0  0
  128.7190  126.1310   69.9150 C   0  0  0  0  0  0  0  0  0  0  0  0
  128.9410  125.9340   71.2760 C   0  0  0  0  0  0  0  0  0  0  0  0
  129.9140  126.6820   71.9310 C   0  0  0  0  0  0  0  0  0  0  0  0
  130.6660  127.6220   71.2350 C   0  0  0  0  0  0  0  0  0  0  0  0
  130.4420  127.8140   69.8750 C   0  0  0  0  0  0  0  0  0  0  0  0
  128.3640  128.2730   67.3840 N   0  0  0  0  0  0  0  0  0  0  0  0
  128.1100  128.5240   66.0780 C   0  0  0  0  0  0  0  0  0  0  0  0
  126.9830  129.8780   65.8220 S   0  0  0  0  0  0  0  0  0  0  0  0
  125.3960  129.1840   65.2480 C   0  0  0  0  0  0  0  0  0  0  0  0
  124.7870  129.8820   64.0220 C   0  0  0  0  0  0  0  0  0  0  0  0
  123.6100  130.2490   64.0250 O   0  0  0  0  0  0  0  0  0  0  0  0
  125.6400  130.0460   62.9860 N   0  0  0  0  0  0  0  0  0  0  0  0
  125.3560  130.6480   61.7670 C   0  0  0  0  0  0  0  0  0  0  0  0
  125.8180  130.3220   60.5790 N   0  0  0  0  0  0  0  0  0  0  0  0
  125.3330  131.1080   59.6370 C   0  0  0  0  0  0  0  0  0  0  0  0
  124.4550  132.1030   60.0590 C   0  0  0  0  0  0  0  0  0  0  0  0
  124.2620  131.9940   61.7820 S   0  0  0  0  0  0  0  0  0  0  0  0
  1  2  3  0
  2  3  1  0
  3  4  2  0
  4  5  1  0
  5  6  1  0
  5  7  1  0
  5  8  1  0
  4  9  1  0
  9 10  2  0
 10 11  1  0
 11 12  2  0
 12 13  1  0
 13 14  2  0
 14 15  1  0
 15 16  2  0
 10 17  1  0
 17 18  2  0
 18 19  1  0
 19 20  1  0
 20 21  1  0
 21 22  2  0
 21 23  1  0
 23 24  1  0
 24 25  2  0
 25 26  1  0
 26 27  2  0
 27 28  1  0
 18  3  1  0
 28 24  1  0
 16 11  1  0
M  END
>  <Binding energies>  (30) 
[-6.59]

>  <Ligand effiencies>  (30) 
[-0.22724137931034483]

>  <Interactions>  (30) 
["V-A:HIS:456:CE1:4066, V-A:ARG:545:CZ:4923, V-B:GLU:543:CD:9877, V-A:GLU:543:C:4899, V-B:HIS:456:CE1:9038, V-B:GLU:543:CG:9876, V-A:GLY:544:C:4909, V-A:GLU:543:CD:4905, H-B:GLY:454:N:9018, V-B:ARG:545:CZ:9895, H-B:TYR:484:OH:9316, V-A:HIS:456:CD2:4064, V-B:ASP:366:CG:8181, V-B:ILE:369:CD1:8207, V-B:ILE:369:CG2:8205, H-B:ARG:545:NH1:9896"]

$$$$
3ak_Grossjean_2025
     RDKit          3D

 33 34  0  0  0  0  0  0  0  0999 V2000
  136.8720  117.5040   57.3930 C   0  0  0  0  0  0  0  0  0  0  0  0
  136.5040  117.3820   58.7580 O   0  0  0  0  0  0  0  0  0  0  0  0
  135.1080  117.2030   58.9530 C   0  0  0  0  0  0  0  0  0  0  0  0
  134.7000  117.8680   60.2740 C   0  0  0  0  0  0  0  0  0  0  0  0
  133.7700  118.9110   59.9980 O   0  0  0  0  0  0  0  0  0  0  0  0
  133.4100  119.7230   61.1120 C   0  0  0  0  0  0  0  0  0  0  0  0
  134.3120  120.9580   61.2960 C   0  0  0  0  0  0  0  0  0  0  0  0
  133.4980  122.1130   61.4420 O   0  0  0  0  0  0  0  0  0  0  0  0
  133.6720  123.0740   60.4090 C   0  0  0  0  0  0  0  0  0  0  0  0
  132.6950  124.2480   60.6040 C   0  0  0  0  0  0  0  0  0  0  0  0
  132.3990  124.5350   62.0090 N   0  0  0  0  0  0  0  0  0  0  0  0
  133.3060  124.7140   62.9880 C   0  0  0  0  0  0  0  0  0  0  0  0
  134.5210  124.6690   62.7870 O   0  0  0  0  0  0  0  0  0  0  0  0
  132.8100  124.9860   64.4180 C   0  0  0  0  0  0  0  0  0  0  0  0
  131.1840  124.2760   64.8680 S   0  0  0  0  0  0  0  0  0  0  0  0
  130.0800  125.6070   65.3140 C   0  0  0  0  0  0  0  0  0  0  0  0
  129.9000  125.7990   66.6440 N   0  0  0  0  0  0  0  0  0  0  0  0
  129.0750  126.7830   67.0820 C   0  0  0  0  0  0  0  0  0  0  0  0
  128.9350  126.9250   68.5690 C   0  0  0  0  0  0  0  0  0  0  0  0
  129.8890  127.6330   69.3150 C   0  0  0  0  0  0  0  0  0  0  0  0
  129.7620  127.7700   70.6950 C   0  0  0  0  0  0  0  0  0  0  0  0
  128.6750  127.2010   71.3490 C   0  0  0  0  0  0  0  0  0  0  0  0
  127.7130  126.4970   70.6330 C   0  0  0  0  0  0  0  0  0  0  0  0
  127.8420  126.3620   69.2530 C   0  0  0  0  0  0  0  0  0  0  0  0
  128.4140  127.6210   66.1770 C   0  0  0  0  0  0  0  0  0  0  0  0
  128.5840  127.4450   64.7960 C   0  0  0  0  0  0  0  0  0  0  0  0
  127.8380  128.3860   63.8300 C   0  0  0  0  0  0  0  0  0  0  0  0
  127.4150  129.4690   64.4820 F   0  0  0  0  0  0  0  0  0  0  0  0
  128.6500  128.7650   62.8430 F   0  0  0  0  0  0  0  0  0  0  0  0
  126.7700  127.8130   63.2700 F   0  0  0  0  0  0  0  0  0  0  0  0
  129.4390  126.4100   64.3460 C   0  0  0  0  0  0  0  0  0  0  0  0
  129.6540  126.1800   62.9140 C   0  0  0  0  0  0  0  0  0  0  0  0
  129.8240  125.9980   61.7830 N   0  0  0  0  0  0  0  0  0  0  0  0
  1  2  1  0
  2  3  1  0
  3  4  1  0
  4  5  1  0
  5  6  1  0
  6  7  1  0
  7  8  1  0
  8  9  1  0
  9 10  1  0
 10 11  1  0
 11 12  1  0
 12 13  2  0
 12 14  1  0
 14 15  1  0
 15 16  1  0
 16 17  2  0
 17 18  1  0
 18 19  1  0
 19 20  2  0
 20 21  1  0
 21 22  2  0
 22 23  1  0
 23 24  2  0
 18 25  2  0
 25 26  1  0
 26 27  1  0
 27 28  1  0
 27 29  1  0
 27 30  1  0
 26 31  2  0
 31 32  1  0
 32 33  3  0
 31 16  1  0
 24 19  1  0
M  END
>  <Binding energies>  (31) 
[-6.33]

>  <Ligand effiencies>  (31) 
[-0.1861764705882353]

>  <Interactions>  (31) 
["V-B:TYR:539:CE2:9845, V-A:HIS:456:CE1:4066, V-A:ARG:545:CZ:4923, H-A:GLY:454:N:4046, H-A:TYR:484:OH:4344, V-A:GLY:454:CA:4045, V-B:TYR:539:CD2:9843, V-A:ASP:366:CG:3209, V-B:HIS:456:CD2:9036, V-B:GLY:544:C:9881, V-B:GLU:543:CB:9875, V-B:GLU:543:CD:9877, V-B:HIS:456:CE1:9038, V-A:GLU:543:CD:4905, H-A:ARG:545:NH2:4925, V-A:ILE:369:CB:3232, H-A:ARG:545:NH1:4924, V-A:LEU:475:CD1:4254, V-A:ILE:369:CG2:3233, V-A:ILE:369:CG1:3234, V-B:GLU:543:C:9871, V-A:SER:385:C:3401, V-A:SER:385:CA:3403, V-A:ILE:369:CD1:3235, V-A:TRP:381:CH2:3368, V-A:TRP:381:CZ2:3366, H-A:ASN:382:ND2:3377, V-A:VAL:384:C:3393, V-A:ILE:369:CA:3230, V-A:ASN:372:CB:3263, V-A:VAL:384:CG1:3398, V-A:ASN:372:C:3259, V-A:SER:385:CB:3405, V-A:TRP:381:CZ3:3367"]

$$$$
3bk_Grossjean_2025
     RDKit          3D

 30 31  0  0  0  0  0  0  0  0999 V2000
  137.0680  117.4880   58.0690 C   0  0  0  0  0  0  0  0  0  0  0  0
  135.8340  117.3840   57.3760 O   0  0  0  0  0  0  0  0  0  0  0  0
  134.6980  117.4940   58.2230 C   0  0  0  0  0  0  0  0  0  0  0  0
  135.1290  117.3340   59.6880 C   0  0  0  0  0  0  0  0  0  0  0  0
  135.2360  118.6150   60.2900 O   0  0  0  0  0  0  0  0  0  0  0  0
  134.0020  119.1260   60.7770 C   0  0  0  0  0  0  0  0  0  0  0  0
  134.2030  120.5730   61.2470 C   0  0  0  0  0  0  0  0  0  0  0  0
  133.3710  121.4360   60.4830 O   0  0  0  0  0  0  0  0  0  0  0  0
  133.9900  122.6670   60.1290 C   0  0  0  0  0  0  0  0  0  0  0  0
  134.3680  123.4330   61.4050 C   0  0  0  0  0  0  0  0  0  0  0  0
  133.3460  123.3200   62.4470 N   0  0  0  0  0  0  0  0  0  0  0  0
  133.2310  124.1250   63.5170 C   0  0  0  0  0  0  0  0  0  0  0  0
  133.9760  125.0800   63.7390 O   0  0  0  0  0  0  0  0  0  0  0  0
  132.0790  123.8200   64.4780 C   0  0  0  0  0  0  0  0  0  0  0  0
  130.4540  124.0580   63.6910 S   0  0  0  0  0  0  0  0  0  0  0  0
  129.7070  125.5440   64.3390 C   0  0  0  0  0  0  0  0  0  0  0  0
  129.7210  125.6750   65.6890 N   0  0  0  0  0  0  0  0  0  0  0  0
  129.1710  126.7740   66.2720 C   0  0  0  0  0  0  0  0  0  0  0  0
  129.2480  126.8490   67.7670 C   0  0  0  0  0  0  0  0  0  0  0  0
  130.2170  127.6460   68.3970 C   0  0  0  0  0  0  0  0  0  0  0  0
  130.2950  127.7150   69.7860 C   0  0  0  0  0  0  0  0  0  0  0  0
  129.4040  126.9870   70.5650 C   0  0  0  0  0  0  0  0  0  0  0  0
  128.4320  126.1920   69.9660 C   0  0  0  0  0  0  0  0  0  0  0  0
  128.3550  126.1270   68.5780 C   0  0  0  0  0  0  0  0  0  0  0  0
  128.5920  127.7840   65.4950 C   0  0  0  0  0  0  0  0  0  0  0  0
  128.5680  127.6650   64.1010 C   0  0  0  0  0  0  0  0  0  0  0  0
  127.9260  128.7890   63.2910 C   0  0  0  0  0  0  0  0  0  0  0  0
  129.1360  126.5230   63.4970 C   0  0  0  0  0  0  0  0  0  0  0  0
  129.1270  126.3720   62.0390 C   0  0  0  0  0  0  0  0  0  0  0  0
  129.1200  126.2530   60.8870 N   0  0  0  0  0  0  0  0  0  0  0  0
  1  2  1  0
  2  3  1  0
  3  4  1  0
  4  5  1  0
  5  6  1  0
  6  7  1  0
  7  8  1  0
  8  9  1  0
  9 10  1  0
 10 11  1  0
 11 12  1  0
 12 13  2  0
 12 14  1  0
 14 15  1  0
 15 16  1  0
 16 17  2  0
 17 18  1  0
 18 19  1  0
 19 20  2  0
 20 21  1  0
 21 22  2  0
 22 23  1  0
 23 24  2  0
 18 25  2  0
 25 26  1  0
 26 27  1  0
 26 28  2  0
 28 29  1  0
 29 30  3  0
 28 16  1  0
 24 19  1  0
M  END
>  <Binding energies>  (32) 
[-6.43]

>  <Ligand effiencies>  (32) 
[-0.20741935483870966]

>  <Interactions>  (32) 
["V-B:TYR:539:CE2:9845, V-A:HIS:456:CE1:4066, V-B:TYR:539:CZ:9846, V-A:GLY:453:C:4038, H-A:GLY:454:N:4046, V-A:GLY:454:CA:4045, V-A:GLU:543:CB:4903, V-B:GLU:543:CB:9875, V-B:GLU:543:CD:9877, V-A:TYR:484:CZ:4343, V-B:GLU:543:CG:9876, V-A:GLU:543:CD:4905, H-A:ARG:545:NH2:4925, V-A:ILE:369:CB:3232, H-A:ARG:545:NH1:4924, V-A:LEU:475:CD1:4254, V-A:ILE:369:CG2:3233, V-A:ILE:369:CG1:3234, H-B:TYR:539:OH:9847, V-A:HIS:456:CD2:4064, V-B:GLU:543:C:9871, H-A:ARG:545:NE:4921, V-A:SER:385:C:3401, V-A:SER:385:CA:3403, V-A:ILE:369:CD1:3235, V-A:TRP:381:CH2:3368, V-A:TRP:381:CZ2:3366, H-A:ASN:382:ND2:3377, V-A:VAL:384:C:3393, V-A:ASN:372:CB:3263, V-A:VAL:384:CG1:3398, V-A:LEU:373:CD2:3277, V-A:TRP:381:CZ3:3367"]

$$$$
3cb_Grossjean_2025
     RDKit          3D

 30 32  0  0  0  0  0  0  0  0999 V2000
  128.6980  129.5230   73.7820 C   0  0  0  0  0  0  0  0  0  0  0  0
  129.0180  128.2240   73.3050 O   0  0  0  0  0  0  0  0  0  0  0  0
  128.2080  127.5840   72.4230 C   0  0  0  0  0  0  0  0  0  0  0  0
  127.0780  127.1770   72.7090 O   0  0  0  0  0  0  0  0  0  0  0  0
  128.8250  127.4160   71.0640 C   0  0  0  0  0  0  0  0  0  0  0  0
  130.0680  127.9790   70.7360 C   0  0  0  0  0  0  0  0  0  0  0  0
  130.6120  127.8020   69.4680 C   0  0  0  0  0  0  0  0  0  0  0  0
  129.9290  127.0650   68.5000 C   0  0  0  0  0  0  0  0  0  0  0  0
  130.5740  126.9470   67.2530 N   0  0  0  0  0  0  0  0  0  0  0  0
  130.5890  125.9190   66.3770 C   0  0  0  0  0  0  0  0  0  0  0  0
  129.9860  124.8550   66.5290 O   0  0  0  0  0  0  0  0  0  0  0  0
  131.4240  126.1710   65.1120 C   0  0  0  0  0  0  0  0  0  0  0  0
  132.8260  125.0250   64.8750 S   0  0  0  0  0  0  0  0  0  0  0  0
  132.7080  124.3550   63.2290 C   0  0  0  0  0  0  0  0  0  0  0  0
  133.9090  124.2180   62.6160 N   0  0  0  0  0  0  0  0  0  0  0  0
  133.9420  123.7170   61.3610 C   0  0  0  0  0  0  0  0  0  0  0  0
  135.3200  123.5800   60.7410 C   0  0  0  0  0  0  0  0  0  0  0  0
  132.7920  123.3420   60.6720 C   0  0  0  0  0  0  0  0  0  0  0  0
  131.5390  123.4900   61.2810 C   0  0  0  0  0  0  0  0  0  0  0  0
  130.3330  123.0780   60.4980 C   0  0  0  0  0  0  0  0  0  0  0  0
  130.0170  123.7280   59.2980 C   0  0  0  0  0  0  0  0  0  0  0  0
  128.9030  123.3450   58.5560 C   0  0  0  0  0  0  0  0  0  0  0  0
  128.0990  122.3040   59.0110 C   0  0  0  0  0  0  0  0  0  0  0  0
  128.4020  121.6410   60.1970 C   0  0  0  0  0  0  0  0  0  0  0  0
  129.5180  122.0260   60.9350 C   0  0  0  0  0  0  0  0  0  0  0  0
  131.4850  124.0260   62.5930 C   0  0  0  0  0  0  0  0  0  0  0  0
  130.1970  124.2900   63.2420 C   0  0  0  0  0  0  0  0  0  0  0  0
  129.1810  124.4970   63.7530 N   0  0  0  0  0  0  0  0  0  0  0  0
  128.6880  126.4940   68.8210 C   0  0  0  0  0  0  0  0  0  0  0  0
  128.1440  126.6720   70.0900 C   0  0  0  0  0  0  0  0  0  0  0  0
  1  2  1  0
  2  3  1  0
  3  4  2  0
  3  5  1  0
  5  6  2  0
  6  7  1  0
  7  8  2  0
  8  9  1  0
  9 10  1  0
 10 11  2  0
 10 12  1  0
 12 13  1  0
 13 14  1  0
 14 15  2  0
 15 16  1  0
 16 17  1  0
 16 18  2  0
 18 19  1  0
 19 20  1  0
 20 21  2  0
 21 22  1  0
 22 23  2  0
 23 24  1  0
 24 25  2  0
 19 26  2  0
 26 27  1  0
 27 28  3  0
  8 29  1  0
 29 30  2  0
 30  5  1  0
 26 14  1  0
 25 20  1  0
M  END
>  <Binding energies>  (33) 
[-8.42]

>  <Ligand effiencies>  (33) 
[-0.27161290322580645]

>  <Interactions>  (33) 
["V-B:PRO:540:C:9850, V-B:TYR:539:CE2:9845, V-A:HIS:456:CE1:4066, V-B:TYR:539:CZ:9846, V-A:GLY:453:C:4038, V-B:PRO:540:CA:9852, V-B:TYR:539:CE1:9844, V-A:GLY:453:CA:4040, V-B:ALA:541:CB:9861, H-A:GLY:454:N:4046, V-B:TYR:539:C:9836, H-A:TYR:484:OH:4344, V-B:PRO:540:N:9853, V-B:TYR:539:CD2:9843, V-A:ASP:366:CG:3209, V-B:HIS:456:CD2:9036, V-A:LYS:547:CE:4947, H-A:LYS:547:NZ:4948, V-A:GLU:543:C:4899, V-B:HIS:456:CE1:9038, V-A:ILE:369:CB:3232, V-A:ILE:369:CG1:3234, H-A:GLU:543:OE1:4906, V-A:HIS:456:CD2:4064, V-A:ASP:366:CA:3206"]

$$$$
3ch_Grossjean_2025
     RDKit          3D

 32 34  0  0  0  0  0  0  0  0999 V2000
  129.4850  130.1210   72.7580 C   0  0  0  0  0  0  0  0  0  0  0  0
  129.4690  128.7530   73.1510 O   0  0  0  0  0  0  0  0  0  0  0  0
  129.3600  127.7670   72.1870 C   0  0  0  0  0  0  0  0  0  0  0  0
  129.4020  128.0120   70.8050 C   0  0  0  0  0  0  0  0  0  0  0  0
  129.2960  126.9590   69.8840 C   0  0  0  0  0  0  0  0  0  0  0  0
  129.3320  127.1050   68.4840 N   0  0  0  0  0  0  0  0  0  0  0  0
  128.3670  126.8730   67.5670 C   0  0  0  0  0  0  0  0  0  0  0  0
  127.2260  126.4840   67.8140 O   0  0  0  0  0  0  0  0  0  0  0  0
  128.7520  127.1670   66.1180 C   0  0  0  0  0  0  0  0  0  0  0  0
  130.5050  126.8220   65.7880 S   0  0  0  0  0  0  0  0  0  0  0  0
  130.5540  125.9440   64.2420 C   0  0  0  0  0  0  0  0  0  0  0  0
  129.4780  126.1690   63.4470 N   0  0  0  0  0  0  0  0  0  0  0  0
  129.4150  125.5420   62.2510 C   0  0  0  0  0  0  0  0  0  0  0  0
  128.1830  125.8340   61.4160 C   0  0  0  0  0  0  0  0  0  0  0  0
  130.4090  124.6740   61.8050 C   0  0  0  0  0  0  0  0  0  0  0  0
  131.5330  124.4340   62.6090 C   0  0  0  0  0  0  0  0  0  0  0  0
  132.5690  123.4880   62.0940 C   0  0  0  0  0  0  0  0  0  0  0  0
  132.2780  122.1240   61.9740 C   0  0  0  0  0  0  0  0  0  0  0  0
  133.2410  121.2350   61.5030 C   0  0  0  0  0  0  0  0  0  0  0  0
  134.5040  121.7080   61.1530 C   0  0  0  0  0  0  0  0  0  0  0  0
  134.8110  123.0600   61.2740 C   0  0  0  0  0  0  0  0  0  0  0  0
  133.8450  123.9460   61.7460 C   0  0  0  0  0  0  0  0  0  0  0  0
  131.6220  125.1000   63.8580 C   0  0  0  0  0  0  0  0  0  0  0  0
  132.8170  124.9600   64.6960 C   0  0  0  0  0  0  0  0  0  0  0  0
  133.7590  124.8490   65.3590 N   0  0  0  0  0  0  0  0  0  0  0  0
  129.1250  125.6570   70.3580 C   0  0  0  0  0  0  0  0  0  0  0  0
  129.0780  125.3870   71.7340 C   0  0  0  0  0  0  0  0  0  0  0  0
  128.9200  124.1200   72.2690 O   0  0  0  0  0  0  0  0  0  0  0  0
  129.5870  123.0170   71.6650 C   0  0  0  0  0  0  0  0  0  0  0  0
  129.1940  126.4510   72.6380 C   0  0  0  0  0  0  0  0  0  0  0  0
  129.1670  126.1980   73.9890 O   0  0  0  0  0  0  0  0  0  0  0  0
  130.3160  125.5170   74.4740 C   0  0  0  0  0  0  0  0  0  0  0  0
  1  2  1  0
  2  3  1  0
  3  4  2  0
  4  5  1  0
  5  6  1  0
  6  7  1  0
  7  8  2  0
  7  9  1  0
  9 10  1  0
 10 11  1  0
 11 12  2  0
 12 13  1  0
 13 14  1  0
 13 15  2  0
 15 16  1  0
 16 17  1  0
 17 18  2  0
 18 19  1  0
 19 20  2  0
 20 21  1  0
 21 22  2  0
 16 23  2  0
 23 24  1  0
 24 25  3  0
  5 26  2  0
 26 27  1  0
 27 28  1  0
 28 29  1  0
 27 30  2  0
 30 31  1  0
 31 32  1  0
 30  3  1  0
 23 11  1  0
 22 17  1  0
M  END
>  <Binding energies>  (34) 
[-7.66]

>  <Ligand effiencies>  (34) 
[-0.23212121212121212]

>  <Interactions>  (34) 
["V-B:TYR:539:CE2:9845, V-A:HIS:456:CE1:4066, V-A:GLY:453:C:4038, V-A:ARG:545:CZ:4923, V-A:GLY:453:CA:4040, H-A:GLY:454:N:4046, H-A:TYR:484:OH:4344, V-A:GLY:454:CA:4045, V-A:ASP:366:CG:3209, V-B:HIS:456:CD2:9036, V-A:LYS:547:CE:4947, H-A:LYS:547:NZ:4948, V-B:LYS:547:CE:9919, V-B:GLU:543:CB:9875, V-B:GLU:543:CD:9877, V-B:HIS:456:CE1:9038, V-A:ILE:369:CB:3232, V-A:LEU:475:CD1:4254, V-A:ILE:369:CG2:3233, V-A:ILE:369:CG1:3234, V-A:HIS:456:CD2:4064, V-B:GLU:543:C:9871, H-A:ARG:545:NE:4921, V-A:TYR:484:CG:4338, V-A:TYR:484:CD2:4340, H-B:LYS:547:NZ:9920, V-A:TYR:484:CD1:4339, H-A:HIS:456:NE2:4067, V-A:ILE:369:CD1:3235, V-A:GLY:544:CA:4911"]

$$$$
3ci_Grossjean_2025
     RDKit          3D

 25 27  0  0  0  0  0  0  0  0999 V2000
  128.3700  126.7000   62.4960 C   0  0  0  0  0  0  0  0  0  0  0  0
  129.6630  126.2020   63.1150 C   0  0  0  0  0  0  0  0  0  0  0  0
  130.4800  125.2840   62.4630 C   0  0  0  0  0  0  0  0  0  0  0  0
  131.6730  124.8660   63.0690 C   0  0  0  0  0  0  0  0  0  0  0  0
  132.5260  123.8910   62.3250 C   0  0  0  0  0  0  0  0  0  0  0  0
  132.8270  122.6380   62.8740 C   0  0  0  0  0  0  0  0  0  0  0  0
  133.6300  121.7360   62.1800 C   0  0  0  0  0  0  0  0  0  0  0  0
  134.1420  122.0870   60.9350 C   0  0  0  0  0  0  0  0  0  0  0  0
  133.8600  123.3330   60.3790 C   0  0  0  0  0  0  0  0  0  0  0  0
  133.0570  124.2320   61.0750 C   0  0  0  0  0  0  0  0  0  0  0  0
  132.0010  125.3920   64.3450 C   0  0  0  0  0  0  0  0  0  0  0  0
  133.2150  124.9590   65.0460 C   0  0  0  0  0  0  0  0  0  0  0  0
  134.1730  124.6170   65.5980 N   0  0  0  0  0  0  0  0  0  0  0  0
  131.1160  126.3250   64.9350 C   0  0  0  0  0  0  0  0  0  0  0  0
  131.4410  127.0680   66.5290 S   0  0  0  0  0  0  0  0  0  0  0  0
  129.8880  127.7210   67.2240 C   0  0  0  0  0  0  0  0  0  0  0  0
  129.5270  127.1120   68.5840 C   0  0  0  0  0  0  0  0  0  0  0  0
  129.1830  125.9300   68.6410 O   0  0  0  0  0  0  0  0  0  0  0  0
  129.6010  127.9510   69.6410 N   0  0  0  0  0  0  0  0  0  0  0  0
  129.3560  127.6480   70.9730 C   0  0  0  0  0  0  0  0  0  0  0  0
  128.2500  126.9100   71.3940 C   0  0  0  0  0  0  0  0  0  0  0  0
  128.3700  126.8350   72.7640 C   0  0  0  0  0  0  0  0  0  0  0  0
  129.4910  127.4930   73.1460 O   0  0  0  0  0  0  0  0  0  0  0  0
  130.1060  128.0050   72.0030 N   0  0  0  0  0  0  0  0  0  0  0  0
  129.9650  126.7140   64.3290 N   0  0  0  0  0  0  0  0  0  0  0  0
  1  2  1  0
  2  3  2  0
  3  4  1  0
  4  5  1  0
  5  6  2  0
  6  7  1  0
  7  8  2  0
  8  9  1  0
  9 10  2  0
  4 11  2  0
 11 12  1  0
 12 13  3  0
 11 14  1  0
 14 15  1  0
 15 16  1  0
 16 17  1  0
 17 18  2  0
 17 19  1  0
 19 20  1  0
 20 21  1  0
 21 22  2  0
 22 23  1  0
 23 24  1  0
 14 25  2  0
 25  2  1  0
 10  5  1  0
 24 20  2  0
M  END
>  <Binding energies>  (35) 
[-7.92]

>  <Ligand effiencies>  (35) 
[-0.3046153846153846]

>  <Interactions>  (35) 
["V-B:TYR:539:CE2:9845, V-A:HIS:456:CE1:4066, V-A:ARG:545:CZ:4923, H-A:GLY:454:N:4046, H-A:TYR:484:OH:4344, V-A:GLY:454:CA:4045, V-A:ASP:366:CG:3209, V-B:HIS:456:CD2:9036, V-A:GLU:543:CB:4903, H-A:LYS:547:NZ:4948, V-B:LYS:547:CE:9919, V-B:GLU:543:CD:9877, V-B:HIS:456:CE1:9038, V-A:GLU:543:CD:4905, V-A:ILE:369:CB:3232, V-A:LEU:475:CD1:4254, V-A:ILE:369:CG2:3233, V-A:ILE:369:CG1:3234, H-A:GLU:543:O:4900, H-B:HIS:456:NE2:9039"]

$$$$
3ck_Grossjean_2025
     RDKit          3D

 30 31  0  0  0  0  0  0  0  0999 V2000
  127.5360  122.4540   57.6170 C   0  0  0  0  0  0  0  0  0  0  0  0
  126.8900  121.9060   56.4790 O   0  0  0  0  0  0  0  0  0  0  0  0
  125.5650  122.3840   56.2960 C   0  0  0  0  0  0  0  0  0  0  0  0
  125.3600  123.6590   57.1240 C   0  0  0  0  0  0  0  0  0  0  0  0
  124.2370  123.4890   57.9790 O   0  0  0  0  0  0  0  0  0  0  0  0
  124.0150  124.5790   58.8640 C   0  0  0  0  0  0  0  0  0  0  0  0
  124.5880  124.2290   60.2430 C   0  0  0  0  0  0  0  0  0  0  0  0
  125.3200  125.3480   60.7200 O   0  0  0  0  0  0  0  0  0  0  0  0
  126.0440  126.0550   59.7240 C   0  0  0  0  0  0  0  0  0  0  0  0
  126.9380  127.1170   60.3920 C   0  0  0  0  0  0  0  0  0  0  0  0
  126.5550  127.4260   61.7730 N   0  0  0  0  0  0  0  0  0  0  0  0
  126.7400  128.6060   62.3930 C   0  0  0  0  0  0  0  0  0  0  0  0
  127.2410  129.5870   61.8420 O   0  0  0  0  0  0  0  0  0  0  0  0
  126.2750  128.6630   63.8570 C   0  0  0  0  0  0  0  0  0  0  0  0
  127.5290  129.2390   65.0540 S   0  0  0  0  0  0  0  0  0  0  0  0
  128.2830  127.8220   65.8390 C   0  0  0  0  0  0  0  0  0  0  0  0
  127.9860  127.6520   67.1520 N   0  0  0  0  0  0  0  0  0  0  0  0
  128.5250  126.6020   67.8100 C   0  0  0  0  0  0  0  0  0  0  0  0
  128.1500  126.4780   69.2740 C   0  0  0  0  0  0  0  0  0  0  0  0
  129.3770  125.6870   67.1950 C   0  0  0  0  0  0  0  0  0  0  0  0
  129.7030  125.8470   65.8410 C   0  0  0  0  0  0  0  0  0  0  0  0
  130.6380  124.8560   65.2290 C   0  0  0  0  0  0  0  0  0  0  0  0
  130.1720  123.5910   64.8500 C   0  0  0  0  0  0  0  0  0  0  0  0
  131.0410  122.6580   64.2880 C   0  0  0  0  0  0  0  0  0  0  0  0
  132.3810  122.9860   64.1090 C   0  0  0  0  0  0  0  0  0  0  0  0
  132.8620  124.2370   64.4890 C   0  0  0  0  0  0  0  0  0  0  0  0
  131.9910  125.1670   65.0500 C   0  0  0  0  0  0  0  0  0  0  0  0
  129.1330  126.9380   65.1350 C   0  0  0  0  0  0  0  0  0  0  0  0
  129.4060  127.1300   63.7060 C   0  0  0  0  0  0  0  0  0  0  0  0
  129.6210  127.2820   62.5790 N   0  0  0  0  0  0  0  0  0  0  0  0
  1  2  1  0
  2  3  1  0
  3  4  1  0
  4  5  1  0
  5  6  1  0
  6  7  1  0
  7  8  1  0
  8  9  1  0
  9 10  1  0
 10 11  1  0
 11 12  1  0
 12 13  2  0
 12 14  1  0
 14 15  1  0
 15 16  1  0
 16 17  2  0
 17 18  1  0
 18 19  1  0
 18 20  2  0
 20 21  1  0
 21 22  1  0
 22 23  2  0
 23 24  1  0
 24 25  2  0
 25 26  1  0
 26 27  2  0
 21 28  2  0
 28 29  1  0
 29 30  3  0
 28 16  1  0
 27 22  1  0
M  END
>  <Binding energies>  (36) 
[-6.7]

>  <Ligand effiencies>  (36) 
[-0.2161290322580645]

>  <Interactions>  (36) 
["V-A:HIS:456:CE1:4066, V-B:PRO:540:CA:9852, V-B:TYR:539:C:9836, V-A:GLY:454:CA:4045, V-B:PRO:540:N:9853, V-B:PRO:540:CB:9854, H-B:GLU:543:OE2:9879, V-A:TYR:484:CE1:4341, V-B:GLU:543:CB:9875, V-B:GLU:543:CD:9877, V-B:HIS:456:CE1:9038, V-A:TYR:484:CZ:4343, V-B:GLU:543:CG:9876, V-A:GLU:543:CD:4905, V-B:LEU:363:CA:8153, V-A:LEU:475:CD1:4254, V-B:ARG:545:CZ:9895, H-B:TYR:539:N:9839, V-B:PRO:540:CD:9856, V-A:LEU:475:CD2:4255, H-B:ARG:545:NH2:9897, V-B:GLU:543:C:9871, H-B:ASP:366:OD1:8182, H-B:GLU:543:OE1:9878, V-B:LEU:363:CD1:8157, V-B:ASP:366:CG:8181, V-B:ILE:538:CB:9831, V-B:ILE:538:CG2:9832"]

$$$$
4aa_Grossjean_2025
     RDKit          3D

 26 28  0  0  0  0  0  0  0  0999 V2000
  124.6160  127.6170   73.9220 C   0  0  0  0  0  0  0  0  0  0  0  0
  126.0980  128.0020   73.9870 C   0  0  0  0  0  0  0  0  0  0  0  0
  126.7170  127.7080   72.7420 O   0  0  0  0  0  0  0  0  0  0  0  0
  128.0690  127.7360   72.6080 C   0  0  0  0  0  0  0  0  0  0  0  0
  128.8350  128.0930   73.5080 O   0  0  0  0  0  0  0  0  0  0  0  0
  128.5390  127.2950   71.2520 C   0  0  0  0  0  0  0  0  0  0  0  0
  129.7750  127.7510   70.7750 C   0  0  0  0  0  0  0  0  0  0  0  0
  130.2360  127.3640   69.5200 C   0  0  0  0  0  0  0  0  0  0  0  0
  129.4780  126.5070   68.7210 C   0  0  0  0  0  0  0  0  0  0  0  0
  130.0350  126.1860   67.4680 N   0  0  0  0  0  0  0  0  0  0  0  0
  129.8980  126.8000   66.2680 C   0  0  0  0  0  0  0  0  0  0  0  0
  129.1770  127.7790   66.0700 O   0  0  0  0  0  0  0  0  0  0  0  0
  130.6590  126.2030   65.1690 C   0  0  0  0  0  0  0  0  0  0  0  0
  132.2140  125.4260   65.4830 S   0  0  0  0  0  0  0  0  0  0  0  0
  132.4300  125.0690   63.7840 C   0  0  0  0  0  0  0  0  0  0  0  0
  133.5100  124.4310   63.3290 N   0  0  0  0  0  0  0  0  0  0  0  0
  133.5560  124.2200   61.9910 C   0  0  0  0  0  0  0  0  0  0  0  0
  134.7950  123.4980   61.4930 C   0  0  0  0  0  0  0  0  0  0  0  0
  132.5570  124.6240   61.1080 C   0  0  0  0  0  0  0  0  0  0  0  0
  131.4250  125.2910   61.5890 C   0  0  0  0  0  0  0  0  0  0  0  0
  130.3610  125.7110   60.5860 C   0  0  0  0  0  0  0  0  0  0  0  0
  131.3420  125.5340   62.9860 C   0  0  0  0  0  0  0  0  0  0  0  0
  130.3480  126.1810   63.8010 C   0  0  0  0  0  0  0  0  0  0  0  0
  129.2040  126.7200   63.2680 N   0  0  0  0  0  0  0  0  0  0  0  0
  128.2380  126.0490   69.1870 C   0  0  0  0  0  0  0  0  0  0  0  0
  127.7750  126.4400   70.4420 C   0  0  0  0  0  0  0  0  0  0  0  0
  1  2  1  0
  2  3  1  0
  3  4  1  0
  4  5  2  0
  4  6  1  0
  6  7  2  0
  7  8  1  0
  8  9  2  0
  9 10  1  0
 10 11  1  0
 11 12  2  0
 11 13  1  0
 13 14  1  0
 14 15  1  0
 15 16  2  0
 16 17  1  0
 17 18  1  0
 17 19  2  0
 19 20  1  0
 20 21  1  0
 20 22  2  0
 22 23  1  0
 23 24  1  0
  9 25  1  0
 25 26  2  0
 26  6  1  0
 23 13  2  0
 22 15  1  0
M  END
>  <Binding energies>  (37) 
[-6.8]

>  <Ligand effiencies>  (37) 
[-0.23448275862068965]

>  <Interactions>  (37) 
["V-A:HIS:456:CE1:4066, V-A:GLY:453:C:4038, V-A:ARG:545:CZ:4923, V-A:GLY:453:CA:4040, H-A:GLY:454:N:4046, H-A:TYR:484:OH:4344, V-A:GLY:454:CA:4045, V-A:ASP:366:CG:3209, H-B:GLU:543:OE2:9879, V-B:HIS:456:CD2:9036, V-B:LYS:547:CD:9918, V-B:ARG:545:C:9886, H-A:LYS:547:NZ:4948, V-B:GLY:544:C:9881, V-B:LYS:547:CE:9919, V-B:GLU:543:CB:9875, V-B:GLU:543:CD:9877, V-B:HIS:456:CB:9033, V-B:HIS:456:CE1:9038, V-A:ILE:369:CG1:3234, H-A:GLU:543:OE2:4907, V-A:HIS:456:CD2:4064, V-B:GLU:543:C:9871, H-B:GLU:543:OE1:9878, V-B:HIS:456:C:9029, V-B:HIS:456:CG:9034, H-A:HIS:456:NE2:4067, V-B:HIS:456:CA:9031"]

$$$$
4ab_Grossjean_2025
     RDKit          3D

 25 27  0  0  0  0  0  0  0  0999 V2000
  128.7870  129.7660   73.3400 C   0  0  0  0  0  0  0  0  0  0  0  0
  128.8150  128.3500   73.2370 O   0  0  0  0  0  0  0  0  0  0  0  0
  127.9060  127.6850   72.4800 C   0  0  0  0  0  0  0  0  0  0  0  0
  126.7590  127.4290   72.8620 O   0  0  0  0  0  0  0  0  0  0  0  0
  128.4340  127.2860   71.1320 C   0  0  0  0  0  0  0  0  0  0  0  0
  129.7060  127.7240   70.7410 C   0  0  0  0  0  0  0  0  0  0  0  0
  130.2230  127.3720   69.4960 C   0  0  0  0  0  0  0  0  0  0  0  0
  129.4860  126.5710   68.6240 C   0  0  0  0  0  0  0  0  0  0  0  0
  130.1020  126.2840   67.3910 N   0  0  0  0  0  0  0  0  0  0  0  0
  131.0760  126.9490   66.7250 C   0  0  0  0  0  0  0  0  0  0  0  0
  131.5800  128.0060   67.1080 O   0  0  0  0  0  0  0  0  0  0  0  0
  131.5010  126.3370   65.4650 C   0  0  0  0  0  0  0  0  0  0  0  0
  132.9320  125.3040   65.4150 S   0  0  0  0  0  0  0  0  0  0  0  0
  132.7560  125.0620   63.6920 C   0  0  0  0  0  0  0  0  0  0  0  0
  133.6050  124.3080   62.9940 N   0  0  0  0  0  0  0  0  0  0  0  0
  133.3570  124.2050   61.6650 C   0  0  0  0  0  0  0  0  0  0  0  0
  134.3380  123.3460   60.8890 C   0  0  0  0  0  0  0  0  0  0  0  0
  132.2890  124.8290   61.0260 C   0  0  0  0  0  0  0  0  0  0  0  0
  131.3990  125.6210   61.7610 C   0  0  0  0  0  0  0  0  0  0  0  0
  130.2490  126.2830   61.0170 C   0  0  0  0  0  0  0  0  0  0  0  0
  131.6290  125.7570   63.1570 C   0  0  0  0  0  0  0  0  0  0  0  0
  130.9350  126.4800   64.1890 C   0  0  0  0  0  0  0  0  0  0  0  0
  129.8190  127.2340   63.9290 N   0  0  0  0  0  0  0  0  0  0  0  0
  128.2090  126.1330   69.0060 C   0  0  0  0  0  0  0  0  0  0  0  0
  127.6920  126.4880   70.2490 C   0  0  0  0  0  0  0  0  0  0  0  0
  1  2  1  0
  2  3  1  0
  3  4  2  0
  3  5  1  0
  5  6  2  0
  6  7  1  0
  7  8  2  0
  8  9  1  0
  9 10  1  0
 10 11  2  0
 10 12  1  0
 12 13  1  0
 13 14  1  0
 14 15  2  0
 15 16  1  0
 16 17  1  0
 16 18  2  0
 18 19  1  0
 19 20  1  0
 19 21  2  0
 21 22  1  0
 22 23  1  0
  8 24  1  0
 24 25  2  0
 25  5  1  0
 22 12  2  0
 21 14  1  0
M  END
>  <Binding energies>  (38) 
[-6.9]

>  <Ligand effiencies>  (38) 
[-0.24642857142857144]

>  <Interactions>  (38) 
["V-A:HIS:456:CE1:4066, V-A:ARG:545:CZ:4923, H-A:GLY:454:N:4046, V-A:ASP:366:CG:3209, H-B:GLU:543:OE2:9879, V-B:HIS:456:CD2:9036, V-A:GLU:543:CB:4903, V-A:LYS:547:CE:4947, H-A:LYS:547:NZ:4948, V-B:GLY:544:C:9881, V-B:LYS:547:CE:9919, V-B:GLU:543:CB:9875, V-B:HIS:456:CE1:9038, V-A:GLU:543:CD:4905, V-A:ILE:369:CB:3232, V-A:ILE:369:CG1:3234, H-A:GLU:543:OE2:4907, H-A:GLU:543:OE1:4906, V-A:HIS:456:CD2:4064, V-B:GLU:543:C:9871, H-B:GLU:543:OE1:9878, V-B:HIS:456:CG:9034, H-A:HIS:456:NE2:4067"]

$$$$
4ac_Grossjean_2025
     RDKit          3D

 23 25  0  0  0  0  0  0  0  0999 V2000
  128.3450  127.6530   72.9740 C   0  0  0  0  0  0  0  0  0  0  0  0
  127.6510  127.3230   71.7760 O   0  0  0  0  0  0  0  0  0  0  0  0
  128.3690  127.1250   70.6130 C   0  0  0  0  0  0  0  0  0  0  0  0
  127.9100  126.1210   69.7610 C   0  0  0  0  0  0  0  0  0  0  0  0
  128.5690  125.8500   68.5650 C   0  0  0  0  0  0  0  0  0  0  0  0
  129.6950  126.5900   68.2010 C   0  0  0  0  0  0  0  0  0  0  0  0
  130.3030  126.2360   66.9820 N   0  0  0  0  0  0  0  0  0  0  0  0
  131.3840  126.7810   66.3730 C   0  0  0  0  0  0  0  0  0  0  0  0
  132.0080  127.7490   66.8130 O   0  0  0  0  0  0  0  0  0  0  0  0
  131.7830  126.1460   65.1150 C   0  0  0  0  0  0  0  0  0  0  0  0
  133.1280  125.0050   65.0790 S   0  0  0  0  0  0  0  0  0  0  0  0
  132.9380  124.7620   63.3570 C   0  0  0  0  0  0  0  0  0  0  0  0
  133.7270  123.9350   62.6700 N   0  0  0  0  0  0  0  0  0  0  0  0
  133.4750  123.8380   61.3420 C   0  0  0  0  0  0  0  0  0  0  0  0
  134.3830  122.8920   60.5780 C   0  0  0  0  0  0  0  0  0  0  0  0
  132.4630  124.5430   60.6920 C   0  0  0  0  0  0  0  0  0  0  0  0
  131.6370  125.4100   61.4160 C   0  0  0  0  0  0  0  0  0  0  0  0
  130.5470  126.1560   60.6620 C   0  0  0  0  0  0  0  0  0  0  0  0
  131.8710  125.5350   62.8120 C   0  0  0  0  0  0  0  0  0  0  0  0
  131.2270  126.3140   63.8360 C   0  0  0  0  0  0  0  0  0  0  0  0
  130.1680  127.1430   63.5680 N   0  0  0  0  0  0  0  0  0  0  0  0
  130.1710  127.5920   69.0580 C   0  0  0  0  0  0  0  0  0  0  0  0
  129.5090  127.8600   70.2540 C   0  0  0  0  0  0  0  0  0  0  0  0
  1  2  1  0
  2  3  1  0
  3  4  2  0
  4  5  1  0
  5  6  2  0
  6  7  1  0
  7  8  1  0
  8  9  2  0
  8 10  1  0
 10 11  1  0
 11 12  1  0
 12 13  2  0
 13 14  1  0
 14 15  1  0
 14 16  2  0
 16 17  1  0
 17 18  1  0
 17 19  2  0
 19 20  1  0
 20 21  1  0
  6 22  1  0
 22 23  2  0
 23  3  1  0
 20 10  2  0
 19 12  1  0
M  END
>  <Binding energies>  (39) 
[-6.25]

>  <Ligand effiencies>  (39) 
[-0.2403846153846154]

>  <Interactions>  (39) 
["V-A:HIS:456:CE1:4066, V-A:ARG:545:CZ:4923, H-A:GLY:454:N:4046, V-A:ASP:366:CG:3209, V-B:HIS:456:CD2:9036, V-B:GLY:544:C:9881, V-B:LYS:547:CE:9919, V-B:GLU:543:CB:9875, V-B:HIS:456:CE1:9038, V-A:GLU:543:CD:4905, V-A:ILE:369:CB:3232, V-A:ILE:369:CG2:3233, V-A:ILE:369:CG1:3234, H-A:GLU:543:OE2:4907, H-A:GLU:543:OE1:4906, V-B:GLU:543:C:9871, H-A:ARG:545:NE:4921"]

$$$$
4ad_Grossjean_2025
     RDKit          3D

 21 23  0  0  0  0  0  0  0  0999 V2000
  134.6180  125.0000   65.9940 C   0  0  0  0  0  0  0  0  0  0  0  0
  133.3230  124.8780   65.2150 C   0  0  0  0  0  0  0  0  0  0  0  0
  132.2360  125.7030   65.4940 C   0  0  0  0  0  0  0  0  0  0  0  0
  131.0490  125.5710   64.7630 C   0  0  0  0  0  0  0  0  0  0  0  0
  129.8890  126.4930   65.1070 C   0  0  0  0  0  0  0  0  0  0  0  0
  131.0040  124.5790   63.7470 C   0  0  0  0  0  0  0  0  0  0  0  0
  129.9740  124.1790   62.8260 C   0  0  0  0  0  0  0  0  0  0  0  0
  128.7420  124.7840   62.8010 N   0  0  0  0  0  0  0  0  0  0  0  0
  130.3470  123.1300   61.9710 C   0  0  0  0  0  0  0  0  0  0  0  0
  129.5500  122.4710   60.9350 C   0  0  0  0  0  0  0  0  0  0  0  0
  129.5790  121.2460   60.8060 O   0  0  0  0  0  0  0  0  0  0  0  0
  128.7980  123.2980   60.1670 N   0  0  0  0  0  0  0  0  0  0  0  0
  127.9650  122.9920   59.0730 C   0  0  0  0  0  0  0  0  0  0  0  0
  126.6610  123.4920   59.1410 C   0  0  0  0  0  0  0  0  0  0  0  0
  125.7640  123.2520   58.1030 C   0  0  0  0  0  0  0  0  0  0  0  0
  126.1730  122.5200   56.9930 C   0  0  0  0  0  0  0  0  0  0  0  0
  127.4730  122.0280   56.9070 C   0  0  0  0  0  0  0  0  0  0  0  0
  128.3720  122.2650   57.9430 C   0  0  0  0  0  0  0  0  0  0  0  0
  132.0040  122.6110   62.2870 S   0  0  0  0  0  0  0  0  0  0  0  0
  132.1840  123.7970   63.5590 C   0  0  0  0  0  0  0  0  0  0  0  0
  133.3160  123.9220   64.2540 N   0  0  0  0  0  0  0  0  0  0  0  0
  1  2  1  0
  2  3  2  0
  3  4  1  0
  4  5  1  0
  4  6  2  0
  6  7  1  0
  7  8  1  0
  7  9  2  0
  9 10  1  0
 10 11  2  0
 10 12  1  0
 12 13  1  0
 13 14  2  0
 14 15  1  0
 15 16  2  0
 16 17  1  0
 17 18  2  0
  9 19  1  0
 19 20  1  0
 20 21  2  0
 21  2  1  0
 20  6  1  0
 18 13  1  0
M  END
>  <Binding energies>  (40) 
[-6.86]

>  <Ligand effiencies>  (40) 
[-0.28583333333333333]

>  <Interactions>  (40) 
["V-B:TYR:539:CE2:9845, V-A:GLY:454:C:4043, V-B:TYR:539:CA:9838, V-A:HIS:456:CE1:4066, V-B:TYR:539:CG:9841, V-B:TYR:539:CD1:9842, V-B:TYR:539:CZ:9846, V-A:GLY:453:C:4038, V-B:PRO:540:CA:9852, V-A:ARG:545:CG:4919, V-A:ARG:545:CZ:4923, V-B:TYR:539:CE1:9844, V-A:ARG:545:CD:4920, V-A:GLY:453:CA:4040, V-B:ALA:541:CB:9861, H-A:GLY:454:N:4046, V-B:TYR:539:C:9836, H-A:TYR:484:OH:4344, V-A:GLY:454:CA:4045, V-B:PRO:540:N:9853, V-B:PRO:540:CB:9854, V-B:TYR:539:CD2:9843, H-B:GLU:543:OE2:9879, V-B:GLU:543:CD:9877, V-B:GLU:543:CG:9876, V-A:GLU:543:CD:4905, V-A:LEU:475:CD1:4254, V-B:PRO:540:CD:9856, H-B:GLU:543:OE1:9878"]

$$$$
4ae_Grossjean_2025
     RDKit          3D

 22 24  0  0  0  0  0  0  0  0999 V2000
  124.4380  123.9010   58.1060 C   0  0  0  0  0  0  0  0  0  0  0  0
  125.8480  123.3440   58.0750 C   0  0  0  0  0  0  0  0  0  0  0  0
  126.2850  122.5180   57.0360 C   0  0  0  0  0  0  0  0  0  0  0  0
  127.5940  122.0360   57.0780 C   0  0  0  0  0  0  0  0  0  0  0  0
  128.4240  122.3870   58.1440 C   0  0  0  0  0  0  0  0  0  0  0  0
  127.9260  123.2250   59.1470 C   0  0  0  0  0  0  0  0  0  0  0  0
  128.8020  123.5260   60.2040 N   0  0  0  0  0  0  0  0  0  0  0  0
  129.5680  122.6810   60.9380 C   0  0  0  0  0  0  0  0  0  0  0  0
  129.5940  121.4600   60.7710 O   0  0  0  0  0  0  0  0  0  0  0  0
  130.3840  123.3140   61.9760 C   0  0  0  0  0  0  0  0  0  0  0  0
  132.0710  122.8450   62.1930 S   0  0  0  0  0  0  0  0  0  0  0  0
  132.2570  123.9510   63.5340 C   0  0  0  0  0  0  0  0  0  0  0  0
  133.4090  124.0730   64.1930 N   0  0  0  0  0  0  0  0  0  0  0  0
  133.4180  124.9610   65.2160 C   0  0  0  0  0  0  0  0  0  0  0  0
  134.7380  125.0800   65.9580 C   0  0  0  0  0  0  0  0  0  0  0  0
  132.3140  125.7250   65.5900 C   0  0  0  0  0  0  0  0  0  0  0  0
  131.1060  125.5950   64.8940 C   0  0  0  0  0  0  0  0  0  0  0  0
  129.9280  126.4470   65.3420 C   0  0  0  0  0  0  0  0  0  0  0  0
  131.0570  124.6710   63.8160 C   0  0  0  0  0  0  0  0  0  0  0  0
  130.0050  124.2910   62.9120 C   0  0  0  0  0  0  0  0  0  0  0  0
  128.7500  124.8410   62.9740 N   0  0  0  0  0  0  0  0  0  0  0  0
  126.6440  123.6950   59.1170 N   0  0  0  0  0  0  0  0  0  0  0  0
  1  2  1  0
  2  3  2  0
  3  4  1  0
  4  5  2  0
  5  6  1  0
  6  7  1  0
  7  8  1  0
  8  9  2  0
  8 10  1  0
 10 11  1  0
 11 12  1  0
 12 13  2  0
 13 14  1  0
 14 15  1  0
 14 16  2  0
 16 17  1  0
 17 18  1  0
 17 19  2  0
 19 20  1  0
 20 21  1  0
  6 22  2  0
 22  2  1  0
 20 10  2  0
 19 12  1  0
M  END
>  <Binding energies>  (41) 
[-6.98]

>  <Ligand effiencies>  (41) 
[-0.2792]

>  <Interactions>  (41) 
["V-B:TYR:539:CE2:9845, V-A:GLY:454:C:4043, V-B:TYR:539:CA:9838, V-A:HIS:456:CE1:4066, V-B:TYR:539:CG:9841, V-B:TYR:539:CD1:9842, V-B:TYR:539:CZ:9846, V-A:GLY:453:C:4038, V-B:PRO:540:CA:9852, V-A:ARG:545:CG:4919, V-A:ARG:545:CZ:4923, V-B:TYR:539:CE1:9844, V-A:ARG:545:CD:4920, V-A:GLY:453:CA:4040, V-B:ALA:541:CB:9861, H-A:GLY:454:N:4046, V-B:TYR:539:C:9836, H-A:TYR:484:OH:4344, V-A:GLY:454:CA:4045, V-B:PRO:540:N:9853, V-B:PRO:540:CB:9854, V-B:TYR:539:CD2:9843, H-B:GLU:543:OE2:9879, V-B:GLU:543:CD:9877, V-B:GLU:543:CG:9876, V-A:LEU:475:CD1:4254, V-B:PRO:540:CD:9856, H-B:GLU:543:OE1:9878, V-B:LEU:363:CD1:8157"]

$$$$
4af_Grossjean_2025
     RDKit          3D

 21 23  0  0  0  0  0  0  0  0999 V2000
  134.4270  125.0070   65.5660 C   0  0  0  0  0  0  0  0  0  0  0  0
  133.1040  124.8440   64.8390 C   0  0  0  0  0  0  0  0  0  0  0  0
  131.9680  125.5370   65.2520 C   0  0  0  0  0  0  0  0  0  0  0  0
  130.7590  125.3690   64.5680 C   0  0  0  0  0  0  0  0  0  0  0  0
  129.5460  126.1450   65.0570 C   0  0  0  0  0  0  0  0  0  0  0  0
  130.7420  124.4800   63.4590 C   0  0  0  0  0  0  0  0  0  0  0  0
  129.6980  124.0780   62.5540 C   0  0  0  0  0  0  0  0  0  0  0  0
  128.4180  124.5630   62.6520 N   0  0  0  0  0  0  0  0  0  0  0  0
  130.1120  123.1590   61.5780 C   0  0  0  0  0  0  0  0  0  0  0  0
  129.3140  122.5230   60.5280 C   0  0  0  0  0  0  0  0  0  0  0  0
  129.3370  121.3000   60.3770 O   0  0  0  0  0  0  0  0  0  0  0  0
  128.5640  123.3670   59.7780 N   0  0  0  0  0  0  0  0  0  0  0  0
  127.7350  123.0880   58.6750 C   0  0  0  0  0  0  0  0  0  0  0  0
  126.3840  123.4610   58.5560 C   0  0  0  0  0  0  0  0  0  0  0  0
  125.6670  123.1050   57.4120 C   0  0  0  0  0  0  0  0  0  0  0  0
  126.3180  122.3780   56.4140 C   0  0  0  0  0  0  0  0  0  0  0  0
  127.6170  121.9990   56.5090 N   0  0  0  0  0  0  0  0  0  0  0  0
  128.3010  122.3530   57.6260 C   0  0  0  0  0  0  0  0  0  0  0  0
  131.8230  122.7620   61.7610 S   0  0  0  0  0  0  0  0  0  0  0  0
  131.9720  123.8320   63.1370 C   0  0  0  0  0  0  0  0  0  0  0  0
  133.1260  123.9900   63.7860 N   0  0  0  0  0  0  0  0  0  0  0  0
  1  2  1  0
  2  3  2  0
  3  4  1  0
  4  5  1  0
  4  6  2  0
  6  7  1  0
  7  8  1  0
  7  9  2  0
  9 10  1  0
 10 11  2  0
 10 12  1  0
 12 13  1  0
 13 14  2  0
 14 15  1  0
 15 16  2  0
 16 17  1  0
 17 18  2  0
  9 19  1  0
 19 20  1  0
 20 21  2  0
 21  2  1  0
 20  6  1  0
 18 13  1  0
M  END
>  <Binding energies>  (42) 
[-7.11]

>  <Ligand effiencies>  (42) 
[-0.29625]

>  <Interactions>  (42) 
["V-B:TYR:539:CE2:9845, V-A:GLY:454:C:4043, V-A:HIS:456:CE1:4066, V-B:TYR:539:CG:9841, V-B:TYR:539:CD1:9842, V-B:TYR:539:CZ:9846, V-A:GLY:453:C:4038, V-B:PRO:540:CA:9852, V-A:ARG:545:CG:4919, V-A:ARG:545:CZ:4923, V-B:TYR:539:CE1:9844, V-A:ARG:545:CD:4920, V-A:GLY:453:CA:4040, V-B:ALA:541:CB:9861, H-A:GLY:454:N:4046, V-B:TYR:539:C:9836, H-A:TYR:484:OH:4344, V-A:GLY:454:CA:4045, V-B:PRO:540:N:9853, V-B:PRO:540:CB:9854, V-B:TYR:539:CD2:9843, H-B:GLU:543:OE2:9879, V-B:GLU:543:CD:9877, V-B:GLU:543:CG:9876, H-B:TYR:539:N:9839, V-B:PRO:540:CD:9856, H-B:GLU:543:OE1:9878, V-B:ILE:538:CB:9831"]

$$$$
4ag_Grossjean_2025
     RDKit          3D

 22 24  0  0  0  0  0  0  0  0999 V2000
  129.0680  126.1130   65.2890 C   0  0  0  0  0  0  0  0  0  0  0  0
  129.3660  126.5820   66.7010 C   0  0  0  0  0  0  0  0  0  0  0  0
  130.5540  127.2460   67.0010 C   0  0  0  0  0  0  0  0  0  0  0  0
  130.8080  127.6710   68.3100 C   0  0  0  0  0  0  0  0  0  0  0  0
  132.1190  128.3910   68.5870 C   0  0  0  0  0  0  0  0  0  0  0  0
  129.8230  127.4010   69.2970 C   0  0  0  0  0  0  0  0  0  0  0  0
  129.7570  127.6890   70.7040 C   0  0  0  0  0  0  0  0  0  0  0  0
  130.7640  128.3460   71.3670 N   0  0  0  0  0  0  0  0  0  0  0  0
  128.5830  127.2360   71.3230 C   0  0  0  0  0  0  0  0  0  0  0  0
  128.1860  127.3670   72.7250 C   0  0  0  0  0  0  0  0  0  0  0  0
  129.0190  127.5670   73.6130 O   0  0  0  0  0  0  0  0  0  0  0  0
  126.8680  127.2370   72.9840 N   0  0  0  0  0  0  0  0  0  0  0  0
  126.2470  127.3570   74.3030 C   0  0  0  0  0  0  0  0  0  0  0  0
  125.8460  128.7800   74.6710 C   0  0  0  0  0  0  0  0  0  0  0  0
  126.7010  129.8440   74.3700 C   0  0  0  0  0  0  0  0  0  0  0  0
  126.3250  131.1480   74.6830 C   0  0  0  0  0  0  0  0  0  0  0  0
  125.0920  131.3850   75.2860 C   0  0  0  0  0  0  0  0  0  0  0  0
  124.2280  130.3310   75.5750 C   0  0  0  0  0  0  0  0  0  0  0  0
  124.6030  129.0270   75.2610 C   0  0  0  0  0  0  0  0  0  0  0  0
  127.5130  126.4440   70.1660 S   0  0  0  0  0  0  0  0  0  0  0  0
  128.6490  126.7150   68.8630 C   0  0  0  0  0  0  0  0  0  0  0  0
  128.4030  126.3100   67.6160 N   0  0  0  0  0  0  0  0  0  0  0  0
  1  2  1  0
  2  3  2  0
  3  4  1  0
  4  5  1  0
  4  6  2  0
  6  7  1  0
  7  8  1  0
  7  9  2  0
  9 10  1  0
 10 11  2  0
 10 12  1  0
 12 13  1  0
 13 14  1  0
 14 15  2  0
 15 16  1  0
 16 17  2  0
 17 18  1  0
 18 19  2  0
  9 20  1  0
 20 21  1  0
 21 22  2  0
 22  2  1  0
 21  6  1  0
 19 14  1  0
M  END
>  <Binding energies>  (43) 
[-7.64]

>  <Ligand effiencies>  (43) 
[-0.3056]

>  <Interactions>  (43) 
["V-A:HIS:456:CE1:4066, V-A:ARG:545:CG:4919, V-B:HIS:456:CD2:9036, V-A:GLU:543:CB:4903, H-B:GLY:544:O:9882, V-B:VAL:458:CG2:9055, V-B:LYS:547:CD:9918, H-A:LYS:547:NZ:4948, V-B:GLY:544:C:9881, V-B:LYS:547:CE:9919, V-B:VAL:457:C:9041, V-B:GLU:543:CB:9875, V-B:GLU:543:CD:9877, V-B:HIS:456:CB:9033, V-A:GLU:543:C:4899, V-B:HIS:456:CE1:9038, V-B:GLU:543:CG:9876, V-A:GLY:544:C:4909, V-A:GLU:543:CD:4905, V-B:GLU:543:C:9871, V-B:ASP:473:CG:9208, V-B:HIS:456:C:9029, V-B:LYS:471:CB:9185, V-B:LYS:471:CE:9188, V-B:HIS:456:CG:9034, H-A:HIS:456:NE2:4067, H-A:GLU:543:O:4900, H-B:HIS:456:NE2:9039, V-A:GLU:543:CA:4901, V-A:GLY:544:CA:4911, V-A:ARG:545:CA:4916, H-A:GLY:544:O:4910, V-B:VAL:457:CA:9043, V-B:ASP:473:CB:9207, V-A:ARG:545:CB:4918"]

$$$$
4ah_Grossjean_2025
     RDKit          3D

 28 30  0  0  0  0  0  0  0  0999 V2000
  129.7420  122.8400   71.6280 C   0  0  0  0  0  0  0  0  0  0  0  0
  129.2910  123.9730   72.3600 O   0  0  0  0  0  0  0  0  0  0  0  0
  129.2090  125.2020   71.7280 C   0  0  0  0  0  0  0  0  0  0  0  0
  128.7910  125.3720   70.3990 C   0  0  0  0  0  0  0  0  0  0  0  0
  128.7340  126.6430   69.8260 C   0  0  0  0  0  0  0  0  0  0  0  0
  128.2340  126.8140   68.3950 C   0  0  0  0  0  0  0  0  0  0  0  0
  129.0880  126.1720   67.3960 N   0  0  0  0  0  0  0  0  0  0  0  0
  130.3370  126.5650   67.0670 C   0  0  0  0  0  0  0  0  0  0  0  0
  130.8750  127.5540   67.5670 O   0  0  0  0  0  0  0  0  0  0  0  0
  131.0090  125.7690   66.0410 C   0  0  0  0  0  0  0  0  0  0  0  0
  132.4840  126.3680   65.2800 S   0  0  0  0  0  0  0  0  0  0  0  0
  132.5780  124.9570   64.2490 C   0  0  0  0  0  0  0  0  0  0  0  0
  133.5630  124.7920   63.3660 N   0  0  0  0  0  0  0  0  0  0  0  0
  133.5190  123.6550   62.6310 C   0  0  0  0  0  0  0  0  0  0  0  0
  134.6480  123.4890   61.6300 C   0  0  0  0  0  0  0  0  0  0  0  0
  132.5250  122.6880   62.7570 C   0  0  0  0  0  0  0  0  0  0  0  0
  131.4900  122.8640   63.6840 C   0  0  0  0  0  0  0  0  0  0  0  0
  130.4270  121.7810   63.7850 C   0  0  0  0  0  0  0  0  0  0  0  0
  131.5010  124.0470   64.4730 C   0  0  0  0  0  0  0  0  0  0  0  0
  130.6140  124.5410   65.4920 C   0  0  0  0  0  0  0  0  0  0  0  0
  129.4930  123.8550   65.8850 N   0  0  0  0  0  0  0  0  0  0  0  0
  129.0700  127.7600   70.5920 C   0  0  0  0  0  0  0  0  0  0  0  0
  129.4960  127.6190   71.9220 C   0  0  0  0  0  0  0  0  0  0  0  0
  129.8570  128.6790   72.7330 O   0  0  0  0  0  0  0  0  0  0  0  0
  129.4760  130.0010   72.3660 C   0  0  0  0  0  0  0  0  0  0  0  0
  129.5670  126.3330   72.4760 C   0  0  0  0  0  0  0  0  0  0  0  0
  129.9650  126.1810   73.7830 O   0  0  0  0  0  0  0  0  0  0  0  0
  131.0950  125.3360   73.9490 C   0  0  0  0  0  0  0  0  0  0  0  0
  1  2  1  0
  2  3  1  0
  3  4  2  0
  4  5  1  0
  5  6  1  0
  6  7  1  0
  7  8  1  0
  8  9  2  0
  8 10  1  0
 10 11  1  0
 11 12  1  0
 12 13  2  0
 13 14  1  0
 14 15  1  0
 14 16  2  0
 16 17  1  0
 17 18  1  0
 17 19  2  0
 19 20  1  0
 20 21  1  0
  5 22  2  0
 22 23  1  0
 23 24  1  0
 24 25  1  0
 23 26  2  0
 26 27  1  0
 27 28  1  0
 26  3  1  0
 20 10  2  0
 19 12  1  0
M  END
>  <Binding energies>  (44) 
[-7.15]

>  <Ligand effiencies>  (44) 
[-0.2306451612903226]

>  <Interactions>  (44) 
["V-A:HIS:456:CE1:4066, V-A:GLY:453:C:4038, V-A:ARG:545:CG:4919, V-A:ARG:545:CZ:4923, V-A:ARG:545:CD:4920, V-A:GLY:453:CA:4040, V-B:ALA:541:CB:9861, H-A:GLY:454:N:4046, H-A:TYR:484:OH:4344, V-A:GLY:454:CA:4045, H-B:GLU:543:OE2:9879, V-A:TYR:484:CE1:4341, V-B:HIS:456:CD2:9036, V-A:LYS:547:CE:4947, H-A:LYS:547:NZ:4948, V-B:LYS:547:CE:9919, V-B:GLU:543:CB:9875, V-B:GLU:543:CD:9877, V-A:GLU:543:C:4899, V-B:HIS:456:CE1:9038, V-A:TYR:484:CZ:4343, V-B:GLU:543:CG:9876, H-A:ARG:545:NH2:4925, H-A:ARG:545:NH1:4924, V-A:LEU:475:CD1:4254, V-A:ILE:369:CG1:3234, V-A:LEU:475:CD2:4255, V-A:HIS:456:CD2:4064, V-B:GLU:543:C:9871, H-B:GLU:543:OE1:9878, V-B:GLU:543:CA:9873, V-A:TYR:484:CG:4338, V-A:TYR:484:CD2:4340, V-A:TYR:484:CB:4337, H-B:LYS:547:NZ:9920, V-A:TYR:484:CD1:4339, H-B:GLU:543:O:9872, V-A:LEU:475:CG:4253, V-A:GLY:544:CA:4911"]

$$$$
4ai_Grossjean_2025
     RDKit          3D

 20 22  0  0  0  0  0  0  0  0999 V2000
  134.3460  125.0020   65.5340 C   0  0  0  0  0  0  0  0  0  0  0  0
  133.0320  124.7860   64.8050 C   0  0  0  0  0  0  0  0  0  0  0  0
  131.8930  125.5110   65.1500 C   0  0  0  0  0  0  0  0  0  0  0  0
  130.6930  125.3000   64.4610 C   0  0  0  0  0  0  0  0  0  0  0  0
  129.4780  126.1170   64.8730 C   0  0  0  0  0  0  0  0  0  0  0  0
  130.6890  124.3350   63.4180 C   0  0  0  0  0  0  0  0  0  0  0  0
  129.6580  123.8770   62.5260 C   0  0  0  0  0  0  0  0  0  0  0  0
  128.3770  124.3680   62.5730 N   0  0  0  0  0  0  0  0  0  0  0  0
  130.0860  122.8990   61.6140 C   0  0  0  0  0  0  0  0  0  0  0  0
  129.3060  122.2130   60.5820 C   0  0  0  0  0  0  0  0  0  0  0  0
  129.1330  120.9940   60.6300 O   0  0  0  0  0  0  0  0  0  0  0  0
  128.7940  123.0120   59.6120 N   0  0  0  0  0  0  0  0  0  0  0  0
  128.0150  122.6310   58.5270 C   0  0  0  0  0  0  0  0  0  0  0  0
  126.7810  123.2120   58.2340 C   0  0  0  0  0  0  0  0  0  0  0  0
  126.3380  122.5620   57.1050 C   0  0  0  0  0  0  0  0  0  0  0  0
  127.2580  121.6400   56.7360 O   0  0  0  0  0  0  0  0  0  0  0  0
  128.3170  121.6930   57.6430 N   0  0  0  0  0  0  0  0  0  0  0  0
  131.7880  122.5020   61.8580 S   0  0  0  0  0  0  0  0  0  0  0  0
  131.9200  123.6600   63.1630 C   0  0  0  0  0  0  0  0  0  0  0  0
  133.0650  123.8570   63.8180 N   0  0  0  0  0  0  0  0  0  0  0  0
  1  2  1  0
  2  3  2  0
  3  4  1  0
  4  5  1  0
  4  6  2  0
  6  7  1  0
  7  8  1  0
  7  9  2  0
  9 10  1  0
 10 11  2  0
 10 12  1  0
 12 13  1  0
 13 14  1  0
 14 15  2  0
 15 16  1  0
 16 17  1  0
  9 18  1  0
 18 19  1  0
 19 20  2  0
 20  2  1  0
 19  6  1  0
 17 13  2  0
M  END
>  <Binding energies>  (45) 
[-6.84]

>  <Ligand effiencies>  (45) 
[-0.29739130434782607]

>  <Interactions>  (45) 
["V-B:TYR:539:CE2:9845, V-A:GLY:454:C:4043, V-A:HIS:456:CE1:4066, V-B:TYR:539:CZ:9846, V-A:GLY:453:C:4038, V-B:PRO:540:CA:9852, V-A:ARG:545:CG:4919, V-A:ARG:545:CZ:4923, V-A:ARG:545:CD:4920, V-A:GLY:453:CA:4040, V-B:ALA:541:CB:9861, H-A:GLY:454:N:4046, V-B:TYR:539:C:9836, H-A:TYR:484:OH:4344, V-A:GLY:454:CA:4045, V-B:PRO:540:N:9853, V-B:PRO:540:CB:9854, V-B:TYR:539:CD2:9843, H-B:GLU:543:OE2:9879, V-B:GLU:543:CD:9877, V-B:GLU:543:CG:9876, V-A:LEU:475:CD1:4254, H-B:TYR:539:N:9839, V-B:PRO:540:CD:9856, H-B:GLU:543:OE1:9878"]

$$$$
4aj_Grossjean_2025
     RDKit          3D

 20 22  0  0  0  0  0  0  0  0999 V2000
  133.6500  125.1820   65.3850 C   0  0  0  0  0  0  0  0  0  0  0  0
  132.9210  124.7350   64.1310 C   0  0  0  0  0  0  0  0  0  0  0  0
  133.6140  124.4870   62.9490 C   0  0  0  0  0  0  0  0  0  0  0  0
  132.9210  124.0810   61.8030 C   0  0  0  0  0  0  0  0  0  0  0  0
  133.7230  123.8230   60.5360 C   0  0  0  0  0  0  0  0  0  0  0  0
  131.5110  123.9350   61.8970 C   0  0  0  0  0  0  0  0  0  0  0  0
  130.5100  123.5460   60.9400 C   0  0  0  0  0  0  0  0  0  0  0  0
  130.8230  123.2260   59.6430 N   0  0  0  0  0  0  0  0  0  0  0  0
  129.2060  123.5210   61.4580 C   0  0  0  0  0  0  0  0  0  0  0  0
  127.9590  123.1850   60.7680 C   0  0  0  0  0  0  0  0  0  0  0  0
  127.9210  122.2660   59.9470 O   0  0  0  0  0  0  0  0  0  0  0  0
  126.8840  123.9370   61.1100 N   0  0  0  0  0  0  0  0  0  0  0  0
  125.5920  123.8180   60.6170 C   0  0  0  0  0  0  0  0  0  0  0  0
  124.6000  123.1100   61.1150 N   0  0  0  0  0  0  0  0  0  0  0  0
  123.5060  123.2320   60.3880 C   0  0  0  0  0  0  0  0  0  0  0  0
  123.5980  124.0550   59.2690 C   0  0  0  0  0  0  0  0  0  0  0  0
  125.2100  124.7000   59.1740 S   0  0  0  0  0  0  0  0  0  0  0  0
  129.1850  124.0000   63.1560 S   0  0  0  0  0  0  0  0  0  0  0  0
  130.9210  124.2170   63.1660 C   0  0  0  0  0  0  0  0  0  0  0  0
  131.5780  124.6050   64.2600 N   0  0  0  0  0  0  0  0  0  0  0  0
  1  2  1  0
  2  3  2  0
  3  4  1  0
  4  5  1  0
  4  6  2  0
  6  7  1  0
  7  8  1  0
  7  9  2  0
  9 10  1  0
 10 11  2  0
 10 12  1  0
 12 13  1  0
 13 14  2  0
 14 15  1  0
 15 16  2  0
 16 17  1  0
  9 18  1  0
 18 19  1  0
 19 20  2  0
 20  2  1  0
 19  6  1  0
 17 13  1  0
M  END
>  <Binding energies>  (46) 
[-6.62]

>  <Ligand effiencies>  (46) 
[-0.28782608695652173]

>  <Interactions>  (46) 
["H-B:ALA:541:N:9860, V-B:TYR:539:CE2:9845, V-A:HIS:456:CE1:4066, V-B:TYR:539:CZ:9846, V-B:ASN:362:CB:8144, V-B:PRO:540:CA:9852, V-A:ARG:545:CZ:4923, V-A:ARG:545:CD:4920, V-B:ALA:541:CB:9861, V-B:ASN:362:C:8140, H-A:TYR:484:OH:4344, V-A:GLY:454:CA:4045, V-B:PRO:540:CB:9854, V-B:TYR:539:CD2:9843, V-A:ASP:366:CG:3209, H-B:GLU:543:OE2:9879, V-B:GLU:543:CD:9877, V-B:GLU:543:CG:9876, V-B:LEU:363:CA:8153, H-B:TYR:539:OH:9847, V-A:ASP:366:CB:3208, V-B:LEU:363:CD1:8157, V-B:LEU:363:CB:8155, V-A:ASP:366:CA:3206"]

$$$$
4ak_Grossjean_2025
     RDKit          3D

 25 26  0  0  0  0  0  0  0  0999 V2000
  129.7630  122.8180   71.6710 C   0  0  0  0  0  0  0  0  0  0  0  0
  129.5030  123.8270   72.6330 O   0  0  0  0  0  0  0  0  0  0  0  0
  129.1120  125.0690   72.0600 C   0  0  0  0  0  0  0  0  0  0  0  0
  130.1420  126.1460   72.4210 C   0  0  0  0  0  0  0  0  0  0  0  0
  129.5010  127.4130   72.4730 O   0  0  0  0  0  0  0  0  0  0  0  0
  130.1020  128.3960   71.6400 C   0  0  0  0  0  0  0  0  0  0  0  0
  130.3030  127.8150   70.2350 C   0  0  0  0  0  0  0  0  0  0  0  0
  129.1280  127.1190   69.8420 O   0  0  0  0  0  0  0  0  0  0  0  0
  129.0540  126.8570   68.4470 C   0  0  0  0  0  0  0  0  0  0  0  0
  129.1210  125.3370   68.2110 C   0  0  0  0  0  0  0  0  0  0  0  0
  129.9590  124.9570   67.0730 N   0  0  0  0  0  0  0  0  0  0  0  0
  129.8710  125.4760   65.8320 C   0  0  0  0  0  0  0  0  0  0  0  0
  129.0630  126.3600   65.5410 O   0  0  0  0  0  0  0  0  0  0  0  0
  130.7990  124.9340   64.8410 C   0  0  0  0  0  0  0  0  0  0  0  0
  132.3980  125.6490   64.6350 S   0  0  0  0  0  0  0  0  0  0  0  0
  132.8040  124.4940   63.3860 C   0  0  0  0  0  0  0  0  0  0  0  0
  133.9850  124.5100   62.7660 N   0  0  0  0  0  0  0  0  0  0  0  0
  134.1720  123.5620   61.8160 C   0  0  0  0  0  0  0  0  0  0  0  0
  135.5220  123.5960   61.1240 C   0  0  0  0  0  0  0  0  0  0  0  0
  133.2150  122.6070   61.4750 C   0  0  0  0  0  0  0  0  0  0  0  0
  131.9770  122.5930   62.1270 C   0  0  0  0  0  0  0  0  0  0  0  0
  130.9640  121.5340   61.7180 C   0  0  0  0  0  0  0  0  0  0  0  0
  131.7440  123.5730   63.1290 C   0  0  0  0  0  0  0  0  0  0  0  0
  130.6150  123.8430   63.9780 C   0  0  0  0  0  0  0  0  0  0  0  0
  129.4670  123.0930   63.9310 N   0  0  0  0  0  0  0  0  0  0  0  0
  1  2  1  0
  2  3  1  0
  3  4  1  0
  4  5  1  0
  5  6  1  0
  6  7  1  0
  7  8  1  0
  8  9  1  0
  9 10  1  0
 10 11  1  0
 11 12  1  0
 12 13  2  0
 12 14  1  0
 14 15  1  0
 15 16  1  0
 16 17  2  0
 17 18  1  0
 18 19  1  0
 18 20  2  0
 20 21  1  0
 21 22  1  0
 21 23  2  0
 23 24  1  0
 24 25  1  0
 24 14  2  0
 23 16  1  0
M  END
>  <Binding energies>  (47) 
[-6.14]

>  <Ligand effiencies>  (47) 
[-0.21928571428571428]

>  <Interactions>  (47) 
["V-B:TYR:539:CE2:9845, V-A:HIS:456:CE1:4066, V-A:GLY:453:C:4038, V-A:ARG:545:CZ:4923, V-A:GLY:453:CA:4040, V-B:ALA:541:CB:9861, H-A:GLY:454:N:4046, H-A:TYR:484:OH:4344, V-A:GLY:454:CA:4045, V-B:TYR:539:CD2:9843, V-A:ASP:366:CG:3209, H-B:GLU:543:OE2:9879, V-A:TYR:484:CE1:4341, V-B:HIS:456:CD2:9036, H-A:LYS:547:NZ:4948, V-B:LYS:547:CE:9919, V-B:GLU:543:CB:9875, V-B:GLU:543:CD:9877, V-B:HIS:456:CE1:9038, V-A:TYR:484:CZ:4343, V-B:GLU:543:CG:9876, V-A:GLY:544:C:4909, V-A:ILE:369:CB:3232, H-A:ARG:545:NH1:4924, V-A:LEU:475:CD1:4254, V-A:ILE:369:CG1:3234, V-A:HIS:456:CD2:4064, V-B:GLU:543:C:9871, V-B:GLU:543:CA:9873, V-A:ASP:366:CA:3206, V-A:TYR:484:CG:4338, V-A:TYR:484:CD2:4340, V-A:TYR:484:CB:4337, H-B:LYS:547:NZ:9920, V-A:TYR:484:CD1:4339, H-A:HIS:456:NE2:4067"]

$$$$
4al_Grossjean_2025
     RDKit          3D

 16 17  0  0  0  0  0  0  0  0999 V2000
  125.6180  131.3940   58.8400 C   0  0  0  0  0  0  0  0  0  0  0  0
  126.5880  132.4120   58.6410 O   0  0  0  0  0  0  0  0  0  0  0  0
  127.5050  132.6980   59.6010 C   0  0  0  0  0  0  0  0  0  0  0  0
  127.2480  133.3140   60.6390 O   0  0  0  0  0  0  0  0  0  0  0  0
  128.8560  132.1930   59.2760 C   0  0  0  0  0  0  0  0  0  0  0  0
  129.2800  131.8250   57.6020 S   0  0  0  0  0  0  0  0  0  0  0  0
  130.8920  131.3370   58.0750 C   0  0  0  0  0  0  0  0  0  0  0  0
  131.7890  130.9120   57.1840 N   0  0  0  0  0  0  0  0  0  0  0  0
  133.0020  130.5630   57.6810 C   0  0  0  0  0  0  0  0  0  0  0  0
  134.0080  130.0820   56.6510 C   0  0  0  0  0  0  0  0  0  0  0  0
  133.3340  130.6300   59.0320 C   0  0  0  0  0  0  0  0  0  0  0  0
  132.3910  131.0770   59.9640 C   0  0  0  0  0  0  0  0  0  0  0  0
  132.8000  131.1320   61.4270 C   0  0  0  0  0  0  0  0  0  0  0  0
  131.1080  131.4510   59.4800 C   0  0  0  0  0  0  0  0  0  0  0  0
  129.9290  131.9410   60.1390 C   0  0  0  0  0  0  0  0  0  0  0  0
  129.8710  132.1420   61.4940 N   0  0  0  0  0  0  0  0  0  0  0  0
  1  2  1  0
  2  3  1  0
  3  4  2  0
  3  5  1  0
  5  6  1  0
  6  7  1  0
  7  8  2  0
  8  9  1  0
  9 10  1  0
  9 11  2  0
 11 12  1  0
 12 13  1  0
 12 14  2  0
 14 15  1  0
 15 16  1  0
 15  5  2  0
 14  7  1  0
M  END
>  <Binding energies>  (48) 
[-4.82]

>  <Ligand effiencies>  (48) 
[-0.2677777777777778]

>  <Interactions>  (48) 
["V-A:ASP:366:CG:3209, V-A:GLU:543:CD:4905, H-A:GLU:543:OE2:4907, V-A:ASP:366:CB:3208, V-A:LEU:363:CB:3183, V-A:PRO:540:C:4878, V-A:ASN:362:C:3168, V-A:PRO:540:CA:4880, V-A:PRO:540:CB:4882, V-A:LEU:363:CD1:3185, V-A:TYR:539:C:4864, V-A:ALA:541:CB:4889, V-A:ASN:362:CB:3172, V-A:LEU:363:CA:3181, V-A:TYR:539:CE2:4873, V-A:TYR:539:CD2:4871, V-A:ALA:541:CA:4887, V-A:TYR:531:CZ:4791, H-A:TYR:531:OH:4792, V-A:LEU:363:CG:3184, V-A:LEU:363:C:3179, V-A:TYR:531:CE2:4790"]

$$$$
4bc_Grossjean_2025
     RDKit          3D

 26 28  0  0  0  0  0  0  0  0999 V2000
  128.3840  127.8000   72.9630 C   0  0  0  0  0  0  0  0  0  0  0  0
  127.7000  127.3330   71.8050 O   0  0  0  0  0  0  0  0  0  0  0  0
  128.4090  127.1410   70.6350 C   0  0  0  0  0  0  0  0  0  0  0  0
  127.9410  126.1430   69.7810 C   0  0  0  0  0  0  0  0  0  0  0  0
  128.5910  125.8750   68.5790 C   0  0  0  0  0  0  0  0  0  0  0  0
  129.7170  126.6130   68.2100 C   0  0  0  0  0  0  0  0  0  0  0  0
  130.3160  126.2620   66.9860 N   0  0  0  0  0  0  0  0  0  0  0  0
  131.4000  126.8020   66.3770 C   0  0  0  0  0  0  0  0  0  0  0  0
  132.0330  127.7600   66.8220 O   0  0  0  0  0  0  0  0  0  0  0  0
  131.7900  126.1700   65.1120 C   0  0  0  0  0  0  0  0  0  0  0  0
  133.1240  125.0200   65.0700 S   0  0  0  0  0  0  0  0  0  0  0  0
  132.9280  124.7860   63.3490 C   0  0  0  0  0  0  0  0  0  0  0  0
  133.7140  123.9530   62.6660 N   0  0  0  0  0  0  0  0  0  0  0  0
  133.4670  123.8570   61.3400 C   0  0  0  0  0  0  0  0  0  0  0  0
  134.3690  122.8990   60.5820 C   0  0  0  0  0  0  0  0  0  0  0  0
  132.4640  124.5680   60.6850 C   0  0  0  0  0  0  0  0  0  0  0  0
  131.6350  125.4470   61.3980 C   0  0  0  0  0  0  0  0  0  0  0  0
  130.5470  126.2100   60.6330 C   0  0  0  0  0  0  0  0  0  0  0  0
  130.6190  127.5310   60.8020 F   0  0  0  0  0  0  0  0  0  0  0  0
  130.6610  125.9670   59.3280 F   0  0  0  0  0  0  0  0  0  0  0  0
  129.3430  125.8190   61.0510 F   0  0  0  0  0  0  0  0  0  0  0  0
  131.8670  125.5710   62.8010 C   0  0  0  0  0  0  0  0  0  0  0  0
  131.2330  126.3500   63.8360 C   0  0  0  0  0  0  0  0  0  0  0  0
  130.1780  127.1910   63.5880 N   0  0  0  0  0  0  0  0  0  0  0  0
  130.2030  127.6090   69.0710 C   0  0  0  0  0  0  0  0  0  0  0  0
  129.5510  127.8730   70.2720 C   0  0  0  0  0  0  0  0  0  0  0  0
  1  2  1  0
  2  3  1  0
  3  4  2  0
  4  5  1  0
  5  6  2  0
  6  7  1  0
  7  8  1  0
  8  9  2  0
  8 10  1  0
 10 11  1  0
 11 12  1  0
 12 13  2  0
 13 14  1  0
 14 15  1  0
 14 16  2  0
 16 17  1  0
 17 18  1  0
 18 19  1  0
 18 20  1  0
 18 21  1  0
 17 22  2  0
 22 23  1  0
 23 24  1  0
  6 25  1  0
 25 26  2  0
 26  3  1  0
 23 10  2  0
 22 12  1  0
M  END
>  <Binding energies>  (49) 
[-5.89]

>  <Ligand effiencies>  (49) 
[-0.20310344827586205]

>  <Interactions>  (49) 
["V-A:HIS:456:CE1:4066, V-A:ARG:545:CG:4919, V-A:ARG:545:CZ:4923, H-A:GLY:454:N:4046, V-A:ASP:366:CG:3209, V-B:HIS:456:CD2:9036, V-B:GLY:544:C:9881, V-B:GLU:543:CB:9875, V-B:HIS:456:CE1:9038, V-A:GLU:543:CD:4905, V-A:ILE:369:CB:3232, V-A:ILE:369:CG2:3233, V-A:ILE:369:CG1:3234, H-A:GLU:543:OE2:4907, H-A:GLU:543:OE1:4906, V-B:GLU:543:C:9871, H-A:ARG:545:NE:4921"]

$$$$
4bf_Grossjean_2025
     RDKit          3D

 24 26  0  0  0  0  0  0  0  0999 V2000
  134.5920  125.0020   65.6120 C   0  0  0  0  0  0  0  0  0  0  0  0
  133.2690  124.8900   64.8760 C   0  0  0  0  0  0  0  0  0  0  0  0
  132.1820  125.6840   65.2310 C   0  0  0  0  0  0  0  0  0  0  0  0
  130.9630  125.5680   64.5440 C   0  0  0  0  0  0  0  0  0  0  0  0
  129.7940  126.4610   64.9710 C   0  0  0  0  0  0  0  0  0  0  0  0
  128.7900  125.7760   65.5260 F   0  0  0  0  0  0  0  0  0  0  0  0
  130.2110  127.3540   65.8680 F   0  0  0  0  0  0  0  0  0  0  0  0
  129.3010  127.0990   63.9090 F   0  0  0  0  0  0  0  0  0  0  0  0
  130.8990  124.6150   63.4840 C   0  0  0  0  0  0  0  0  0  0  0  0
  129.8470  124.2230   62.5790 C   0  0  0  0  0  0  0  0  0  0  0  0
  128.5980  124.7890   62.6080 N   0  0  0  0  0  0  0  0  0  0  0  0
  130.2170  123.2200   61.6680 C   0  0  0  0  0  0  0  0  0  0  0  0
  129.3960  122.5710   60.6400 C   0  0  0  0  0  0  0  0  0  0  0  0
  129.4090  121.3470   60.5080 O   0  0  0  0  0  0  0  0  0  0  0  0
  128.6400  123.4080   59.8880 N   0  0  0  0  0  0  0  0  0  0  0  0
  127.7920  123.1170   58.8020 C   0  0  0  0  0  0  0  0  0  0  0  0
  126.4430  123.4990   58.6980 C   0  0  0  0  0  0  0  0  0  0  0  0
  125.7060  123.1310   57.5690 C   0  0  0  0  0  0  0  0  0  0  0  0
  126.3380  122.3850   56.5730 C   0  0  0  0  0  0  0  0  0  0  0  0
  127.6350  121.9990   56.6540 N   0  0  0  0  0  0  0  0  0  0  0  0
  128.3380  122.3640   57.7570 C   0  0  0  0  0  0  0  0  0  0  0  0
  131.8900  122.7250   61.9110 S   0  0  0  0  0  0  0  0  0  0  0  0
  132.0870  123.8640   63.2220 C   0  0  0  0  0  0  0  0  0  0  0  0
  133.2410  123.9780   63.8760 N   0  0  0  0  0  0  0  0  0  0  0  0
  1  2  1  0
  2  3  2  0
  3  4  1  0
  4  5  1  0
  5  6  1  0
  5  7  1  0
  5  8  1  0
  4  9  2  0
  9 10  1  0
 10 11  1  0
 10 12  2  0
 12 13  1  0
 13 14  2  0
 13 15  1  0
 15 16  1  0
 16 17  2  0
 17 18  1  0
 18 19  2  0
 19 20  1  0
 20 21  2  0
 12 22  1  0
 22 23  1  0
 23 24  2  0
 24  2  1  0
 23  9  1  0
 21 16  1  0
M  END
>  <Binding energies>  (50) 
[-6.65]

>  <Ligand effiencies>  (50) 
[-0.24629629629629632]

>  <Interactions>  (50) 
["V-B:TYR:539:CE2:9845, V-A:GLY:454:C:4043, V-A:HIS:456:CE1:4066, V-B:TYR:539:CG:9841, V-B:TYR:539:CD1:9842, V-B:TYR:539:CZ:9846, V-A:GLY:453:C:4038, V-B:PRO:540:CA:9852, V-A:ARG:545:CG:4919, V-A:ARG:545:CZ:4923, V-B:TYR:539:CE1:9844, V-A:ARG:545:CD:4920, V-A:GLY:453:CA:4040, V-B:ALA:541:CB:9861, H-A:GLY:454:N:4046, V-B:TYR:539:C:9836, H-A:TYR:484:OH:4344, V-A:GLY:454:CA:4045, V-B:PRO:540:N:9853, V-B:PRO:540:CB:9854, V-B:TYR:539:CD2:9843, H-B:GLU:543:OE2:9879, V-A:GLU:543:CB:4903, V-B:GLU:543:CB:9875, V-B:GLU:543:CD:9877, V-B:GLU:543:CG:9876, V-A:GLU:543:CD:4905, H-B:TYR:539:N:9839, V-B:PRO:540:CD:9856, H-B:GLU:543:OE1:9878, V-B:ILE:538:CB:9831"]

$$$$
4bh_Grossjean_2025
     RDKit          3D

 31 33  0  0  0  0  0  0  0  0999 V2000
  129.6080  123.1560   71.6280 C   0  0  0  0  0  0  0  0  0  0  0  0
  128.8220  124.2790   72.0100 O   0  0  0  0  0  0  0  0  0  0  0  0
  128.9830  125.4790   71.3410 C   0  0  0  0  0  0  0  0  0  0  0  0
  128.6320  125.6800   69.9970 C   0  0  0  0  0  0  0  0  0  0  0  0
  128.8240  126.9190   69.3850 C   0  0  0  0  0  0  0  0  0  0  0  0
  128.3960  127.1320   67.9380 C   0  0  0  0  0  0  0  0  0  0  0  0
  129.2220  126.4080   66.9710 N   0  0  0  0  0  0  0  0  0  0  0  0
  130.5560  126.5450   66.8250 C   0  0  0  0  0  0  0  0  0  0  0  0
  131.2160  127.3480   67.4870 O   0  0  0  0  0  0  0  0  0  0  0  0
  131.1790  125.7120   65.7950 C   0  0  0  0  0  0  0  0  0  0  0  0
  132.7830  126.1110   65.1900 S   0  0  0  0  0  0  0  0  0  0  0  0
  132.7400  124.7710   64.0690 C   0  0  0  0  0  0  0  0  0  0  0  0
  133.7620  124.5140   63.2530 N   0  0  0  0  0  0  0  0  0  0  0  0
  133.6140  123.4480   62.4330 C   0  0  0  0  0  0  0  0  0  0  0  0
  134.7890  123.1740   61.5110 C   0  0  0  0  0  0  0  0  0  0  0  0
  132.4810  122.6400   62.4090 C   0  0  0  0  0  0  0  0  0  0  0  0
  131.4000  122.9060   63.2650 C   0  0  0  0  0  0  0  0  0  0  0  0
  130.1750  121.9880   63.2060 C   0  0  0  0  0  0  0  0  0  0  0  0
  130.3390  120.9490   62.3840 F   0  0  0  0  0  0  0  0  0  0  0  0
  129.9180  121.4990   64.4190 F   0  0  0  0  0  0  0  0  0  0  0  0
  129.1170  122.6750   62.7750 F   0  0  0  0  0  0  0  0  0  0  0  0
  131.5230  124.0250   64.1410 C   0  0  0  0  0  0  0  0  0  0  0  0
  130.6430  124.5980   65.1300 C   0  0  0  0  0  0  0  0  0  0  0  0
  129.3980  124.0910   65.4000 N   0  0  0  0  0  0  0  0  0  0  0  0
  129.3460  127.9800   70.1280 C   0  0  0  0  0  0  0  0  0  0  0  0
  129.7120  127.8060   71.4720 C   0  0  0  0  0  0  0  0  0  0  0  0
  130.2470  128.8070   72.2620 O   0  0  0  0  0  0  0  0  0  0  0  0
  129.5000  130.0000   72.4770 C   0  0  0  0  0  0  0  0  0  0  0  0
  129.5310  126.5480   72.0650 C   0  0  0  0  0  0  0  0  0  0  0  0
  129.8680  126.3680   73.3860 O   0  0  0  0  0  0  0  0  0  0  0  0
  130.9580  125.4790   73.5870 C   0  0  0  0  0  0  0  0  0  0  0  0
  1  2  1  0
  2  3  1  0
  3  4  2  0
  4  5  1  0
  5  6  1  0
  6  7  1  0
  7  8  1  0
  8  9  2  0
  8 10  1  0
 10 11  1  0
 11 12  1  0
 12 13  2  0
 13 14  1  0
 14 15  1  0
 14 16  2  0
 16 17  1  0
 17 18  1  0
 18 19  1  0
 18 20  1  0
 18 21  1  0
 17 22  2  0
 22 23  1  0
 23 24  1  0
  5 25  2  0
 25 26  1  0
 26 27  1  0
 27 28  1  0
 26 29  2  0
 29 30  1  0
 30 31  1  0
 29  3  1  0
 23 10  2  0
 22 12  1  0
M  END
>  <Binding energies>  (51) 
[-6.62]

>  <Ligand effiencies>  (51) 
[-0.19470588235294117]

>  <Interactions>  (51) 
["V-A:HIS:456:CE1:4066, V-A:GLY:453:C:4038, V-A:ARG:545:CG:4919, V-A:ARG:545:CZ:4923, V-A:ARG:545:CD:4920, V-A:GLY:453:CA:4040, V-B:ALA:541:CB:9861, H-A:GLY:454:N:4046, H-A:TYR:484:OH:4344, V-A:GLY:454:CA:4045, H-B:GLU:543:OE2:9879, V-A:TYR:484:CE1:4341, V-B:HIS:456:CD2:9036, V-A:LYS:547:CE:4947, H-A:LYS:547:NZ:4948, V-B:LYS:547:CE:9919, V-B:GLU:543:CB:9875, V-B:GLU:543:CD:9877, V-B:HIS:456:CE1:9038, V-B:GLU:543:CG:9876, V-A:LEU:475:CD1:4254, V-A:ILE:369:CG1:3234, V-A:LEU:475:CD2:4255, V-A:HIS:456:CD2:4064, V-B:GLU:543:C:9871, H-B:GLU:543:OE1:9878, V-B:GLU:543:CA:9873, V-A:TYR:484:CG:4338, V-A:TYR:484:CD2:4340, H-B:LYS:547:NZ:9920, V-A:TYR:484:CD1:4339, V-A:LEU:475:CG:4253, V-A:GLY:544:CA:4911"]

$$$$
4bi_Grossjean_2025
     RDKit          3D

 23 25  0  0  0  0  0  0  0  0999 V2000
  134.4880  124.9970   65.6220 C   0  0  0  0  0  0  0  0  0  0  0  0
  133.1650  124.7980   64.9050 C   0  0  0  0  0  0  0  0  0  0  0  0
  132.0370  125.5300   65.2650 C   0  0  0  0  0  0  0  0  0  0  0  0
  130.8200  125.3390   64.5890 C   0  0  0  0  0  0  0  0  0  0  0  0
  129.6080  126.1740   65.0150 C   0  0  0  0  0  0  0  0  0  0  0  0
  128.9270  126.6720   63.9800 F   0  0  0  0  0  0  0  0  0  0  0  0
  128.7650  125.4200   65.7200 F   0  0  0  0  0  0  0  0  0  0  0  0
  130.0090  127.2040   65.7620 F   0  0  0  0  0  0  0  0  0  0  0  0
  130.8010  124.3720   63.5410 C   0  0  0  0  0  0  0  0  0  0  0  0
  129.7650  123.9110   62.6500 C   0  0  0  0  0  0  0  0  0  0  0  0
  128.4810  124.3930   62.6930 N   0  0  0  0  0  0  0  0  0  0  0  0
  130.1880  122.9340   61.7330 C   0  0  0  0  0  0  0  0  0  0  0  0
  129.4030  122.2440   60.7060 C   0  0  0  0  0  0  0  0  0  0  0  0
  129.2150  121.0270   60.7680 O   0  0  0  0  0  0  0  0  0  0  0  0
  128.9020  123.0370   59.7260 N   0  0  0  0  0  0  0  0  0  0  0  0
  128.1200  122.6530   58.6440 C   0  0  0  0  0  0  0  0  0  0  0  0
  126.9380  123.3020   58.2900 C   0  0  0  0  0  0  0  0  0  0  0  0
  126.4750  122.6270   57.1840 C   0  0  0  0  0  0  0  0  0  0  0  0
  127.3350  121.6230   56.8870 O   0  0  0  0  0  0  0  0  0  0  0  0
  128.3740  121.6500   57.8200 N   0  0  0  0  0  0  0  0  0  0  0  0
  131.8880  122.5360   61.9660 S   0  0  0  0  0  0  0  0  0  0  0  0
  132.0270  123.6900   63.2720 C   0  0  0  0  0  0  0  0  0  0  0  0
  133.1800  123.8760   63.9150 N   0  0  0  0  0  0  0  0  0  0  0  0
  1  2  1  0
  2  3  2  0
  3  4  1  0
  4  5  1  0
  5  6  1  0
  5  7  1  0
  5  8  1  0
  4  9  2  0
  9 10  1  0
 10 11  1  0
 10 12  2  0
 12 13  1  0
 13 14  2  0
 13 15  1  0
 15 16  1  0
 16 17  1  0
 17 18  2  0
 18 19  1  0
 19 20  1  0
 12 21  1  0
 21 22  1  0
 22 23  2  0
 23  2  1  0
 22  9  1  0
 20 16  2  0
M  END
>  <Binding energies>  (52) 
[-6.32]

>  <Ligand effiencies>  (52) 
[-0.24307692307692308]

>  <Interactions>  (52) 
["V-B:TYR:539:CE2:9845, V-A:GLY:454:C:4043, V-A:HIS:456:CE1:4066, V-B:TYR:539:CZ:9846, V-A:GLY:453:C:4038, V-B:PRO:540:CA:9852, V-A:ARG:545:CG:4919, V-A:ARG:545:CZ:4923, V-A:ARG:545:CD:4920, V-A:GLY:453:CA:4040, V-B:ALA:541:CB:9861, H-A:GLY:454:N:4046, V-B:TYR:539:C:9836, H-A:TYR:484:OH:4344, V-A:GLY:454:CA:4045, V-B:PRO:540:N:9853, V-B:PRO:540:CB:9854, V-B:TYR:539:CD2:9843, H-B:GLU:543:OE2:9879, V-B:GLU:543:CB:9875, V-B:GLU:543:CD:9877, V-B:GLU:543:CG:9876, V-A:GLU:543:CD:4905, V-A:LEU:475:CD1:4254, H-B:TYR:539:N:9839, V-B:PRO:540:CD:9856, H-B:GLU:543:OE1:9878"]

$$$$
4bj_Grossjean_2025
     RDKit          3D

 23 25  0  0  0  0  0  0  0  0999 V2000
  133.4950  125.4610   65.4200 C   0  0  0  0  0  0  0  0  0  0  0  0
  132.8530  124.9380   64.1480 C   0  0  0  0  0  0  0  0  0  0  0  0
  133.6300  124.5110   63.0750 C   0  0  0  0  0  0  0  0  0  0  0  0
  133.0230  124.0360   61.9020 C   0  0  0  0  0  0  0  0  0  0  0  0
  133.9210  123.5800   60.7460 C   0  0  0  0  0  0  0  0  0  0  0  0
  133.6040  124.1520   59.5830 F   0  0  0  0  0  0  0  0  0  0  0  0
  135.1890  123.8900   61.0110 F   0  0  0  0  0  0  0  0  0  0  0  0
  133.8120  122.2610   60.5860 F   0  0  0  0  0  0  0  0  0  0  0  0
  131.5970  124.0100   61.8700 C   0  0  0  0  0  0  0  0  0  0  0  0
  130.6450  123.6040   60.8650 C   0  0  0  0  0  0  0  0  0  0  0  0
  131.0230  123.1250   59.6360 N   0  0  0  0  0  0  0  0  0  0  0  0
  129.3040  123.7350   61.2590 C   0  0  0  0  0  0  0  0  0  0  0  0
  128.0930  123.4280   60.4940 C   0  0  0  0  0  0  0  0  0  0  0  0
  128.1630  122.8470   59.4080 O   0  0  0  0  0  0  0  0  0  0  0  0
  126.9270  123.8120   61.0690 N   0  0  0  0  0  0  0  0  0  0  0  0
  125.6480  123.6310   60.5620 C   0  0  0  0  0  0  0  0  0  0  0  0
  124.6040  123.1090   61.1680 N   0  0  0  0  0  0  0  0  0  0  0  0
  123.5430  123.0990   60.3860 C   0  0  0  0  0  0  0  0  0  0  0  0
  123.7150  123.6220   59.1090 C   0  0  0  0  0  0  0  0  0  0  0  0
  125.3620  124.1510   58.9320 S   0  0  0  0  0  0  0  0  0  0  0  0
  129.1790  124.3920   62.8900 S   0  0  0  0  0  0  0  0  0  0  0  0
  130.9190  124.4710   63.0400 C   0  0  0  0  0  0  0  0  0  0  0  0
  131.4990  124.9250   64.1500 N   0  0  0  0  0  0  0  0  0  0  0  0
  1  2  1  0
  2  3  2  0
  3  4  1  0
  4  5  1  0
  5  6  1  0
  5  7  1  0
  5  8  1  0
  4  9  2  0
  9 10  1  0
 10 11  1  0
 10 12  2  0
 12 13  1  0
 13 14  2  0
 13 15  1  0
 15 16  1  0
 16 17  2  0
 17 18  1  0
 18 19  2  0
 19 20  1  0
 12 21  1  0
 21 22  1  0
 22 23  2  0
 23  2  1  0
 22  9  1  0
 20 16  1  0
M  END
>  <Binding energies>  (53) 
[-6.13]

>  <Ligand effiencies>  (53) 
[-0.23576923076923076]

>  <Interactions>  (53) 
["H-B:ALA:541:N:9860, V-B:TYR:539:CE2:9845, V-A:HIS:456:CE1:4066, V-B:TYR:539:CZ:9846, V-B:ASN:362:CB:8144, V-A:GLY:453:C:4038, V-B:PRO:540:CA:9852, V-A:ARG:545:CG:4919, V-A:ARG:545:CZ:4923, V-A:ARG:545:CD:4920, V-A:GLY:453:CA:4040, V-B:ALA:541:CB:9861, V-B:ASN:362:C:8140, V-A:GLY:454:CA:4045, V-B:PRO:540:CB:9854, V-B:TYR:539:CD2:9843, V-A:ASP:366:CG:3209, H-B:GLU:543:OE2:9879, V-B:GLU:543:CD:9877, V-B:GLU:543:CG:9876, V-A:ILE:369:CB:3232, V-B:LEU:363:CA:8153, V-A:ILE:369:CG2:3233, V-A:ILE:369:CG1:3234, H-B:TYR:539:OH:9847, V-A:ASP:366:CB:3208, V-B:LEU:363:CD1:8157, V-B:LEU:363:CB:8155, V-A:ASP:366:CA:3206"]

$$$$
4bk_Grossjean_2025
     RDKit          3D

 28 29  0  0  0  0  0  0  0  0999 V2000
  129.5000  123.5450   71.7000 C   0  0  0  0  0  0  0  0  0  0  0  0
  129.9000  123.6180   73.0600 O   0  0  0  0  0  0  0  0  0  0  0  0
  130.1600  124.9440   73.5020 C   0  0  0  0  0  0  0  0  0  0  0  0
  130.0270  125.9130   72.3210 C   0  0  0  0  0  0  0  0  0  0  0  0
  129.5440  127.1650   72.7890 O   0  0  0  0  0  0  0  0  0  0  0  0
  128.2990  127.5490   72.2210 C   0  0  0  0  0  0  0  0  0  0  0  0
  127.9690  126.6230   71.0420 C   0  0  0  0  0  0  0  0  0  0  0  0
  128.8120  126.9430   69.9440 O   0  0  0  0  0  0  0  0  0  0  0  0
  128.2320  126.6660   68.6740 C   0  0  0  0  0  0  0  0  0  0  0  0
  128.7510  127.6830   67.6440 C   0  0  0  0  0  0  0  0  0  0  0  0
  129.5030  127.0750   66.5450 N   0  0  0  0  0  0  0  0  0  0  0  0
  130.8440  127.1160   66.4020 C   0  0  0  0  0  0  0  0  0  0  0  0
  131.5790  127.6710   67.2200 O   0  0  0  0  0  0  0  0  0  0  0  0
  131.3850  126.4510   65.2150 C   0  0  0  0  0  0  0  0  0  0  0  0
  132.7720  125.3760   65.3600 S   0  0  0  0  0  0  0  0  0  0  0  0
  132.7370  125.0280   63.6480 C   0  0  0  0  0  0  0  0  0  0  0  0
  133.6210  124.2030   63.0870 N   0  0  0  0  0  0  0  0  0  0  0  0
  133.4920  124.0110   61.7540 C   0  0  0  0  0  0  0  0  0  0  0  0
  134.5070  123.0660   61.1370 C   0  0  0  0  0  0  0  0  0  0  0  0
  132.5110  124.6190   60.9750 C   0  0  0  0  0  0  0  0  0  0  0  0
  131.5780  125.4900   61.5590 C   0  0  0  0  0  0  0  0  0  0  0  0
  130.5190  126.1380   60.6610 C   0  0  0  0  0  0  0  0  0  0  0  0
  130.5140  127.4710   60.7370 F   0  0  0  0  0  0  0  0  0  0  0  0
  130.7450  125.8110   59.3890 F   0  0  0  0  0  0  0  0  0  0  0  0
  129.3070  125.7150   61.0150 F   0  0  0  0  0  0  0  0  0  0  0  0
  131.6850  125.7140   62.9640 C   0  0  0  0  0  0  0  0  0  0  0  0
  130.9260  126.5170   63.8910 C   0  0  0  0  0  0  0  0  0  0  0  0
  129.8530  127.2790   63.5060 N   0  0  0  0  0  0  0  0  0  0  0  0
  1  2  1  0
  2  3  1  0
  3  4  1  0
  4  5  1  0
  5  6  1  0
  6  7  1  0
  7  8  1  0
  8  9  1  0
  9 10  1  0
 10 11  1  0
 11 12  1  0
 12 13  2  0
 12 14  1  0
 14 15  1  0
 15 16  1  0
 16 17  2  0
 17 18  1  0
 18 19  1  0
 18 20  2  0
 20 21  1  0
 21 22  1  0
 22 23  1  0
 22 24  1  0
 22 25  1  0
 21 26  2  0
 26 27  1  0
 27 28  1  0
 27 14  2  0
 26 16  1  0
M  END
>  <Binding energies>  (54) 
[-5.39]

>  <Ligand effiencies>  (54) 
[-0.17387096774193547]

>  <Interactions>  (54) 
["V-A:HIS:456:CE1:4066, V-A:ARG:545:CZ:4923, H-A:GLY:454:N:4046, V-A:ASP:366:CG:3209, H-B:GLU:543:OE2:9879, V-B:HIS:456:CD2:9036, V-A:GLU:543:CB:4903, H-A:LYS:547:NZ:4948, V-B:GLY:544:C:9881, V-B:LYS:547:CE:9919, V-B:GLU:543:CB:9875, V-B:HIS:456:CE1:9038, V-A:GLU:543:CD:4905, V-A:ILE:369:CB:3232, V-A:ILE:369:CG1:3234, H-A:GLU:543:OE2:4907, H-A:GLU:543:OE1:4906, V-A:HIS:456:CD2:4064, V-B:GLU:543:C:9871, H-B:GLU:543:OE1:9878, H-B:LYS:547:NZ:9920"]

$$$$
4cd_Grossjean_2025
     RDKit          3D

 29 32  0  0  0  0  0  0  0  0999 V2000
  131.0180  122.4360   64.1570 N   0  0  0  0  0  0  0  0  0  0  0  0
  130.2050  123.2990   63.4670 C   0  0  0  0  0  0  0  0  0  0  0  0
  129.9450  124.6140   63.8870 C   0  0  0  0  0  0  0  0  0  0  0  0
  130.4360  125.3040   65.0840 C   0  0  0  0  0  0  0  0  0  0  0  0
  131.6440  125.4380   65.2810 O   0  0  0  0  0  0  0  0  0  0  0  0
  129.4760  125.7710   65.9190 N   0  0  0  0  0  0  0  0  0  0  0  0
  129.6060  126.4220   67.1590 C   0  0  0  0  0  0  0  0  0  0  0  0
  128.7600  125.9750   68.1780 C   0  0  0  0  0  0  0  0  0  0  0  0
  128.8230  126.5470   69.4450 C   0  0  0  0  0  0  0  0  0  0  0  0
  129.7380  127.5660   69.6970 C   0  0  0  0  0  0  0  0  0  0  0  0
  130.5960  128.0130   68.6960 C   0  0  0  0  0  0  0  0  0  0  0  0
  130.5360  127.4420   67.4260 C   0  0  0  0  0  0  0  0  0  0  0  0
  128.8710  125.4410   62.7610 S   0  0  0  0  0  0  0  0  0  0  0  0
  128.7700  124.0230   61.7450 C   0  0  0  0  0  0  0  0  0  0  0  0
  128.0360  124.0140   60.6340 N   0  0  0  0  0  0  0  0  0  0  0  0
  128.0090  122.8610   59.9170 C   0  0  0  0  0  0  0  0  0  0  0  0
  127.1710  122.8810   58.6710 C   0  0  0  0  0  0  0  0  0  0  0  0
  127.6400  122.3040   57.4800 C   0  0  0  0  0  0  0  0  0  0  0  0
  126.8680  122.3180   56.3220 C   0  0  0  0  0  0  0  0  0  0  0  0
  125.6100  122.9120   56.3390 C   0  0  0  0  0  0  0  0  0  0  0  0
  125.1200  123.4880   57.5050 C   0  0  0  0  0  0  0  0  0  0  0  0
  125.8940  123.4690   58.6620 C   0  0  0  0  0  0  0  0  0  0  0  0
  128.7330  121.7300   60.3060 C   0  0  0  0  0  0  0  0  0  0  0  0
  129.5130  121.7300   61.4740 C   0  0  0  0  0  0  0  0  0  0  0  0
  130.2780  120.4540   61.8450 C   0  0  0  0  0  0  0  0  0  0  0  0
  129.8820  119.3850   61.1510 F   0  0  0  0  0  0  0  0  0  0  0  0
  131.5790  120.6230   61.6080 F   0  0  0  0  0  0  0  0  0  0  0  0
  130.0980  120.1800   63.1370 F   0  0  0  0  0  0  0  0  0  0  0  0
  129.5400  122.9290   62.2410 C   0  0  0  0  0  0  0  0  0  0  0  0
  1  2  1  0
  2  3  2  0
  3  4  1  0
  4  5  2  0
  4  6  1  0
  6  7  1  0
  7  8  2  0
  8  9  1  0
  9 10  2  0
 10 11  1  0
 11 12  2  0
  3 13  1  0
 13 14  1  0
 14 15  2  0
 15 16  1  0
 16 17  1  0
 17 18  2  0
 18 19  1  0
 19 20  2  0
 20 21  1  0
 21 22  2  0
 16 23  2  0
 23 24  1  0
 24 25  1  0
 25 26  1  0
 25 27  1  0
 25 28  1  0
 24 29  2  0
 29  2  1  0
 12  7  1  0
 29 14  1  0
 22 17  1  0
M  END
>  <Binding energies>  (55) 
[-7.7]

>  <Ligand effiencies>  (55) 
[-0.240625]

>  <Interactions>  (55) 
["V-B:TYR:539:CE2:9845, V-A:HIS:456:CE1:4066, V-B:TYR:539:CG:9841, V-B:TYR:539:CD1:9842, V-B:PRO:540:CA:9852, V-B:TYR:539:CE1:9844, V-B:ALA:541:CB:9861, V-B:TYR:539:C:9836, H-A:TYR:484:OH:4344, V-B:PRO:540:N:9853, V-B:PRO:540:CB:9854, V-B:TYR:539:CD2:9843, H-B:GLU:543:OE2:9879, V-A:TYR:484:CE1:4341, V-A:GLU:543:CB:4903, V-B:GLU:543:CB:9875, V-B:GLU:543:CD:9877, V-A:GLU:543:C:4899, V-A:TYR:484:CZ:4343, V-B:GLU:543:CG:9876, V-A:LEU:475:CD1:4254, V-B:PRO:540:CD:9856, V-A:LEU:475:CD2:4255, V-B:GLU:543:C:9871, H-B:GLU:543:OE1:9878, V-B:LEU:363:CD1:8157, V-B:ILE:538:CB:9831, V-A:PRO:482:CG:4323, V-A:LEU:475:CG:4253, V-B:ILE:538:CA:9829, V-A:PRO:482:CB:4322"]

$$$$
4cg_Grossjean_2025
     RDKit          3D

 30 33  0  0  0  0  0  0  0  0999 V2000
  131.2060  122.4170   64.0320 N   0  0  0  0  0  0  0  0  0  0  0  0
  130.3870  123.2950   63.3690 C   0  0  0  0  0  0  0  0  0  0  0  0
  130.1940  124.6220   63.7790 C   0  0  0  0  0  0  0  0  0  0  0  0
  130.8170  125.3330   64.8950 C   0  0  0  0  0  0  0  0  0  0  0  0
  131.8920  124.9630   65.3710 O   0  0  0  0  0  0  0  0  0  0  0  0
  130.1260  126.3820   65.3890 N   0  0  0  0  0  0  0  0  0  0  0  0
  130.5640  127.2460   66.4820 C   0  0  0  0  0  0  0  0  0  0  0  0
  129.7750  127.0430   67.7710 C   0  0  0  0  0  0  0  0  0  0  0  0
  130.2200  127.6310   68.9580 C   0  0  0  0  0  0  0  0  0  0  0  0
  129.4840  127.4730   70.1300 C   0  0  0  0  0  0  0  0  0  0  0  0
  128.3020  126.7370   70.1090 C   0  0  0  0  0  0  0  0  0  0  0  0
  127.8450  126.1620   68.9250 C   0  0  0  0  0  0  0  0  0  0  0  0
  128.5790  126.3200   67.7520 C   0  0  0  0  0  0  0  0  0  0  0  0
  129.0980  125.4760   62.6950 S   0  0  0  0  0  0  0  0  0  0  0  0
  128.8890  124.0440   61.7140 C   0  0  0  0  0  0  0  0  0  0  0  0
  128.1010  124.0470   60.6420 N   0  0  0  0  0  0  0  0  0  0  0  0
  128.0030  122.8890   59.9380 C   0  0  0  0  0  0  0  0  0  0  0  0
  127.1040  122.9240   58.7350 C   0  0  0  0  0  0  0  0  0  0  0  0
  125.8330  123.5180   58.8010 C   0  0  0  0  0  0  0  0  0  0  0  0
  124.9970  123.5520   57.6890 C   0  0  0  0  0  0  0  0  0  0  0  0
  125.4190  122.9880   56.4890 C   0  0  0  0  0  0  0  0  0  0  0  0
  126.6710  122.3900   56.3970 C   0  0  0  0  0  0  0  0  0  0  0  0
  127.5040  122.3580   57.5110 C   0  0  0  0  0  0  0  0  0  0  0  0
  128.6830  121.7290   60.3270 C   0  0  0  0  0  0  0  0  0  0  0  0
  129.5160  121.7150   61.4560 C   0  0  0  0  0  0  0  0  0  0  0  0
  130.2310  120.4100   61.8250 C   0  0  0  0  0  0  0  0  0  0  0  0
  130.1210  120.1010   63.1190 F   0  0  0  0  0  0  0  0  0  0  0  0
  129.7130  119.3990   61.1270 F   0  0  0  0  0  0  0  0  0  0  0  0
  131.5300  120.5140   61.5500 F   0  0  0  0  0  0  0  0  0  0  0  0
  129.6370  122.9290   62.1930 C   0  0  0  0  0  0  0  0  0  0  0  0
  1  2  1  0
  2  3  2  0
  3  4  1  0
  4  5  2  0
  4  6  1  0
  6  7  1  0
  7  8  1  0
  8  9  2  0
  9 10  1  0
 10 11  2  0
 11 12  1  0
 12 13  2  0
  3 14  1  0
 14 15  1  0
 15 16  2  0
 16 17  1  0
 17 18  1  0
 18 19  2  0
 19 20  1  0
 20 21  2  0
 21 22  1  0
 22 23  2  0
 17 24  2  0
 24 25  1  0
 25 26  1  0
 26 27  1  0
 26 28  1  0
 26 29  1  0
 25 30  2  0
 30  2  1  0
 13  8  1  0
 30 15  1  0
 23 18  1  0
M  END
>  <Binding energies>  (56) 
[-7.75]

>  <Ligand effiencies>  (56) 
[-0.23484848484848486]

>  <Interactions>  (56) 
["V-B:TYR:539:CE2:9845, V-A:HIS:456:CE1:4066, V-B:TYR:539:CD1:9842, V-B:PRO:540:CA:9852, V-B:ALA:541:CB:9861, V-B:TYR:539:C:9836, H-A:TYR:484:OH:4344, V-B:PRO:540:N:9853, V-B:PRO:540:CB:9854, V-B:TYR:539:CD2:9843, V-A:TYR:484:CE1:4341, V-B:HIS:456:CD2:9036, V-A:GLU:543:CB:4903, V-B:GLU:543:CB:9875, V-B:GLU:543:CD:9877, V-B:HIS:456:CE1:9038, V-A:GLU:543:CD:4905, V-A:LEU:475:CD1:4254, H-A:GLU:543:OE1:4906, V-B:PRO:540:CD:9856, V-A:LEU:475:CD2:4255, V-B:GLU:543:C:9871, H-B:GLU:543:OE1:9878, V-B:LEU:363:CD1:8157, V-B:ILE:538:CB:9831, V-A:PRO:482:CG:4323, V-A:LEU:475:CG:4253, V-A:PRO:482:CB:4322"]

$$$$
4ch_Grossjean_2025
     RDKit          3D

 36 39  0  0  0  0  0  0  0  0999 V2000
  129.8940  122.7250   71.9130 C   0  0  0  0  0  0  0  0  0  0  0  0
  129.7130  123.8060   72.8230 O   0  0  0  0  0  0  0  0  0  0  0  0
  129.1950  125.0010   72.3600 C   0  0  0  0  0  0  0  0  0  0  0  0
  128.3470  125.1100   71.2450 C   0  0  0  0  0  0  0  0  0  0  0  0
  127.8590  126.3520   70.8350 C   0  0  0  0  0  0  0  0  0  0  0  0
  126.9630  126.4530   69.6070 C   0  0  0  0  0  0  0  0  0  0  0  0
  127.6760  126.3400   68.3330 N   0  0  0  0  0  0  0  0  0  0  0  0
  128.7800  127.0340   67.9880 C   0  0  0  0  0  0  0  0  0  0  0  0
  129.3250  127.8350   68.7500 O   0  0  0  0  0  0  0  0  0  0  0  0
  129.3230  126.7540   66.6580 C   0  0  0  0  0  0  0  0  0  0  0  0
  130.6970  125.6670   66.4770 S   0  0  0  0  0  0  0  0  0  0  0  0
  130.6730  125.8560   64.7400 C   0  0  0  0  0  0  0  0  0  0  0  0
  131.5540  125.2340   63.9610 N   0  0  0  0  0  0  0  0  0  0  0  0
  131.4540  125.4370   62.6220 C   0  0  0  0  0  0  0  0  0  0  0  0
  132.4670  124.7250   61.7720 C   0  0  0  0  0  0  0  0  0  0  0  0
  133.6420  124.2040   62.3380 C   0  0  0  0  0  0  0  0  0  0  0  0
  134.5860  123.5440   61.5550 C   0  0  0  0  0  0  0  0  0  0  0  0
  134.3670  123.3950   60.1900 C   0  0  0  0  0  0  0  0  0  0  0  0
  133.2140  123.9050   59.6020 C   0  0  0  0  0  0  0  0  0  0  0  0
  132.2740  124.5670   60.3890 C   0  0  0  0  0  0  0  0  0  0  0  0
  130.4810  126.2790   62.0730 C   0  0  0  0  0  0  0  0  0  0  0  0
  129.5470  126.9420   62.8850 C   0  0  0  0  0  0  0  0  0  0  0  0
  128.5070  127.8490   62.2190 C   0  0  0  0  0  0  0  0  0  0  0  0
  127.2930  127.2970   62.1560 F   0  0  0  0  0  0  0  0  0  0  0  0
  128.3930  128.9850   62.9050 F   0  0  0  0  0  0  0  0  0  0  0  0
  128.8830  128.1260   60.9710 F   0  0  0  0  0  0  0  0  0  0  0  0
  129.6350  126.7250   64.2910 C   0  0  0  0  0  0  0  0  0  0  0  0
  128.8700  127.2150   65.4120 C   0  0  0  0  0  0  0  0  0  0  0  0
  127.8020  128.0640   65.2700 N   0  0  0  0  0  0  0  0  0  0  0  0
  128.2320  127.5020   71.5320 C   0  0  0  0  0  0  0  0  0  0  0  0
  129.0790  127.4230   72.6500 C   0  0  0  0  0  0  0  0  0  0  0  0
  129.4870  128.5190   73.3870 O   0  0  0  0  0  0  0  0  0  0  0  0
  129.1880  129.8290   72.9160 C   0  0  0  0  0  0  0  0  0  0  0  0
  129.5480  126.1660   73.0570 C   0  0  0  0  0  0  0  0  0  0  0  0
  130.3900  126.0760   74.1390 O   0  0  0  0  0  0  0  0  0  0  0  0
  131.5960  125.3720   73.8780 C   0  0  0  0  0  0  0  0  0  0  0  0
  1  2  1  0
  2  3  1  0
  3  4  2  0
  4  5  1  0
  5  6  1  0
  6  7  1  0
  7  8  1  0
  8  9  2  0
  8 10  1  0
 10 11  1  0
 11 12  1  0
 12 13  2  0
 13 14  1  0
 14 15  1  0
 15 16  2  0
 16 17  1  0
 17 18  2  0
 18 19  1  0
 19 20  2  0
 14 21  2  0
 21 22  1  0
 22 23  1  0
 23 24  1  0
 23 25  1  0
 23 26  1  0
 22 27  2  0
 27 28  1  0
 28 29  1  0
  5 30  2  0
 30 31  1  0
 31 32  1  0
 32 33  1  0
 31 34  2  0
 34 35  1  0
 35 36  1  0
 34  3  1  0
 28 10  2  0
 27 12  1  0
 20 15  1  0
M  END
>  <Binding energies>  (57) 
[-7.28]

>  <Ligand effiencies>  (57) 
[-0.18666666666666668]

>  <Interactions>  (57) 
["V-B:TYR:539:CE2:9845, V-A:HIS:456:CE1:4066, V-B:TYR:539:CZ:9846, V-A:GLY:453:C:4038, V-A:GLY:453:CA:4040, V-A:GLY:454:CA:4045, V-A:ASP:366:CG:3209, H-B:GLU:543:OE2:9879, V-B:HIS:456:CD2:9036, V-A:LYS:547:CE:4947, H-A:LYS:547:NZ:4948, V-B:GLY:544:C:9881, V-B:LYS:547:CE:9919, V-B:GLU:543:CB:9875, V-B:GLU:543:CD:9877, V-B:HIS:456:CE1:9038, V-A:GLU:543:CD:4905, V-A:ILE:369:CB:3232, V-A:ILE:369:CG2:3233, V-A:ILE:369:CG1:3234, H-A:GLU:543:OE2:4907, V-A:ASP:366:CB:3208, V-A:HIS:456:CD2:4064, V-B:GLU:543:C:9871, H-B:GLU:543:OE1:9878, V-B:GLY:544:CA:9883, V-B:HIS:456:CG:9034, V-A:ASP:366:CA:3206, V-A:TYR:484:CG:4338, V-A:TYR:484:CD2:4340, V-A:TYR:484:CB:4337, H-B:LYS:547:NZ:9920, V-A:TYR:484:CD1:4339, H-B:GLU:543:O:9872"]

$$$$
4cj_Grossjean_2025
     RDKit          3D

 28 31  0  0  0  0  0  0  0  0999 V2000
  131.0360  122.5590   64.1300 N   0  0  0  0  0  0  0  0  0  0  0  0
  130.2020  123.4080   63.4490 C   0  0  0  0  0  0  0  0  0  0  0  0
  129.9310  124.7210   63.8690 C   0  0  0  0  0  0  0  0  0  0  0  0
  130.4490  125.4300   65.0410 C   0  0  0  0  0  0  0  0  0  0  0  0
  131.6630  125.5350   65.2300 O   0  0  0  0  0  0  0  0  0  0  0  0
  129.5090  125.9350   65.8780 N   0  0  0  0  0  0  0  0  0  0  0  0
  129.7310  126.6450   67.0500 C   0  0  0  0  0  0  0  0  0  0  0  0
  130.6760  127.5290   67.2920 N   0  0  0  0  0  0  0  0  0  0  0  0
  130.5870  128.0100   68.5160 C   0  0  0  0  0  0  0  0  0  0  0  0
  129.5490  127.5150   69.2990 C   0  0  0  0  0  0  0  0  0  0  0  0
  128.6440  126.3550   68.3710 S   0  0  0  0  0  0  0  0  0  0  0  0
  128.8310  125.5310   62.7550 S   0  0  0  0  0  0  0  0  0  0  0  0
  128.7410  124.1110   61.7410 C   0  0  0  0  0  0  0  0  0  0  0  0
  128.0020  124.0940   60.6340 N   0  0  0  0  0  0  0  0  0  0  0  0
  128.0000  122.9480   59.9050 C   0  0  0  0  0  0  0  0  0  0  0  0
  127.1660  122.9670   58.6560 C   0  0  0  0  0  0  0  0  0  0  0  0
  125.8950  123.5630   58.6500 C   0  0  0  0  0  0  0  0  0  0  0  0
  125.1140  123.5790   57.4960 C   0  0  0  0  0  0  0  0  0  0  0  0
  125.5960  122.9950   56.3290 C   0  0  0  0  0  0  0  0  0  0  0  0
  126.8500  122.3960   56.3090 C   0  0  0  0  0  0  0  0  0  0  0  0
  127.6270  122.3840   57.4640 C   0  0  0  0  0  0  0  0  0  0  0  0
  128.7190  121.8170   60.3050 C   0  0  0  0  0  0  0  0  0  0  0  0
  129.5000  121.8230   61.4710 C   0  0  0  0  0  0  0  0  0  0  0  0
  130.2670  120.5500   61.8480 C   0  0  0  0  0  0  0  0  0  0  0  0
  129.8730  119.4770   61.1590 F   0  0  0  0  0  0  0  0  0  0  0  0
  131.5670  120.7210   61.6120 F   0  0  0  0  0  0  0  0  0  0  0  0
  130.0870  120.2810   63.1410 F   0  0  0  0  0  0  0  0  0  0  0  0
  129.5260  123.0260   62.2330 C   0  0  0  0  0  0  0  0  0  0  0  0
  1  2  1  0
  2  3  2  0
  3  4  1  0
  4  5  2  0
  4  6  1  0
  6  7  1  0
  7  8  2  0
  8  9  1  0
  9 10  2  0
 10 11  1  0
  3 12  1  0
 12 13  1  0
 13 14  2  0
 14 15  1  0
 15 16  1  0
 16 17  2  0
 17 18  1  0
 18 19  2  0
 19 20  1  0
 20 21  2  0
 15 22  2  0
 22 23  1  0
 23 24  1  0
 24 25  1  0
 24 26  1  0
 24 27  1  0
 23 28  2  0
 28  2  1  0
 11  7  1  0
 28 13  1  0
 21 16  1  0
M  END
>  <Binding energies>  (58) 
[-7.01]

>  <Ligand effiencies>  (58) 
[-0.22612903225806452]

>  <Interactions>  (58) 
["V-B:TYR:539:CE2:9845, V-A:HIS:456:CE1:4066, V-B:TYR:539:CD1:9842, V-B:PRO:540:CA:9852, V-B:TYR:539:CE1:9844, V-B:ALA:541:CB:9861, V-B:TYR:539:C:9836, H-A:TYR:484:OH:4344, V-B:PRO:540:N:9853, V-B:PRO:540:CB:9854, V-B:TYR:539:CD2:9843, H-B:GLU:543:OE2:9879, V-A:TYR:484:CE1:4341, V-A:GLU:543:CB:4903, V-B:GLU:543:CB:9875, V-B:GLU:543:CD:9877, V-A:GLU:543:C:4899, V-A:TYR:484:CZ:4343, V-B:GLU:543:CG:9876, V-A:LEU:475:CD1:4254, V-B:PRO:540:CD:9856, V-A:LEU:475:CD2:4255, H-B:GLU:543:OE1:9878, V-B:LEU:363:CD1:8157, V-B:ILE:538:CB:9831, V-A:PRO:482:CG:4323, V-A:LEU:475:CG:4253, V-A:PRO:482:CB:4322"]

$$$$
4ck_Grossjean_2025
     RDKit          3D

 33 35  0  0  0  0  0  0  0  0999 V2000
  124.3830  123.8540   60.9820 C   0  0  0  0  0  0  0  0  0  0  0  0
  125.3800  122.8440   61.0000 O   0  0  0  0  0  0  0  0  0  0  0  0
  126.6920  123.3420   60.7800 C   0  0  0  0  0  0  0  0  0  0  0  0
  127.1050  123.0440   59.3330 C   0  0  0  0  0  0  0  0  0  0  0  0
  128.1000  122.0290   59.3350 O   0  0  0  0  0  0  0  0  0  0  0  0
  128.6440  121.7700   60.6220 C   0  0  0  0  0  0  0  0  0  0  0  0
  130.0480  122.3830   60.7070 C   0  0  0  0  0  0  0  0  0  0  0  0
  130.7610  121.7480   61.7600 O   0  0  0  0  0  0  0  0  0  0  0  0
  132.1480  121.5820   61.4950 C   0  0  0  0  0  0  0  0  0  0  0  0
  132.9410  122.7040   62.1820 C   0  0  0  0  0  0  0  0  0  0  0  0
  132.0650  123.7230   62.7600 N   0  0  0  0  0  0  0  0  0  0  0  0
  132.4560  124.7500   63.5430 C   0  0  0  0  0  0  0  0  0  0  0  0
  133.6360  124.9520   63.8350 O   0  0  0  0  0  0  0  0  0  0  0  0
  131.3900  125.6290   64.0240 C   0  0  0  0  0  0  0  0  0  0  0  0
  130.5830  126.7310   62.9110 S   0  0  0  0  0  0  0  0  0  0  0  0
  129.5170  127.2950   64.1760 C   0  0  0  0  0  0  0  0  0  0  0  0
  128.5890  128.2200   63.9410 N   0  0  0  0  0  0  0  0  0  0  0  0
  127.8070  128.5970   64.9870 C   0  0  0  0  0  0  0  0  0  0  0  0
  126.7590  129.6280   64.6840 C   0  0  0  0  0  0  0  0  0  0  0  0
  125.4010  129.2750   64.6180 C   0  0  0  0  0  0  0  0  0  0  0  0
  124.4230  130.2270   64.3360 C   0  0  0  0  0  0  0  0  0  0  0  0
  124.7910  131.5490   64.1160 C   0  0  0  0  0  0  0  0  0  0  0  0
  126.1280  131.9270   64.1800 C   0  0  0  0  0  0  0  0  0  0  0  0
  127.1020  130.9730   64.4640 C   0  0  0  0  0  0  0  0  0  0  0  0
  127.9550  128.0370   66.2600 C   0  0  0  0  0  0  0  0  0  0  0  0
  128.9320  127.0620   66.5180 C   0  0  0  0  0  0  0  0  0  0  0  0
  129.0420  126.4930   67.9390 C   0  0  0  0  0  0  0  0  0  0  0  0
  130.1120  126.9380   68.5990 F   0  0  0  0  0  0  0  0  0  0  0  0
  127.9650  126.8350   68.6460 F   0  0  0  0  0  0  0  0  0  0  0  0
  129.1300  125.1640   67.8850 F   0  0  0  0  0  0  0  0  0  0  0  0
  129.7580  126.6610   65.4300 C   0  0  0  0  0  0  0  0  0  0  0  0
  130.8330  125.7050   65.3100 C   0  0  0  0  0  0  0  0  0  0  0  0
  131.2710  124.9440   66.3630 N   0  0  0  0  0  0  0  0  0  0  0  0
  1  2  1  0
  2  3  1  0
  3  4  1  0
  4  5  1  0
  5  6  1  0
  6  7  1  0
  7  8  1  0
  8  9  1  0
  9 10  1  0
 10 11  1  0
 11 12  1  0
 12 13  2  0
 12 14  1  0
 14 15  1  0
 15 16  1  0
 16 17  2  0
 17 18  1  0
 18 19  1  0
 19 20  2  0
 20 21  1  0
 21 22  2  0
 22 23  1  0
 23 24  2  0
 18 25  2  0
 25 26  1  0
 26 27  1  0
 27 28  1  0
 27 29  1  0
 27 30  1  0
 26 31  2  0
 31 32  1  0
 32 33  1  0
 32 14  2  0
 31 16  1  0
 24 19  1  0
M  END
>  <Binding energies>  (59) 
[-6.66]

>  <Ligand effiencies>  (59) 
[-0.185]

>  <Interactions>  (59) 
["H-B:ALA:541:N:9860, V-B:TYR:539:CE2:9845, V-A:HIS:456:CE1:4066, V-B:TYR:539:CZ:9846, V-B:ASN:362:CB:8144, V-B:PRO:540:CA:9852, V-B:ALA:541:CB:9861, H-A:GLY:454:N:4046, H-A:TYR:484:OH:4344, V-A:GLY:454:CA:4045, V-B:PRO:540:CB:9854, V-B:TYR:539:CD2:9843, V-A:TYR:484:CE1:4341, V-B:GLU:543:CB:9875, V-B:GLU:543:CD:9877, V-B:HIS:456:CE1:9038, V-A:TYR:484:CZ:4343, V-B:GLU:543:CG:9876, V-A:GLU:543:CD:4905, H-A:ARG:545:NH2:4925, H-A:ARG:545:NH1:4924, V-A:LEU:475:CD1:4254, V-B:ARG:545:CZ:9895, V-A:GLU:543:CG:4904, V-B:GLU:543:C:9871, V-B:GLU:543:CA:9873, V-B:GLY:454:CA:9017, H-A:HIS:456:NE2:4067"]

$$$$
4dd_Grossjean_2025
     RDKit          3D

 26 29  0  0  0  0  0  0  0  0999 V2000
  130.2460  120.4610   61.9150 C   0  0  0  0  0  0  0  0  0  0  0  0
  129.5020  121.7280   61.5220 C   0  0  0  0  0  0  0  0  0  0  0  0
  128.7390  121.7080   60.3480 C   0  0  0  0  0  0  0  0  0  0  0  0
  128.0310  122.8420   59.9310 C   0  0  0  0  0  0  0  0  0  0  0  0
  127.2100  122.8510   58.6760 C   0  0  0  0  0  0  0  0  0  0  0  0
  127.6530  122.1850   57.5210 C   0  0  0  0  0  0  0  0  0  0  0  0
  126.8950  122.1870   56.3530 C   0  0  0  0  0  0  0  0  0  0  0  0
  125.6790  122.8600   56.3220 C   0  0  0  0  0  0  0  0  0  0  0  0
  125.2140  123.5270   57.4510 C   0  0  0  0  0  0  0  0  0  0  0  0
  125.9750  123.5200   58.6180 C   0  0  0  0  0  0  0  0  0  0  0  0
  128.0610  124.0070   60.6340 N   0  0  0  0  0  0  0  0  0  0  0  0
  128.7810  124.0250   61.7550 C   0  0  0  0  0  0  0  0  0  0  0  0
  128.8920  125.4500   62.7640 S   0  0  0  0  0  0  0  0  0  0  0  0
  129.9460  124.6150   63.9080 C   0  0  0  0  0  0  0  0  0  0  0  0
  130.4360  125.3040   65.1030 C   0  0  0  0  0  0  0  0  0  0  0  0
  131.6440  125.4280   65.3060 O   0  0  0  0  0  0  0  0  0  0  0  0
  129.4750  125.7820   65.9320 N   0  0  0  0  0  0  0  0  0  0  0  0
  129.6040  126.4350   67.1710 C   0  0  0  0  0  0  0  0  0  0  0  0
  128.7210  126.0240   68.1740 C   0  0  0  0  0  0  0  0  0  0  0  0
  128.7790  126.5990   69.4400 C   0  0  0  0  0  0  0  0  0  0  0  0
  129.7260  127.5830   69.7080 C   0  0  0  0  0  0  0  0  0  0  0  0
  130.6200  127.9940   68.7230 C   0  0  0  0  0  0  0  0  0  0  0  0
  130.5650  127.4200   67.4550 C   0  0  0  0  0  0  0  0  0  0  0  0
  130.1900  123.2950   63.4990 C   0  0  0  0  0  0  0  0  0  0  0  0
  130.9800  122.4130   64.1950 N   0  0  0  0  0  0  0  0  0  0  0  0
  129.5320  122.9320   62.2720 C   0  0  0  0  0  0  0  0  0  0  0  0
  1  2  1  0
  2  3  2  0
  3  4  1  0
  4  5  1  0
  5  6  2  0
  6  7  1  0
  7  8  2  0
  8  9  1  0
  9 10  2  0
  4 11  2  0
 11 12  1  0
 12 13  1  0
 13 14  1  0
 14 15  1  0
 15 16  2  0
 15 17  1  0
 17 18  1  0
 18 19  2  0
 19 20  1  0
 20 21  2  0
 21 22  1  0
 22 23  2  0
 14 24  2  0
 24 25  1  0
 24 26  1  0
 26  2  1  0
 10  5  1  0
 26 12  2  0
 23 18  1  0
M  END
>  <Binding energies>  (60) 
[-8.02]

>  <Ligand effiencies>  (60) 
[-0.276551724137931]

>  <Interactions>  (60) 
["V-B:TYR:539:CE2:9845, V-A:HIS:456:CE1:4066, V-B:TYR:539:CG:9841, V-B:TYR:539:CD1:9842, V-B:PRO:540:CA:9852, V-B:TYR:539:CE1:9844, V-B:ALA:541:CB:9861, V-B:TYR:539:C:9836, H-A:TYR:484:OH:4344, V-B:PRO:540:N:9853, V-B:PRO:540:CB:9854, V-B:TYR:539:CD2:9843, H-B:GLU:543:OE2:9879, V-A:TYR:484:CE1:4341, V-A:GLU:543:CB:4903, V-B:GLU:543:CB:9875, V-B:GLU:543:CD:9877, V-A:GLU:543:C:4899, V-B:HIS:456:CE1:9038, V-A:TYR:484:CZ:4343, V-B:GLU:543:CG:9876, V-A:LEU:475:CD1:4254, V-B:PRO:540:CD:9856, V-A:LEU:475:CD2:4255, V-B:GLU:543:C:9871, H-B:GLU:543:OE1:9878, V-B:LEU:363:CD1:8157, V-B:ILE:538:CB:9831, V-B:ILE:538:CA:9829"]

$$$$
4dg_Grossjean_2025
     RDKit          3D

 27 30  0  0  0  0  0  0  0  0999 V2000
  132.1020  128.6310   68.6130 C   0  0  0  0  0  0  0  0  0  0  0  0
  130.9200  127.7110   68.3480 C   0  0  0  0  0  0  0  0  0  0  0  0
  130.7870  127.1590   67.0680 C   0  0  0  0  0  0  0  0  0  0  0  0
  129.7220  126.3040   66.7600 C   0  0  0  0  0  0  0  0  0  0  0  0
  129.5540  125.6960   65.3960 C   0  0  0  0  0  0  0  0  0  0  0  0
  129.1980  126.4880   64.2920 C   0  0  0  0  0  0  0  0  0  0  0  0
  129.0370  125.9280   63.0270 C   0  0  0  0  0  0  0  0  0  0  0  0
  129.2310  124.5640   62.8460 C   0  0  0  0  0  0  0  0  0  0  0  0
  129.5810  123.7540   63.9220 C   0  0  0  0  0  0  0  0  0  0  0  0
  129.7390  124.3180   65.1850 C   0  0  0  0  0  0  0  0  0  0  0  0
  128.7870  125.9600   67.6860 N   0  0  0  0  0  0  0  0  0  0  0  0
  128.9110  126.4840   68.9050 C   0  0  0  0  0  0  0  0  0  0  0  0
  127.7760  126.1300   70.1860 S   0  0  0  0  0  0  0  0  0  0  0  0
  128.6600  127.1590   71.3130 C   0  0  0  0  0  0  0  0  0  0  0  0
  128.1670  127.3470   72.6760 C   0  0  0  0  0  0  0  0  0  0  0  0
  128.9280  127.6490   73.5980 O   0  0  0  0  0  0  0  0  0  0  0  0
  126.8470  127.1340   72.8610 N   0  0  0  0  0  0  0  0  0  0  0  0
  126.1340  127.2850   74.1290 C   0  0  0  0  0  0  0  0  0  0  0  0
  125.7970  128.7330   74.4650 C   0  0  0  0  0  0  0  0  0  0  0  0
  124.5620  129.0420   75.0440 C   0  0  0  0  0  0  0  0  0  0  0  0
  124.2630  130.3590   75.3810 C   0  0  0  0  0  0  0  0  0  0  0  0
  125.2020  131.3610   75.1490 C   0  0  0  0  0  0  0  0  0  0  0  0
  126.4410  131.0580   74.5880 C   0  0  0  0  0  0  0  0  0  0  0  0
  126.7410  129.7410   74.2520 C   0  0  0  0  0  0  0  0  0  0  0  0
  129.7720  127.7520   70.6970 C   0  0  0  0  0  0  0  0  0  0  0  0
  130.6300  128.6110   71.3350 N   0  0  0  0  0  0  0  0  0  0  0  0
  129.9440  127.3720   69.3200 C   0  0  0  0  0  0  0  0  0  0  0  0
  1  2  1  0
  2  3  2  0
  3  4  1  0
  4  5  1  0
  5  6  2  0
  6  7  1  0
  7  8  2  0
  8  9  1  0
  9 10  2  0
  4 11  2  0
 11 12  1  0
 12 13  1  0
 13 14  1  0
 14 15  1  0
 15 16  2  0
 15 17  1  0
 17 18  1  0
 18 19  1  0
 19 20  2  0
 20 21  1  0
 21 22  2  0
 22 23  1  0
 23 24  2  0
 14 25  2  0
 25 26  1  0
 25 27  1  0
 27  2  1  0
 10  5  1  0
 27 12  2  0
 24 19  1  0
M  END
>  <Binding energies>  (61) 
[-8.13]

>  <Ligand effiencies>  (61) 
[-0.271]

>  <Interactions>  (61) 
["V-A:HIS:456:CE1:4066, V-A:ARG:545:CG:4919, V-B:ALA:541:CB:9861, V-A:TYR:484:CE1:4341, V-B:HIS:456:CD2:9036, V-A:GLU:543:CB:4903, H-B:GLY:544:O:9882, V-B:VAL:458:CG2:9055, V-B:LYS:547:CG:9917, V-B:LYS:547:CD:9918, H-A:LYS:547:NZ:4948, V-B:GLY:544:C:9881, V-B:LYS:547:CE:9919, V-B:VAL:457:C:9041, V-B:GLU:543:CB:9875, V-B:GLU:543:CD:9877, V-B:HIS:456:CB:9033, V-A:GLU:543:C:4899, V-B:HIS:456:CE1:9038, V-B:GLU:543:CG:9876, V-A:GLY:544:C:4909, V-B:GLU:543:C:9871, V-B:ASP:473:CG:9208, V-B:HIS:456:C:9029, V-B:GLY:544:CA:9883, V-B:LYS:471:CE:9188, V-B:HIS:456:CG:9034, H-A:GLU:543:O:4900, H-B:HIS:456:NE2:9039, V-A:GLU:543:CA:4901, V-A:GLY:544:CA:4911, V-A:ARG:545:CA:4916, H-A:GLY:544:O:4910, V-B:HIS:456:CA:9031, V-B:VAL:457:CA:9043, V-B:ASP:473:CB:9207, V-A:ARG:545:CB:4918"]

$$$$
4dj_Grossjean_2025
     RDKit          3D

 25 28  0  0  0  0  0  0  0  0999 V2000
  130.2670  120.4720   61.9890 C   0  0  0  0  0  0  0  0  0  0  0  0
  129.5500  121.7480   61.5740 C   0  0  0  0  0  0  0  0  0  0  0  0
  128.8220  121.7370   60.3790 C   0  0  0  0  0  0  0  0  0  0  0  0
  128.1410  122.8790   59.9400 C   0  0  0  0  0  0  0  0  0  0  0  0
  127.3470  122.8940   58.6650 C   0  0  0  0  0  0  0  0  0  0  0  0
  127.8710  122.3450   57.4830 C   0  0  0  0  0  0  0  0  0  0  0  0
  127.1400  122.3560   56.2980 C   0  0  0  0  0  0  0  0  0  0  0  0
  125.8700  122.9240   56.2760 C   0  0  0  0  0  0  0  0  0  0  0  0
  125.3280  123.4790   57.4300 C   0  0  0  0  0  0  0  0  0  0  0  0
  126.0620  123.4640   58.6130 C   0  0  0  0  0  0  0  0  0  0  0  0
  128.1420  124.0360   60.6570 N   0  0  0  0  0  0  0  0  0  0  0  0
  128.8360  124.0490   61.7940 C   0  0  0  0  0  0  0  0  0  0  0  0
  128.9300  125.4710   62.8080 S   0  0  0  0  0  0  0  0  0  0  0  0
  129.9540  124.6300   63.9730 C   0  0  0  0  0  0  0  0  0  0  0  0
  130.4400  125.3230   65.1670 C   0  0  0  0  0  0  0  0  0  0  0  0
  131.6390  125.3090   65.4610 O   0  0  0  0  0  0  0  0  0  0  0  0
  129.4910  125.9540   65.9030 N   0  0  0  0  0  0  0  0  0  0  0  0
  129.6850  126.6760   67.0720 C   0  0  0  0  0  0  0  0  0  0  0  0
  130.6840  127.4780   67.3700 N   0  0  0  0  0  0  0  0  0  0  0  0
  130.5430  128.0010   68.5730 C   0  0  0  0  0  0  0  0  0  0  0  0
  129.4050  127.6240   69.2790 C   0  0  0  0  0  0  0  0  0  0  0  0
  128.4760  126.5240   68.3060 S   0  0  0  0  0  0  0  0  0  0  0  0
  130.2010  123.3090   63.5690 C   0  0  0  0  0  0  0  0  0  0  0  0
  130.9710  122.4240   64.2810 N   0  0  0  0  0  0  0  0  0  0  0  0
  129.5710  122.9510   62.3270 C   0  0  0  0  0  0  0  0  0  0  0  0
  1  2  1  0
  2  3  2  0
  3  4  1  0
  4  5  1  0
  5  6  2  0
  6  7  1  0
  7  8  2  0
  8  9  1  0
  9 10  2  0
  4 11  2  0
 11 12  1  0
 12 13  1  0
 13 14  1  0
 14 15  1  0
 15 16  2  0
 15 17  1  0
 17 18  1  0
 18 19  2  0
 19 20  1  0
 20 21  2  0
 21 22  1  0
 14 23  2  0
 23 24  1  0
 23 25  1  0
 25  2  1  0
 10  5  1  0
 25 12  2  0
 22 18  1  0
M  END
>  <Binding energies>  (62) 
[-7.37]

>  <Ligand effiencies>  (62) 
[-0.26321428571428573]

>  <Interactions>  (62) 
["V-B:TYR:539:CE2:9845, V-A:HIS:456:CE1:4066, V-B:TYR:539:CG:9841, V-B:TYR:539:CD1:9842, V-B:TYR:539:CZ:9846, V-B:PRO:540:CA:9852, V-B:TYR:539:CE1:9844, V-B:ALA:541:CB:9861, V-B:TYR:539:C:9836, H-A:TYR:484:OH:4344, V-B:PRO:540:N:9853, V-B:PRO:540:CB:9854, V-B:TYR:539:CD2:9843, H-B:GLU:543:OE2:9879, V-A:TYR:484:CE1:4341, V-A:GLU:543:CB:4903, V-B:GLU:543:CB:9875, V-B:GLU:543:CD:9877, V-A:GLU:543:C:4899, V-B:HIS:456:CE1:9038, V-A:TYR:484:CZ:4343, V-B:GLU:543:CG:9876, V-A:LEU:475:CD1:4254, V-A:LEU:475:CD2:4255, H-B:GLU:543:OE1:9878, V-B:LEU:363:CD1:8157, V-B:ILE:538:CB:9831, V-B:ILE:538:CA:9829"]

$$$$
4ea_Grossjean_2025
     RDKit          3D

 31 34  0  0  0  0  0  0  0  0999 V2000
  124.9200  127.6230   74.0000 C   0  0  0  0  0  0  0  0  0  0  0  0
  126.3930  128.0150   73.8520 C   0  0  0  0  0  0  0  0  0  0  0  0
  127.0010  127.2000   72.8590 O   0  0  0  0  0  0  0  0  0  0  0  0
  128.2850  127.4100   72.4690 C   0  0  0  0  0  0  0  0  0  0  0  0
  129.1760  127.7850   73.2370 O   0  0  0  0  0  0  0  0  0  0  0  0
  128.5130  127.1390   71.0100 C   0  0  0  0  0  0  0  0  0  0  0  0
  129.6820  127.6140   70.4020 C   0  0  0  0  0  0  0  0  0  0  0  0
  129.9230  127.3800   69.0510 C   0  0  0  0  0  0  0  0  0  0  0  0
  129.0030  126.6680   68.2810 C   0  0  0  0  0  0  0  0  0  0  0  0
  129.3510  126.4930   66.9270 N   0  0  0  0  0  0  0  0  0  0  0  0
  129.8620  125.4130   66.2850 C   0  0  0  0  0  0  0  0  0  0  0  0
  130.1170  124.3390   66.8290 O   0  0  0  0  0  0  0  0  0  0  0  0
  130.1030  125.5970   64.8510 C   0  0  0  0  0  0  0  0  0  0  0  0
  129.3070  126.9050   63.9720 S   0  0  0  0  0  0  0  0  0  0  0  0
  130.0810  126.4360   62.4760 C   0  0  0  0  0  0  0  0  0  0  0  0
  129.8690  127.0940   61.3350 N   0  0  0  0  0  0  0  0  0  0  0  0
  130.5300  126.6290   60.2470 C   0  0  0  0  0  0  0  0  0  0  0  0
  130.2740  127.3930   58.9600 C   0  0  0  0  0  0  0  0  0  0  0  0
  131.3890  125.5330   60.2720 C   0  0  0  0  0  0  0  0  0  0  0  0
  131.6090  124.8450   61.4700 C   0  0  0  0  0  0  0  0  0  0  0  0
  132.5250  123.6830   61.4800 C   0  0  0  0  0  0  0  0  0  0  0  0
  133.9100  123.8780   61.4830 C   0  0  0  0  0  0  0  0  0  0  0  0
  134.7720  122.7850   61.4950 C   0  0  0  0  0  0  0  0  0  0  0  0
  134.2480  121.4940   61.5010 C   0  0  0  0  0  0  0  0  0  0  0  0
  132.8710  121.2880   61.4930 C   0  0  0  0  0  0  0  0  0  0  0  0
  132.0100  122.3820   61.4810 C   0  0  0  0  0  0  0  0  0  0  0  0
  130.9340  125.3020   62.6350 C   0  0  0  0  0  0  0  0  0  0  0  0
  130.9280  124.8440   64.0010 C   0  0  0  0  0  0  0  0  0  0  0  0
  131.6680  123.7660   64.4140 N   0  0  0  0  0  0  0  0  0  0  0  0
  127.8290  126.1880   68.8820 C   0  0  0  0  0  0  0  0  0  0  0  0
  127.5900  126.4230   70.2330 C   0  0  0  0  0  0  0  0  0  0  0  0
  1  2  1  0
  2  3  1  0
  3  4  1  0
  4  5  2  0
  4  6  1  0
  6  7  2  0
  7  8  1  0
  8  9  2  0
  9 10  1  0
 10 11  1  0
 11 12  2  0
 11 13  1  0
 13 14  1  0
 14 15  1  0
 15 16  2  0
 16 17  1  0
 17 18  1  0
 17 19  2  0
 19 20  1  0
 20 21  1  0
 21 22  2  0
 22 23  1  0
 23 24  2  0
 24 25  1  0
 25 26  2  0
 20 27  2  0
 27 28  1  0
 28 29  1  0
  9 30  1  0
 30 31  2  0
 31  6  1  0
 28 13  2  0
 27 15  1  0
 26 21  1  0
M  END
>  <Binding energies>  (63) 
[-7.9]

>  <Ligand effiencies>  (63) 
[-0.2323529411764706]

>  <Interactions>  (63) 
["V-B:TYR:539:CE2:9845, V-A:HIS:456:CE1:4066, V-A:GLY:453:C:4038, V-A:GLY:453:CA:4040, H-A:TYR:484:OH:4344, V-A:GLY:454:CA:4045, V-A:ASP:366:CG:3209, V-B:HIS:456:CD2:9036, V-B:LYS:547:CD:9918, H-A:LYS:547:NZ:4948, V-B:GLY:544:C:9881, V-B:LYS:547:CE:9919, V-B:GLU:543:CB:9875, V-B:GLU:543:CD:9877, V-B:HIS:456:CB:9033, V-B:HIS:456:CE1:9038, V-A:TYR:484:CZ:4343, V-B:GLU:543:CG:9876, V-A:GLU:543:CD:4905, V-A:LEU:475:CD1:4254, V-A:ILE:369:CG2:3233, V-A:ILE:369:CG1:3234, H-A:GLU:543:OE1:4906, V-B:GLU:543:C:9871, H-B:GLU:543:OE1:9878, V-B:HIS:456:CG:9034"]

$$$$
4eb_Grossjean_2025
     RDKit          3D

 30 33  0  0  0  0  0  0  0  0999 V2000
  129.1040  129.6310   73.1310 C   0  0  0  0  0  0  0  0  0  0  0  0
  129.2610  128.2200   73.0930 O   0  0  0  0  0  0  0  0  0  0  0  0
  128.4070  127.4410   72.3790 C   0  0  0  0  0  0  0  0  0  0  0  0
  127.3980  126.9200   72.8620 O   0  0  0  0  0  0  0  0  0  0  0  0
  128.8140  127.2770   70.9420 C   0  0  0  0  0  0  0  0  0  0  0  0
  128.0340  126.4750   70.0990 C   0  0  0  0  0  0  0  0  0  0  0  0
  128.3850  126.3030   68.7630 C   0  0  0  0  0  0  0  0  0  0  0  0
  129.5190  126.9280   68.2430 C   0  0  0  0  0  0  0  0  0  0  0  0
  129.7760  126.6820   66.8790 N   0  0  0  0  0  0  0  0  0  0  0  0
  130.1080  125.5330   66.2420 C   0  0  0  0  0  0  0  0  0  0  0  0
  130.2470  124.4450   66.8000 O   0  0  0  0  0  0  0  0  0  0  0  0
  130.3020  125.6550   64.7950 C   0  0  0  0  0  0  0  0  0  0  0  0
  129.4560  126.9080   63.8830 S   0  0  0  0  0  0  0  0  0  0  0  0
  130.1930  126.3840   62.3860 C   0  0  0  0  0  0  0  0  0  0  0  0
  129.9330  126.9860   61.2240 N   0  0  0  0  0  0  0  0  0  0  0  0
  130.5680  126.4840   60.1380 C   0  0  0  0  0  0  0  0  0  0  0  0
  130.2590  127.1840   58.8270 C   0  0  0  0  0  0  0  0  0  0  0  0
  131.4480  125.4050   60.1840 C   0  0  0  0  0  0  0  0  0  0  0  0
  131.7170  124.7760   61.4050 C   0  0  0  0  0  0  0  0  0  0  0  0
  132.6540  123.6300   61.4390 C   0  0  0  0  0  0  0  0  0  0  0  0
  134.0350  123.8520   61.4600 C   0  0  0  0  0  0  0  0  0  0  0  0
  134.9170  122.7740   61.4930 C   0  0  0  0  0  0  0  0  0  0  0  0
  134.4170  121.4740   61.5020 C   0  0  0  0  0  0  0  0  0  0  0  0
  133.0430  121.2430   61.4780 C   0  0  0  0  0  0  0  0  0  0  0  0
  132.1630  122.3210   61.4450 C   0  0  0  0  0  0  0  0  0  0  0  0
  131.0700  125.2730   62.5690 C   0  0  0  0  0  0  0  0  0  0  0  0
  131.1140  124.8790   63.9530 C   0  0  0  0  0  0  0  0  0  0  0  0
  131.8860  123.8320   64.3920 N   0  0  0  0  0  0  0  0  0  0  0  0
  130.3060  127.7330   69.0800 C   0  0  0  0  0  0  0  0  0  0  0  0
  129.9540  127.9040   70.4160 C   0  0  0  0  0  0  0  0  0  0  0  0
  1  2  1  0
  2  3  1  0
  3  4  2  0
  3  5  1  0
  5  6  2  0
  6  7  1  0
  7  8  2  0
  8  9  1  0
  9 10  1  0
 10 11  2  0
 10 12  1  0
 12 13  1  0
 13 14  1  0
 14 15  2  0
 15 16  1  0
 16 17  1  0
 16 18  2  0
 18 19  1  0
 19 20  1  0
 20 21  2  0
 21 22  1  0
 22 23  2  0
 23 24  1  0
 24 25  2  0
 19 26  2  0
 26 27  1  0
 27 28  1  0
  8 29  1  0
 29 30  2  0
 30  5  1  0
 27 12  2  0
 26 14  1  0
 25 20  1  0
M  END
>  <Binding energies>  (64) 
[-7.59]

>  <Ligand effiencies>  (64) 
[-0.22999999999999998]

>  <Interactions>  (64) 
["V-B:TYR:539:CE2:9845, V-A:HIS:456:CE1:4066, V-A:GLY:453:C:4038, V-A:GLY:453:CA:4040, H-A:TYR:484:OH:4344, V-A:GLY:454:CA:4045, V-A:ASP:366:CG:3209, V-B:HIS:456:CD2:9036, V-A:GLU:543:CB:4903, V-A:LYS:547:CE:4947, H-A:LYS:547:NZ:4948, V-B:GLY:544:C:9881, V-B:LYS:547:CE:9919, V-B:GLU:543:CB:9875, V-B:GLU:543:CD:9877, V-A:GLU:543:C:4899, V-B:HIS:456:CE1:9038, V-A:GLU:543:CD:4905, V-A:ILE:369:CB:3232, V-A:LEU:475:CD1:4254, V-A:ILE:369:CG2:3233, V-A:ILE:369:CG1:3234, H-A:GLU:543:OE1:4906, V-B:GLU:543:C:9871"]

$$$$
8b_Ghoteimi_2023
     RDKit          3D

 34 38  0  0  0  0  0  0  0  0999 V2000
  123.9330  133.5910   61.8960 C   0  0  0  0  0  0  0  0  0  0  0  0
  124.0920  133.2800   63.2770 O   0  0  0  0  0  0  0  0  0  0  0  0
  124.8950  132.2150   63.6380 C   0  0  0  0  0  0  0  0  0  0  0  0
  126.1820  132.5240   64.0740 C   0  0  0  0  0  0  0  0  0  0  0  0
  127.0610  131.5160   64.4580 C   0  0  0  0  0  0  0  0  0  0  0  0
  126.6740  130.1690   64.4160 C   0  0  0  0  0  0  0  0  0  0  0  0
  127.6160  129.0810   64.8250 C   0  0  0  0  0  0  0  0  0  0  0  0
  127.8070  128.7380   66.1680 C   0  0  0  0  0  0  0  0  0  0  0  0
  128.6920  127.7170   66.5240 C   0  0  0  0  0  0  0  0  0  0  0  0
  128.8780  127.3860   67.9560 C   0  0  0  0  0  0  0  0  0  0  0  0
  129.9120  127.9760   68.6850 C   0  0  0  0  0  0  0  0  0  0  0  0
  130.0800  127.6710   70.0340 C   0  0  0  0  0  0  0  0  0  0  0  0
  129.2220  126.7730   70.6700 C   0  0  0  0  0  0  0  0  0  0  0  0
  129.4630  126.5320   72.0090 O   0  0  0  0  0  0  0  0  0  0  0  0
  128.4990  126.9430   72.9730 C   0  0  0  0  0  0  0  0  0  0  0  0
  128.1860  126.1780   69.9330 C   0  0  0  0  0  0  0  0  0  0  0  0
  128.0190  126.4840   68.5850 C   0  0  0  0  0  0  0  0  0  0  0  0
  129.3820  127.0370   65.4850 C   0  0  0  0  0  0  0  0  0  0  0  0
  130.3370  125.9600   65.4890 C   0  0  0  0  0  0  0  0  0  0  0  0
  130.7670  125.3650   66.6480 N   0  0  0  0  0  0  0  0  0  0  0  0
  130.7750  125.5830   64.2100 C   0  0  0  0  0  0  0  0  0  0  0  0
  131.7290  124.5340   63.8450 C   0  0  0  0  0  0  0  0  0  0  0  0
  131.8220  123.5060   64.5200 O   0  0  0  0  0  0  0  0  0  0  0  0
  132.4770  124.7860   62.7410 N   0  0  0  0  0  0  0  0  0  0  0  0
  133.4460  123.9700   62.1730 C   0  0  0  0  0  0  0  0  0  0  0  0
  133.1530  122.7510   61.5630 C   0  0  0  0  0  0  0  0  0  0  0  0
  134.3680  122.2620   61.1400 C   0  0  0  0  0  0  0  0  0  0  0  0
  135.3410  123.1420   61.4740 O   0  0  0  0  0  0  0  0  0  0  0  0
  134.7440  124.2220   62.1270 N   0  0  0  0  0  0  0  0  0  0  0  0
  130.0050  126.5620   62.9600 S   0  0  0  0  0  0  0  0  0  0  0  0
  129.1050  127.4660   64.1560 C   0  0  0  0  0  0  0  0  0  0  0  0
  128.2640  128.4420   63.8150 N   0  0  0  0  0  0  0  0  0  0  0  0
  125.3780  129.8640   63.9790 C   0  0  0  0  0  0  0  0  0  0  0  0
  124.4960  130.8710   63.5930 C   0  0  0  0  0  0  0  0  0  0  0  0
  1  2  1  0
  2  3  1  0
  3  4  2  0
  4  5  1  0
  5  6  2  0
  6  7  1  0
  7  8  2  0
  8  9  1  0
  9 10  1  0
 10 11  2  0
 11 12  1  0
 12 13  2  0
 13 14  1  0
 14 15  1  0
 13 16  1  0
 16 17  2  0
  9 18  2  0
 18 19  1  0
 19 20  1  0
 19 21  2  0
 21 22  1  0
 22 23  2  0
 22 24  1  0
 24 25  1  0
 25 26  1  0
 26 27  2  0
 27 28  1  0
 28 29  1  0
 21 30  1  0
 30 31  1  0
 31 32  2  0
  6 33  1  0
 33 34  2  0
 34  3  1  0
 32  7  1  0
 17 10  1  0
 31 18  1  0
 29 25  2  0
M  END
>  <Binding energies>  (65) 
[-8.56]

>  <Ligand effiencies>  (65) 
[-0.23135135135135138]

>  <Interactions>  (65) 
["V-A:HIS:456:CE1:4066, H-A:GLY:454:N:4046, H-A:TYR:484:OH:4344, V-A:GLY:454:CA:4045, V-A:TYR:484:CE1:4341, V-A:GLU:543:CB:4903, V-B:LYS:547:CE:9919, V-B:GLU:543:CB:9875, V-B:GLU:543:CD:9877, V-A:GLU:543:C:4899, V-B:HIS:456:CE1:9038, V-A:TYR:484:CZ:4343, V-A:GLU:543:CD:4905, V-A:ILE:369:CB:3232, H-A:ASP:366:OD2:3211, V-A:ILE:369:CG2:3233, V-A:ILE:369:CG1:3234, H-B:GLY:454:N:9018, V-B:ARG:545:CZ:9895, H-A:ASP:366:OD1:3210, V-A:HIS:456:CD2:4064, V-B:GLU:543:C:9871, V-B:GLY:454:CA:9017, V-B:LEU:475:CD2:9227, H-A:HIS:456:NE2:4067, V-B:ILE:369:CD1:8207, V-B:ILE:369:CG2:8205"]

$$$$
9d_Ghoteimi_2023
     RDKit          3D

 38 43  0  0  0  0  0  0  0  0999 V2000
  134.0010  123.5350   59.2080 C   0  0  0  0  0  0  0  0  0  0  0  0
  133.7950  123.1230   60.5510 O   0  0  0  0  0  0  0  0  0  0  0  0
  134.2780  123.8570   61.5870 C   0  0  0  0  0  0  0  0  0  0  0  0
  135.4740  124.1180   61.7490 O   0  0  0  0  0  0  0  0  0  0  0  0
  133.2190  124.3150   62.5130 C   0  0  0  0  0  0  0  0  0  0  0  0
  133.6090  124.6370   64.2020 S   0  0  0  0  0  0  0  0  0  0  0  0
  131.9600  125.1130   64.5330 C   0  0  0  0  0  0  0  0  0  0  0  0
  131.5840  125.5350   65.7390 N   0  0  0  0  0  0  0  0  0  0  0  0
  130.2840  125.8990   65.8880 C   0  0  0  0  0  0  0  0  0  0  0  0
  129.8910  126.3940   67.2440 C   0  0  0  0  0  0  0  0  0  0  0  0
  130.5250  127.5070   67.8040 C   0  0  0  0  0  0  0  0  0  0  0  0
  130.1690  127.9740   69.0660 C   0  0  0  0  0  0  0  0  0  0  0  0
  129.1540  127.3510   69.8100 C   0  0  0  0  0  0  0  0  0  0  0  0
  128.7960  127.7990   71.0870 N   0  0  0  0  0  0  0  0  0  0  0  0
  128.1410  126.9010   72.0600 C   0  0  0  0  0  0  0  0  0  0  0  0
  127.5130  127.6360   73.2620 C   0  0  0  0  0  0  0  0  0  0  0  0
  128.4850  128.4500   73.8960 O   0  0  0  0  0  0  0  0  0  0  0  0
  128.9970  129.4320   73.0100 C   0  0  0  0  0  0  0  0  0  0  0  0
  129.6710  128.7540   71.7980 C   0  0  0  0  0  0  0  0  0  0  0  0
  128.5320  126.2260   69.2500 C   0  0  0  0  0  0  0  0  0  0  0  0
  128.8910  125.7580   67.9890 C   0  0  0  0  0  0  0  0  0  0  0  0
  129.3590  125.8090   64.8450 C   0  0  0  0  0  0  0  0  0  0  0  0
  129.7450  125.3470   63.5810 C   0  0  0  0  0  0  0  0  0  0  0  0
  128.7150  125.2440   62.5130 C   0  0  0  0  0  0  0  0  0  0  0  0
  128.2170  126.3910   61.8900 C   0  0  0  0  0  0  0  0  0  0  0  0
  127.2660  126.2880   60.8780 C   0  0  0  0  0  0  0  0  0  0  0  0
  126.8010  125.0340   60.4510 C   0  0  0  0  0  0  0  0  0  0  0  0
  125.8410  124.9050   59.4440 N   0  0  0  0  0  0  0  0  0  0  0  0
  126.0850  125.5400   58.1350 C   0  0  0  0  0  0  0  0  0  0  0  0
  125.1640  125.0050   57.0170 C   0  0  0  0  0  0  0  0  0  0  0  0
  123.8040  125.1420   57.4020 O   0  0  0  0  0  0  0  0  0  0  0  0
  123.5200  124.4190   58.5910 C   0  0  0  0  0  0  0  0  0  0  0  0
  124.3980  124.9440   59.7470 C   0  0  0  0  0  0  0  0  0  0  0  0
  127.3080  123.8900   61.0850 C   0  0  0  0  0  0  0  0  0  0  0  0
  128.2560  123.9940   62.0980 C   0  0  0  0  0  0  0  0  0  0  0  0
  131.1120  125.0010   63.3910 C   0  0  0  0  0  0  0  0  0  0  0  0
  131.8660  124.5600   62.2470 C   0  0  0  0  0  0  0  0  0  0  0  0
  131.3130  124.4160   61.0010 N   0  0  0  0  0  0  0  0  0  0  0  0
  1  2  1  0
  2  3  1  0
  3  4  2  0
  3  5  1  0
  5  6  1  0
  6  7  1  0
  7  8  2  0
  8  9  1  0
  9 10  1  0
 10 11  2  0
 11 12  1  0
 12 13  2  0
 13 14  1  0
 14 15  1  0
 15 16  1  0
 16 17  1  0
 17 18  1  0
 18 19  1  0
 13 20  1  0
 20 21  2  0
  9 22  2  0
 22 23  1  0
 23 24  1  0
 24 25  2  0
 25 26  1  0
 26 27  2  0
 27 28  1  0
 28 29  1  0
 29 30  1  0
 30 31  1  0
 31 32  1  0
 32 33  1  0
 27 34  1  0
 34 35  2  0
 23 36  2  0
 36 37  1  0
 37 38  1  0
 37  5  2  0
 36  7  1  0
 21 10  1  0
 35 24  1  0
 19 14  1  0
 33 28  1  0
M  END
>  <Binding energies>  (66) 
[-8.35]

>  <Ligand effiencies>  (66) 
[-0.20875]

>  <Interactions>  (66) 
["V-B:TYR:539:CE2:9845, V-A:HIS:456:CE1:4066, V-B:TYR:539:CZ:9846, V-A:GLY:453:C:4038, V-A:ARG:545:CZ:4923, V-A:GLY:453:CA:4040, V-B:ALA:541:CB:9861, H-A:GLY:454:N:4046, H-A:TYR:484:OH:4344, V-A:GLY:454:CA:4045, V-B:PRO:540:CB:9854, V-A:ASP:366:CG:3209, V-B:HIS:456:CD2:9036, V-A:GLU:543:CB:4903, V-A:LYS:547:CE:4947, H-A:LYS:547:NZ:4948, V-B:LYS:547:CE:9919, V-B:GLU:543:CB:9875, V-B:GLU:543:CD:9877, V-A:GLU:543:C:4899, V-B:HIS:456:CE1:9038, V-B:GLU:543:CG:9876, V-A:ILE:369:CB:3232, V-B:LEU:363:CA:8153, V-A:ILE:369:CG2:3233, V-A:ILE:369:CG1:3234, H-B:TYR:539:OH:9847, V-A:ASP:366:CB:3208, V-B:MET:535:CE:9804, V-B:GLU:543:C:9871, V-B:LEU:363:CD1:8157, V-B:TYR:531:CE2:9762, V-B:TYR:531:CZ:9763, H-B:TYR:531:OH:9764, V-B:LEU:363:CB:8155, V-B:ASP:366:CG:8181, V-A:ASP:366:CA:3206, V-A:ASP:366:C:3204"]

$$$$
RR10_Rahimova_2017
     RDKit          3D

 34 38  0  0  0  0  0  0  0  0999 V2000
  124.5640  132.7830   60.5340 C   0  0  0  0  0  0  0  0  0  0  0  0
  125.0100  132.1440   59.2080 C   0  0  1  0  0  0  0  0  0  0  0  0
  126.3890  131.4540   59.3340 C   0  0  0  0  0  0  0  0  0  0  0  0
  126.8320  130.8500   57.9820 C   0  0  0  0  0  0  0  0  0  0  0  0
  125.8020  129.8300   57.4330 C   0  0  1  0  0  0  0  0  0  0  0  0
  125.7620  128.6260   58.2740 N   0  0  0  0  0  0  0  0  0  0  0  0
  126.4310  127.4840   58.0340 C   0  0  0  0  0  0  0  0  0  0  0  0
  127.1840  127.3370   57.0680 O   0  0  0  0  0  0  0  0  0  0  0  0
  126.2080  126.3260   59.0300 C   0  0  1  0  0  0  0  0  0  0  0  0
  124.7810  125.7500   58.8370 C   0  0  0  0  0  0  0  0  0  0  0  0
  124.5860  124.5300   59.7690 C   0  0  0  0  0  0  0  0  0  0  0  0
  125.7120  123.4820   59.6170 C   0  0  0  0  0  0  0  0  0  0  0  0
  127.0480  124.1250   59.7510 N   0  0  0  0  0  0  0  0  0  0  0  0
  128.3980  122.9860   59.8920 S   0  0  0  0  0  0  0  0  0  0  0  0
  129.4310  123.3810   58.9270 O   0  0  0  0  0  0  0  0  0  0  0  0
  127.8460  121.6260   59.8690 O   0  0  0  0  0  0  0  0  0  0  0  0
  129.0820  123.2760   61.5250 C   0  0  0  0  0  0  0  0  0  0  0  0
  129.9530  122.3320   62.0790 C   0  0  0  0  0  0  0  0  0  0  0  0
  130.5180  122.4970   63.3470 C   0  0  0  0  0  0  0  0  0  0  0  0
  130.1700  123.6600   64.0390 C   0  0  0  0  0  0  0  0  0  0  0  0
  130.4990  124.1690   65.2730 N   0  0  0  0  0  0  0  0  0  0  0  0
  129.8440  125.3740   65.4240 C   0  0  0  0  0  0  0  0  0  0  0  0
  129.9490  126.2280   66.6550 C   0  0  0  0  0  0  0  0  0  0  0  0
  130.9590  127.1940   66.7630 C   0  0  0  0  0  0  0  0  0  0  0  0
  131.0560  127.9900   67.9020 C   0  0  0  0  0  0  0  0  0  0  0  0
  130.1430  127.8220   68.9400 C   0  0  0  0  0  0  0  0  0  0  0  0
  129.1340  126.8670   68.8480 C   0  0  0  0  0  0  0  0  0  0  0  0
  129.0390  126.0720   67.7090 C   0  0  0  0  0  0  0  0  0  0  0  0
  129.1200  125.6770   64.3690 N   0  0  0  0  0  0  0  0  0  0  0  0
  129.2990  124.6350   63.4970 C   0  0  0  0  0  0  0  0  0  0  0  0
  128.7490  124.4440   62.2210 C   0  0  0  0  0  0  0  0  0  0  0  0
  127.2730  125.2300   58.7850 C   0  0  0  0  0  0  0  0  0  0  0  0
  124.4200  130.5300   57.3270 C   0  0  0  0  0  0  0  0  0  0  0  0
  123.9700  131.1290   58.6790 C   0  0  0  0  0  0  0  0  0  0  0  0
  2  1  1  1
  2  3  1  0
  3  4  1  0
  4  5  1  0
  5  6  1  1
  6  7  1  0
  7  8  2  0
  9  7  1  6
  9 10  1  0
 10 11  1  0
 11 12  1  0
 12 13  1  0
 13 14  1  0
 14 15  2  0
 14 16  2  0
 14 17  1  0
 17 18  2  0
 18 19  1  0
 19 20  2  0
 20 21  1  0
 21 22  1  0
 22 23  1  0
 23 24  2  0
 24 25  1  0
 25 26  2  0
 26 27  1  0
 27 28  2  0
 22 29  2  0
 29 30  1  0
 30 31  2  0
 13 32  1  0
  5 33  1  0
 33 34  1  0
 34  2  1  0
 32  9  1  0
 31 17  1  0
 30 20  1  0
 28 23  1  0
M  END
>  <Binding energies>  (67) 
[-9.86]

>  <Ligand effiencies>  (67) 
[-0.27388888888888885]

>  <Interactions>  (67) 
["H-B:ALA:541:N:9860, V-A:HIS:456:CE1:4066, V-B:PRO:540:CA:9852, V-A:ARG:545:CG:4919, V-B:ALA:541:CB:9861, H-A:TYR:484:OH:4344, V-B:PRO:540:CB:9854, V-A:TYR:484:CE1:4341, V-A:GLU:543:CB:4903, V-B:GLU:543:CB:9875, V-B:GLU:543:CD:9877, V-A:GLU:543:C:4899, V-A:TYR:484:CZ:4343, V-B:GLU:543:CG:9876, V-A:GLU:543:CD:4905, V-A:LEU:475:CD1:4254, H-B:TYR:539:OH:9847, H-B:ASP:366:OD1:8182, V-B:TYR:531:CZ:9763, H-B:TYR:531:OH:9764, V-B:ASP:366:CG:8181, V-B:ASP:366:CB:8180, H-B:ASP:366:OD2:8183, V-A:TYR:539:CE2:4873, V-B:ASP:366:CA:8178, V-B:ILE:369:CD1:8207, V-B:ASP:366:C:8176, V-B:ILE:369:CG2:8205, V-B:ILE:369:CB:8204"]

$$$$
RR12_Rahimova_2017
     RDKit          3D

 26 28  0  0  0  0  0  0  0  0999 V2000
  129.4530  124.2240   57.6970 C   0  0  0  0  0  0  0  0  0  0  0  0
  128.3700  123.6800   56.7560 C   0  0  0  0  0  0  0  0  0  0  0  0
  127.6640  122.4350   57.3230 C   0  0  0  0  0  0  0  0  0  0  0  0
  127.0300  122.7380   58.6050 N   0  0  0  0  0  0  0  0  0  0  0  0
  127.4980  122.4250   59.8720 C   0  0  0  0  0  0  0  0  0  0  0  0
  128.7740  121.6450   60.1360 C   0  0  0  0  0  0  0  0  0  0  0  0
  129.4310  122.0300   61.4740 C   0  0  0  0  0  0  0  0  0  0  0  0
  130.8780  121.5160   61.5970 C   0  0  0  0  0  0  0  0  0  0  0  0
  131.8630  122.5740   61.8170 N   0  0  0  0  0  0  0  0  0  0  0  0
  133.0570  122.6570   61.2010 C   0  0  0  0  0  0  0  0  0  0  0  0
  133.4500  121.8300   60.3750 O   0  0  0  0  0  0  0  0  0  0  0  0
  133.9200  123.8650   61.5870 C   0  0  0  0  0  0  0  0  0  0  0  0
  133.8590  124.0620   63.0010 O   0  0  0  0  0  0  0  0  0  0  0  0
  132.8560  124.8500   63.5320 C   0  0  0  0  0  0  0  0  0  0  0  0
  132.7970  124.9240   64.9250 C   0  0  0  0  0  0  0  0  0  0  0  0
  131.8220  125.6960   65.5520 C   0  0  0  0  0  0  0  0  0  0  0  0
  130.9010  126.4000   64.7820 C   0  0  0  0  0  0  0  0  0  0  0  0
  130.9440  126.3360   63.3920 C   0  0  0  0  0  0  0  0  0  0  0  0
  131.9190  125.5630   62.7660 C   0  0  0  0  0  0  0  0  0  0  0  0
  126.7180  122.8540   60.8330 N   0  0  0  0  0  0  0  0  0  0  0  0
  125.6980  123.5040   60.1950 C   0  0  0  0  0  0  0  0  0  0  0  0
  124.5910  124.1660   60.7470 C   0  0  0  0  0  0  0  0  0  0  0  0
  123.6810  124.7640   59.8750 C   0  0  0  0  0  0  0  0  0  0  0  0
  123.8610  124.7110   58.4920 C   0  0  0  0  0  0  0  0  0  0  0  0
  124.9510  124.0590   57.9130 C   0  0  0  0  0  0  0  0  0  0  0  0
  125.8630  123.4570   58.7880 C   0  0  0  0  0  0  0  0  0  0  0  0
  1  2  1  0
  2  3  1  0
  3  4  1  0
  4  5  1  0
  5  6  1  0
  6  7  1  0
  7  8  1  0
  8  9  1  0
  9 10  1  0
 10 11  2  0
 10 12  1  0
 12 13  1  0
 13 14  1  0
 14 15  2  0
 15 16  1  0
 16 17  2  0
 17 18  1  0
 18 19  2  0
  5 20  2  0
 20 21  1  0
 21 22  2  0
 22 23  1  0
 23 24  2  0
 24 25  1  0
 25 26  2  0
 26  4  1  0
 19 14  1  0
 26 21  1  0
M  END
>  <Binding energies>  (68) 
[-7.09]

>  <Ligand effiencies>  (68) 
[-0.2625925925925926]

>  <Interactions>  (68) 
["V-B:PRO:540:C:9850, H-B:ALA:541:N:9860, V-B:TYR:539:CE2:9845, V-A:HIS:456:CE1:4066, V-B:TYR:539:CD1:9842, V-B:TYR:539:CZ:9846, V-B:ASN:362:CB:8144, V-B:PRO:540:CA:9852, V-A:ARG:545:CZ:4923, V-B:TYR:539:CE1:9844, V-B:ALA:541:CB:9861, H-A:GLY:454:N:4046, V-B:TYR:539:C:9836, V-B:ASN:362:C:8140, V-B:PRO:540:N:9853, V-B:PRO:540:CB:9854, V-B:TYR:539:CD2:9843, V-A:ASP:366:CG:3209, V-A:GLU:543:CD:4905, V-B:LEU:363:CA:8153, V-A:LEU:475:CD1:4254, H-B:TYR:539:OH:9847, V-B:MET:535:CE:9804, V-B:LEU:363:CD1:8157, V-B:ASP:366:CG:8181, V-B:ASP:366:CB:8180"]

$$$$
RR13_Rahimova_2017
     RDKit          3D

 48 54  0  0  0  0  0  0  0  0999 V2000
  126.1870  129.0090   62.8820 Cl  0  0  0  0  0  0  0  0  0  0  0  0
  127.2530  129.6360   61.6700 C   0  0  0  0  0  0  0  0  0  0  0  0
  127.4920  131.0120   61.6630 C   0  0  0  0  0  0  0  0  0  0  0  0
  128.3220  131.5810   60.7010 C   0  0  0  0  0  0  0  0  0  0  0  0
  128.9190  130.7750   59.7350 C   0  0  0  0  0  0  0  0  0  0  0  0
  128.6860  129.4010   59.7360 C   0  0  0  0  0  0  0  0  0  0  0  0
  127.8610  128.8070   60.7050 C   0  0  0  0  0  0  0  0  0  0  0  0
  127.5990  127.2850   60.6690 C   0  0  1  0  0  0  0  0  0  0  0  0
  127.0760  126.8480   59.2920 C   0  0  0  0  0  0  0  0  0  0  0  0
  127.5430  127.2190   58.1200 N   0  0  0  0  0  0  0  0  0  0  0  0
  126.7390  126.5920   57.1740 N   0  0  0  0  0  0  0  0  0  0  0  0
  125.7600  125.8480   57.8010 N   0  0  0  0  0  0  0  0  0  0  0  0
  125.9730  126.0410   59.1070 N   0  0  0  0  0  0  0  0  0  0  0  0
  125.1410  125.3690   60.0980 C   0  0  0  0  0  0  0  0  0  0  0  0
  124.8780  123.9120   59.6750 C   0  0  0  0  0  0  0  0  0  0  0  0
  126.1200  123.2470   59.1000 C   0  0  0  0  0  0  0  0  0  0  0  0
  127.1920  122.9310   59.9380 C   0  0  0  0  0  0  0  0  0  0  0  0
  128.3320  122.3290   59.4100 C   0  0  0  0  0  0  0  0  0  0  0  0
  128.3940  122.0470   58.0470 C   0  0  0  0  0  0  0  0  0  0  0  0
  127.3290  122.3610   57.2070 C   0  0  0  0  0  0  0  0  0  0  0  0
  126.1890  122.9630   57.7340 C   0  0  0  0  0  0  0  0  0  0  0  0
  128.7580  126.4760   61.1160 N   0  0  0  0  0  0  0  0  0  0  0  0
  128.3010  125.2430   61.7830 C   0  0  0  0  0  0  0  0  0  0  0  0
  129.5000  124.3310   62.1320 C   0  0  0  0  0  0  0  0  0  0  0  0
  130.4200  125.0140   63.0570 N   0  0  0  0  0  0  0  0  0  0  0  0
  131.5420  124.1470   63.4840 C   0  0  1  0  0  0  0  0  0  0  0  0
  132.3570  123.5020   62.3420 C   0  0  0  0  0  0  0  0  0  0  0  0
  133.4480  124.2300   61.8450 C   0  0  0  0  0  0  0  0  0  0  0  0
  134.2500  123.7180   60.8260 C   0  0  0  0  0  0  0  0  0  0  0  0
  133.9690  122.4680   60.2820 C   0  0  0  0  0  0  0  0  0  0  0  0
  132.8810  121.7370   60.7500 C   0  0  0  0  0  0  0  0  0  0  0  0
  132.0680  122.2420   61.7680 C   0  0  0  0  0  0  0  0  0  0  0  0
  130.7000  121.2880   62.2330 Cl  0  0  0  0  0  0  0  0  0  0  0  0
  132.4820  124.8270   64.4820 C   0  0  0  0  0  0  0  0  0  0  0  0
  133.7750  124.6200   64.5740 N   0  0  0  0  0  0  0  0  0  0  0  0
  134.2250  125.4530   65.5930 N   0  0  0  0  0  0  0  0  0  0  0  0
  133.1720  126.1830   66.1060 N   0  0  0  0  0  0  0  0  0  0  0  0
  132.1100  125.7960   65.3900 N   0  0  0  0  0  0  0  0  0  0  0  0
  130.7930  126.3550   65.6770 C   0  0  0  0  0  0  0  0  0  0  0  0
  130.8960  127.4430   66.7610 C   0  0  0  0  0  0  0  0  0  0  0  0
  129.9810  127.1650   67.9430 C   0  0  0  0  0  0  0  0  0  0  0  0
  128.8230  126.4020   67.7650 C   0  0  0  0  0  0  0  0  0  0  0  0
  127.9890  126.1410   68.8490 C   0  0  0  0  0  0  0  0  0  0  0  0
  128.3150  126.6440   70.1070 C   0  0  0  0  0  0  0  0  0  0  0  0
  129.4680  127.4050   70.2910 C   0  0  0  0  0  0  0  0  0  0  0  0
  130.3030  127.6660   69.2080 C   0  0  0  0  0  0  0  0  0  0  0  0
  130.8780  126.2430   62.3840 C   0  0  0  0  0  0  0  0  0  0  0  0
  129.6760  127.1550   62.0470 C   0  0  0  0  0  0  0  0  0  0  0  0
  1  2  1  0
  2  3  2  0
  3  4  1  0
  4  5  2  0
  5  6  1  0
  6  7  2  0
  7  8  1  0
  8  9  1  0
  9 10  2  0
 10 11  1  0
 11 12  2  0
 12 13  1  0
 13 14  1  0
 14 15  1  0
 15 16  1  0
 16 17  2  0
 17 18  1  0
 18 19  2  0
 19 20  1  0
 20 21  2  0
  8 22  1  6
 22 23  1  0
 23 24  1  0
 24 25  1  0
 26 25  1  6
 26 27  1  0
 27 28  2  0
 28 29  1  0
 29 30  2  0
 30 31  1  0
 31 32  2  0
 32 33  1  0
 26 34  1  0
 34 35  2  0
 35 36  1  0
 36 37  2  0
 37 38  1  0
 38 39  1  0
 39 40  1  0
 40 41  1  0
 41 42  2  0
 42 43  1  0
 43 44  2  0
 44 45  1  0
 45 46  2  0
 25 47  1  0
 47 48  1  0
  7  2  1  0
 13  9  1  0
 21 16  1  0
 48 22  1  0
 32 27  1  0
 38 34  1  0
 46 41  1  0
M  END
>  <Binding energies>  (69) 
[-11.48]

>  <Ligand effiencies>  (69) 
[-0.23916666666666667]

>  <Interactions>  (69) 
["V-B:TYR:539:CE2:9845, V-A:HIS:456:CE1:4066, V-B:TYR:539:CG:9841, V-B:TYR:539:CD1:9842, V-B:TYR:539:CZ:9846, V-B:PRO:540:CA:9852, V-A:ARG:545:CZ:4923, V-B:TYR:539:CE1:9844, V-B:ALA:541:CB:9861, H-A:GLY:454:N:4046, V-B:TYR:539:C:9836, H-A:TYR:484:OH:4344, V-B:PRO:540:N:9853, V-B:PRO:540:CB:9854, V-B:TYR:539:CD2:9843, V-A:ASP:366:CG:3209, V-B:HIS:456:CD2:9036, V-A:GLU:543:CB:4903, V-B:GLU:543:CB:9875, V-B:GLU:543:CD:9877, V-B:HIS:456:CE1:9038, V-A:GLU:543:CD:4905, V-A:ILE:369:CB:3232, H-A:ARG:545:NH1:4924, V-A:LEU:475:CD1:4254, V-A:ILE:369:CG2:3233, V-A:ILE:369:CG1:3234, V-B:GLU:543:C:9871, H-A:ARG:545:NE:4921, H-B:TYR:531:OH:9764, V-B:ASP:366:CG:8181, V-A:ASP:366:CA:3206, H-A:HIS:456:ND1:4063"]

$$$$
RR14_Rahimova_2017
     RDKit          3D

 39 43  0  0  0  0  0  0  0  0999 V2000
  127.8720  122.7690   58.0970 C   0  0  0  0  0  0  0  0  0  0  0  0
  127.7500  121.9540   59.2570 O   0  0  0  0  0  0  0  0  0  0  0  0
  128.4000  122.3310   60.4160 C   0  0  0  0  0  0  0  0  0  0  0  0
  129.4200  121.4900   60.8610 C   0  0  0  0  0  0  0  0  0  0  0  0
  130.1150  121.7760   62.0320 C   0  0  0  0  0  0  0  0  0  0  0  0
  129.7890  122.9110   62.7770 C   0  0  0  0  0  0  0  0  0  0  0  0
  130.5020  123.1930   64.0940 C   0  0  0  0  0  0  0  0  0  0  0  0
  131.8090  123.8270   63.9210 N   0  0  0  0  0  0  0  0  0  0  0  0
  132.5920  123.4910   62.8890 N   0  0  0  0  0  0  0  0  0  0  0  0
  133.7350  124.2480   63.0540 N   0  0  0  0  0  0  0  0  0  0  0  0
  133.6280  125.0320   64.1990 N   0  0  0  0  0  0  0  0  0  0  0  0
  132.4530  124.7540   64.7120 C   0  0  0  0  0  0  0  0  0  0  0  0
  131.8920  125.3520   65.9950 C   0  0  0  0  0  0  0  0  0  0  0  0
  130.4760  125.7340   65.8650 N   0  0  0  0  0  0  0  0  0  0  0  0
  129.5930  124.8270   66.6110 C   0  0  0  0  0  0  0  0  0  0  0  0
  129.4980  125.1630   68.1150 C   0  0  0  0  0  0  0  0  0  0  0  0
  128.3080  126.0780   68.4720 C   0  0  0  0  0  0  0  0  0  0  0  0
  128.5010  126.8190   69.7230 N   0  0  0  0  0  0  0  0  0  0  0  0
  129.8800  127.3140   69.8150 C   0  0  0  0  0  0  0  0  0  0  0  0
  130.1310  128.0560   71.1460 C   0  0  0  0  0  0  0  0  0  0  0  0
  129.7820  127.2200   72.2450 O   0  0  0  0  0  0  0  0  0  0  0  0
  128.4140  126.8330   72.2150 C   0  0  0  0  0  0  0  0  0  0  0  0
  128.1110  126.0530   70.9170 C   0  0  0  0  0  0  0  0  0  0  0  0
  130.2830  127.1220   66.3100 C   0  0  0  0  0  0  0  0  0  0  0  0
  129.1850  127.9080   65.5980 C   0  0  0  0  0  0  0  0  0  0  0  0
  128.9050  127.6910   64.2890 C   0  0  0  0  0  0  0  0  0  0  0  0
  127.8750  128.4650   63.5660 C   0  0  0  0  0  0  0  0  0  0  0  0
  127.5470  128.2530   62.2170 C   0  0  0  0  0  0  0  0  0  0  0  0
  128.2430  127.1850   61.3830 C   0  0  0  0  0  0  0  0  0  0  0  0
  126.5540  129.0400   61.6270 C   0  0  0  0  0  0  0  0  0  0  0  0
  125.8950  130.0230   62.3630 C   0  0  0  0  0  0  0  0  0  0  0  0
  126.2130  130.2400   63.7070 C   0  0  0  0  0  0  0  0  0  0  0  0
  125.4730  131.3210   64.4840 C   0  0  0  0  0  0  0  0  0  0  0  0
  127.2090  129.4560   64.3090 C   0  0  0  0  0  0  0  0  0  0  0  0
  127.5660  129.6410   65.6610 N   0  0  0  0  0  0  0  0  0  0  0  0
  128.5020  128.9560   66.3640 C   0  0  0  0  0  0  0  0  0  0  0  0
  128.7240  129.2330   67.5420 O   0  0  0  0  0  0  0  0  0  0  0  0
  128.7900  123.7760   62.3250 C   0  0  0  0  0  0  0  0  0  0  0  0
  128.0960  123.4870   61.1540 C   0  0  0  0  0  0  0  0  0  0  0  0
  1  2  1  0
  2  3  1  0
  3  4  2  0
  4  5  1  0
  5  6  2  0
  6  7  1  0
  7  8  1  0
  8  9  1  0
  9 10  2  0
 10 11  1  0
 11 12  2  0
 12 13  1  0
 13 14  1  0
 14 15  1  0
 15 16  1  0
 16 17  1  0
 17 18  1  0
 18 19  1  0
 19 20  1  0
 20 21  1  0
 21 22  1  0
 22 23  1  0
 14 24  1  0
 24 25  1  0
 25 26  2  0
 26 27  1  0
 27 28  2  0
 28 29  1  0
 28 30  1  0
 30 31  2  0
 31 32  1  0
 32 33  1  0
 32 34  2  0
 34 35  1  0
 35 36  1  0
 36 37  2  0
  6 38  1  0
 38 39  2  0
 39  3  1  0
 12  8  1  0
 23 18  1  0
 36 25  1  0
 34 27  1  0
M  END
>  <Binding energies>  (70) 
[-9.39]

>  <Ligand effiencies>  (70) 
[-0.23475000000000001]

>  <Interactions>  (70) 
["V-B:TYR:539:CE2:9845, V-A:HIS:456:CE1:4066, V-B:PRO:540:CA:9852, V-B:ALA:541:CB:9861, H-A:GLY:454:N:4046, H-A:TYR:484:OH:4344, V-B:TYR:539:CD2:9843, V-A:TYR:484:CE1:4341, V-B:HIS:456:CD2:9036, V-A:GLU:543:CB:4903, H-A:LYS:547:NZ:4948, V-B:GLY:544:C:9881, V-B:LYS:547:CE:9919, V-B:GLU:543:CB:9875, V-B:GLU:543:CD:9877, V-B:HIS:456:CE1:9038, V-A:TYR:484:CZ:4343, V-B:GLU:543:CG:9876, V-A:GLY:544:C:4909, V-A:GLU:543:CD:4905, H-A:ARG:545:NH2:4925, H-A:ARG:545:NH1:4924, V-A:LEU:475:CD1:4254, H-B:TYR:484:OH:9316, V-A:GLU:543:CG:4904, V-A:HIS:456:CD2:4064, V-B:GLU:543:C:9871, H-A:ARG:545:NE:4921, V-B:ASP:366:CG:8181, V-B:GLU:543:CA:9873, H-B:HIS:456:NE2:9039"]

$$$$
RR15_Rahimova_2017
     RDKit          3D

 45 49  0  0  0  0  0  0  0  0999 V2000
  127.0630  128.0770   74.1960 C   0  0  0  0  0  0  0  0  0  0  0  0
  128.2240  127.3400   73.8270 O   0  0  0  0  0  0  0  0  0  0  0  0
  128.5370  127.1880   72.4870 C   0  0  0  0  0  0  0  0  0  0  0  0
  128.0260  126.1590   71.6810 C   0  0  0  0  0  0  0  0  0  0  0  0
  128.3840  126.0620   70.3380 C   0  0  0  0  0  0  0  0  0  0  0  0
  129.2620  126.9860   69.7630 C   0  0  0  0  0  0  0  0  0  0  0  0
  129.6540  126.8780   68.3150 C   0  0  0  0  0  0  0  0  0  0  0  0
  130.7590  127.4230   67.8250 N   0  0  0  0  0  0  0  0  0  0  0  0
  130.7680  127.1210   66.4790 N   0  0  0  0  0  0  0  0  0  0  0  0
  129.6710  126.3810   66.3150 N   0  0  0  0  0  0  0  0  0  0  0  0
  129.2000  125.9760   64.9910 C   0  0  0  0  0  0  0  0  0  0  0  0
  128.9650  127.1440   64.0000 C   0  0  0  0  0  0  0  0  0  0  0  0
  128.6040  128.2310   64.4560 O   0  0  0  0  0  0  0  0  0  0  0  0
  129.1910  126.9540   62.6640 N   0  0  0  0  0  0  0  0  0  0  0  0
  128.0950  126.5870   61.7450 C   0  0  0  0  0  0  0  0  0  0  0  0
  126.8560  127.5000   61.8660 C   0  0  0  0  0  0  0  0  0  0  0  0
  127.1670  129.0150   61.9040 C   0  0  0  0  0  0  0  0  0  0  0  0
  126.3630  129.7590   62.8790 N   0  0  0  0  0  0  0  0  0  0  0  0
  125.3020  130.5730   62.2670 C   0  0  0  0  0  0  0  0  0  0  0  0
  124.4330  131.2660   63.3390 C   0  0  0  0  0  0  0  0  0  0  0  0
  123.9150  130.3020   64.2500 O   0  0  0  0  0  0  0  0  0  0  0  0
  124.9430  129.5830   64.9210 C   0  0  0  0  0  0  0  0  0  0  0  0
  125.8250  128.8410   63.8930 C   0  0  0  0  0  0  0  0  0  0  0  0
  130.4870  127.2820   61.9940 C   0  0  2  0  0  0  0  0  0  0  0  0
  130.3290  128.0560   60.6480 C   0  0  0  0  0  0  0  0  0  0  0  0
  130.0690  127.4630   59.6010 O   0  0  0  0  0  0  0  0  0  0  0  0
  130.4550  129.3920   60.7270 N   0  0  0  0  0  0  0  0  0  0  0  0
  130.2490  130.3260   59.6260 C   0  0  0  0  0  0  0  0  0  0  0  0
  131.2470  131.4970   59.6940 C   0  0  2  0  0  0  0  0  0  0  0  0
  132.6530  131.1980   59.1460 C   0  0  0  0  0  0  0  0  0  0  0  0
  133.4970  130.9640   60.3760 C   0  0  0  0  0  0  0  0  0  0  0  0
  132.8500  131.9150   61.3680 C   0  0  0  0  0  0  0  0  0  0  0  0
  131.4640  131.7550   61.0880 O   0  0  0  0  0  0  0  0  0  0  0  0
  131.4190  126.0760   62.0050 C   0  0  0  0  0  0  0  0  0  0  0  0
  132.0670  125.7540   63.2040 C   0  0  0  0  0  0  0  0  0  0  0  0
  132.9290  124.6640   63.2730 C   0  0  0  0  0  0  0  0  0  0  0  0
  133.1500  123.8850   62.1410 C   0  0  0  0  0  0  0  0  0  0  0  0
  133.9870  122.8250   62.2080 F   0  0  0  0  0  0  0  0  0  0  0  0
  132.5130  124.1880   60.9410 C   0  0  0  0  0  0  0  0  0  0  0  0
  131.6510  125.2790   60.8720 C   0  0  0  0  0  0  0  0  0  0  0  0
  128.9270  126.2380   67.4180 N   0  0  0  0  0  0  0  0  0  0  0  0
  129.7690  128.0140   70.5700 C   0  0  0  0  0  0  0  0  0  0  0  0
  129.4150  128.1270   71.9250 C   0  0  0  0  0  0  0  0  0  0  0  0
  129.8860  129.1250   72.7600 O   0  0  0  0  0  0  0  0  0  0  0  0
  129.5070  130.4770   72.5240 C   0  0  0  0  0  0  0  0  0  0  0  0
  1  2  1  0
  2  3  1  0
  3  4  2  0
  4  5  1  0
  5  6  2  0
  6  7  1  0
  7  8  1  0
  8  9  2  0
  9 10  1  0
 10 11  1  0
 11 12  1  0
 12 13  2  0
 12 14  1  0
 14 15  1  0
 15 16  1  0
 16 17  1  0
 17 18  1  0
 18 19  1  0
 19 20  1  0
 20 21  1  0
 21 22  1  0
 22 23  1  0
 24 14  1  6
 24 25  1  0
 25 26  2  0
 25 27  1  0
 27 28  1  0
 29 28  1  1
 29 30  1  0
 30 31  1  0
 31 32  1  0
 32 33  1  0
 24 34  1  0
 34 35  2  0
 35 36  1  0
 36 37  2  0
 37 38  1  0
 37 39  1  0
 39 40  2  0
 10 41  1  0
  6 42  1  0
 42 43  2  0
 43 44  1  0
 44 45  1  0
 43  3  1  0
 41  7  2  0
 23 18  1  0
 33 29  1  0
 40 34  1  0
M  END
>  <Binding energies>  (71) 
[-9.7]

>  <Ligand effiencies>  (71) 
[-0.21086956521739128]

>  <Interactions>  (71) 
["V-A:HIS:456:CE1:4066, V-A:GLY:453:C:4038, V-A:ARG:545:CZ:4923, V-A:GLY:454:CA:4045, V-A:ASP:366:CG:3209, V-B:HIS:456:CD2:9036, V-A:LYS:547:CE:4947, H-A:LYS:547:NZ:4948, V-B:GLY:544:C:9881, V-B:LYS:547:CE:9919, V-B:GLU:543:CB:9875, V-B:GLU:543:CD:9877, V-A:GLU:543:C:4899, V-B:GLU:543:CG:9876, V-A:GLU:543:CD:4905, H-A:GLU:543:OE2:4907, H-B:GLY:454:N:9018, H-A:GLU:543:OE1:4906, V-B:ARG:545:CZ:9895, H-A:ASP:366:OD1:3210, V-B:GLU:543:C:9871, H-A:ALA:541:N:4888, V-B:ASP:366:CG:8181, V-A:PRO:540:C:4878, V-A:ASN:362:C:3168, V-A:PRO:540:CA:4880, V-A:PRO:540:CB:4882, V-A:ASN:362:CB:3172, V-A:LEU:363:CA:3181, V-A:ASN:362:CA:3170, V-B:GLY:454:CA:9017, V-A:GLY:544:CA:4911"]

$$$$
RR17_Rahimova_2017
     RDKit          3D

 38 41  0  0  0  0  0  0  0  0999 V2000
  129.7170  132.0560   59.1910 C   0  0  0  0  0  0  0  0  0  0  0  0
  129.8150  132.0060   60.7190 C   0  0  0  0  0  0  0  0  0  0  0  0
  128.7490  132.7740   61.2710 O   0  0  0  0  0  0  0  0  0  0  0  0
  127.8890  132.1850   62.1800 C   0  0  0  0  0  0  0  0  0  0  0  0
  127.6330  130.8270   62.0040 C   0  0  0  0  0  0  0  0  0  0  0  0
  126.7790  130.1490   62.8690 C   0  0  0  0  0  0  0  0  0  0  0  0
  126.1610  130.8200   63.9330 C   0  0  0  0  0  0  0  0  0  0  0  0
  125.2460  130.0620   64.8500 C   0  0  0  0  0  0  0  0  0  0  0  0
  124.0190  130.1950   64.8180 O   0  0  0  0  0  0  0  0  0  0  0  0
  125.9070  129.1030   65.8660 C   0  0  0  0  0  0  0  0  0  0  0  0
  127.6510  129.5450   66.1950 S   0  0  0  0  0  0  0  0  0  0  0  0
  128.4480  128.0580   65.6600 C   0  0  0  0  0  0  0  0  0  0  0  0
  128.4830  127.6160   64.4250 N   0  0  0  0  0  0  0  0  0  0  0  0
  129.2070  126.4300   64.4170 N   0  0  0  0  0  0  0  0  0  0  0  0
  129.5860  126.2020   65.6490 C   0  0  0  0  0  0  0  0  0  0  0  0
  130.4180  125.0060   66.0890 C   0  0  0  0  0  0  0  0  0  0  0  0
  130.4550  123.9210   65.1110 N   0  0  0  0  0  0  0  0  0  0  0  0
  131.4470  123.7960   64.1220 C   0  0  0  0  0  0  0  0  0  0  0  0
  131.4550  122.6240   63.3650 C   0  0  0  0  0  0  0  0  0  0  0  0
  132.4130  122.4340   62.3730 C   0  0  0  0  0  0  0  0  0  0  0  0
  133.3740  123.4170   62.1230 C   0  0  0  0  0  0  0  0  0  0  0  0
  134.4220  123.1900   61.0340 C   0  0  0  0  0  0  0  0  0  0  0  0
  135.5860  123.7750   61.3230 F   0  0  0  0  0  0  0  0  0  0  0  0
  134.6470  121.8850   60.8710 F   0  0  0  0  0  0  0  0  0  0  0  0
  133.9740  123.6930   59.8840 F   0  0  0  0  0  0  0  0  0  0  0  0
  133.3620  124.5970   62.8750 C   0  0  0  0  0  0  0  0  0  0  0  0
  132.4040  124.7870   63.8660 C   0  0  0  0  0  0  0  0  0  0  0  0
  129.1270  127.1920   66.4930 N   0  0  0  0  0  0  0  0  0  0  0  0
  129.3330  127.3070   67.8760 C   0  0  0  0  0  0  0  0  0  0  0  0
  130.5090  127.8890   68.3500 C   0  0  0  0  0  0  0  0  0  0  0  0
  130.7150  128.0000   69.7220 C   0  0  0  0  0  0  0  0  0  0  0  0
  129.7460  127.5280   70.6240 C   0  0  0  0  0  0  0  0  0  0  0  0
  129.8650  127.5960   71.9990 O   0  0  0  0  0  0  0  0  0  0  0  0
  128.8430  127.0290   72.8130 C   0  0  0  0  0  0  0  0  0  0  0  0
  128.5760  126.9460   70.1310 C   0  0  0  0  0  0  0  0  0  0  0  0
  128.3640  126.8330   68.7600 C   0  0  0  0  0  0  0  0  0  0  0  0
  126.4200  132.1870   64.1100 C   0  0  0  0  0  0  0  0  0  0  0  0
  127.2760  132.8640   63.2430 C   0  0  0  0  0  0  0  0  0  0  0  0
  1  2  1  0
  2  3  1  0
  3  4  1  0
  4  5  2  0
  5  6  1  0
  6  7  2  0
  7  8  1  0
  8  9  2  0
  8 10  1  0
 10 11  1  0
 11 12  1  0
 12 13  2  0
 13 14  1  0
 14 15  2  0
 15 16  1  0
 16 17  1  0
 17 18  1  0
 18 19  2  0
 19 20  1  0
 20 21  2  0
 21 22  1  0
 22 23  1  0
 22 24  1  0
 22 25  1  0
 21 26  1  0
 26 27  2  0
 15 28  1  0
 28 29  1  0
 29 30  2  0
 30 31  1  0
 31 32  2  0
 32 33  1  0
 33 34  1  0
 32 35  1  0
 35 36  2  0
  7 37  1  0
 37 38  2  0
 38  4  1  0
 28 12  1  0
 36 29  1  0
 27 18  1  0
M  END
>  <Binding energies>  (72) 
[-8.35]

>  <Ligand effiencies>  (72) 
[-0.2141025641025641]

>  <Interactions>  (72) 
["V-A:HIS:456:CE1:4066, V-A:GLY:453:C:4038, V-A:ARG:545:CZ:4923, V-A:GLY:453:CA:4040, H-A:TYR:484:OH:4344, V-A:GLY:454:CA:4045, V-A:ASP:366:CG:3209, V-A:TYR:484:CE1:4341, V-B:HIS:456:CD2:9036, V-A:GLU:543:CB:4903, H-A:LYS:547:NZ:4948, V-B:LYS:547:CE:9919, V-B:GLU:543:CD:9877, V-A:GLU:543:C:4899, V-B:HIS:456:CE1:9038, V-A:TYR:484:CZ:4343, V-B:GLU:543:CG:9876, V-A:GLY:544:C:4909, V-A:GLU:543:CD:4905, V-A:ILE:369:CB:3232, V-A:LEU:475:CD1:4254, V-A:ILE:369:CG2:3233, V-A:ILE:369:CG1:3234, H-B:GLY:454:N:9018, H-B:TYR:484:OH:9316, V-A:ASP:366:CB:3208, H-A:ALA:541:N:4888, V-A:PRO:540:N:4881, V-A:PRO:540:CA:4880, V-A:TYR:539:C:4864, V-A:ALA:541:CB:4889, V-B:LEU:475:CD2:9227, V-A:ASP:366:CA:3206, V-A:ILE:369:CD1:3235"]

$$$$
RR19_Rahimova_2017
     RDKit          3D

 46 51  0  0  0  0  0  0  0  0999 V2000
  129.5360  121.0080   61.5220 O   0  0  0  0  0  0  0  0  0  0  0  0
  129.4860  122.2300   61.3580 C   0  0  0  0  0  0  0  0  0  0  0  0
  129.5620  123.1700   62.3350 N   0  0  0  0  0  0  0  0  0  0  0  0
  129.9130  123.1140   63.6620 C   0  0  0  0  0  0  0  0  0  0  0  0
  130.6250  121.7880   64.4380 S   0  0  0  0  0  0  0  0  0  0  0  0
  129.5930  124.3110   64.2520 N   0  0  0  0  0  0  0  0  0  0  0  0
  129.8470  124.8350   65.4780 C   0  0  0  0  0  0  0  0  0  0  0  0
  130.6230  124.3800   66.3210 O   0  0  0  0  0  0  0  0  0  0  0  0
  129.0340  126.1150   65.7950 C   0  0  2  0  0  0  0  0  0  0  0  0
  129.2620  127.2950   64.8060 C   0  0  0  0  0  0  0  0  0  0  0  0
  128.1250  128.3010   64.7250 C   0  0  0  0  0  0  0  0  0  0  0  0
  127.1610  128.2240   63.6970 C   0  0  0  0  0  0  0  0  0  0  0  0
  126.0860  129.1020   63.6850 C   0  0  0  0  0  0  0  0  0  0  0  0
  125.9430  130.0490   64.6920 C   0  0  0  0  0  0  0  0  0  0  0  0
  126.8680  130.1170   65.7270 C   0  0  0  0  0  0  0  0  0  0  0  0
  127.9490  129.2460   65.7590 C   0  0  0  0  0  0  0  0  0  0  0  0
  129.2270  126.5420   67.2080 N   0  0  0  0  0  0  0  0  0  0  0  0
  130.4090  127.0710   67.6340 C   0  0  0  0  0  0  0  0  0  0  0  0
  131.4350  127.2370   66.9710 O   0  0  0  0  0  0  0  0  0  0  0  0
  130.2000  127.4080   69.0630 C   0  0  0  0  0  0  0  0  0  0  0  0
  131.0630  127.9700   70.0060 C   0  0  0  0  0  0  0  0  0  0  0  0
  130.5870  128.1880   71.3040 C   0  0  0  0  0  0  0  0  0  0  0  0
  129.2690  127.8480   71.6390 C   0  0  0  0  0  0  0  0  0  0  0  0
  128.4190  127.2870   70.6780 C   0  0  0  0  0  0  0  0  0  0  0  0
  128.9140  127.0760   69.3910 C   0  0  0  0  0  0  0  0  0  0  0  0
  128.2650  126.5180   68.1790 C   0  0  0  0  0  0  0  0  0  0  0  0
  127.1020  126.1260   68.0720 O   0  0  0  0  0  0  0  0  0  0  0  0
  129.3070  122.8040   59.9270 C   0  0  2  0  0  0  0  0  0  0  0  0
  130.3740  123.8670   59.5360 C   0  0  0  0  0  0  0  0  0  0  0  0
  131.4840  124.0310   60.5580 C   0  0  0  0  0  0  0  0  0  0  0  0
  132.5940  123.1580   60.5430 C   0  0  0  0  0  0  0  0  0  0  0  0
  133.6560  123.3720   61.4120 C   0  0  0  0  0  0  0  0  0  0  0  0
  133.6450  124.4570   62.2780 C   0  0  0  0  0  0  0  0  0  0  0  0
  132.5780  125.3470   62.2770 C   0  0  0  0  0  0  0  0  0  0  0  0
  131.5050  125.1500   61.4160 C   0  0  0  0  0  0  0  0  0  0  0  0
  127.9240  123.2920   59.6550 N   0  0  0  0  0  0  0  0  0  0  0  0
  127.3240  124.2230   60.4470 C   0  0  0  0  0  0  0  0  0  0  0  0
  127.7890  124.7580   61.4540 O   0  0  0  0  0  0  0  0  0  0  0  0
  125.9900  124.4560   59.8380 C   0  0  0  0  0  0  0  0  0  0  0  0
  124.9440  125.2980   60.2220 C   0  0  0  0  0  0  0  0  0  0  0  0
  123.7810  125.3170   59.4440 C   0  0  0  0  0  0  0  0  0  0  0  0
  123.6790  124.5070   58.3060 C   0  0  0  0  0  0  0  0  0  0  0  0
  124.7400  123.6720   57.9360 C   0  0  0  0  0  0  0  0  0  0  0  0
  125.8910  123.6660   58.7270 C   0  0  0  0  0  0  0  0  0  0  0  0
  127.1570  122.9050   58.5930 C   0  0  0  0  0  0  0  0  0  0  0  0
  127.4530  122.0980   57.7110 O   0  0  0  0  0  0  0  0  0  0  0  0
  1  2  2  0
  2  3  1  0
  3  4  1  0
  4  5  2  0
  4  6  1  0
  6  7  1  0
  7  8  2  0
  7  9  1  0
  9 10  1  6
 10 11  1  0
 11 12  2  0
 12 13  1  0
 13 14  2  0
 14 15  1  0
 15 16  2  0
  9 17  1  0
 17 18  1  0
 18 19  2  0
 18 20  1  0
 20 21  2  0
 21 22  1  0
 22 23  2  0
 23 24  1  0
 24 25  2  0
 25 26  1  0
 26 27  2  0
  2 28  1  0
 28 29  1  1
 29 30  1  0
 30 31  2  0
 31 32  1  0
 32 33  2  0
 33 34  1  0
 34 35  2  0
 28 36  1  0
 36 37  1  0
 37 38  2  0
 37 39  1  0
 39 40  2  0
 40 41  1  0
 41 42  2  0
 42 43  1  0
 43 44  2  0
 44 45  1  0
 45 46  2  0
 16 11  1  0
 26 17  1  0
 35 30  1  0
 45 36  1  0
 25 20  1  0
 44 39  1  0
M  END
>  <Binding energies>  (73) 
[-11.08]

>  <Ligand effiencies>  (73) 
[-0.23083333333333333]

>  <Interactions>  (73) 
["V-B:TYR:539:CE2:9845, V-A:HIS:456:CE1:4066, V-B:TYR:539:CZ:9846, V-B:PRO:540:CA:9852, V-A:ARG:545:CZ:4923, V-B:ALA:541:CB:9861, V-B:ASN:362:C:8140, H-A:TYR:484:OH:4344, V-B:PRO:540:N:9853, V-B:PRO:540:CB:9854, V-B:TYR:539:CD2:9843, V-A:ASP:366:CG:3209, H-B:GLU:543:OE2:9879, V-A:TYR:484:CE1:4341, V-B:HIS:456:CD2:9036, V-A:GLU:543:CB:4903, V-B:GLU:543:CB:9875, V-B:GLU:543:CD:9877, V-A:GLU:543:C:4899, V-B:HIS:456:CE1:9038, V-A:TYR:484:CZ:4343, V-B:GLU:543:CG:9876, V-A:GLY:544:C:4909, V-A:GLU:543:CD:4905, V-B:LEU:363:CA:8153, V-A:LEU:475:CD1:4254, V-B:ARG:545:CZ:9895, V-A:GLU:543:CG:4904, H-B:TYR:539:N:9839, V-A:LEU:475:CD2:4255, V-A:HIS:456:CD2:4064, H-B:GLU:543:OE1:9878, V-B:LEU:363:CD1:8157, V-B:LEU:363:CB:8155, V-B:ASP:366:CG:8181, V-B:ASP:366:CB:8180, V-B:TYR:484:CZ:9315, V-A:LEU:475:CG:4253, V-A:GLY:544:CA:4911"]

$$$$
RR1_Rahimova_2017
     RDKit          3D

 41 44  0  0  0  0  0  0  0  0999 V2000
  124.0080  131.3070   57.2360 C   0  0  0  0  0  0  0  0  0  0  0  0
  123.8460  132.0130   58.4610 O   0  0  0  0  0  0  0  0  0  0  0  0
  124.4440  131.5240   59.6060 C   0  0  0  0  0  0  0  0  0  0  0  0
  125.6540  130.8110   59.6240 C   0  0  0  0  0  0  0  0  0  0  0  0
  126.1780  130.3490   60.8280 C   0  0  0  0  0  0  0  0  0  0  0  0
  125.5110  130.5950   62.0290 C   0  0  0  0  0  0  0  0  0  0  0  0
  126.0970  130.0480   63.1870 N   0  0  0  0  0  0  0  0  0  0  0  0
  125.5420  129.8070   64.3940 C   0  0  0  0  0  0  0  0  0  0  0  0
  124.3900  130.1060   64.7090 O   0  0  0  0  0  0  0  0  0  0  0  0
  126.4740  129.1110   65.3980 C   0  0  0  0  0  0  0  0  0  0  0  0
  128.1830  128.8290   64.8170 S   0  0  0  0  0  0  0  0  0  0  0  0
  128.7800  127.9690   66.2340 C   0  0  0  0  0  0  0  0  0  0  0  0
  128.3090  128.1280   67.4450 N   0  0  0  0  0  0  0  0  0  0  0  0
  129.0300  127.2890   68.1800 C   0  0  0  0  0  0  0  0  0  0  0  0
  128.8170  127.1280   69.6580 C   0  0  0  0  0  0  0  0  0  0  0  0
  129.5690  127.8580   70.5920 C   0  0  0  0  0  0  0  0  0  0  0  0
  129.3510  127.6840   71.9610 C   0  0  0  0  0  0  0  0  0  0  0  0
  128.3750  126.7760   72.3680 C   0  0  0  0  0  0  0  0  0  0  0  0
  127.6300  126.0540   71.4930 N   0  0  0  0  0  0  0  0  0  0  0  0
  127.8570  126.2380   70.1670 C   0  0  0  0  0  0  0  0  0  0  0  0
  129.9450  126.6020   67.5210 N   0  0  0  0  0  0  0  0  0  0  0  0
  129.7870  127.0390   66.2680 N   0  0  0  0  0  0  0  0  0  0  0  0
  130.6090  126.5010   65.1840 C   0  0  0  0  0  0  0  0  0  0  0  0
  129.8210  125.9210   63.9960 C   0  0  0  0  0  0  0  0  0  0  0  0
  129.4590  124.7400   63.9940 O   0  0  0  0  0  0  0  0  0  0  0  0
  129.5780  126.7910   62.9970 N   0  0  0  0  0  0  0  0  0  0  0  0
  128.7480  126.3820   61.9620 N   0  0  0  0  0  0  0  0  0  0  0  0
  127.9550  127.3110   61.3850 C   0  0  0  0  0  0  0  0  0  0  0  0
  127.9970  128.5180   61.6500 O   0  0  0  0  0  0  0  0  0  0  0  0
  126.9930  126.7920   60.3370 C   0  0  0  0  0  0  0  0  0  0  0  0
  126.9210  127.4140   59.0850 C   0  0  0  0  0  0  0  0  0  0  0  0
  126.0360  126.9610   58.1120 C   0  0  0  0  0  0  0  0  0  0  0  0
  125.1860  125.8730   58.3650 C   0  0  0  0  0  0  0  0  0  0  0  0
  124.2750  125.3820   57.4470 O   0  0  0  0  0  0  0  0  0  0  0  0
  124.6340  124.2800   56.6220 C   0  0  0  0  0  0  0  0  0  0  0  0
  125.2370  125.2410   59.6150 C   0  0  0  0  0  0  0  0  0  0  0  0
  124.3650  124.1850   59.8210 O   0  0  0  0  0  0  0  0  0  0  0  0
  124.2170  123.6390   61.1270 C   0  0  0  0  0  0  0  0  0  0  0  0
  126.1420  125.7040   60.5880 C   0  0  0  0  0  0  0  0  0  0  0  0
  124.3020  131.3080   62.0150 C   0  0  0  0  0  0  0  0  0  0  0  0
  123.7820  131.7690   60.8090 C   0  0  0  0  0  0  0  0  0  0  0  0
  1  2  1  0
  2  3  1  0
  3  4  2  0
  4  5  1  0
  5  6  2  0
  6  7  1  0
  7  8  1  0
  8  9  2  0
  8 10  1  0
 10 11  1  0
 11 12  1  0
 12 13  2  0
 13 14  1  0
 14 15  1  0
 15 16  2  0
 16 17  1  0
 17 18  2  0
 18 19  1  0
 19 20  2  0
 14 21  2  0
 21 22  1  0
 22 23  1  0
 23 24  1  0
 24 25  2  0
 24 26  1  0
 26 27  1  0
 27 28  1  0
 28 29  2  0
 28 30  1  0
 30 31  2  0
 31 32  1  0
 32 33  2  0
 33 34  1  0
 34 35  1  0
 33 36  1  0
 36 37  1  0
 37 38  1  0
 36 39  2  0
  6 40  1  0
 40 41  2  0
 41  3  1  0
 22 12  1  0
 39 30  1  0
 20 15  1  0
M  END
>  <Binding energies>  (74) 
[-7.56]

>  <Ligand effiencies>  (74) 
[-0.17181818181818181]

>  <Interactions>  (74) 
["V-B:ASN:362:CB:8144, V-B:ASN:362:C:8140, V-B:PRO:540:CB:9854, H-B:GLU:543:OE2:9879, V-B:HIS:456:CD2:9036, V-A:GLU:543:CB:4903, V-B:GLY:544:C:9881, V-B:LYS:547:CE:9919, V-B:GLU:543:CD:9877, V-B:HIS:456:CE1:9038, V-A:GLU:543:CD:4905, H-A:GLU:543:OE2:4907, H-B:GLY:454:N:9018, H-A:GLU:543:OE1:4906, H-B:TYR:484:OH:9316, V-B:GLU:543:C:9871, V-B:LEU:363:CD1:8157, V-B:TYR:531:CE2:9762, H-B:TYR:531:OH:9764, V-B:ASP:366:CG:8181, V-B:ASP:366:CB:8180, V-A:TYR:539:CE2:4873, V-B:ASP:366:CA:8178, V-B:ILE:369:CD1:8207, V-A:TYR:539:CZ:4874, V-B:ASP:366:C:8176, V-B:ILE:369:CG2:8205, V-B:ILE:369:CB:8204"]

$$$$
RR22_Rahimova_2017
     RDKit          3D

 31 36  0  0  0  0  0  0  0  0999 V2000
  129.9100  129.5680   60.4850 O   0  0  0  0  0  0  0  0  0  0  0  0
  129.7790  128.3760   60.7500 C   0  0  0  0  0  0  0  0  0  0  0  0
  130.7770  127.4570   61.0240 N   0  0  0  0  0  0  0  0  0  0  0  0
  130.4490  126.1090   61.3760 C   0  0  1  0  0  0  0  0  0  0  0  0
  131.1540  125.2940   60.4340 O   0  0  0  0  0  0  0  0  0  0  0  0
  132.0850  124.3750   60.9200 C   0  0  0  0  0  0  0  0  0  0  0  0
  133.0020  123.8720   59.9970 C   0  0  0  0  0  0  0  0  0  0  0  0
  133.9380  122.9190   60.3990 C   0  0  0  0  0  0  0  0  0  0  0  0
  133.9500  122.4640   61.7180 C   0  0  0  0  0  0  0  0  0  0  0  0
  133.0310  122.9660   62.6410 C   0  0  0  0  0  0  0  0  0  0  0  0
  132.1030  123.9400   62.2590 C   0  0  0  0  0  0  0  0  0  0  0  0
  131.0410  124.5150   63.1690 C   0  0  1  0  0  0  0  0  0  0  0  0
  131.2530  124.6880   64.6600 C   0  0  0  0  0  0  0  0  0  0  0  0
  130.3580  125.9050   64.9110 C   0  0  0  0  0  0  0  0  0  0  0  0
  129.8810  126.2800   66.2570 C   0  0  0  0  0  0  0  0  0  0  0  0
  129.5190  125.2930   67.1860 C   0  0  0  0  0  0  0  0  0  0  0  0
  129.0700  125.6520   68.4540 C   0  0  0  0  0  0  0  0  0  0  0  0
  128.9810  126.9970   68.8020 C   0  0  0  0  0  0  0  0  0  0  0  0
  129.3370  127.9890   67.8910 C   0  0  0  0  0  0  0  0  0  0  0  0
  129.7870  127.6320   66.6230 C   0  0  0  0  0  0  0  0  0  0  0  0
  130.1190  126.5360   63.8230 N   0  0  0  0  0  0  0  0  0  0  0  0
  130.7940  125.8720   62.7850 N   0  0  0  0  0  0  0  0  0  0  0  0
  128.9640  125.9340   61.0930 C   0  0  0  0  0  0  0  0  0  0  0  0
  128.3730  124.7220   60.9790 C   0  0  0  0  0  0  0  0  0  0  0  0
  126.9520  124.4110   60.7290 C   0  0  0  0  0  0  0  0  0  0  0  0
  126.0710  125.3020   60.0990 C   0  0  0  0  0  0  0  0  0  0  0  0
  124.7390  124.9390   59.8970 C   0  0  0  0  0  0  0  0  0  0  0  0
  124.3170  123.6860   60.3390 C   0  0  0  0  0  0  0  0  0  0  0  0
  125.1430  122.8070   60.9580 N   0  0  0  0  0  0  0  0  0  0  0  0
  126.4360  123.1780   61.1450 C   0  0  0  0  0  0  0  0  0  0  0  0
  128.1860  127.5040   60.8460 S   0  0  0  0  0  0  0  0  0  0  0  0
  1  2  2  0
  2  3  1  0
  4  3  1  6
  4  5  1  0
  5  6  1  0
  6  7  2  0
  7  8  1  0
  8  9  2  0
  9 10  1  0
 10 11  2  0
 11 12  1  0
 12 13  1  1
 13 14  1  0
 14 15  1  0
 15 16  2  0
 16 17  1  0
 17 18  2  0
 18 19  1  0
 19 20  2  0
 14 21  2  0
 21 22  1  0
  4 23  1  0
 23 24  2  0
 24 25  1  0
 25 26  2  0
 26 27  1  0
 27 28  2  0
 28 29  1  0
 29 30  2  0
 23 31  1  0
 31  2  1  0
 22  4  1  0
 30 25  1  0
 11  6  1  0
 22 12  1  0
 20 15  1  0
M  END
>  <Binding energies>  (75) 
[-8.89]

>  <Ligand effiencies>  (75) 
[-0.2778125]

>  <Interactions>  (75) 
["V-B:PRO:540:C:9850, H-B:ALA:541:N:9860, V-B:TYR:539:CE2:9845, V-A:HIS:456:CE1:4066, V-B:TYR:539:CZ:9846, V-B:ASN:362:CB:8144, V-B:PRO:540:CA:9852, V-B:ALA:541:CB:9861, V-A:GLY:454:CA:4045, V-B:PRO:540:CB:9854, V-A:ASP:366:CG:3209, V-A:TYR:484:CE1:4341, V-A:GLU:543:CB:4903, V-B:GLU:543:CB:9875, V-B:GLU:543:CD:9877, V-B:HIS:456:CE1:9038, V-B:GLU:543:CG:9876, V-A:GLU:543:CD:4905, V-A:ILE:369:CB:3232, V-A:LEU:475:CD1:4254, H-A:ASP:366:OD2:3211, V-A:ILE:369:CG2:3233, V-A:ILE:369:CG1:3234, H-A:ASP:366:OD1:3210, V-A:ASP:366:CB:3208, V-B:GLU:543:C:9871, V-B:ALA:541:CA:9859, V-B:ASP:366:CG:8181"]

$$$$
RR24_Rahimova_2017
     RDKit          3D

 43 49  0  0  0  0  0  0  0  0999 V2000
  125.7010  122.8050   56.4280 C   0  0  0  0  0  0  0  0  0  0  0  0
  125.4730  123.6140   57.7120 C   0  0  2  0  0  0  0  0  0  0  0  0
  125.3280  125.1430   57.4570 C   0  0  0  0  0  0  0  0  0  0  0  0
  124.2690  125.7450   57.6630 O   0  0  0  0  0  0  0  0  0  0  0  0
  126.4740  125.7020   56.9680 O   0  0  0  0  0  0  0  0  0  0  0  0
  126.8790  126.9340   57.4290 C   0  0  0  0  0  0  0  0  0  0  0  0
  127.3300  127.0590   58.7450 C   0  0  0  0  0  0  0  0  0  0  0  0
  127.7510  128.2980   59.2190 C   0  0  0  0  0  0  0  0  0  0  0  0
  127.7320  129.4150   58.3780 C   0  0  0  0  0  0  0  0  0  0  0  0
  128.1790  130.7810   58.9120 C   0  0  1  0  0  0  0  0  0  0  0  0
  127.2830  131.2680   60.0750 C   0  0  0  0  0  0  0  0  0  0  0  0
  127.7810  131.6930   61.2500 C   0  0  0  0  0  0  0  0  0  0  0  0
  129.1300  131.7220   61.5050 N   0  0  0  0  0  0  0  0  0  0  0  0
  130.0450  131.3140   60.5630 C   0  0  0  0  0  0  0  0  0  0  0  0
  131.3370  131.4130   60.9680 N   0  0  0  0  0  0  0  0  0  0  0  0
  132.3760  130.9830   60.2010 C   0  0  0  0  0  0  0  0  0  0  0  0
  133.4760  130.7990   60.7250 O   0  0  0  0  0  0  0  0  0  0  0  0
  132.0170  130.6350   58.9080 N   0  0  0  0  0  0  0  0  0  0  0  0
  133.1210  130.2480   58.0050 C   0  0  0  0  0  0  0  0  0  0  0  0
  130.7390  130.5000   58.3930 C   0  0  0  0  0  0  0  0  0  0  0  0
  130.4920  130.1340   57.2400 O   0  0  0  0  0  0  0  0  0  0  0  0
  129.6750  130.8570   59.3380 C   0  0  0  0  0  0  0  0  0  0  0  0
  126.7130  132.0890   62.1530 C   0  0  0  0  0  0  0  0  0  0  0  0
  126.7050  132.5820   63.4580 C   0  0  0  0  0  0  0  0  0  0  0  0
  125.4820  132.8750   64.0680 C   0  0  0  0  0  0  0  0  0  0  0  0
  124.2840  132.6770   63.3750 C   0  0  0  0  0  0  0  0  0  0  0  0
  124.3000  132.1830   62.0680 C   0  0  0  0  0  0  0  0  0  0  0  0
  125.5240  131.8900   61.4640 C   0  0  0  0  0  0  0  0  0  0  0  0
  125.8280  131.3680   60.1150 C   0  0  0  0  0  0  0  0  0  0  0  0
  125.0660  131.0690   59.1970 O   0  0  0  0  0  0  0  0  0  0  0  0
  127.2970  129.2830   57.0550 C   0  0  0  0  0  0  0  0  0  0  0  0
  126.8780  128.0440   56.5800 C   0  0  0  0  0  0  0  0  0  0  0  0
  126.4920  123.3060   58.7580 N   0  0  0  0  0  0  0  0  0  0  0  0
  126.4890  123.9390   59.9650 C   0  0  0  0  0  0  0  0  0  0  0  0
  125.7060  124.8080   60.3520 O   0  0  0  0  0  0  0  0  0  0  0  0
  127.6300  123.3600   60.7180 C   0  0  0  0  0  0  0  0  0  0  0  0
  128.1070  123.6270   62.0020 C   0  0  0  0  0  0  0  0  0  0  0  0
  129.2200  122.9150   62.4630 C   0  0  0  0  0  0  0  0  0  0  0  0
  129.8330  121.9570   61.6470 C   0  0  0  0  0  0  0  0  0  0  0  0
  129.3400  121.7030   60.3630 C   0  0  0  0  0  0  0  0  0  0  0  0
  128.2300  122.4240   59.9200 C   0  0  0  0  0  0  0  0  0  0  0  0
  127.4890  122.3780   58.6350 C   0  0  0  0  0  0  0  0  0  0  0  0
  127.7220  121.6530   57.6660 O   0  0  0  0  0  0  0  0  0  0  0  0
  2  1  1  6
  2  3  1  0
  3  4  2  0
  3  5  1  0
  5  6  1  0
  6  7  2  0
  7  8  1  0
  8  9  2  0
 10  9  1  1
 10 11  1  0
 11 12  2  0
 12 13  1  0
 13 14  1  0
 14 15  1  0
 15 16  1  0
 16 17  2  0
 16 18  1  0
 18 19  1  0
 18 20  1  0
 20 21  2  0
 20 22  1  0
 12 23  1  0
 23 24  2  0
 24 25  1  0
 25 26  2  0
 26 27  1  0
 27 28  2  0
 28 29  1  0
 29 30  2  0
  9 31  1  0
 31 32  2  0
  2 33  1  0
 33 34  1  0
 34 35  2  0
 34 36  1  0
 36 37  2  0
 37 38  1  0
 38 39  2  0
 39 40  1  0
 40 41  2  0
 41 42  1  0
 42 43  2  0
 32  6  1  0
 42 33  1  0
 22 10  1  0
 28 23  1  0
 41 36  1  0
 29 11  1  0
 22 14  2  0
M  END
>  <Binding energies>  (76) 
[-10.55]

>  <Ligand effiencies>  (76) 
[-0.23444444444444446]

>  <Interactions>  (76) 
["V-B:TYR:539:CE2:9845, V-B:TYR:539:CZ:9846, V-B:PRO:540:CA:9852, V-B:ALA:541:CB:9861, V-B:TYR:539:C:9836, V-B:PRO:540:N:9853, V-B:PRO:540:CB:9854, V-B:TYR:539:CD2:9843, V-A:ASP:366:CG:3209, V-B:GLU:543:CD:9877, V-B:GLU:543:CG:9876, V-A:GLU:543:CD:4905, H-A:ARG:545:NH2:4925, H-A:GLU:543:OE2:4907, H-B:TYR:539:N:9839, V-B:PRO:540:CD:9856, V-A:ASP:366:CB:3208, V-B:MET:535:CE:9804, V-B:LEU:363:CD1:8157, V-B:TYR:531:CZ:9763, H-B:TYR:531:OH:9764, V-A:PRO:540:CA:4880, V-A:PRO:540:CB:4882, V-A:ALA:541:CB:4889, V-A:LEU:363:CA:3181, V-B:ILE:538:CB:9831, V-B:GLY:454:CA:9017, V-B:LEU:475:CD2:9227, V-B:ILE:369:CD1:8207, H-A:TYR:531:OH:4792, H-A:LEU:363:N:3182, H-A:ALA:541:O:4886"]

$$$$
RR25_Rahimova_2017
     RDKit          3D

 39 44  0  0  0  0  0  0  0  0999 V2000
  126.2890  129.7040   59.0330 O   0  0  0  0  0  0  0  0  0  0  0  0
  126.5220  128.5040   59.1870 C   0  0  0  0  0  0  0  0  0  0  0  0
  125.9720  127.6560   58.2570 O   0  0  0  0  0  0  0  0  0  0  0  0
  126.3580  126.3300   58.1720 C   0  0  0  0  0  0  0  0  0  0  0  0
  126.2050  125.7110   56.9330 C   0  0  0  0  0  0  0  0  0  0  0  0
  126.5660  124.3740   56.7780 C   0  0  0  0  0  0  0  0  0  0  0  0
  127.0790  123.6380   57.8570 C   0  0  0  0  0  0  0  0  0  0  0  0
  127.4700  122.2170   57.6870 N   0  0  0  0  0  0  0  0  0  0  0  0
  127.2290  121.6650   56.6160 O   0  0  0  0  0  0  0  0  0  0  0  0
  128.0200  121.6440   58.6230 O   0  0  0  0  0  0  0  0  0  0  0  0
  127.2130  124.2780   59.1000 C   0  0  0  0  0  0  0  0  0  0  0  0
  126.8490  125.6150   59.2740 C   0  0  0  0  0  0  0  0  0  0  0  0
  126.9850  126.3530   60.5930 C   0  0  0  0  0  0  0  0  0  0  0  0
  127.3500  127.8410   60.3260 C   0  0  2  0  0  0  0  0  0  0  0  0
  127.4010  128.6530   61.6530 C   0  0  0  0  0  0  0  0  0  0  0  0
  126.6560  129.6350   61.7170 O   0  0  0  0  0  0  0  0  0  0  0  0
  128.1280  128.2370   62.7330 N   0  0  0  0  0  0  0  0  0  0  0  0
  129.2490  127.2790   62.6230 C   0  0  0  0  0  0  0  0  0  0  0  0
  129.2480  126.3600   63.8620 C   0  0  0  0  0  0  0  0  0  0  0  0
  129.2830  127.1370   65.1050 N   0  0  0  0  0  0  0  0  0  0  0  0
  129.4160  126.2660   66.2800 C   0  0  0  0  0  0  0  0  0  0  0  0
  130.8170  125.6060   66.3870 C   0  0  0  0  0  0  0  0  0  0  0  0
  131.2330  124.7600   65.2300 N   0  0  0  0  0  0  0  0  0  0  0  0
  130.4050  123.6930   64.9540 C   0  0  0  0  0  0  0  0  0  0  0  0
  129.4040  123.4200   65.6280 O   0  0  0  0  0  0  0  0  0  0  0  0
  130.8050  122.8820   63.7370 C   0  0  0  0  0  0  0  0  0  0  0  0
  130.0170  121.7890   63.3490 C   0  0  0  0  0  0  0  0  0  0  0  0
  130.3510  121.0270   62.2310 C   0  0  0  0  0  0  0  0  0  0  0  0
  131.4750  121.3320   61.4650 C   0  0  0  0  0  0  0  0  0  0  0  0
  132.3010  122.4260   61.8190 C   0  0  0  0  0  0  0  0  0  0  0  0
  133.4550  122.7910   61.0860 C   0  0  0  0  0  0  0  0  0  0  0  0
  134.2220  123.8830   61.4870 C   0  0  0  0  0  0  0  0  0  0  0  0
  133.8710  124.6300   62.6100 C   0  0  0  0  0  0  0  0  0  0  0  0
  132.7380  124.3060   63.3660 C   0  0  0  0  0  0  0  0  0  0  0  0
  131.9510  123.1960   62.9630 C   0  0  0  0  0  0  0  0  0  0  0  0
  132.3850  125.1480   64.5770 C   0  0  0  0  0  0  0  0  0  0  0  0
  133.0730  126.1120   64.9280 O   0  0  0  0  0  0  0  0  0  0  0  0
  128.0950  127.9870   65.1940 C   0  0  0  0  0  0  0  0  0  0  0  0
  128.0130  128.9800   64.0090 C   0  0  0  0  0  0  0  0  0  0  0  0
  1  2  2  0
  2  3  1  0
  3  4  1  0
  4  5  2  0
  5  6  1  0
  6  7  2  0
  7  8  1  0
  8  9  2  0
  8 10  1  0
  7 11  1  0
 11 12  2  0
 12 13  1  0
 13 14  1  0
 14 15  1  1
 15 16  2  0
 15 17  1  0
 17 18  1  0
 18 19  1  0
 19 20  1  0
 20 21  1  0
 21 22  1  0
 22 23  1  0
 23 24  1  0
 24 25  2  0
 24 26  1  0
 26 27  2  0
 27 28  1  0
 28 29  2  0
 29 30  1  0
 30 31  2  0
 31 32  1  0
 32 33  2  0
 33 34  1  0
 34 35  2  0
 34 36  1  0
 36 37  2  0
 20 38  1  0
 38 39  1  0
 14  2  1  0
 39 17  1  0
 12  4  1  0
 36 23  1  0
 35 26  1  0
 35 30  1  0
M  CHG  2   8   1  10  -1
M  END
>  <Binding energies>  (77) 
[-8.77]

>  <Ligand effiencies>  (77) 
[-0.22487179487179487]

>  <Interactions>  (77) 
["V-B:TYR:539:CE2:9845, V-A:HIS:456:CE1:4066, V-B:TYR:539:CD1:9842, V-A:GLY:453:C:4038, V-B:PRO:540:CA:9852, V-A:ARG:545:CZ:4923, V-A:GLY:453:CA:4040, V-B:ALA:541:CB:9861, V-B:TYR:539:C:9836, H-A:TYR:484:OH:4344, V-B:PRO:540:N:9853, V-B:TYR:539:CD2:9843, V-A:ASP:366:CG:3209, V-A:TYR:484:CE1:4341, V-B:GLU:543:CB:9875, V-B:GLU:543:CD:9877, V-A:TYR:484:CZ:4343, V-B:GLU:543:CG:9876, V-A:GLU:543:CD:4905, H-A:ARG:545:NH2:4925, H-A:ARG:545:NH1:4924, V-A:LEU:475:CD1:4254, H-B:TYR:539:N:9839, V-A:LEU:475:CD2:4255, V-B:MET:535:CE:9804, H-A:ARG:545:NE:4921, H-B:TYR:531:OH:9764, V-B:ASP:366:CG:8181"]

$$$$
RR27_Rahimova_2017
     RDKit          3D

 39 44  0  0  0  0  0  0  0  0999 V2000
  129.3650  123.8140   61.4090 O   0  0  0  0  0  0  0  0  0  0  0  0
  130.0320  124.8530   61.3880 C   0  0  0  0  0  0  0  0  0  0  0  0
  131.3040  124.9320   62.2820 C   0  0  0  0  0  0  0  0  0  0  0  0
  132.3450  123.8470   61.9490 C   0  0  0  0  0  0  0  0  0  0  0  0
  131.9870  122.4980   61.8020 C   0  0  0  0  0  0  0  0  0  0  0  0
  132.9530  121.5430   61.4990 C   0  0  0  0  0  0  0  0  0  0  0  0
  134.2810  121.9310   61.3420 C   0  0  0  0  0  0  0  0  0  0  0  0
  134.6510  123.2650   61.4870 C   0  0  0  0  0  0  0  0  0  0  0  0
  133.6850  124.2190   61.7900 C   0  0  0  0  0  0  0  0  0  0  0  0
  130.9470  125.0530   63.7750 C   0  0  0  0  0  0  0  0  0  0  0  0
  130.1540  124.0960   64.4230 C   0  0  0  0  0  0  0  0  0  0  0  0
  129.8400  124.2420   65.7730 C   0  0  0  0  0  0  0  0  0  0  0  0
  130.3130  125.3460   66.4760 C   0  0  0  0  0  0  0  0  0  0  0  0
  131.0930  126.3090   65.8430 C   0  0  0  0  0  0  0  0  0  0  0  0
  131.4050  126.1640   64.4950 C   0  0  0  0  0  0  0  0  0  0  0  0
  129.7670  125.8550   60.5020 N   0  0  0  0  0  0  0  0  0  0  0  0
  130.3540  127.2000   60.5990 C   0  0  0  0  0  0  0  0  0  0  0  0
  129.4290  128.0260   61.5200 C   0  0  0  0  0  0  0  0  0  0  0  0
  127.9450  128.0360   61.0330 C   0  0  0  0  0  0  0  0  0  0  0  0
  126.9610  128.7520   61.9760 C   0  0  0  0  0  0  0  0  0  0  0  0
  126.9640  128.3450   63.2800 N   0  0  0  0  0  0  0  0  0  0  0  0
  126.1310  128.9650   64.1610 C   0  0  0  0  0  0  0  0  0  0  0  0
  126.0470  128.6490   65.4920 O   0  0  0  0  0  0  0  0  0  0  0  0
  125.2990  130.0000   63.6920 C   0  0  0  0  0  0  0  0  0  0  0  0
  124.3780  130.8100   64.2880 N   0  0  0  0  0  0  0  0  0  0  0  0
  123.8670  131.6420   63.3080 N   0  0  0  0  0  0  0  0  0  0  0  0
  124.4690  131.3540   62.1350 N   0  0  0  0  0  0  0  0  0  0  0  0
  124.0990  132.0700   60.9170 C   0  0  0  0  0  0  0  0  0  0  0  0
  124.9340  131.6850   59.7030 C   0  0  0  0  0  0  0  0  0  0  0  0
  124.3460  131.0090   58.6290 C   0  0  0  0  0  0  0  0  0  0  0  0
  125.1090  130.6670   57.5120 C   0  0  0  0  0  0  0  0  0  0  0  0
  126.4620  131.0020   57.4600 C   0  0  0  0  0  0  0  0  0  0  0  0
  127.0530  131.6850   58.5240 C   0  0  0  0  0  0  0  0  0  0  0  0
  128.7210  132.1250   58.4510 Cl  0  0  0  0  0  0  0  0  0  0  0  0
  126.2920  132.0210   59.6440 C   0  0  0  0  0  0  0  0  0  0  0  0
  125.3760  130.3240   62.3200 C   0  0  0  0  0  0  0  0  0  0  0  0
  126.1780  129.7280   61.4330 N   0  0  0  0  0  0  0  0  0  0  0  0
  127.4650  126.6170   60.6010 C   0  0  0  0  0  0  0  0  0  0  0  0
  128.5070  125.8560   59.7420 C   0  0  0  0  0  0  0  0  0  0  0  0
  1  2  2  0
  2  3  1  0
  3  4  1  0
  4  5  2  0
  5  6  1  0
  6  7  2  0
  7  8  1  0
  8  9  2  0
  3 10  1  0
 10 11  2  0
 11 12  1  0
 12 13  2  0
 13 14  1  0
 14 15  2  0
  2 16  1  0
 16 17  1  0
 17 18  1  0
 18 19  1  0
 19 20  1  0
 20 21  2  0
 21 22  1  0
 22 23  1  0
 22 24  2  0
 24 25  1  0
 25 26  2  0
 26 27  1  0
 27 28  1  0
 28 29  1  0
 29 30  2  0
 30 31  1  0
 31 32  2  0
 32 33  1  0
 33 34  1  0
 33 35  2  0
 27 36  1  0
 36 37  2  0
 19 38  1  0
 38 39  1  0
  9  4  1  0
 15 10  1  0
 39 16  1  0
 37 20  1  0
 36 24  1  0
 35 29  1  0
M  END
>  <Binding energies>  (78) 
[-9.49]

>  <Ligand effiencies>  (78) 
[-0.23725000000000002]

>  <Interactions>  (78) 
["V-B:TYR:539:CE2:9845, V-A:HIS:456:CE1:4066, V-A:GLY:453:C:4038, V-A:ARG:545:CZ:4923, V-A:GLY:453:CA:4040, V-A:GLY:454:CA:4045, V-A:ASP:366:CG:3209, H-B:GLU:543:OE2:9879, V-A:TYR:484:CE1:4341, V-B:GLU:543:CB:9875, V-B:GLU:543:CD:9877, V-A:TYR:484:CZ:4343, V-B:GLU:543:CG:9876, V-A:ILE:369:CB:3232, V-A:LEU:475:CD1:4254, V-A:ILE:369:CG2:3233, V-A:ILE:369:CG1:3234, H-B:GLY:454:N:9018, V-B:ARG:545:CZ:9895, H-B:TYR:484:OH:9316, H-B:ARG:545:NH2:9897, H-B:GLU:543:OE1:9878, V-B:ASP:366:CG:8181, V-A:TYR:539:C:4864, V-B:ASP:366:CB:8180, V-A:TYR:539:CE2:4873, V-A:TYR:539:CD2:4871, V-B:ASP:366:CA:8178, V-B:ILE:369:CD1:8207, V-B:ILE:369:CG2:8205, H-B:ARG:545:NE:9893"]

$$$$
RR28_Rahimova_2017
     RDKit          3D

 46 49  0  0  0  0  0  0  0  0999 V2000
  124.3490  132.5720   62.9810 C   0  0  0  0  0  0  0  0  0  0  0  0
  124.6880  131.1080   63.2380 C   0  0  0  0  0  0  0  0  0  0  0  0
  123.8110  130.3430   63.6350 O   0  0  0  0  0  0  0  0  0  0  0  0
  125.9650  130.7410   63.0060 N   0  0  0  0  0  0  0  0  0  0  0  0
  126.5780  129.4040   63.1740 C   0  0  0  0  0  0  0  0  0  0  0  0
  126.7180  128.7540   61.7680 C   0  0  0  0  0  0  0  0  0  0  0  0
  126.6680  129.5670   60.6250 C   0  0  0  0  0  0  0  0  0  0  0  0
  126.7860  129.0200   59.3520 C   0  0  0  0  0  0  0  0  0  0  0  0
  126.9560  127.6440   59.1900 C   0  0  0  0  0  0  0  0  0  0  0  0
  127.0780  127.0600   57.7840 C   0  0  0  0  0  0  0  0  0  0  0  0
  128.2440  126.4380   57.5930 F   0  0  0  0  0  0  0  0  0  0  0  0
  126.1020  126.1800   57.5610 F   0  0  0  0  0  0  0  0  0  0  0  0
  126.9810  128.0450   56.8900 F   0  0  0  0  0  0  0  0  0  0  0  0
  127.0060  126.8220   60.3200 C   0  0  0  0  0  0  0  0  0  0  0  0
  126.8870  127.3720   61.5940 C   0  0  0  0  0  0  0  0  0  0  0  0
  125.7470  128.5410   64.1890 C   0  0  0  0  0  0  0  0  0  0  0  0
  125.7710  129.1020   65.6340 C   0  0  0  0  0  0  0  0  0  0  0  0
  127.1850  129.1470   66.0400 N   0  0  0  0  0  0  0  0  0  0  0  0
  127.7390  128.1060   66.7200 C   0  0  0  0  0  0  0  0  0  0  0  0
  127.0590  127.1790   67.1640 O   0  0  0  0  0  0  0  0  0  0  0  0
  129.2420  128.1680   67.0880 C   0  0  0  0  0  0  0  0  0  0  0  0
  130.2240  127.5990   66.0280 C   0  0  0  0  0  0  0  0  0  0  0  0
  130.1570  126.0660   65.8270 C   0  0  0  0  0  0  0  0  0  0  0  0
  130.5310  125.3440   66.7560 O   0  0  0  0  0  0  0  0  0  0  0  0
  129.5690  125.5560   64.7080 N   0  0  0  0  0  0  0  0  0  0  0  0
  129.4000  126.3190   63.4660 C   0  0  0  0  0  0  0  0  0  0  0  0
  130.7170  126.1670   62.6730 C   0  0  0  0  0  0  0  0  0  0  0  0
  131.1350  124.6850   62.3740 C   0  0  0  0  0  0  0  0  0  0  0  0
  132.5610  124.6530   61.9860 N   0  0  0  0  0  0  0  0  0  0  0  0
  133.3430  123.5740   61.7800 C   0  0  0  0  0  0  0  0  0  0  0  0
  134.7950  123.8530   61.4030 C   0  0  0  0  0  0  0  0  0  0  0  0
  132.9540  122.4110   61.8810 O   0  0  0  0  0  0  0  0  0  0  0  0
  130.3010  124.2020   61.1430 C   0  0  0  0  0  0  0  0  0  0  0  0
  129.2430  123.2840   61.2530 C   0  0  0  0  0  0  0  0  0  0  0  0
  128.5240  122.8810   60.1320 C   0  0  0  0  0  0  0  0  0  0  0  0
  128.8460  123.3820   58.8690 C   0  0  0  0  0  0  0  0  0  0  0  0
  128.0630  122.9520   57.6290 C   0  0  0  0  0  0  0  0  0  0  0  0
  128.5880  123.4970   56.5290 F   0  0  0  0  0  0  0  0  0  0  0  0
  128.1200  121.6260   57.5150 F   0  0  0  0  0  0  0  0  0  0  0  0
  126.7800  123.3120   57.6930 F   0  0  0  0  0  0  0  0  0  0  0  0
  129.9000  124.2890   58.7420 C   0  0  0  0  0  0  0  0  0  0  0  0
  130.6160  124.6900   59.8650 C   0  0  0  0  0  0  0  0  0  0  0  0
  130.8970  123.8130   63.6670 C   0  0  0  0  0  0  0  0  0  0  0  0
  129.5940  124.1090   64.4580 C   0  0  0  0  0  0  0  0  0  0  0  0
  127.9860  130.0970   65.2550 C   0  0  0  0  0  0  0  0  0  0  0  0
  128.0030  129.5790   63.7940 C   0  0  0  0  0  0  0  0  0  0  0  0
  1  2  1  0
  2  3  2  0
  2  4  1  0
  4  5  1  0
  5  6  1  0
  6  7  2  0
  7  8  1  0
  8  9  2  0
  9 10  1  0
 10 11  1  0
 10 12  1  0
 10 13  1  0
  9 14  1  0
 14 15  2  0
  5 16  1  0
 16 17  1  0
 17 18  1  0
 18 19  1  0
 19 20  2  0
 19 21  1  0
 21 22  1  0
 22 23  1  0
 23 24  2  0
 23 25  1  0
 25 26  1  0
 26 27  1  0
 27 28  1  0
 28 29  1  0
 29 30  1  0
 30 31  1  0
 30 32  2  0
 28 33  1  0
 33 34  2  0
 34 35  1  0
 35 36  2  0
 36 37  1  0
 37 38  1  0
 37 39  1  0
 37 40  1  0
 36 41  1  0
 41 42  2  0
 28 43  1  0
 43 44  1  0
 18 45  1  0
 45 46  1  0
 46  5  1  0
 15  6  1  0
 44 25  1  0
 42 33  1  0
M  END
>  <Binding energies>  (79) 
[-7.55]

>  <Ligand effiencies>  (79) 
[-0.15729166666666666]

>  <Interactions>  (79) 
["V-B:TYR:539:CE2:9845, V-B:TYR:539:CA:9838, V-B:TYR:539:CG:9841, V-B:TYR:539:CD1:9842, V-B:TYR:539:CZ:9846, V-A:GLY:453:C:4038, V-B:PRO:540:CA:9852, V-B:TYR:539:CE1:9844, V-A:GLY:453:CA:4040, V-B:ALA:541:CB:9861, V-B:TYR:539:C:9836, H-A:TYR:484:OH:4344, V-B:PRO:540:N:9853, V-B:TYR:539:CD2:9843, V-A:ASP:366:CG:3209, V-A:GLU:543:CB:4903, V-B:GLU:543:CB:9875, V-B:GLU:543:CD:9877, V-B:HIS:456:CE1:9038, V-B:GLU:543:CG:9876, V-A:GLU:543:CD:4905, H-A:ASP:366:OD2:3211, V-A:ILE:369:CG1:3234, H-B:GLY:454:N:9018, V-B:ARG:545:CZ:9895, V-A:GLU:543:CG:4904, H-A:ASP:366:OD1:3210, V-B:MET:535:CE:9804, V-B:ASP:366:CG:8181, V-B:GLY:454:CA:9017, V-B:LEU:475:CD2:9227, V-B:TYR:539:CB:9840, H-B:ARG:545:NH1:9896"]

$$$$
RR29_Rahimova_2017
     RDKit          3D

 18 19  0  0  0  0  0  0  0  0999 V2000
  129.2200  125.3350   66.0700 C   0  0  0  0  0  0  0  0  0  0  0  0
  129.1810  126.7100   65.4190 C   0  0  0  0  0  0  0  0  0  0  0  0
  129.4780  127.8560   66.4110 C   0  0  0  0  0  0  0  0  0  0  0  0
  130.3370  127.3740   67.5990 C   0  0  0  0  0  0  0  0  0  0  0  0
  129.5180  127.1920   68.8670 C   0  0  0  0  0  0  0  0  0  0  0  0
  128.2510  126.5780   68.8050 C   0  0  0  0  0  0  0  0  0  0  0  0
  127.4800  126.3990   69.9620 C   0  0  0  0  0  0  0  0  0  0  0  0
  128.0070  126.8600   71.1630 C   0  0  0  0  0  0  0  0  0  0  0  0
  129.2340  127.4580   71.2290 C   0  0  0  0  0  0  0  0  0  0  0  0
  130.0250  127.6390   70.1000 C   0  0  0  0  0  0  0  0  0  0  0  0
  129.5100  127.7760   72.5220 O   0  0  0  0  0  0  0  0  0  0  0  0
  128.3210  127.5490   73.2300 C   0  0  0  0  0  0  0  0  0  0  0  0
  127.4760  126.7830   72.4120 O   0  0  0  0  0  0  0  0  0  0  0  0
  128.9080  126.7890   64.1690 N   0  0  0  0  0  0  0  0  0  0  0  0
  128.7870  128.0370   63.5960 N   0  0  0  0  0  0  0  0  0  0  0  0
  127.7670  128.4040   62.8040 C   0  0  0  0  0  0  0  0  0  0  0  0
  126.7330  127.6260   62.4830 N   0  0  0  0  0  0  0  0  0  0  0  0
  127.7860  129.6310   62.3040 N   0  0  0  0  0  0  0  0  0  0  0  0
  1  2  1  0
  2  3  1  0
  3  4  1  0
  4  5  1  0
  5  6  2  0
  6  7  1  0
  7  8  2  0
  8  9  1  0
  9 10  2  0
  9 11  1  0
 11 12  1  0
 12 13  1  0
  2 14  2  0
 14 15  1  0
 15 16  1  0
 16 17  1  0
 16 18  2  0
 10  5  1  0
 13  8  1  0
M  CHG  1  18   1
M  END
>  <Binding energies>  (80) 
[-7.27]

>  <Ligand effiencies>  (80) 
[-0.3160869565217391]

>  <Interactions>  (80) 
["V-A:HIS:456:CE1:4066, H-B:GLU:543:OE2:9879, V-B:HIS:456:CD2:9036, V-A:GLU:543:CB:4903, H-A:LYS:547:NZ:4948, V-B:GLY:544:C:9881, V-B:LYS:547:CE:9919, V-B:GLU:543:CB:9875, V-B:GLU:543:CD:9877, V-B:HIS:456:CE1:9038, V-B:GLU:543:CG:9876, V-A:GLU:543:CD:4905, H-A:GLU:543:OE2:4907, H-A:GLU:543:OE1:4906, V-A:GLU:543:CG:4904, V-B:GLU:543:C:9871, H-B:ASP:366:OD1:8182, H-B:GLU:543:OE1:9878"]

$$$$
RR30_Rahimova_2017
     RDKit          3D

 18 19  0  0  0  0  0  0  0  0999 V2000
  130.2700  124.6750   65.5580 C   0  0  0  0  0  0  0  0  0  0  0  0
  131.6330  125.3060   65.2380 C   0  0  0  0  0  0  0  0  0  0  0  0
  132.3330  124.6090   64.0930 C   0  0  0  0  0  0  0  0  0  0  0  0
  133.5830  124.7240   63.7170 N   0  0  0  0  0  0  0  0  0  0  0  0
  133.7280  123.8870   62.6140 N   0  0  0  0  0  0  0  0  0  0  0  0
  132.5530  123.3460   62.4120 C   0  0  0  0  0  0  0  0  0  0  0  0
  132.1040  122.1830   61.1640 S   0  0  0  0  0  0  0  0  0  0  0  0
  130.3030  122.1240   61.4260 C   0  0  0  0  0  0  0  0  0  0  0  0
  129.5250  122.6540   60.2190 C   0  0  0  0  0  0  0  0  0  0  0  0
  129.6630  123.8330   59.8850 O   0  0  0  0  0  0  0  0  0  0  0  0
  128.6960  121.7720   59.6170 N   0  0  0  0  0  0  0  0  0  0  0  0
  127.8910  122.0190   58.5150 C   0  0  0  0  0  0  0  0  0  0  0  0
  127.9910  121.5150   57.3050 N   0  0  0  0  0  0  0  0  0  0  0  0
  127.0040  121.9930   56.4510 N   0  0  0  0  0  0  0  0  0  0  0  0
  126.1840  122.8420   57.0270 C   0  0  0  0  0  0  0  0  0  0  0  0
  125.0330  123.5010   56.3030 C   0  0  0  0  0  0  0  0  0  0  0  0
  126.5670  123.1250   58.7030 S   0  0  0  0  0  0  0  0  0  0  0  0
  131.6240  123.7550   63.3130 O   0  0  0  0  0  0  0  0  0  0  0  0
  1  2  1  0
  2  3  1  0
  3  4  2  0
  4  5  1  0
  5  6  2  0
  6  7  1  0
  7  8  1  0
  8  9  1  0
  9 10  2  0
  9 11  1  0
 11 12  1  0
 12 13  2  0
 13 14  1  0
 14 15  2  0
 15 16  1  0
 15 17  1  0
  6 18  1  0
 18  3  1  0
 17 12  1  0
M  END
>  <Binding energies>  (81) 
[-6.71]

>  <Ligand effiencies>  (81) 
[-0.3531578947368421]

>  <Interactions>  (81) 
["V-B:TYR:539:CE2:9845, V-A:HIS:456:CE1:4066, V-B:TYR:539:CG:9841, V-B:TYR:539:CZ:9846, V-B:PRO:540:CA:9852, V-B:ALA:541:CB:9861, H-A:GLY:454:N:4046, V-B:TYR:539:C:9836, V-B:PRO:540:N:9853, V-B:PRO:540:CB:9854, V-B:TYR:539:CD2:9843, V-A:TYR:484:CE1:4341, V-A:TYR:484:CZ:4343, V-B:GLU:543:CG:9876, H-A:ARG:545:NH2:4925, H-B:TYR:539:O:9837, H-B:TYR:539:N:9839, V-B:PRO:540:CD:9856, V-B:LEU:363:CD1:8157"]

$$$$
RR31_Rahimova_2017
     RDKit          3D

 18 19  0  0  0  0  0  0  0  0999 V2000
  127.9410  127.0290   72.0100 C   0  0  0  0  0  0  0  0  0  0  0  0
  128.3970  126.9150   70.5610 C   0  0  0  0  0  0  0  0  0  0  0  0
  127.5410  126.3400   69.6210 C   0  0  0  0  0  0  0  0  0  0  0  0
  127.9280  126.2240   68.2880 C   0  0  0  0  0  0  0  0  0  0  0  0
  129.1790  126.6880   67.8520 C   0  0  0  0  0  0  0  0  0  0  0  0
  129.5850  126.5700   66.5210 N   0  0  0  0  0  0  0  0  0  0  0  0
  128.8640  127.2400   65.4210 C   0  0  0  0  0  0  0  0  0  0  0  0
  129.1910  126.6770   64.0180 C   0  0  0  0  0  0  0  0  0  0  0  0
  130.6320  126.7240   63.7580 N   0  0  0  0  0  0  0  0  0  0  0  0
  130.9710  126.2290   62.4200 C   0  0  0  0  0  0  0  0  0  0  0  0
  129.8490  126.4650   61.3890 C   0  0  0  0  0  0  0  0  0  0  0  0
  129.9590  127.8410   60.7120 C   0  0  0  0  0  0  0  0  0  0  0  0
  130.9190  128.7380   61.5020 N   0  0  0  0  0  0  0  0  0  0  0  0
  131.2860  125.8940   64.7700 C   0  0  0  0  0  0  0  0  0  0  0  0
  131.0180  126.4450   66.1880 C   0  0  0  0  0  0  0  0  0  0  0  0
  130.0330  127.2560   68.8090 C   0  0  0  0  0  0  0  0  0  0  0  0
  129.6570  127.3770   70.1520 C   0  0  0  0  0  0  0  0  0  0  0  0
  130.6320  128.0010   71.1430 C   0  0  0  0  0  0  0  0  0  0  0  0
  1  2  1  0
  2  3  2  0
  3  4  1  0
  4  5  2  0
  5  6  1  0
  6  7  1  0
  7  8  1  0
  8  9  1  0
  9 10  1  0
 10 11  1  0
 11 12  1  0
 12 13  1  0
  9 14  1  0
 14 15  1  0
  5 16  1  0
 16 17  2  0
 17 18  1  0
 17  2  1  0
 15  6  1  0
M  CHG  1  13   1
M  END
>  <Binding energies>  (82) 
[-6.7]

>  <Ligand effiencies>  (82) 
[-0.3190476190476191]

>  <Interactions>  (82) 
["V-A:HIS:456:CE1:4066, V-B:HIS:456:CD2:9036, V-B:GLY:544:C:9881, V-B:LYS:547:CE:9919, V-B:GLU:543:CB:9875, V-B:GLU:543:CD:9877, V-B:HIS:456:CE1:9038, V-A:GLY:544:C:4909, V-A:GLU:543:CD:4905, H-A:ARG:545:NH2:4925, H-A:GLU:543:OE2:4907, H-A:GLU:543:OE1:4906, H-A:ASP:366:OD1:3210, V-A:HIS:456:CD2:4064, V-B:GLU:543:C:9871"]

$$$$
RR32_Rahimova_2017
     RDKit          3D

 18 20  0  0  0  0  0  0  0  0999 V2000
  129.9590  132.0910   56.4050 C   0  0  0  0  0  0  0  0  0  0  0  0
  130.0890  132.0890   57.9250 C   0  0  0  0  0  0  0  0  0  0  0  0
  128.9840  132.4790   58.6820 C   0  0  0  0  0  0  0  0  0  0  0  0
  129.0650  132.4870   60.0710 C   0  0  0  0  0  0  0  0  0  0  0  0
  127.9660  132.8750   60.8190 N   0  0  0  0  0  0  0  0  0  0  0  0
  126.6730  132.9760   60.1180 C   0  0  0  0  0  0  0  0  0  0  0  0
  125.5520  133.5870   60.9900 C   0  0  0  0  0  0  0  0  0  0  0  0
  125.3640  132.7920   62.2030 N   0  0  0  0  0  0  0  0  0  0  0  0
  124.2850  133.3500   63.0100 C   0  0  0  0  0  0  0  0  0  0  0  0
  126.6180  132.8090   62.9520 C   0  0  0  0  0  0  0  0  0  0  0  0
  127.7570  132.1890   62.1090 C   0  0  0  0  0  0  0  0  0  0  0  0
  130.1900  132.1290   60.7410 N   0  0  0  0  0  0  0  0  0  0  0  0
  131.2860  131.7460   60.0300 C   0  0  0  0  0  0  0  0  0  0  0  0
  132.4470  131.3800   60.7550 C   0  0  0  0  0  0  0  0  0  0  0  0
  133.5950  130.9810   60.0820 C   0  0  0  0  0  0  0  0  0  0  0  0
  133.6190  130.9350   58.6930 C   0  0  0  0  0  0  0  0  0  0  0  0
  132.4950  131.2890   57.9510 C   0  0  0  0  0  0  0  0  0  0  0  0
  131.2960  131.7050   58.5980 C   0  0  0  0  0  0  0  0  0  0  0  0
  1  2  1  0
  2  3  2  0
  3  4  1  0
  4  5  1  0
  5  6  1  0
  6  7  1  0
  7  8  1  0
  8  9  1  0
  8 10  1  0
 10 11  1  0
  4 12  2  0
 12 13  1  0
 13 14  2  0
 14 15  1  0
 15 16  2  0
 16 17  1  0
 17 18  2  0
 18  2  1  0
 11  5  1  0
 18 13  1  0
M  END
>  <Binding energies>  (83) 
[-6.24]

>  <Ligand effiencies>  (83) 
[-0.3466666666666667]

>  <Interactions>  (83) 
["V-A:ASP:366:CG:3209, H-A:ALA:541:N:4888, V-A:PRO:540:N:4881, V-A:LEU:363:CB:3183, V-A:PRO:540:C:4878, V-A:ASN:362:C:3168, V-A:PRO:540:CA:4880, V-A:PRO:540:CB:4882, V-A:TYR:539:C:4864, V-A:ALA:541:CB:4889, V-A:ASN:362:CB:3172, V-A:LEU:363:CA:3181, V-A:ASN:362:CA:3170, V-A:TYR:539:CE2:4873, V-A:TYR:539:CD2:4871, V-B:GLY:454:CA:9017, V-B:LEU:475:CD2:9227"]

$$$$
RR5_Rahimova_2017
     RDKit          3D

 45 50  0  0  0  0  0  0  0  0999 V2000
  127.4610  126.9920   57.4080 O   0  0  0  0  0  0  0  0  0  0  0  0
  126.8020  126.8100   58.4310 C   0  0  0  0  0  0  0  0  0  0  0  0
  126.1680  125.4310   58.6940 C   0  0  0  0  0  0  0  0  0  0  0  0
  125.9760  125.0960   60.2160 C   0  0  2  0  0  0  0  0  0  0  0  0
  127.2250  124.8320   60.9580 N   0  0  0  0  0  0  0  0  0  0  0  0
  128.2160  124.0060   60.4450 C   0  0  0  0  0  0  0  0  0  0  0  0
  128.2140  123.4500   59.3440 O   0  0  0  0  0  0  0  0  0  0  0  0
  129.1920  123.8950   61.3630 O   0  0  0  0  0  0  0  0  0  0  0  0
  128.9140  123.4790   62.6970 C   0  0  0  0  0  0  0  0  0  0  0  0
  130.2220  123.2190   63.4750 C   0  0  0  0  0  0  0  0  0  0  0  0
  131.4550  123.1600   62.5910 C   0  0  0  0  0  0  0  0  0  0  0  0
  131.7350  122.3200   61.5090 C   0  0  0  0  0  0  0  0  0  0  0  0
  132.9380  122.4570   60.8150 C   0  0  0  0  0  0  0  0  0  0  0  0
  133.8630  123.4290   61.2000 C   0  0  0  0  0  0  0  0  0  0  0  0
  133.5870  124.2680   62.2820 C   0  0  0  0  0  0  0  0  0  0  0  0
  132.3830  124.1280   62.9750 C   0  0  0  0  0  0  0  0  0  0  0  0
  131.8450  124.8550   64.1350 C   0  0  0  0  0  0  0  0  0  0  0  0
  132.3790  125.8970   64.8970 C   0  0  0  0  0  0  0  0  0  0  0  0
  131.6580  126.4010   65.9800 C   0  0  0  0  0  0  0  0  0  0  0  0
  130.4070  125.8680   66.2980 C   0  0  0  0  0  0  0  0  0  0  0  0
  129.8750  124.8300   65.5320 C   0  0  0  0  0  0  0  0  0  0  0  0
  130.5920  124.3250   64.4450 C   0  0  0  0  0  0  0  0  0  0  0  0
  125.0000  123.9070   60.3990 C   0  0  0  0  0  0  0  0  0  0  0  0
  124.0480  123.6770   59.6810 O   0  0  0  0  0  0  0  0  0  0  0  0
  125.3880  123.1550   61.4710 O   0  0  0  0  0  0  0  0  0  0  0  0
  126.6030  127.7360   59.3960 N   0  0  0  0  0  0  0  0  0  0  0  0
  127.0240  129.1600   59.5560 C   0  0  0  0  0  0  0  0  0  0  0  0
  127.0800  129.3110   61.1130 C   0  0  0  0  0  0  0  0  0  0  0  0
  127.3280  130.5530   61.7200 C   0  0  0  0  0  0  0  0  0  0  0  0
  127.3750  130.6760   63.1060 C   0  0  0  0  0  0  0  0  0  0  0  0
  127.1850  129.5570   63.9090 C   0  0  0  0  0  0  0  0  0  0  0  0
  126.9360  128.3150   63.3350 C   0  0  0  0  0  0  0  0  0  0  0  0
  126.8800  128.1950   61.9500 C   0  0  0  0  0  0  0  0  0  0  0  0
  128.4300  129.3090   58.8850 C   0  0  0  0  0  0  0  0  0  0  0  0
  129.4890  128.4380   59.1880 C   0  0  0  0  0  0  0  0  0  0  0  0
  130.7380  128.6020   58.5930 C   0  0  0  0  0  0  0  0  0  0  0  0
  130.9450  129.6400   57.6910 C   0  0  0  0  0  0  0  0  0  0  0  0
  129.9110  130.5140   57.3730 C   0  0  0  0  0  0  0  0  0  0  0  0
  128.6620  130.3430   57.9600 C   0  0  0  0  0  0  0  0  0  0  0  0
  125.8930  130.0230   58.9010 C   0  0  0  0  0  0  0  0  0  0  0  0
  125.5610  129.8720   57.5430 C   0  0  0  0  0  0  0  0  0  0  0  0
  124.5620  130.6420   56.9530 C   0  0  0  0  0  0  0  0  0  0  0  0
  123.8720  131.5770   57.7160 C   0  0  0  0  0  0  0  0  0  0  0  0
  124.1680  131.7400   59.0640 C   0  0  0  0  0  0  0  0  0  0  0  0
  125.1670  130.9680   59.6490 C   0  0  0  0  0  0  0  0  0  0  0  0
  1  2  2  0
  2  3  1  0
  4  3  1  6
  4  5  1  0
  5  6  1  0
  6  7  2  0
  6  8  1  0
  8  9  1  0
  9 10  1  0
 10 11  1  0
 11 12  2  0
 12 13  1  0
 13 14  2  0
 14 15  1  0
 15 16  2  0
 16 17  1  0
 17 18  2  0
 18 19  1  0
 19 20  2  0
 20 21  1  0
 21 22  2  0
  4 23  1  0
 23 24  2  0
 23 25  1  0
  2 26  1  0
 26 27  1  0
 27 28  1  0
 28 29  2  0
 29 30  1  0
 30 31  2  0
 31 32  1  0
 32 33  2  0
 27 34  1  0
 34 35  2  0
 35 36  1  0
 36 37  2  0
 37 38  1  0
 38 39  2  0
 27 40  1  0
 40 41  2  0
 41 42  1  0
 42 43  2  0
 43 44  1  0
 44 45  2  0
 22 10  1  0
 33 28  1  0
 39 34  1  0
 45 40  1  0
 16 11  1  0
 22 17  1  0
M  END
>  <Binding energies>  (84) 
[-10.21]

>  <Ligand effiencies>  (84) 
[-0.21270833333333336]

>  <Interactions>  (84) 
["H-B:ALA:541:N:9860, V-B:TYR:539:CE2:9845, V-A:HIS:456:CE1:4066, V-B:TYR:539:CZ:9846, V-B:PRO:540:CA:9852, V-A:ARG:545:CZ:4923, V-B:ALA:541:CB:9861, V-B:PRO:540:CB:9854, V-A:ASP:366:CG:3209, H-B:GLU:543:OE2:9879, V-B:GLU:543:CB:9875, V-B:GLU:543:CD:9877, V-B:GLU:543:CG:9876, V-A:LEU:475:CD1:4254, H-B:ASP:366:OD1:8182, V-B:TYR:531:CZ:9763, H-B:TYR:531:OH:9764, V-B:ASP:366:CG:8181, V-B:ASP:366:CB:8180, V-A:TYR:539:CE2:4873, V-B:ASP:366:CA:8178, V-A:TYR:539:CZ:4874, V-B:ASP:366:C:8176, V-B:TYR:531:CE1:9761, V-B:ILE:369:CG2:8205, V-B:ILE:369:CB:8204"]

$$$$
