1a_Ghoteimi_2023
     RDKit          3D

 67 70  0  0  0  0  0  0  0  0999 V2000
  132.8620  121.0590   60.1640 C   0  0  0  0  0  0  0  0  0  0  0  0
  133.1480  122.1520   61.1980 C   0  0  0  0  0  0  0  0  0  0  0  0
  132.1440  122.1220   62.2060 O   0  0  0  0  0  0  0  0  0  0  0  0
  131.4620  123.2440   62.5500 C   0  0  0  0  0  0  0  0  0  0  0  0
  131.8660  124.0580   63.3860 O   0  0  0  0  0  0  0  0  0  0  0  0
  130.1660  123.4010   61.8060 C   0  0  0  0  0  0  0  0  0  0  0  0
  129.4780  124.6220   61.7630 C   0  0  0  0  0  0  0  0  0  0  0  0
  128.2770  124.7360   61.0680 C   0  0  0  0  0  0  0  0  0  0  0  0
  127.7430  123.6260   60.3970 C   0  0  0  0  0  0  0  0  0  0  0  0
  126.5370  123.6270   59.6700 N   0  0  0  0  0  0  0  0  0  0  0  0
  125.3210  124.1050   60.0120 C   0  0  0  0  0  0  0  0  0  0  0  0
  125.0450  124.6690   61.0700 O   0  0  0  0  0  0  0  0  0  0  0  0
  124.2240  123.9180   58.9640 C   0  0  0  0  0  0  0  0  0  0  0  0
  124.6920  124.6370   57.3630 S   0  0  0  0  0  0  0  0  0  0  0  0
  126.1490  125.6120   57.6640 C   0  0  0  0  0  0  0  0  0  0  0  0
  125.8880  126.8860   58.0420 N   0  0  0  0  0  0  0  0  0  0  0  0
  126.9160  127.7350   58.3090 C   0  0  0  0  0  0  0  0  0  0  0  0
  126.5460  129.1240   58.7410 C   0  0  0  0  0  0  0  0  0  0  0  0
  127.4000  129.8870   59.5540 C   0  0  0  0  0  0  0  0  0  0  0  0
  127.0540  131.1750   59.9530 C   0  0  0  0  0  0  0  0  0  0  0  0
  125.8450  131.7400   59.5550 C   0  0  0  0  0  0  0  0  0  0  0  0
  125.5850  133.0230   59.9960 O   0  0  0  0  0  0  0  0  0  0  0  0
  126.3910  133.5780   61.0300 C   0  0  0  0  0  0  0  0  0  0  0  0
  124.9790  130.9890   58.7480 C   0  0  0  0  0  0  0  0  0  0  0  0
  125.3280  129.7020   58.3510 C   0  0  0  0  0  0  0  0  0  0  0  0
  128.2430  127.3030   58.1940 C   0  0  0  0  0  0  0  0  0  0  0  0
  128.5380  125.9970   57.7810 C   0  0  0  0  0  0  0  0  0  0  0  0
  129.9770  125.6170   57.6510 C   0  0  0  0  0  0  0  0  0  0  0  0
  130.5800  124.7630   58.5800 C   0  0  0  0  0  0  0  0  0  0  0  0
  131.9180  124.4020   58.4430 C   0  0  0  0  0  0  0  0  0  0  0  0
  132.6750  124.8790   57.3740 C   0  0  0  0  0  0  0  0  0  0  0  0
  133.9920  124.4670   57.3190 O   0  0  0  0  0  0  0  0  0  0  0  0
  134.5850  123.8840   58.4740 C   0  0  0  0  0  0  0  0  0  0  0  0
  132.0710  125.7300   56.4350 C   0  0  0  0  0  0  0  0  0  0  0  0
  130.7330  126.0910   56.5740 C   0  0  0  0  0  0  0  0  0  0  0  0
  127.4620  125.1180   57.5100 C   0  0  0  0  0  0  0  0  0  0  0  0
  127.7070  123.7350   57.0890 C   0  0  0  0  0  0  0  0  0  0  0  0
  127.9020  122.6430   56.7570 N   0  0  0  0  0  0  0  0  0  0  0  0
  128.4230  122.4090   60.4420 C   0  0  0  0  0  0  0  0  0  0  0  0
  129.6240  122.2960   61.1370 C   0  0  0  0  0  0  0  0  0  0  0  0
  132.6163  120.1200   60.6815 H   0  0  0  0  0  0  0  0  0  0  0  0
  132.0133  121.3634   59.5339 H   0  0  0  0  0  0  0  0  0  0  0  0
  133.7510  120.9087   59.5339 H   0  0  0  0  0  0  0  0  0  0  0  0
  134.1328  121.9762   61.6553 H   0  0  0  0  0  0  0  0  0  0  0  0
  133.1447  123.1351   60.7046 H   0  0  0  0  0  0  0  0  0  0  0  0
  129.8912  125.4985   62.2835 H   0  0  0  0  0  0  0  0  0  0  0  0
  127.7456  125.6989   61.0451 H   0  0  0  0  0  0  0  0  0  0  0  0
  126.6160  123.2350   58.7430 H   0  0  0  0  0  0  0  0  0  0  0  0
  124.0385  122.8420   58.8306 H   0  0  0  0  0  0  0  0  0  0  0  0
  123.3197  124.4337   59.3195 H   0  0  0  0  0  0  0  0  0  0  0  0
  128.3592  129.4593   59.8812 H   0  0  0  0  0  0  0  0  0  0  0  0
  127.7420  131.7518   60.5886 H   0  0  0  0  0  0  0  0  0  0  0  0
  125.9782  133.2938   62.0092 H   0  0  0  0  0  0  0  0  0  0  0  0
  127.4181  133.1948   60.9399 H   0  0  0  0  0  0  0  0  0  0  0  0
  126.3994  134.6743   60.9399 H   0  0  0  0  0  0  0  0  0  0  0  0
  124.0189  131.4193   58.4271 H   0  0  0  0  0  0  0  0  0  0  0  0
  124.6358  129.1262   57.7191 H   0  0  0  0  0  0  0  0  0  0  0  0
  129.0632  127.9968   58.4306 H   0  0  0  0  0  0  0  0  0  0  0  0
  129.9932  124.3736   59.4250 H   0  0  0  0  0  0  0  0  0  0  0  0
  132.3815  123.7348   59.1846 H   0  0  0  0  0  0  0  0  0  0  0  0
  134.1376  124.3238   59.3775 H   0  0  0  0  0  0  0  0  0  0  0  0
  134.4082  122.7983   58.4686 H   0  0  0  0  0  0  0  0  0  0  0  0
  135.6675  124.0792   58.4686 H   0  0  0  0  0  0  0  0  0  0  0  0
  132.6566  126.1131   55.5863 H   0  0  0  0  0  0  0  0  0  0  0  0
  130.2670  126.7544   55.8306 H   0  0  0  0  0  0  0  0  0  0  0  0
  128.0072  121.5319   59.9245 H   0  0  0  0  0  0  0  0  0  0  0  0
  130.1517  121.3311   61.1610 H   0  0  0  0  0  0  0  0  0  0  0  0
  1  2  1  0
  2  3  1  0
  3  4  1  0
  4  5  2  0
  4  6  1  0
  6  7  2  0
  7  8  1  0
  8  9  2  0
  9 10  1  0
 10 11  1  0
 11 12  2  0
 11 13  1  0
 13 14  1  0
 14 15  1  0
 15 16  2  0
 16 17  1  0
 17 18  1  0
 18 19  2  0
 19 20  1  0
 20 21  2  0
 21 22  1  0
 22 23  1  0
 21 24  1  0
 24 25  2  0
 17 26  2  0
 26 27  1  0
 27 28  1  0
 28 29  2  0
 29 30  1  0
 30 31  2  0
 31 32  1  0
 32 33  1  0
 31 34  1  0
 34 35  2  0
 27 36  2  0
 36 37  1  0
 37 38  3  0
  9 39  1  0
 39 40  2  0
 40  6  1  0
 36 15  1  0
 25 18  1  0
 35 28  1  0
  1 41  1  0
  1 42  1  0
  1 43  1  0
  2 44  1  0
  2 45  1  0
  7 46  1  0
  8 47  1  0
 10 48  1  0
 13 49  1  0
 13 50  1  0
 19 51  1  0
 20 52  1  0
 23 53  1  0
 23 54  1  0
 23 55  1  0
 24 56  1  0
 25 57  1  0
 26 58  1  0
 29 59  1  0
 30 60  1  0
 33 61  1  0
 33 62  1  0
 33 63  1  0
 34 64  1  0
 35 65  1  0
 39 66  1  0
 40 67  1  0
M  END
>  <Binding energies>  (1) 
[-6.55]

>  <Ligand effiencies>  (1) 
[-0.1597560975609756]

>  <Interactions>  (1) 
["V-B:GLU:543:CD:9880, H-A:TYR:484:OH:4346, V-B:TYR:539:CZ:9849, V-B:PRO:540:C:9853, V-A:ILE:369:CD1:3237, V-A:LEU:475:CD2:4257, V-A:TRP:381:CH2:3370, V-B:PRO:540:CA:9855, V-B:TYR:539:C:9839, V-A:ASP:366:CG:3211, V-B:ALA:541:CB:9864, V-B:TYR:539:CD2:9846, V-B:TYR:539:CE2:9848, V-A:ILE:369:CG2:3235, V-B:PRO:540:N:9856, V-B:PRO:540:CB:9857, V-A:ASP:366:CA:3208, V-A:ASP:366:CB:3210, V-A:ASP:366:C:3206, V-A:ILE:369:CG1:3236, V-A:ILE:369:CB:3234, V-B:LEU:475:CD2:9231, V-B:ASP:366:CG:8185, V-A:TYR:531:CZ:4792, H-B:ARG:545:NH2:9900, V-A:TYR:539:CE2:4874, V-B:ASP:366:CB:8184, H-B:TYR:531:OH:9767, V-A:TYR:539:CD2:4872, V-A:TYR:539:CZ:4875, H-B:TYR:539:OH:9850, V-A:TYR:531:CE1:4790, H-B:TYR:539:N:9842, H-B:TYR:539:O:9840"]

$$$$
1a_Grossjean_2025
     RDKit          3D

 45 46  0  0  0  0  0  0  0  0999 V2000
  130.8790  126.1260   72.9000 C   0  0  0  0  0  0  0  0  0  0  0  0
  129.5000  125.7430   72.3550 C   0  0  0  0  0  0  0  0  0  0  0  0
  128.6010  126.8300   72.5330 O   0  0  0  0  0  0  0  0  0  0  0  0
  128.6800  127.9400   71.7530 C   0  0  0  0  0  0  0  0  0  0  0  0
  128.4720  129.0820   72.1730 O   0  0  0  0  0  0  0  0  0  0  0  0
  129.0300  127.6370   70.3240 C   0  0  0  0  0  0  0  0  0  0  0  0
  130.3780  127.5440   69.9560 C   0  0  0  0  0  0  0  0  0  0  0  0
  130.7340  127.2690   68.6390 C   0  0  0  0  0  0  0  0  0  0  0  0
  129.7540  127.0850   67.6630 C   0  0  0  0  0  0  0  0  0  0  0  0
  130.2270  126.8150   66.3640 N   0  0  0  0  0  0  0  0  0  0  0  0
  130.6270  125.6510   65.8110 C   0  0  0  0  0  0  0  0  0  0  0  0
  130.6470  124.5580   66.3780 O   0  0  0  0  0  0  0  0  0  0  0  0
  131.0870  125.7420   64.3540 C   0  0  0  0  0  0  0  0  0  0  0  0
  132.6930  124.9320   64.0910 S   0  0  0  0  0  0  0  0  0  0  0  0
  132.5380  123.8930   62.6550 C   0  0  0  0  0  0  0  0  0  0  0  0
  133.4090  124.2000   61.6610 N   0  0  0  0  0  0  0  0  0  0  0  0
  133.3740  123.4740   60.5180 C   0  0  0  0  0  0  0  0  0  0  0  0
  134.3670  123.8830   59.4460 C   0  0  0  0  0  0  0  0  0  0  0  0
  132.4870  122.4170   60.3250 C   0  0  0  0  0  0  0  0  0  0  0  0
  131.5990  122.0790   61.3530 C   0  0  0  0  0  0  0  0  0  0  0  0
  130.6470  120.9070   61.1250 C   0  0  0  0  0  0  0  0  0  0  0  0
  131.6200  122.8210   62.5560 C   0  0  0  0  0  0  0  0  0  0  0  0
  130.7330  122.4540   63.6640 C   0  0  0  0  0  0  0  0  0  0  0  0
  130.0330  122.1620   64.5380 N   0  0  0  0  0  0  0  0  0  0  0  0
  128.4000  127.1690   68.0250 C   0  0  0  0  0  0  0  0  0  0  0  0
  128.0450  127.4440   69.3430 C   0  0  0  0  0  0  0  0  0  0  0  0
  130.8536  126.1189   73.9997 H   0  0  0  0  0  0  0  0  0  0  0  0
  131.6273  125.4017   72.5459 H   0  0  0  0  0  0  0  0  0  0  0  0
  131.1466  127.1325   72.5459 H   0  0  0  0  0  0  0  0  0  0  0  0
  129.5819  125.5066   71.2838 H   0  0  0  0  0  0  0  0  0  0  0  0
  129.1231  124.8632   72.8971 H   0  0  0  0  0  0  0  0  0  0  0  0
  131.1618  127.6895   70.7140 H   0  0  0  0  0  0  0  0  0  0  0  0
  131.7969  127.1961   68.3652 H   0  0  0  0  0  0  0  0  0  0  0  0
  130.2350  127.6210   65.7570 H   0  0  0  0  0  0  0  0  0  0  0  0
  130.3358  125.2560   63.7140 H   0  0  0  0  0  0  0  0  0  0  0  0
  131.1994  126.8065   64.1005 H   0  0  0  0  0  0  0  0  0  0  0  0
  135.2844  124.2609   59.9210 H   0  0  0  0  0  0  0  0  0  0  0  0
  134.6103  123.0119   58.8200 H   0  0  0  0  0  0  0  0  0  0  0  0
  133.9262  124.6728   58.8200 H   0  0  0  0  0  0  0  0  0  0  0  0
  132.4845  121.8563   59.3786 H   0  0  0  0  0  0  0  0  0  0  0  0
  130.3208  120.5054   62.0957 H   0  0  0  0  0  0  0  0  0  0  0  0
  129.7701  121.2520   60.5575 H   0  0  0  0  0  0  0  0  0  0  0  0
  131.1644  120.1194   60.5575 H   0  0  0  0  0  0  0  0  0  0  0  0
  127.6183  127.0173   67.2661 H   0  0  0  0  0  0  0  0  0  0  0  0
  126.9820  127.5106   69.6181 H   0  0  0  0  0  0  0  0  0  0  0  0
  1  2  1  0
  2  3  1  0
  3  4  1  0
  4  5  2  0
  4  6  1  0
  6  7  2  0
  7  8  1  0
  8  9  2  0
  9 10  1  0
 10 11  1  0
 11 12  2  0
 11 13  1  0
 13 14  1  0
 14 15  1  0
 15 16  2  0
 16 17  1  0
 17 18  1  0
 17 19  2  0
 19 20  1  0
 20 21  1  0
 20 22  2  0
 22 23  1  0
 23 24  3  0
  9 25  1  0
 25 26  2  0
 26  6  1  0
 22 15  1  0
  1 27  1  0
  1 28  1  0
  1 29  1  0
  2 30  1  0
  2 31  1  0
  7 32  1  0
  8 33  1  0
 10 34  1  0
 13 35  1  0
 13 36  1  0
 18 37  1  0
 18 38  1  0
 18 39  1  0
 19 40  1  0
 21 41  1  0
 21 42  1  0
 21 43  1  0
 25 44  1  0
 26 45  1  0
M  END
>  <Binding energies>  (1) 
[-7.82]

>  <Ligand effiencies>  (1) 
[-0.2896296296296296]

>  <Interactions>  (1) 
["V-B:GLU:543:CB:9878, V-A:HIS:456:CE1:4068, V-A:HIS:456:CD2:4066, V-B:GLU:543:CD:9880, V-A:GLU:543:CD:4906, V-B:HIS:456:CE1:9042, V-A:GLY:544:CA:4912, H-A:LYS:547:NZ:4949, V-B:GLY:544:C:9884, V-A:GLY:544:C:4910, V-B:HIS:456:CD2:9040, V-B:GLU:543:CG:9879, V-A:GLU:543:CG:4905, H-B:LYS:547:NZ:9923, V-B:GLU:543:C:9874, V-A:ARG:545:CG:4920, H-A:TYR:484:OH:4346, V-A:HIS:456:CG:4064, V-A:TYR:484:CZ:4345, V-B:LYS:547:CE:9922, V-B:GLY:544:CA:9886, H-A:ARG:545:NE:4922, V-A:GLU:543:C:4900, V-A:ILE:369:CD1:3237, V-A:LEU:475:CD2:4257, V-A:ASP:366:CG:3211, V-B:ALA:541:CB:9864, V-B:TYR:539:CE2:9848, V-A:ILE:369:CG2:3235, V-A:ASP:366:CA:3208, V-A:ASP:366:CB:3210, V-A:ILE:369:CG1:3236, V-A:ILE:369:CB:3234, H-A:GLU:543:OE2:4908, H-A:GLU:543:OE1:4907, V-A:TYR:484:CE1:4343, H-B:GLU:543:OE2:9882"]

$$$$
1aa_Ghoteimi_2023
     RDKit          3D

 67 70  0  0  0  0  0  0  0  0999 V2000
  127.7930  128.2640   72.4860 C   0  0  0  0  0  0  0  0  0  0  0  0
  129.0950  128.8930   71.9840 C   0  0  0  0  0  0  0  0  0  0  0  0
  129.9700  127.8700   71.5250 O   0  0  0  0  0  0  0  0  0  0  0  0
  129.5090  126.8400   70.7710 C   0  0  0  0  0  0  0  0  0  0  0  0
  129.4400  125.6760   71.1780 O   0  0  0  0  0  0  0  0  0  0  0  0
  129.0890  127.2560   69.3900 C   0  0  0  0  0  0  0  0  0  0  0  0
  130.0260  127.5590   68.3900 C   0  0  0  0  0  0  0  0  0  0  0  0
  129.6070  127.9420   67.1170 C   0  0  0  0  0  0  0  0  0  0  0  0
  128.2380  128.0240   66.8220 C   0  0  0  0  0  0  0  0  0  0  0  0
  127.7000  128.3990   65.5770 N   0  0  0  0  0  0  0  0  0  0  0  0
  126.8360  129.3900   65.2580 C   0  0  0  0  0  0  0  0  0  0  0  0
  126.3500  130.1860   66.0620 O   0  0  0  0  0  0  0  0  0  0  0  0
  126.4380  129.5290   63.7800 C   0  0  0  0  0  0  0  0  0  0  0  0
  127.5990  129.4810   62.9410 O   0  0  0  0  0  0  0  0  0  0  0  0
  128.0480  128.2710   62.4310 C   0  0  0  0  0  0  0  0  0  0  0  0
  129.1200  127.6810   63.0290 N   0  0  0  0  0  0  0  0  0  0  0  0
  129.5970  126.5030   62.5500 C   0  0  0  0  0  0  0  0  0  0  0  0
  130.7800  125.9170   63.2670 C   0  0  0  0  0  0  0  0  0  0  0  0
  130.8070  125.8320   64.6660 C   0  0  0  0  0  0  0  0  0  0  0  0
  131.9030  125.2910   65.3330 C   0  0  0  0  0  0  0  0  0  0  0  0
  133.0040  124.8180   64.6230 C   0  0  0  0  0  0  0  0  0  0  0  0
  134.0460  124.3000   65.3680 O   0  0  0  0  0  0  0  0  0  0  0  0
  134.4520  124.9730   66.5550 C   0  0  0  0  0  0  0  0  0  0  0  0
  132.9900  124.8920   63.2230 C   0  0  0  0  0  0  0  0  0  0  0  0
  131.8930  125.4320   62.5600 C   0  0  0  0  0  0  0  0  0  0  0  0
  128.9850  125.8760   61.4580 C   0  0  0  0  0  0  0  0  0  0  0  0
  127.8740  126.4560   60.8310 C   0  0  0  0  0  0  0  0  0  0  0  0
  127.2600  125.7320   59.6780 C   0  0  0  0  0  0  0  0  0  0  0  0
  127.7870  125.8840   58.3920 C   0  0  0  0  0  0  0  0  0  0  0  0
  127.2270  125.2060   57.3130 C   0  0  0  0  0  0  0  0  0  0  0  0
  126.1340  124.3590   57.4970 C   0  0  0  0  0  0  0  0  0  0  0  0
  125.6440  123.7280   56.3700 O   0  0  0  0  0  0  0  0  0  0  0  0
  124.2780  123.3330   56.3340 C   0  0  0  0  0  0  0  0  0  0  0  0
  125.6070  124.1980   58.7870 C   0  0  0  0  0  0  0  0  0  0  0  0
  126.1680  124.8780   59.8650 C   0  0  0  0  0  0  0  0  0  0  0  0
  127.3990  127.6920   61.3270 C   0  0  0  0  0  0  0  0  0  0  0  0
  126.2720  128.3940   60.7110 C   0  0  0  0  0  0  0  0  0  0  0  0
  125.3810  128.9510   60.2240 N   0  0  0  0  0  0  0  0  0  0  0  0
  127.3050  127.7250   67.8160 C   0  0  0  0  0  0  0  0  0  0  0  0
  127.7250  127.3440   69.0860 C   0  0  0  0  0  0  0  0  0  0  0  0
  127.7874  128.2613   73.5860 H   0  0  0  0  0  0  0  0  0  0  0  0
  126.9373  128.8481   72.1164 H   0  0  0  0  0  0  0  0  0  0  0  0
  127.7187  127.2306   72.1164 H   0  0  0  0  0  0  0  0  0  0  0  0
  128.8734  129.5840   71.1573 H   0  0  0  0  0  0  0  0  0  0  0  0
  129.5756  129.4453   72.8050 H   0  0  0  0  0  0  0  0  0  0  0  0
  131.1012  127.4936   68.6130 H   0  0  0  0  0  0  0  0  0  0  0  0
  130.3509  128.1803   66.3425 H   0  0  0  0  0  0  0  0  0  0  0  0
  128.0220  127.8340   64.8040 H   0  0  0  0  0  0  0  0  0  0  0  0
  125.7608  128.7058   63.5085 H   0  0  0  0  0  0  0  0  0  0  0  0
  125.9350  130.4967   63.6364 H   0  0  0  0  0  0  0  0  0  0  0  0
  129.9478  126.1989   65.2467 H   0  0  0  0  0  0  0  0  0  0  0  0
  131.8993  125.2366   66.4316 H   0  0  0  0  0  0  0  0  0  0  0  0
  134.1099  124.4059   67.4333 H   0  0  0  0  0  0  0  0  0  0  0  0
  135.5489  125.0526   66.5744 H   0  0  0  0  0  0  0  0  0  0  0  0
  134.0109  125.9805   66.5744 H   0  0  0  0  0  0  0  0  0  0  0  0
  133.8503  124.5214   62.6464 H   0  0  0  0  0  0  0  0  0  0  0  0
  131.8969  125.4803   61.4611 H   0  0  0  0  0  0  0  0  0  0  0  0
  129.3803  124.9183   61.0884 H   0  0  0  0  0  0  0  0  0  0  0  0
  128.6515  126.5450   58.2315 H   0  0  0  0  0  0  0  0  0  0  0  0
  127.6501  125.3393   56.3064 H   0  0  0  0  0  0  0  0  0  0  0  0
  123.9007  123.2239   57.3615 H   0  0  0  0  0  0  0  0  0  0  0  0
  123.6890  124.0976   55.8063 H   0  0  0  0  0  0  0  0  0  0  0  0
  124.1880  122.3720   55.8063 H   0  0  0  0  0  0  0  0  0  0  0  0
  124.7467  123.5316   58.9478 H   0  0  0  0  0  0  0  0  0  0  0  0
  125.7486  124.7423   60.8728 H   0  0  0  0  0  0  0  0  0  0  0  0
  126.2298  127.7911   67.5934 H   0  0  0  0  0  0  0  0  0  0  0  0
  126.9784  127.1095   69.8591 H   0  0  0  0  0  0  0  0  0  0  0  0
  1  2  1  0
  2  3  1  0
  3  4  1  0
  4  5  2  0
  4  6  1  0
  6  7  2  0
  7  8  1  0
  8  9  2  0
  9 10  1  0
 10 11  1  0
 11 12  2  0
 11 13  1  0
 13 14  1  0
 14 15  1  0
 15 16  2  0
 16 17  1  0
 17 18  1  0
 18 19  2  0
 19 20  1  0
 20 21  2  0
 21 22  1  0
 22 23  1  0
 21 24  1  0
 24 25  2  0
 17 26  2  0
 26 27  1  0
 27 28  1  0
 28 29  2  0
 29 30  1  0
 30 31  2  0
 31 32  1  0
 32 33  1  0
 31 34  1  0
 34 35  2  0
 27 36  2  0
 36 37  1  0
 37 38  3  0
  9 39  1  0
 39 40  2  0
 40  6  1  0
 36 15  1  0
 25 18  1  0
 35 28  1  0
  1 41  1  0
  1 42  1  0
  1 43  1  0
  2 44  1  0
  2 45  1  0
  7 46  1  0
  8 47  1  0
 10 48  1  0
 13 49  1  0
 13 50  1  0
 19 51  1  0
 20 52  1  0
 23 53  1  0
 23 54  1  0
 23 55  1  0
 24 56  1  0
 25 57  1  0
 26 58  1  0
 29 59  1  0
 30 60  1  0
 33 61  1  0
 33 62  1  0
 33 63  1  0
 34 64  1  0
 35 65  1  0
 39 66  1  0
 40 67  1  0
M  END
>  <Binding energies>  (1) 
[-6.73]

>  <Ligand effiencies>  (1) 
[-0.16414634146341464]

>  <Interactions>  (1) 
["V-B:ARG:545:CZ:9898, V-A:HIS:456:CE1:4068, V-A:HIS:456:CD2:4066, V-B:GLU:543:CD:9880, H-B:TYR:484:OH:9320, V-A:GLU:543:CD:4906, V-B:HIS:456:CE1:9042, V-A:GLY:544:CA:4912, V-B:GLY:544:C:9884, V-B:HIS:456:CD2:9040, V-A:GLU:543:CB:4904, V-B:GLU:543:CG:9879, V-A:GLU:543:CG:4905, H-A:GLY:454:N:4048, V-B:GLU:543:C:9874, V-A:ARG:545:CZ:4924, V-A:ARG:545:CG:4920, V-A:LYS:547:CE:4948, H-A:TYR:484:OH:4346, V-A:ARG:545:CD:4921, V-A:TYR:484:CZ:4345, H-B:GLU:543:OE1:9881, V-A:GLU:543:C:4900, V-B:PRO:540:CA:9855, V-A:GLY:454:CA:4047, V-B:PRO:540:CD:9859, V-B:PRO:540:N:9856, V-B:PRO:540:CB:9857, V-B:ASP:366:CG:8185, H-B:ARG:545:NH2:9900, H-B:TYR:531:OH:9767, H-A:GLU:543:OE2:4908, H-A:GLU:543:OE1:4907, V-B:HIS:456:CG:9038, H-B:GLU:543:OE2:9882, V-B:ILE:538:CB:9834, V-B:ARG:545:CG:9894, V-B:TYR:531:CE2:9765, V-A:ARG:545:CB:4919, V-A:ILE:455:C:4050, V-B:LEU:363:CD1:8161, V-B:ILE:538:CG2:9835, H-A:ILE:455:N:4053"]

$$$$
1b_Ghoteimi_2023
     RDKit          3D

 54 57  0  0  0  0  0  0  0  0999 V2000
  133.5790  125.0030   65.2400 C   0  0  0  0  0  0  0  0  0  0  0  0
  133.4680  124.4970   63.9150 O   0  0  0  0  0  0  0  0  0  0  0  0
  132.5110  125.0250   63.0700 C   0  0  0  0  0  0  0  0  0  0  0  0
  132.7470  124.8990   61.7020 C   0  0  0  0  0  0  0  0  0  0  0  0
  131.8380  125.4030   60.7760 C   0  0  0  0  0  0  0  0  0  0  0  0
  130.6620  126.0450   61.1900 C   0  0  0  0  0  0  0  0  0  0  0  0
  129.6840  126.5900   60.1860 C   0  0  0  0  0  0  0  0  0  0  0  0
  128.7790  127.6130   60.4830 C   0  0  0  0  0  0  0  0  0  0  0  0
  127.8900  128.0880   59.5100 C   0  0  0  0  0  0  0  0  0  0  0  0
  126.9480  129.1790   59.9000 C   0  0  0  0  0  0  0  0  0  0  0  0
  126.0970  129.0180   60.9970 C   0  0  0  0  0  0  0  0  0  0  0  0
  125.2110  130.0290   61.3590 C   0  0  0  0  0  0  0  0  0  0  0  0
  125.1550  131.2170   60.6300 C   0  0  0  0  0  0  0  0  0  0  0  0
  124.2450  132.1630   61.0620 O   0  0  0  0  0  0  0  0  0  0  0  0
  124.4580  133.5320   60.7320 C   0  0  0  0  0  0  0  0  0  0  0  0
  126.0010  131.3800   59.5240 C   0  0  0  0  0  0  0  0  0  0  0  0
  126.8860  130.3670   59.1640 C   0  0  0  0  0  0  0  0  0  0  0  0
  127.9400  127.5150   58.2150 C   0  0  0  0  0  0  0  0  0  0  0  0
  127.0990  128.0410   57.1360 C   0  0  0  0  0  0  0  0  0  0  0  0
  126.4340  128.4570   56.2850 N   0  0  0  0  0  0  0  0  0  0  0  0
  128.8630  126.4710   57.9870 C   0  0  0  0  0  0  0  0  0  0  0  0
  129.0590  125.6300   56.4300 S   0  0  0  0  0  0  0  0  0  0  0  0
  128.7780  123.8500   56.7130 C   0  0  0  0  0  0  0  0  0  0  0  0
  127.5590  123.5150   57.5850 C   0  0  0  0  0  0  0  0  0  0  0  0
  126.6400  122.8220   57.1430 O   0  0  0  0  0  0  0  0  0  0  0  0
  127.5970  124.0390   58.8310 N   0  0  0  0  0  0  0  0  0  0  0  0
  126.6400  123.9020   59.8300 C   0  0  0  0  0  0  0  0  0  0  0  0
  125.2890  124.1810   59.6340 C   0  0  0  0  0  0  0  0  0  0  0  0
  124.6900  123.9220   60.8460 C   0  0  0  0  0  0  0  0  0  0  0  0
  125.6330  123.5050   61.7250 O   0  0  0  0  0  0  0  0  0  0  0  0
  126.8640  123.4960   61.0690 N   0  0  0  0  0  0  0  0  0  0  0  0
  129.7210  126.0410   58.9440 N   0  0  0  0  0  0  0  0  0  0  0  0
  130.4350  126.1680   62.5700 C   0  0  0  0  0  0  0  0  0  0  0  0
  131.3420  125.6680   63.4990 C   0  0  0  0  0  0  0  0  0  0  0  0
  133.4006  124.1900   65.9591 H   0  0  0  0  0  0  0  0  0  0  0  0
  134.5884  125.4127   65.3927 H   0  0  0  0  0  0  0  0  0  0  0  0
  132.8338  125.7976   65.3927 H   0  0  0  0  0  0  0  0  0  0  0  0
  133.6603  124.3965   61.3508 H   0  0  0  0  0  0  0  0  0  0  0  0
  132.0457  125.2958   59.7011 H   0  0  0  0  0  0  0  0  0  0  0  0
  128.7647  128.0501   61.4923 H   0  0  0  0  0  0  0  0  0  0  0  0
  126.1275  128.0851   61.5790 H   0  0  0  0  0  0  0  0  0  0  0  0
  124.5497  129.8899   62.2270 H   0  0  0  0  0  0  0  0  0  0  0  0
  124.5498  134.1219   61.6559 H   0  0  0  0  0  0  0  0  0  0  0  0
  125.3818  133.6276   60.1426 H   0  0  0  0  0  0  0  0  0  0  0  0
  123.6069  133.9038   60.1426 H   0  0  0  0  0  0  0  0  0  0  0  0
  125.9656  132.3108   58.9389 H   0  0  0  0  0  0  0  0  0  0  0  0
  127.5429  130.5023   58.2921 H   0  0  0  0  0  0  0  0  0  0  0  0
  128.6406  123.3666   55.7345 H   0  0  0  0  0  0  0  0  0  0  0  0
  129.6581  123.4837   57.2619 H   0  0  0  0  0  0  0  0  0  0  0  0
  128.4100  124.5820   59.0800 H   0  0  0  0  0  0  0  0  0  0  0  0
  124.8056  124.5323   58.7104 H   0  0  0  0  0  0  0  0  0  0  0  0
  123.6181  124.0353   61.0656 H   0  0  0  0  0  0  0  0  0  0  0  0
  129.5221  126.6695   62.9237 H   0  0  0  0  0  0  0  0  0  0  0  0
  131.1407  125.7778   64.5748 H   0  0  0  0  0  0  0  0  0  0  0  0
  1  2  1  0
  2  3  1  0
  3  4  2  0
  4  5  1  0
  5  6  2  0
  6  7  1  0
  7  8  2  0
  8  9  1  0
  9 10  1  0
 10 11  2  0
 11 12  1  0
 12 13  2  0
 13 14  1  0
 14 15  1  0
 13 16  1  0
 16 17  2  0
  9 18  2  0
 18 19  1  0
 19 20  3  0
 18 21  1  0
 21 22  1  0
 22 23  1  0
 23 24  1  0
 24 25  2  0
 24 26  1  0
 26 27  1  0
 27 28  1  0
 28 29  2  0
 29 30  1  0
 30 31  1  0
 21 32  2  0
  6 33  1  0
 33 34  2  0
 34  3  1  0
 32  7  1  0
 17 10  1  0
 31 27  2  0
  1 35  1  0
  1 36  1  0
  1 37  1  0
  4 38  1  0
  5 39  1  0
  8 40  1  0
 11 41  1  0
 12 42  1  0
 15 43  1  0
 15 44  1  0
 15 45  1  0
 16 46  1  0
 17 47  1  0
 23 48  1  0
 23 49  1  0
 26 50  1  0
 28 51  1  0
 29 52  1  0
 33 53  1  0
 34 54  1  0
M  END
>  <Binding energies>  (1) 
[-7.1]

>  <Ligand effiencies>  (1) 
[-0.20285714285714285]

>  <Interactions>  (1) 
["V-A:HIS:456:CE1:4068, V-B:GLU:543:CD:9880, H-A:GLY:454:N:4048, V-A:ARG:545:CZ:4924, V-A:ARG:545:CG:4920, H-A:TYR:484:OH:4346, V-A:ARG:545:CD:4921, V-B:TYR:539:CZ:9849, V-B:PRO:540:CA:9855, V-B:TYR:539:C:9839, V-A:ASP:366:CG:3211, V-A:GLY:454:CA:4047, V-B:TYR:539:CE1:9847, V-B:TYR:539:CE2:9848, V-B:PRO:540:N:9856, V-B:PRO:540:CB:9857, V-B:ASP:366:CG:8185, H-B:ARG:545:NH2:9900, H-B:ALA:541:N:9863, V-B:ASN:362:CB:8148, V-A:TYR:539:CE2:4874, V-B:ILE:369:CG2:8209, H-B:TYR:531:OH:9767, H-B:TYR:539:N:9842"]

$$$$
1b_Grossjean_2025
     RDKit          3D

 42 43  0  0  0  0  0  0  0  0999 V2000
  129.1570  125.6120   72.2810 C   0  0  0  0  0  0  0  0  0  0  0  0
  128.6090  126.8580   72.6920 O   0  0  0  0  0  0  0  0  0  0  0  0
  128.7790  127.9770   71.9410 C   0  0  0  0  0  0  0  0  0  0  0  0
  128.6220  129.1210   72.3790 O   0  0  0  0  0  0  0  0  0  0  0  0
  129.1860  127.6850   70.5250 C   0  0  0  0  0  0  0  0  0  0  0  0
  130.5330  127.6030   70.1410 C   0  0  0  0  0  0  0  0  0  0  0  0
  130.8760  127.3320   68.8200 C   0  0  0  0  0  0  0  0  0  0  0  0
  129.8860  127.1370   67.8570 C   0  0  0  0  0  0  0  0  0  0  0  0
  130.3480  126.8710   66.5540 N   0  0  0  0  0  0  0  0  0  0  0  0
  130.6210  125.6930   65.9500 C   0  0  0  0  0  0  0  0  0  0  0  0
  130.5010  124.5820   66.4640 O   0  0  0  0  0  0  0  0  0  0  0  0
  131.1080  125.7960   64.5040 C   0  0  0  0  0  0  0  0  0  0  0  0
  132.6930  124.9410   64.2520 S   0  0  0  0  0  0  0  0  0  0  0  0
  132.5090  123.8920   62.8260 C   0  0  0  0  0  0  0  0  0  0  0  0
  133.3480  124.2030   61.8060 N   0  0  0  0  0  0  0  0  0  0  0  0
  133.2940  123.4670   60.6720 C   0  0  0  0  0  0  0  0  0  0  0  0
  134.2710  123.8630   59.5800 C   0  0  0  0  0  0  0  0  0  0  0  0
  132.4030  122.4090   60.5050 C   0  0  0  0  0  0  0  0  0  0  0  0
  131.5190  122.0940   61.5420 C   0  0  0  0  0  0  0  0  0  0  0  0
  130.5410  120.9400   61.3290 C   0  0  0  0  0  0  0  0  0  0  0  0
  131.5580  122.8490   62.7360 C   0  0  0  0  0  0  0  0  0  0  0  0
  130.6120  122.5670   63.8180 C   0  0  0  0  0  0  0  0  0  0  0  0
  129.8640  122.3410   64.6710 N   0  0  0  0  0  0  0  0  0  0  0  0
  128.5370  127.2160   68.2320 C   0  0  0  0  0  0  0  0  0  0  0  0
  128.1950  127.4870   69.5540 C   0  0  0  0  0  0  0  0  0  0  0  0
  129.4190  125.0163   73.1678 H   0  0  0  0  0  0  0  0  0  0  0  0
  128.4158  125.0663   71.6786 H   0  0  0  0  0  0  0  0  0  0  0  0
  130.0601  125.7895   71.6786 H   0  0  0  0  0  0  0  0  0  0  0  0
  131.3241  127.7541   70.8902 H   0  0  0  0  0  0  0  0  0  0  0  0
  131.9361  127.2711   68.5329 H   0  0  0  0  0  0  0  0  0  0  0  0
  130.5080  127.6990   65.9990 H   0  0  0  0  0  0  0  0  0  0  0  0
  130.3531  125.3454   63.8428 H   0  0  0  0  0  0  0  0  0  0  0  0
  131.2576  126.8609   64.2725 H   0  0  0  0  0  0  0  0  0  0  0  0
  135.1985  124.2389   60.0365 H   0  0  0  0  0  0  0  0  0  0  0  0
  134.4987  122.9862   58.9560 H   0  0  0  0  0  0  0  0  0  0  0  0
  133.8239  124.6509   58.9560 H   0  0  0  0  0  0  0  0  0  0  0  0
  132.3949  121.8293   59.5702 H   0  0  0  0  0  0  0  0  0  0  0  0
  130.2128  120.5527   62.3048 H   0  0  0  0  0  0  0  0  0  0  0  0
  129.6678  121.2988   60.7644 H   0  0  0  0  0  0  0  0  0  0  0  0
  131.0382  120.1375   60.7644 H   0  0  0  0  0  0  0  0  0  0  0  0
  127.7481  127.0637   67.4807 H   0  0  0  0  0  0  0  0  0  0  0  0
  127.1344  127.5464   69.8398 H   0  0  0  0  0  0  0  0  0  0  0  0
  1  2  1  0
  2  3  1  0
  3  4  2  0
  3  5  1  0
  5  6  2  0
  6  7  1  0
  7  8  2  0
  8  9  1  0
  9 10  1  0
 10 11  2  0
 10 12  1  0
 12 13  1  0
 13 14  1  0
 14 15  2  0
 15 16  1  0
 16 17  1  0
 16 18  2  0
 18 19  1  0
 19 20  1  0
 19 21  2  0
 21 22  1  0
 22 23  3  0
  8 24  1  0
 24 25  2  0
 25  5  1  0
 21 14  1  0
  1 26  1  0
  1 27  1  0
  1 28  1  0
  6 29  1  0
  7 30  1  0
  9 31  1  0
 12 32  1  0
 12 33  1  0
 17 34  1  0
 17 35  1  0
 17 36  1  0
 18 37  1  0
 20 38  1  0
 20 39  1  0
 20 40  1  0
 24 41  1  0
 25 42  1  0
M  END
>  <Binding energies>  (1) 
[-7.56]

>  <Ligand effiencies>  (1) 
[-0.2907692307692308]

>  <Interactions>  (1) 
["V-B:GLU:543:CB:9878, V-A:HIS:456:CE1:4068, V-A:HIS:456:CD2:4066, V-B:GLU:543:CD:9880, V-A:GLU:543:CD:4906, V-B:HIS:456:CE1:9042, V-A:GLY:544:CA:4912, H-A:LYS:547:NZ:4949, V-B:GLY:544:C:9884, V-A:GLY:544:C:4910, V-B:HIS:456:CD2:9040, V-B:GLU:543:CG:9879, V-A:GLU:543:CG:4905, H-B:LYS:547:NZ:9923, V-B:GLU:543:C:9874, V-A:ARG:545:CG:4920, H-A:TYR:484:OH:4346, V-A:TYR:484:CZ:4345, V-B:LYS:547:CE:9922, V-B:GLY:544:CA:9886, H-A:ARG:545:NE:4922, V-A:GLU:543:C:4900, V-A:ILE:369:CD1:3237, V-A:LEU:475:CD2:4257, V-A:ASP:366:CG:3211, V-B:ALA:541:CB:9864, V-B:TYR:539:CE2:9848, V-A:ILE:369:CG2:3235, V-A:ASP:366:CA:3208, V-A:ASP:366:CB:3210, V-A:ILE:369:CB:3234, H-A:GLU:543:OE2:4908, H-A:GLU:543:OE1:4907, V-A:TYR:484:CE1:4343"]

$$$$
1c_Ghoteimi_2023
     RDKit          3D

 54 57  0  0  0  0  0  0  0  0999 V2000
  125.1620  133.2950   61.1810 C   0  0  0  0  0  0  0  0  0  0  0  0
  125.9600  133.0510   60.0280 O   0  0  0  0  0  0  0  0  0  0  0  0
  126.1530  131.7500   59.6040 C   0  0  0  0  0  0  0  0  0  0  0  0
  127.4330  131.2250   59.7600 C   0  0  0  0  0  0  0  0  0  0  0  0
  127.7180  129.9230   59.3570 C   0  0  0  0  0  0  0  0  0  0  0  0
  126.7310  129.1070   58.7850 C   0  0  0  0  0  0  0  0  0  0  0  0
  127.0350  127.7040   58.3450 C   0  0  0  0  0  0  0  0  0  0  0  0
  128.3400  127.2420   58.1400 C   0  0  0  0  0  0  0  0  0  0  0  0
  128.5760  125.9170   57.7560 C   0  0  0  0  0  0  0  0  0  0  0  0
  129.9950  125.4740   57.6210 C   0  0  0  0  0  0  0  0  0  0  0  0
  130.5630  124.6090   58.5620 C   0  0  0  0  0  0  0  0  0  0  0  0
  131.8920  124.2150   58.4460 C   0  0  0  0  0  0  0  0  0  0  0  0
  132.6800  124.6790   57.3930 C   0  0  0  0  0  0  0  0  0  0  0  0
  133.9880  124.2350   57.3590 O   0  0  0  0  0  0  0  0  0  0  0  0
  134.6360  123.8850   58.5780 C   0  0  0  0  0  0  0  0  0  0  0  0
  132.1160  125.5520   56.4510 C   0  0  0  0  0  0  0  0  0  0  0  0
  130.7860  125.9460   56.5680 C   0  0  0  0  0  0  0  0  0  0  0  0
  127.4640  125.0670   57.5510 C   0  0  0  0  0  0  0  0  0  0  0  0
  127.6430  123.6770   57.1150 C   0  0  0  0  0  0  0  0  0  0  0  0
  127.7860  122.5810   56.7720 N   0  0  0  0  0  0  0  0  0  0  0  0
  126.1770  125.5920   57.7910 C   0  0  0  0  0  0  0  0  0  0  0  0
  124.7050  124.5930   57.7380 S   0  0  0  0  0  0  0  0  0  0  0  0
  124.5340  123.9250   59.4250 C   0  0  0  0  0  0  0  0  0  0  0  0
  125.8030  124.1280   60.2590 C   0  0  0  0  0  0  0  0  0  0  0  0
  126.4630  123.1490   60.6100 O   0  0  0  0  0  0  0  0  0  0  0  0
  126.1260  125.4160   60.5120 N   0  0  0  0  0  0  0  0  0  0  0  0
  127.2910  125.8760   61.1040 C   0  0  0  0  0  0  0  0  0  0  0  0
  128.4550  125.2670   61.1780 N   0  0  0  0  0  0  0  0  0  0  0  0
  129.3570  126.0190   61.7800 C   0  0  0  0  0  0  0  0  0  0  0  0
  128.9270  127.2720   62.2060 C   0  0  0  0  0  0  0  0  0  0  0  0
  127.2490  127.4660   61.7960 S   0  0  0  0  0  0  0  0  0  0  0  0
  125.9730  126.8720   58.1850 N   0  0  0  0  0  0  0  0  0  0  0  0
  125.4430  129.6440   58.6380 C   0  0  0  0  0  0  0  0  0  0  0  0
  125.1540  130.9450   59.0370 C   0  0  0  0  0  0  0  0  0  0  0  0
  125.7598  133.1122   62.0861 H   0  0  0  0  0  0  0  0  0  0  0  0
  124.8173  134.3396   61.1740 H   0  0  0  0  0  0  0  0  0  0  0  0
  124.2921  132.6218   61.1740 H   0  0  0  0  0  0  0  0  0  0  0  0
  128.2258  131.8440   60.2054 H   0  0  0  0  0  0  0  0  0  0  0  0
  128.7357  129.5272   59.4896 H   0  0  0  0  0  0  0  0  0  0  0  0
  129.1888  127.9271   58.2821 H   0  0  0  0  0  0  0  0  0  0  0  0
  129.9544  124.2377   59.3997 H   0  0  0  0  0  0  0  0  0  0  0  0
  132.3252  123.5316   59.1912 H   0  0  0  0  0  0  0  0  0  0  0  0
  134.0218  124.2167   59.4281 H   0  0  0  0  0  0  0  0  0  0  0  0
  134.7665  122.7937   58.6237 H   0  0  0  0  0  0  0  0  0  0  0  0
  135.6202  124.3742   58.6237 H   0  0  0  0  0  0  0  0  0  0  0  0
  132.7270  125.9267   55.6166 H   0  0  0  0  0  0  0  0  0  0  0  0
  130.3535  126.6340   55.8266 H   0  0  0  0  0  0  0  0  0  0  0  0
  123.6966  124.4342   59.9245 H   0  0  0  0  0  0  0  0  0  0  0  0
  124.3531  122.8431   59.3431 H   0  0  0  0  0  0  0  0  0  0  0  0
  125.4960  126.1270   60.1740 H   0  0  0  0  0  0  0  0  0  0  0  0
  130.3901  125.6749   61.9362 H   0  0  0  0  0  0  0  0  0  0  0  0
  129.5491  128.0197   62.7197 H   0  0  0  0  0  0  0  0  0  0  0  0
  124.6469  129.0247   58.1991 H   0  0  0  0  0  0  0  0  0  0  0  0
  124.1373  131.3443   58.9072 H   0  0  0  0  0  0  0  0  0  0  0  0
  1  2  1  0
  2  3  1  0
  3  4  2  0
  4  5  1  0
  5  6  2  0
  6  7  1  0
  7  8  2  0
  8  9  1  0
  9 10  1  0
 10 11  2  0
 11 12  1  0
 12 13  2  0
 13 14  1  0
 14 15  1  0
 13 16  1  0
 16 17  2  0
  9 18  2  0
 18 19  1  0
 19 20  3  0
 18 21  1  0
 21 22  1  0
 22 23  1  0
 23 24  1  0
 24 25  2  0
 24 26  1  0
 26 27  1  0
 27 28  2  0
 28 29  1  0
 29 30  2  0
 30 31  1  0
 21 32  2  0
  6 33  1  0
 33 34  2  0
 34  3  1  0
 32  7  1  0
 17 10  1  0
 31 27  1  0
  1 35  1  0
  1 36  1  0
  1 37  1  0
  4 38  1  0
  5 39  1  0
  8 40  1  0
 11 41  1  0
 12 42  1  0
 15 43  1  0
 15 44  1  0
 15 45  1  0
 16 46  1  0
 17 47  1  0
 23 48  1  0
 23 49  1  0
 26 50  1  0
 29 51  1  0
 30 52  1  0
 33 53  1  0
 34 54  1  0
M  END
>  <Binding energies>  (1) 
[-6.74]

>  <Ligand effiencies>  (1) 
[-0.1925714285714286]

>  <Interactions>  (1) 
["V-B:GLU:543:CD:9880, V-A:GLU:543:CD:4906, V-B:TYR:539:CZ:9849, V-A:ILE:369:CD1:3237, V-B:PRO:540:CA:9855, V-A:ASP:366:CG:3211, V-B:TYR:539:CE2:9848, V-A:ILE:369:CG2:3235, V-B:PRO:540:CB:9857, V-A:ASP:366:CA:3208, V-A:ASP:366:CB:3210, V-A:ASP:366:C:3206, V-A:ILE:369:CG1:3236, V-A:ILE:369:CB:3234, V-B:LEU:475:CD2:9231, V-B:ASP:366:CG:8185, V-A:TYR:531:CZ:4792, H-B:ALA:541:N:9863, V-A:TYR:539:CE2:4874, V-B:ASP:366:CB:8184, H-B:TYR:531:OH:9767, V-A:TYR:539:CD2:4872, V-A:TYR:539:CZ:4875, H-B:TYR:539:OH:9850, V-A:TYR:531:CE1:4790, H-B:ASP:366:OD2:8187, H-B:TYR:539:N:9842, H-B:ASP:366:OD1:8186"]

$$$$
1c_Grossjean_2025
     RDKit          3D

 40 41  0  0  0  0  0  0  0  0999 V2000
  127.1070  128.2860   74.7000 C   0  0  0  0  0  0  0  0  0  0  0  0
  128.4170  127.9460   74.2600 O   0  0  0  0  0  0  0  0  0  0  0  0
  128.6280  127.6680   72.9230 C   0  0  0  0  0  0  0  0  0  0  0  0
  127.6300  128.0760   72.0380 C   0  0  0  0  0  0  0  0  0  0  0  0
  127.7520  127.8420   70.6710 C   0  0  0  0  0  0  0  0  0  0  0  0
  128.8910  127.1940   70.1700 C   0  0  0  0  0  0  0  0  0  0  0  0
  129.1100  126.8980   68.8100 N   0  0  0  0  0  0  0  0  0  0  0  0
  128.9640  127.6900   67.7260 C   0  0  0  0  0  0  0  0  0  0  0  0
  128.6130  128.8690   67.7450 O   0  0  0  0  0  0  0  0  0  0  0  0
  129.2790  127.0270   66.3830 C   0  0  0  0  0  0  0  0  0  0  0  0
  130.9560  126.3290   66.3500 S   0  0  0  0  0  0  0  0  0  0  0  0
  131.3410  125.8720   64.6720 C   0  0  0  0  0  0  0  0  0  0  0  0
  130.3160  126.0790   63.8070 N   0  0  0  0  0  0  0  0  0  0  0  0
  130.4910  125.7680   62.5020 C   0  0  0  0  0  0  0  0  0  0  0  0
  129.3050  126.0370   61.5950 C   0  0  0  0  0  0  0  0  0  0  0  0
  131.6790  125.2320   62.0100 C   0  0  0  0  0  0  0  0  0  0  0  0
  132.7340  124.9910   62.8960 C   0  0  0  0  0  0  0  0  0  0  0  0
  134.0200  124.3870   62.3360 C   0  0  0  0  0  0  0  0  0  0  0  0
  132.5730  125.3060   64.2650 C   0  0  0  0  0  0  0  0  0  0  0  0
  133.6460  125.0100   65.2170 C   0  0  0  0  0  0  0  0  0  0  0  0
  134.4940  124.7760   65.9680 N   0  0  0  0  0  0  0  0  0  0  0  0
  129.8860  126.7740   71.0540 C   0  0  0  0  0  0  0  0  0  0  0  0
  129.7600  127.0100   72.4200 C   0  0  0  0  0  0  0  0  0  0  0  0
  127.0798  128.2930   75.7996 H   0  0  0  0  0  0  0  0  0  0  0  0
  126.8399  129.2832   74.3202 H   0  0  0  0  0  0  0  0  0  0  0  0
  126.3887  127.5445   74.3202 H   0  0  0  0  0  0  0  0  0  0  0  0
  126.7366  128.5884   72.4245 H   0  0  0  0  0  0  0  0  0  0  0  0
  126.9558  128.1650   69.9842 H   0  0  0  0  0  0  0  0  0  0  0  0
  129.4740  125.9730   68.6400 H   0  0  0  0  0  0  0  0  0  0  0  0
  128.5538  126.2190   66.2063 H   0  0  0  0  0  0  0  0  0  0  0  0
  129.2140  127.7960   65.5992 H   0  0  0  0  0  0  0  0  0  0  0  0
  128.4137  126.2392   62.2071 H   0  0  0  0  0  0  0  0  0  0  0  0
  129.5194  126.9093   60.9601 H   0  0  0  0  0  0  0  0  0  0  0  0
  129.1220  125.1575   60.9601 H   0  0  0  0  0  0  0  0  0  0  0  0
  131.7858  125.0016   60.9397 H   0  0  0  0  0  0  0  0  0  0  0  0
  134.6730  124.0803   63.1664 H   0  0  0  0  0  0  0  0  0  0  0  0
  133.7748  123.5099   61.7191 H   0  0  0  0  0  0  0  0  0  0  0  0
  134.5385  125.1358   61.7191 H   0  0  0  0  0  0  0  0  0  0  0  0
  130.7752  126.2533   70.6689 H   0  0  0  0  0  0  0  0  0  0  0  0
  130.5518  126.6790   73.1081 H   0  0  0  0  0  0  0  0  0  0  0  0
  1  2  1  0
  2  3  1  0
  3  4  2  0
  4  5  1  0
  5  6  2  0
  6  7  1  0
  7  8  1  0
  8  9  2  0
  8 10  1  0
 10 11  1  0
 11 12  1  0
 12 13  2  0
 13 14  1  0
 14 15  1  0
 14 16  2  0
 16 17  1  0
 17 18  1  0
 17 19  2  0
 19 20  1  0
 20 21  3  0
  6 22  1  0
 22 23  2  0
 23  3  1  0
 19 12  1  0
  1 24  1  0
  1 25  1  0
  1 26  1  0
  4 27  1  0
  5 28  1  0
  7 29  1  0
 10 30  1  0
 10 31  1  0
 15 32  1  0
 15 33  1  0
 15 34  1  0
 16 35  1  0
 18 36  1  0
 18 37  1  0
 18 38  1  0
 22 39  1  0
 23 40  1  0
M  END
>  <Binding energies>  (1) 
[-7.03]

>  <Ligand effiencies>  (1) 
[-0.29291666666666666]

>  <Interactions>  (1) 
["V-B:GLU:543:CB:9878, V-A:HIS:456:CE1:4068, V-A:HIS:456:CD2:4066, V-B:GLU:543:CD:9880, H-A:HIS:456:NE2:4069, V-A:GLU:543:CD:4906, V-B:HIS:456:CE1:9042, H-A:LYS:547:NZ:4949, V-B:GLY:544:C:9884, H-B:GLU:543:O:9875, V-B:HIS:456:CD2:9040, V-B:GLU:543:CG:9879, V-A:GLU:543:CG:4905, H-A:GLY:454:N:4048, H-B:LYS:547:NZ:9923, V-B:GLU:543:C:9874, V-A:ARG:545:CZ:4924, V-A:ARG:545:CG:4920, V-A:LYS:547:CE:4948, H-A:TYR:484:OH:4346, V-A:ARG:545:CD:4921, V-B:LYS:547:CE:9922, H-A:ARG:545:NE:4922, V-A:GLY:453:C:4040, V-A:GLY:453:CA:4042, V-A:GLY:454:CA:4047, V-B:HIS:456:CG:9038, V-B:LYS:547:CD:9921, H-A:ILE:455:N:4053"]

$$$$
1d_Ghoteimi_2023
     RDKit          3D

 50 52  0  0  0  0  0  0  0  0999 V2000
  125.0030  123.4410   56.2970 C   0  0  0  0  0  0  0  0  0  0  0  0
  126.2020  122.7280   56.5600 O   0  0  0  0  0  0  0  0  0  0  0  0
  127.1670  123.2710   57.3320 C   0  0  0  0  0  0  0  0  0  0  0  0
  128.2120  122.7220   57.6850 O   0  0  0  0  0  0  0  0  0  0  0  0
  126.8340  124.6980   57.7580 C   0  0  0  0  0  0  0  0  0  0  0  0
  126.0800  124.6140   59.4100 S   0  0  0  0  0  0  0  0  0  0  0  0
  127.0660  125.6320   60.4850 C   0  0  0  0  0  0  0  0  0  0  0  0
  126.5310  126.8530   60.7220 N   0  0  0  0  0  0  0  0  0  0  0  0
  127.1820  127.7340   61.5240 C   0  0  0  0  0  0  0  0  0  0  0  0
  126.5180  129.0630   61.7410 C   0  0  0  0  0  0  0  0  0  0  0  0
  126.2650  129.9350   60.6690 C   0  0  0  0  0  0  0  0  0  0  0  0
  125.6560  131.1690   60.8730 C   0  0  0  0  0  0  0  0  0  0  0  0
  125.2820  131.5730   62.1520 C   0  0  0  0  0  0  0  0  0  0  0  0
  124.6860  132.8150   62.2600 O   0  0  0  0  0  0  0  0  0  0  0  0
  123.8880  133.2970   61.1840 C   0  0  0  0  0  0  0  0  0  0  0  0
  125.5280  130.7140   63.2320 C   0  0  0  0  0  0  0  0  0  0  0  0
  126.1360  129.4800   63.0250 C   0  0  0  0  0  0  0  0  0  0  0  0
  128.4010  127.3890   62.1200 C   0  0  0  0  0  0  0  0  0  0  0  0
  128.9850  126.1390   61.8790 C   0  0  0  0  0  0  0  0  0  0  0  0
  130.2910  125.8400   62.5410 C   0  0  0  0  0  0  0  0  0  0  0  0
  131.4120  125.5160   61.7710 C   0  0  0  0  0  0  0  0  0  0  0  0
  132.6320  125.2360   62.3810 C   0  0  0  0  0  0  0  0  0  0  0  0
  132.7580  125.2790   63.7690 C   0  0  0  0  0  0  0  0  0  0  0  0
  134.0030  124.9800   64.2870 O   0  0  0  0  0  0  0  0  0  0  0  0
  134.1940  125.0030   65.6970 C   0  0  0  0  0  0  0  0  0  0  0  0
  131.6380  125.6150   64.5460 C   0  0  0  0  0  0  0  0  0  0  0  0
  130.4200  125.8960   63.9330 C   0  0  0  0  0  0  0  0  0  0  0  0
  128.3120  125.2350   61.0200 C   0  0  0  0  0  0  0  0  0  0  0  0
  128.9270  123.9560   60.6520 C   0  0  0  0  0  0  0  0  0  0  0  0
  129.4120  122.9470   60.3610 N   0  0  0  0  0  0  0  0  0  0  0  0
  124.5282  123.7234   57.2482 H   0  0  0  0  0  0  0  0  0  0  0  0
  125.2349  124.3480   55.7195 H   0  0  0  0  0  0  0  0  0  0  0  0
  124.3168  122.8041   55.7195 H   0  0  0  0  0  0  0  0  0  0  0  0
  127.7521  125.3028   57.7946 H   0  0  0  0  0  0  0  0  0  0  0  0
  126.1433  125.1651   57.0405 H   0  0  0  0  0  0  0  0  0  0  0  0
  126.5536  129.6368   59.6503 H   0  0  0  0  0  0  0  0  0  0  0  0
  125.4681  131.8320   60.0156 H   0  0  0  0  0  0  0  0  0  0  0  0
  123.0116  133.8264   61.5860 H   0  0  0  0  0  0  0  0  0  0  0  0
  124.4823  133.9873   60.5673 H   0  0  0  0  0  0  0  0  0  0  0  0
  123.5536  132.4497   60.5673 H   0  0  0  0  0  0  0  0  0  0  0  0
  125.2387  131.0174   64.2490 H   0  0  0  0  0  0  0  0  0  0  0  0
  126.3208  128.8186   63.8843 H   0  0  0  0  0  0  0  0  0  0  0  0
  128.9050  128.1067   62.7840 H   0  0  0  0  0  0  0  0  0  0  0  0
  131.3296  125.4820   60.6746 H   0  0  0  0  0  0  0  0  0  0  0  0
  133.5043  124.9785   61.7623 H   0  0  0  0  0  0  0  0  0  0  0  0
  133.2230  124.8861   66.2005 H   0  0  0  0  0  0  0  0  0  0  0  0
  134.8607  124.1786   65.9902 H   0  0  0  0  0  0  0  0  0  0  0  0
  134.6459  125.9621   65.9902 H   0  0  0  0  0  0  0  0  0  0  0  0
  131.7230  125.6563   65.6419 H   0  0  0  0  0  0  0  0  0  0  0  0
  129.5497  126.1649   64.5497 H   0  0  0  0  0  0  0  0  0  0  0  0
  1  2  1  0
  2  3  1  0
  3  4  2  0
  3  5  1  0
  5  6  1  0
  6  7  1  0
  7  8  2  0
  8  9  1  0
  9 10  1  0
 10 11  2  0
 11 12  1  0
 12 13  2  0
 13 14  1  0
 14 15  1  0
 13 16  1  0
 16 17  2  0
  9 18  2  0
 18 19  1  0
 19 20  1  0
 20 21  2  0
 21 22  1  0
 22 23  2  0
 23 24  1  0
 24 25  1  0
 23 26  1  0
 26 27  2  0
 19 28  2  0
 28 29  1  0
 29 30  3  0
 28  7  1  0
 17 10  1  0
 27 20  1  0
  1 31  1  0
  1 32  1  0
  1 33  1  0
  5 34  1  0
  5 35  1  0
 11 36  1  0
 12 37  1  0
 15 38  1  0
 15 39  1  0
 15 40  1  0
 16 41  1  0
 17 42  1  0
 18 43  1  0
 21 44  1  0
 22 45  1  0
 25 46  1  0
 25 47  1  0
 25 48  1  0
 26 49  1  0
 27 50  1  0
M  END
>  <Binding energies>  (1) 
[-6.24]

>  <Ligand effiencies>  (1) 
[-0.20800000000000002]

>  <Interactions>  (1) 
["V-B:ARG:545:CZ:9898, V-A:HIS:456:CE1:4068, V-B:GLU:543:CD:9880, H-A:GLY:454:N:4048, V-A:ARG:545:CZ:4924, V-A:ARG:545:CG:4920, H-A:TYR:484:OH:4346, V-A:ARG:545:CD:4921, H-A:ARG:545:NH1:4925, H-A:ARG:545:NE:4922, V-A:GLY:453:C:4040, V-B:PRO:540:CA:9855, V-A:GLY:453:CA:4042, V-B:TYR:539:C:9839, V-A:GLY:454:CA:4047, V-B:PRO:540:CD:9859, V-B:PRO:540:N:9856, V-B:LEU:475:CD2:9231, V-B:ILE:369:CD1:8211, H-B:ARG:545:NH2:9900, V-B:ILE:369:CG2:8209, V-B:ILE:538:CB:9834, V-B:TYR:531:CE2:9765, H-B:TYR:539:N:9842"]

$$$$
1d_Grossjean_2025
     RDKit          3D

 36 37  0  0  0  0  0  0  0  0999 V2000
  128.9550  132.4610   73.5630 C   0  0  0  0  0  0  0  0  0  0  0  0
  127.9040  131.4110   73.8660 C   0  0  0  0  0  0  0  0  0  0  0  0
  126.7900  131.6990   74.6510 C   0  0  0  0  0  0  0  0  0  0  0  0
  125.8470  130.6930   74.8900 C   0  0  0  0  0  0  0  0  0  0  0  0
  124.6260  131.0370   75.7400 C   0  0  0  0  0  0  0  0  0  0  0  0
  126.0520  129.4080   74.3360 C   0  0  0  0  0  0  0  0  0  0  0  0
  125.0550  128.3530   74.5320 C   0  0  0  0  0  0  0  0  0  0  0  0
  124.2650  127.5220   74.6890 N   0  0  0  0  0  0  0  0  0  0  0  0
  127.2250  129.1990   73.5720 C   0  0  0  0  0  0  0  0  0  0  0  0
  127.6420  127.6490   72.8040 S   0  0  0  0  0  0  0  0  0  0  0  0
  129.4060  127.7180   72.3670 C   0  0  0  0  0  0  0  0  0  0  0  0
  130.1770  126.5040   72.8910 C   0  0  0  0  0  0  0  0  0  0  0  0
  129.6870  125.3820   72.7650 O   0  0  0  0  0  0  0  0  0  0  0  0
  131.3790  126.7770   73.4420 N   0  0  0  0  0  0  0  0  0  0  0  0
  132.3210  125.9100   74.0260 C   0  0  0  0  0  0  0  0  0  0  0  0
  131.7970  124.7620   74.6270 C   0  0  0  0  0  0  0  0  0  0  0  0
  132.6420  123.8350   75.2300 C   0  0  0  0  0  0  0  0  0  0  0  0
  134.0180  124.0510   75.2260 C   0  0  0  0  0  0  0  0  0  0  0  0
  134.5550  125.1870   74.6230 C   0  0  0  0  0  0  0  0  0  0  0  0
  133.7110  126.1160   74.0210 C   0  0  0  0  0  0  0  0  0  0  0  0
  128.1220  130.1880   73.3290 N   0  0  0  0  0  0  0  0  0  0  0  0
  129.3558  132.8614   74.5059 H   0  0  0  0  0  0  0  0  0  0  0  0
  129.7706  132.0063   72.9816 H   0  0  0  0  0  0  0  0  0  0  0  0
  128.5011  133.2771   72.9816 H   0  0  0  0  0  0  0  0  0  0  0  0
  126.6533  132.7038   75.0774 H   0  0  0  0  0  0  0  0  0  0  0  0
  124.8885  130.9631   76.8057 H   0  0  0  0  0  0  0  0  0  0  0  0
  124.2985  132.0624   75.5133 H   0  0  0  0  0  0  0  0  0  0  0  0
  123.8114  130.3334   75.5133 H   0  0  0  0  0  0  0  0  0  0  0  0
  129.4990  127.7513   71.2714 H   0  0  0  0  0  0  0  0  0  0  0  0
  129.8351  128.6180   72.8316 H   0  0  0  0  0  0  0  0  0  0  0  0
  131.6640  127.7460   73.4290 H   0  0  0  0  0  0  0  0  0  0  0  0
  130.7105  124.5902   74.6234 H   0  0  0  0  0  0  0  0  0  0  0  0
  132.2251  122.9360   75.7075 H   0  0  0  0  0  0  0  0  0  0  0  0
  134.6864  123.3189   75.7027 H   0  0  0  0  0  0  0  0  0  0  0  0
  135.6430  125.3491   74.6228 H   0  0  0  0  0  0  0  0  0  0  0  0
  134.1323  127.0117   73.5412 H   0  0  0  0  0  0  0  0  0  0  0  0
  1  2  1  0
  2  3  2  0
  3  4  1  0
  4  5  1  0
  4  6  2  0
  6  7  1  0
  7  8  3  0
  6  9  1  0
  9 10  1  0
 10 11  1  0
 11 12  1  0
 12 13  2  0
 12 14  1  0
 14 15  1  0
 15 16  2  0
 16 17  1  0
 17 18  2  0
 18 19  1  0
 19 20  2  0
  9 21  2  0
 21  2  1  0
 20 15  1  0
  1 22  1  0
  1 23  1  0
  1 24  1  0
  3 25  1  0
  5 26  1  0
  5 27  1  0
  5 28  1  0
 11 29  1  0
 11 30  1  0
 14 31  1  0
 16 32  1  0
 17 33  1  0
 18 34  1  0
 19 35  1  0
 20 36  1  0
M  END
>  <Binding energies>  (1) 
[-8.4]

>  <Ligand effiencies>  (1) 
[-0.38181818181818183]

>  <Interactions>  (1) 
["H-A:LYS:547:NZ:4949, V-A:GLY:544:C:4910, V-B:HIS:456:CD2:9040, H-B:LYS:547:NZ:9923, V-A:LYS:547:CE:4948, V-A:HIS:456:CG:4064, V-A:HIS:456:CB:4063, V-B:LYS:547:CE:9922, V-A:HIS:456:C:4059, V-A:LYS:471:CE:4218, V-A:HIS:456:CA:4061, V-B:HIS:456:CG:9038, H-A:GLY:544:O:4911, V-A:VAL:457:C:4071, V-A:VAL:458:CG2:4085, V-B:HIS:456:CB:9037, V-A:LYS:471:CD:4217, V-A:LYS:471:CG:4216, V-B:VAL:458:CG2:9059, V-B:HIS:456:C:9033, V-B:LYS:471:CE:9192, V-A:VAL:457:CA:4073, V-B:LYS:471:CG:9190, V-B:LYS:471:CD:9191, V-B:ASP:473:CG:9212"]

$$$$
1e_Grossjean_2025
     RDKit          3D

 38 39  0  0  0  0  0  0  0  0999 V2000
  134.4630  125.0060   66.3760 C   0  0  0  0  0  0  0  0  0  0  0  0
  133.4000  125.0980   65.2980 C   0  0  0  0  0  0  0  0  0  0  0  0
  132.0740  125.4150   65.6040 C   0  0  0  0  0  0  0  0  0  0  0  0
  131.1500  125.4790   64.5600 C   0  0  0  0  0  0  0  0  0  0  0  0
  131.5670  125.2270   63.2510 C   0  0  0  0  0  0  0  0  0  0  0  0
  132.9130  124.9200   63.0140 C   0  0  0  0  0  0  0  0  0  0  0  0
  133.2710  124.6650   61.6790 N   0  0  0  0  0  0  0  0  0  0  0  0
  133.7100  123.5100   61.1320 C   0  0  0  0  0  0  0  0  0  0  0  0
  133.8820  122.4570   61.7480 O   0  0  0  0  0  0  0  0  0  0  0  0
  134.0340  123.5620   59.6380 C   0  0  0  0  0  0  0  0  0  0  0  0
  132.5710  123.9700   58.6380 S   0  0  0  0  0  0  0  0  0  0  0  0
  131.1230  123.3350   59.4600 C   0  0  0  0  0  0  0  0  0  0  0  0
  131.2280  122.0250   59.8000 N   0  0  0  0  0  0  0  0  0  0  0  0
  130.1870  121.4290   60.4290 C   0  0  0  0  0  0  0  0  0  0  0  0
  130.3800  119.9680   60.7850 C   0  0  0  0  0  0  0  0  0  0  0  0
  129.0060  122.1040   60.7300 C   0  0  0  0  0  0  0  0  0  0  0  0
  128.8780  123.4470   60.3620 C   0  0  0  0  0  0  0  0  0  0  0  0
  127.5650  124.1580   60.6870 C   0  0  0  0  0  0  0  0  0  0  0  0
  129.9500  124.0890   59.7010 C   0  0  0  0  0  0  0  0  0  0  0  0
  129.8090  125.4770   59.2570 C   0  0  0  0  0  0  0  0  0  0  0  0
  129.6960  126.5750   58.9060 N   0  0  0  0  0  0  0  0  0  0  0  0
  133.8210  124.8510   64.0320 N   0  0  0  0  0  0  0  0  0  0  0  0
  133.9856  125.0473   67.3662 H   0  0  0  0  0  0  0  0  0  0  0  0
  135.0097  124.0572   66.2718 H   0  0  0  0  0  0  0  0  0  0  0  0
  135.1646  125.8468   66.2718 H   0  0  0  0  0  0  0  0  0  0  0  0
  131.7660  125.6093   66.6420 H   0  0  0  0  0  0  0  0  0  0  0  0
  130.0984  125.7267   64.7670 H   0  0  0  0  0  0  0  0  0  0  0  0
  130.8491  125.2690   62.4186 H   0  0  0  0  0  0  0  0  0  0  0  0
  133.2400  125.4710   61.0710 H   0  0  0  0  0  0  0  0  0  0  0  0
  134.8052  124.3278   59.4682 H   0  0  0  0  0  0  0  0  0  0  0  0
  134.3880  122.5665   59.3321 H   0  0  0  0  0  0  0  0  0  0  0  0
  130.3948  119.8561   61.8792 H   0  0  0  0  0  0  0  0  0  0  0  0
  129.5522  119.3763   60.3671 H   0  0  0  0  0  0  0  0  0  0  0  0
  131.3330  119.6116   60.3671 H   0  0  0  0  0  0  0  0  0  0  0  0
  128.1856  121.5877   61.2499 H   0  0  0  0  0  0  0  0  0  0  0  0
  127.4439  124.2236   61.7783 H   0  0  0  0  0  0  0  0  0  0  0  0
  127.5806  125.1709   60.2583 H   0  0  0  0  0  0  0  0  0  0  0  0
  126.7253  123.5913   60.2583 H   0  0  0  0  0  0  0  0  0  0  0  0
  1  2  1  0
  2  3  2  0
  3  4  1  0
  4  5  2  0
  5  6  1  0
  6  7  1  0
  7  8  1  0
  8  9  2  0
  8 10  1  0
 10 11  1  0
 11 12  1  0
 12 13  2  0
 13 14  1  0
 14 15  1  0
 14 16  2  0
 16 17  1  0
 17 18  1  0
 17 19  2  0
 19 20  1  0
 20 21  3  0
  6 22  2  0
 22  2  1  0
 19 12  1  0
  1 23  1  0
  1 24  1  0
  1 25  1  0
  3 26  1  0
  4 27  1  0
  5 28  1  0
  7 29  1  0
 10 30  1  0
 10 31  1  0
 15 32  1  0
 15 33  1  0
 15 34  1  0
 16 35  1  0
 18 36  1  0
 18 37  1  0
 18 38  1  0
M  END
>  <Binding energies>  (1) 
[-6.9]

>  <Ligand effiencies>  (1) 
[-0.3]

>  <Interactions>  (1) 
["V-A:HIS:456:CE1:4068, V-B:GLU:543:CD:9880, H-A:GLY:454:N:4048, V-A:ARG:545:CZ:4924, V-A:ARG:545:CG:4920, H-A:TYR:484:OH:4346, V-A:ARG:545:CD:4921, H-A:ARG:545:NH1:4925, H-A:ARG:545:NE:4922, V-A:GLY:453:C:4040, V-A:ILE:369:CD1:3237, V-A:LEU:475:CD2:4257, V-A:TRP:381:CH2:3370, V-A:GLY:453:CA:4042, V-B:ALA:541:CA:9862, V-A:ASP:366:CG:3211, V-A:GLY:454:CA:4047, V-B:ALA:541:CB:9864, V-B:TYR:539:CD2:9846, V-B:TYR:539:CE2:9848, V-A:ILE:369:CG2:3235, V-A:ILE:369:CB:3234, H-B:TYR:539:OH:9850, V-A:ARG:545:CB:4919, V-A:ILE:455:C:4050, H-A:ASP:366:OD2:3213, H-A:ASP:366:OD1:3212"]

$$$$
1f_Grossjean_2025
     RDKit          3D

 35 36  0  0  0  0  0  0  0  0999 V2000
  129.6030  122.0800   73.5850 C   0  0  0  0  0  0  0  0  0  0  0  0
  130.6260  123.1910   73.7370 C   0  0  0  0  0  0  0  0  0  0  0  0
  131.8080  123.0020   74.4480 C   0  0  0  0  0  0  0  0  0  0  0  0
  132.7070  124.0670   74.5650 C   0  0  0  0  0  0  0  0  0  0  0  0
  133.9890  123.8410   75.3660 C   0  0  0  0  0  0  0  0  0  0  0  0
  132.4000  125.3030   73.9520 C   0  0  0  0  0  0  0  0  0  0  0  0
  133.3030  126.4460   74.1100 C   0  0  0  0  0  0  0  0  0  0  0  0
  134.0170  127.3470   74.2360 N   0  0  0  0  0  0  0  0  0  0  0  0
  131.1890  125.3960   73.2250 C   0  0  0  0  0  0  0  0  0  0  0  0
  130.6350  126.8680   72.3880 S   0  0  0  0  0  0  0  0  0  0  0  0
  128.8100  126.8720   72.3770 C   0  0  0  0  0  0  0  0  0  0  0  0
  128.1580  127.6280   73.5450 C   0  0  0  0  0  0  0  0  0  0  0  0
  128.6800  127.6240   74.6600 O   0  0  0  0  0  0  0  0  0  0  0  0
  126.9960  128.2420   73.2360 N   0  0  0  0  0  0  0  0  0  0  0  0
  126.1470  129.0190   74.0480 C   0  0  0  0  0  0  0  0  0  0  0  0
  126.4800  130.2540   74.6360 C   0  0  0  0  0  0  0  0  0  0  0  0
  125.5350  130.9230   75.4190 C   0  0  0  0  0  0  0  0  0  0  0  0
  124.2790  130.3420   75.5930 C   0  0  0  0  0  0  0  0  0  0  0  0
  123.9320  129.1560   75.0330 N   0  0  0  0  0  0  0  0  0  0  0  0
  124.8600  128.5180   74.2750 C   0  0  0  0  0  0  0  0  0  0  0  0
  130.3130  124.3640   73.1390 N   0  0  0  0  0  0  0  0  0  0  0  0
  129.2855  121.7352   74.5802 H   0  0  0  0  0  0  0  0  0  0  0  0
  128.7303  122.4582   73.0323 H   0  0  0  0  0  0  0  0  0  0  0  0
  130.0518  121.2414   73.0323 H   0  0  0  0  0  0  0  0  0  0  0  0
  132.0315  122.0295   74.9109 H   0  0  0  0  0  0  0  0  0  0  0  0
  133.7613  123.8811   76.4414 H   0  0  0  0  0  0  0  0  0  0  0  0
  134.4082  122.8551   75.1165 H   0  0  0  0  0  0  0  0  0  0  0  0
  134.7201  124.6241   75.1165 H   0  0  0  0  0  0  0  0  0  0  0  0
  128.4749  127.3381   71.4387 H   0  0  0  0  0  0  0  0  0  0  0  0
  128.4984  125.8218   72.4768 H   0  0  0  0  0  0  0  0  0  0  0  0
  126.6680  128.1230   72.2890 H   0  0  0  0  0  0  0  0  0  0  0  0
  127.4779  130.6899   74.4802 H   0  0  0  0  0  0  0  0  0  0  0  0
  125.7769  131.8880   75.8884 H   0  0  0  0  0  0  0  0  0  0  0  0
  123.5372  130.8685   76.2115 H   0  0  0  0  0  0  0  0  0  0  0  0
  124.5862  127.5570   73.8151 H   0  0  0  0  0  0  0  0  0  0  0  0
  1  2  1  0
  2  3  2  0
  3  4  1  0
  4  5  1  0
  4  6  2  0
  6  7  1  0
  7  8  3  0
  6  9  1  0
  9 10  1  0
 10 11  1  0
 11 12  1  0
 12 13  2  0
 12 14  1  0
 14 15  1  0
 15 16  2  0
 16 17  1  0
 17 18  2  0
 18 19  1  0
 19 20  2  0
  9 21  2  0
 21  2  1  0
 20 15  1  0
  1 22  1  0
  1 23  1  0
  1 24  1  0
  3 25  1  0
  5 26  1  0
  5 27  1  0
  5 28  1  0
 11 29  1  0
 11 30  1  0
 14 31  1  0
 16 32  1  0
 17 33  1  0
 18 34  1  0
 20 35  1  0
M  END
>  <Binding energies>  (1) 
[-7.52]

>  <Ligand effiencies>  (1) 
[-0.3418181818181818]

>  <Interactions>  (1) 
["H-B:GLY:544:O:9885, V-A:HIS:456:CD2:4066, H-A:LYS:547:NZ:4949, V-B:GLY:544:C:9884, V-B:HIS:456:CD2:9040, H-B:LYS:547:NZ:9923, V-A:HIS:456:CG:4064, V-A:HIS:456:CB:4063, V-B:LYS:547:CE:9922, V-B:GLY:544:CA:9886, V-A:LYS:547:CD:4947, V-A:HIS:456:C:4059, V-A:LYS:547:CG:4946, V-A:LYS:471:CE:4218, V-A:ASP:473:CG:4238, V-B:HIS:456:CG:9038, H-B:HIS:456:NE2:9043, V-A:VAL:458:CG2:4085, V-B:HIS:456:CB:9037, V-A:LYS:471:CD:4217, V-A:LYS:471:CG:4216, V-B:VAL:458:CG2:9059, V-B:HIS:456:C:9033, V-B:HIS:456:CA:9035, V-B:VAL:457:C:9045, V-B:LYS:471:CE:9192, V-B:LYS:471:CD:9191, H-B:VAL:457:N:9048, H-B:VAL:458:N:9056"]

$$$$
1g_Grossjean_2025
     RDKit          3D

 39 40  0  0  0  0  0  0  0  0999 V2000
  129.9520  126.1070   62.4040 C   0  0  0  0  0  0  0  0  0  0  0  0
  130.8630  125.5200   61.3420 C   0  0  0  0  0  0  0  0  0  0  0  0
  131.8690  124.6110   61.6640 C   0  0  0  0  0  0  0  0  0  0  0  0
  132.6880  124.1160   60.6440 C   0  0  0  0  0  0  0  0  0  0  0  0
  133.7940  123.1320   61.0230 C   0  0  0  0  0  0  0  0  0  0  0  0
  132.4710  124.5410   59.3140 C   0  0  0  0  0  0  0  0  0  0  0  0
  133.3500  124.0760   58.2380 C   0  0  0  0  0  0  0  0  0  0  0  0
  134.0470  123.7080   57.3900 N   0  0  0  0  0  0  0  0  0  0  0  0
  131.4110  125.4470   59.0760 C   0  0  0  0  0  0  0  0  0  0  0  0
  130.9920  126.0760   57.4650 S   0  0  0  0  0  0  0  0  0  0  0  0
  130.4680  124.6610   56.4520 C   0  0  0  0  0  0  0  0  0  0  0  0
  129.3060  123.8990   57.0900 C   0  0  0  0  0  0  0  0  0  0  0  0
  128.9220  122.8360   56.5990 O   0  0  0  0  0  0  0  0  0  0  0  0
  128.7540  124.4580   58.1810 N   0  0  0  0  0  0  0  0  0  0  0  0
  127.6760  123.8760   58.9800 C   0  0  0  0  0  0  0  0  0  0  0  0
  126.3210  123.8450   58.2790 C   0  0  0  0  0  0  0  0  0  0  0  0
  125.1550  124.1130   59.0030 C   0  0  0  0  0  0  0  0  0  0  0  0
  123.9180  124.0850   58.3640 C   0  0  0  0  0  0  0  0  0  0  0  0
  123.8520  123.7960   57.0020 C   0  0  0  0  0  0  0  0  0  0  0  0
  125.0110  123.5330   56.2750 C   0  0  0  0  0  0  0  0  0  0  0  0
  126.2480  123.5590   56.9130 C   0  0  0  0  0  0  0  0  0  0  0  0
  130.6350  125.9400   60.0750 N   0  0  0  0  0  0  0  0  0  0  0  0
  130.3420  125.8557   63.4014 H   0  0  0  0  0  0  0  0  0  0  0  0
  129.9132  127.2004   62.2903 H   0  0  0  0  0  0  0  0  0  0  0  0
  128.9403  125.6904   62.2903 H   0  0  0  0  0  0  0  0  0  0  0  0
  132.0168  124.2876   62.7049 H   0  0  0  0  0  0  0  0  0  0  0  0
  133.8672  123.0669   62.1186 H   0  0  0  0  0  0  0  0  0  0  0  0
  133.5585  122.1394   60.6116 H   0  0  0  0  0  0  0  0  0  0  0  0
  134.7525  123.4814   60.6116 H   0  0  0  0  0  0  0  0  0  0  0  0
  130.1521  125.0287   55.4646 H   0  0  0  0  0  0  0  0  0  0  0  0
  131.3202  123.9709   56.3655 H   0  0  0  0  0  0  0  0  0  0  0  0
  129.1460  125.3220   58.5280 H   0  0  0  0  0  0  0  0  0  0  0  0
  127.9555  122.8432   59.2353 H   0  0  0  0  0  0  0  0  0  0  0  0
  127.5580  124.5183   59.8652 H   0  0  0  0  0  0  0  0  0  0  0  0
  125.2149  124.3457   60.0764 H   0  0  0  0  0  0  0  0  0  0  0  0
  122.9979  124.2898   58.9310 H   0  0  0  0  0  0  0  0  0  0  0  0
  122.8754  123.7754   56.4963 H   0  0  0  0  0  0  0  0  0  0  0  0
  124.9489  123.3056   55.2006 H   0  0  0  0  0  0  0  0  0  0  0  0
  127.1664  123.3548   56.3430 H   0  0  0  0  0  0  0  0  0  0  0  0
  1  2  1  0
  2  3  2  0
  3  4  1  0
  4  5  1  0
  4  6  2  0
  6  7  1  0
  7  8  3  0
  6  9  1  0
  9 10  1  0
 10 11  1  0
 11 12  1  0
 12 13  2  0
 12 14  1  0
 14 15  1  0
 15 16  1  0
 16 17  2  0
 17 18  1  0
 18 19  2  0
 19 20  1  0
 20 21  2  0
  9 22  2  0
 22  2  1  0
 21 16  1  0
  1 23  1  0
  1 24  1  0
  1 25  1  0
  3 26  1  0
  5 27  1  0
  5 28  1  0
  5 29  1  0
 11 30  1  0
 11 31  1  0
 14 32  1  0
 15 33  1  0
 15 34  1  0
 17 35  1  0
 18 36  1  0
 19 37  1  0
 20 38  1  0
 21 39  1  0
M  END
>  <Binding energies>  (1) 
[-6.2]

>  <Ligand effiencies>  (1) 
[-0.26956521739130435]

>  <Interactions>  (1) 
["V-B:GLU:543:CD:9880, V-B:TYR:539:CZ:9849, V-A:ILE:369:CD1:3237, V-B:PRO:540:CA:9855, V-B:TYR:539:C:9839, V-A:ASP:366:CG:3211, V-B:PRO:540:CD:9859, V-B:TYR:539:CD2:9846, V-B:TYR:539:CE1:9847, V-B:TYR:539:CE2:9848, V-A:ILE:369:CG2:3235, V-B:PRO:540:N:9856, V-B:PRO:540:CB:9857, V-A:ASP:366:CA:3208, V-A:ASP:366:CB:3210, V-B:ASP:366:CG:8185, V-B:LEU:363:CA:8157, H-B:TYR:539:OH:9850, V-B:ILE:538:CB:9834, V-B:TYR:531:CZ:9766, V-B:TYR:531:CE2:9765, V-B:LEU:363:CD1:8161"]

$$$$
1h_Grossjean_2025
     RDKit          3D

 51 52  0  0  0  0  0  0  0  0999 V2000
  132.3220  131.1570   61.7790 C   0  0  0  0  0  0  0  0  0  0  0  0
  131.0630  131.4500   61.1840 O   0  0  0  0  0  0  0  0  0  0  0  0
  130.6120  130.6720   60.1340 C   0  0  0  0  0  0  0  0  0  0  0  0
  130.9970  129.3380   59.9240 C   0  0  0  0  0  0  0  0  0  0  0  0
  130.5110  128.6170   58.8330 C   0  0  0  0  0  0  0  0  0  0  0  0
  130.9190  127.1610   58.6300 C   0  0  0  0  0  0  0  0  0  0  0  0
  129.9820  126.3880   57.8150 N   0  0  0  0  0  0  0  0  0  0  0  0
  130.3020  125.3150   57.0690 C   0  0  0  0  0  0  0  0  0  0  0  0
  131.4350  124.8390   57.0090 O   0  0  0  0  0  0  0  0  0  0  0  0
  129.1670  124.6840   56.2620 C   0  0  0  0  0  0  0  0  0  0  0  0
  128.6010  123.1180   56.9930 S   0  0  0  0  0  0  0  0  0  0  0  0
  127.1260  123.4520   57.9430 C   0  0  0  0  0  0  0  0  0  0  0  0
  125.9830  123.6040   57.2230 N   0  0  0  0  0  0  0  0  0  0  0  0
  124.8270  123.8550   57.8810 C   0  0  0  0  0  0  0  0  0  0  0  0
  123.5940  124.0080   57.0100 C   0  0  0  0  0  0  0  0  0  0  0  0
  124.7600  123.9670   59.2680 C   0  0  0  0  0  0  0  0  0  0  0  0
  125.9300  123.8160   60.0200 C   0  0  0  0  0  0  0  0  0  0  0  0
  125.8330  123.9400   61.5380 C   0  0  0  0  0  0  0  0  0  0  0  0
  127.1480  123.5520   59.3530 C   0  0  0  0  0  0  0  0  0  0  0  0
  128.3900  123.3910   60.1140 C   0  0  0  0  0  0  0  0  0  0  0  0
  129.3710  123.2640   60.7160 N   0  0  0  0  0  0  0  0  0  0  0  0
  129.6020  129.2170   57.9600 C   0  0  0  0  0  0  0  0  0  0  0  0
  129.1950  130.5470   58.1480 C   0  0  0  0  0  0  0  0  0  0  0  0
  128.3020  131.2060   57.3230 O   0  0  0  0  0  0  0  0  0  0  0  0
  127.5590  130.4620   56.3630 C   0  0  0  0  0  0  0  0  0  0  0  0
  129.7160  131.2680   59.2330 C   0  0  0  0  0  0  0  0  0  0  0  0
  129.3220  132.5680   59.4340 O   0  0  0  0  0  0  0  0  0  0  0  0
  128.3060  132.7200   60.4150 C   0  0  0  0  0  0  0  0  0  0  0  0
  132.2241  131.1798   62.8744 H   0  0  0  0  0  0  0  0  0  0  0  0
  132.6540  130.1576   61.4613 H   0  0  0  0  0  0  0  0  0  0  0  0
  133.0612  131.9071   61.4613 H   0  0  0  0  0  0  0  0  0  0  0  0
  131.6904  128.8555   60.6285 H   0  0  0  0  0  0  0  0  0  0  0  0
  131.9023  127.1429   58.1373 H   0  0  0  0  0  0  0  0  0  0  0  0
  130.9351  126.6935   59.6256 H   0  0  0  0  0  0  0  0  0  0  0  0
  129.0290  126.7210   57.7970 H   0  0  0  0  0  0  0  0  0  0  0  0
  128.3214  125.3867   56.2289 H   0  0  0  0  0  0  0  0  0  0  0  0
  129.5461  124.4702   55.2518 H   0  0  0  0  0  0  0  0  0  0  0  0
  122.7053  124.1183   57.6487 H   0  0  0  0  0  0  0  0  0  0  0  0
  123.7020  124.8996   56.3749 H   0  0  0  0  0  0  0  0  0  0  0  0
  123.4808  123.1170   56.3749 H   0  0  0  0  0  0  0  0  0  0  0  0
  123.8002  124.1714   59.7651 H   0  0  0  0  0  0  0  0  0  0  0  0
  126.4453  123.1573   62.0097 H   0  0  0  0  0  0  0  0  0  0  0  0
  126.1993  124.9294   61.8492 H   0  0  0  0  0  0  0  0  0  0  0  0
  124.7845  123.8227   61.8492 H   0  0  0  0  0  0  0  0  0  0  0  0
  129.1996  128.6403   57.1141 H   0  0  0  0  0  0  0  0  0  0  0  0
  126.8735  129.7756   56.8817 H   0  0  0  0  0  0  0  0  0  0  0  0
  126.9792  131.1524   55.7328 H   0  0  0  0  0  0  0  0  0  0  0  0
  128.2502  129.8831   55.7328 H   0  0  0  0  0  0  0  0  0  0  0  0
  128.7521  132.6533   61.4183 H   0  0  0  0  0  0  0  0  0  0  0  0
  127.8225  133.7005   60.2932 H   0  0  0  0  0  0  0  0  0  0  0  0
  127.5567  131.9240   60.2932 H   0  0  0  0  0  0  0  0  0  0  0  0
  1  2  1  0
  2  3  1  0
  3  4  2  0
  4  5  1  0
  5  6  1  0
  6  7  1  0
  7  8  1  0
  8  9  2  0
  8 10  1  0
 10 11  1  0
 11 12  1  0
 12 13  2  0
 13 14  1  0
 14 15  1  0
 14 16  2  0
 16 17  1  0
 17 18  1  0
 17 19  2  0
 19 20  1  0
 20 21  3  0
  5 22  2  0
 22 23  1  0
 23 24  1  0
 24 25  1  0
 23 26  2  0
 26 27  1  0
 27 28  1  0
 26  3  1  0
 19 12  1  0
  1 29  1  0
  1 30  1  0
  1 31  1  0
  4 32  1  0
  6 33  1  0
  6 34  1  0
  7 35  1  0
 10 36  1  0
 10 37  1  0
 15 38  1  0
 15 39  1  0
 15 40  1  0
 16 41  1  0
 18 42  1  0
 18 43  1  0
 18 44  1  0
 22 45  1  0
 25 46  1  0
 25 47  1  0
 25 48  1  0
 28 49  1  0
 28 50  1  0
 28 51  1  0
M  END
>  <Binding energies>  (1) 
[-5.53]

>  <Ligand effiencies>  (1) 
[-0.1906896551724138]

>  <Interactions>  (1) 
["V-B:GLU:543:CD:9880, V-A:GLU:543:CD:4906, V-A:ARG:545:CZ:4924, V-B:TYR:539:CZ:9849, V-B:PRO:540:C:9853, V-B:PRO:540:CA:9855, V-B:TYR:539:C:9839, V-A:ASP:366:CG:3211, V-B:PRO:540:N:9856, V-B:PRO:540:CB:9857, V-A:ASN:362:CB:3174, V-A:PRO:540:CA:4881, V-B:LEU:363:CA:8157, V-A:ALA:541:CB:4890, H-A:ALA:541:N:4889, V-A:TYR:539:CZ:4875, H-B:TYR:539:OH:9850, V-B:TYR:531:CZ:9766, V-B:TYR:531:CE2:9765, V-B:LEU:363:CD1:8161"]

$$$$
1i_Grossjean_2025
     RDKit          3D

 32 33  0  0  0  0  0  0  0  0999 V2000
  129.4800  122.3010   73.1410 C   0  0  0  0  0  0  0  0  0  0  0  0
  130.5120  123.3520   73.5030 C   0  0  0  0  0  0  0  0  0  0  0  0
  131.6640  123.0280   74.2160 C   0  0  0  0  0  0  0  0  0  0  0  0
  132.5860  124.0380   74.5140 C   0  0  0  0  0  0  0  0  0  0  0  0
  133.8490  123.6540   75.2820 C   0  0  0  0  0  0  0  0  0  0  0  0
  132.3240  125.3610   74.0890 C   0  0  0  0  0  0  0  0  0  0  0  0
  133.3000  126.4230   74.3460 C   0  0  0  0  0  0  0  0  0  0  0  0
  134.0730  127.2600   74.5480 N   0  0  0  0  0  0  0  0  0  0  0  0
  131.1170  125.6020   73.3920 C   0  0  0  0  0  0  0  0  0  0  0  0
  130.6270  127.2020   72.7870 S   0  0  0  0  0  0  0  0  0  0  0  0
  128.8580  127.1180   72.3770 C   0  0  0  0  0  0  0  0  0  0  0  0
  128.0580  128.2360   73.0500 C   0  0  0  0  0  0  0  0  0  0  0  0
  128.5230  129.3760   73.0840 O   0  0  0  0  0  0  0  0  0  0  0  0
  126.8650  127.8680   73.5670 N   0  0  0  0  0  0  0  0  0  0  0  0
  125.9500  128.6740   74.2290 C   0  0  0  0  0  0  0  0  0  0  0  0
  126.3120  129.8380   74.9050 C   0  0  0  0  0  0  0  0  0  0  0  0
  125.1350  130.3360   75.4160 C   0  0  0  0  0  0  0  0  0  0  0  0
  124.1180  129.5140   75.0660 O   0  0  0  0  0  0  0  0  0  0  0  0
  124.6470  128.4630   74.3150 N   0  0  0  0  0  0  0  0  0  0  0  0
  130.2380  124.6130   73.0910 N   0  0  0  0  0  0  0  0  0  0  0  0
  129.0571  121.8703   74.0606 H   0  0  0  0  0  0  0  0  0  0  0  0
  128.6764  122.7645   72.5499 H   0  0  0  0  0  0  0  0  0  0  0  0
  129.9581  121.5060   72.5499 H   0  0  0  0  0  0  0  0  0  0  0  0
  131.8465  121.9929   74.5403 H   0  0  0  0  0  0  0  0  0  0  0  0
  133.6533  123.7135   76.3628 H   0  0  0  0  0  0  0  0  0  0  0  0
  134.1405  122.6266   75.0182 H   0  0  0  0  0  0  0  0  0  0  0  0
  134.6630  124.3453   75.0182 H   0  0  0  0  0  0  0  0  0  0  0  0
  128.7419  127.2055   71.2866 H   0  0  0  0  0  0  0  0  0  0  0  0
  128.4704  126.1559   72.7433 H   0  0  0  0  0  0  0  0  0  0  0  0
  126.6120  126.8920   73.4990 H   0  0  0  0  0  0  0  0  0  0  0  0
  127.3201  130.2660   75.0078 H   0  0  0  0  0  0  0  0  0  0  0  0
  125.0366  131.2546   76.0130 H   0  0  0  0  0  0  0  0  0  0  0  0
  1  2  1  0
  2  3  2  0
  3  4  1  0
  4  5  1  0
  4  6  2  0
  6  7  1  0
  7  8  3  0
  6  9  1  0
  9 10  1  0
 10 11  1  0
 11 12  1  0
 12 13  2  0
 12 14  1  0
 14 15  1  0
 15 16  1  0
 16 17  2  0
 17 18  1  0
 18 19  1  0
  9 20  2  0
 20  2  1  0
 19 15  2  0
  1 21  1  0
  1 22  1  0
  1 23  1  0
  3 24  1  0
  5 25  1  0
  5 26  1  0
  5 27  1  0
 11 28  1  0
 11 29  1  0
 14 30  1  0
 16 31  1  0
 17 32  1  0
M  END
>  <Binding energies>  (1) 
[-7.67]

>  <Ligand effiencies>  (1) 
[-0.36523809523809525]

>  <Interactions>  (1) 
["H-B:GLY:544:O:9885, V-A:HIS:456:CD2:4066, H-A:LYS:547:NZ:4949, V-B:GLY:544:C:9884, V-B:HIS:456:CD2:9040, H-B:LYS:547:NZ:9923, V-A:HIS:456:CG:4064, V-A:HIS:456:CB:4063, V-B:LYS:547:CE:9922, V-A:LYS:547:CD:4947, V-A:HIS:456:C:4059, V-A:LYS:547:CG:4946, V-A:LYS:471:CE:4218, V-A:ASP:473:CG:4238, V-B:HIS:456:CG:9038, V-B:LYS:547:CD:9921, V-A:VAL:458:CG2:4085, V-B:HIS:456:CB:9037, V-A:LYS:471:CD:4217, V-A:LYS:471:CG:4216, V-B:VAL:458:CG2:9059, V-B:HIS:456:C:9033, H-B:VAL:457:N:9048"]

$$$$
1j_Grossjean_2025
     RDKit          3D

 32 33  0  0  0  0  0  0  0  0999 V2000
  129.6280  122.1370   73.7090 C   0  0  0  0  0  0  0  0  0  0  0  0
  130.6760  123.2300   73.8180 C   0  0  0  0  0  0  0  0  0  0  0  0
  131.8280  123.0620   74.5820 C   0  0  0  0  0  0  0  0  0  0  0  0
  132.7650  124.0990   74.6350 C   0  0  0  0  0  0  0  0  0  0  0  0
  134.0300  123.8840   75.4660 C   0  0  0  0  0  0  0  0  0  0  0  0
  132.5170  125.2920   73.9200 C   0  0  0  0  0  0  0  0  0  0  0  0
  133.5090  126.3700   73.9180 C   0  0  0  0  0  0  0  0  0  0  0  0
  134.2960  127.2190   73.9190 N   0  0  0  0  0  0  0  0  0  0  0  0
  131.3070  125.3850   73.1910 C   0  0  0  0  0  0  0  0  0  0  0  0
  130.8320  126.8110   72.2380 S   0  0  0  0  0  0  0  0  0  0  0  0
  129.0180  126.8260   72.1330 C   0  0  0  0  0  0  0  0  0  0  0  0
  128.4120  128.0390   72.8420 C   0  0  0  0  0  0  0  0  0  0  0  0
  128.9980  129.1220   72.7930 O   0  0  0  0  0  0  0  0  0  0  0  0
  127.2440  127.8160   73.4820 N   0  0  0  0  0  0  0  0  0  0  0  0
  126.5020  128.7450   74.1990 C   0  0  0  0  0  0  0  0  0  0  0  0
  126.9070  129.8980   74.6870 N   0  0  0  0  0  0  0  0  0  0  0  0
  125.9330  130.5260   75.3150 C   0  0  0  0  0  0  0  0  0  0  0  0
  124.7020  129.8790   75.3450 C   0  0  0  0  0  0  0  0  0  0  0  0
  124.8370  128.3660   74.5000 S   0  0  0  0  0  0  0  0  0  0  0  0
  130.4150  124.3650   73.1280 N   0  0  0  0  0  0  0  0  0  0  0  0
  129.3234  121.8193   74.7171 H   0  0  0  0  0  0  0  0  0  0  0  0
  128.7524  122.5215   73.1655 H   0  0  0  0  0  0  0  0  0  0  0  0
  130.0489  121.2783   73.1655 H   0  0  0  0  0  0  0  0  0  0  0  0
  131.9986  122.1271   75.1359 H   0  0  0  0  0  0  0  0  0  0  0  0
  133.7776  123.9269   76.5358 H   0  0  0  0  0  0  0  0  0  0  0  0
  134.4608  122.8998   75.2301 H   0  0  0  0  0  0  0  0  0  0  0  0
  134.7618  124.6706   75.2301 H   0  0  0  0  0  0  0  0  0  0  0  0
  128.7240  126.8507   71.0733 H   0  0  0  0  0  0  0  0  0  0  0  0
  128.6418  125.9195   72.6297 H   0  0  0  0  0  0  0  0  0  0  0  0
  126.8760  126.8770   73.4700 H   0  0  0  0  0  0  0  0  0  0  0  0
  126.0852  131.5070   75.7889 H   0  0  0  0  0  0  0  0  0  0  0  0
  123.7902  130.2629   75.8259 H   0  0  0  0  0  0  0  0  0  0  0  0
  1  2  1  0
  2  3  2  0
  3  4  1  0
  4  5  1  0
  4  6  2  0
  6  7  1  0
  7  8  3  0
  6  9  1  0
  9 10  1  0
 10 11  1  0
 11 12  1  0
 12 13  2  0
 12 14  1  0
 14 15  1  0
 15 16  2  0
 16 17  1  0
 17 18  2  0
 18 19  1  0
  9 20  2  0
 20  2  1  0
 19 15  1  0
  1 21  1  0
  1 22  1  0
  1 23  1  0
  3 24  1  0
  5 25  1  0
  5 26  1  0
  5 27  1  0
 11 28  1  0
 11 29  1  0
 14 30  1  0
 17 31  1  0
 18 32  1  0
M  END
>  <Binding energies>  (1) 
[-8.08]

>  <Ligand effiencies>  (1) 
[-0.38476190476190475]

>  <Interactions>  (1) 
["H-B:GLY:544:O:9885, V-A:HIS:456:CD2:4066, H-A:LYS:547:NZ:4949, V-B:GLY:544:C:9884, H-B:LYS:547:NZ:9923, V-A:LYS:547:CE:4948, V-A:HIS:456:CG:4064, V-A:HIS:456:CB:4063, V-B:LYS:547:CE:9922, V-A:HIS:456:C:4059, V-A:LYS:471:CE:4218, V-A:ASP:473:CG:4238, V-B:HIS:456:CG:9038, V-A:VAL:458:CG2:4085, V-B:HIS:456:CB:9037, V-A:LYS:471:CD:4217, V-A:LYS:471:CG:4216, V-B:VAL:458:CG2:9059, V-B:HIS:456:C:9033, V-B:HIS:456:CA:9035, V-B:VAL:457:C:9045, V-B:LYS:471:CE:9192"]

$$$$
1k_Grossjean_2025
     RDKit          3D

 50 50  0  0  0  0  0  0  0  0999 V2000
  126.4900  132.5300   63.7330 C   0  0  0  0  0  0  0  0  0  0  0  0
  125.0810  132.3680   63.7670 O   0  0  0  0  0  0  0  0  0  0  0  0
  124.6150  131.2940   62.9600 C   0  0  0  0  0  0  0  0  0  0  0  0
  124.9410  129.9600   63.6460 C   0  0  0  0  0  0  0  0  0  0  0  0
  124.2000  129.8560   64.8540 O   0  0  0  0  0  0  0  0  0  0  0  0
  124.9940  129.5240   65.9850 C   0  0  0  0  0  0  0  0  0  0  0  0
  126.4510  129.3300   65.5450 C   0  0  0  0  0  0  0  0  0  0  0  0
  127.2830  129.2220   66.6940 O   0  0  0  0  0  0  0  0  0  0  0  0
  127.5810  127.8810   67.0590 C   0  0  0  0  0  0  0  0  0  0  0  0
  128.9360  127.8340   67.7890 C   0  0  0  0  0  0  0  0  0  0  0  0
  128.8730  127.2360   69.1230 N   0  0  0  0  0  0  0  0  0  0  0  0
  129.8940  127.1820   69.9970 C   0  0  0  0  0  0  0  0  0  0  0  0
  131.0090  127.6470   69.7580 O   0  0  0  0  0  0  0  0  0  0  0  0
  129.5850  126.4890   71.3340 C   0  0  0  0  0  0  0  0  0  0  0  0
  130.7540  126.8400   72.6940 S   0  0  0  0  0  0  0  0  0  0  0  0
  131.2760  125.2980   73.4310 C   0  0  0  0  0  0  0  0  0  0  0  0
  130.4220  124.2520   73.2860 N   0  0  0  0  0  0  0  0  0  0  0  0
  130.7520  123.0580   73.8290 C   0  0  0  0  0  0  0  0  0  0  0  0
  129.7440  121.9420   73.6310 C   0  0  0  0  0  0  0  0  0  0  0  0
  131.9400  122.8530   74.5270 C   0  0  0  0  0  0  0  0  0  0  0  0
  132.8320  123.9200   74.6780 C   0  0  0  0  0  0  0  0  0  0  0  0
  134.1280  123.6740   75.4470 C   0  0  0  0  0  0  0  0  0  0  0  0
  132.5040  125.1770   74.1220 C   0  0  0  0  0  0  0  0  0  0  0  0
  133.4180  126.3130   74.2680 C   0  0  0  0  0  0  0  0  0  0  0  0
  134.1400  127.2110   74.3840 N   0  0  0  0  0  0  0  0  0  0  0  0
  126.8789  132.5747   64.7610 H   0  0  0  0  0  0  0  0  0  0  0  0
  126.9444  131.6782   63.2058 H   0  0  0  0  0  0  0  0  0  0  0  0
  126.7392  133.4627   63.2058 H   0  0  0  0  0  0  0  0  0  0  0  0
  123.5267  131.3812   62.8262 H   0  0  0  0  0  0  0  0  0  0  0  0
  125.1092  131.3318   61.9780 H   0  0  0  0  0  0  0  0  0  0  0  0
  124.6720  129.1286   62.9779 H   0  0  0  0  0  0  0  0  0  0  0  0
  126.0170  129.9160   63.8705 H   0  0  0  0  0  0  0  0  0  0  0  0
  124.9388  130.3372   66.7237 H   0  0  0  0  0  0  0  0  0  0  0  0
  124.6194  128.5936   66.4368 H   0  0  0  0  0  0  0  0  0  0  0  0
  126.5336  128.4119   64.9449 H   0  0  0  0  0  0  0  0  0  0  0  0
  126.7697  130.1926   64.9413 H   0  0  0  0  0  0  0  0  0  0  0  0
  126.7930  127.4989   67.7246 H   0  0  0  0  0  0  0  0  0  0  0  0
  127.6317  127.2583   66.1536 H   0  0  0  0  0  0  0  0  0  0  0  0
  129.6373  127.2457   67.1790 H   0  0  0  0  0  0  0  0  0  0  0  0
  129.2619  128.8761   67.9225 H   0  0  0  0  0  0  0  0  0  0  0  0
  127.9880  126.8310   69.3890 H   0  0  0  0  0  0  0  0  0  0  0  0
  128.5835  126.8090   71.6575 H   0  0  0  0  0  0  0  0  0  0  0  0
  129.6656  125.4094   71.1390 H   0  0  0  0  0  0  0  0  0  0  0  0
  129.4096  121.5718   74.6114 H   0  0  0  0  0  0  0  0  0  0  0  0
  128.8792  122.3245   73.0690 H   0  0  0  0  0  0  0  0  0  0  0  0
  130.2122  121.1204   73.0690 H   0  0  0  0  0  0  0  0  0  0  0  0
  132.1734  121.8662   74.9533 H   0  0  0  0  0  0  0  0  0  0  0  0
  133.9261  123.7123   76.5276 H   0  0  0  0  0  0  0  0  0  0  0  0
  134.5283  122.6838   75.1837 H   0  0  0  0  0  0  0  0  0  0  0  0
  134.8633  124.4486   75.1837 H   0  0  0  0  0  0  0  0  0  0  0  0
  1  2  1  0
  2  3  1  0
  3  4  1  0
  4  5  1  0
  5  6  1  0
  6  7  1  0
  7  8  1  0
  8  9  1  0
  9 10  1  0
 10 11  1  0
 11 12  1  0
 12 13  2  0
 12 14  1  0
 14 15  1  0
 15 16  1  0
 16 17  2  0
 17 18  1  0
 18 19  1  0
 18 20  2  0
 20 21  1  0
 21 22  1  0
 21 23  2  0
 23 24  1  0
 24 25  3  0
 23 16  1  0
  1 26  1  0
  1 27  1  0
  1 28  1  0
  3 29  1  0
  3 30  1  0
  4 31  1  0
  4 32  1  0
  6 33  1  0
  6 34  1  0
  7 35  1  0
  7 36  1  0
  9 37  1  0
  9 38  1  0
 10 39  1  0
 10 40  1  0
 11 41  1  0
 14 42  1  0
 14 43  1  0
 19 44  1  0
 19 45  1  0
 19 46  1  0
 20 47  1  0
 22 48  1  0
 22 49  1  0
 22 50  1  0
M  END
>  <Binding energies>  (1) 
[-7.17]

>  <Ligand effiencies>  (1) 
[-0.27576923076923077]

>  <Interactions>  (1) 
["V-B:ARG:545:CZ:9898, V-A:HIS:456:CE1:4068, V-A:HIS:456:CD2:4066, V-B:GLU:543:CD:9880, H-B:TYR:484:OH:9320, V-A:GLU:543:CD:4906, H-B:GLY:454:N:9022, V-B:HIS:456:CE1:9042, V-A:GLY:544:C:4910, H-B:GLU:543:O:9875, H-B:ARG:545:NE:9896, V-A:GLU:543:CB:4904, V-B:GLU:543:CG:9879, V-A:GLU:543:CG:4905, H-B:LYS:547:NZ:9923, V-B:GLU:543:C:9874, V-A:HIS:456:CG:4064, V-A:HIS:456:CB:4063, V-B:LYS:547:CE:9922, V-A:LYS:547:CD:4947, V-A:HIS:456:C:4059, V-A:LYS:471:CE:4218, V-A:ASP:473:CG:4238, V-B:LEU:475:CD2:9231, H-B:ARG:545:NH2:9900, V-A:ALA:541:CB:4890, V-A:VAL:458:CG2:4085, V-B:ARG:545:CG:9894, V-B:ARG:545:CD:9895, H-B:ARG:545:NH1:9899, H-A:ARG:545:N:4918, V-A:LYS:471:CD:4217, V-A:LYS:471:CG:4216"]

$$$$
1l_Grossjean_2025
     RDKit          3D

 30 30  0  0  0  0  0  0  0  0999 V2000
  124.7230  128.3560   74.2460 C   0  0  0  0  0  0  0  0  0  0  0  0
  126.0320  128.9020   74.1640 O   0  0  0  0  0  0  0  0  0  0  0  0
  126.9260  127.9280   73.7200 N   0  0  0  0  0  0  0  0  0  0  0  0
  128.0510  128.3140   73.0890 C   0  0  0  0  0  0  0  0  0  0  0  0
  128.4630  129.4770   73.0740 O   0  0  0  0  0  0  0  0  0  0  0  0
  128.8220  127.1880   72.3850 C   0  0  0  0  0  0  0  0  0  0  0  0
  130.6210  127.1720   72.6960 S   0  0  0  0  0  0  0  0  0  0  0  0
  131.0640  125.5570   73.3110 C   0  0  0  0  0  0  0  0  0  0  0  0
  130.1690  124.5650   73.0650 N   0  0  0  0  0  0  0  0  0  0  0  0
  130.4420  123.3140   73.5050 C   0  0  0  0  0  0  0  0  0  0  0  0
  129.3960  122.2620   73.1910 C   0  0  0  0  0  0  0  0  0  0  0  0
  131.6070  123.0000   74.2010 C   0  0  0  0  0  0  0  0  0  0  0  0
  132.5370  124.0120   74.4600 C   0  0  0  0  0  0  0  0  0  0  0  0
  133.8080  123.6440   75.2240 C   0  0  0  0  0  0  0  0  0  0  0  0
  132.2720  125.3240   74.0100 C   0  0  0  0  0  0  0  0  0  0  0  0
  133.2290  126.4050   74.2680 C   0  0  0  0  0  0  0  0  0  0  0  0
  133.9850  127.2560   74.4710 N   0  0  0  0  0  0  0  0  0  0  0  0
  124.4404  128.2381   75.3025 H   0  0  0  0  0  0  0  0  0  0  0  0
  124.0118  129.0325   73.7495 H   0  0  0  0  0  0  0  0  0  0  0  0
  124.7033  127.3746   73.7495 H   0  0  0  0  0  0  0  0  0  0  0  0
  126.4750  127.0360   73.5700 H   0  0  0  0  0  0  0  0  0  0  0  0
  128.4085  126.2271   72.7251 H   0  0  0  0  0  0  0  0  0  0  0  0
  128.6985  127.3595   71.3055 H   0  0  0  0  0  0  0  0  0  0  0  0
  128.9917  121.8553   74.1297 H   0  0  0  0  0  0  0  0  0  0  0  0
  128.5819  122.7170   72.6078 H   0  0  0  0  0  0  0  0  0  0  0  0
  129.8557  121.4505   72.6078 H   0  0  0  0  0  0  0  0  0  0  0  0
  131.7929  121.9709   74.5420 H   0  0  0  0  0  0  0  0  0  0  0  0
  133.6149  123.6999   76.3055 H   0  0  0  0  0  0  0  0  0  0  0  0
  134.1123  122.6209   74.9583 H   0  0  0  0  0  0  0  0  0  0  0  0
  134.6119  124.3463   74.9583 H   0  0  0  0  0  0  0  0  0  0  0  0
  1  2  1  0
  2  3  1  0
  3  4  1  0
  4  5  2  0
  4  6  1  0
  6  7  1  0
  7  8  1  0
  8  9  2  0
  9 10  1  0
 10 11  1  0
 10 12  2  0
 12 13  1  0
 13 14  1  0
 13 15  2  0
 15 16  1  0
 16 17  3  0
 15  8  1  0
  1 18  1  0
  1 19  1  0
  1 20  1  0
  3 21  1  0
  6 22  1  0
  6 23  1  0
 11 24  1  0
 11 25  1  0
 11 26  1  0
 12 27  1  0
 14 28  1  0
 14 29  1  0
 14 30  1  0
M  END
>  <Binding energies>  (1) 
[-6.8]

>  <Ligand effiencies>  (1) 
[-0.37777777777777777]

>  <Interactions>  (1) 
["H-B:GLY:544:O:9885, V-A:HIS:456:CD2:4066, H-A:LYS:547:NZ:4949, V-B:GLY:544:C:9884, V-B:HIS:456:CD2:9040, H-B:LYS:547:NZ:9923, V-A:LYS:547:CE:4948, V-A:HIS:456:CG:4064, V-A:HIS:456:CB:4063, V-B:LYS:547:CE:9922, V-A:LYS:547:CD:4947, V-A:HIS:456:C:4059, V-A:LYS:471:CE:4218, V-A:ASP:473:CG:4238, V-B:LYS:547:CD:9921, V-A:VAL:458:CG2:4085, V-B:HIS:456:CB:9037, V-A:LYS:471:CD:4217, V-A:LYS:471:CG:4216, V-B:VAL:458:CG2:9059, V-B:HIS:456:C:9033, V-B:HIS:456:CA:9035"]

$$$$
1m_Grossjean_2025
     RDKit          3D

 35 35  0  0  0  0  0  0  0  0999 V2000
  126.3830  129.1290   65.4130 C   0  0  0  0  0  0  0  0  0  0  0  0
  127.4280  129.0650   66.3730 O   0  0  0  0  0  0  0  0  0  0  0  0
  127.5170  128.0190   67.2200 C   0  0  0  0  0  0  0  0  0  0  0  0
  126.6050  127.2300   67.4850 O   0  0  0  0  0  0  0  0  0  0  0  0
  128.9290  127.9050   67.8320 C   0  0  0  0  0  0  0  0  0  0  0  0
  128.9360  127.1980   69.1210 N   0  0  0  0  0  0  0  0  0  0  0  0
  129.9840  127.1110   69.9630 C   0  0  0  0  0  0  0  0  0  0  0  0
  131.0820  127.6170   69.7240 O   0  0  0  0  0  0  0  0  0  0  0  0
  129.7290  126.3240   71.2560 C   0  0  0  0  0  0  0  0  0  0  0  0
  130.7520  126.8400   72.6770 S   0  0  0  0  0  0  0  0  0  0  0  0
  131.3790  125.3730   73.4660 C   0  0  0  0  0  0  0  0  0  0  0  0
  130.5140  124.3270   73.4310 N   0  0  0  0  0  0  0  0  0  0  0  0
  130.8870  123.1550   73.9960 C   0  0  0  0  0  0  0  0  0  0  0  0
  129.8770  122.0270   73.9020 C   0  0  0  0  0  0  0  0  0  0  0  0
  132.1190  122.9800   74.6230 C   0  0  0  0  0  0  0  0  0  0  0  0
  133.0070  124.0590   74.6870 C   0  0  0  0  0  0  0  0  0  0  0  0
  134.3450  123.8480   75.3930 C   0  0  0  0  0  0  0  0  0  0  0  0
  132.6400  125.2930   74.1050 C   0  0  0  0  0  0  0  0  0  0  0  0
  133.5340  126.4490   74.2050 C   0  0  0  0  0  0  0  0  0  0  0  0
  134.2410  127.3620   74.2830 N   0  0  0  0  0  0  0  0  0  0  0  0
  125.4137  129.1884   65.9296 H   0  0  0  0  0  0  0  0  0  0  0  0
  126.5180  130.0206   64.7830 H   0  0  0  0  0  0  0  0  0  0  0  0
  126.4081  128.2276   64.7830 H   0  0  0  0  0  0  0  0  0  0  0  0
  129.5741  127.3588   67.1281 H   0  0  0  0  0  0  0  0  0  0  0  0
  129.2951  128.9265   68.0126 H   0  0  0  0  0  0  0  0  0  0  0  0
  128.0770  126.7330   69.3760 H   0  0  0  0  0  0  0  0  0  0  0  0
  128.6715  126.4504   71.5312 H   0  0  0  0  0  0  0  0  0  0  0  0
  129.9985  125.2792   71.0422 H   0  0  0  0  0  0  0  0  0  0  0  0
  129.5900  121.7065   74.9144 H   0  0  0  0  0  0  0  0  0  0  0  0
  128.9852  122.3774   73.3617 H   0  0  0  0  0  0  0  0  0  0  0  0
  130.3234  121.1792   73.3617 H   0  0  0  0  0  0  0  0  0  0  0  0
  132.3893  122.0079   75.0611 H   0  0  0  0  0  0  0  0  0  0  0  0
  134.1927  123.8720   76.4821 H   0  0  0  0  0  0  0  0  0  0  0  0
  134.7630  122.8728   75.1026 H   0  0  0  0  0  0  0  0  0  0  0  0
  135.0428  124.6472   75.1026 H   0  0  0  0  0  0  0  0  0  0  0  0
  1  2  1  0
  2  3  1  0
  3  4  2  0
  3  5  1  0
  5  6  1  0
  6  7  1  0
  7  8  2  0
  7  9  1  0
  9 10  1  0
 10 11  1  0
 11 12  2  0
 12 13  1  0
 13 14  1  0
 13 15  2  0
 15 16  1  0
 16 17  1  0
 16 18  2  0
 18 19  1  0
 19 20  3  0
 18 11  1  0
  1 21  1  0
  1 22  1  0
  1 23  1  0
  5 24  1  0
  5 25  1  0
  6 26  1  0
  9 27  1  0
  9 28  1  0
 14 29  1  0
 14 30  1  0
 14 31  1  0
 15 32  1  0
 17 33  1  0
 17 34  1  0
 17 35  1  0
M  END
>  <Binding energies>  (1) 
[-6.52]

>  <Ligand effiencies>  (1) 
[-0.31047619047619046]

>  <Interactions>  (1) 
["V-B:ARG:545:CZ:9898, V-A:HIS:456:CE1:4068, V-A:HIS:456:CD2:4066, V-B:GLU:543:CD:9880, V-A:GLU:543:CD:4906, V-B:HIS:456:CE1:9042, V-A:GLY:544:C:4910, H-B:GLU:543:O:9875, H-B:ARG:545:NE:9896, V-A:GLU:543:CB:4904, V-B:GLU:543:CG:9879, V-A:GLU:543:CG:4905, H-B:LYS:547:NZ:9923, V-B:GLU:543:C:9874, V-A:HIS:456:CG:4064, V-A:HIS:456:CB:4063, V-B:LYS:547:CE:9922, V-A:LYS:547:CD:4947, V-A:HIS:456:C:4059, V-A:LYS:547:CG:4946, V-A:LYS:471:CE:4218, V-A:ASP:473:CG:4238, V-A:VAL:457:C:4071, V-A:VAL:458:CG2:4085, V-B:ARG:545:CG:9894, H-A:HIS:456:ND1:4065, H-A:ARG:545:N:4918, V-A:LYS:471:CD:4217, V-A:LYS:471:CG:4216"]

$$$$
1n_Grossjean_2025
     RDKit          3D

 48 49  0  0  0  0  0  0  0  0999 V2000
  130.9790  125.9350   72.9130 C   0  0  0  0  0  0  0  0  0  0  0  0
  129.5390  125.8040   72.4070 C   0  0  0  0  0  0  0  0  0  0  0  0
  128.8100  126.9770   72.7500 O   0  0  0  0  0  0  0  0  0  0  0  0
  128.8250  128.0720   71.9470 C   0  0  0  0  0  0  0  0  0  0  0  0
  128.6430  129.2210   72.3600 O   0  0  0  0  0  0  0  0  0  0  0  0
  129.0990  127.7470   70.5060 C   0  0  0  0  0  0  0  0  0  0  0  0
  130.4040  127.5930   70.0150 C   0  0  0  0  0  0  0  0  0  0  0  0
  130.6230  127.2950   68.6730 C   0  0  0  0  0  0  0  0  0  0  0  0
  129.5480  127.1520   67.7950 C   0  0  0  0  0  0  0  0  0  0  0  0
  129.8840  126.8550   66.4600 N   0  0  0  0  0  0  0  0  0  0  0  0
  130.3570  125.7100   65.9220 C   0  0  0  0  0  0  0  0  0  0  0  0
  130.5800  124.6700   66.5410 O   0  0  0  0  0  0  0  0  0  0  0  0
  130.6210  125.7470   64.4110 C   0  0  0  0  0  0  0  0  0  0  0  0
  132.0890  126.0710   64.0610 C   0  0  0  0  0  0  0  0  0  0  0  0
  133.1890  124.6240   64.0120 S   0  0  0  0  0  0  0  0  0  0  0  0
  132.8100  123.7080   62.5340 C   0  0  0  0  0  0  0  0  0  0  0  0
  133.5710  124.0590   61.4670 N   0  0  0  0  0  0  0  0  0  0  0  0
  133.3810  123.4150   60.2920 C   0  0  0  0  0  0  0  0  0  0  0  0
  134.2750  123.8520   59.1480 C   0  0  0  0  0  0  0  0  0  0  0  0
  132.4300  122.4090   60.1310 C   0  0  0  0  0  0  0  0  0  0  0  0
  131.6260  122.0540   61.2200 C   0  0  0  0  0  0  0  0  0  0  0  0
  130.5810  120.9590   61.0160 C   0  0  0  0  0  0  0  0  0  0  0  0
  131.8030  122.7170   62.4560 C   0  0  0  0  0  0  0  0  0  0  0  0
  130.9380  122.3980   63.5930 C   0  0  0  0  0  0  0  0  0  0  0  0
  130.2530  122.1440   64.4900 N   0  0  0  0  0  0  0  0  0  0  0  0
  128.2400  127.2930   68.2810 C   0  0  0  0  0  0  0  0  0  0  0  0
  128.0230  127.5880   69.6240 C   0  0  0  0  0  0  0  0  0  0  0  0
  130.9825  125.9353   74.0130 H   0  0  0  0  0  0  0  0  0  0  0  0
  131.5756  125.0874   72.5447 H   0  0  0  0  0  0  0  0  0  0  0  0
  131.4129  126.8763   72.5447 H   0  0  0  0  0  0  0  0  0  0  0  0
  129.5437  125.6811   71.3139 H   0  0  0  0  0  0  0  0  0  0  0  0
  129.0643  124.9270   72.8712 H   0  0  0  0  0  0  0  0  0  0  0  0
  131.2605  127.7086   70.6954 H   0  0  0  0  0  0  0  0  0  0  0  0
  131.6511  127.1713   68.3020 H   0  0  0  0  0  0  0  0  0  0  0  0
  129.7030  127.6080   65.8120 H   0  0  0  0  0  0  0  0  0  0  0  0
  130.3688  124.7637   63.9873 H   0  0  0  0  0  0  0  0  0  0  0  0
  129.9982  126.5493   63.9886 H   0  0  0  0  0  0  0  0  0  0  0  0
  132.1084  126.5511   63.0715 H   0  0  0  0  0  0  0  0  0  0  0  0
  132.4653  126.7233   64.8628 H   0  0  0  0  0  0  0  0  0  0  0  0
  135.1942  124.3013   59.5520 H   0  0  0  0  0  0  0  0  0  0  0  0
  134.5341  122.9790   58.5310 H   0  0  0  0  0  0  0  0  0  0  0  0
  133.7453  124.5928   58.5310 H   0  0  0  0  0  0  0  0  0  0  0  0
  132.3131  121.9015   59.1621 H   0  0  0  0  0  0  0  0  0  0  0  0
  130.2345  120.5959   61.9948 H   0  0  0  0  0  0  0  0  0  0  0  0
  129.7282  121.3663   60.4531 H   0  0  0  0  0  0  0  0  0  0  0  0
  131.0277  120.1261   60.4531 H   0  0  0  0  0  0  0  0  0  0  0  0
  127.3847  127.1704   67.6002 H   0  0  0  0  0  0  0  0  0  0  0  0
  126.9939  127.6975   69.9969 H   0  0  0  0  0  0  0  0  0  0  0  0
  1  2  1  0
  2  3  1  0
  3  4  1  0
  4  5  2  0
  4  6  1  0
  6  7  2  0
  7  8  1  0
  8  9  2  0
  9 10  1  0
 10 11  1  0
 11 12  2  0
 11 13  1  0
 13 14  1  0
 14 15  1  0
 15 16  1  0
 16 17  2  0
 17 18  1  0
 18 19  1  0
 18 20  2  0
 20 21  1  0
 21 22  1  0
 21 23  2  0
 23 24  1  0
 24 25  3  0
  9 26  1  0
 26 27  2  0
 27  6  1  0
 23 16  1  0
  1 28  1  0
  1 29  1  0
  1 30  1  0
  2 31  1  0
  2 32  1  0
  7 33  1  0
  8 34  1  0
 10 35  1  0
 13 36  1  0
 13 37  1  0
 14 38  1  0
 14 39  1  0
 19 40  1  0
 19 41  1  0
 19 42  1  0
 20 43  1  0
 22 44  1  0
 22 45  1  0
 22 46  1  0
 26 47  1  0
 27 48  1  0
M  END
>  <Binding energies>  (1) 
[-7.68]

>  <Ligand effiencies>  (1) 
[-0.2742857142857143]

>  <Interactions>  (1) 
["V-B:GLU:543:CB:9878, V-A:HIS:456:CE1:4068, V-A:HIS:456:CD2:4066, V-B:GLU:543:CD:9880, V-A:GLU:543:CD:4906, V-B:HIS:456:CE1:9042, V-A:GLY:544:CA:4912, H-A:LYS:547:NZ:4949, V-B:GLY:544:C:9884, V-A:GLY:544:C:4910, V-B:HIS:456:CD2:9040, V-B:GLU:543:CG:9879, V-A:GLU:543:CG:4905, H-A:GLY:454:N:4048, H-B:LYS:547:NZ:9923, V-B:GLU:543:C:9874, V-A:ARG:545:CZ:4924, V-A:ARG:545:CG:4920, H-A:TYR:484:OH:4346, V-A:ARG:545:CD:4921, V-A:HIS:456:CG:4064, V-A:TYR:484:CZ:4345, V-B:LYS:547:CE:9922, V-B:GLY:544:CA:9886, V-A:GLU:543:C:4900, V-A:ILE:369:CD1:3237, V-A:LEU:475:CD2:4257, V-A:ASP:366:CG:3211, V-B:ALA:541:CB:9864, V-B:TYR:539:CD2:9846, V-B:TYR:539:CE2:9848, V-A:ILE:369:CG2:3235, V-A:ASP:366:CA:3208, V-A:ASP:366:CB:3210, V-A:ILE:369:CG1:3236, V-A:ILE:369:CB:3234, H-A:GLU:543:OE2:4908, H-A:GLU:543:OE1:4907, V-A:TYR:484:CE1:4343, H-B:GLU:543:OE2:9882"]

$$$$
1o_Grossjean_2025
     RDKit          3D

 45 46  0  0  0  0  0  0  0  0999 V2000
  130.8160  126.5510   73.3840 C   0  0  0  0  0  0  0  0  0  0  0  0
  129.4290  126.8140   73.2230 O   0  0  0  0  0  0  0  0  0  0  0  0
  128.9980  127.8590   72.4720 C   0  0  0  0  0  0  0  0  0  0  0  0
  128.4870  128.8770   72.9500 O   0  0  0  0  0  0  0  0  0  0  0  0
  129.2070  127.6580   70.9980 C   0  0  0  0  0  0  0  0  0  0  0  0
  130.4850  127.4920   70.4460 C   0  0  0  0  0  0  0  0  0  0  0  0
  130.6450  127.3040   69.0750 C   0  0  0  0  0  0  0  0  0  0  0  0
  129.5350  127.2840   68.2300 C   0  0  0  0  0  0  0  0  0  0  0  0
  129.8090  127.0790   66.8640 N   0  0  0  0  0  0  0  0  0  0  0  0
  130.1940  125.9560   66.2170 C   0  0  0  0  0  0  0  0  0  0  0  0
  130.3340  124.8500   66.7380 O   0  0  0  0  0  0  0  0  0  0  0  0
  130.4350  126.1120   64.7080 C   0  0  0  0  0  0  0  0  0  0  0  0
  131.5020  125.1460   64.1570 C   0  0  0  0  0  0  0  0  0  0  0  0
  130.9980  123.4000   64.1760 S   0  0  0  0  0  0  0  0  0  0  0  0
  131.4730  122.6590   62.6280 C   0  0  0  0  0  0  0  0  0  0  0  0
  130.6810  121.6200   62.2600 N   0  0  0  0  0  0  0  0  0  0  0  0
  130.9410  120.9830   61.0950 C   0  0  0  0  0  0  0  0  0  0  0  0
  130.0030  119.8430   60.7430 C   0  0  0  0  0  0  0  0  0  0  0  0
  131.9980  121.3420   60.2620 C   0  0  0  0  0  0  0  0  0  0  0  0
  132.8370  122.3940   60.6430 C   0  0  0  0  0  0  0  0  0  0  0  0
  133.9980  122.7590   59.7200 C   0  0  0  0  0  0  0  0  0  0  0  0
  132.5880  123.0720   61.8580 C   0  0  0  0  0  0  0  0  0  0  0  0
  133.4900  124.1360   62.3030 C   0  0  0  0  0  0  0  0  0  0  0  0
  134.2040  124.9780   62.6510 N   0  0  0  0  0  0  0  0  0  0  0  0
  128.2520  127.4440   68.7760 C   0  0  0  0  0  0  0  0  0  0  0  0
  128.0950  127.6300   70.1470 C   0  0  0  0  0  0  0  0  0  0  0  0
  131.0585  126.5050   74.4560 H   0  0  0  0  0  0  0  0  0  0  0  0
  131.0643  125.5898   72.9103 H   0  0  0  0  0  0  0  0  0  0  0  0
  131.3990  127.3546   72.9103 H   0  0  0  0  0  0  0  0  0  0  0  0
  131.3686  127.5104   71.1009 H   0  0  0  0  0  0  0  0  0  0  0  0
  131.6532  127.1704   68.6558 H   0  0  0  0  0  0  0  0  0  0  0  0
  129.6720  127.8970   66.2880 H   0  0  0  0  0  0  0  0  0  0  0  0
  129.4877  125.9225   64.1819 H   0  0  0  0  0  0  0  0  0  0  0  0
  130.8048  127.1345   64.5416 H   0  0  0  0  0  0  0  0  0  0  0  0
  131.7231  125.4310   63.1178 H   0  0  0  0  0  0  0  0  0  0  0  0
  132.3792  125.2314   64.8152 H   0  0  0  0  0  0  0  0  0  0  0  0
  129.6236  119.3818   61.6668 H   0  0  0  0  0  0  0  0  0  0  0  0
  129.1592  120.2311   60.1536 H   0  0  0  0  0  0  0  0  0  0  0  0
  130.5463  119.0898   60.1536 H   0  0  0  0  0  0  0  0  0  0  0  0
  132.1705  120.8054   59.3174 H   0  0  0  0  0  0  0  0  0  0  0  0
  134.8745  123.0346   60.3248 H   0  0  0  0  0  0  0  0  0  0  0  0
  134.2471  121.8958   59.0853 H   0  0  0  0  0  0  0  0  0  0  0  0
  133.7084  123.6094   59.0853 H   0  0  0  0  0  0  0  0  0  0  0  0
  127.3693  127.4224   68.1200 H   0  0  0  0  0  0  0  0  0  0  0  0
  127.0860  127.7564   70.5665 H   0  0  0  0  0  0  0  0  0  0  0  0
  1  2  1  0
  2  3  1  0
  3  4  2  0
  3  5  1  0
  5  6  2  0
  6  7  1  0
  7  8  2  0
  8  9  1  0
  9 10  1  0
 10 11  2  0
 10 12  1  0
 12 13  1  0
 13 14  1  0
 14 15  1  0
 15 16  2  0
 16 17  1  0
 17 18  1  0
 17 19  2  0
 19 20  1  0
 20 21  1  0
 20 22  2  0
 22 23  1  0
 23 24  3  0
  8 25  1  0
 25 26  2  0
 26  5  1  0
 22 15  1  0
  1 27  1  0
  1 28  1  0
  1 29  1  0
  6 30  1  0
  7 31  1  0
  9 32  1  0
 12 33  1  0
 12 34  1  0
 13 35  1  0
 13 36  1  0
 18 37  1  0
 18 38  1  0
 18 39  1  0
 19 40  1  0
 21 41  1  0
 21 42  1  0
 21 43  1  0
 25 44  1  0
 26 45  1  0
M  END
>  <Binding energies>  (1) 
[-7.86]

>  <Ligand effiencies>  (1) 
[-0.2911111111111111]

>  <Interactions>  (1) 
["V-B:GLU:543:CB:9878, V-A:HIS:456:CE1:4068, V-B:GLU:543:CD:9880, V-A:GLU:543:CD:4906, V-B:HIS:456:CE1:9042, V-A:GLY:544:CA:4912, H-A:LYS:547:NZ:4949, V-B:GLY:544:C:9884, V-A:GLY:544:C:4910, V-B:HIS:456:CD2:9040, V-B:GLU:543:CG:9879, V-A:GLU:543:CG:4905, H-A:GLY:454:N:4048, H-B:LYS:547:NZ:9923, V-B:GLU:543:C:9874, V-A:LYS:547:CE:4948, H-A:TYR:484:OH:4346, H-A:ARG:545:NH1:4925, V-A:GLU:543:C:4900, V-A:ILE:369:CD1:3237, V-A:LEU:475:CD2:4257, V-A:TRP:381:CH2:3370, V-B:ALA:541:CB:9864, V-B:TYR:539:CD2:9846, V-B:TYR:539:CE2:9848, V-A:ILE:369:CG2:3235, V-A:ILE:369:CG1:3236, V-A:ILE:369:CB:3234, H-A:ARG:545:NH2:4926, V-A:PRO:482:CG:4325, V-A:PRO:482:CB:4324, H-A:GLU:543:OE2:4908, H-A:GLU:543:OE1:4907, H-B:GLU:543:OE2:9882"]

$$$$
1p_Grossjean_2025
     RDKit          3D

 35 36  0  0  0  0  0  0  0  0999 V2000
  129.8750  122.0090   73.6900 C   0  0  0  0  0  0  0  0  0  0  0  0
  130.9010  123.1080   73.8970 C   0  0  0  0  0  0  0  0  0  0  0  0
  132.1280  122.8530   74.5070 C   0  0  0  0  0  0  0  0  0  0  0  0
  133.0300  123.9080   74.6840 C   0  0  0  0  0  0  0  0  0  0  0  0
  134.3630  123.6090   75.3680 C   0  0  0  0  0  0  0  0  0  0  0  0
  132.6800  125.2000   74.2340 C   0  0  0  0  0  0  0  0  0  0  0  0
  133.5860  126.3290   74.4500 C   0  0  0  0  0  0  0  0  0  0  0  0
  134.3040  127.2210   74.6220 N   0  0  0  0  0  0  0  0  0  0  0  0
  131.4220  125.3620   73.6050 C   0  0  0  0  0  0  0  0  0  0  0  0
  130.8300  126.9150   72.9730 S   0  0  0  0  0  0  0  0  0  0  0  0
  130.0370  126.5650   71.3760 C   0  0  0  0  0  0  0  0  0  0  0  0
  128.6080  127.1280   71.2550 C   0  0  0  0  0  0  0  0  0  0  0  0
  128.3040  128.2510   72.2580 C   0  0  0  0  0  0  0  0  0  0  0  0
  129.0870  129.1960   72.3670 O   0  0  0  0  0  0  0  0  0  0  0  0
  127.1540  128.1160   72.9550 N   0  0  0  0  0  0  0  0  0  0  0  0
  126.6460  128.9830   73.9150 C   0  0  0  0  0  0  0  0  0  0  0  0
  125.4110  128.7940   74.5340 C   0  0  0  0  0  0  0  0  0  0  0  0
  125.2820  129.8520   75.4060 C   0  0  0  0  0  0  0  0  0  0  0  0
  126.3810  130.6370   75.3150 O   0  0  0  0  0  0  0  0  0  0  0  0
  127.2380  130.0760   74.3660 N   0  0  0  0  0  0  0  0  0  0  0  0
  130.5450  124.3370   73.4570 N   0  0  0  0  0  0  0  0  0  0  0  0
  129.5306  121.6401   74.6674 H   0  0  0  0  0  0  0  0  0  0  0  0
  129.0189  122.4081   73.1263 H   0  0  0  0  0  0  0  0  0  0  0  0
  130.3319  121.1823   73.1263 H   0  0  0  0  0  0  0  0  0  0  0  0
  132.3835  121.8376   74.8442 H   0  0  0  0  0  0  0  0  0  0  0  0
  134.2299  123.6389   76.4595 H   0  0  0  0  0  0  0  0  0  0  0  0
  134.7129  122.6101   75.0685 H   0  0  0  0  0  0  0  0  0  0  0  0
  135.1060  124.3628   75.0685 H   0  0  0  0  0  0  0  0  0  0  0  0
  130.6526  127.0071   70.5788 H   0  0  0  0  0  0  0  0  0  0  0  0
  129.9589  125.4712   71.2899 H   0  0  0  0  0  0  0  0  0  0  0  0
  128.4752  127.5247   70.2376 H   0  0  0  0  0  0  0  0  0  0  0  0
  127.9155  126.3021   71.4749 H   0  0  0  0  0  0  0  0  0  0  0  0
  126.5970  127.2940   72.7750 H   0  0  0  0  0  0  0  0  0  0  0  0
  124.6948  127.9768   74.3629 H   0  0  0  0  0  0  0  0  0  0  0  0
  124.4234  130.0306   76.0701 H   0  0  0  0  0  0  0  0  0  0  0  0
  1  2  1  0
  2  3  2  0
  3  4  1  0
  4  5  1  0
  4  6  2  0
  6  7  1  0
  7  8  3  0
  6  9  1  0
  9 10  1  0
 10 11  1  0
 11 12  1  0
 12 13  1  0
 13 14  2  0
 13 15  1  0
 15 16  1  0
 16 17  1  0
 17 18  2  0
 18 19  1  0
 19 20  1  0
  9 21  2  0
 21  2  1  0
 20 16  2  0
  1 22  1  0
  1 23  1  0
  1 24  1  0
  3 25  1  0
  5 26  1  0
  5 27  1  0
  5 28  1  0
 11 29  1  0
 11 30  1  0
 12 31  1  0
 12 32  1  0
 15 33  1  0
 17 34  1  0
 18 35  1  0
M  END
>  <Binding energies>  (1) 
[-8.09]

>  <Ligand effiencies>  (1) 
[-0.36772727272727274]

>  <Interactions>  (1) 
["H-B:GLY:544:O:9885, V-A:HIS:456:CE1:4068, V-A:HIS:456:CD2:4066, H-A:LYS:547:NZ:4949, V-B:GLY:544:C:9884, V-B:HIS:456:CD2:9040, H-B:LYS:547:NZ:9923, V-A:HIS:456:CG:4064, V-A:HIS:456:CB:4063, V-B:LYS:547:CE:9922, V-B:GLY:544:CA:9886, V-A:LYS:547:CD:4947, V-A:HIS:456:C:4059, V-A:LYS:471:CE:4218, V-A:ASP:473:CG:4238, V-B:HIS:456:CG:9038, V-A:VAL:458:CG2:4085, V-B:HIS:456:CB:9037, V-A:LYS:471:CD:4217, V-A:LYS:471:CG:4216, V-B:VAL:458:CG2:9059, V-B:HIS:456:C:9033"]

$$$$
1q_Grossjean_2025
     RDKit          3D

 38 38  0  0  0  0  0  0  0  0999 V2000
  130.4240  125.9510   65.9620 C   0  0  0  0  0  0  0  0  0  0  0  0
  131.3260  126.8830   66.5400 O   0  0  0  0  0  0  0  0  0  0  0  0
  130.9930  127.5550   67.6680 C   0  0  0  0  0  0  0  0  0  0  0  0
  131.7410  128.2960   68.3080 O   0  0  0  0  0  0  0  0  0  0  0  0
  129.5480  127.3000   68.1480 C   0  0  0  0  0  0  0  0  0  0  0  0
  129.3300  127.6930   69.5490 N   0  0  0  0  0  0  0  0  0  0  0  0
  128.1760  127.5700   70.2320 C   0  0  0  0  0  0  0  0  0  0  0  0
  127.1490  127.0970   69.7420 O   0  0  0  0  0  0  0  0  0  0  0  0
  128.2070  128.0420   71.6930 C   0  0  0  0  0  0  0  0  0  0  0  0
  128.8530  127.0400   72.6700 C   0  0  0  0  0  0  0  0  0  0  0  0
  130.6540  126.8930   72.4760 S   0  0  0  0  0  0  0  0  0  0  0  0
  131.1950  125.4100   73.3020 C   0  0  0  0  0  0  0  0  0  0  0  0
  130.3370  124.3680   73.1550 N   0  0  0  0  0  0  0  0  0  0  0  0
  130.6390  123.1860   73.7410 C   0  0  0  0  0  0  0  0  0  0  0  0
  129.6240  122.0750   73.5460 C   0  0  0  0  0  0  0  0  0  0  0  0
  131.8030  122.9900   74.4820 C   0  0  0  0  0  0  0  0  0  0  0  0
  132.7060  124.0490   74.6180 C   0  0  0  0  0  0  0  0  0  0  0  0
  133.9840  123.8030   75.4200 C   0  0  0  0  0  0  0  0  0  0  0  0
  132.4140  125.2920   74.0140 C   0  0  0  0  0  0  0  0  0  0  0  0
  133.3750  126.3930   74.0990 C   0  0  0  0  0  0  0  0  0  0  0  0
  134.1370  127.2610   74.1680 N   0  0  0  0  0  0  0  0  0  0  0  0
  129.8975  125.4070   66.7600 H   0  0  0  0  0  0  0  0  0  0  0  0
  129.6925  126.4866   65.3391 H   0  0  0  0  0  0  0  0  0  0  0  0
  130.9833  125.2374   65.3391 H   0  0  0  0  0  0  0  0  0  0  0  0
  128.8603  127.8759   67.5113 H   0  0  0  0  0  0  0  0  0  0  0  0
  129.3639  126.2178   68.0773 H   0  0  0  0  0  0  0  0  0  0  0  0
  130.1190  128.1140   70.0170 H   0  0  0  0  0  0  0  0  0  0  0  0
  128.7750  128.9829   71.7390 H   0  0  0  0  0  0  0  0  0  0  0  0
  127.1597  128.1588   72.0085 H   0  0  0  0  0  0  0  0  0  0  0  0
  128.6396  127.3694   73.6976 H   0  0  0  0  0  0  0  0  0  0  0  0
  128.4230  126.0518   72.4498 H   0  0  0  0  0  0  0  0  0  0  0  0
  129.2888  121.7081   74.5274 H   0  0  0  0  0  0  0  0  0  0  0  0
  128.7606  122.4615   72.9846 H   0  0  0  0  0  0  0  0  0  0  0  0
  130.0868  121.2499   72.9846 H   0  0  0  0  0  0  0  0  0  0  0  0
  132.0082  122.0172   74.9526 H   0  0  0  0  0  0  0  0  0  0  0  0
  133.7563  123.8468   76.4953 H   0  0  0  0  0  0  0  0  0  0  0  0
  134.3879  122.8106   75.1709 H   0  0  0  0  0  0  0  0  0  0  0  0
  134.7274  124.5745   75.1709 H   0  0  0  0  0  0  0  0  0  0  0  0
  1  2  1  0
  2  3  1  0
  3  4  2  0
  3  5  1  0
  5  6  1  0
  6  7  1  0
  7  8  2  0
  7  9  1  0
  9 10  1  0
 10 11  1  0
 11 12  1  0
 12 13  2  0
 13 14  1  0
 14 15  1  0
 14 16  2  0
 16 17  1  0
 17 18  1  0
 17 19  2  0
 19 20  1  0
 20 21  3  0
 19 12  1  0
  1 22  1  0
  1 23  1  0
  1 24  1  0
  5 25  1  0
  5 26  1  0
  6 27  1  0
  9 28  1  0
  9 29  1  0
 10 30  1  0
 10 31  1  0
 15 32  1  0
 15 33  1  0
 15 34  1  0
 16 35  1  0
 18 36  1  0
 18 37  1  0
 18 38  1  0
M  END
>  <Binding energies>  (1) 
[-6.65]

>  <Ligand effiencies>  (1) 
[-0.3022727272727273]

>  <Interactions>  (1) 
["V-B:GLU:543:CB:9878, V-A:HIS:456:CE1:4068, V-A:HIS:456:CD2:4066, V-B:GLU:543:CD:9880, V-A:GLU:543:CD:4906, V-B:HIS:456:CE1:9042, V-B:GLY:544:C:9884, V-B:HIS:456:CD2:9040, V-B:GLU:543:CG:9879, V-A:GLU:543:CG:4905, H-B:LYS:547:NZ:9923, V-A:ARG:545:CG:4920, V-A:HIS:456:CG:4064, V-A:HIS:456:CB:4063, V-B:LYS:547:CE:9922, H-A:ARG:545:NE:4922, V-A:GLU:543:C:4900, V-A:LYS:547:CD:4947, V-A:HIS:456:C:4059, V-A:LYS:471:CE:4218, V-A:ASP:473:CG:4238, H-A:GLY:544:O:4911, V-A:VAL:458:CG2:4085, H-A:GLU:543:O:4901, H-B:ARG:545:N:9892, H-A:ARG:545:N:4918, H-A:GLY:544:N:4913, V-A:LYS:471:CD:4217, V-A:LYS:471:CG:4216"]

$$$$
2a_Ghoteimi_2023
     RDKit          3D

 85 90  0  0  0  0  0  0  0  0999 V2000
  130.5600  122.6790   63.3270 C   0  0  0  0  0  0  0  0  0  0  0  0
  130.8040  122.0510   61.9510 C   0  0  0  0  0  0  0  0  0  0  0  0
  129.5600  121.8650   61.2890 O   0  0  0  0  0  0  0  0  0  0  0  0
  129.3170  122.4320   60.0790 C   0  0  0  0  0  0  0  0  0  0  0  0
  129.7250  121.9600   59.0130 O   0  0  0  0  0  0  0  0  0  0  0  0
  128.4950  123.6860   60.1670 C   0  0  0  0  0  0  0  0  0  0  0  0
  127.7670  124.0190   61.3190 C   0  0  0  0  0  0  0  0  0  0  0  0
  127.0170  125.1890   61.3670 C   0  0  0  0  0  0  0  0  0  0  0  0
  126.9820  126.0540   60.2710 C   0  0  0  0  0  0  0  0  0  0  0  0
  126.1880  127.2070   60.4280 N   0  0  0  0  0  0  0  0  0  0  0  0
  126.3270  128.4340   59.8810 C   0  0  0  0  0  0  0  0  0  0  0  0
  127.2530  128.7820   59.1480 O   0  0  0  0  0  0  0  0  0  0  0  0
  125.2420  129.4470   60.2680 C   0  0  0  0  0  0  0  0  0  0  0  0
  125.5620  130.3370   61.8260 S   0  0  0  0  0  0  0  0  0  0  0  0
  126.7730  129.3660   62.6920 C   0  0  0  0  0  0  0  0  0  0  0  0
  127.6880  128.7820   61.8840 N   0  0  0  0  0  0  0  0  0  0  0  0
  128.6600  128.0070   62.4270 C   0  0  0  0  0  0  0  0  0  0  0  0
  129.6300  127.3870   61.4730 C   0  0  0  0  0  0  0  0  0  0  0  0
  130.2710  126.1790   61.7730 C   0  0  0  0  0  0  0  0  0  0  0  0
  131.1810  125.6120   60.8860 C   0  0  0  0  0  0  0  0  0  0  0  0
  131.4800  126.2270   59.6610 C   0  0  0  0  0  0  0  0  0  0  0  0
  132.4200  125.6610   58.7930 N   0  0  0  0  0  0  0  0  0  0  0  0
  132.1920  125.6160   57.3350 C   0  0  0  0  0  0  0  0  0  0  0  0
  133.4600  125.2990   56.5150 C   0  0  0  0  0  0  0  0  0  0  0  0
  134.0470  124.0920   56.9750 O   0  0  0  0  0  0  0  0  0  0  0  0
  134.4250  124.1860   58.3390 C   0  0  0  0  0  0  0  0  0  0  0  0
  133.1870  124.4700   59.2150 C   0  0  0  0  0  0  0  0  0  0  0  0
  130.8430  127.4450   59.3710 C   0  0  0  0  0  0  0  0  0  0  0  0
  129.9320  128.0100   60.2570 C   0  0  0  0  0  0  0  0  0  0  0  0
  128.7420  127.8120   63.8080 C   0  0  0  0  0  0  0  0  0  0  0  0
  127.8050  128.4070   64.6650 C   0  0  0  0  0  0  0  0  0  0  0  0
  127.9470  128.1520   66.1310 C   0  0  0  0  0  0  0  0  0  0  0  0
  129.2110  128.1620   66.7270 C   0  0  0  0  0  0  0  0  0  0  0  0
  129.3560  127.9060   68.0870 C   0  0  0  0  0  0  0  0  0  0  0  0
  128.2400  127.6350   68.8940 C   0  0  0  0  0  0  0  0  0  0  0  0
  128.3650  127.3570   70.2580 N   0  0  0  0  0  0  0  0  0  0  0  0
  127.9130  128.3580   71.2440 C   0  0  0  0  0  0  0  0  0  0  0  0
  127.7440  127.7810   72.6660 C   0  0  0  0  0  0  0  0  0  0  0  0
  128.9520  127.1670   73.0880 O   0  0  0  0  0  0  0  0  0  0  0  0
  129.3310  126.1050   72.2260 C   0  0  0  0  0  0  0  0  0  0  0  0
  129.5380  126.6370   70.7930 C   0  0  0  0  0  0  0  0  0  0  0  0
  126.9770  127.6150   68.2860 C   0  0  0  0  0  0  0  0  0  0  0  0
  126.8320  127.8690   66.9250 C   0  0  0  0  0  0  0  0  0  0  0  0
  126.7910  129.2150   64.0970 C   0  0  0  0  0  0  0  0  0  0  0  0
  125.8170  129.9080   64.9460 C   0  0  0  0  0  0  0  0  0  0  0  0
  125.0490  130.4530   65.6190 N   0  0  0  0  0  0  0  0  0  0  0  0
  127.7000  125.7250   59.1130 C   0  0  0  0  0  0  0  0  0  0  0  0
  128.4520  124.5530   59.0660 C   0  0  0  0  0  0  0  0  0  0  0  0
  130.8389  121.9611   64.1124 H   0  0  0  0  0  0  0  0  0  0  0  0
  131.1701  123.5887   63.4283 H   0  0  0  0  0  0  0  0  0  0  0  0
  129.4958  122.9381   63.4283 H   0  0  0  0  0  0  0  0  0  0  0  0
  131.4425  122.7168   61.3518 H   0  0  0  0  0  0  0  0  0  0  0  0
  131.3032  121.0786   62.0745 H   0  0  0  0  0  0  0  0  0  0  0  0
  127.7896  123.3492   62.1913 H   0  0  0  0  0  0  0  0  0  0  0  0
  126.4470  125.4351   62.2750 H   0  0  0  0  0  0  0  0  0  0  0  0
  125.4160  127.0910   61.0670 H   0  0  0  0  0  0  0  0  0  0  0  0
  125.1595  130.1882   59.4594 H   0  0  0  0  0  0  0  0  0  0  0  0
  124.3165  128.8722   60.4199 H   0  0  0  0  0  0  0  0  0  0  0  0
  130.0521  125.6707   62.7237 H   0  0  0  0  0  0  0  0  0  0  0  0
  131.6745  124.6650   61.1499 H   0  0  0  0  0  0  0  0  0  0  0  0
  131.4407  124.8403   57.1254 H   0  0  0  0  0  0  0  0  0  0  0  0
  131.8577  126.6193   57.0323 H   0  0  0  0  0  0  0  0  0  0  0  0
  133.1901  125.1915   55.4541 H   0  0  0  0  0  0  0  0  0  0  0  0
  134.1821  126.1201   56.6353 H   0  0  0  0  0  0  0  0  0  0  0  0
  134.8844  123.2379   58.6552 H   0  0  0  0  0  0  0  0  0  0  0  0
  135.1452  125.0091   58.4567 H   0  0  0  0  0  0  0  0  0  0  0  0
  132.5219  123.5950   59.1701 H   0  0  0  0  0  0  0  0  0  0  0  0
  133.5528  124.6679   60.2333 H   0  0  0  0  0  0  0  0  0  0  0  0
  131.0688  127.9611   58.4262 H   0  0  0  0  0  0  0  0  0  0  0  0
  129.4419  128.9602   59.9982 H   0  0  0  0  0  0  0  0  0  0  0  0
  129.5461  127.1882   64.2254 H   0  0  0  0  0  0  0  0  0  0  0  0
  130.1000  128.3743   66.1150 H   0  0  0  0  0  0  0  0  0  0  0  0
  130.3600  127.9162   68.5363 H   0  0  0  0  0  0  0  0  0  0  0  0
  128.6543  129.1698   71.2824 H   0  0  0  0  0  0  0  0  0  0  0  0
  126.9249  128.7143   70.9173 H   0  0  0  0  0  0  0  0  0  0  0  0
  127.4867  128.5941   73.3607 H   0  0  0  0  0  0  0  0  0  0  0  0
  126.9410  127.0293   72.6573 H   0  0  0  0  0  0  0  0  0  0  0  0
  130.2691  125.6590   72.5881 H   0  0  0  0  0  0  0  0  0  0  0  0
  128.5356  125.3452   72.2177 H   0  0  0  0  0  0  0  0  0  0  0  0
  130.3967  127.3245   70.7973 H   0  0  0  0  0  0  0  0  0  0  0  0
  129.7062  125.7645   70.1446 H   0  0  0  0  0  0  0  0  0  0  0  0
  126.0868  127.3952   68.8937 H   0  0  0  0  0  0  0  0  0  0  0  0
  125.8307  127.8468   66.4702 H   0  0  0  0  0  0  0  0  0  0  0  0
  127.6697  126.3933   58.2398 H   0  0  0  0  0  0  0  0  0  0  0  0
  129.0178  124.3054   58.1557 H   0  0  0  0  0  0  0  0  0  0  0  0
  1  2  1  0
  2  3  1  0
  3  4  1  0
  4  5  2  0
  4  6  1  0
  6  7  2  0
  7  8  1  0
  8  9  2  0
  9 10  1  0
 10 11  1  0
 11 12  2  0
 11 13  1  0
 13 14  1  0
 14 15  1  0
 15 16  2  0
 16 17  1  0
 17 18  1  0
 18 19  2  0
 19 20  1  0
 20 21  2  0
 21 22  1  0
 22 23  1  0
 23 24  1  0
 24 25  1  0
 25 26  1  0
 26 27  1  0
 21 28  1  0
 28 29  2  0
 17 30  2  0
 30 31  1  0
 31 32  1  0
 32 33  2  0
 33 34  1  0
 34 35  2  0
 35 36  1  0
 36 37  1  0
 37 38  1  0
 38 39  1  0
 39 40  1  0
 40 41  1  0
 35 42  1  0
 42 43  2  0
 31 44  2  0
 44 45  1  0
 45 46  3  0
  9 47  1  0
 47 48  2  0
 48  6  1  0
 44 15  1  0
 29 18  1  0
 43 32  1  0
 27 22  1  0
 41 36  1  0
  1 49  1  0
  1 50  1  0
  1 51  1  0
  2 52  1  0
  2 53  1  0
  7 54  1  0
  8 55  1  0
 10 56  1  0
 13 57  1  0
 13 58  1  0
 19 59  1  0
 20 60  1  0
 23 61  1  0
 23 62  1  0
 24 63  1  0
 24 64  1  0
 26 65  1  0
 26 66  1  0
 27 67  1  0
 27 68  1  0
 28 69  1  0
 29 70  1  0
 30 71  1  0
 33 72  1  0
 34 73  1  0
 37 74  1  0
 37 75  1  0
 38 76  1  0
 38 77  1  0
 40 78  1  0
 40 79  1  0
 41 80  1  0
 41 81  1  0
 42 82  1  0
 43 83  1  0
 47 84  1  0
 48 85  1  0
M  END
>  <Binding energies>  (1) 
[0.62]

>  <Ligand effiencies>  (1) 
[0.012653061224489795]

>  <Interactions>  (1) 
["V-B:ARG:545:CZ:9898, V-A:HIS:456:CE1:4068, V-A:HIS:456:CD2:4066, V-B:GLU:543:CD:9880, H-B:TYR:484:OH:9320, V-A:GLU:543:CD:4906, H-B:GLY:454:N:9022, V-B:HIS:456:CE1:9042, H-A:LYS:547:NZ:4949, V-B:GLY:544:C:9884, V-B:HIS:456:CD2:9040, V-A:GLU:543:CB:4904, V-B:GLU:543:CG:9879, V-A:GLU:543:CG:4905, H-B:LYS:547:NZ:9923, V-B:GLU:543:C:9874, V-B:LYS:547:CE:9922, V-B:GLY:544:CA:9886, V-A:GLU:543:C:4900, V-B:TYR:539:CZ:9849, V-A:ILE:369:CD1:3237, V-A:LEU:475:CD2:4257, V-A:ASP:366:CG:3211, V-B:ALA:541:CB:9864, V-B:TYR:539:CD2:9846, V-A:ILE:369:CG2:3235, V-A:ASP:366:CA:3208, V-A:ASP:366:CB:3210, V-A:ASP:366:C:3206, V-A:ILE:369:CB:3234, V-B:ASP:366:CG:8185, V-A:TYR:531:CZ:4792, V-B:ASP:366:CB:8184, H-B:TYR:539:OH:9850, V-B:HIS:456:CG:9038, V-A:TYR:531:CE1:4790, V-B:ARG:545:CG:9894, H-B:ASP:366:OD2:8187, H-B:ASP:366:OD1:8186"]

$$$$
2a_Grossjean_2025
     RDKit          3D

 45 46  0  0  0  0  0  0  0  0999 V2000
  130.7670  126.1190   72.8550 C   0  0  0  0  0  0  0  0  0  0  0  0
  129.3710  125.7620   72.3370 C   0  0  0  0  0  0  0  0  0  0  0  0
  128.5050  126.8770   72.5130 O   0  0  0  0  0  0  0  0  0  0  0  0
  128.6160  127.9810   71.7290 C   0  0  0  0  0  0  0  0  0  0  0  0
  128.4100  129.1280   72.1360 O   0  0  0  0  0  0  0  0  0  0  0  0
  129.0360  127.6660   70.3220 C   0  0  0  0  0  0  0  0  0  0  0  0
  130.3870  127.6080   69.9470 C   0  0  0  0  0  0  0  0  0  0  0  0
  130.7430  127.3150   68.6340 C   0  0  0  0  0  0  0  0  0  0  0  0
  129.7620  127.0820   67.6690 C   0  0  0  0  0  0  0  0  0  0  0  0
  130.2360  126.8100   66.3730 N   0  0  0  0  0  0  0  0  0  0  0  0
  130.6120  125.6390   65.8140 C   0  0  0  0  0  0  0  0  0  0  0  0
  130.6290  124.5480   66.3840 O   0  0  0  0  0  0  0  0  0  0  0  0
  131.0500  125.7180   64.3470 C   0  0  0  0  0  0  0  0  0  0  0  0
  132.6560  124.9150   64.0300 S   0  0  0  0  0  0  0  0  0  0  0  0
  132.5390  123.8850   62.5710 C   0  0  0  0  0  0  0  0  0  0  0  0
  133.4010  124.1870   61.5670 N   0  0  0  0  0  0  0  0  0  0  0  0
  133.3600  123.4580   60.4290 C   0  0  0  0  0  0  0  0  0  0  0  0
  134.3350  123.8720   59.3430 C   0  0  0  0  0  0  0  0  0  0  0  0
  132.4730  122.4010   60.2460 C   0  0  0  0  0  0  0  0  0  0  0  0
  131.5790  122.0650   61.2750 C   0  0  0  0  0  0  0  0  0  0  0  0
  130.6050  120.8920   61.0570 C   0  0  0  0  0  0  0  0  0  0  0  0
  131.0360  120.1170   60.0620 F   0  0  0  0  0  0  0  0  0  0  0  0
  130.5160  120.1620   62.1690 F   0  0  0  0  0  0  0  0  0  0  0  0
  129.3710  121.2980   60.7440 F   0  0  0  0  0  0  0  0  0  0  0  0
  131.6090  122.8250   62.4720 C   0  0  0  0  0  0  0  0  0  0  0  0
  130.6940  122.5200   63.5770 C   0  0  0  0  0  0  0  0  0  0  0  0
  129.9730  122.2790   64.4490 N   0  0  0  0  0  0  0  0  0  0  0  0
  128.4100  127.1300   68.0380 C   0  0  0  0  0  0  0  0  0  0  0  0
  128.0550  127.4190   69.3530 C   0  0  0  0  0  0  0  0  0  0  0  0
  130.7614  126.1176   73.9550 H   0  0  0  0  0  0  0  0  0  0  0  0
  131.4938  125.3778   72.4911 H   0  0  0  0  0  0  0  0  0  0  0  0
  131.0487  127.1181   72.4911 H   0  0  0  0  0  0  0  0  0  0  0  0
  129.4296  125.5072   71.2685 H   0  0  0  0  0  0  0  0  0  0  0  0
  128.9797  124.8995   72.8965 H   0  0  0  0  0  0  0  0  0  0  0  0
  131.1702  127.7955   70.6963 H   0  0  0  0  0  0  0  0  0  0  0  0
  131.8058  127.2667   68.3545 H   0  0  0  0  0  0  0  0  0  0  0  0
  130.2510  127.6130   65.7630 H   0  0  0  0  0  0  0  0  0  0  0  0
  130.2855  125.2265   63.7274 H   0  0  0  0  0  0  0  0  0  0  0  0
  131.1634  126.7833   64.0976 H   0  0  0  0  0  0  0  0  0  0  0  0
  135.2540  124.2622   59.8047 H   0  0  0  0  0  0  0  0  0  0  0  0
  134.5800  123.0003   58.7184 H   0  0  0  0  0  0  0  0  0  0  0  0
  133.8779  124.6537   58.7184 H   0  0  0  0  0  0  0  0  0  0  0  0
  132.4725  121.8339   59.3034 H   0  0  0  0  0  0  0  0  0  0  0  0
  127.6288  126.9391   67.2875 H   0  0  0  0  0  0  0  0  0  0  0  0
  126.9921  127.4538   69.6342 H   0  0  0  0  0  0  0  0  0  0  0  0
  1  2  1  0
  2  3  1  0
  3  4  1  0
  4  5  2  0
  4  6  1  0
  6  7  2  0
  7  8  1  0
  8  9  2  0
  9 10  1  0
 10 11  1  0
 11 12  2  0
 11 13  1  0
 13 14  1  0
 14 15  1  0
 15 16  2  0
 16 17  1  0
 17 18  1  0
 17 19  2  0
 19 20  1  0
 20 21  1  0
 21 22  1  0
 21 23  1  0
 21 24  1  0
 20 25  2  0
 25 26  1  0
 26 27  3  0
  9 28  1  0
 28 29  2  0
 29  6  1  0
 25 15  1  0
  1 30  1  0
  1 31  1  0
  1 32  1  0
  2 33  1  0
  2 34  1  0
  7 35  1  0
  8 36  1  0
 10 37  1  0
 13 38  1  0
 13 39  1  0
 18 40  1  0
 18 41  1  0
 18 42  1  0
 19 43  1  0
 28 44  1  0
 29 45  1  0
M  END
>  <Binding energies>  (1) 
[-7.45]

>  <Ligand effiencies>  (1) 
[-0.24833333333333335]

>  <Interactions>  (1) 
["V-B:GLU:543:CB:9878, V-A:HIS:456:CE1:4068, V-A:HIS:456:CD2:4066, V-B:GLU:543:CD:9880, V-A:GLU:543:CD:4906, V-B:HIS:456:CE1:9042, V-A:GLY:544:CA:4912, H-A:LYS:547:NZ:4949, V-B:GLY:544:C:9884, V-A:GLY:544:C:4910, V-B:HIS:456:CD2:9040, V-B:GLU:543:CG:9879, V-A:GLU:543:CG:4905, H-B:LYS:547:NZ:9923, V-B:GLU:543:C:9874, V-A:ARG:545:CG:4920, H-A:TYR:484:OH:4346, V-A:HIS:456:CG:4064, V-B:LYS:547:CE:9922, V-B:GLY:544:CA:9886, H-A:ARG:545:NE:4922, V-A:GLU:543:C:4900, V-A:TRP:381:CZ2:3368, V-A:ILE:369:CD1:3237, V-A:LEU:475:CD2:4257, V-A:TRP:381:CH2:3370, V-B:TYR:539:C:9839, V-B:ALA:541:CA:9862, V-A:ASP:366:CG:3211, V-B:ALA:541:CB:9864, V-B:TYR:539:CD2:9846, V-B:TYR:539:CE2:9848, V-A:ILE:369:CG2:3235, V-A:ASP:366:CA:3208, V-A:ASP:366:CB:3210, V-A:ILE:369:CG1:3236, V-A:ILE:369:CB:3234, V-A:TRP:381:CZ3:3369, V-A:PRO:482:CB:4324, H-A:GLU:543:OE2:4908, H-A:GLU:543:OE1:4907, V-A:TYR:484:CE1:4343, H-B:GLU:543:OE2:9882, V-A:LEU:475:CD1:4256, V-A:LEU:475:CG:4255"]

$$$$
2aa_Ghoteimi_2023
     RDKit          3D

 85 90  0  0  0  0  0  0  0  0999 V2000
  133.5500  132.5850   56.3440 C   0  0  0  0  0  0  0  0  0  0  0  0
  132.8830  131.2780   56.7850 C   0  0  0  0  0  0  0  0  0  0  0  0
  133.6150  130.7180   57.8670 O   0  0  0  0  0  0  0  0  0  0  0  0
  133.3100  131.0230   59.1550 C   0  0  0  0  0  0  0  0  0  0  0  0
  134.1510  131.3770   59.9880 O   0  0  0  0  0  0  0  0  0  0  0  0
  131.8450  130.9050   59.4620 C   0  0  0  0  0  0  0  0  0  0  0  0
  130.9320  130.3930   58.5270 C   0  0  0  0  0  0  0  0  0  0  0  0
  129.5800  130.2920   58.8430 C   0  0  0  0  0  0  0  0  0  0  0  0
  129.1120  130.7050   60.0910 C   0  0  0  0  0  0  0  0  0  0  0  0
  127.7280  130.5550   60.3060 N   0  0  0  0  0  0  0  0  0  0  0  0
  126.8280  131.4340   60.7980 C   0  0  0  0  0  0  0  0  0  0  0  0
  127.0810  132.5920   61.1350 O   0  0  0  0  0  0  0  0  0  0  0  0
  125.3960  130.8930   60.8970 C   0  0  0  0  0  0  0  0  0  0  0  0
  125.2180  130.2310   62.1540 O   0  0  0  0  0  0  0  0  0  0  0  0
  126.2570  129.4950   62.7070 C   0  0  0  0  0  0  0  0  0  0  0  0
  127.1820  128.9580   61.8620 N   0  0  0  0  0  0  0  0  0  0  0  0
  128.2120  128.2360   62.3710 C   0  0  0  0  0  0  0  0  0  0  0  0
  129.1860  127.6740   61.3840 C   0  0  0  0  0  0  0  0  0  0  0  0
  130.4660  127.2810   61.7880 C   0  0  0  0  0  0  0  0  0  0  0  0
  131.3740  126.7510   60.8740 C   0  0  0  0  0  0  0  0  0  0  0  0
  131.0300  126.5810   59.5240 C   0  0  0  0  0  0  0  0  0  0  0  0
  131.9340  126.0620   58.5910 N   0  0  0  0  0  0  0  0  0  0  0  0
  132.6350  124.7830   58.8270 C   0  0  0  0  0  0  0  0  0  0  0  0
  133.8350  124.5470   57.8860 C   0  0  0  0  0  0  0  0  0  0  0  0
  133.4210  124.6560   56.5340 O   0  0  0  0  0  0  0  0  0  0  0  0
  132.8960  125.9450   56.2540 C   0  0  0  0  0  0  0  0  0  0  0  0
  131.6680  126.2220   57.1460 C   0  0  0  0  0  0  0  0  0  0  0  0
  129.7530  126.9970   59.1200 C   0  0  0  0  0  0  0  0  0  0  0  0
  128.8470  127.5300   60.0330 C   0  0  0  0  0  0  0  0  0  0  0  0
  128.3330  128.0190   63.7460 C   0  0  0  0  0  0  0  0  0  0  0  0
  127.3900  128.5500   64.6350 C   0  0  0  0  0  0  0  0  0  0  0  0
  127.5580  128.2630   66.0920 C   0  0  0  0  0  0  0  0  0  0  0  0
  126.4840  127.7810   66.8450 C   0  0  0  0  0  0  0  0  0  0  0  0
  126.6280  127.5300   68.2070 C   0  0  0  0  0  0  0  0  0  0  0  0
  127.8480  127.7680   68.8590 C   0  0  0  0  0  0  0  0  0  0  0  0
  128.0170  127.5200   70.2240 N   0  0  0  0  0  0  0  0  0  0  0  0
  127.7250  128.5540   71.2350 C   0  0  0  0  0  0  0  0  0  0  0  0
  127.6260  127.9990   72.6720 C   0  0  0  0  0  0  0  0  0  0  0  0
  128.8120  127.2910   73.0000 O   0  0  0  0  0  0  0  0  0  0  0  0
  129.0300  126.1990   72.1200 C   0  0  0  0  0  0  0  0  0  0  0  0
  129.1660  126.7060   70.6700 C   0  0  0  0  0  0  0  0  0  0  0  0
  128.9220  128.2440   68.0940 C   0  0  0  0  0  0  0  0  0  0  0  0
  128.7780  128.4950   66.7330 C   0  0  0  0  0  0  0  0  0  0  0  0
  126.3310  129.3210   64.1000 C   0  0  0  0  0  0  0  0  0  0  0  0
  125.3270  129.9560   64.9570 C   0  0  0  0  0  0  0  0  0  0  0  0
  124.5350  130.4580   65.6350 N   0  0  0  0  0  0  0  0  0  0  0  0
  130.0190  131.2110   61.0330 C   0  0  0  0  0  0  0  0  0  0  0  0
  131.3720  131.3080   60.7160 C   0  0  0  0  0  0  0  0  0  0  0  0
  133.8453  133.1636   57.2317 H   0  0  0  0  0  0  0  0  0  0  0  0
  134.4418  132.3566   55.7419 H   0  0  0  0  0  0  0  0  0  0  0  0
  132.8418  133.1731   55.7419 H   0  0  0  0  0  0  0  0  0  0  0  0
  131.8511  131.4825   57.1065 H   0  0  0  0  0  0  0  0  0  0  0  0
  132.8696  130.5694   55.9437 H   0  0  0  0  0  0  0  0  0  0  0  0
  131.2873  130.0693   57.5376 H   0  0  0  0  0  0  0  0  0  0  0  0
  128.8755  129.8836   58.1035 H   0  0  0  0  0  0  0  0  0  0  0  0
  127.3590  129.6640   60.0060 H   0  0  0  0  0  0  0  0  0  0  0  0
  124.6833  131.7272   60.8186 H   0  0  0  0  0  0  0  0  0  0  0  0
  125.2183  130.1785   60.0797 H   0  0  0  0  0  0  0  0  0  0  0  0
  130.7599  127.3919   62.8422 H   0  0  0  0  0  0  0  0  0  0  0  0
  132.3782  126.4607   61.2164 H   0  0  0  0  0  0  0  0  0  0  0  0
  133.0009  124.7745   59.8643 H   0  0  0  0  0  0  0  0  0  0  0  0
  131.9103  123.9795   58.6293 H   0  0  0  0  0  0  0  0  0  0  0  0
  134.6116  125.2987   58.0907 H   0  0  0  0  0  0  0  0  0  0  0  0
  134.2368  123.5379   58.0600 H   0  0  0  0  0  0  0  0  0  0  0  0
  133.6680  126.7032   56.4519 H   0  0  0  0  0  0  0  0  0  0  0  0
  132.5912  125.9882   55.1979 H   0  0  0  0  0  0  0  0  0  0  0  0
  131.3346  127.2548   56.9667 H   0  0  0  0  0  0  0  0  0  0  0  0
  130.9016  125.4803   56.8766 H   0  0  0  0  0  0  0  0  0  0  0  0
  129.4622  126.9005   58.0635 H   0  0  0  0  0  0  0  0  0  0  0  0
  127.8504  127.8425   59.6880 H   0  0  0  0  0  0  0  0  0  0  0  0
  129.1752  127.4267   64.1331 H   0  0  0  0  0  0  0  0  0  0  0  0
  125.5153  127.5981   66.3570 H   0  0  0  0  0  0  0  0  0  0  0  0
  125.7739  127.1398   68.7799 H   0  0  0  0  0  0  0  0  0  0  0  0
  128.5278  129.3055   71.2065 H   0  0  0  0  0  0  0  0  0  0  0  0
  126.7433  128.9828   70.9853 H   0  0  0  0  0  0  0  0  0  0  0  0
  127.4926  128.8331   73.3766 H   0  0  0  0  0  0  0  0  0  0  0  0
  126.7667  127.3154   72.7375 H   0  0  0  0  0  0  0  0  0  0  0  0
  129.9531  125.6761   72.4107 H   0  0  0  0  0  0  0  0  0  0  0  0
  128.1745  125.5104   72.1819 H   0  0  0  0  0  0  0  0  0  0  0  0
  130.0765  127.3191   70.5988 H   0  0  0  0  0  0  0  0  0  0  0  0
  129.2096  125.8206   70.0187 H   0  0  0  0  0  0  0  0  0  0  0  0
  129.8940  128.4219   68.5773 H   0  0  0  0  0  0  0  0  0  0  0  0
  129.6322  128.8795   66.1563 H   0  0  0  0  0  0  0  0  0  0  0  0
  129.6620  131.5315   62.0228 H   0  0  0  0  0  0  0  0  0  0  0  0
  132.0772  131.7062   61.4604 H   0  0  0  0  0  0  0  0  0  0  0  0
  1  2  1  0
  2  3  1  0
  3  4  1  0
  4  5  2  0
  4  6  1  0
  6  7  2  0
  7  8  1  0
  8  9  2  0
  9 10  1  0
 10 11  1  0
 11 12  2  0
 11 13  1  0
 13 14  1  0
 14 15  1  0
 15 16  2  0
 16 17  1  0
 17 18  1  0
 18 19  2  0
 19 20  1  0
 20 21  2  0
 21 22  1  0
 22 23  1  0
 23 24  1  0
 24 25  1  0
 25 26  1  0
 26 27  1  0
 21 28  1  0
 28 29  2  0
 17 30  2  0
 30 31  1  0
 31 32  1  0
 32 33  2  0
 33 34  1  0
 34 35  2  0
 35 36  1  0
 36 37  1  0
 37 38  1  0
 38 39  1  0
 39 40  1  0
 40 41  1  0
 35 42  1  0
 42 43  2  0
 31 44  2  0
 44 45  1  0
 45 46  3  0
  9 47  1  0
 47 48  2  0
 48  6  1  0
 44 15  1  0
 29 18  1  0
 43 32  1  0
 27 22  1  0
 41 36  1  0
  1 49  1  0
  1 50  1  0
  1 51  1  0
  2 52  1  0
  2 53  1  0
  7 54  1  0
  8 55  1  0
 10 56  1  0
 13 57  1  0
 13 58  1  0
 19 59  1  0
 20 60  1  0
 23 61  1  0
 23 62  1  0
 24 63  1  0
 24 64  1  0
 26 65  1  0
 26 66  1  0
 27 67  1  0
 27 68  1  0
 28 69  1  0
 29 70  1  0
 30 71  1  0
 33 72  1  0
 34 73  1  0
 37 74  1  0
 37 75  1  0
 38 76  1  0
 38 77  1  0
 40 78  1  0
 40 79  1  0
 41 80  1  0
 41 81  1  0
 42 82  1  0
 43 83  1  0
 47 84  1  0
 48 85  1  0
M  END
>  <Binding energies>  (1) 
[-0.31]

>  <Ligand effiencies>  (1) 
[-0.0063265306122448975]

>  <Interactions>  (1) 
["V-B:ARG:545:CZ:9898, V-A:HIS:456:CE1:4068, V-A:HIS:456:CD2:4066, V-B:GLU:543:CD:9880, H-B:TYR:484:OH:9320, V-A:GLU:543:CD:4906, H-B:GLY:454:N:9022, V-B:HIS:456:CE1:9042, H-A:LYS:547:NZ:4949, V-B:GLY:544:C:9884, V-B:HIS:456:CD2:9040, V-A:GLU:543:CB:4904, V-B:GLU:543:CG:9879, V-A:GLU:543:CG:4905, H-B:LYS:547:NZ:9923, V-B:GLU:543:C:9874, V-B:LYS:547:CE:9922, V-B:GLY:544:CA:9886, V-A:GLU:543:C:4900, V-A:ASP:366:CG:3211, V-A:ASP:366:CA:3208, V-A:ASP:366:CB:3210, V-A:ASP:366:C:3206, H-A:TYR:531:OH:4793, V-A:PRO:540:CG:4884, V-A:PRO:540:CA:4881, V-A:PRO:540:N:4882, H-A:LEU:363:N:3184, V-A:TYR:531:CZ:4792, H-B:ARG:545:NH2:9900, V-A:PRO:540:CB:4883, V-A:PRO:540:CD:4885, V-A:ASN:362:C:3170, V-A:PRO:540:C:4879, V-A:TYR:531:CE2:4791, V-A:LEU:363:CA:3183, H-B:TYR:539:OH:9850, V-B:HIS:456:CG:9038, V-A:TYR:531:CE1:4790, V-B:ARG:545:CG:9894, V-B:ARG:545:CD:9895, V-B:ARG:545:CA:9891, V-A:LEU:363:CD1:3187, V-A:LEU:363:CB:3185, V-B:ARG:545:CB:9893, V-A:ILE:538:CB:4860"]

$$$$
2b_Ghoteimi_2023
     RDKit          3D

 72 77  0  0  0  0  0  0  0  0999 V2000
  130.9190  123.6890   59.8580 N   0  0  0  0  0  0  0  0  0  0  0  0
  130.8100  124.1500   60.9140 C   0  0  0  0  0  0  0  0  0  0  0  0
  130.6690  124.7390   62.2490 C   0  0  0  0  0  0  0  0  0  0  0  0
  130.0210  125.9880   62.4200 C   0  0  0  0  0  0  0  0  0  0  0  0
  129.4450  126.7860   61.2970 C   0  0  0  0  0  0  0  0  0  0  0  0
  130.2840  127.4750   60.4190 C   0  0  0  0  0  0  0  0  0  0  0  0
  129.7520  128.2200   59.3710 C   0  0  0  0  0  0  0  0  0  0  0  0
  128.3640  128.3110   59.1820 C   0  0  0  0  0  0  0  0  0  0  0  0
  127.8080  129.0420   58.1310 N   0  0  0  0  0  0  0  0  0  0  0  0
  126.3390  129.0900   57.9880 C   0  0  0  0  0  0  0  0  0  0  0  0
  125.8760  129.5950   56.6050 C   0  0  0  0  0  0  0  0  0  0  0  0
  126.4590  130.8580   56.3240 O   0  0  0  0  0  0  0  0  0  0  0  0
  127.8760  130.7920   56.3160 C   0  0  0  0  0  0  0  0  0  0  0  0
  128.3880  130.3270   57.6950 C   0  0  0  0  0  0  0  0  0  0  0  0
  127.5300  127.6190   60.0710 C   0  0  0  0  0  0  0  0  0  0  0  0
  128.0620  126.8700   61.1160 C   0  0  0  0  0  0  0  0  0  0  0  0
  129.9060  126.5080   63.7150 C   0  0  0  0  0  0  0  0  0  0  0  0
  130.3920  125.7900   64.8120 C   0  0  0  0  0  0  0  0  0  0  0  0
  130.2670  126.2870   66.2170 C   0  0  0  0  0  0  0  0  0  0  0  0
  129.0440  126.2130   66.8940 C   0  0  0  0  0  0  0  0  0  0  0  0
  128.9240  126.6580   68.2080 C   0  0  0  0  0  0  0  0  0  0  0  0
  130.0210  127.2080   68.8910 C   0  0  0  0  0  0  0  0  0  0  0  0
  129.9240  127.6310   70.2210 N   0  0  0  0  0  0  0  0  0  0  0  0
  128.7200  128.3580   70.6760 C   0  0  0  0  0  0  0  0  0  0  0  0
  128.9130  129.0920   72.0200 C   0  0  0  0  0  0  0  0  0  0  0  0
  129.3620  128.1810   73.0110 O   0  0  0  0  0  0  0  0  0  0  0  0
  130.6050  127.5980   72.6560 C   0  0  0  0  0  0  0  0  0  0  0  0
  130.4660  126.8220   71.3290 C   0  0  0  0  0  0  0  0  0  0  0  0
  131.2460  127.2730   68.2110 C   0  0  0  0  0  0  0  0  0  0  0  0
  131.3650  126.8250   66.8980 C   0  0  0  0  0  0  0  0  0  0  0  0
  131.0110  124.5940   64.6460 N   0  0  0  0  0  0  0  0  0  0  0  0
  131.1640  124.0860   63.4000 C   0  0  0  0  0  0  0  0  0  0  0  0
  132.0000  122.5150   63.3690 S   0  0  0  0  0  0  0  0  0  0  0  0
  133.6310  122.7770   62.6090 C   0  0  0  0  0  0  0  0  0  0  0  0
  133.5690  122.7220   61.0820 C   0  0  0  0  0  0  0  0  0  0  0  0
  133.3300  121.6490   60.5250 O   0  0  0  0  0  0  0  0  0  0  0  0
  133.7960  123.8930   60.4480 N   0  0  0  0  0  0  0  0  0  0  0  0
  133.7890  124.1250   59.0800 C   0  0  0  0  0  0  0  0  0  0  0  0
  132.9030  125.0070   58.4630 C   0  0  0  0  0  0  0  0  0  0  0  0
  133.2180  124.9520   57.1260 C   0  0  0  0  0  0  0  0  0  0  0  0
  134.2400  124.0830   56.9460 O   0  0  0  0  0  0  0  0  0  0  0  0
  134.5960  123.5660   58.1940 N   0  0  0  0  0  0  0  0  0  0  0  0
  131.3743  127.4285   60.5568 H   0  0  0  0  0  0  0  0  0  0  0  0
  130.4287  128.7451   58.6808 H   0  0  0  0  0  0  0  0  0  0  0  0
  125.9401  128.0764   58.1410 H   0  0  0  0  0  0  0  0  0  0  0  0
  125.9620  129.8015   58.7374 H   0  0  0  0  0  0  0  0  0  0  0  0
  126.1827  128.8735   55.8334 H   0  0  0  0  0  0  0  0  0  0  0  0
  124.7808  129.6981   56.6088 H   0  0  0  0  0  0  0  0  0  0  0  0
  128.2035  130.0783   55.5457 H   0  0  0  0  0  0  0  0  0  0  0  0
  128.2837  131.7897   56.0960 H   0  0  0  0  0  0  0  0  0  0  0  0
  129.4812  130.2165   57.6423 H   0  0  0  0  0  0  0  0  0  0  0  0
  128.0827  131.0875   58.4288 H   0  0  0  0  0  0  0  0  0  0  0  0
  126.4389  127.6688   59.9406 H   0  0  0  0  0  0  0  0  0  0  0  0
  127.3884  126.3397   61.8052 H   0  0  0  0  0  0  0  0  0  0  0  0
  129.4303  127.4876   63.8703 H   0  0  0  0  0  0  0  0  0  0  0  0
  128.1647  125.7971   66.3804 H   0  0  0  0  0  0  0  0  0  0  0  0
  127.9536  126.5774   68.7197 H   0  0  0  0  0  0  0  0  0  0  0  0
  128.4515  129.1002   69.9098 H   0  0  0  0  0  0  0  0  0  0  0  0
  127.9289  127.6090   70.8280 H   0  0  0  0  0  0  0  0  0  0  0  0
  129.6589  129.8908   71.8949 H   0  0  0  0  0  0  0  0  0  0  0  0
  127.9523  129.5245   72.3362 H   0  0  0  0  0  0  0  0  0  0  0  0
  131.3581  128.3909   72.5369 H   0  0  0  0  0  0  0  0  0  0  0  0
  130.9166  126.9026   73.4493 H   0  0  0  0  0  0  0  0  0  0  0  0
  131.4606  126.4546   71.0361 H   0  0  0  0  0  0  0  0  0  0  0  0
  129.7518  126.0049   71.5086 H   0  0  0  0  0  0  0  0  0  0  0  0
  132.1277  127.6849   68.7237 H   0  0  0  0  0  0  0  0  0  0  0  0
  132.3371  126.8950   66.3880 H   0  0  0  0  0  0  0  0  0  0  0  0
  134.0099  123.7638   62.9134 H   0  0  0  0  0  0  0  0  0  0  0  0
  134.2975  121.9712   62.9504 H   0  0  0  0  0  0  0  0  0  0  0  0
  133.9660  124.7050   61.0240 H   0  0  0  0  0  0  0  0  0  0  0  0
  132.1214  125.6150   58.9421 H   0  0  0  0  0  0  0  0  0  0  0  0
  132.7190  125.5232   56.3293 H   0  0  0  0  0  0  0  0  0  0  0  0
  1  2  3  0
  2  3  1  0
  3  4  2  0
  4  5  1  0
  5  6  2  0
  6  7  1  0
  7  8  2  0
  8  9  1  0
  9 10  1  0
 10 11  1  0
 11 12  1  0
 12 13  1  0
 13 14  1  0
  8 15  1  0
 15 16  2  0
  4 17  1  0
 17 18  2  0
 18 19  1  0
 19 20  2  0
 20 21  1  0
 21 22  2  0
 22 23  1  0
 23 24  1  0
 24 25  1  0
 25 26  1  0
 26 27  1  0
 27 28  1  0
 22 29  1  0
 29 30  2  0
 18 31  1  0
 31 32  2  0
 32 33  1  0
 33 34  1  0
 34 35  1  0
 35 36  2  0
 35 37  1  0
 37 38  1  0
 38 39  1  0
 39 40  2  0
 40 41  1  0
 41 42  1  0
 32  3  1  0
 42 38  2  0
 16  5  1  0
 30 19  1  0
 14  9  1  0
 28 23  1  0
  6 43  1  0
  7 44  1  0
 10 45  1  0
 10 46  1  0
 11 47  1  0
 11 48  1  0
 13 49  1  0
 13 50  1  0
 14 51  1  0
 14 52  1  0
 15 53  1  0
 16 54  1  0
 17 55  1  0
 20 56  1  0
 21 57  1  0
 24 58  1  0
 24 59  1  0
 25 60  1  0
 25 61  1  0
 27 62  1  0
 27 63  1  0
 28 64  1  0
 28 65  1  0
 29 66  1  0
 30 67  1  0
 34 68  1  0
 34 69  1  0
 37 70  1  0
 39 71  1  0
 40 72  1  0
M  END
>  <Binding energies>  (1) 
[-4.93]

>  <Ligand effiencies>  (1) 
[-0.11465116279069766]

>  <Interactions>  (1) 
["V-B:GLU:543:CB:9878, V-A:HIS:456:CE1:4068, V-A:HIS:456:CD2:4066, V-B:GLU:543:CD:9880, V-A:GLU:543:CD:4906, V-B:HIS:456:CE1:9042, V-A:GLY:544:CA:4912, H-A:LYS:547:NZ:4949, V-A:GLY:544:C:4910, V-B:HIS:456:CD2:9040, V-B:GLU:543:CG:9879, V-A:GLU:543:CG:4905, V-B:GLU:543:C:9874, V-A:ARG:545:CG:4920, V-A:LYS:547:CE:4948, H-A:TYR:484:OH:4346, V-A:ARG:545:CD:4921, V-A:HIS:456:CG:4064, V-A:GLU:543:C:4900, V-A:ARG:545:CA:4917, V-B:TYR:539:CZ:9849, V-A:GLY:453:C:4040, V-A:ILE:369:CD1:3237, V-A:LEU:475:CD2:4257, V-A:ASP:366:CG:3211, V-A:GLY:454:CA:4047, V-B:TYR:539:CE2:9848, V-A:ILE:369:CG2:3235, V-A:ASP:366:CA:3208, V-A:ASP:366:CB:3210, V-A:ASP:366:C:3206, V-A:TYR:539:CE2:4874, V-A:TYR:539:CE1:4873, V-A:TYR:539:CZ:4875, H-B:TYR:539:OH:9850, H-A:TYR:539:OH:4876, H-A:ASP:366:OD1:3212"]

$$$$
2b_Grossjean_2025
     RDKit          3D

 42 43  0  0  0  0  0  0  0  0999 V2000
  126.4490  128.4060   73.9780 C   0  0  0  0  0  0  0  0  0  0  0  0
  127.8080  128.2000   73.6170 O   0  0  0  0  0  0  0  0  0  0  0  0
  128.4200  129.0040   72.7100 C   0  0  0  0  0  0  0  0  0  0  0  0
  128.6570  130.1990   72.9110 O   0  0  0  0  0  0  0  0  0  0  0  0
  128.7760  128.2950   71.4360 C   0  0  0  0  0  0  0  0  0  0  0  0
  127.8140  127.9930   70.4610 C   0  0  0  0  0  0  0  0  0  0  0  0
  128.1770  127.3330   69.2900 C   0  0  0  0  0  0  0  0  0  0  0  0
  129.5050  126.9690   69.0660 C   0  0  0  0  0  0  0  0  0  0  0  0
  129.7610  126.3010   67.8530 N   0  0  0  0  0  0  0  0  0  0  0  0
  130.6060  126.6260   66.8520 C   0  0  0  0  0  0  0  0  0  0  0  0
  131.3170  127.6320   66.8180 O   0  0  0  0  0  0  0  0  0  0  0  0
  130.6350  125.6440   65.6770 C   0  0  0  0  0  0  0  0  0  0  0  0
  132.2870  125.4730   64.9260 S   0  0  0  0  0  0  0  0  0  0  0  0
  132.1610  124.6170   63.3610 C   0  0  0  0  0  0  0  0  0  0  0  0
  133.0300  123.5910   63.1790 N   0  0  0  0  0  0  0  0  0  0  0  0
  132.9940  122.9030   62.0160 C   0  0  0  0  0  0  0  0  0  0  0  0
  134.0060  121.7800   61.8860 C   0  0  0  0  0  0  0  0  0  0  0  0
  132.0940  123.1970   60.9960 C   0  0  0  0  0  0  0  0  0  0  0  0
  131.1810  124.2500   61.1650 C   0  0  0  0  0  0  0  0  0  0  0  0
  130.1890  124.5600   60.0290 C   0  0  0  0  0  0  0  0  0  0  0  0
  130.3770  123.7140   59.0150 F   0  0  0  0  0  0  0  0  0  0  0  0
  128.9350  124.4350   60.4680 F   0  0  0  0  0  0  0  0  0  0  0  0
  130.3230  125.7980   59.5490 F   0  0  0  0  0  0  0  0  0  0  0  0
  131.2120  124.9850   62.3780 C   0  0  0  0  0  0  0  0  0  0  0  0
  130.2850  126.0980   62.6060 C   0  0  0  0  0  0  0  0  0  0  0  0
  129.5530  126.9760   62.7860 N   0  0  0  0  0  0  0  0  0  0  0  0
  130.4720  127.2610   70.0390 C   0  0  0  0  0  0  0  0  0  0  0  0
  130.1070  127.9190   71.2100 C   0  0  0  0  0  0  0  0  0  0  0  0
  126.3588  128.4197   75.0742 H   0  0  0  0  0  0  0  0  0  0  0  0
  126.1027  129.3669   73.5696 H   0  0  0  0  0  0  0  0  0  0  0  0
  125.8335  127.5909   73.5696 H   0  0  0  0  0  0  0  0  0  0  0  0
  126.7645  128.2798   70.6228 H   0  0  0  0  0  0  0  0  0  0  0  0
  127.4114  127.0970   68.5363 H   0  0  0  0  0  0  0  0  0  0  0  0
  129.1870  125.4850   67.7010 H   0  0  0  0  0  0  0  0  0  0  0  0
  130.3111  124.6568   66.0382 H   0  0  0  0  0  0  0  0  0  0  0  0
  129.9628  126.0410   64.9021 H   0  0  0  0  0  0  0  0  0  0  0  0
  134.3100  121.4426   62.8879 H   0  0  0  0  0  0  0  0  0  0  0  0
  133.5536  120.9404   61.3379 H   0  0  0  0  0  0  0  0  0  0  0  0
  134.8880  122.1429   61.3379 H   0  0  0  0  0  0  0  0  0  0  0  0
  132.0980  122.6097   60.0659 H   0  0  0  0  0  0  0  0  0  0  0  0
  131.5202  126.9696   69.8765 H   0  0  0  0  0  0  0  0  0  0  0  0
  130.8722  128.1465   71.9668 H   0  0  0  0  0  0  0  0  0  0  0  0
  1  2  1  0
  2  3  1  0
  3  4  2  0
  3  5  1  0
  5  6  2  0
  6  7  1  0
  7  8  2  0
  8  9  1  0
  9 10  1  0
 10 11  2  0
 10 12  1  0
 12 13  1  0
 13 14  1  0
 14 15  2  0
 15 16  1  0
 16 17  1  0
 16 18  2  0
 18 19  1  0
 19 20  1  0
 20 21  1  0
 20 22  1  0
 20 23  1  0
 19 24  2  0
 24 25  1  0
 25 26  3  0
  8 27  1  0
 27 28  2  0
 28  5  1  0
 24 14  1  0
  1 29  1  0
  1 30  1  0
  1 31  1  0
  6 32  1  0
  7 33  1  0
  9 34  1  0
 12 35  1  0
 12 36  1  0
 17 37  1  0
 17 38  1  0
 17 39  1  0
 18 40  1  0
 27 41  1  0
 28 42  1  0
M  END
>  <Binding energies>  (1) 
[-6.89]

>  <Ligand effiencies>  (1) 
[-0.23758620689655172]

>  <Interactions>  (1) 
["V-B:GLU:543:CB:9878, V-A:HIS:456:CE1:4068, V-A:HIS:456:CD2:4066, V-B:GLU:543:CD:9880, H-A:HIS:456:NE2:4069, V-A:GLU:543:CD:4906, V-B:HIS:456:CE1:9042, V-A:GLY:544:CA:4912, H-A:LYS:547:NZ:4949, V-B:GLY:544:C:9884, V-A:GLY:544:C:4910, H-B:GLU:543:O:9875, V-B:HIS:456:CD2:9040, V-B:GLU:543:CG:9879, V-A:GLU:543:CG:4905, H-A:GLY:454:N:4048, V-B:GLU:543:C:9874, V-A:ARG:545:CG:4920, V-A:LYS:547:CE:4948, H-A:TYR:484:OH:4346, V-B:LYS:547:CE:9922, H-A:ARG:545:NE:4922, V-A:GLU:543:C:4900, V-A:ILE:369:CD1:3237, V-A:LEU:475:CD2:4257, V-A:GLY:454:CA:4047, V-B:TYR:539:CD2:9846, V-B:TYR:539:CE2:9848, V-B:HIS:456:CG:9038, V-B:HIS:456:CB:9037"]

$$$$
2c_Ghoteimi_2023
     RDKit          3D

 72 77  0  0  0  0  0  0  0  0999 V2000
  126.0950  130.8580   60.1360 N   0  0  0  0  0  0  0  0  0  0  0  0
  126.3680  130.4280   61.1740 C   0  0  0  0  0  0  0  0  0  0  0  0
  126.7190  129.8790   62.4880 C   0  0  0  0  0  0  0  0  0  0  0  0
  127.6400  128.8080   62.6000 C   0  0  0  0  0  0  0  0  0  0  0  0
  128.3100  128.1620   61.4310 C   0  0  0  0  0  0  0  0  0  0  0  0
  129.6270  128.4900   61.1070 C   0  0  0  0  0  0  0  0  0  0  0  0
  130.2600  127.8880   60.0220 C   0  0  0  0  0  0  0  0  0  0  0  0
  129.5880  126.9510   59.2230 C   0  0  0  0  0  0  0  0  0  0  0  0
  130.2100  126.3210   58.1420 N   0  0  0  0  0  0  0  0  0  0  0  0
  131.6710  126.4460   57.9770 C   0  0  0  0  0  0  0  0  0  0  0  0
  132.1620  126.0450   56.5690 C   0  0  0  0  0  0  0  0  0  0  0  0
  131.7270  124.7300   56.2590 O   0  0  0  0  0  0  0  0  0  0  0  0
  130.3120  124.6270   56.2740 C   0  0  0  0  0  0  0  0  0  0  0  0
  129.7730  124.9920   57.6730 C   0  0  0  0  0  0  0  0  0  0  0  0
  128.2630  126.6310   59.5540 C   0  0  0  0  0  0  0  0  0  0  0  0
  127.6320  127.2310   60.6400 C   0  0  0  0  0  0  0  0  0  0  0  0
  127.9450  128.3220   63.8770 C   0  0  0  0  0  0  0  0  0  0  0  0
  127.3710  128.9030   65.0120 C   0  0  0  0  0  0  0  0  0  0  0  0
  127.6770  128.4320   66.3980 C   0  0  0  0  0  0  0  0  0  0  0  0
  126.6700  127.9050   67.2120 C   0  0  0  0  0  0  0  0  0  0  0  0
  126.9500  127.4590   68.5020 C   0  0  0  0  0  0  0  0  0  0  0  0
  128.2480  127.5350   69.0290 C   0  0  0  0  0  0  0  0  0  0  0  0
  128.5510  127.0690   70.3130 N   0  0  0  0  0  0  0  0  0  0  0  0
  129.8920  126.5180   70.5980 C   0  0  0  0  0  0  0  0  0  0  0  0
  129.9620  125.7040   71.9070 C   0  0  0  0  0  0  0  0  0  0  0  0
  129.4980  126.4890   72.9930 O   0  0  0  0  0  0  0  0  0  0  0  0
  128.1510  126.8910   72.8050 C   0  0  0  0  0  0  0  0  0  0  0  0
  128.0240  127.7370   71.5200 C   0  0  0  0  0  0  0  0  0  0  0  0
  129.2570  128.0520   68.2050 C   0  0  0  0  0  0  0  0  0  0  0  0
  128.9770  128.4960   66.9150 C   0  0  0  0  0  0  0  0  0  0  0  0
  126.4910  129.9300   64.9030 N   0  0  0  0  0  0  0  0  0  0  0  0
  126.1560  130.3980   63.6760 C   0  0  0  0  0  0  0  0  0  0  0  0
  124.9850  131.7350   63.7200 S   0  0  0  0  0  0  0  0  0  0  0  0
  125.8860  133.2630   63.3190 C   0  0  0  0  0  0  0  0  0  0  0  0
  126.7920  133.0920   62.0990 C   0  0  0  0  0  0  0  0  0  0  0  0
  126.4170  133.5130   61.0040 O   0  0  0  0  0  0  0  0  0  0  0  0
  127.9670  132.4670   62.3290 N   0  0  0  0  0  0  0  0  0  0  0  0
  128.9630  132.2060   61.4000 C   0  0  0  0  0  0  0  0  0  0  0  0
  130.1820  131.7650   61.6250 N   0  0  0  0  0  0  0  0  0  0  0  0
  130.8610  131.6240   60.5040 C   0  0  0  0  0  0  0  0  0  0  0  0
  130.1900  131.9580   59.3320 C   0  0  0  0  0  0  0  0  0  0  0  0
  128.5810  132.4820   59.7310 S   0  0  0  0  0  0  0  0  0  0  0  0
  130.1698  129.2300   61.7134 H   0  0  0  0  0  0  0  0  0  0  0  0
  131.3022  128.1512   59.7883 H   0  0  0  0  0  0  0  0  0  0  0  0
  131.9551  127.4926   58.1611 H   0  0  0  0  0  0  0  0  0  0  0  0
  132.1406  125.7573   58.6947 H   0  0  0  0  0  0  0  0  0  0  0  0
  131.7545  126.7477   55.8273 H   0  0  0  0  0  0  0  0  0  0  0  0
  133.2614  126.0759   56.5478 H   0  0  0  0  0  0  0  0  0  0  0  0
  129.8883  125.3163   55.5288 H   0  0  0  0  0  0  0  0  0  0  0  0
  130.0218  123.5938   56.0326 H   0  0  0  0  0  0  0  0  0  0  0  0
  128.6737  124.9792   57.6372 H   0  0  0  0  0  0  0  0  0  0  0  0
  130.1752  124.2506   58.3791 H   0  0  0  0  0  0  0  0  0  0  0  0
  127.7149  125.8956   58.9468 H   0  0  0  0  0  0  0  0  0  0  0  0
  126.5902  126.9698   60.8776 H   0  0  0  0  0  0  0  0  0  0  0  0
  128.6409  127.4774   63.9883 H   0  0  0  0  0  0  0  0  0  0  0  0
  125.6411  127.8415   66.8283 H   0  0  0  0  0  0  0  0  0  0  0  0
  126.1400  127.0404   69.1174 H   0  0  0  0  0  0  0  0  0  0  0  0
  130.1821  125.8613   69.7646 H   0  0  0  0  0  0  0  0  0  0  0  0
  130.5734  127.3737   70.7144 H   0  0  0  0  0  0  0  0  0  0  0  0
  129.3332  124.8065   71.8117 H   0  0  0  0  0  0  0  0  0  0  0  0
  131.0056  125.4109   72.0939 H   0  0  0  0  0  0  0  0  0  0  0  0
  127.5139  125.9986   72.7174 H   0  0  0  0  0  0  0  0  0  0  0  0
  127.8322  127.4956   73.6669 H   0  0  0  0  0  0  0  0  0  0  0  0
  126.9596  127.9609   71.3558 H   0  0  0  0  0  0  0  0  0  0  0  0
  128.6261  128.6448   71.6729 H   0  0  0  0  0  0  0  0  0  0  0  0
  130.2882  128.1081   68.5838 H   0  0  0  0  0  0  0  0  0  0  0  0
  129.7883  128.9027   66.2934 H   0  0  0  0  0  0  0  0  0  0  0  0
  125.1574  134.0604   63.1110 H   0  0  0  0  0  0  0  0  0  0  0  0
  126.5212  133.5181   64.1801 H   0  0  0  0  0  0  0  0  0  0  0  0
  128.1640  132.1760   63.2760 H   0  0  0  0  0  0  0  0  0  0  0  0
  131.8999  131.2625   60.4957 H   0  0  0  0  0  0  0  0  0  0  0  0
  130.6097  131.8999   58.3169 H   0  0  0  0  0  0  0  0  0  0  0  0
  1  2  3  0
  2  3  1  0
  3  4  2  0
  4  5  1  0
  5  6  2  0
  6  7  1  0
  7  8  2  0
  8  9  1  0
  9 10  1  0
 10 11  1  0
 11 12  1  0
 12 13  1  0
 13 14  1  0
  8 15  1  0
 15 16  2  0
  4 17  1  0
 17 18  2  0
 18 19  1  0
 19 20  2  0
 20 21  1  0
 21 22  2  0
 22 23  1  0
 23 24  1  0
 24 25  1  0
 25 26  1  0
 26 27  1  0
 27 28  1  0
 22 29  1  0
 29 30  2  0
 18 31  1  0
 31 32  2  0
 32 33  1  0
 33 34  1  0
 34 35  1  0
 35 36  2  0
 35 37  1  0
 37 38  1  0
 38 39  2  0
 39 40  1  0
 40 41  2  0
 41 42  1  0
 32  3  1  0
 42 38  1  0
 16  5  1  0
 30 19  1  0
 14  9  1  0
 28 23  1  0
  6 43  1  0
  7 44  1  0
 10 45  1  0
 10 46  1  0
 11 47  1  0
 11 48  1  0
 13 49  1  0
 13 50  1  0
 14 51  1  0
 14 52  1  0
 15 53  1  0
 16 54  1  0
 17 55  1  0
 20 56  1  0
 21 57  1  0
 24 58  1  0
 24 59  1  0
 25 60  1  0
 25 61  1  0
 27 62  1  0
 27 63  1  0
 28 64  1  0
 28 65  1  0
 29 66  1  0
 30 67  1  0
 34 68  1  0
 34 69  1  0
 37 70  1  0
 40 71  1  0
 41 72  1  0
M  END
>  <Binding energies>  (1) 
[-4.72]

>  <Ligand effiencies>  (1) 
[-0.10976744186046511]

>  <Interactions>  (1) 
["V-A:HIS:456:CE1:4068, V-A:HIS:456:CD2:4066, V-B:GLU:543:CD:9880, H-B:TYR:484:OH:9320, V-A:GLU:543:CD:4906, H-B:GLY:454:N:9022, V-B:HIS:456:CE1:9042, V-B:GLY:544:C:9884, V-B:HIS:456:CD2:9040, V-A:GLU:543:CB:4904, V-B:GLU:543:CG:9879, V-A:GLU:543:CG:4905, H-B:LYS:547:NZ:9923, V-B:GLU:543:C:9874, V-A:HIS:456:CG:4064, V-B:LYS:547:CE:9922, V-B:GLY:544:CA:9886, V-A:GLU:543:C:4900, V-B:TYR:539:CZ:9849, V-A:ASP:366:CG:3211, V-B:TYR:539:CE1:9847, V-B:TYR:539:CE2:9848, V-A:ASP:366:CB:3210, V-B:LEU:475:CD2:9231, V-A:PRO:540:CA:4881, V-A:PRO:540:N:4882, V-A:TYR:531:CZ:4792, V-A:TYR:539:C:4865, V-A:PRO:540:C:4879, V-A:ALA:541:CB:4890, H-A:ALA:541:N:4889, V-A:TYR:539:CD2:4872, H-A:GLU:543:OE1:4907, H-B:TYR:539:OH:9850, V-A:TYR:531:CE1:4790, V-B:ARG:545:CG:9894, V-B:ARG:545:CD:9895, V-B:ARG:545:CA:9891, V-A:ALA:541:CA:4888"]

$$$$
2c_Grossjean_2025
     RDKit          3D

 40 41  0  0  0  0  0  0  0  0999 V2000
  128.4310  128.3560   72.3110 C   0  0  0  0  0  0  0  0  0  0  0  0
  127.7160  127.7250   71.2540 O   0  0  0  0  0  0  0  0  0  0  0  0
  128.3510  127.5070   70.0470 C   0  0  0  0  0  0  0  0  0  0  0  0
  129.7450  127.4720   70.0740 C   0  0  0  0  0  0  0  0  0  0  0  0
  130.4750  127.2590   68.9080 C   0  0  0  0  0  0  0  0  0  0  0  0
  129.8070  127.0870   67.6870 C   0  0  0  0  0  0  0  0  0  0  0  0
  130.4560  126.8490   66.4610 N   0  0  0  0  0  0  0  0  0  0  0  0
  130.7350  125.6660   65.8720 C   0  0  0  0  0  0  0  0  0  0  0  0
  130.4980  124.5630   66.3670 O   0  0  0  0  0  0  0  0  0  0  0  0
  131.4290  125.7730   64.5060 C   0  0  0  0  0  0  0  0  0  0  0  0
  132.8450  124.6460   64.2550 S   0  0  0  0  0  0  0  0  0  0  0  0
  132.6280  123.7500   62.7220 C   0  0  0  0  0  0  0  0  0  0  0  0
  133.4920  124.0720   61.7250 N   0  0  0  0  0  0  0  0  0  0  0  0
  133.3810  123.4410   60.5360 C   0  0  0  0  0  0  0  0  0  0  0  0
  134.3710  123.8680   59.4700 C   0  0  0  0  0  0  0  0  0  0  0  0
  132.4180  122.4640   60.2900 C   0  0  0  0  0  0  0  0  0  0  0  0
  131.5200  122.1100   61.3070 C   0  0  0  0  0  0  0  0  0  0  0  0
  130.4630  121.0260   61.0210 C   0  0  0  0  0  0  0  0  0  0  0  0
  130.8280  120.3010   59.9630 F   0  0  0  0  0  0  0  0  0  0  0  0
  130.3350  120.2210   62.0760 F   0  0  0  0  0  0  0  0  0  0  0  0
  129.2580  121.5390   60.7590 F   0  0  0  0  0  0  0  0  0  0  0  0
  131.6220  122.7680   62.5590 C   0  0  0  0  0  0  0  0  0  0  0  0
  130.7080  122.4390   63.6580 C   0  0  0  0  0  0  0  0  0  0  0  0
  129.9860  122.1790   64.5250 N   0  0  0  0  0  0  0  0  0  0  0  0
  128.4110  127.1050   67.6560 C   0  0  0  0  0  0  0  0  0  0  0  0
  127.6860  127.3170   68.8250 C   0  0  0  0  0  0  0  0  0  0  0  0
  128.0378  128.0090   73.2780 H   0  0  0  0  0  0  0  0  0  0  0  0
  129.4981  128.0999   72.2359 H   0  0  0  0  0  0  0  0  0  0  0  0
  128.3095  129.4467   72.2359 H   0  0  0  0  0  0  0  0  0  0  0  0
  130.2739  127.6144   71.0280 H   0  0  0  0  0  0  0  0  0  0  0  0
  131.5739  127.2257   68.9443 H   0  0  0  0  0  0  0  0  0  0  0  0
  130.8080  127.6760   66.0030 H   0  0  0  0  0  0  0  0  0  0  0  0
  130.6818  125.5574   63.7281 H   0  0  0  0  0  0  0  0  0  0  0  0
  131.8402  126.7920   64.4543 H   0  0  0  0  0  0  0  0  0  0  0  0
  135.2800  124.2600   59.9497 H   0  0  0  0  0  0  0  0  0  0  0  0
  134.6314  123.0022   58.8435 H   0  0  0  0  0  0  0  0  0  0  0  0
  133.9199  124.6516   58.8435 H   0  0  0  0  0  0  0  0  0  0  0  0
  132.3629  121.9748   59.3063 H   0  0  0  0  0  0  0  0  0  0  0  0
  127.8822  126.9510   66.7038 H   0  0  0  0  0  0  0  0  0  0  0  0
  126.5867  127.3358   68.7914 H   0  0  0  0  0  0  0  0  0  0  0  0
  1  2  1  0
  2  3  1  0
  3  4  2  0
  4  5  1  0
  5  6  2  0
  6  7  1  0
  7  8  1  0
  8  9  2  0
  8 10  1  0
 10 11  1  0
 11 12  1  0
 12 13  2  0
 13 14  1  0
 14 15  1  0
 14 16  2  0
 16 17  1  0
 17 18  1  0
 18 19  1  0
 18 20  1  0
 18 21  1  0
 17 22  2  0
 22 23  1  0
 23 24  3  0
  6 25  1  0
 25 26  2  0
 26  3  1  0
 22 12  1  0
  1 27  1  0
  1 28  1  0
  1 29  1  0
  4 30  1  0
  5 31  1  0
  7 32  1  0
 10 33  1  0
 10 34  1  0
 15 35  1  0
 15 36  1  0
 15 37  1  0
 16 38  1  0
 25 39  1  0
 26 40  1  0
M  END
>  <Binding energies>  (1) 
[-6.85]

>  <Ligand effiencies>  (1) 
[-0.2537037037037037]

>  <Interactions>  (1) 
["V-B:GLU:543:CB:9878, V-A:HIS:456:CE1:4068, V-B:GLU:543:CD:9880, V-A:GLU:543:CD:4906, V-B:HIS:456:CE1:9042, V-B:GLY:544:C:9884, V-A:GLY:544:C:4910, V-B:HIS:456:CD2:9040, V-B:GLU:543:CG:9879, V-A:GLU:543:CG:4905, H-A:GLY:454:N:4048, V-B:GLU:543:C:9874, V-A:ARG:545:CZ:4924, H-A:TYR:484:OH:4346, V-A:TYR:484:CZ:4345, V-A:GLU:543:C:4900, V-B:PRO:540:C:9853, V-A:ILE:369:CD1:3237, V-A:LEU:475:CD2:4257, V-A:TRP:381:CH2:3370, V-B:ALA:541:CA:9862, V-A:ASP:366:CG:3211, V-B:ALA:541:CB:9864, V-B:TYR:539:CD2:9846, V-B:TYR:539:CE2:9848, V-A:ILE:369:CG2:3235, V-A:ASP:366:CA:3208, V-A:ASP:366:CB:3210, V-A:ILE:369:CG1:3236, V-A:ILE:369:CB:3234, V-A:PRO:482:CB:4324, H-A:GLU:543:OE2:4908, H-A:GLU:543:OE1:4907, V-A:TYR:484:CE1:4343, V-A:LEU:475:CD1:4256, V-A:LEU:475:CG:4255"]

$$$$
2d_Ghoteimi_2023
     RDKit          3D

 68 72  0  0  0  0  0  0  0  0999 V2000
  128.1230  132.7190   61.0450 C   0  0  0  0  0  0  0  0  0  0  0  0
  127.2330  133.6070   61.7060 O   0  0  0  0  0  0  0  0  0  0  0  0
  126.6640  133.2600   62.8780 C   0  0  0  0  0  0  0  0  0  0  0  0
  127.2480  133.1790   63.9630 O   0  0  0  0  0  0  0  0  0  0  0  0
  125.1640  132.9760   62.7080 C   0  0  0  0  0  0  0  0  0  0  0  0
  124.6290  131.5880   63.7660 S   0  0  0  0  0  0  0  0  0  0  0  0
  125.8970  130.3380   63.7340 C   0  0  0  0  0  0  0  0  0  0  0  0
  126.2260  129.8770   64.9660 N   0  0  0  0  0  0  0  0  0  0  0  0
  127.1840  128.9250   65.0920 C   0  0  0  0  0  0  0  0  0  0  0  0
  127.5050  128.4790   66.4820 C   0  0  0  0  0  0  0  0  0  0  0  0
  126.5560  127.7920   67.2470 C   0  0  0  0  0  0  0  0  0  0  0  0
  126.8480  127.3740   68.5420 C   0  0  0  0  0  0  0  0  0  0  0  0
  128.1050  127.6180   69.1160 C   0  0  0  0  0  0  0  0  0  0  0  0
  128.4080  127.2210   70.4230 N   0  0  0  0  0  0  0  0  0  0  0  0
  129.7120  126.6170   70.7640 C   0  0  0  0  0  0  0  0  0  0  0  0
  129.7270  125.9120   72.1360 C   0  0  0  0  0  0  0  0  0  0  0  0
  129.3090  126.8130   73.1480 O   0  0  0  0  0  0  0  0  0  0  0  0
  127.9910  127.2830   72.9160 C   0  0  0  0  0  0  0  0  0  0  0  0
  127.9220  128.0230   71.5640 C   0  0  0  0  0  0  0  0  0  0  0  0
  129.0480  128.3190   68.3510 C   0  0  0  0  0  0  0  0  0  0  0  0
  128.7550  128.7400   67.0570 C   0  0  0  0  0  0  0  0  0  0  0  0
  127.8380  128.4070   63.9710 C   0  0  0  0  0  0  0  0  0  0  0  0
  127.4940  128.8420   62.6850 C   0  0  0  0  0  0  0  0  0  0  0  0
  128.2140  128.2230   61.5320 C   0  0  0  0  0  0  0  0  0  0  0  0
  129.4960  128.6570   61.1910 C   0  0  0  0  0  0  0  0  0  0  0  0
  130.1810  128.0790   60.1260 C   0  0  0  0  0  0  0  0  0  0  0  0
  129.6000  127.0500   59.3680 C   0  0  0  0  0  0  0  0  0  0  0  0
  130.2740  126.4460   58.3030 N   0  0  0  0  0  0  0  0  0  0  0  0
  129.8060  125.1750   57.7170 C   0  0  0  0  0  0  0  0  0  0  0  0
  130.4450  124.8560   56.3480 C   0  0  0  0  0  0  0  0  0  0  0  0
  131.8600  124.8730   56.4570 O   0  0  0  0  0  0  0  0  0  0  0  0
  132.3370  126.1400   56.8820 C   0  0  0  0  0  0  0  0  0  0  0  0
  131.7490  126.4900   58.2660 C   0  0  0  0  0  0  0  0  0  0  0  0
  128.3190  126.6090   59.7290 C   0  0  0  0  0  0  0  0  0  0  0  0
  127.6350  127.1860   60.7940 C   0  0  0  0  0  0  0  0  0  0  0  0
  126.4900  129.8330   62.5540 C   0  0  0  0  0  0  0  0  0  0  0  0
  126.0810  130.3070   61.2280 C   0  0  0  0  0  0  0  0  0  0  0  0
  125.7610  130.6780   60.1780 N   0  0  0  0  0  0  0  0  0  0  0  0
  128.6944  132.1489   61.7923 H   0  0  0  0  0  0  0  0  0  0  0  0
  127.5476  132.0244   60.4154 H   0  0  0  0  0  0  0  0  0  0  0  0
  128.8163  133.2960   60.4154 H   0  0  0  0  0  0  0  0  0  0  0  0
  124.5952  133.8764   62.9831 H   0  0  0  0  0  0  0  0  0  0  0  0
  124.9783  132.7046   61.6583 H   0  0  0  0  0  0  0  0  0  0  0  0
  125.5653  127.5793   66.8189 H   0  0  0  0  0  0  0  0  0  0  0  0
  126.0808  126.8436   69.1252 H   0  0  0  0  0  0  0  0  0  0  0  0
  129.9654  125.8773   69.9903 H   0  0  0  0  0  0  0  0  0  0  0  0
  130.4435  127.4370   70.8150 H   0  0  0  0  0  0  0  0  0  0  0  0
  129.0438  125.0503   72.1104 H   0  0  0  0  0  0  0  0  0  0  0  0
  130.7493  125.5707   72.3558 H   0  0  0  0  0  0  0  0  0  0  0  0
  127.2980  126.4290   72.8990 H   0  0  0  0  0  0  0  0  0  0  0  0
  127.7096  127.9776   73.7212 H   0  0  0  0  0  0  0  0  0  0  0  0
  126.8748  128.3001   71.3728 H   0  0  0  0  0  0  0  0  0  0  0  0
  128.5804  128.9006   71.6438 H   0  0  0  0  0  0  0  0  0  0  0  0
  130.0362  128.5400   68.7807 H   0  0  0  0  0  0  0  0  0  0  0  0
  129.5154  129.2849   66.4784 H   0  0  0  0  0  0  0  0  0  0  0  0
  128.6282  127.6526   64.0995 H   0  0  0  0  0  0  0  0  0  0  0  0
  129.9697  129.4638   61.7696 H   0  0  0  0  0  0  0  0  0  0  0  0
  131.1916  128.4334   59.8748 H   0  0  0  0  0  0  0  0  0  0  0  0
  130.0502  124.3596   58.4137 H   0  0  0  0  0  0  0  0  0  0  0  0
  128.7227  125.2735   57.5534 H   0  0  0  0  0  0  0  0  0  0  0  0
  130.1171  123.8598   56.0162 H   0  0  0  0  0  0  0  0  0  0  0  0
  130.1300  125.6151   55.6168 H   0  0  0  0  0  0  0  0  0  0  0  0
  133.4346  126.1119   56.9493 H   0  0  0  0  0  0  0  0  0  0  0  0
  132.0267  126.9046   56.1546 H   0  0  0  0  0  0  0  0  0  0  0  0
  132.1381  125.7714   59.0023 H   0  0  0  0  0  0  0  0  0  0  0  0
  132.0495  127.5230   58.4953 H   0  0  0  0  0  0  0  0  0  0  0  0
  127.8473  125.7936   59.1609 H   0  0  0  0  0  0  0  0  0  0  0  0
  126.6305  126.8236   61.0578 H   0  0  0  0  0  0  0  0  0  0  0  0
  1  2  1  0
  2  3  1  0
  3  4  2  0
  3  5  1  0
  5  6  1  0
  6  7  1  0
  7  8  2  0
  8  9  1  0
  9 10  1  0
 10 11  2  0
 11 12  1  0
 12 13  2  0
 13 14  1  0
 14 15  1  0
 15 16  1  0
 16 17  1  0
 17 18  1  0
 18 19  1  0
 13 20  1  0
 20 21  2  0
  9 22  2  0
 22 23  1  0
 23 24  1  0
 24 25  2  0
 25 26  1  0
 26 27  2  0
 27 28  1  0
 28 29  1  0
 29 30  1  0
 30 31  1  0
 31 32  1  0
 32 33  1  0
 27 34  1  0
 34 35  2  0
 23 36  2  0
 36 37  1  0
 37 38  3  0
 36  7  1  0
 21 10  1  0
 35 24  1  0
 19 14  1  0
 33 28  1  0
  1 39  1  0
  1 40  1  0
  1 41  1  0
  5 42  1  0
  5 43  1  0
 11 44  1  0
 12 45  1  0
 15 46  1  0
 15 47  1  0
 16 48  1  0
 16 49  1  0
 18 50  1  0
 18 51  1  0
 19 52  1  0
 19 53  1  0
 20 54  1  0
 21 55  1  0
 22 56  1  0
 25 57  1  0
 26 58  1  0
 29 59  1  0
 29 60  1  0
 30 61  1  0
 30 62  1  0
 32 63  1  0
 32 64  1  0
 33 65  1  0
 33 66  1  0
 34 67  1  0
 35 68  1  0
M  END
>  <Binding energies>  (1) 
[-3.94]

>  <Ligand effiencies>  (1) 
[-0.10368421052631578]

>  <Interactions>  (1) 
["V-A:HIS:456:CE1:4068, V-A:HIS:456:CD2:4066, V-B:GLU:543:CD:9880, H-B:TYR:484:OH:9320, V-A:GLU:543:CD:4906, H-B:GLY:454:N:9022, V-B:HIS:456:CE1:9042, H-A:LYS:547:NZ:4949, V-B:GLY:544:C:9884, V-B:HIS:456:CD2:9040, V-A:GLU:543:CB:4904, V-B:GLU:543:CG:9879, V-A:GLU:543:CG:4905, H-B:LYS:547:NZ:9923, V-B:GLU:543:C:9874, V-B:LYS:547:CE:9922, V-B:GLY:544:CA:9886, V-A:GLU:543:C:4900, V-B:TYR:539:CZ:9849, V-A:ASP:366:CG:3211, V-B:TYR:539:CE1:9847, V-B:TYR:539:CE2:9848, V-A:ASP:366:CB:3210, V-B:LEU:475:CD2:9231, V-A:TYR:531:CZ:4792, V-A:ALA:541:CB:4890, H-B:TYR:539:OH:9850, V-B:HIS:456:CG:9038, V-A:TYR:531:CE1:4790, V-B:ARG:545:CG:9894, V-B:ARG:545:CD:9895, V-B:ARG:545:CA:9891"]

$$$$
2d_Grossjean_2025
     RDKit          3D

 36 37  0  0  0  0  0  0  0  0999 V2000
  129.2290  126.4850   62.1400 C   0  0  0  0  0  0  0  0  0  0  0  0
  130.2570  125.8400   61.2290 C   0  0  0  0  0  0  0  0  0  0  0  0
  131.4170  125.2590   61.7360 C   0  0  0  0  0  0  0  0  0  0  0  0
  132.3350  124.6710   60.8530 C   0  0  0  0  0  0  0  0  0  0  0  0
  133.6080  124.0230   61.4330 C   0  0  0  0  0  0  0  0  0  0  0  0
  133.4340  122.7070   61.5570 F   0  0  0  0  0  0  0  0  0  0  0  0
  134.6440  124.2470   60.6220 F   0  0  0  0  0  0  0  0  0  0  0  0
  133.9300  124.5020   62.6360 F   0  0  0  0  0  0  0  0  0  0  0  0
  132.0520  124.6950   59.4640 C   0  0  0  0  0  0  0  0  0  0  0  0
  132.9560  124.0540   58.5050 C   0  0  0  0  0  0  0  0  0  0  0  0
  133.6690  123.5460   57.7490 N   0  0  0  0  0  0  0  0  0  0  0  0
  130.8610  125.3300   59.0390 C   0  0  0  0  0  0  0  0  0  0  0  0
  130.3660  125.4790   57.3330 S   0  0  0  0  0  0  0  0  0  0  0  0
  129.6950  123.8780   56.7750 C   0  0  0  0  0  0  0  0  0  0  0  0
  128.3210  123.5630   57.3740 C   0  0  0  0  0  0  0  0  0  0  0  0
  127.5430  122.8470   56.7430 O   0  0  0  0  0  0  0  0  0  0  0  0
  128.0580  124.1390   58.5660 N   0  0  0  0  0  0  0  0  0  0  0  0
  126.9020  124.0420   59.3640 C   0  0  0  0  0  0  0  0  0  0  0  0
  125.6850  124.0180   58.6800 C   0  0  0  0  0  0  0  0  0  0  0  0
  124.4860  123.9300   59.3820 C   0  0  0  0  0  0  0  0  0  0  0  0
  124.5050  123.8750   60.7740 C   0  0  0  0  0  0  0  0  0  0  0  0
  125.7110  123.9120   61.4680 C   0  0  0  0  0  0  0  0  0  0  0  0
  126.9110  123.9990   60.7690 C   0  0  0  0  0  0  0  0  0  0  0  0
  129.9740  125.8750   59.9070 N   0  0  0  0  0  0  0  0  0  0  0  0
  129.5080  126.3099   63.1895 H   0  0  0  0  0  0  0  0  0  0  0  0
  129.1943  127.5671   61.9454 H   0  0  0  0  0  0  0  0  0  0  0  0
  128.2396  126.0455   61.9454 H   0  0  0  0  0  0  0  0  0  0  0  0
  131.6115  125.2612   62.8187 H   0  0  0  0  0  0  0  0  0  0  0  0
  129.6030  123.8994   55.6791 H   0  0  0  0  0  0  0  0  0  0  0  0
  130.3889  123.0946   57.1138 H   0  0  0  0  0  0  0  0  0  0  0  0
  128.7580  124.7750   58.9210 H   0  0  0  0  0  0  0  0  0  0  0  0
  125.6735  124.0689   57.5812 H   0  0  0  0  0  0  0  0  0  0  0  0
  123.5288  123.9040   58.8406 H   0  0  0  0  0  0  0  0  0  0  0  0
  123.5584  123.8017   61.3296 H   0  0  0  0  0  0  0  0  0  0  0  0
  125.7154  123.8725   62.5673 H   0  0  0  0  0  0  0  0  0  0  0  0
  127.8652  124.0341   61.3151 H   0  0  0  0  0  0  0  0  0  0  0  0
  1  2  1  0
  2  3  2  0
  3  4  1  0
  4  5  1  0
  5  6  1  0
  5  7  1  0
  5  8  1  0
  4  9  2  0
  9 10  1  0
 10 11  3  0
  9 12  1  0
 12 13  1  0
 13 14  1  0
 14 15  1  0
 15 16  2  0
 15 17  1  0
 17 18  1  0
 18 19  2  0
 19 20  1  0
 20 21  2  0
 21 22  1  0
 22 23  2  0
 12 24  2  0
 24  2  1  0
 23 18  1  0
  1 25  1  0
  1 26  1  0
  1 27  1  0
  3 28  1  0
 14 29  1  0
 14 30  1  0
 17 31  1  0
 19 32  1  0
 20 33  1  0
 21 34  1  0
 22 35  1  0
 23 36  1  0
M  END
>  <Binding energies>  (1) 
[-5.66]

>  <Ligand effiencies>  (1) 
[-0.22640000000000002]

>  <Interactions>  (1) 
["V-B:GLU:543:CD:9880, V-A:ARG:545:CZ:4924, V-B:TYR:539:CZ:9849, V-A:GLY:453:C:4040, V-A:ILE:369:CD1:3237, V-B:PRO:540:CA:9855, V-A:GLY:453:CA:4042, V-A:ASP:366:CG:3211, V-A:GLY:454:CA:4047, V-B:TYR:539:CD2:9846, V-B:TYR:539:CE1:9847, V-B:TYR:539:CE2:9848, V-B:PRO:540:N:9856, V-B:PRO:540:CB:9857, V-A:ASP:366:CA:3208, V-A:ASP:366:CB:3210, V-B:ASN:362:CB:8148, H-B:TYR:539:OH:9850, H-B:TYR:539:N:9842"]

$$$$
2e_Grossjean_2025
     RDKit          3D

 38 39  0  0  0  0  0  0  0  0999 V2000
  129.9790  127.5880   71.4620 C   0  0  0  0  0  0  0  0  0  0  0  0
  129.3950  127.4520   70.0690 C   0  0  0  0  0  0  0  0  0  0  0  0
  128.0210  127.5550   69.8390 C   0  0  0  0  0  0  0  0  0  0  0  0
  127.5560  127.4310   68.5280 C   0  0  0  0  0  0  0  0  0  0  0  0
  128.4660  127.2100   67.4910 C   0  0  0  0  0  0  0  0  0  0  0  0
  129.8290  127.1080   67.7940 C   0  0  0  0  0  0  0  0  0  0  0  0
  130.7030  126.9290   66.7090 N   0  0  0  0  0  0  0  0  0  0  0  0
  131.0050  125.7810   66.0620 C   0  0  0  0  0  0  0  0  0  0  0  0
  130.4860  124.6860   66.2860 O   0  0  0  0  0  0  0  0  0  0  0  0
  132.1120  125.8820   65.0080 C   0  0  0  0  0  0  0  0  0  0  0  0
  132.3030  124.3330   64.0670 S   0  0  0  0  0  0  0  0  0  0  0  0
  132.1930  124.8010   62.3540 C   0  0  0  0  0  0  0  0  0  0  0  0
  131.3770  125.8560   62.1080 N   0  0  0  0  0  0  0  0  0  0  0  0
  131.2000  126.2490   60.8260 C   0  0  0  0  0  0  0  0  0  0  0  0
  130.2760  127.4340   60.6220 C   0  0  0  0  0  0  0  0  0  0  0  0
  131.8170  125.6120   59.7510 C   0  0  0  0  0  0  0  0  0  0  0  0
  132.6570  124.5130   59.9890 C   0  0  0  0  0  0  0  0  0  0  0  0
  133.3140  123.8060   58.7890 C   0  0  0  0  0  0  0  0  0  0  0  0
  133.1430  122.4870   58.8840 F   0  0  0  0  0  0  0  0  0  0  0  0
  132.7640  124.2330   57.6520 F   0  0  0  0  0  0  0  0  0  0  0  0
  134.6270  124.0360   58.7120 F   0  0  0  0  0  0  0  0  0  0  0  0
  132.8560  124.0920   61.3270 C   0  0  0  0  0  0  0  0  0  0  0  0
  133.6980  122.9330   61.6390 C   0  0  0  0  0  0  0  0  0  0  0  0
  134.3620  122.0170   61.8840 N   0  0  0  0  0  0  0  0  0  0  0  0
  130.2910  127.2360   69.0720 N   0  0  0  0  0  0  0  0  0  0  0  0
  129.1924  127.4048   72.2088 H   0  0  0  0  0  0  0  0  0  0  0  0
  130.7878  126.8542   71.5938 H   0  0  0  0  0  0  0  0  0  0  0  0
  130.3804  128.6036   71.5938 H   0  0  0  0  0  0  0  0  0  0  0  0
  127.3222  127.7296   70.6704 H   0  0  0  0  0  0  0  0  0  0  0  0
  126.4799  127.5069   68.3131 H   0  0  0  0  0  0  0  0  0  0  0  0
  128.1167  127.1175   66.4520 H   0  0  0  0  0  0  0  0  0  0  0  0
  131.1230  127.7760   66.3550 H   0  0  0  0  0  0  0  0  0  0  0  0
  131.8634  126.6939   64.3087 H   0  0  0  0  0  0  0  0  0  0  0  0
  133.0599  126.0817   65.5292 H   0  0  0  0  0  0  0  0  0  0  0  0
  129.9668  127.8305   61.6003 H   0  0  0  0  0  0  0  0  0  0  0  0
  130.8038  128.2178   60.0588 H   0  0  0  0  0  0  0  0  0  0  0  0
  129.3872  127.1132   60.0588 H   0  0  0  0  0  0  0  0  0  0  0  0
  131.6470  125.9677   58.7241 H   0  0  0  0  0  0  0  0  0  0  0  0
  1  2  1  0
  2  3  2  0
  3  4  1  0
  4  5  2  0
  5  6  1  0
  6  7  1  0
  7  8  1  0
  8  9  2  0
  8 10  1  0
 10 11  1  0
 11 12  1  0
 12 13  2  0
 13 14  1  0
 14 15  1  0
 14 16  2  0
 16 17  1  0
 17 18  1  0
 18 19  1  0
 18 20  1  0
 18 21  1  0
 17 22  2  0
 22 23  1  0
 23 24  3  0
  6 25  2  0
 25  2  1  0
 22 12  1  0
  1 26  1  0
  1 27  1  0
  1 28  1  0
  3 29  1  0
  4 30  1  0
  5 31  1  0
  7 32  1  0
 10 33  1  0
 10 34  1  0
 15 35  1  0
 15 36  1  0
 15 37  1  0
 16 38  1  0
M  END
>  <Binding energies>  (1) 
[-6.55]

>  <Ligand effiencies>  (1) 
[-0.2519230769230769]

>  <Interactions>  (1) 
["V-B:GLU:543:CB:9878, V-A:HIS:456:CE1:4068, V-B:GLU:543:CD:9880, V-A:GLU:543:CD:4906, V-B:HIS:456:CE1:9042, V-A:GLY:544:CA:4912, V-B:GLY:544:C:9884, V-A:GLY:544:C:4910, V-B:HIS:456:CD2:9040, V-B:GLU:543:CG:9879, V-A:GLU:543:CG:4905, H-A:GLY:454:N:4048, V-B:GLU:543:C:9874, V-A:ARG:545:CZ:4924, V-A:ARG:545:CG:4920, H-A:TYR:484:OH:4346, V-A:ARG:545:CD:4921, V-B:TYR:539:CZ:9849, V-A:ILE:369:CD1:3237, V-A:ASP:366:CG:3211, V-A:GLY:454:CA:4047, V-B:TYR:539:CD2:9846, V-B:TYR:539:CE2:9848, V-A:ILE:369:CG2:3235, V-A:ASP:366:CA:3208, V-A:ASP:366:CB:3210, V-A:ASP:366:C:3206, V-A:ILE:369:CG1:3236, V-A:ILE:369:CB:3234, H-A:ARG:545:NH2:4926, H-A:GLU:543:OE2:4908, V-B:ARG:545:CG:9894"]

$$$$
2f_Grossjean_2025
     RDKit          3D

 35 36  0  0  0  0  0  0  0  0999 V2000
  129.4410  126.4740   62.2940 C   0  0  0  0  0  0  0  0  0  0  0  0
  130.4030  125.7730   61.3530 C   0  0  0  0  0  0  0  0  0  0  0  0
  131.5090  125.0730   61.8290 C   0  0  0  0  0  0  0  0  0  0  0  0
  132.3750  124.4480   60.9190 C   0  0  0  0  0  0  0  0  0  0  0  0
  133.5990  123.6880   61.4650 C   0  0  0  0  0  0  0  0  0  0  0  0
  134.7230  124.2370   61.0000 F   0  0  0  0  0  0  0  0  0  0  0  0
  133.6100  123.7410   62.7970 F   0  0  0  0  0  0  0  0  0  0  0  0
  133.6080  122.4010   61.1130 F   0  0  0  0  0  0  0  0  0  0  0  0
  132.0870  124.5460   59.5330 C   0  0  0  0  0  0  0  0  0  0  0  0
  132.9910  123.9590   58.5410 C   0  0  0  0  0  0  0  0  0  0  0  0
  133.7050  123.4940   57.7570 N   0  0  0  0  0  0  0  0  0  0  0  0
  130.9260  125.2560   59.1430 C   0  0  0  0  0  0  0  0  0  0  0  0
  130.4070  125.4690   57.4520 S   0  0  0  0  0  0  0  0  0  0  0  0
  129.7300  123.8790   56.8630 C   0  0  0  0  0  0  0  0  0  0  0  0
  128.3570  123.5030   57.4380 C   0  0  0  0  0  0  0  0  0  0  0  0
  127.6000  122.7540   56.8190 O   0  0  0  0  0  0  0  0  0  0  0  0
  128.0750  124.0710   58.6300 N   0  0  0  0  0  0  0  0  0  0  0  0
  126.9270  123.9380   59.4350 C   0  0  0  0  0  0  0  0  0  0  0  0
  125.5980  124.0480   58.9870 C   0  0  0  0  0  0  0  0  0  0  0  0
  124.5470  123.8890   59.8920 C   0  0  0  0  0  0  0  0  0  0  0  0
  124.8520  123.6190   61.2270 C   0  0  0  0  0  0  0  0  0  0  0  0
  126.1240  123.5010   61.6840 N   0  0  0  0  0  0  0  0  0  0  0  0
  127.1350  123.6570   60.7910 C   0  0  0  0  0  0  0  0  0  0  0  0
  130.1140  125.8720   60.0360 N   0  0  0  0  0  0  0  0  0  0  0  0
  129.7283  126.2646   63.3350 H   0  0  0  0  0  0  0  0  0  0  0  0
  129.4776  127.5587   62.1146 H   0  0  0  0  0  0  0  0  0  0  0  0
  128.4197  126.1069   62.1146 H   0  0  0  0  0  0  0  0  0  0  0  0
  131.7021  125.0106   62.9101 H   0  0  0  0  0  0  0  0  0  0  0  0
  129.6379  123.9324   55.7682 H   0  0  0  0  0  0  0  0  0  0  0  0
  130.4291  123.1023   57.2063 H   0  0  0  0  0  0  0  0  0  0  0  0
  128.7650  124.7120   58.9940 H   0  0  0  0  0  0  0  0  0  0  0  0
  125.3878  124.2584   57.9280 H   0  0  0  0  0  0  0  0  0  0  0  0
  123.5017  123.9746   59.5603 H   0  0  0  0  0  0  0  0  0  0  0  0
  124.0239  123.4964   61.9406 H   0  0  0  0  0  0  0  0  0  0  0  0
  128.1697  123.5576   61.1510 H   0  0  0  0  0  0  0  0  0  0  0  0
  1  2  1  0
  2  3  2  0
  3  4  1  0
  4  5  1  0
  5  6  1  0
  5  7  1  0
  5  8  1  0
  4  9  2  0
  9 10  1  0
 10 11  3  0
  9 12  1  0
 12 13  1  0
 13 14  1  0
 14 15  1  0
 15 16  2  0
 15 17  1  0
 17 18  1  0
 18 19  2  0
 19 20  1  0
 20 21  2  0
 21 22  1  0
 22 23  2  0
 12 24  2  0
 24  2  1  0
 23 18  1  0
  1 25  1  0
  1 26  1  0
  1 27  1  0
  3 28  1  0
 14 29  1  0
 14 30  1  0
 17 31  1  0
 19 32  1  0
 20 33  1  0
 21 34  1  0
 23 35  1  0
M  END
>  <Binding energies>  (1) 
[-5.89]

>  <Ligand effiencies>  (1) 
[-0.23559999999999998]

>  <Interactions>  (1) 
["V-B:GLU:543:CD:9880, V-B:TYR:539:CZ:9849, V-B:PRO:540:C:9853, V-A:GLY:453:C:4040, V-A:ILE:369:CD1:3237, V-B:PRO:540:CA:9855, V-A:GLY:453:CA:4042, V-A:ASP:366:CG:3211, V-A:GLY:454:CA:4047, V-B:TYR:539:CD2:9846, V-B:TYR:539:CE1:9847, V-B:TYR:539:CE2:9848, V-B:PRO:540:CB:9857, H-B:ALA:541:N:9863, V-B:ASN:362:CB:8148, H-B:TYR:539:OH:9850, H-B:TYR:539:N:9842"]

$$$$
2g_Grossjean_2025
     RDKit          3D

 39 40  0  0  0  0  0  0  0  0999 V2000
  128.8660  122.9210   60.1070 C   0  0  0  0  0  0  0  0  0  0  0  0
  130.0420  123.3510   60.9640 C   0  0  0  0  0  0  0  0  0  0  0  0
  131.2940  122.7540   60.8370 C   0  0  0  0  0  0  0  0  0  0  0  0
  132.3480  123.1820   61.6580 C   0  0  0  0  0  0  0  0  0  0  0  0
  133.7250  122.5040   61.5090 C   0  0  0  0  0  0  0  0  0  0  0  0
  133.7900  121.8410   60.3530 F   0  0  0  0  0  0  0  0  0  0  0  0
  134.6880  123.4260   61.5340 F   0  0  0  0  0  0  0  0  0  0  0  0
  133.9780  121.6300   62.4850 F   0  0  0  0  0  0  0  0  0  0  0  0
  132.1030  124.2220   62.5910 C   0  0  0  0  0  0  0  0  0  0  0  0
  133.1530  124.6670   63.5110 C   0  0  0  0  0  0  0  0  0  0  0  0
  133.9840  125.0180   64.2360 N   0  0  0  0  0  0  0  0  0  0  0  0
  130.8060  124.7900   62.6280 C   0  0  0  0  0  0  0  0  0  0  0  0
  130.3340  126.1160   63.7180 S   0  0  0  0  0  0  0  0  0  0  0  0
  130.6350  125.5530   65.4280 C   0  0  0  0  0  0  0  0  0  0  0  0
  130.5010  126.6480   66.4960 C   0  0  0  0  0  0  0  0  0  0  0  0
  131.4930  127.1560   67.0220 O   0  0  0  0  0  0  0  0  0  0  0  0
  129.2410  126.9970   66.8110 N   0  0  0  0  0  0  0  0  0  0  0  0
  128.8610  128.0170   67.7900 C   0  0  0  0  0  0  0  0  0  0  0  0
  129.0210  127.5850   69.2430 C   0  0  0  0  0  0  0  0  0  0  0  0
  130.2860  127.2470   69.7330 C   0  0  0  0  0  0  0  0  0  0  0  0
  130.4410  126.8890   71.0700 C   0  0  0  0  0  0  0  0  0  0  0  0
  129.3340  126.8780   71.9140 C   0  0  0  0  0  0  0  0  0  0  0  0
  128.0720  127.2260   71.4350 C   0  0  0  0  0  0  0  0  0  0  0  0
  127.9170  127.5850   70.0990 C   0  0  0  0  0  0  0  0  0  0  0  0
  129.7930  124.3480   61.8430 N   0  0  0  0  0  0  0  0  0  0  0  0
  128.0317  122.6159   60.7557 H   0  0  0  0  0  0  0  0  0  0  0  0
  128.5485  123.7612   59.4720 H   0  0  0  0  0  0  0  0  0  0  0  0
  129.1653  122.0741   59.4720 H   0  0  0  0  0  0  0  0  0  0  0  0
  131.4549  121.9539   60.0994 H   0  0  0  0  0  0  0  0  0  0  0  0
  129.9110  124.7579   65.6596 H   0  0  0  0  0  0  0  0  0  0  0  0
  131.6796  125.2102   65.4633 H   0  0  0  0  0  0  0  0  0  0  0  0
  128.4810  126.5510   66.3180 H   0  0  0  0  0  0  0  0  0  0  0  0
  129.4891  128.9046   67.6237 H   0  0  0  0  0  0  0  0  0  0  0  0
  127.7899  128.2154   67.6374 H   0  0  0  0  0  0  0  0  0  0  0  0
  131.1583  127.2638   69.0630 H   0  0  0  0  0  0  0  0  0  0  0  0
  131.4337  126.6162   71.4573 H   0  0  0  0  0  0  0  0  0  0  0  0
  129.4563  126.5919   72.9691 H   0  0  0  0  0  0  0  0  0  0  0  0
  127.2030  127.2170   72.1093 H   0  0  0  0  0  0  0  0  0  0  0  0
  126.9251  127.8687   69.7173 H   0  0  0  0  0  0  0  0  0  0  0  0
  1  2  1  0
  2  3  2  0
  3  4  1  0
  4  5  1  0
  5  6  1  0
  5  7  1  0
  5  8  1  0
  4  9  2  0
  9 10  1  0
 10 11  3  0
  9 12  1  0
 12 13  1  0
 13 14  1  0
 14 15  1  0
 15 16  2  0
 15 17  1  0
 17 18  1  0
 18 19  1  0
 19 20  2  0
 20 21  1  0
 21 22  2  0
 22 23  1  0
 23 24  2  0
 12 25  2  0
 25  2  1  0
 24 19  1  0
  1 26  1  0
  1 27  1  0
  1 28  1  0
  3 29  1  0
 14 30  1  0
 14 31  1  0
 17 32  1  0
 18 33  1  0
 18 34  1  0
 20 35  1  0
 21 36  1  0
 22 37  1  0
 23 38  1  0
 24 39  1  0
M  END
>  <Binding energies>  (1) 
[-6.39]

>  <Ligand effiencies>  (1) 
[-0.24576923076923077]

>  <Interactions>  (1) 
["V-B:GLU:543:CB:9878, V-A:HIS:456:CE1:4068, V-A:HIS:456:CD2:4066, V-B:GLU:543:CD:9880, V-A:GLU:543:CD:4906, V-B:HIS:456:CE1:9042, V-B:GLY:544:C:9884, V-A:GLY:544:C:4910, H-B:GLU:543:O:9875, V-B:HIS:456:CD2:9040, V-A:GLU:543:CB:4904, V-B:GLU:543:CG:9879, V-A:GLU:543:CG:4905, H-A:GLY:454:N:4048, V-A:ARG:545:CZ:4924, H-A:TYR:484:OH:4346, V-A:HIS:456:CG:4064, H-A:ARG:545:NH1:4925, H-B:GLU:543:OE1:9881, V-B:GLY:544:CA:9886, H-A:ARG:545:NE:4922, V-A:GLY:453:C:4040, V-A:ILE:369:CD1:3237, V-A:LEU:475:CD2:4257, V-A:GLY:453:CA:4042, V-A:GLY:454:CA:4047, V-A:ILE:369:CG2:3235, V-A:ILE:369:CB:3234, H-A:GLU:543:OE2:4908, H-B:GLU:543:OE2:9882"]

$$$$
2h_Grossjean_2025
     RDKit          3D

 51 52  0  0  0  0  0  0  0  0999 V2000
  131.5150  126.1670   73.9280 C   0  0  0  0  0  0  0  0  0  0  0  0
  130.1930  126.4440   73.4800 O   0  0  0  0  0  0  0  0  0  0  0  0
  129.9830  126.7870   72.1570 C   0  0  0  0  0  0  0  0  0  0  0  0
  131.0050  126.8730   71.1980 C   0  0  0  0  0  0  0  0  0  0  0  0
  130.7150  127.2180   69.8800 C   0  0  0  0  0  0  0  0  0  0  0  0
  129.4010  127.4840   69.4900 C   0  0  0  0  0  0  0  0  0  0  0  0
  129.1050  127.8400   68.0340 C   0  0  0  0  0  0  0  0  0  0  0  0
  129.3840  126.7530   67.0950 N   0  0  0  0  0  0  0  0  0  0  0  0
  130.5860  126.4950   66.5500 C   0  0  0  0  0  0  0  0  0  0  0  0
  131.5740  127.2110   66.7250 O   0  0  0  0  0  0  0  0  0  0  0  0
  130.6640  125.2290   65.6860 C   0  0  0  0  0  0  0  0  0  0  0  0
  132.2040  125.0450   64.7250 S   0  0  0  0  0  0  0  0  0  0  0  0
  131.8010  125.4170   63.0320 C   0  0  0  0  0  0  0  0  0  0  0  0
  130.9850  126.4900   62.8880 N   0  0  0  0  0  0  0  0  0  0  0  0
  130.6000  126.8500   61.6440 C   0  0  0  0  0  0  0  0  0  0  0  0
  129.6810  128.0540   61.5600 C   0  0  0  0  0  0  0  0  0  0  0  0
  131.0130  126.1660   60.5020 C   0  0  0  0  0  0  0  0  0  0  0  0
  131.8750  125.0660   60.6290 C   0  0  0  0  0  0  0  0  0  0  0  0
  132.3280  124.3290   59.3540 C   0  0  0  0  0  0  0  0  0  0  0  0
  131.8830  124.9720   58.2740 F   0  0  0  0  0  0  0  0  0  0  0  0
  133.6560  124.2440   59.2510 F   0  0  0  0  0  0  0  0  0  0  0  0
  131.8440  123.0860   59.3460 F   0  0  0  0  0  0  0  0  0  0  0  0
  132.2930  124.6800   61.9280 C   0  0  0  0  0  0  0  0  0  0  0  0
  133.2390  123.5760   62.1100 C   0  0  0  0  0  0  0  0  0  0  0  0
  133.9870  122.7050   62.2510 N   0  0  0  0  0  0  0  0  0  0  0  0
  128.3730  127.4250   70.4430 C   0  0  0  0  0  0  0  0  0  0  0  0
  127.0770  127.6900   70.0670 O   0  0  0  0  0  0  0  0  0  0  0  0
  126.6000  126.8810   68.9990 C   0  0  0  0  0  0  0  0  0  0  0  0
  128.6650  127.0590   71.7670 C   0  0  0  0  0  0  0  0  0  0  0  0
  127.6570  126.9820   72.6990 O   0  0  0  0  0  0  0  0  0  0  0  0
  127.2180  128.2440   73.1840 C   0  0  0  0  0  0  0  0  0  0  0  0
  131.5361  126.1626   75.0278 H   0  0  0  0  0  0  0  0  0  0  0  0
  131.8312  125.1831   73.5513 H   0  0  0  0  0  0  0  0  0  0  0  0
  132.1996  126.9412   73.5513 H   0  0  0  0  0  0  0  0  0  0  0  0
  132.0450  126.6659   71.4904 H   0  0  0  0  0  0  0  0  0  0  0  0
  131.5273  127.2814   69.1409 H   0  0  0  0  0  0  0  0  0  0  0  0
  128.0410  128.1064   67.9509 H   0  0  0  0  0  0  0  0  0  0  0  0
  129.7686  128.6753   67.7657 H   0  0  0  0  0  0  0  0  0  0  0  0
  128.6300  126.1010   66.9310 H   0  0  0  0  0  0  0  0  0  0  0  0
  130.5695  124.3567   66.3495 H   0  0  0  0  0  0  0  0  0  0  0  0
  129.8501  125.3083   64.9503 H   0  0  0  0  0  0  0  0  0  0  0  0
  129.4240  128.3907   62.5752 H   0  0  0  0  0  0  0  0  0  0  0  0
  130.1902  128.8671   61.0219 H   0  0  0  0  0  0  0  0  0  0  0  0
  128.7624  127.7773   61.0219 H   0  0  0  0  0  0  0  0  0  0  0  0
  130.6658  126.4861   59.5085 H   0  0  0  0  0  0  0  0  0  0  0  0
  126.0815  126.0016   69.4085 H   0  0  0  0  0  0  0  0  0  0  0  0
  125.9011  127.4640   68.3812 H   0  0  0  0  0  0  0  0  0  0  0  0
  127.4485  126.5517   68.3812 H   0  0  0  0  0  0  0  0  0  0  0  0
  127.2210  128.2353   74.2840 H   0  0  0  0  0  0  0  0  0  0  0  0
  127.8949  129.0317   72.8217 H   0  0  0  0  0  0  0  0  0  0  0  0
  126.1983  128.4416   72.8217 H   0  0  0  0  0  0  0  0  0  0  0  0
  1  2  1  0
  2  3  1  0
  3  4  2  0
  4  5  1  0
  5  6  2  0
  6  7  1  0
  7  8  1  0
  8  9  1  0
  9 10  2  0
  9 11  1  0
 11 12  1  0
 12 13  1  0
 13 14  2  0
 14 15  1  0
 15 16  1  0
 15 17  2  0
 17 18  1  0
 18 19  1  0
 19 20  1  0
 19 21  1  0
 19 22  1  0
 18 23  2  0
 23 24  1  0
 24 25  3  0
  6 26  1  0
 26 27  1  0
 27 28  1  0
 26 29  2  0
 29 30  1  0
 30 31  1  0
 29  3  1  0
 23 13  1  0
  1 32  1  0
  1 33  1  0
  1 34  1  0
  4 35  1  0
  5 36  1  0
  7 37  1  0
  7 38  1  0
  8 39  1  0
 11 40  1  0
 11 41  1  0
 16 42  1  0
 16 43  1  0
 16 44  1  0
 17 45  1  0
 28 46  1  0
 28 47  1  0
 28 48  1  0
 31 49  1  0
 31 50  1  0
 31 51  1  0
M  END
>  <Binding energies>  (1) 
[-5.64]

>  <Ligand effiencies>  (1) 
[-0.17625]

>  <Interactions>  (1) 
["V-B:GLU:543:CB:9878, V-A:HIS:456:CE1:4068, V-A:HIS:456:CD2:4066, V-B:GLU:543:CD:9880, V-A:GLU:543:CD:4906, V-B:HIS:456:CE1:9042, V-A:GLY:544:CA:4912, H-A:LYS:547:NZ:4949, V-B:GLY:544:C:9884, V-A:GLY:544:C:4910, H-B:GLU:543:O:9875, V-B:HIS:456:CD2:9040, V-A:GLU:543:CB:4904, V-B:GLU:543:CG:9879, V-A:GLU:543:CG:4905, H-A:GLY:454:N:4048, H-B:LYS:547:NZ:9923, V-B:GLU:543:C:9874, V-A:ARG:545:CZ:4924, V-A:LYS:547:CE:4948, H-A:TYR:484:OH:4346, V-A:HIS:456:CG:4064, V-B:LYS:547:CE:9922, H-B:GLU:543:OE1:9881, V-B:GLY:544:CA:9886, H-A:ARG:545:NE:4922, V-A:GLU:543:C:4900, V-A:ILE:369:CD1:3237, V-A:ASP:366:CG:3211, V-B:TYR:539:CD2:9846, V-B:TYR:539:CE2:9848, V-A:ASP:366:CA:3208, V-A:ASP:366:CB:3210, H-A:ARG:545:NH2:4926, H-B:HIS:456:ND1:9039, V-B:HIS:456:CG:9038, H-B:GLU:543:OE2:9882, V-B:ARG:545:CG:9894, H-B:ARG:545:N:9892, V-B:ARG:545:CA:9891, V-B:ARG:545:CB:9893"]

$$$$
2i_Grossjean_2025
     RDKit          3D

 32 33  0  0  0  0  0  0  0  0999 V2000
  127.8060  124.2480   60.5570 C   0  0  0  0  0  0  0  0  0  0  0  0
  128.9930  123.3150   60.4060 C   0  0  0  0  0  0  0  0  0  0  0  0
  128.8880  121.9520   60.6710 C   0  0  0  0  0  0  0  0  0  0  0  0
  130.0140  121.1300   60.5150 C   0  0  0  0  0  0  0  0  0  0  0  0
  129.8800  119.6250   60.8130 C   0  0  0  0  0  0  0  0  0  0  0  0
  128.6110  119.3260   61.0930 F   0  0  0  0  0  0  0  0  0  0  0  0
  130.2690  118.9120   59.7550 F   0  0  0  0  0  0  0  0  0  0  0  0
  130.6230  119.2360   61.8520 F   0  0  0  0  0  0  0  0  0  0  0  0
  131.2300  121.7220   60.0880 C   0  0  0  0  0  0  0  0  0  0  0  0
  132.4370  120.9100   59.9060 C   0  0  0  0  0  0  0  0  0  0  0  0
  133.3910  120.2700   59.7630 N   0  0  0  0  0  0  0  0  0  0  0  0
  131.2480  123.1150   59.8430 C   0  0  0  0  0  0  0  0  0  0  0  0
  132.7220  123.9700   59.3110 S   0  0  0  0  0  0  0  0  0  0  0  0
  134.0580  123.5740   60.4800 C   0  0  0  0  0  0  0  0  0  0  0  0
  133.5850  123.6080   61.9340 C   0  0  0  0  0  0  0  0  0  0  0  0
  133.3470  122.5460   62.5120 O   0  0  0  0  0  0  0  0  0  0  0  0
  133.4350  124.8360   62.4760 N   0  0  0  0  0  0  0  0  0  0  0  0
  133.0060  125.1270   63.7600 C   0  0  0  0  0  0  0  0  0  0  0  0
  131.7500  125.5520   64.2170 C   0  0  0  0  0  0  0  0  0  0  0  0
  131.8990  125.6810   65.5790 C   0  0  0  0  0  0  0  0  0  0  0  0
  133.1660  125.3460   65.9200 O   0  0  0  0  0  0  0  0  0  0  0  0
  133.8530  124.9920   64.7560 N   0  0  0  0  0  0  0  0  0  0  0  0
  130.1460  123.8920   60.0000 N   0  0  0  0  0  0  0  0  0  0  0  0
  127.6003  124.4097   61.6254 H   0  0  0  0  0  0  0  0  0  0  0  0
  128.0336  125.2115   60.0775 H   0  0  0  0  0  0  0  0  0  0  0  0
  126.9236  123.7992   60.0775 H   0  0  0  0  0  0  0  0  0  0  0  0
  127.9299  121.5233   61.0000 H   0  0  0  0  0  0  0  0  0  0  0  0
  134.4381  122.5666   60.2550 H   0  0  0  0  0  0  0  0  0  0  0  0
  134.8439  124.3347   60.3636 H   0  0  0  0  0  0  0  0  0  0  0  0
  133.6240  125.6340   61.8870 H   0  0  0  0  0  0  0  0  0  0  0  0
  130.8461  125.7405   63.6192 H   0  0  0  0  0  0  0  0  0  0  0  0
  131.1144  126.0045   66.2788 H   0  0  0  0  0  0  0  0  0  0  0  0
  1  2  1  0
  2  3  2  0
  3  4  1  0
  4  5  1  0
  5  6  1  0
  5  7  1  0
  5  8  1  0
  4  9  2  0
  9 10  1  0
 10 11  3  0
  9 12  1  0
 12 13  1  0
 13 14  1  0
 14 15  1  0
 15 16  2  0
 15 17  1  0
 17 18  1  0
 18 19  1  0
 19 20  2  0
 20 21  1  0
 21 22  1  0
 12 23  2  0
 23  2  1  0
 22 18  2  0
  1 24  1  0
  1 25  1  0
  1 26  1  0
  3 27  1  0
 14 28  1  0
 14 29  1  0
 17 30  1  0
 19 31  1  0
 20 32  1  0
M  END
>  <Binding energies>  (1) 
[-6.06]

>  <Ligand effiencies>  (1) 
[-0.2525]

>  <Interactions>  (1) 
["V-A:HIS:456:CE1:4068, H-A:GLY:454:N:4048, V-A:ARG:545:CZ:4924, V-A:ARG:545:CG:4920, H-A:TYR:484:OH:4346, V-A:ARG:545:CD:4921, H-A:ARG:545:NE:4922, V-B:PRO:540:C:9853, V-B:TYR:539:CG:9844, V-A:TRP:381:CZ2:3368, V-A:ILE:369:CD1:3237, V-A:LEU:475:CD2:4257, V-A:TRP:381:CH2:3370, V-B:PRO:540:CA:9855, V-B:TYR:539:C:9839, V-B:ALA:541:CA:9862, V-A:GLY:454:CA:4047, V-B:TYR:539:CB:9843, V-B:ALA:541:CB:9864, V-B:TYR:539:CD2:9846, V-B:TYR:539:CE2:9848, V-A:ILE:369:CG2:3235, V-A:TRP:381:CZ3:3369, V-A:TRP:381:CE2:3365, V-A:PRO:482:CG:4325, V-A:PRO:482:CB:4324, H-A:ASP:366:OD1:3212, H-A:HIS:456:ND1:4065, V-A:LEU:475:CD1:4256, V-A:LEU:475:CG:4255, V-A:TRP:381:CE3:3366"]

$$$$
2j_Grossjean_2025
     RDKit          3D

 32 33  0  0  0  0  0  0  0  0999 V2000
  130.5820  119.4590   60.7930 C   0  0  0  0  0  0  0  0  0  0  0  0
  130.5560  120.9450   60.4900 C   0  0  0  0  0  0  0  0  0  0  0  0
  129.4460  121.7310   60.7870 C   0  0  0  0  0  0  0  0  0  0  0  0
  129.4710  123.1020   60.4910 C   0  0  0  0  0  0  0  0  0  0  0  0
  128.2350  123.9570   60.8270 C   0  0  0  0  0  0  0  0  0  0  0  0
  127.3980  123.2640   61.6000 F   0  0  0  0  0  0  0  0  0  0  0  0
  128.6050  125.0630   61.4730 F   0  0  0  0  0  0  0  0  0  0  0  0
  127.5580  124.3350   59.7400 F   0  0  0  0  0  0  0  0  0  0  0  0
  130.6370  123.6440   59.8930 C   0  0  0  0  0  0  0  0  0  0  0  0
  130.7190  125.0700   59.5610 C   0  0  0  0  0  0  0  0  0  0  0  0
  130.7830  126.1960   59.3000 N   0  0  0  0  0  0  0  0  0  0  0  0
  131.7190  122.7710   59.6250 C   0  0  0  0  0  0  0  0  0  0  0  0
  133.2370  123.3440   58.8760 S   0  0  0  0  0  0  0  0  0  0  0  0
  134.3820  123.8440   60.2060 C   0  0  0  0  0  0  0  0  0  0  0  0
  133.8030  123.7500   61.6260 C   0  0  0  0  0  0  0  0  0  0  0  0
  133.6120  122.6530   62.1560 O   0  0  0  0  0  0  0  0  0  0  0  0
  133.5240  124.9390   62.2030 N   0  0  0  0  0  0  0  0  0  0  0  0
  132.9980  125.1420   63.4720 C   0  0  0  0  0  0  0  0  0  0  0  0
  133.6390  125.1420   64.6210 N   0  0  0  0  0  0  0  0  0  0  0  0
  132.8240  125.3720   65.6320 C   0  0  0  0  0  0  0  0  0  0  0  0
  131.4840  125.5650   65.3110 C   0  0  0  0  0  0  0  0  0  0  0  0
  131.2930  125.4370   63.5870 S   0  0  0  0  0  0  0  0  0  0  0  0
  131.6750  121.4480   59.9210 N   0  0  0  0  0  0  0  0  0  0  0  0
  130.5847  119.3069   61.8824 H   0  0  0  0  0  0  0  0  0  0  0  0
  129.6921  118.9805   60.3582 H   0  0  0  0  0  0  0  0  0  0  0  0
  131.4881  119.0119   60.3582 H   0  0  0  0  0  0  0  0  0  0  0  0
  128.5559  121.2803   61.2503 H   0  0  0  0  0  0  0  0  0  0  0  0
  135.2692  123.1958   60.1550 H   0  0  0  0  0  0  0  0  0  0  0  0
  134.6093  124.9066   60.0348 H   0  0  0  0  0  0  0  0  0  0  0  0
  133.7120  125.7740   61.6670 H   0  0  0  0  0  0  0  0  0  0  0  0
  133.1835  125.4092   66.6709 H   0  0  0  0  0  0  0  0  0  0  0  0
  130.6766  125.7659   66.0306 H   0  0  0  0  0  0  0  0  0  0  0  0
  1  2  1  0
  2  3  2  0
  3  4  1  0
  4  5  1  0
  5  6  1  0
  5  7  1  0
  5  8  1  0
  4  9  2  0
  9 10  1  0
 10 11  3  0
  9 12  1  0
 12 13  1  0
 13 14  1  0
 14 15  1  0
 15 16  2  0
 15 17  1  0
 17 18  1  0
 18 19  2  0
 19 20  1  0
 20 21  2  0
 21 22  1  0
 12 23  2  0
 23  2  1  0
 22 18  1  0
  1 24  1  0
  1 25  1  0
  1 26  1  0
  3 27  1  0
 14 28  1  0
 14 29  1  0
 17 30  1  0
 20 31  1  0
 21 32  1  0
M  END
>  <Binding energies>  (1) 
[-5.74]

>  <Ligand effiencies>  (1) 
[-0.23916666666666667]

>  <Interactions>  (1) 
["V-A:HIS:456:CE1:4068, V-B:GLU:543:CD:9880, H-A:GLY:454:N:4048, V-A:ARG:545:CZ:4924, V-A:ARG:545:CG:4920, H-A:TYR:484:OH:4346, V-A:ARG:545:CD:4921, H-A:ARG:545:NE:4922, V-B:PRO:540:C:9853, V-A:TRP:381:CZ2:3368, V-A:ILE:369:CD1:3237, V-A:LEU:475:CD2:4257, V-A:TRP:381:CH2:3370, V-B:PRO:540:CA:9855, V-B:ALA:541:CA:9862, V-A:ASP:366:CG:3211, V-B:ALA:541:CB:9864, V-B:TYR:539:CD2:9846, V-B:TYR:539:CE2:9848, V-A:ILE:369:CG2:3235, V-A:ILE:369:CB:3234, V-A:PRO:482:CG:4325, V-A:PRO:482:CB:4324, H-A:ASP:366:OD2:3213, H-A:ASP:366:OD1:3212"]

$$$$
2k_Grossjean_2025
     RDKit          3D

 50 50  0  0  0  0  0  0  0  0999 V2000
  127.3020  128.4230   72.7430 C   0  0  0  0  0  0  0  0  0  0  0  0
  128.6710  128.5930   73.0770 O   0  0  0  0  0  0  0  0  0  0  0  0
  129.5480  128.4420   71.9680 C   0  0  0  0  0  0  0  0  0  0  0  0
  128.8630  127.6100   70.8760 C   0  0  0  0  0  0  0  0  0  0  0  0
  129.8150  127.2920   69.8710 O   0  0  0  0  0  0  0  0  0  0  0  0
  129.2770  127.2290   68.5550 C   0  0  0  0  0  0  0  0  0  0  0  0
  130.4360  127.3140   67.5530 C   0  0  0  0  0  0  0  0  0  0  0  0
  130.1930  126.3660   66.5260 O   0  0  0  0  0  0  0  0  0  0  0  0
  131.3530  125.8630   65.8810 C   0  0  0  0  0  0  0  0  0  0  0  0
  130.9450  124.7060   64.9500 C   0  0  0  0  0  0  0  0  0  0  0  0
  131.5330  124.8150   63.6120 N   0  0  0  0  0  0  0  0  0  0  0  0
  132.8430  124.9800   63.3430 C   0  0  0  0  0  0  0  0  0  0  0  0
  133.7130  125.0310   64.2150 O   0  0  0  0  0  0  0  0  0  0  0  0
  133.2040  125.1280   61.8580 C   0  0  0  0  0  0  0  0  0  0  0  0
  133.3030  123.5650   60.9170 S   0  0  0  0  0  0  0  0  0  0  0  0
  131.6940  122.7850   60.8900 C   0  0  0  0  0  0  0  0  0  0  0  0
  130.6320  123.6220   61.0110 N   0  0  0  0  0  0  0  0  0  0  0  0
  129.3850  123.1010   61.0030 C   0  0  0  0  0  0  0  0  0  0  0  0
  128.2540  124.0990   61.1560 C   0  0  0  0  0  0  0  0  0  0  0  0
  129.1420  121.7370   60.8620 C   0  0  0  0  0  0  0  0  0  0  0  0
  130.2240  120.8540   60.7260 C   0  0  0  0  0  0  0  0  0  0  0  0
  129.9370  119.3490   60.5660 C   0  0  0  0  0  0  0  0  0  0  0  0
  130.6420  118.5960   61.4120 F   0  0  0  0  0  0  0  0  0  0  0  0
  128.6450  119.1040   60.7910 F   0  0  0  0  0  0  0  0  0  0  0  0
  130.2420  118.9550   59.3290 F   0  0  0  0  0  0  0  0  0  0  0  0
  131.5390  121.3870   60.7410 C   0  0  0  0  0  0  0  0  0  0  0  0
  132.7060  120.5100   60.6070 C   0  0  0  0  0  0  0  0  0  0  0  0
  133.6280  119.8170   60.5000 N   0  0  0  0  0  0  0  0  0  0  0  0
  126.7062  128.3490   73.6647 H   0  0  0  0  0  0  0  0  0  0  0  0
  126.9588  129.2854   72.1527 H   0  0  0  0  0  0  0  0  0  0  0  0
  127.1801  127.5028   72.1527 H   0  0  0  0  0  0  0  0  0  0  0  0
  129.8031  129.4336   71.5660 H   0  0  0  0  0  0  0  0  0  0  0  0
  130.4643  127.9290   72.2956 H   0  0  0  0  0  0  0  0  0  0  0  0
  128.4654  126.6826   71.3139 H   0  0  0  0  0  0  0  0  0  0  0  0
  128.0354  128.1850   70.4351 H   0  0  0  0  0  0  0  0  0  0  0  0
  128.7375  126.2800   68.4193 H   0  0  0  0  0  0  0  0  0  0  0  0
  128.5759  128.0611   68.3932 H   0  0  0  0  0  0  0  0  0  0  0  0
  130.4861  128.3256   67.1240 H   0  0  0  0  0  0  0  0  0  0  0  0
  131.3923  127.1013   68.0533 H   0  0  0  0  0  0  0  0  0  0  0  0
  131.8235  126.6632   65.2909 H   0  0  0  0  0  0  0  0  0  0  0  0
  132.0697  125.5009   66.6329 H   0  0  0  0  0  0  0  0  0  0  0  0
  131.2748  123.7590   65.4021 H   0  0  0  0  0  0  0  0  0  0  0  0
  129.8519  124.7460   64.8340 H   0  0  0  0  0  0  0  0  0  0  0  0
  130.8880  124.7680   62.8380 H   0  0  0  0  0  0  0  0  0  0  0  0
  132.4397  125.7617   61.3843 H   0  0  0  0  0  0  0  0  0  0  0  0
  134.2146  125.5617   61.8332 H   0  0  0  0  0  0  0  0  0  0  0  0
  128.0589  124.2711   62.2248 H   0  0  0  0  0  0  0  0  0  0  0  0
  128.5355  125.0484   60.6771 H   0  0  0  0  0  0  0  0  0  0  0  0
  127.3470  123.7015   60.6771 H   0  0  0  0  0  0  0  0  0  0  0  0
  128.1105  121.3550   60.8573 H   0  0  0  0  0  0  0  0  0  0  0  0
  1  2  1  0
  2  3  1  0
  3  4  1  0
  4  5  1  0
  5  6  1  0
  6  7  1  0
  7  8  1  0
  8  9  1  0
  9 10  1  0
 10 11  1  0
 11 12  1  0
 12 13  2  0
 12 14  1  0
 14 15  1  0
 15 16  1  0
 16 17  2  0
 17 18  1  0
 18 19  1  0
 18 20  2  0
 20 21  1  0
 21 22  1  0
 22 23  1  0
 22 24  1  0
 22 25  1  0
 21 26  2  0
 26 27  1  0
 27 28  3  0
 26 16  1  0
  1 29  1  0
  1 30  1  0
  1 31  1  0
  3 32  1  0
  3 33  1  0
  4 34  1  0
  4 35  1  0
  6 36  1  0
  6 37  1  0
  7 38  1  0
  7 39  1  0
  9 40  1  0
  9 41  1  0
 10 42  1  0
 10 43  1  0
 11 44  1  0
 14 45  1  0
 14 46  1  0
 19 47  1  0
 19 48  1  0
 19 49  1  0
 20 50  1  0
M  END
>  <Binding energies>  (1) 
[-5.64]

>  <Ligand effiencies>  (1) 
[-0.19448275862068964]

>  <Interactions>  (1) 
["V-B:GLU:543:CB:9878, V-A:HIS:456:CE1:4068, V-B:GLU:543:CD:9880, V-A:GLU:543:CD:4906, V-A:GLY:544:CA:4912, H-A:LYS:547:NZ:4949, V-B:GLY:544:C:9884, V-A:GLY:544:C:4910, V-B:HIS:456:CD2:9040, V-A:GLU:543:CG:4905, H-A:GLY:454:N:4048, V-A:ARG:545:CZ:4924, V-A:ARG:545:CG:4920, V-A:LYS:547:CE:4948, H-A:TYR:484:OH:4346, V-A:TYR:484:CZ:4345, H-A:ARG:545:NH1:4925, H-B:GLU:543:OE1:9881, H-A:ARG:545:NE:4922, V-B:PRO:540:C:9853, V-B:TYR:539:CG:9844, V-A:TRP:381:CZ2:3368, V-A:LEU:475:CD2:4257, V-A:TRP:381:CH2:3370, V-B:PRO:540:CA:9855, V-B:TYR:539:C:9839, V-B:ALA:541:CA:9862, V-A:ASP:366:CG:3211, V-B:TYR:539:CB:9843, V-B:ALA:541:CB:9864, V-B:TYR:539:CD2:9846, V-B:TYR:539:CE2:9848, V-A:ILE:369:CG2:3235, H-A:ARG:545:NH2:4926, V-A:TRP:381:CZ3:3369, V-A:TRP:381:CE2:3365, V-A:PRO:482:CG:4325, V-A:PRO:482:CB:4324, V-B:HIS:456:CG:9038, V-A:LEU:475:CD1:4256, V-A:LEU:475:CG:4255, V-A:TRP:381:CE3:3366, V-A:PRO:482:CD:4326"]

$$$$
3aa_Grossjean_2025
     RDKit          3D

 52 54  0  0  0  0  0  0  0  0999 V2000
  131.3840  126.1510   73.0900 C   0  0  0  0  0  0  0  0  0  0  0  0
  130.0630  126.2060   72.3180 C   0  0  0  0  0  0  0  0  0  0  0  0
  129.7440  127.5600   72.0200 O   0  0  0  0  0  0  0  0  0  0  0  0
  128.7410  127.8680   71.1590 C   0  0  0  0  0  0  0  0  0  0  0  0
  127.6700  128.3710   71.5130 O   0  0  0  0  0  0  0  0  0  0  0  0
  129.0560  127.5200   69.7320 C   0  0  0  0  0  0  0  0  0  0  0  0
  130.3740  127.4620   69.2550 C   0  0  0  0  0  0  0  0  0  0  0  0
  130.6310  127.1320   67.9260 C   0  0  0  0  0  0  0  0  0  0  0  0
  129.5800  126.8480   67.0520 C   0  0  0  0  0  0  0  0  0  0  0  0
  129.9500  126.5220   65.7320 N   0  0  0  0  0  0  0  0  0  0  0  0
  130.9150  125.6870   65.2890 C   0  0  0  0  0  0  0  0  0  0  0  0
  131.6930  125.0520   66.0030 O   0  0  0  0  0  0  0  0  0  0  0  0
  131.0280  125.5550   63.7700 C   0  0  0  0  0  0  0  0  0  0  0  0
  130.9620  123.8180   63.2360 S   0  0  0  0  0  0  0  0  0  0  0  0
  131.0560  123.8160   61.4590 C   0  0  0  0  0  0  0  0  0  0  0  0
  129.8490  123.7320   60.8520 N   0  0  0  0  0  0  0  0  0  0  0  0
  129.7770  123.7180   59.4950 C   0  0  0  0  0  0  0  0  0  0  0  0
  128.4050  123.6380   58.8980 C   0  0  0  0  0  0  0  0  0  0  0  0
  127.2730  123.9600   59.6640 C   0  0  0  0  0  0  0  0  0  0  0  0
  125.9940  123.8890   59.1160 C   0  0  0  0  0  0  0  0  0  0  0  0
  125.8310  123.4950   57.7920 C   0  0  0  0  0  0  0  0  0  0  0  0
  126.9370  123.1730   57.0120 C   0  0  0  0  0  0  0  0  0  0  0  0
  128.2140  123.2470   57.5620 C   0  0  0  0  0  0  0  0  0  0  0  0
  130.9340  123.7980   58.7140 C   0  0  0  0  0  0  0  0  0  0  0  0
  132.1980  123.8670   59.3210 C   0  0  0  0  0  0  0  0  0  0  0  0
  133.4490  123.9420   58.4260 C   0  0  0  0  0  0  0  0  0  0  0  0
  133.3430  124.8600   57.4630 F   0  0  0  0  0  0  0  0  0  0  0  0
  134.5200  124.2550   59.1570 F   0  0  0  0  0  0  0  0  0  0  0  0
  133.6580  122.7640   57.8380 F   0  0  0  0  0  0  0  0  0  0  0  0
  132.2680  123.8650   60.7360 C   0  0  0  0  0  0  0  0  0  0  0  0
  133.5620  123.8780   61.4240 C   0  0  0  0  0  0  0  0  0  0  0  0
  134.5850  123.8870   61.9670 N   0  0  0  0  0  0  0  0  0  0  0  0
  128.2590  126.9180   67.5190 C   0  0  0  0  0  0  0  0  0  0  0  0
  128.0050  127.2500   68.8460 C   0  0  0  0  0  0  0  0  0  0  0  0
  131.1779  126.1596   74.1705 H   0  0  0  0  0  0  0  0  0  0  0  0
  131.9242  125.2296   72.8271 H   0  0  0  0  0  0  0  0  0  0  0  0
  131.9990  127.0243   72.8271 H   0  0  0  0  0  0  0  0  0  0  0  0
  130.1618  125.6378   71.3813 H   0  0  0  0  0  0  0  0  0  0  0  0
  129.2618  125.7667   72.9305 H   0  0  0  0  0  0  0  0  0  0  0  0
  131.2108  127.6787   69.9353 H   0  0  0  0  0  0  0  0  0  0  0  0
  131.6687  127.0950   67.5630 H   0  0  0  0  0  0  0  0  0  0  0  0
  129.4400  127.0290   65.0220 H   0  0  0  0  0  0  0  0  0  0  0  0
  130.1969  126.1031   63.3022 H   0  0  0  0  0  0  0  0  0  0  0  0
  131.9988  125.9706   63.4621 H   0  0  0  0  0  0  0  0  0  0  0  0
  127.3978  124.2726   60.7112 H   0  0  0  0  0  0  0  0  0  0  0  0
  125.1163  124.1436   59.7282 H   0  0  0  0  0  0  0  0  0  0  0  0
  124.8214  123.4377   57.3591 H   0  0  0  0  0  0  0  0  0  0  0  0
  126.8033  122.8614   55.9656 H   0  0  0  0  0  0  0  0  0  0  0  0
  129.0866  122.9955   56.9412 H   0  0  0  0  0  0  0  0  0  0  0  0
  130.8533  123.8069   57.6170 H   0  0  0  0  0  0  0  0  0  0  0  0
  127.4229  126.7101   66.8351 H   0  0  0  0  0  0  0  0  0  0  0  0
  126.9661  127.3011   69.2039 H   0  0  0  0  0  0  0  0  0  0  0  0
  1  2  1  0
  2  3  1  0
  3  4  1  0
  4  5  2  0
  4  6  1  0
  6  7  2  0
  7  8  1  0
  8  9  2  0
  9 10  1  0
 10 11  1  0
 11 12  2  0
 11 13  1  0
 13 14  1  0
 14 15  1  0
 15 16  2  0
 16 17  1  0
 17 18  1  0
 18 19  2  0
 19 20  1  0
 20 21  2  0
 21 22  1  0
 22 23  2  0
 17 24  2  0
 24 25  1  0
 25 26  1  0
 26 27  1  0
 26 28  1  0
 26 29  1  0
 25 30  2  0
 30 31  1  0
 31 32  3  0
  9 33  1  0
 33 34  2  0
 34  6  1  0
 30 15  1  0
 23 18  1  0
  1 35  1  0
  1 36  1  0
  1 37  1  0
  2 38  1  0
  2 39  1  0
  7 40  1  0
  8 41  1  0
 10 42  1  0
 13 43  1  0
 13 44  1  0
 19 45  1  0
 20 46  1  0
 21 47  1  0
 22 48  1  0
 23 49  1  0
 24 50  1  0
 33 51  1  0
 34 52  1  0
M  END
>  <Binding energies>  (1) 
[-7.86]

>  <Ligand effiencies>  (1) 
[-0.2245714285714286]

>  <Interactions>  (1) 
["V-B:GLU:543:CB:9878, V-A:HIS:456:CE1:4068, V-A:HIS:456:CD2:4066, V-B:GLU:543:CD:9880, V-A:GLU:543:CD:4906, V-B:HIS:456:CE1:9042, V-A:GLY:544:C:4910, V-B:HIS:456:CD2:9040, V-B:GLU:543:CG:9879, V-A:GLU:543:CG:4905, H-A:GLY:454:N:4048, V-B:GLU:543:C:9874, V-A:ARG:545:CG:4920, H-A:TYR:484:OH:4346, V-A:HIS:456:CG:4064, V-A:HIS:456:CB:4063, H-B:GLU:543:OE1:9881, V-A:GLU:543:C:4900, V-B:TYR:539:CZ:9849, V-A:ILE:369:CD1:3237, V-B:PRO:540:CA:9855, V-B:TYR:539:C:9839, V-A:ASP:366:CG:3211, V-B:PRO:540:CD:9859, V-B:TYR:539:CD2:9846, V-B:TYR:539:CE2:9848, V-A:ILE:369:CG2:3235, V-B:PRO:540:N:9856, V-B:PRO:540:CB:9857, V-A:ASP:366:CA:3208, V-A:ASP:366:CB:3210, V-A:ASP:366:C:3206, V-A:ILE:369:CB:3234, H-A:GLU:543:OE2:4908, H-A:GLU:543:OE1:4907, H-B:HIS:456:ND1:9039, H-B:GLU:543:OE2:9882"]

$$$$
3ab_Grossjean_2025
     RDKit          3D

 49 51  0  0  0  0  0  0  0  0999 V2000
  129.1100  125.6410   72.3490 C   0  0  0  0  0  0  0  0  0  0  0  0
  128.7410  126.9140   72.8630 O   0  0  0  0  0  0  0  0  0  0  0  0
  128.7090  128.0090   72.0610 C   0  0  0  0  0  0  0  0  0  0  0  0
  128.3630  129.1280   72.4500 O   0  0  0  0  0  0  0  0  0  0  0  0
  129.1410  127.7240   70.6510 C   0  0  0  0  0  0  0  0  0  0  0  0
  130.4950  127.6260   70.2940 C   0  0  0  0  0  0  0  0  0  0  0  0
  130.8660  127.3600   68.9790 C   0  0  0  0  0  0  0  0  0  0  0  0
  129.8830  127.1870   67.9920 C   0  0  0  0  0  0  0  0  0  0  0  0
  130.1430  126.9090   66.6360 N   0  0  0  0  0  0  0  0  0  0  0  0
  130.3930  125.7310   66.0260 C   0  0  0  0  0  0  0  0  0  0  0  0
  130.4530  124.6350   66.5830 O   0  0  0  0  0  0  0  0  0  0  0  0
  130.6160  125.8110   64.5140 C   0  0  0  0  0  0  0  0  0  0  0  0
  131.4940  124.3530   63.8740 S   0  0  0  0  0  0  0  0  0  0  0  0
  131.1260  124.2280   62.1360 C   0  0  0  0  0  0  0  0  0  0  0  0
  129.8010  124.1610   61.8670 N   0  0  0  0  0  0  0  0  0  0  0  0
  129.3770  124.0690   60.5800 C   0  0  0  0  0  0  0  0  0  0  0  0
  127.8930  124.0020   60.3670 C   0  0  0  0  0  0  0  0  0  0  0  0
  127.0100  123.9960   61.4580 C   0  0  0  0  0  0  0  0  0  0  0  0
  125.6320  123.9360   61.2660 C   0  0  0  0  0  0  0  0  0  0  0  0
  125.1170  123.8790   59.9740 C   0  0  0  0  0  0  0  0  0  0  0  0
  125.9700  123.8790   58.8760 C   0  0  0  0  0  0  0  0  0  0  0  0
  127.3470  123.9400   59.0730 C   0  0  0  0  0  0  0  0  0  0  0  0
  130.2950  124.0190   59.5250 C   0  0  0  0  0  0  0  0  0  0  0  0
  131.6730  124.0670   59.7800 C   0  0  0  0  0  0  0  0  0  0  0  0
  132.6500  124.0040   58.5910 C   0  0  0  0  0  0  0  0  0  0  0  0
  133.2550  122.8190   58.4800 F   0  0  0  0  0  0  0  0  0  0  0  0
  132.0000  124.2270   57.4480 F   0  0  0  0  0  0  0  0  0  0  0  0
  133.6010  124.9290   58.7340 F   0  0  0  0  0  0  0  0  0  0  0  0
  132.1100  124.1660   61.1240 C   0  0  0  0  0  0  0  0  0  0  0  0
  133.5390  124.1620   61.4500 C   0  0  0  0  0  0  0  0  0  0  0  0
  134.6680  124.1590   61.7030 N   0  0  0  0  0  0  0  0  0  0  0  0
  128.5360  127.2770   68.3450 C   0  0  0  0  0  0  0  0  0  0  0  0
  128.1680  127.5450   69.6600 C   0  0  0  0  0  0  0  0  0  0  0  0
  129.3096  124.9525   73.1834 H   0  0  0  0  0  0  0  0  0  0  0  0
  128.2903  125.2427   71.7330 H   0  0  0  0  0  0  0  0  0  0  0  0
  130.0156  125.7428   71.7330 H   0  0  0  0  0  0  0  0  0  0  0  0
  131.2712  127.7609   71.0617 H   0  0  0  0  0  0  0  0  0  0  0  0
  131.9307  127.2853   68.7130 H   0  0  0  0  0  0  0  0  0  0  0  0
  130.1770  127.7290   66.0490 H   0  0  0  0  0  0  0  0  0  0  0  0
  129.6386  125.8839   64.0147 H   0  0  0  0  0  0  0  0  0  0  0  0
  131.2358  126.6965   64.3094 H   0  0  0  0  0  0  0  0  0  0  0  0
  127.4127  124.0394   62.4807 H   0  0  0  0  0  0  0  0  0  0  0  0
  124.9533  123.9337   62.1317 H   0  0  0  0  0  0  0  0  0  0  0  0
  124.0287  123.8337   59.8208 H   0  0  0  0  0  0  0  0  0  0  0  0
  125.5590  123.8310   57.8568 H   0  0  0  0  0  0  0  0  0  0  0  0
  128.0187  123.9397   58.2019 H   0  0  0  0  0  0  0  0  0  0  0  0
  129.9333  123.9415   58.4891 H   0  0  0  0  0  0  0  0  0  0  0  0
  127.7598  127.1351   67.5786 H   0  0  0  0  0  0  0  0  0  0  0  0
  127.1025  127.6169   69.9235 H   0  0  0  0  0  0  0  0  0  0  0  0
  1  2  1  0
  2  3  1  0
  3  4  2  0
  3  5  1  0
  5  6  2  0
  6  7  1  0
  7  8  2  0
  8  9  1  0
  9 10  1  0
 10 11  2  0
 10 12  1  0
 12 13  1  0
 13 14  1  0
 14 15  2  0
 15 16  1  0
 16 17  1  0
 17 18  2  0
 18 19  1  0
 19 20  2  0
 20 21  1  0
 21 22  2  0
 16 23  2  0
 23 24  1  0
 24 25  1  0
 25 26  1  0
 25 27  1  0
 25 28  1  0
 24 29  2  0
 29 30  1  0
 30 31  3  0
  8 32  1  0
 32 33  2  0
 33  5  1  0
 29 14  1  0
 22 17  1  0
  1 34  1  0
  1 35  1  0
  1 36  1  0
  6 37  1  0
  7 38  1  0
  9 39  1  0
 12 40  1  0
 12 41  1  0
 18 42  1  0
 19 43  1  0
 20 44  1  0
 21 45  1  0
 22 46  1  0
 23 47  1  0
 32 48  1  0
 33 49  1  0
M  END
>  <Binding energies>  (1) 
[-7.61]

>  <Ligand effiencies>  (1) 
[-0.22382352941176473]

>  <Interactions>  (1) 
["V-B:GLU:543:CB:9878, V-A:HIS:456:CE1:4068, V-A:HIS:456:CD2:4066, V-B:GLU:543:CD:9880, V-A:GLU:543:CD:4906, V-B:HIS:456:CE1:9042, V-A:GLY:544:CA:4912, H-A:LYS:547:NZ:4949, V-B:GLY:544:C:9884, V-A:GLY:544:C:4910, V-B:HIS:456:CD2:9040, V-B:GLU:543:CG:9879, V-A:GLU:543:CG:4905, H-A:GLY:454:N:4048, H-B:LYS:547:NZ:9923, V-B:GLU:543:C:9874, V-A:ARG:545:CG:4920, H-A:TYR:484:OH:4346, V-B:LYS:547:CE:9922, V-B:GLY:544:CA:9886, V-A:GLU:543:C:4900, V-B:TYR:539:CZ:9849, V-A:ILE:369:CD1:3237, V-B:PRO:540:CA:9855, V-A:ASP:366:CG:3211, V-B:TYR:539:CD2:9846, V-B:TYR:539:CE2:9848, V-A:ILE:369:CG2:3235, V-B:PRO:540:N:9856, V-B:PRO:540:CB:9857, V-A:ASP:366:CA:3208, V-A:ASP:366:CB:3210, V-A:ILE:369:CB:3234, H-A:GLU:543:OE2:4908, H-A:GLU:543:OE1:4907, H-B:GLU:543:OE2:9882"]

$$$$
3ac_Grossjean_2025
     RDKit          3D

 47 49  0  0  0  0  0  0  0  0999 V2000
  126.6640  128.5310   74.5420 C   0  0  0  0  0  0  0  0  0  0  0  0
  128.0420  128.3020   74.2590 O   0  0  0  0  0  0  0  0  0  0  0  0
  128.4150  127.9220   72.9840 C   0  0  0  0  0  0  0  0  0  0  0  0
  127.4510  128.0600   71.9860 C   0  0  0  0  0  0  0  0  0  0  0  0
  127.7370  127.7060   70.6710 C   0  0  0  0  0  0  0  0  0  0  0  0
  128.9930  127.1980   70.3360 C   0  0  0  0  0  0  0  0  0  0  0  0
  129.1940  126.8880   68.9780 N   0  0  0  0  0  0  0  0  0  0  0  0
  129.0060  127.6660   67.8900 C   0  0  0  0  0  0  0  0  0  0  0  0
  128.6490  128.8440   67.9110 O   0  0  0  0  0  0  0  0  0  0  0  0
  129.2710  126.9910   66.5440 C   0  0  0  0  0  0  0  0  0  0  0  0
  130.9950  126.4360   66.3800 S   0  0  0  0  0  0  0  0  0  0  0  0
  131.2670  125.9010   64.7020 C   0  0  0  0  0  0  0  0  0  0  0  0
  130.1900  126.0890   63.9010 N   0  0  0  0  0  0  0  0  0  0  0  0
  130.2490  125.7350   62.5920 C   0  0  0  0  0  0  0  0  0  0  0  0
  129.0120  125.9700   61.7770 C   0  0  0  0  0  0  0  0  0  0  0  0
  128.4650  127.2580   61.6580 C   0  0  0  0  0  0  0  0  0  0  0  0
  127.3210  127.4840   60.8980 C   0  0  0  0  0  0  0  0  0  0  0  0
  126.7040  126.4210   60.2470 C   0  0  0  0  0  0  0  0  0  0  0  0
  127.2220  125.1350   60.3530 C   0  0  0  0  0  0  0  0  0  0  0  0
  128.3670  124.9130   61.1130 C   0  0  0  0  0  0  0  0  0  0  0  0
  131.4060  125.1580   62.0580 C   0  0  0  0  0  0  0  0  0  0  0  0
  132.5270  124.9310   62.8700 C   0  0  0  0  0  0  0  0  0  0  0  0
  133.7790  124.2880   62.2410 C   0  0  0  0  0  0  0  0  0  0  0  0
  133.9670  123.0270   62.6360 F   0  0  0  0  0  0  0  0  0  0  0  0
  133.6740  124.2760   60.9110 F   0  0  0  0  0  0  0  0  0  0  0  0
  134.8640  124.9840   62.5820 F   0  0  0  0  0  0  0  0  0  0  0  0
  132.4580  125.2980   64.2370 C   0  0  0  0  0  0  0  0  0  0  0  0
  133.5740  125.0100   65.1410 C   0  0  0  0  0  0  0  0  0  0  0  0
  134.4560  124.7820   65.8540 N   0  0  0  0  0  0  0  0  0  0  0  0
  129.9710  127.0620   71.3340 C   0  0  0  0  0  0  0  0  0  0  0  0
  129.6820  127.4180   72.6480 C   0  0  0  0  0  0  0  0  0  0  0  0
  126.5126  128.5562   75.6312 H   0  0  0  0  0  0  0  0  0  0  0  0
  126.3552  129.4928   74.1066 H   0  0  0  0  0  0  0  0  0  0  0  0
  126.0607  127.7208   74.1066 H   0  0  0  0  0  0  0  0  0  0  0  0
  126.4553  128.4523   72.2405 H   0  0  0  0  0  0  0  0  0  0  0  0
  126.9698  127.8271   69.8921 H   0  0  0  0  0  0  0  0  0  0  0  0
  129.5800  125.9700   68.8120 H   0  0  0  0  0  0  0  0  0  0  0  0
  128.6077  126.1187   66.4487 H   0  0  0  0  0  0  0  0  0  0  0  0
  129.0779  127.7299   65.7524 H   0  0  0  0  0  0  0  0  0  0  0  0
  128.9481  128.1012   62.1734 H   0  0  0  0  0  0  0  0  0  0  0  0
  126.9065  128.4993   60.8126 H   0  0  0  0  0  0  0  0  0  0  0  0
  125.8009  126.5987   59.6447 H   0  0  0  0  0  0  0  0  0  0  0  0
  126.7292  124.2968   59.8386 H   0  0  0  0  0  0  0  0  0  0  0  0
  128.7732  123.8940   61.1950 H   0  0  0  0  0  0  0  0  0  0  0  0
  131.4369  124.8804   60.9941 H   0  0  0  0  0  0  0  0  0  0  0  0
  130.9674  126.6734   71.0769 H   0  0  0  0  0  0  0  0  0  0  0  0
  130.4499  127.3040   73.4273 H   0  0  0  0  0  0  0  0  0  0  0  0
  1  2  1  0
  2  3  1  0
  3  4  2  0
  4  5  1  0
  5  6  2  0
  6  7  1  0
  7  8  1  0
  8  9  2  0
  8 10  1  0
 10 11  1  0
 11 12  1  0
 12 13  2  0
 13 14  1  0
 14 15  1  0
 15 16  2  0
 16 17  1  0
 17 18  2  0
 18 19  1  0
 19 20  2  0
 14 21  2  0
 21 22  1  0
 22 23  1  0
 23 24  1  0
 23 25  1  0
 23 26  1  0
 22 27  2  0
 27 28  1  0
 28 29  3  0
  6 30  1  0
 30 31  2  0
 31  3  1  0
 27 12  1  0
 20 15  1  0
  1 32  1  0
  1 33  1  0
  1 34  1  0
  4 35  1  0
  5 36  1  0
  7 37  1  0
 10 38  1  0
 10 39  1  0
 16 40  1  0
 17 41  1  0
 18 42  1  0
 19 43  1  0
 20 44  1  0
 21 45  1  0
 30 46  1  0
 31 47  1  0
M  END
>  <Binding energies>  (1) 
[-7.31]

>  <Ligand effiencies>  (1) 
[-0.2284375]

>  <Interactions>  (1) 
["V-B:GLU:543:CB:9878, V-A:HIS:456:CE1:4068, V-A:HIS:456:CD2:4066, V-B:GLU:543:CD:9880, H-A:HIS:456:NE2:4069, V-A:GLU:543:CD:4906, V-B:HIS:456:CE1:9042, H-A:LYS:547:NZ:4949, V-B:GLY:544:C:9884, V-A:GLY:544:C:4910, H-B:GLU:543:O:9875, V-B:HIS:456:CD2:9040, V-B:GLU:543:CG:9879, V-A:GLU:543:CG:4905, H-A:GLY:454:N:4048, H-B:LYS:547:NZ:9923, V-B:GLU:543:C:9874, V-A:ARG:545:CZ:4924, V-A:ARG:545:CG:4920, V-A:LYS:547:CE:4948, H-A:TYR:484:OH:4346, V-A:ARG:545:CD:4921, V-B:LYS:547:CE:9922, H-A:ARG:545:NE:4922, V-A:GLY:453:C:4040, V-A:ILE:369:CD1:3237, V-A:GLY:453:CA:4042, V-A:ASP:366:CG:3211, V-A:GLY:454:CA:4047, V-B:HIS:456:CG:9038, H-A:ILE:455:N:4053"]

$$$$
3ad_Grossjean_2025
     RDKit          3D

 43 45  0  0  0  0  0  0  0  0999 V2000
  134.1180  122.8300   75.7180 N   0  0  0  0  0  0  0  0  0  0  0  0
  133.3900  123.4690   75.0860 C   0  0  0  0  0  0  0  0  0  0  0  0
  132.4710  124.2820   74.2840 C   0  0  0  0  0  0  0  0  0  0  0  0
  132.8220  125.5960   73.8890 C   0  0  0  0  0  0  0  0  0  0  0  0
  134.1840  126.2310   74.2290 C   0  0  0  0  0  0  0  0  0  0  0  0
  135.0390  125.3630   74.7720 F   0  0  0  0  0  0  0  0  0  0  0  0
  134.7490  126.7140   73.1210 F   0  0  0  0  0  0  0  0  0  0  0  0
  134.0200  127.2280   75.1000 F   0  0  0  0  0  0  0  0  0  0  0  0
  131.8870  126.3500   73.1620 C   0  0  0  0  0  0  0  0  0  0  0  0
  130.6380  125.8090   72.8420 C   0  0  0  0  0  0  0  0  0  0  0  0
  129.5970  126.5750   72.0810 C   0  0  0  0  0  0  0  0  0  0  0  0
  129.6050  126.5960   70.6770 C   0  0  0  0  0  0  0  0  0  0  0  0
  128.6410  127.3040   69.9650 C   0  0  0  0  0  0  0  0  0  0  0  0
  127.6520  128.0040   70.6500 C   0  0  0  0  0  0  0  0  0  0  0  0
  127.6210  127.9970   72.0400 C   0  0  0  0  0  0  0  0  0  0  0  0
  128.5860  127.2860   72.7490 C   0  0  0  0  0  0  0  0  0  0  0  0
  130.3040  124.5510   73.2280 N   0  0  0  0  0  0  0  0  0  0  0  0
  131.1960  123.7980   73.9120 C   0  0  0  0  0  0  0  0  0  0  0  0
  130.5940  122.1750   74.3230 S   0  0  0  0  0  0  0  0  0  0  0  0
  130.4020  121.2600   72.7650 C   0  0  0  0  0  0  0  0  0  0  0  0
  128.9740  121.3380   72.2200 C   0  0  0  0  0  0  0  0  0  0  0  0
  128.7930  121.7420   71.0710 O   0  0  0  0  0  0  0  0  0  0  0  0
  128.0050  120.9460   73.0750 N   0  0  0  0  0  0  0  0  0  0  0  0
  126.6120  120.8820   72.8910 C   0  0  0  0  0  0  0  0  0  0  0  0
  125.8370  121.2210   74.0050 C   0  0  0  0  0  0  0  0  0  0  0  0
  124.4470  121.1870   73.9310 C   0  0  0  0  0  0  0  0  0  0  0  0
  123.8280  120.8100   72.7430 C   0  0  0  0  0  0  0  0  0  0  0  0
  124.5870  120.4630   71.6280 C   0  0  0  0  0  0  0  0  0  0  0  0
  125.9780  120.4950   71.6970 C   0  0  0  0  0  0  0  0  0  0  0  0
  132.1385  127.3721   72.8424 H   0  0  0  0  0  0  0  0  0  0  0  0
  130.3850  126.0445   70.1315 H   0  0  0  0  0  0  0  0  0  0  0  0
  128.6607  127.3103   68.8652 H   0  0  0  0  0  0  0  0  0  0  0  0
  126.8909  128.5657   70.0886 H   0  0  0  0  0  0  0  0  0  0  0  0
  126.8373  128.5509   72.5776 H   0  0  0  0  0  0  0  0  0  0  0  0
  128.5562  127.2810   73.8486 H   0  0  0  0  0  0  0  0  0  0  0  0
  131.0896  121.6839   72.0183 H   0  0  0  0  0  0  0  0  0  0  0  0
  130.6296  120.2025   72.9646 H   0  0  0  0  0  0  0  0  0  0  0  0
  128.3090  120.6910   74.0040 H   0  0  0  0  0  0  0  0  0  0  0  0
  126.3280  121.5159   74.9441 H   0  0  0  0  0  0  0  0  0  0  0  0
  123.8406  121.4571   74.8081 H   0  0  0  0  0  0  0  0  0  0  0  0
  122.7298  120.7859   72.6841 H   0  0  0  0  0  0  0  0  0  0  0  0
  124.0887  120.1640   70.6940 H   0  0  0  0  0  0  0  0  0  0  0  0
  126.5795  120.2179   70.8187 H   0  0  0  0  0  0  0  0  0  0  0  0
  1  2  3  0
  2  3  1  0
  3  4  2  0
  4  5  1  0
  5  6  1  0
  5  7  1  0
  5  8  1  0
  4  9  1  0
  9 10  2  0
 10 11  1  0
 11 12  2  0
 12 13  1  0
 13 14  2  0
 14 15  1  0
 15 16  2  0
 10 17  1  0
 17 18  2  0
 18 19  1  0
 19 20  1  0
 20 21  1  0
 21 22  2  0
 21 23  1  0
 23 24  1  0
 24 25  2  0
 25 26  1  0
 26 27  2  0
 27 28  1  0
 28 29  2  0
 18  3  1  0
 29 24  1  0
 16 11  1  0
  9 30  1  0
 12 31  1  0
 13 32  1  0
 14 33  1  0
 15 34  1  0
 16 35  1  0
 20 36  1  0
 20 37  1  0
 23 38  1  0
 25 39  1  0
 26 40  1  0
 27 41  1  0
 28 42  1  0
 29 43  1  0
M  END
>  <Binding energies>  (1) 
[-7.78]

>  <Ligand effiencies>  (1) 
[-0.25933333333333336]

>  <Interactions>  (1) 
["V-A:HIS:456:CE1:4068, V-A:HIS:456:CD2:4066, V-B:HIS:456:CE1:9042, V-B:GLY:544:C:9884, V-A:GLY:544:C:4910, V-B:HIS:456:CD2:9040, H-B:LYS:547:NZ:9923, V-B:GLU:543:C:9874, V-A:LYS:547:CE:4948, V-A:HIS:456:CG:4064, V-A:HIS:456:CB:4063, V-B:LYS:547:CE:9922, V-B:GLY:544:CA:9886, V-A:LYS:547:CD:4947, V-A:HIS:456:C:4059, V-A:TYR:484:CG:4340, V-A:LYS:547:CG:4946, V-A:LYS:471:CE:4218, V-A:TYR:484:CB:4339, V-A:ASP:473:CB:4237, V-A:HIS:456:CA:4061, V-A:ASP:473:CG:4238, V-A:ARG:545:CA:4917, V-B:HIS:456:CG:9038, V-A:VAL:457:C:4071, V-A:VAL:458:CG2:4085, H-B:GLY:544:N:9887, V-B:VAL:542:CG1:9871, V-A:LYS:547:CB:4945, V-A:LYS:471:CD:4217, V-A:LYS:471:CG:4216, V-B:LYS:547:CG:9920, V-B:LYS:547:CA:9917, V-A:ARG:545:C:4915, V-A:VAL:457:CA:4073, V-B:ILE:546:C:9906, V-A:VAL:458:CB:4083, V-A:VAL:458:CA:4081"]

$$$$
3af_Grossjean_2025
     RDKit          3D

 42 44  0  0  0  0  0  0  0  0999 V2000
  133.5630  124.6780   63.1590 N   0  0  0  0  0  0  0  0  0  0  0  0
  132.6530  124.4770   62.4730 C   0  0  0  0  0  0  0  0  0  0  0  0
  131.5010  124.2220   61.6040 C   0  0  0  0  0  0  0  0  0  0  0  0
  131.3990  123.0110   60.8780 C   0  0  0  0  0  0  0  0  0  0  0  0
  132.4430  121.8830   60.9880 C   0  0  0  0  0  0  0  0  0  0  0  0
  131.9980  120.7160   60.5160 F   0  0  0  0  0  0  0  0  0  0  0  0
  133.5370  122.2060   60.2970 F   0  0  0  0  0  0  0  0  0  0  0  0
  132.7780  121.6920   62.2650 F   0  0  0  0  0  0  0  0  0  0  0  0
  130.3050  122.8360   60.0160 C   0  0  0  0  0  0  0  0  0  0  0  0
  129.3420  123.8420   59.8830 C   0  0  0  0  0  0  0  0  0  0  0  0
  128.1640  123.7150   58.9630 C   0  0  0  0  0  0  0  0  0  0  0  0
  128.3280  123.2590   57.6460 C   0  0  0  0  0  0  0  0  0  0  0  0
  127.2380  123.1360   56.7880 C   0  0  0  0  0  0  0  0  0  0  0  0
  125.9660  123.4690   57.2390 C   0  0  0  0  0  0  0  0  0  0  0  0
  125.7750  123.9210   58.5410 C   0  0  0  0  0  0  0  0  0  0  0  0
  126.8680  124.0410   59.3950 C   0  0  0  0  0  0  0  0  0  0  0  0
  129.4460  125.0030   60.5780 N   0  0  0  0  0  0  0  0  0  0  0  0
  130.4820  125.1860   61.4330 C   0  0  0  0  0  0  0  0  0  0  0  0
  130.4400  126.7610   62.2640 S   0  0  0  0  0  0  0  0  0  0  0  0
  129.1660  127.7840   61.4670 C   0  0  0  0  0  0  0  0  0  0  0  0
  127.8670  127.8050   62.2720 C   0  0  0  0  0  0  0  0  0  0  0  0
  127.0990  126.8460   62.1940 O   0  0  0  0  0  0  0  0  0  0  0  0
  127.6650  128.9130   63.0170 N   0  0  0  0  0  0  0  0  0  0  0  0
  126.5840  129.2480   63.8550 C   0  0  0  0  0  0  0  0  0  0  0  0
  126.5590  129.1180   65.2560 C   0  0  0  0  0  0  0  0  0  0  0  0
  125.4140  129.4870   65.9640 C   0  0  0  0  0  0  0  0  0  0  0  0
  124.3180  129.9790   65.2540 C   0  0  0  0  0  0  0  0  0  0  0  0
  124.3170  130.1140   63.9050 N   0  0  0  0  0  0  0  0  0  0  0  0
  125.4370  129.7510   63.2310 C   0  0  0  0  0  0  0  0  0  0  0  0
  130.2044  121.9030   59.4421 H   0  0  0  0  0  0  0  0  0  0  0  0
  129.3332  122.9946   57.2858 H   0  0  0  0  0  0  0  0  0  0  0  0
  127.3829  122.7771   55.7584 H   0  0  0  0  0  0  0  0  0  0  0  0
  125.1043  123.3745   56.5618 H   0  0  0  0  0  0  0  0  0  0  0  0
  124.7663  124.1820   58.8936 H   0  0  0  0  0  0  0  0  0  0  0  0
  126.7141  124.3968   60.4244 H   0  0  0  0  0  0  0  0  0  0  0  0
  129.5432  128.8131   61.3734 H   0  0  0  0  0  0  0  0  0  0  0  0
  128.9486  127.3504   60.4797 H   0  0  0  0  0  0  0  0  0  0  0  0
  128.3930  129.6110   62.9820 H   0  0  0  0  0  0  0  0  0  0  0  0
  127.4375  128.7275   65.7906 H   0  0  0  0  0  0  0  0  0  0  0  0
  125.3764  129.3919   67.0592 H   0  0  0  0  0  0  0  0  0  0  0  0
  123.4162  130.2697   65.8128 H   0  0  0  0  0  0  0  0  0  0  0  0
  125.4438  129.8577   62.1362 H   0  0  0  0  0  0  0  0  0  0  0  0
  1  2  3  0
  2  3  1  0
  3  4  2  0
  4  5  1  0
  5  6  1  0
  5  7  1  0
  5  8  1  0
  4  9  1  0
  9 10  2  0
 10 11  1  0
 11 12  2  0
 12 13  1  0
 13 14  2  0
 14 15  1  0
 15 16  2  0
 10 17  1  0
 17 18  2  0
 18 19  1  0
 19 20  1  0
 20 21  1  0
 21 22  2  0
 21 23  1  0
 23 24  1  0
 24 25  2  0
 25 26  1  0
 26 27  2  0
 27 28  1  0
 28 29  2  0
 18  3  1  0
 29 24  1  0
 16 11  1  0
  9 30  1  0
 12 31  1  0
 13 32  1  0
 14 33  1  0
 15 34  1  0
 16 35  1  0
 20 36  1  0
 20 37  1  0
 23 38  1  0
 25 39  1  0
 26 40  1  0
 27 41  1  0
 29 42  1  0
M  END
>  <Binding energies>  (1) 
[-7.41]

>  <Ligand effiencies>  (1) 
[-0.247]

>  <Interactions>  (1) 
["V-B:ARG:545:CZ:9898, V-B:GLU:543:CD:9880, H-B:TYR:484:OH:9320, V-A:GLU:543:CD:4906, H-B:GLY:454:N:9022, V-B:HIS:456:CE1:9042, H-B:ARG:545:NE:9896, H-A:GLY:454:N:4048, V-A:ILE:369:CD1:3237, V-A:LEU:475:CD2:4257, V-A:TRP:381:CH2:3370, V-B:PRO:540:CA:9855, V-B:TYR:539:C:9839, V-A:GLY:454:CA:4047, V-B:PRO:540:CD:9859, V-B:TYR:539:CD2:9846, V-B:TYR:539:CE2:9848, V-A:ILE:369:CG2:3235, V-B:PRO:540:N:9856, V-B:PRO:540:CB:9857, H-B:ARG:545:NH2:9900, V-B:GLY:454:CA:9021, H-A:ARG:545:NH2:4926, H-A:GLU:543:OE2:4908, H-A:GLU:543:OE1:4907, V-B:ARG:545:CG:9894, V-B:ARG:545:CD:9895, H-B:ARG:545:NH1:9899"]

$$$$
3ag_Grossjean_2025
     RDKit          3D

 46 48  0  0  0  0  0  0  0  0999 V2000
  124.9990  123.4530   56.9240 N   0  0  0  0  0  0  0  0  0  0  0  0
  125.7890  123.4970   57.7680 C   0  0  0  0  0  0  0  0  0  0  0  0
  126.7870  123.5540   58.8410 C   0  0  0  0  0  0  0  0  0  0  0  0
  126.3930  123.7590   60.1860 C   0  0  0  0  0  0  0  0  0  0  0  0
  124.9170  123.8740   60.6120 C   0  0  0  0  0  0  0  0  0  0  0  0
  124.0690  123.6790   59.6000 F   0  0  0  0  0  0  0  0  0  0  0  0
  124.6430  122.9650   61.5480 F   0  0  0  0  0  0  0  0  0  0  0  0
  124.6740  125.0890   61.1050 F   0  0  0  0  0  0  0  0  0  0  0  0
  127.3900  123.8590   61.1690 C   0  0  0  0  0  0  0  0  0  0  0  0
  128.7410  123.7700   60.8170 C   0  0  0  0  0  0  0  0  0  0  0  0
  129.8450  123.8730   61.8250 C   0  0  0  0  0  0  0  0  0  0  0  0
  130.5990  125.0510   61.9450 C   0  0  0  0  0  0  0  0  0  0  0  0
  131.6270  125.1530   62.8780 C   0  0  0  0  0  0  0  0  0  0  0  0
  131.9160  124.0740   63.7070 C   0  0  0  0  0  0  0  0  0  0  0  0
  131.1860  122.8940   63.6070 C   0  0  0  0  0  0  0  0  0  0  0  0
  130.1600  122.7950   62.6710 C   0  0  0  0  0  0  0  0  0  0  0  0
  129.1140  123.5610   59.5280 N   0  0  0  0  0  0  0  0  0  0  0  0
  128.1680  123.4410   58.5650 C   0  0  0  0  0  0  0  0  0  0  0  0
  128.8380  123.1680   56.9400 S   0  0  0  0  0  0  0  0  0  0  0  0
  129.3960  124.7790   56.3070 C   0  0  0  0  0  0  0  0  0  0  0  0
  130.7650  125.1750   56.8620 C   0  0  0  0  0  0  0  0  0  0  0  0
  131.3540  126.1550   56.4020 O   0  0  0  0  0  0  0  0  0  0  0  0
  131.2520  124.4090   57.8540 N   0  0  0  0  0  0  0  0  0  0  0  0
  132.5190  124.6280   58.5510 C   0  0  0  0  0  0  0  0  0  0  0  0
  132.8170  123.5990   59.6360 C   0  0  0  0  0  0  0  0  0  0  0  0
  132.1310  122.3820   59.6470 C   0  0  0  0  0  0  0  0  0  0  0  0
  132.4220  121.4280   60.6190 C   0  0  0  0  0  0  0  0  0  0  0  0
  133.4040  121.6910   61.5710 C   0  0  0  0  0  0  0  0  0  0  0  0
  134.1030  122.8960   61.5570 C   0  0  0  0  0  0  0  0  0  0  0  0
  133.8130  123.8500   60.5850 C   0  0  0  0  0  0  0  0  0  0  0  0
  127.1075  124.0081   62.2216 H   0  0  0  0  0  0  0  0  0  0  0  0
  130.3740  125.9068   61.2916 H   0  0  0  0  0  0  0  0  0  0  0  0
  132.2085  126.0832   62.9594 H   0  0  0  0  0  0  0  0  0  0  0  0
  132.7267  124.1543   64.4461 H   0  0  0  0  0  0  0  0  0  0  0  0
  131.4183  122.0431   64.2643 H   0  0  0  0  0  0  0  0  0  0  0  0
  129.5872  121.8592   62.5922 H   0  0  0  0  0  0  0  0  0  0  0  0
  129.4603  124.7257   55.2102 H   0  0  0  0  0  0  0  0  0  0  0  0
  128.6685  125.5387   56.6289 H   0  0  0  0  0  0  0  0  0  0  0  0
  130.6970  123.6300   58.1770 H   0  0  0  0  0  0  0  0  0  0  0  0
  133.3314  124.5944   57.8102 H   0  0  0  0  0  0  0  0  0  0  0  0
  132.4417  125.6044   59.0516 H   0  0  0  0  0  0  0  0  0  0  0  0
  131.3613  122.1774   58.8882 H   0  0  0  0  0  0  0  0  0  0  0  0
  131.8790  120.4715   60.6348 H   0  0  0  0  0  0  0  0  0  0  0  0
  133.6300  120.9395   62.3419 H   0  0  0  0  0  0  0  0  0  0  0  0
  134.8802  123.0929   62.3101 H   0  0  0  0  0  0  0  0  0  0  0  0
  134.3668  124.8002   60.5637 H   0  0  0  0  0  0  0  0  0  0  0  0
  1  2  3  0
  2  3  1  0
  3  4  2  0
  4  5  1  0
  5  6  1  0
  5  7  1  0
  5  8  1  0
  4  9  1  0
  9 10  2  0
 10 11  1  0
 11 12  2  0
 12 13  1  0
 13 14  2  0
 14 15  1  0
 15 16  2  0
 10 17  1  0
 17 18  2  0
 18 19  1  0
 19 20  1  0
 20 21  1  0
 21 22  2  0
 21 23  1  0
 23 24  1  0
 24 25  1  0
 25 26  2  0
 26 27  1  0
 27 28  2  0
 28 29  1  0
 29 30  2  0
 18  3  1  0
 30 25  1  0
 16 11  1  0
  9 31  1  0
 12 32  1  0
 13 33  1  0
 14 34  1  0
 15 35  1  0
 16 36  1  0
 20 37  1  0
 20 38  1  0
 23 39  1  0
 24 40  1  0
 24 41  1  0
 26 42  1  0
 27 43  1  0
 28 44  1  0
 29 45  1  0
 30 46  1  0
M  END
>  <Binding energies>  (1) 
[-6.48]

>  <Ligand effiencies>  (1) 
[-0.20903225806451614]

>  <Interactions>  (1) 
["V-B:ARG:545:CZ:9898, V-B:GLU:543:CD:9880, V-A:TYR:484:CZ:4345, V-B:TYR:539:CZ:9849, V-B:PRO:540:C:9853, V-A:GLY:453:C:4040, V-A:ILE:369:CD1:3237, V-A:LEU:475:CD2:4257, V-B:PRO:540:CA:9855, V-B:TYR:539:C:9839, V-B:ALA:541:CA:9862, V-A:ASP:366:CG:3211, V-A:GLY:454:CA:4047, V-B:PRO:540:CD:9859, V-B:ALA:541:CB:9864, V-B:TYR:539:CD2:9846, V-B:TYR:539:CE2:9848, V-B:PRO:540:N:9856, V-B:PRO:540:CB:9857, V-A:ASP:366:CB:3210, H-A:TYR:531:OH:4793, V-B:ASP:366:CG:8185, V-B:ASN:362:C:8144, V-B:ASN:362:CB:8148, V-B:LEU:363:CA:8157, H-B:TYR:531:OH:9767, H-B:TYR:539:OH:9850, V-B:ALA:541:C:9860"]

$$$$
3ai_Grossjean_2025
     RDKit          3D

 39 41  0  0  0  0  0  0  0  0999 V2000
  133.9860  123.4610   58.1370 N   0  0  0  0  0  0  0  0  0  0  0  0
  132.8920  123.5110   58.5130 C   0  0  0  0  0  0  0  0  0  0  0  0
  131.5080  123.5750   58.9900 C   0  0  0  0  0  0  0  0  0  0  0  0
  131.0710  122.7520   60.0560 C   0  0  0  0  0  0  0  0  0  0  0  0
  132.0130  121.7880   60.8020 C   0  0  0  0  0  0  0  0  0  0  0  0
  133.1050  122.3930   61.2740 F   0  0  0  0  0  0  0  0  0  0  0  0
  131.3770  121.2410   61.8390 F   0  0  0  0  0  0  0  0  0  0  0  0
  132.4190  120.8170   59.9830 F   0  0  0  0  0  0  0  0  0  0  0  0
  129.7240  122.8150   60.4440 C   0  0  0  0  0  0  0  0  0  0  0  0
  128.8370  123.6730   59.7850 C   0  0  0  0  0  0  0  0  0  0  0  0
  127.3870  123.7730   60.1500 C   0  0  0  0  0  0  0  0  0  0  0  0
  126.9870  123.7950   61.4960 C   0  0  0  0  0  0  0  0  0  0  0  0
  125.6420  123.8930   61.8420 C   0  0  0  0  0  0  0  0  0  0  0  0
  124.6760  123.9710   60.8440 C   0  0  0  0  0  0  0  0  0  0  0  0
  125.0460  123.9540   59.5030 C   0  0  0  0  0  0  0  0  0  0  0  0
  126.3920  123.8570   59.1610 C   0  0  0  0  0  0  0  0  0  0  0  0
  129.2580  124.4540   58.7570 N   0  0  0  0  0  0  0  0  0  0  0  0
  130.5590  124.4280   58.3800 C   0  0  0  0  0  0  0  0  0  0  0  0
  130.9300  125.5330   57.0340 S   0  0  0  0  0  0  0  0  0  0  0  0
  131.4530  127.1290   57.7480 C   0  0  0  0  0  0  0  0  0  0  0  0
  130.6840  128.3540   57.2310 C   0  0  0  0  0  0  0  0  0  0  0  0
  129.6310  128.2190   56.6030 O   0  0  0  0  0  0  0  0  0  0  0  0
  131.2570  129.5440   57.5220 N   0  0  0  0  0  0  0  0  0  0  0  0
  130.7860  130.8080   57.1910 C   0  0  0  0  0  0  0  0  0  0  0  0
  129.5040  131.2530   57.5120 C   0  0  0  0  0  0  0  0  0  0  0  0
  129.4330  132.5320   57.0140 C   0  0  0  0  0  0  0  0  0  0  0  0
  130.6110  132.8440   56.4220 O   0  0  0  0  0  0  0  0  0  0  0  0
  131.4610  131.7430   56.5420 N   0  0  0  0  0  0  0  0  0  0  0  0
  129.3633  122.1860   61.2712 H   0  0  0  0  0  0  0  0  0  0  0  0
  127.7474  123.7339   62.2885 H   0  0  0  0  0  0  0  0  0  0  0  0
  125.3442  123.9087   62.9008 H   0  0  0  0  0  0  0  0  0  0  0  0
  123.6131  124.0466   61.1168 H   0  0  0  0  0  0  0  0  0  0  0  0
  124.2790  124.0169   58.7170 H   0  0  0  0  0  0  0  0  0  0  0  0
  126.6814  123.8459   58.0998 H   0  0  0  0  0  0  0  0  0  0  0  0
  131.3173  127.0760   58.8383 H   0  0  0  0  0  0  0  0  0  0  0  0
  132.5006  127.2730   57.4450 H   0  0  0  0  0  0  0  0  0  0  0  0
  132.1220  129.5260   58.0430 H   0  0  0  0  0  0  0  0  0  0  0  0
  128.7189  130.6997   58.0482 H   0  0  0  0  0  0  0  0  0  0  0  0
  128.5591  133.1964   57.0848 H   0  0  0  0  0  0  0  0  0  0  0  0
  1  2  3  0
  2  3  1  0
  3  4  2  0
  4  5  1  0
  5  6  1  0
  5  7  1  0
  5  8  1  0
  4  9  1  0
  9 10  2  0
 10 11  1  0
 11 12  2  0
 12 13  1  0
 13 14  2  0
 14 15  1  0
 15 16  2  0
 10 17  1  0
 17 18  2  0
 18 19  1  0
 19 20  1  0
 20 21  1  0
 21 22  2  0
 21 23  1  0
 23 24  1  0
 24 25  1  0
 25 26  2  0
 26 27  1  0
 27 28  1  0
 18  3  1  0
 28 24  2  0
 16 11  1  0
  9 29  1  0
 12 30  1  0
 13 31  1  0
 14 32  1  0
 15 33  1  0
 16 34  1  0
 20 35  1  0
 20 36  1  0
 23 37  1  0
 25 38  1  0
 26 39  1  0
M  END
>  <Binding energies>  (1) 
[-7.17]

>  <Ligand effiencies>  (1) 
[-0.24724137931034482]

>  <Interactions>  (1) 
["V-B:GLU:543:CD:9880, V-B:TYR:539:CZ:9849, V-A:ILE:369:CD1:3237, V-A:LEU:475:CD2:4257, V-A:TRP:381:CH2:3370, V-B:PRO:540:CA:9855, V-A:ASP:366:CG:3211, V-B:ALA:541:CB:9864, V-B:TYR:539:CD2:9846, V-B:TYR:539:CE2:9848, V-A:ILE:369:CG2:3235, V-B:PRO:540:N:9856, V-B:PRO:540:CB:9857, V-A:ASP:366:CB:3210, H-A:TYR:531:OH:4793, V-A:PRO:540:N:4882, V-B:ASN:362:CB:8148, V-A:TYR:539:C:4865, V-A:TYR:539:CD2:4872, H-A:TYR:539:N:4868, V-A:TYR:539:CD1:4871, V-A:TYR:539:CG:4870, H-B:TYR:539:OH:9850, V-A:TYR:539:CA:4867, H-A:ASP:366:OD2:3213"]

$$$$
3aj_Grossjean_2025
     RDKit          3D

 39 41  0  0  0  0  0  0  0  0999 V2000
  134.0360  122.7170   75.7370 N   0  0  0  0  0  0  0  0  0  0  0  0
  133.3270  123.3740   75.1000 C   0  0  0  0  0  0  0  0  0  0  0  0
  132.4320  124.2070   74.2920 C   0  0  0  0  0  0  0  0  0  0  0  0
  132.8390  125.4900   73.8510 C   0  0  0  0  0  0  0  0  0  0  0  0
  134.2370  126.0660   74.1460 C   0  0  0  0  0  0  0  0  0  0  0  0
  134.8530  126.5150   73.0500 F   0  0  0  0  0  0  0  0  0  0  0  0
  134.1400  127.0850   75.0000 F   0  0  0  0  0  0  0  0  0  0  0  0
  135.0150  125.1250   74.6830 F   0  0  0  0  0  0  0  0  0  0  0  0
  131.9270  126.2680   73.1210 C   0  0  0  0  0  0  0  0  0  0  0  0
  130.6450  125.7810   72.8430 C   0  0  0  0  0  0  0  0  0  0  0  0
  129.6300  126.5740   72.0770 C   0  0  0  0  0  0  0  0  0  0  0  0
  129.6830  126.6410   70.6770 C   0  0  0  0  0  0  0  0  0  0  0  0
  128.7410  127.3730   69.9580 C   0  0  0  0  0  0  0  0  0  0  0  0
  127.7300  128.0490   70.6340 C   0  0  0  0  0  0  0  0  0  0  0  0
  127.6550  127.9970   72.0220 C   0  0  0  0  0  0  0  0  0  0  0  0
  128.5980  127.2630   72.7360 C   0  0  0  0  0  0  0  0  0  0  0  0
  130.2570  124.5540   73.2750 N   0  0  0  0  0  0  0  0  0  0  0  0
  131.1270  123.7750   73.9610 C   0  0  0  0  0  0  0  0  0  0  0  0
  130.4520  122.1940   74.4240 S   0  0  0  0  0  0  0  0  0  0  0  0
  130.2510  121.2050   72.9030 C   0  0  0  0  0  0  0  0  0  0  0  0
  128.8510  120.6090   72.6970 C   0  0  0  0  0  0  0  0  0  0  0  0
  128.7080  119.4190   72.4060 O   0  0  0  0  0  0  0  0  0  0  0  0
  127.8350  121.4850   72.8610 N   0  0  0  0  0  0  0  0  0  0  0  0
  126.4780  121.2130   72.7410 C   0  0  0  0  0  0  0  0  0  0  0  0
  125.5300  121.4300   73.6260 N   0  0  0  0  0  0  0  0  0  0  0  0
  124.3490  121.0520   73.1760 C   0  0  0  0  0  0  0  0  0  0  0  0
  124.3250  120.5120   71.8930 C   0  0  0  0  0  0  0  0  0  0  0  0
  125.9400  120.5010   71.2530 S   0  0  0  0  0  0  0  0  0  0  0  0
  132.2217  127.2663   72.7654 H   0  0  0  0  0  0  0  0  0  0  0  0
  130.4804  126.1075   70.1388 H   0  0  0  0  0  0  0  0  0  0  0  0
  128.7961  127.4165   68.8602 H   0  0  0  0  0  0  0  0  0  0  0  0
  126.9857  128.6279   70.0675 H   0  0  0  0  0  0  0  0  0  0  0  0
  126.8545  128.5332   72.5528 H   0  0  0  0  0  0  0  0  0  0  0  0
  128.5342  127.2218   73.8334 H   0  0  0  0  0  0  0  0  0  0  0  0
  130.4763  121.8524   72.0427 H   0  0  0  0  0  0  0  0  0  0  0  0
  130.9377  120.3510   72.9985 H   0  0  0  0  0  0  0  0  0  0  0  0
  128.0730  122.4350   73.1050 H   0  0  0  0  0  0  0  0  0  0  0  0
  123.4356  121.1574   73.7798 H   0  0  0  0  0  0  0  0  0  0  0  0
  123.4279  120.1505   71.3690 H   0  0  0  0  0  0  0  0  0  0  0  0
  1  2  3  0
  2  3  1  0
  3  4  2  0
  4  5  1  0
  5  6  1  0
  5  7  1  0
  5  8  1  0
  4  9  1  0
  9 10  2  0
 10 11  1  0
 11 12  2  0
 12 13  1  0
 13 14  2  0
 14 15  1  0
 15 16  2  0
 10 17  1  0
 17 18  2  0
 18 19  1  0
 19 20  1  0
 20 21  1  0
 21 22  2  0
 21 23  1  0
 23 24  1  0
 24 25  2  0
 25 26  1  0
 26 27  2  0
 27 28  1  0
 18  3  1  0
 28 24  1  0
 16 11  1  0
  9 29  1  0
 12 30  1  0
 13 31  1  0
 14 32  1  0
 15 33  1  0
 16 34  1  0
 20 35  1  0
 20 36  1  0
 23 37  1  0
 26 38  1  0
 27 39  1  0
M  END
>  <Binding energies>  (1) 
[-6.99]

>  <Ligand effiencies>  (1) 
[-0.2410344827586207]

>  <Interactions>  (1) 
["V-A:HIS:456:CE1:4068, V-A:HIS:456:CD2:4066, V-B:HIS:456:CE1:9042, V-B:GLY:544:C:9884, V-A:GLY:544:C:4910, V-B:HIS:456:CD2:9040, H-B:LYS:547:NZ:9923, V-B:GLU:543:C:9874, V-A:LYS:547:CE:4948, V-A:HIS:456:CG:4064, V-A:HIS:456:CB:4063, V-B:LYS:547:CE:9922, V-B:GLY:544:CA:9886, V-A:LYS:547:CD:4947, V-A:HIS:456:C:4059, V-A:TYR:484:CG:4340, V-A:LYS:547:CG:4946, V-A:LYS:471:CE:4218, V-A:TYR:484:CB:4339, V-A:HIS:456:CA:4061, V-A:ASP:473:CG:4238, V-A:ARG:545:CA:4917, V-B:HIS:456:CG:9038, V-A:VAL:457:C:4071, V-A:VAL:458:CG2:4085, V-B:VAL:542:CG1:9871, V-B:VAL:542:C:9866, V-A:LYS:547:CB:4945, V-A:LYS:471:CD:4217, V-A:LYS:471:CG:4216, V-A:ARG:545:C:4915, V-A:VAL:457:CA:4073"]

$$$$
3ak_Grossjean_2025
     RDKit          3D

 57 58  0  0  0  0  0  0  0  0999 V2000
  126.8690  128.7260   73.3270 C   0  0  0  0  0  0  0  0  0  0  0  0
  128.2510  129.0430   73.2800 O   0  0  0  0  0  0  0  0  0  0  0  0
  128.8430  128.8010   72.0120 C   0  0  0  0  0  0  0  0  0  0  0  0
  128.0280  127.7300   71.2760 C   0  0  0  0  0  0  0  0  0  0  0  0
  128.5840  127.5350   69.9790 O   0  0  0  0  0  0  0  0  0  0  0  0
  129.9810  127.2560   69.9450 C   0  0  0  0  0  0  0  0  0  0  0  0
  130.6530  127.6220   68.6090 C   0  0  0  0  0  0  0  0  0  0  0  0
  129.6720  128.1300   67.7160 O   0  0  0  0  0  0  0  0  0  0  0  0
  129.1440  127.1560   66.8250 C   0  0  0  0  0  0  0  0  0  0  0  0
  129.8800  125.8160   67.0060 C   0  0  0  0  0  0  0  0  0  0  0  0
  130.4220  125.2720   65.7590 N   0  0  0  0  0  0  0  0  0  0  0  0
  131.7050  125.3470   65.3570 C   0  0  0  0  0  0  0  0  0  0  0  0
  132.5850  125.8850   66.0300 O   0  0  0  0  0  0  0  0  0  0  0  0
  132.0930  124.7360   64.0000 C   0  0  0  0  0  0  0  0  0  0  0  0
  131.0810  123.3250   63.4190 S   0  0  0  0  0  0  0  0  0  0  0  0
  130.4750  123.6900   61.7790 C   0  0  0  0  0  0  0  0  0  0  0  0
  129.1260  123.6910   61.6400 N   0  0  0  0  0  0  0  0  0  0  0  0
  128.5700  123.9510   60.4290 C   0  0  0  0  0  0  0  0  0  0  0  0
  127.0710  123.9320   60.3660 C   0  0  0  0  0  0  0  0  0  0  0  0
  126.3040  123.8860   61.5400 C   0  0  0  0  0  0  0  0  0  0  0  0
  124.9120  123.8720   61.4870 C   0  0  0  0  0  0  0  0  0  0  0  0
  124.2680  123.9060   60.2550 C   0  0  0  0  0  0  0  0  0  0  0  0
  125.0050  123.9560   59.0770 C   0  0  0  0  0  0  0  0  0  0  0  0
  126.3960  123.9700   59.1330 C   0  0  0  0  0  0  0  0  0  0  0  0
  129.3710  124.2370   59.3190 C   0  0  0  0  0  0  0  0  0  0  0  0
  130.7680  124.2450   59.4360 C   0  0  0  0  0  0  0  0  0  0  0  0
  131.6170  124.5620   58.1890 C   0  0  0  0  0  0  0  0  0  0  0  0
  132.6690  123.7450   58.1330 F   0  0  0  0  0  0  0  0  0  0  0  0
  130.8860  124.4020   57.0850 F   0  0  0  0  0  0  0  0  0  0  0  0
  132.0810  125.8140   58.1840 F   0  0  0  0  0  0  0  0  0  0  0  0
  131.3420  123.9620   60.6990 C   0  0  0  0  0  0  0  0  0  0  0  0
  132.7970  123.9560   60.8810 C   0  0  0  0  0  0  0  0  0  0  0  0
  133.9460  123.9490   61.0240 N   0  0  0  0  0  0  0  0  0  0  0  0
  126.5453  128.6518   74.3757 H   0  0  0  0  0  0  0  0  0  0  0  0
  126.2943  129.5156   72.8209 H   0  0  0  0  0  0  0  0  0  0  0  0
  126.6959  127.7648   72.8209 H   0  0  0  0  0  0  0  0  0  0  0  0
  128.8471  129.7304   71.4236 H   0  0  0  0  0  0  0  0  0  0  0  0
  129.8781  128.4535   72.1456 H   0  0  0  0  0  0  0  0  0  0  0  0
  128.0656  126.7859   71.8393 H   0  0  0  0  0  0  0  0  0  0  0  0
  126.9810  128.0553   71.1868 H   0  0  0  0  0  0  0  0  0  0  0  0
  130.4691  127.8285   70.7475 H   0  0  0  0  0  0  0  0  0  0  0  0
  130.0951  126.1697   70.0752 H   0  0  0  0  0  0  0  0  0  0  0  0
  131.4239  128.3872   68.7825 H   0  0  0  0  0  0  0  0  0  0  0  0
  131.1208  126.7268   68.1734 H   0  0  0  0  0  0  0  0  0  0  0  0
  128.0736  127.0139   67.0347 H   0  0  0  0  0  0  0  0  0  0  0  0
  129.2808  127.5040   65.7905 H   0  0  0  0  0  0  0  0  0  0  0  0
  130.7118  125.9683   67.7096 H   0  0  0  0  0  0  0  0  0  0  0  0
  129.1426  125.0909   67.3808 H   0  0  0  0  0  0  0  0  0  0  0  0
  129.7630  124.7960   65.1600 H   0  0  0  0  0  0  0  0  0  0  0  0
  132.0230  125.5313   63.2433 H   0  0  0  0  0  0  0  0  0  0  0  0
  133.1048  124.3287   64.1431 H   0  0  0  0  0  0  0  0  0  0  0  0
  126.8093  123.8606   62.5167 H   0  0  0  0  0  0  0  0  0  0  0  0
  124.3245  123.8342   62.4162 H   0  0  0  0  0  0  0  0  0  0  0  0
  123.1689  123.8933   60.2121 H   0  0  0  0  0  0  0  0  0  0  0  0
  124.4911  123.9844   58.1048 H   0  0  0  0  0  0  0  0  0  0  0  0
  126.9756  124.0114   58.1990 H   0  0  0  0  0  0  0  0  0  0  0  0
  128.9023  124.4570   58.3485 H   0  0  0  0  0  0  0  0  0  0  0  0
  1  2  1  0
  2  3  1  0
  3  4  1  0
  4  5  1  0
  5  6  1  0
  6  7  1  0
  7  8  1  0
  8  9  1  0
  9 10  1  0
 10 11  1  0
 11 12  1  0
 12 13  2  0
 12 14  1  0
 14 15  1  0
 15 16  1  0
 16 17  2  0
 17 18  1  0
 18 19  1  0
 19 20  2  0
 20 21  1  0
 21 22  2  0
 22 23  1  0
 23 24  2  0
 18 25  2  0
 25 26  1  0
 26 27  1  0
 27 28  1  0
 27 29  1  0
 27 30  1  0
 26 31  2  0
 31 32  1  0
 32 33  3  0
 31 16  1  0
 24 19  1  0
  1 34  1  0
  1 35  1  0
  1 36  1  0
  3 37  1  0
  3 38  1  0
  4 39  1  0
  4 40  1  0
  6 41  1  0
  6 42  1  0
  7 43  1  0
  7 44  1  0
  9 45  1  0
  9 46  1  0
 10 47  1  0
 10 48  1  0
 11 49  1  0
 14 50  1  0
 14 51  1  0
 20 52  1  0
 21 53  1  0
 22 54  1  0
 23 55  1  0
 24 56  1  0
 25 57  1  0
M  END
>  <Binding energies>  (1) 
[-6.09]

>  <Ligand effiencies>  (1) 
[-0.17911764705882352]

>  <Interactions>  (1) 
["V-B:GLU:543:CB:9878, V-A:HIS:456:CE1:4068, V-B:GLU:543:CD:9880, V-A:GLU:543:CD:4906, V-B:HIS:456:CE1:9042, V-A:GLY:544:CA:4912, H-A:LYS:547:NZ:4949, V-B:GLY:544:C:9884, V-A:GLY:544:C:4910, V-B:HIS:456:CD2:9040, V-B:GLU:543:CG:9879, V-A:GLU:543:CG:4905, V-A:ARG:545:CG:4920, V-A:LYS:547:CE:4948, H-A:TYR:484:OH:4346, H-B:GLU:543:OE1:9881, H-A:ARG:545:NE:4922, V-A:GLU:543:C:4900, V-B:TYR:539:CZ:9849, V-B:PRO:540:CA:9855, V-A:ASP:366:CG:3211, V-B:TYR:539:CE1:9847, V-B:TYR:539:CE2:9848, V-B:PRO:540:N:9856, V-B:PRO:540:CB:9857, V-A:ASP:366:CB:3210, V-B:ASN:362:C:8144, V-B:ASN:362:CB:8148, V-B:HIS:456:CG:9038, H-B:GLU:543:OE2:9882, V-B:HIS:456:CB:9037"]

$$$$
3bc_Grossjean_2025
     RDKit          3D

 47 49  0  0  0  0  0  0  0  0999 V2000
  127.0280  128.6840   73.8040 C   0  0  0  0  0  0  0  0  0  0  0  0
  128.3970  128.5600   73.4340 O   0  0  0  0  0  0  0  0  0  0  0  0
  128.7130  128.1060   72.1670 C   0  0  0  0  0  0  0  0  0  0  0  0
  127.6610  128.0240   71.2550 C   0  0  0  0  0  0  0  0  0  0  0  0
  127.8820  127.5780   69.9550 C   0  0  0  0  0  0  0  0  0  0  0  0
  129.1630  127.1980   69.5510 C   0  0  0  0  0  0  0  0  0  0  0  0
  129.2910  126.7720   68.2150 N   0  0  0  0  0  0  0  0  0  0  0  0
  130.2940  127.0000   67.3410 C   0  0  0  0  0  0  0  0  0  0  0  0
  131.3270  127.6190   67.6040 O   0  0  0  0  0  0  0  0  0  0  0  0
  130.0860  126.3830   65.9500 C   0  0  0  0  0  0  0  0  0  0  0  0
  130.6590  124.6600   65.7720 S   0  0  0  0  0  0  0  0  0  0  0  0
  131.3500  124.4820   64.1430 C   0  0  0  0  0  0  0  0  0  0  0  0
  130.4290  124.2100   63.1860 N   0  0  0  0  0  0  0  0  0  0  0  0
  130.8210  124.0520   61.8950 C   0  0  0  0  0  0  0  0  0  0  0  0
  129.7440  123.7320   60.9020 C   0  0  0  0  0  0  0  0  0  0  0  0
  128.3900  123.7990   61.2660 C   0  0  0  0  0  0  0  0  0  0  0  0
  127.3850  123.5040   60.3490 C   0  0  0  0  0  0  0  0  0  0  0  0
  127.7220  123.1340   59.0510 C   0  0  0  0  0  0  0  0  0  0  0  0
  129.0560  123.0570   58.6650 C   0  0  0  0  0  0  0  0  0  0  0  0
  130.0580  123.3520   59.5860 C   0  0  0  0  0  0  0  0  0  0  0  0
  132.1680  124.1650   61.5340 C   0  0  0  0  0  0  0  0  0  0  0  0
  133.1280  124.4680   62.5050 C   0  0  0  0  0  0  0  0  0  0  0  0
  134.5840  124.5990   62.0630 C   0  0  0  0  0  0  0  0  0  0  0  0
  132.7230  124.6440   63.8460 C   0  0  0  0  0  0  0  0  0  0  0  0
  133.7030  125.0100   64.8710 C   0  0  0  0  0  0  0  0  0  0  0  0
  134.4800  125.2980   65.6790 N   0  0  0  0  0  0  0  0  0  0  0  0
  130.2290  127.2890   70.4570 C   0  0  0  0  0  0  0  0  0  0  0  0
  130.0030  127.7360   71.7570 C   0  0  0  0  0  0  0  0  0  0  0  0
  126.9438  128.6916   74.9007 H   0  0  0  0  0  0  0  0  0  0  0  0
  126.6222  129.6226   73.3986 H   0  0  0  0  0  0  0  0  0  0  0  0
  126.4601  127.8336   73.3986 H   0  0  0  0  0  0  0  0  0  0  0  0
  126.6467  128.3146   71.5660 H   0  0  0  0  0  0  0  0  0  0  0  0
  127.0445  127.5248   69.2438 H   0  0  0  0  0  0  0  0  0  0  0  0
  128.5490  126.1640   67.8980 H   0  0  0  0  0  0  0  0  0  0  0  0
  129.0099  126.4091   65.7234 H   0  0  0  0  0  0  0  0  0  0  0  0
  130.6952  126.9809   65.2562 H   0  0  0  0  0  0  0  0  0  0  0  0
  128.1188  124.0891   62.2918 H   0  0  0  0  0  0  0  0  0  0  0  0
  126.3285  123.5632   60.6496 H   0  0  0  0  0  0  0  0  0  0  0  0
  126.9287  122.9009   58.3256 H   0  0  0  0  0  0  0  0  0  0  0  0
  129.3182  122.7646   57.6375 H   0  0  0  0  0  0  0  0  0  0  0  0
  131.1121  123.2865   59.2785 H   0  0  0  0  0  0  0  0  0  0  0  0
  132.4718  124.0157   60.4874 H   0  0  0  0  0  0  0  0  0  0  0  0
  135.2325  124.6573   62.9496 H   0  0  0  0  0  0  0  0  0  0  0  0
  134.8646  123.7225   61.4605 H   0  0  0  0  0  0  0  0  0  0  0  0
  134.7036  125.5115   61.4605 H   0  0  0  0  0  0  0  0  0  0  0  0
  131.2444  127.0073   70.1413 H   0  0  0  0  0  0  0  0  0  0  0  0
  130.8411  127.7993   72.4666 H   0  0  0  0  0  0  0  0  0  0  0  0
  1  2  1  0
  2  3  1  0
  3  4  2  0
  4  5  1  0
  5  6  2  0
  6  7  1  0
  7  8  1  0
  8  9  2  0
  8 10  1  0
 10 11  1  0
 11 12  1  0
 12 13  2  0
 13 14  1  0
 14 15  1  0
 15 16  2  0
 16 17  1  0
 17 18  2  0
 18 19  1  0
 19 20  2  0
 14 21  2  0
 21 22  1  0
 22 23  1  0
 22 24  2  0
 24 25  1  0
 25 26  3  0
  6 27  1  0
 27 28  2  0
 28  3  1  0
 24 12  1  0
 20 15  1  0
  1 29  1  0
  1 30  1  0
  1 31  1  0
  4 32  1  0
  5 33  1  0
  7 34  1  0
 10 35  1  0
 10 36  1  0
 16 37  1  0
 17 38  1  0
 18 39  1  0
 19 40  1  0
 20 41  1  0
 21 42  1  0
 23 43  1  0
 23 44  1  0
 23 45  1  0
 27 46  1  0
 28 47  1  0
M  END
>  <Binding energies>  (1) 
[-8.36]

>  <Ligand effiencies>  (1) 
[-0.2882758620689655]

>  <Interactions>  (1) 
["V-B:GLU:543:CB:9878, V-A:HIS:456:CE1:4068, V-A:HIS:456:CD2:4066, V-B:GLU:543:CD:9880, H-A:HIS:456:NE2:4069, V-A:GLU:543:CD:4906, V-B:HIS:456:CE1:9042, V-A:GLY:544:CA:4912, H-A:LYS:547:NZ:4949, V-B:GLY:544:C:9884, V-A:GLY:544:C:4910, H-B:GLU:543:O:9875, V-B:HIS:456:CD2:9040, V-B:GLU:543:CG:9879, V-A:GLU:543:CG:4905, H-A:GLY:454:N:4048, V-B:GLU:543:C:9874, V-A:ARG:545:CZ:4924, V-A:ARG:545:CG:4920, V-A:LYS:547:CE:4948, H-A:TYR:484:OH:4346, V-A:ARG:545:CD:4921, H-A:ARG:545:NE:4922, V-A:GLY:453:C:4040, V-A:ILE:369:CD1:3237, V-B:PRO:540:CA:9855, V-A:GLY:453:CA:4042, V-B:TYR:539:C:9839, V-A:GLY:454:CA:4047, V-B:ALA:541:CB:9864, V-B:TYR:539:CD2:9846, V-B:TYR:539:CE2:9848, V-B:PRO:540:N:9856, V-B:HIS:456:CG:9038, H-B:GLU:543:OE2:9882, V-B:HIS:456:CB:9037"]

$$$$
3bd_Grossjean_2025
     RDKit          3D

 43 45  0  0  0  0  0  0  0  0999 V2000
  133.3570  123.1760   75.0850 C   0  0  0  0  0  0  0  0  0  0  0  0
  132.1720  123.6830   74.2650 C   0  0  0  0  0  0  0  0  0  0  0  0
  131.1860  122.7650   73.8880 C   0  0  0  0  0  0  0  0  0  0  0  0
  130.0870  123.1900   73.1330 C   0  0  0  0  0  0  0  0  0  0  0  0
  128.9920  122.2600   72.7000 C   0  0  0  0  0  0  0  0  0  0  0  0
  127.9160  121.9720   73.5540 C   0  0  0  0  0  0  0  0  0  0  0  0
  126.8980  121.1080   73.1590 C   0  0  0  0  0  0  0  0  0  0  0  0
  126.9440  120.5170   71.9000 C   0  0  0  0  0  0  0  0  0  0  0  0
  128.0010  120.7830   71.0370 C   0  0  0  0  0  0  0  0  0  0  0  0
  129.0170  121.6470   71.4360 C   0  0  0  0  0  0  0  0  0  0  0  0
  129.9540  124.4920   72.7700 N   0  0  0  0  0  0  0  0  0  0  0  0
  130.9020  125.3970   73.1260 C   0  0  0  0  0  0  0  0  0  0  0  0
  130.6170  127.0720   72.5780 S   0  0  0  0  0  0  0  0  0  0  0  0
  128.8710  127.2170   72.0940 C   0  0  0  0  0  0  0  0  0  0  0  0
  128.1720  128.3730   72.8100 C   0  0  0  0  0  0  0  0  0  0  0  0
  128.6710  129.4980   72.7580 O   0  0  0  0  0  0  0  0  0  0  0  0
  127.0380  128.0530   73.4710 N   0  0  0  0  0  0  0  0  0  0  0  0
  126.1670  128.8910   74.1930 C   0  0  0  0  0  0  0  0  0  0  0  0
  126.7340  130.0490   74.7300 C   0  0  0  0  0  0  0  0  0  0  0  0
  125.9520  130.9350   75.4680 C   0  0  0  0  0  0  0  0  0  0  0  0
  124.6050  130.6570   75.6770 C   0  0  0  0  0  0  0  0  0  0  0  0
  124.0310  129.4980   75.1580 C   0  0  0  0  0  0  0  0  0  0  0  0
  124.8100  128.6110   74.4190 C   0  0  0  0  0  0  0  0  0  0  0  0
  132.0390  125.0350   73.8790 C   0  0  0  0  0  0  0  0  0  0  0  0
  133.0550  126.0210   74.2590 C   0  0  0  0  0  0  0  0  0  0  0  0
  133.8560  126.8000   74.5610 N   0  0  0  0  0  0  0  0  0  0  0  0
  133.1296  123.2733   76.1568 H   0  0  0  0  0  0  0  0  0  0  0  0
  133.5440  122.1191   74.8443 H   0  0  0  0  0  0  0  0  0  0  0  0
  134.2506  123.7706   74.8443 H   0  0  0  0  0  0  0  0  0  0  0  0
  131.2745  121.7095   74.1849 H   0  0  0  0  0  0  0  0  0  0  0  0
  127.8763  122.4359   74.5506 H   0  0  0  0  0  0  0  0  0  0  0  0
  126.0608  120.8935   73.8394 H   0  0  0  0  0  0  0  0  0  0  0  0
  126.1396  119.8356   71.5859 H   0  0  0  0  0  0  0  0  0  0  0  0
  128.0344  120.3128   70.0431 H   0  0  0  0  0  0  0  0  0  0  0  0
  129.8526  121.8530   70.7509 H   0  0  0  0  0  0  0  0  0  0  0  0
  128.8163  127.3866   71.0085 H   0  0  0  0  0  0  0  0  0  0  0  0
  128.3614  126.2842   72.3773 H   0  0  0  0  0  0  0  0  0  0  0  0
  126.8000  127.0720   73.5030 H   0  0  0  0  0  0  0  0  0  0  0  0
  127.8012  130.2621   74.5698 H   0  0  0  0  0  0  0  0  0  0  0  0
  126.3979  131.8506   75.8837 H   0  0  0  0  0  0  0  0  0  0  0  0
  123.9874  131.3584   76.2572 H   0  0  0  0  0  0  0  0  0  0  0  0
  122.9660  129.2844   75.3315 H   0  0  0  0  0  0  0  0  0  0  0  0
  124.3624  127.6919   74.0128 H   0  0  0  0  0  0  0  0  0  0  0  0
  1  2  1  0
  2  3  2  0
  3  4  1  0
  4  5  1  0
  5  6  2  0
  6  7  1  0
  7  8  2  0
  8  9  1  0
  9 10  2  0
  4 11  2  0
 11 12  1  0
 12 13  1  0
 13 14  1  0
 14 15  1  0
 15 16  2  0
 15 17  1  0
 17 18  1  0
 18 19  2  0
 19 20  1  0
 20 21  2  0
 21 22  1  0
 22 23  2  0
 12 24  2  0
 24 25  1  0
 25 26  3  0
 24  2  1  0
 10  5  1  0
 23 18  1  0
  1 27  1  0
  1 28  1  0
  1 29  1  0
  3 30  1  0
  6 31  1  0
  7 32  1  0
  8 33  1  0
  9 34  1  0
 10 35  1  0
 14 36  1  0
 14 37  1  0
 17 38  1  0
 19 39  1  0
 20 40  1  0
 21 41  1  0
 22 42  1  0
 23 43  1  0
M  END
>  <Binding energies>  (1) 
[-9.8]

>  <Ligand effiencies>  (1) 
[-0.362962962962963]

>  <Interactions>  (1) 
["H-B:GLY:544:O:9885, V-A:HIS:456:CD2:4066, H-A:LYS:547:NZ:4949, V-B:GLY:544:C:9884, V-B:HIS:456:CD2:9040, H-B:LYS:547:NZ:9923, V-B:GLU:543:C:9874, V-A:LYS:547:CE:4948, V-A:HIS:456:CG:4064, V-A:HIS:456:CB:4063, V-B:LYS:547:CE:9922, V-B:GLY:544:CA:9886, V-A:HIS:456:C:4059, V-A:TYR:484:CG:4340, V-A:LYS:471:CE:4218, V-A:TYR:484:CB:4339, V-B:GLU:543:CA:9876, V-A:ASP:473:CG:4238, V-A:TYR:484:CD1:4341, V-B:HIS:456:CG:9038, V-A:VAL:458:CG2:4085, V-B:HIS:456:CB:9037, V-A:LYS:471:CD:4217, V-A:LYS:471:CG:4216, V-B:VAL:458:CG2:9059, V-B:HIS:456:C:9033, V-B:HIS:456:CA:9035, V-B:VAL:457:C:9045, V-B:LYS:471:CE:9192, V-B:LYS:471:CG:9190, V-B:LYS:471:CD:9191, V-B:VAL:457:CA:9047"]

$$$$
3be_Grossjean_2025
     RDKit          3D

 45 47  0  0  0  0  0  0  0  0999 V2000
  133.5710  123.8410   60.2320 C   0  0  0  0  0  0  0  0  0  0  0  0
  132.9520  124.4020   61.4970 C   0  0  0  0  0  0  0  0  0  0  0  0
  133.6210  124.3560   62.7220 C   0  0  0  0  0  0  0  0  0  0  0  0
  132.9890  124.8890   63.8450 C   0  0  0  0  0  0  0  0  0  0  0  0
  131.7160  125.4520   63.7180 C   0  0  0  0  0  0  0  0  0  0  0  0
  131.1030  125.4690   62.4600 C   0  0  0  0  0  0  0  0  0  0  0  0
  129.8180  126.0400   62.4000 N   0  0  0  0  0  0  0  0  0  0  0  0
  129.4710  127.3150   62.1210 C   0  0  0  0  0  0  0  0  0  0  0  0
  130.2700  128.2190   61.8700 O   0  0  0  0  0  0  0  0  0  0  0  0
  127.9580  127.5870   62.1320 C   0  0  0  0  0  0  0  0  0  0  0  0
  127.2880  128.3100   60.5970 S   0  0  0  0  0  0  0  0  0  0  0  0
  127.8550  129.9930   60.4840 C   0  0  0  0  0  0  0  0  0  0  0  0
  128.9100  130.1560   59.6480 N   0  0  0  0  0  0  0  0  0  0  0  0
  129.4430  131.3930   59.4640 C   0  0  0  0  0  0  0  0  0  0  0  0
  130.6170  131.4850   58.5340 C   0  0  0  0  0  0  0  0  0  0  0  0
  130.4800  132.0630   57.2620 C   0  0  0  0  0  0  0  0  0  0  0  0
  131.5640  132.1500   56.3930 C   0  0  0  0  0  0  0  0  0  0  0  0
  132.8040  131.6560   56.7850 C   0  0  0  0  0  0  0  0  0  0  0  0
  132.9660  131.0770   58.0380 C   0  0  0  0  0  0  0  0  0  0  0  0
  131.8790  130.9910   58.9040 C   0  0  0  0  0  0  0  0  0  0  0  0
  128.9210  132.5060   60.1310 C   0  0  0  0  0  0  0  0  0  0  0  0
  127.8180  132.3580   60.9780 C   0  0  0  0  0  0  0  0  0  0  0  0
  127.2700  133.6050   61.6710 C   0  0  0  0  0  0  0  0  0  0  0  0
  127.2530  131.0780   61.1600 C   0  0  0  0  0  0  0  0  0  0  0  0
  126.0650  130.9100   62.0000 C   0  0  0  0  0  0  0  0  0  0  0  0
  125.1250  130.7800   62.6640 N   0  0  0  0  0  0  0  0  0  0  0  0
  131.7150  124.9460   61.3580 N   0  0  0  0  0  0  0  0  0  0  0  0
  134.3620  123.1242   60.4975 H   0  0  0  0  0  0  0  0  0  0  0  0
  132.7970  123.3304   59.6403 H   0  0  0  0  0  0  0  0  0  0  0  0
  134.0032  124.6614   59.6403 H   0  0  0  0  0  0  0  0  0  0  0  0
  134.6234  123.9096   62.7993 H   0  0  0  0  0  0  0  0  0  0  0  0
  133.4891  124.8665   64.8245 H   0  0  0  0  0  0  0  0  0  0  0  0
  131.2034  125.8756   64.5942 H   0  0  0  0  0  0  0  0  0  0  0  0
  129.0650  125.4050   62.6230 H   0  0  0  0  0  0  0  0  0  0  0  0
  127.4419  126.6325   62.3122 H   0  0  0  0  0  0  0  0  0  0  0  0
  127.7878  128.3342   62.9212 H   0  0  0  0  0  0  0  0  0  0  0  0
  129.5009  132.4532   56.9471 H   0  0  0  0  0  0  0  0  0  0  0  0
  131.4406  132.6075   55.4003 H   0  0  0  0  0  0  0  0  0  0  0  0
  133.6613  131.7241   56.0992 H   0  0  0  0  0  0  0  0  0  0  0  0
  133.9485  130.6884   58.3442 H   0  0  0  0  0  0  0  0  0  0  0  0
  132.0105  130.5289   59.8935 H   0  0  0  0  0  0  0  0  0  0  0  0
  129.3775  133.4967   59.9895 H   0  0  0  0  0  0  0  0  0  0  0  0
  127.3277  133.4736   62.7616 H   0  0  0  0  0  0  0  0  0  0  0  0
  127.8662  134.4808   61.3751 H   0  0  0  0  0  0  0  0  0  0  0  0
  126.2217  133.7581   61.3751 H   0  0  0  0  0  0  0  0  0  0  0  0
  1  2  1  0
  2  3  2  0
  3  4  1  0
  4  5  2  0
  5  6  1  0
  6  7  1  0
  7  8  1  0
  8  9  2  0
  8 10  1  0
 10 11  1  0
 11 12  1  0
 12 13  2  0
 13 14  1  0
 14 15  1  0
 15 16  2  0
 16 17  1  0
 17 18  2  0
 18 19  1  0
 19 20  2  0
 14 21  2  0
 21 22  1  0
 22 23  1  0
 22 24  2  0
 24 25  1  0
 25 26  3  0
  6 27  2  0
 27  2  1  0
 24 12  1  0
 20 15  1  0
  1 28  1  0
  1 29  1  0
  1 30  1  0
  3 31  1  0
  4 32  1  0
  5 33  1  0
  7 34  1  0
 10 35  1  0
 10 36  1  0
 16 37  1  0
 17 38  1  0
 18 39  1  0
 19 40  1  0
 20 41  1  0
 21 42  1  0
 23 43  1  0
 23 44  1  0
 23 45  1  0
M  END
>  <Binding energies>  (1) 
[-7.26]

>  <Ligand effiencies>  (1) 
[-0.2592857142857143]

>  <Interactions>  (1) 
["V-B:GLU:543:CD:9880, V-A:GLU:543:CD:4906, V-A:ARG:545:CZ:4924, H-B:GLU:543:OE1:9881, V-A:GLY:453:C:4040, V-A:ILE:369:CD1:3237, V-A:GLY:453:CA:4042, V-A:ASP:366:CG:3211, V-A:GLY:454:CA:4047, V-B:LEU:475:CD2:9231, V-A:PRO:540:CA:4881, V-A:PRO:540:N:4882, V-A:PRO:540:CB:4883, V-A:PRO:540:CD:4885, V-A:TYR:539:C:4865, V-A:TYR:531:CE2:4791, V-A:ALA:541:CB:4890, H-A:ARG:545:NH2:4926, H-B:GLU:543:OE2:9882, V-A:ILE:538:CB:4860"]

$$$$
3bf_Grossjean_2025
     RDKit          3D

 42 44  0  0  0  0  0  0  0  0999 V2000
  133.4530  123.2620   75.1070 C   0  0  0  0  0  0  0  0  0  0  0  0
  132.2710  123.7560   74.2750 C   0  0  0  0  0  0  0  0  0  0  0  0
  131.2950  122.8270   73.9000 C   0  0  0  0  0  0  0  0  0  0  0  0
  130.1880  123.2400   73.1500 C   0  0  0  0  0  0  0  0  0  0  0  0
  129.0970  122.2990   72.7360 C   0  0  0  0  0  0  0  0  0  0  0  0
  128.0820  121.9390   73.6360 C   0  0  0  0  0  0  0  0  0  0  0  0
  127.0660  121.0650   73.2600 C   0  0  0  0  0  0  0  0  0  0  0  0
  127.0520  120.5380   71.9720 C   0  0  0  0  0  0  0  0  0  0  0  0
  128.0470  120.8770   71.0620 C   0  0  0  0  0  0  0  0  0  0  0  0
  129.0620  121.7500   71.4440 C   0  0  0  0  0  0  0  0  0  0  0  0
  130.0450  124.5390   72.7760 N   0  0  0  0  0  0  0  0  0  0  0  0
  130.9950  125.4460   73.1110 C   0  0  0  0  0  0  0  0  0  0  0  0
  130.6430  127.0930   72.5320 S   0  0  0  0  0  0  0  0  0  0  0  0
  128.8620  127.1890   72.1490 C   0  0  0  0  0  0  0  0  0  0  0  0
  128.1070  128.3340   72.8410 C   0  0  0  0  0  0  0  0  0  0  0  0
  128.5030  129.4970   72.7430 O   0  0  0  0  0  0  0  0  0  0  0  0
  126.9970  127.9540   73.5100 N   0  0  0  0  0  0  0  0  0  0  0  0
  126.0990  128.7440   74.2510 C   0  0  0  0  0  0  0  0  0  0  0  0
  126.6330  129.8250   74.9600 C   0  0  0  0  0  0  0  0  0  0  0  0
  125.7920  130.6550   75.7040 C   0  0  0  0  0  0  0  0  0  0  0  0
  124.4240  130.3800   75.7130 C   0  0  0  0  0  0  0  0  0  0  0  0
  123.8760  129.3450   75.0270 N   0  0  0  0  0  0  0  0  0  0  0  0
  124.7080  128.5470   74.3080 C   0  0  0  0  0  0  0  0  0  0  0  0
  132.1280  125.1040   73.8820 C   0  0  0  0  0  0  0  0  0  0  0  0
  133.1130  126.1030   74.3060 C   0  0  0  0  0  0  0  0  0  0  0  0
  133.8920  126.8910   74.6400 N   0  0  0  0  0  0  0  0  0  0  0  0
  133.2155  123.3612   76.1765 H   0  0  0  0  0  0  0  0  0  0  0  0
  133.6510  122.2058   74.8718 H   0  0  0  0  0  0  0  0  0  0  0  0
  134.3437  123.8632   74.8718 H   0  0  0  0  0  0  0  0  0  0  0  0
  131.3975  121.7721   74.1945 H   0  0  0  0  0  0  0  0  0  0  0  0
  128.0895  122.3541   74.6546 H   0  0  0  0  0  0  0  0  0  0  0  0
  126.2780  120.7922   73.9774 H   0  0  0  0  0  0  0  0  0  0  0  0
  126.2487  119.8490   71.6721 H   0  0  0  0  0  0  0  0  0  0  0  0
  128.0323  120.4575   70.0452 H   0  0  0  0  0  0  0  0  0  0  0  0
  129.8491  122.0139   70.7223 H   0  0  0  0  0  0  0  0  0  0  0  0
  128.7537  127.3175   71.0619 H   0  0  0  0  0  0  0  0  0  0  0  0
  128.4170  126.2566   72.5266 H   0  0  0  0  0  0  0  0  0  0  0  0
  126.7410  126.9800   73.4410 H   0  0  0  0  0  0  0  0  0  0  0  0
  127.7150  130.0212   74.9315 H   0  0  0  0  0  0  0  0  0  0  0  0
  126.1985  131.5061   76.2700 H   0  0  0  0  0  0  0  0  0  0  0  0
  123.7607  131.0305   76.3019 H   0  0  0  0  0  0  0  0  0  0  0  0
  124.2734  127.7082   73.7445 H   0  0  0  0  0  0  0  0  0  0  0  0
  1  2  1  0
  2  3  2  0
  3  4  1  0
  4  5  1  0
  5  6  2  0
  6  7  1  0
  7  8  2  0
  8  9  1  0
  9 10  2  0
  4 11  2  0
 11 12  1  0
 12 13  1  0
 13 14  1  0
 14 15  1  0
 15 16  2  0
 15 17  1  0
 17 18  1  0
 18 19  2  0
 19 20  1  0
 20 21  2  0
 21 22  1  0
 22 23  2  0
 12 24  2  0
 24 25  1  0
 25 26  3  0
 24  2  1  0
 10  5  1  0
 23 18  1  0
  1 27  1  0
  1 28  1  0
  1 29  1  0
  3 30  1  0
  6 31  1  0
  7 32  1  0
  8 33  1  0
  9 34  1  0
 10 35  1  0
 14 36  1  0
 14 37  1  0
 17 38  1  0
 19 39  1  0
 20 40  1  0
 21 41  1  0
 23 42  1  0
M  END
>  <Binding energies>  (1) 
[-9.47]

>  <Ligand effiencies>  (1) 
[-0.35074074074074074]

>  <Interactions>  (1) 
["H-B:GLY:544:O:9885, V-A:HIS:456:CD2:4066, H-A:LYS:547:NZ:4949, V-B:GLY:544:C:9884, V-B:HIS:456:CD2:9040, H-B:LYS:547:NZ:9923, V-B:GLU:543:C:9874, V-A:HIS:456:CG:4064, V-A:HIS:456:CB:4063, V-B:LYS:547:CE:9922, V-B:GLY:544:CA:9886, V-A:HIS:456:C:4059, V-A:TYR:484:CG:4340, V-A:LYS:471:CE:4218, V-A:TYR:484:CB:4339, V-B:GLU:543:CA:9876, V-A:ASP:473:CG:4238, V-A:TYR:484:CD1:4341, V-B:HIS:456:CG:9038, V-A:VAL:458:CG2:4085, V-B:HIS:456:CB:9037, V-A:LYS:471:CD:4217, V-A:LYS:471:CG:4216, V-B:VAL:458:CG2:9059, V-B:HIS:456:C:9033, V-B:HIS:456:CA:9035, V-B:VAL:457:C:9045, V-B:LYS:471:CE:9192, V-B:LYS:471:CG:9190, V-B:LYS:471:CD:9191, H-B:VAL:457:N:9048, H-B:VAL:458:N:9056"]

$$$$
3bg_Grossjean_2025
     RDKit          3D

 46 48  0  0  0  0  0  0  0  0999 V2000
  130.6460  120.2930   61.0970 C   0  0  0  0  0  0  0  0  0  0  0  0
  130.1560  121.7370   61.0100 C   0  0  0  0  0  0  0  0  0  0  0  0
  128.9080  121.9780   60.4260 C   0  0  0  0  0  0  0  0  0  0  0  0
  128.4180  123.2870   60.3330 C   0  0  0  0  0  0  0  0  0  0  0  0
  127.0800  123.6140   59.7280 C   0  0  0  0  0  0  0  0  0  0  0  0
  126.8940  123.6070   58.3360 C   0  0  0  0  0  0  0  0  0  0  0  0
  125.6540  123.8910   57.7720 C   0  0  0  0  0  0  0  0  0  0  0  0
  124.5740  124.1920   58.5960 C   0  0  0  0  0  0  0  0  0  0  0  0
  124.7310  124.2190   59.9760 C   0  0  0  0  0  0  0  0  0  0  0  0
  125.9740  123.9360   60.5350 C   0  0  0  0  0  0  0  0  0  0  0  0
  129.1380  124.3310   60.8240 N   0  0  0  0  0  0  0  0  0  0  0  0
  130.3500  124.1140   61.3970 C   0  0  0  0  0  0  0  0  0  0  0  0
  131.1770  125.5650   62.0320 S   0  0  0  0  0  0  0  0  0  0  0  0
  131.4860  126.7000   60.6400 C   0  0  0  0  0  0  0  0  0  0  0  0
  130.5480  127.9110   60.6730 C   0  0  0  0  0  0  0  0  0  0  0  0
  129.3750  127.7690   61.0200 O   0  0  0  0  0  0  0  0  0  0  0  0
  131.0730  129.0850   60.2840 N   0  0  0  0  0  0  0  0  0  0  0  0
  130.3210  130.3210   60.0640 C   0  0  0  0  0  0  0  0  0  0  0  0
  130.6590  130.9580   58.7220 C   0  0  0  0  0  0  0  0  0  0  0  0
  131.9830  130.9840   58.2720 C   0  0  0  0  0  0  0  0  0  0  0  0
  132.2930  131.5740   57.0510 C   0  0  0  0  0  0  0  0  0  0  0  0
  131.2760  132.1270   56.2740 C   0  0  0  0  0  0  0  0  0  0  0  0
  129.9520  132.0880   56.7050 C   0  0  0  0  0  0  0  0  0  0  0  0
  129.6430  131.4970   57.9280 C   0  0  0  0  0  0  0  0  0  0  0  0
  130.9080  122.8230   61.5060 C   0  0  0  0  0  0  0  0  0  0  0  0
  132.2140  122.6020   62.1290 C   0  0  0  0  0  0  0  0  0  0  0  0
  133.2460  122.4250   62.6220 N   0  0  0  0  0  0  0  0  0  0  0  0
  130.7446  120.0023   62.1533 H   0  0  0  0  0  0  0  0  0  0  0  0
  129.9226  119.6298   60.6002 H   0  0  0  0  0  0  0  0  0  0  0  0
  131.6236  120.2070   60.6002 H   0  0  0  0  0  0  0  0  0  0  0  0
  128.3109  121.1389   60.0395 H   0  0  0  0  0  0  0  0  0  0  0  0
  127.7446  123.3726   57.6791 H   0  0  0  0  0  0  0  0  0  0  0  0
  125.5281  123.8776   56.6793 H   0  0  0  0  0  0  0  0  0  0  0  0
  123.5911  124.4096   58.1526 H   0  0  0  0  0  0  0  0  0  0  0  0
  123.8765  124.4630   60.6244 H   0  0  0  0  0  0  0  0  0  0  0  0
  126.0935  123.9647   61.6281 H   0  0  0  0  0  0  0  0  0  0  0  0
  132.5261  127.0539   60.6936 H   0  0  0  0  0  0  0  0  0  0  0  0
  131.3023  126.1511   59.7046 H   0  0  0  0  0  0  0  0  0  0  0  0
  132.0440  129.1060   60.0100 H   0  0  0  0  0  0  0  0  0  0  0  0
  129.2453  130.0924   60.0887 H   0  0  0  0  0  0  0  0  0  0  0  0
  130.5926  131.0322   60.8580 H   0  0  0  0  0  0  0  0  0  0  0  0
  132.7802  130.5373   58.8844 H   0  0  0  0  0  0  0  0  0  0  0  0
  133.3352  131.6041   56.7003 H   0  0  0  0  0  0  0  0  0  0  0  0
  131.5216  132.5987   55.3111 H   0  0  0  0  0  0  0  0  0  0  0  0
  129.1549  132.5215   56.0831 H   0  0  0  0  0  0  0  0  0  0  0  0
  128.5981  131.4545   58.2692 H   0  0  0  0  0  0  0  0  0  0  0  0
  1  2  1  0
  2  3  2  0
  3  4  1  0
  4  5  1  0
  5  6  2  0
  6  7  1  0
  7  8  2  0
  8  9  1  0
  9 10  2  0
  4 11  2  0
 11 12  1  0
 12 13  1  0
 13 14  1  0
 14 15  1  0
 15 16  2  0
 15 17  1  0
 17 18  1  0
 18 19  1  0
 19 20  2  0
 20 21  1  0
 21 22  2  0
 22 23  1  0
 23 24  2  0
 12 25  2  0
 25 26  1  0
 26 27  3  0
 25  2  1  0
 10  5  1  0
 24 19  1  0
  1 28  1  0
  1 29  1  0
  1 30  1  0
  3 31  1  0
  6 32  1  0
  7 33  1  0
  8 34  1  0
  9 35  1  0
 10 36  1  0
 14 37  1  0
 14 38  1  0
 17 39  1  0
 18 40  1  0
 18 41  1  0
 20 42  1  0
 21 43  1  0
 22 44  1  0
 23 45  1  0
 24 46  1  0
M  END
>  <Binding energies>  (1) 
[-7.43]

>  <Ligand effiencies>  (1) 
[-0.26535714285714285]

>  <Interactions>  (1) 
["H-A:GLY:454:N:4048, H-A:TYR:484:OH:4346, V-B:PRO:540:C:9853, V-A:LEU:475:CD2:4257, V-B:PRO:540:CA:9855, V-B:TYR:539:C:9839, V-A:ASP:366:CG:3211, V-B:ALA:541:CB:9864, V-B:TYR:539:CD2:9846, V-B:PRO:540:N:9856, V-B:PRO:540:CB:9857, V-A:PRO:540:CA:4881, V-A:PRO:540:N:4882, V-B:ASP:366:CG:8185, V-A:PRO:540:CB:4883, V-A:PRO:540:CD:4885, V-A:TYR:539:C:4865, H-A:ARG:545:NH2:4926, H-A:ASP:366:OD2:3213, H-A:ASP:366:OD1:3212, V-A:ILE:538:CB:4860"]

$$$$
3bk_Grossjean_2025
     RDKit          3D

 57 58  0  0  0  0  0  0  0  0999 V2000
  133.4850  124.6170   62.6130 C   0  0  0  0  0  0  0  0  0  0  0  0
  133.3310  124.6190   64.0240 O   0  0  0  0  0  0  0  0  0  0  0  0
  132.0260  124.9840   64.4510 C   0  0  0  0  0  0  0  0  0  0  0  0
  132.1110  125.7410   65.7840 C   0  0  0  0  0  0  0  0  0  0  0  0
  130.8080  125.8790   66.3320 O   0  0  0  0  0  0  0  0  0  0  0  0
  130.6280  127.0650   67.0940 C   0  0  0  0  0  0  0  0  0  0  0  0
  129.1930  127.5740   66.9070 C   0  0  0  0  0  0  0  0  0  0  0  0
  128.2860  126.6600   67.5100 O   0  0  0  0  0  0  0  0  0  0  0  0
  127.1230  127.2750   68.0480 C   0  0  0  0  0  0  0  0  0  0  0  0
  127.1940  127.2490   69.5820 C   0  0  0  0  0  0  0  0  0  0  0  0
  128.5390  126.9390   70.0720 N   0  0  0  0  0  0  0  0  0  0  0  0
  129.1700  127.5760   71.0730 C   0  0  0  0  0  0  0  0  0  0  0  0
  128.6720  128.5000   71.7170 O   0  0  0  0  0  0  0  0  0  0  0  0
  130.5750  127.0780   71.4190 C   0  0  0  0  0  0  0  0  0  0  0  0
  130.8630  127.0440   73.2160 S   0  0  0  0  0  0  0  0  0  0  0  0
  131.3960  125.4070   73.6890 C   0  0  0  0  0  0  0  0  0  0  0  0
  130.5450  124.3950   73.3820 N   0  0  0  0  0  0  0  0  0  0  0  0
  130.8670  123.1140   73.7070 C   0  0  0  0  0  0  0  0  0  0  0  0
  129.8820  122.0550   73.3130 C   0  0  0  0  0  0  0  0  0  0  0  0
  129.5180  121.0420   74.2140 C   0  0  0  0  0  0  0  0  0  0  0  0
  128.6080  120.0520   73.8510 C   0  0  0  0  0  0  0  0  0  0  0  0
  128.0460  120.0630   72.5790 C   0  0  0  0  0  0  0  0  0  0  0  0
  128.3860  121.0590   71.6680 C   0  0  0  0  0  0  0  0  0  0  0  0
  129.2960  122.0470   72.0350 C   0  0  0  0  0  0  0  0  0  0  0  0
  132.0730  122.8190   74.3520 C   0  0  0  0  0  0  0  0  0  0  0  0
  132.9610  123.8510   74.6770 C   0  0  0  0  0  0  0  0  0  0  0  0
  134.2660  123.4850   75.3820 C   0  0  0  0  0  0  0  0  0  0  0  0
  132.6260  125.1800   74.3430 C   0  0  0  0  0  0  0  0  0  0  0  0
  133.5370  126.2800   74.6690 C   0  0  0  0  0  0  0  0  0  0  0  0
  134.2570  127.1490   74.9270 N   0  0  0  0  0  0  0  0  0  0  0  0
  134.5557  124.6031   62.3610 H   0  0  0  0  0  0  0  0  0  0  0  0
  132.9977  123.7251   62.1922 H   0  0  0  0  0  0  0  0  0  0  0  0
  133.0210  125.5212   62.1922 H   0  0  0  0  0  0  0  0  0  0  0  0
  131.5604  125.6303   63.6924 H   0  0  0  0  0  0  0  0  0  0  0  0
  131.4193  124.0763   64.5854 H   0  0  0  0  0  0  0  0  0  0  0  0
  132.7464  125.1797   66.4849 H   0  0  0  0  0  0  0  0  0  0  0  0
  132.5454  126.7371   65.6138 H   0  0  0  0  0  0  0  0  0  0  0  0
  130.8057  126.8489   68.1578 H   0  0  0  0  0  0  0  0  0  0  0  0
  131.3388  127.8328   66.7546 H   0  0  0  0  0  0  0  0  0  0  0  0
  129.0889  128.5611   67.3811 H   0  0  0  0  0  0  0  0  0  0  0  0
  128.9700  127.6589   65.8332 H   0  0  0  0  0  0  0  0  0  0  0  0
  127.0654  128.3173   67.7011 H   0  0  0  0  0  0  0  0  0  0  0  0
  126.2299  126.7274   67.7127 H   0  0  0  0  0  0  0  0  0  0  0  0
  126.8963  128.2357   69.9665 H   0  0  0  0  0  0  0  0  0  0  0  0
  126.5166  126.4581   69.9364 H   0  0  0  0  0  0  0  0  0  0  0  0
  128.9960  126.1520   69.6360 H   0  0  0  0  0  0  0  0  0  0  0  0
  130.6994  126.0605   71.0201 H   0  0  0  0  0  0  0  0  0  0  0  0
  131.3014  127.7723   70.9715 H   0  0  0  0  0  0  0  0  0  0  0  0
  129.9581  121.0299   75.2220 H   0  0  0  0  0  0  0  0  0  0  0  0
  128.3347  119.2640   74.5682 H   0  0  0  0  0  0  0  0  0  0  0  0
  127.3288  119.2802   72.2912 H   0  0  0  0  0  0  0  0  0  0  0  0
  127.9381  121.0656   70.6633 H   0  0  0  0  0  0  0  0  0  0  0  0
  129.5607  122.8339   71.3134 H   0  0  0  0  0  0  0  0  0  0  0  0
  132.3229  121.7777   74.6033 H   0  0  0  0  0  0  0  0  0  0  0  0
  134.1184  123.5264   76.4713 H   0  0  0  0  0  0  0  0  0  0  0  0
  134.5671  122.4678   75.0912 H   0  0  0  0  0  0  0  0  0  0  0  0
  135.0521  124.1973   75.0912 H   0  0  0  0  0  0  0  0  0  0  0  0
  1  2  1  0
  2  3  1  0
  3  4  1  0
  4  5  1  0
  5  6  1  0
  6  7  1  0
  7  8  1  0
  8  9  1  0
  9 10  1  0
 10 11  1  0
 11 12  1  0
 12 13  2  0
 12 14  1  0
 14 15  1  0
 15 16  1  0
 16 17  2  0
 17 18  1  0
 18 19  1  0
 19 20  2  0
 20 21  1  0
 21 22  2  0
 22 23  1  0
 23 24  2  0
 18 25  2  0
 25 26  1  0
 26 27  1  0
 26 28  2  0
 28 29  1  0
 29 30  3  0
 28 16  1  0
 24 19  1  0
  1 31  1  0
  1 32  1  0
  1 33  1  0
  3 34  1  0
  3 35  1  0
  4 36  1  0
  4 37  1  0
  6 38  1  0
  6 39  1  0
  7 40  1  0
  7 41  1  0
  9 42  1  0
  9 43  1  0
 10 44  1  0
 10 45  1  0
 11 46  1  0
 14 47  1  0
 14 48  1  0
 20 49  1  0
 21 50  1  0
 22 51  1  0
 23 52  1  0
 24 53  1  0
 25 54  1  0
 27 55  1  0
 27 56  1  0
 27 57  1  0
M  END
>  <Binding energies>  (1) 
[-8.1]

>  <Ligand effiencies>  (1) 
[-0.26129032258064516]

>  <Interactions>  (1) 
["V-A:HIS:456:CE1:4068, V-A:HIS:456:CD2:4066, V-B:GLU:543:CD:9880, H-A:HIS:456:NE2:4069, V-A:GLU:543:CD:4906, V-B:HIS:456:CE1:9042, V-A:GLY:544:CA:4912, H-A:LYS:547:NZ:4949, V-B:GLY:544:C:9884, V-A:GLY:544:C:4910, H-B:GLU:543:O:9875, V-B:GLU:543:CG:9879, V-A:GLU:543:CG:4905, H-A:GLY:454:N:4048, H-B:LYS:547:NZ:9923, V-B:GLU:543:C:9874, V-A:ARG:545:CZ:4924, V-A:ARG:545:CG:4920, H-A:TYR:484:OH:4346, V-A:ARG:545:CD:4921, V-A:HIS:456:CG:4064, V-A:HIS:456:CB:4063, V-B:GLY:544:CA:9886, V-A:LYS:547:CD:4947, V-A:HIS:456:C:4059, V-A:TYR:484:CG:4340, V-A:LYS:471:CE:4218, V-A:TYR:484:CB:4339, V-A:ASP:473:CB:4237, V-A:ASP:473:CG:4238, V-A:GLY:453:CA:4042, V-A:VAL:458:CG2:4085, V-B:ARG:545:CG:9894, V-B:ARG:545:CA:9891, V-A:LYS:471:CD:4217, V-A:LYS:471:CG:4216"]

$$$$
3ca_Grossjean_2025
     RDKit          3D

 52 54  0  0  0  0  0  0  0  0999 V2000
  126.1590  128.7540   73.5480 C   0  0  0  0  0  0  0  0  0  0  0  0
  127.1920  127.9860   74.3770 C   0  0  0  0  0  0  0  0  0  0  0  0
  128.4410  127.9870   73.6950 O   0  0  0  0  0  0  0  0  0  0  0  0
  128.6820  128.8480   72.6740 C   0  0  0  0  0  0  0  0  0  0  0  0
  128.7510  130.0730   72.8180 O   0  0  0  0  0  0  0  0  0  0  0  0
  128.8630  128.1620   71.3500 C   0  0  0  0  0  0  0  0  0  0  0  0
  130.1480  127.7720   70.9520 C   0  0  0  0  0  0  0  0  0  0  0  0
  130.3480  127.1350   69.7300 C   0  0  0  0  0  0  0  0  0  0  0  0
  129.2710  126.8820   68.8790 C   0  0  0  0  0  0  0  0  0  0  0  0
  129.5840  126.2320   67.6700 N   0  0  0  0  0  0  0  0  0  0  0  0
  130.5420  126.5160   66.7620 C   0  0  0  0  0  0  0  0  0  0  0  0
  131.3610  127.4310   66.8530 O   0  0  0  0  0  0  0  0  0  0  0  0
  130.5890  125.5840   65.5470 C   0  0  0  0  0  0  0  0  0  0  0  0
  132.1290  125.7390   64.5820 S   0  0  0  0  0  0  0  0  0  0  0  0
  132.0740  124.6430   63.1700 C   0  0  0  0  0  0  0  0  0  0  0  0
  133.0480  123.7000   63.1200 N   0  0  0  0  0  0  0  0  0  0  0  0
  133.0570  122.8240   62.0920 C   0  0  0  0  0  0  0  0  0  0  0  0
  134.1650  121.7910   62.1160 C   0  0  0  0  0  0  0  0  0  0  0  0
  132.1120  122.8600   61.0700 C   0  0  0  0  0  0  0  0  0  0  0  0
  131.1060  123.8350   61.0890 C   0  0  0  0  0  0  0  0  0  0  0  0
  130.1230  123.8440   59.9640 C   0  0  0  0  0  0  0  0  0  0  0  0
  128.9260  123.1240   60.0720 C   0  0  0  0  0  0  0  0  0  0  0  0
  128.0080  123.1180   59.0260 C   0  0  0  0  0  0  0  0  0  0  0  0
  128.2850  123.8310   57.8620 C   0  0  0  0  0  0  0  0  0  0  0  0
  129.4740  124.5460   57.7350 C   0  0  0  0  0  0  0  0  0  0  0  0
  130.3900  124.5490   58.7840 C   0  0  0  0  0  0  0  0  0  0  0  0
  131.0760  124.7500   62.1720 C   0  0  0  0  0  0  0  0  0  0  0  0
  130.0180  125.7610   62.2730 C   0  0  0  0  0  0  0  0  0  0  0  0
  129.1820  126.5570   62.3520 N   0  0  0  0  0  0  0  0  0  0  0  0
  127.9790  127.2630   69.2740 C   0  0  0  0  0  0  0  0  0  0  0  0
  127.7810  127.8980   70.4970 C   0  0  0  0  0  0  0  0  0  0  0  0
  125.4610  129.2730   74.2214 H   0  0  0  0  0  0  0  0  0  0  0  0
  126.6728  129.4912   72.9135 H   0  0  0  0  0  0  0  0  0  0  0  0
  125.6011  128.0496   72.9135 H   0  0  0  0  0  0  0  0  0  0  0  0
  127.3090  128.4704   75.3577 H   0  0  0  0  0  0  0  0  0  0  0  0
  126.8519  126.9496   74.5190 H   0  0  0  0  0  0  0  0  0  0  0  0
  131.0066  127.9706   71.6104 H   0  0  0  0  0  0  0  0  0  0  0  0
  131.3620  126.8290   69.4332 H   0  0  0  0  0  0  0  0  0  0  0  0
  129.0350  125.4050   67.4910 H   0  0  0  0  0  0  0  0  0  0  0  0
  130.5001  124.5457   65.8991 H   0  0  0  0  0  0  0  0  0  0  0  0
  129.7581  125.8682   64.8846 H   0  0  0  0  0  0  0  0  0  0  0  0
  134.4211  121.5522   63.1588 H   0  0  0  0  0  0  0  0  0  0  0  0
  133.8267  120.8785   61.6033 H   0  0  0  0  0  0  0  0  0  0  0  0
  135.0516  122.1923   61.6033 H   0  0  0  0  0  0  0  0  0  0  0  0
  132.1551  122.1264   60.2515 H   0  0  0  0  0  0  0  0  0  0  0  0
  128.7101  122.5590   60.9908 H   0  0  0  0  0  0  0  0  0  0  0  0
  127.0686  122.5531   59.1180 H   0  0  0  0  0  0  0  0  0  0  0  0
  127.5587  123.8296   57.0359 H   0  0  0  0  0  0  0  0  0  0  0  0
  129.6879  125.1047   56.8119 H   0  0  0  0  0  0  0  0  0  0  0  0
  131.3311  125.1098   58.6848 H   0  0  0  0  0  0  0  0  0  0  0  0
  127.1214  127.0594   68.6160 H   0  0  0  0  0  0  0  0  0  0  0  0
  126.7656  128.1958   70.7976 H   0  0  0  0  0  0  0  0  0  0  0  0
  1  2  1  0
  2  3  1  0
  3  4  1  0
  4  5  2  0
  4  6  1  0
  6  7  2  0
  7  8  1  0
  8  9  2  0
  9 10  1  0
 10 11  1  0
 11 12  2  0
 11 13  1  0
 13 14  1  0
 14 15  1  0
 15 16  2  0
 16 17  1  0
 17 18  1  0
 17 19  2  0
 19 20  1  0
 20 21  1  0
 21 22  2  0
 22 23  1  0
 23 24  2  0
 24 25  1  0
 25 26  2  0
 20 27  2  0
 27 28  1  0
 28 29  3  0
  9 30  1  0
 30 31  2  0
 31  6  1  0
 27 15  1  0
 26 21  1  0
  1 32  1  0
  1 33  1  0
  1 34  1  0
  2 35  1  0
  2 36  1  0
  7 37  1  0
  8 38  1  0
 10 39  1  0
 13 40  1  0
 13 41  1  0
 18 42  1  0
 18 43  1  0
 18 44  1  0
 19 45  1  0
 22 46  1  0
 23 47  1  0
 24 48  1  0
 25 49  1  0
 26 50  1  0
 30 51  1  0
 31 52  1  0
M  END
>  <Binding energies>  (1) 
[-8.16]

>  <Ligand effiencies>  (1) 
[-0.255]

>  <Interactions>  (1) 
["V-B:GLU:543:CB:9878, V-A:HIS:456:CE1:4068, V-A:HIS:456:CD2:4066, V-B:GLU:543:CD:9880, H-A:HIS:456:NE2:4069, V-A:GLU:543:CD:4906, V-B:HIS:456:CE1:9042, V-A:GLY:544:CA:4912, H-A:LYS:547:NZ:4949, V-B:GLY:544:C:9884, V-A:GLY:544:C:4910, H-B:GLU:543:O:9875, V-B:HIS:456:CD2:9040, V-B:GLU:543:CG:9879, H-A:GLY:454:N:4048, H-B:LYS:547:NZ:9923, V-B:GLU:543:C:9874, V-A:LYS:547:CE:4948, H-A:TYR:484:OH:4346, V-B:LYS:547:CE:9922, H-B:GLU:543:OE1:9881, H-A:ARG:545:NE:4922, V-A:GLU:543:C:4900, V-A:GLY:453:C:4040, V-A:ILE:369:CD1:3237, V-A:LEU:475:CD2:4257, V-B:PRO:540:CA:9855, V-B:TYR:539:C:9839, V-A:GLY:454:CA:4047, V-B:TYR:539:CE2:9848, V-B:PRO:540:N:9856, H-A:ARG:545:NH2:4926, V-B:HIS:456:CG:9038, V-B:LYS:547:CD:9921, H-B:GLU:543:OE2:9882, V-B:HIS:456:CB:9037"]

$$$$
3cb_Grossjean_2025
     RDKit          3D

 49 51  0  0  0  0  0  0  0  0999 V2000
  126.6840  128.4030   73.9340 C   0  0  0  0  0  0  0  0  0  0  0  0
  128.0330  128.2220   73.5300 O   0  0  0  0  0  0  0  0  0  0  0  0
  128.5910  129.0140   72.5780 C   0  0  0  0  0  0  0  0  0  0  0  0
  128.8430  130.2100   72.7510 O   0  0  0  0  0  0  0  0  0  0  0  0
  128.8670  128.2900   71.2910 C   0  0  0  0  0  0  0  0  0  0  0  0
  130.1650  127.9080   70.9160 C   0  0  0  0  0  0  0  0  0  0  0  0
  130.3860  127.2370   69.7180 C   0  0  0  0  0  0  0  0  0  0  0  0
  129.3220  126.9370   68.8670 C   0  0  0  0  0  0  0  0  0  0  0  0
  129.6600  126.2520   67.6820 N   0  0  0  0  0  0  0  0  0  0  0  0
  130.5890  126.5430   66.7460 C   0  0  0  0  0  0  0  0  0  0  0  0
  131.3550  127.5080   66.7880 O   0  0  0  0  0  0  0  0  0  0  0  0
  130.6530  125.5450   65.5800 C   0  0  0  0  0  0  0  0  0  0  0  0
  132.1260  125.7020   64.5130 S   0  0  0  0  0  0  0  0  0  0  0  0
  131.9330  124.5720   63.1500 C   0  0  0  0  0  0  0  0  0  0  0  0
  132.9170  123.6420   63.0770 N   0  0  0  0  0  0  0  0  0  0  0  0
  132.8740  122.7300   62.0800 C   0  0  0  0  0  0  0  0  0  0  0  0
  134.0000  121.7130   62.0680 C   0  0  0  0  0  0  0  0  0  0  0  0
  131.8630  122.7110   61.1240 C   0  0  0  0  0  0  0  0  0  0  0  0
  130.8450  123.6720   61.1700 C   0  0  0  0  0  0  0  0  0  0  0  0
  129.7850  123.6130   60.1170 C   0  0  0  0  0  0  0  0  0  0  0  0
  130.0890  123.9520   58.7930 C   0  0  0  0  0  0  0  0  0  0  0  0
  129.1120  123.8890   57.8020 C   0  0  0  0  0  0  0  0  0  0  0  0
  127.8220  123.4830   58.1340 C   0  0  0  0  0  0  0  0  0  0  0  0
  127.5040  123.1350   59.4430 C   0  0  0  0  0  0  0  0  0  0  0  0
  128.4840  123.1970   60.4310 C   0  0  0  0  0  0  0  0  0  0  0  0
  130.8830  124.6450   62.2020 C   0  0  0  0  0  0  0  0  0  0  0  0
  129.8960  125.7290   62.2440 C   0  0  0  0  0  0  0  0  0  0  0  0
  129.1180  126.5840   62.2780 N   0  0  0  0  0  0  0  0  0  0  0  0
  128.0210  127.3110   69.2350 C   0  0  0  0  0  0  0  0  0  0  0  0
  127.8000  127.9830   70.4350 C   0  0  0  0  0  0  0  0  0  0  0  0
  126.6281  128.4105   75.0326 H   0  0  0  0  0  0  0  0  0  0  0  0
  126.3088  129.3595   73.5412 H   0  0  0  0  0  0  0  0  0  0  0  0
  126.0699  127.5792   73.5412 H   0  0  0  0  0  0  0  0  0  0  0  0
  131.0141  128.1414   71.5752 H   0  0  0  0  0  0  0  0  0  0  0  0
  131.4079  126.9405   69.4392 H   0  0  0  0  0  0  0  0  0  0  0  0
  129.1350  125.4010   67.5360 H   0  0  0  0  0  0  0  0  0  0  0  0
  130.6420  124.5282   65.9996 H   0  0  0  0  0  0  0  0  0  0  0  0
  129.7846  125.7619   64.9406 H   0  0  0  0  0  0  0  0  0  0  0  0
  134.2782  121.4617   63.1022 H   0  0  0  0  0  0  0  0  0  0  0  0
  133.6671  120.8035   61.5466 H   0  0  0  0  0  0  0  0  0  0  0  0
  134.8711  122.1365   61.5466 H   0  0  0  0  0  0  0  0  0  0  0  0
  131.8633  121.9443   60.3352 H   0  0  0  0  0  0  0  0  0  0  0  0
  131.1090  124.2711   58.5328 H   0  0  0  0  0  0  0  0  0  0  0  0
  129.3579  124.1582   56.7642 H   0  0  0  0  0  0  0  0  0  0  0  0
  127.0474  123.4370   57.3543 H   0  0  0  0  0  0  0  0  0  0  0  0
  126.4834  122.8124   59.6966 H   0  0  0  0  0  0  0  0  0  0  0  0
  128.2349  122.9174   61.4653 H   0  0  0  0  0  0  0  0  0  0  0  0
  127.1739  127.0732   68.5748 H   0  0  0  0  0  0  0  0  0  0  0  0
  126.7771  128.2760   70.7140 H   0  0  0  0  0  0  0  0  0  0  0  0
  1  2  1  0
  2  3  1  0
  3  4  2  0
  3  5  1  0
  5  6  2  0
  6  7  1  0
  7  8  2  0
  8  9  1  0
  9 10  1  0
 10 11  2  0
 10 12  1  0
 12 13  1  0
 13 14  1  0
 14 15  2  0
 15 16  1  0
 16 17  1  0
 16 18  2  0
 18 19  1  0
 19 20  1  0
 20 21  2  0
 21 22  1  0
 22 23  2  0
 23 24  1  0
 24 25  2  0
 19 26  2  0
 26 27  1  0
 27 28  3  0
  8 29  1  0
 29 30  2  0
 30  5  1  0
 26 14  1  0
 25 20  1  0
  1 31  1  0
  1 32  1  0
  1 33  1  0
  6 34  1  0
  7 35  1  0
  9 36  1  0
 12 37  1  0
 12 38  1  0
 17 39  1  0
 17 40  1  0
 17 41  1  0
 18 42  1  0
 21 43  1  0
 22 44  1  0
 23 45  1  0
 24 46  1  0
 25 47  1  0
 29 48  1  0
 30 49  1  0
M  END
>  <Binding energies>  (1) 
[-8.28]

>  <Ligand effiencies>  (1) 
[-0.2670967741935484]

>  <Interactions>  (1) 
["V-B:GLU:543:CB:9878, V-A:HIS:456:CE1:4068, V-A:HIS:456:CD2:4066, V-B:GLU:543:CD:9880, H-A:HIS:456:NE2:4069, V-A:GLU:543:CD:4906, V-B:HIS:456:CE1:9042, V-A:GLY:544:CA:4912, H-A:LYS:547:NZ:4949, V-B:GLY:544:C:9884, V-A:GLY:544:C:4910, H-B:GLU:543:O:9875, V-B:HIS:456:CD2:9040, V-B:GLU:543:CG:9879, V-A:GLU:543:CG:4905, H-A:GLY:454:N:4048, V-B:GLU:543:C:9874, V-A:LYS:547:CE:4948, H-A:TYR:484:OH:4346, V-B:LYS:547:CE:9922, H-A:ARG:545:NE:4922, V-A:GLU:543:C:4900, V-B:TYR:539:CZ:9849, V-B:PRO:540:C:9853, V-A:ILE:369:CD1:3237, V-A:LEU:475:CD2:4257, V-B:PRO:540:CA:9855, V-B:TYR:539:C:9839, V-A:GLY:454:CA:4047, V-B:TYR:539:CD2:9846, V-B:TYR:539:CE2:9848, V-B:PRO:540:N:9856, H-A:ARG:545:NH2:4926, V-B:HIS:456:CG:9038, H-B:GLU:543:OE2:9882, V-B:HIS:456:CB:9037"]

$$$$
3ce_Grossjean_2025
     RDKit          3D

 45 47  0  0  0  0  0  0  0  0999 V2000
  129.9130  127.5410   71.2250 C   0  0  0  0  0  0  0  0  0  0  0  0
  129.3880  127.4390   69.8060 C   0  0  0  0  0  0  0  0  0  0  0  0
  128.0340  127.6210   69.5130 C   0  0  0  0  0  0  0  0  0  0  0  0
  127.6240  127.5220   68.1840 C   0  0  0  0  0  0  0  0  0  0  0  0
  128.5650  127.2460   67.1890 C   0  0  0  0  0  0  0  0  0  0  0  0
  129.9040  127.0650   67.5530 C   0  0  0  0  0  0  0  0  0  0  0  0
  130.8090  126.8090   66.5090 N   0  0  0  0  0  0  0  0  0  0  0  0
  131.1080  125.6230   65.9340 C   0  0  0  0  0  0  0  0  0  0  0  0
  130.6080  124.5410   66.2460 O   0  0  0  0  0  0  0  0  0  0  0  0
  132.1430  125.6730   64.8110 C   0  0  0  0  0  0  0  0  0  0  0  0
  131.8690  124.3690   63.5750 S   0  0  0  0  0  0  0  0  0  0  0  0
  130.8430  125.1010   62.3210 C   0  0  0  0  0  0  0  0  0  0  0  0
  130.8110  126.4560   62.3570 N   0  0  0  0  0  0  0  0  0  0  0  0
  130.0710  127.1100   61.4320 C   0  0  0  0  0  0  0  0  0  0  0  0
  130.0900  128.6240   61.5220 C   0  0  0  0  0  0  0  0  0  0  0  0
  129.3330  126.4460   60.4560 C   0  0  0  0  0  0  0  0  0  0  0  0
  129.3330  125.0450   60.4180 C   0  0  0  0  0  0  0  0  0  0  0  0
  128.5060  124.3780   59.3690 C   0  0  0  0  0  0  0  0  0  0  0  0
  127.1090  124.4170   59.4450 C   0  0  0  0  0  0  0  0  0  0  0  0
  126.3310  123.7920   58.4740 C   0  0  0  0  0  0  0  0  0  0  0  0
  126.9480  123.1170   57.4240 C   0  0  0  0  0  0  0  0  0  0  0  0
  128.3370  123.0600   57.3400 C   0  0  0  0  0  0  0  0  0  0  0  0
  129.1120  123.6870   58.3120 C   0  0  0  0  0  0  0  0  0  0  0  0
  130.1120  124.3450   61.3740 C   0  0  0  0  0  0  0  0  0  0  0  0
  130.1630  122.8800   61.3750 C   0  0  0  0  0  0  0  0  0  0  0  0
  130.2030  121.7240   61.3740 N   0  0  0  0  0  0  0  0  0  0  0  0
  130.3140  127.1670   68.8520 N   0  0  0  0  0  0  0  0  0  0  0  0
  129.0873  127.3806   71.9339 H   0  0  0  0  0  0  0  0  0  0  0  0
  130.6876  126.7765   71.3852 H   0  0  0  0  0  0  0  0  0  0  0  0
  130.3450  128.5399   71.3852 H   0  0  0  0  0  0  0  0  0  0  0  0
  127.3090  127.8372   70.3115 H   0  0  0  0  0  0  0  0  0  0  0  0
  126.5651  127.6605   67.9203 H   0  0  0  0  0  0  0  0  0  0  0  0
  128.2580  127.1721   66.1353 H   0  0  0  0  0  0  0  0  0  0  0  0
  131.2150  127.6310   66.0880 H   0  0  0  0  0  0  0  0  0  0  0  0
  132.0808  126.6523   64.3139 H   0  0  0  0  0  0  0  0  0  0  0  0
  133.1363  125.5157   65.2568 H   0  0  0  0  0  0  0  0  0  0  0  0
  130.0938  128.9285   62.5790 H   0  0  0  0  0  0  0  0  0  0  0  0
  130.9931  129.0095   61.0261 H   0  0  0  0  0  0  0  0  0  0  0  0
  129.1969  129.0320   61.0261 H   0  0  0  0  0  0  0  0  0  0  0  0
  128.7523  127.0185   59.7178 H   0  0  0  0  0  0  0  0  0  0  0  0
  126.6221  124.9453   60.2780 H   0  0  0  0  0  0  0  0  0  0  0  0
  125.2335  123.8313   58.5361 H   0  0  0  0  0  0  0  0  0  0  0  0
  126.3339  122.6252   56.6552 H   0  0  0  0  0  0  0  0  0  0  0  0
  128.8192  122.5225   56.5102 H   0  0  0  0  0  0  0  0  0  0  0  0
  130.2092  123.6393   58.2493 H   0  0  0  0  0  0  0  0  0  0  0  0
  1  2  1  0
  2  3  2  0
  3  4  1  0
  4  5  2  0
  5  6  1  0
  6  7  1  0
  7  8  1  0
  8  9  2  0
  8 10  1  0
 10 11  1  0
 11 12  1  0
 12 13  2  0
 13 14  1  0
 14 15  1  0
 14 16  2  0
 16 17  1  0
 17 18  1  0
 18 19  2  0
 19 20  1  0
 20 21  2  0
 21 22  1  0
 22 23  2  0
 17 24  2  0
 24 25  1  0
 25 26  3  0
  6 27  2  0
 27  2  1  0
 24 12  1  0
 23 18  1  0
  1 28  1  0
  1 29  1  0
  1 30  1  0
  3 31  1  0
  4 32  1  0
  5 33  1  0
  7 34  1  0
 10 35  1  0
 10 36  1  0
 15 37  1  0
 15 38  1  0
 15 39  1  0
 16 40  1  0
 19 41  1  0
 20 42  1  0
 21 43  1  0
 22 44  1  0
 23 45  1  0
M  END
>  <Binding energies>  (1) 
[-7.58]

>  <Ligand effiencies>  (1) 
[-0.27071428571428574]

>  <Interactions>  (1) 
["V-B:GLU:543:CB:9878, V-A:HIS:456:CE1:4068, V-B:GLU:543:CD:9880, V-A:GLU:543:CD:4906, V-B:HIS:456:CE1:9042, V-A:GLY:544:CA:4912, V-B:GLY:544:C:9884, V-A:GLY:544:C:4910, V-B:GLU:543:CG:9879, V-A:GLU:543:CG:4905, V-A:ARG:545:CZ:4924, V-A:ARG:545:CG:4920, H-A:TYR:484:OH:4346, V-A:ARG:545:CD:4921, V-B:TYR:539:CZ:9849, V-B:TYR:539:CG:9844, V-B:PRO:540:CA:9855, V-B:TYR:539:C:9839, V-B:ALA:541:CB:9864, V-B:TYR:539:CD2:9846, V-B:TYR:539:CE2:9848, V-B:PRO:540:N:9856, V-B:PRO:540:CB:9857, H-A:ARG:545:NH2:4926, H-A:GLU:543:OE2:4908, V-B:ARG:545:CG:9894"]

$$$$
3ch_Grossjean_2025
     RDKit          3D

 55 57  0  0  0  0  0  0  0  0999 V2000
  134.3690  123.8740   60.5940 C   0  0  0  0  0  0  0  0  0  0  0  0
  134.1540  124.2070   61.9610 O   0  0  0  0  0  0  0  0  0  0  0  0
  132.9820  124.8400   62.3340 C   0  0  0  0  0  0  0  0  0  0  0  0
  132.1050  125.4620   61.4310 C   0  0  0  0  0  0  0  0  0  0  0  0
  130.9280  126.0780   61.8800 C   0  0  0  0  0  0  0  0  0  0  0  0
  129.9870  126.7200   61.0530 N   0  0  0  0  0  0  0  0  0  0  0  0
  130.1350  127.2250   59.8090 C   0  0  0  0  0  0  0  0  0  0  0  0
  131.1710  127.1960   59.1450 O   0  0  0  0  0  0  0  0  0  0  0  0
  128.8780  127.8380   59.1920 C   0  0  0  0  0  0  0  0  0  0  0  0
  127.7830  126.5790   58.4720 S   0  0  0  0  0  0  0  0  0  0  0  0
  127.9340  125.1410   59.5100 C   0  0  0  0  0  0  0  0  0  0  0  0
  126.9270  125.0030   60.4080 N   0  0  0  0  0  0  0  0  0  0  0  0
  126.9530  123.9450   61.2490 C   0  0  0  0  0  0  0  0  0  0  0  0
  125.8000  123.8540   62.2310 C   0  0  0  0  0  0  0  0  0  0  0  0
  127.9710  122.9950   61.2310 C   0  0  0  0  0  0  0  0  0  0  0  0
  129.0170  123.1170   60.3050 C   0  0  0  0  0  0  0  0  0  0  0  0
  130.0940  122.0800   60.3290 C   0  0  0  0  0  0  0  0  0  0  0  0
  131.4200  122.4370   60.0600 C   0  0  0  0  0  0  0  0  0  0  0  0
  132.4270  121.4760   60.0720 C   0  0  0  0  0  0  0  0  0  0  0  0
  132.1090  120.1480   60.3500 C   0  0  0  0  0  0  0  0  0  0  0  0
  130.7940  119.7760   60.6130 C   0  0  0  0  0  0  0  0  0  0  0  0
  129.7900  120.7410   60.5990 C   0  0  0  0  0  0  0  0  0  0  0  0
  128.9940  124.2110   59.4020 C   0  0  0  0  0  0  0  0  0  0  0  0
  130.0100  124.3360   58.3530 C   0  0  0  0  0  0  0  0  0  0  0  0
  130.8120  124.4360   57.5250 N   0  0  0  0  0  0  0  0  0  0  0  0
  130.6430  126.0840   63.2470 C   0  0  0  0  0  0  0  0  0  0  0  0
  131.5060  125.4700   64.1690 C   0  0  0  0  0  0  0  0  0  0  0  0
  131.2780  125.4340   65.5340 O   0  0  0  0  0  0  0  0  0  0  0  0
  130.1910  126.1710   66.0830 C   0  0  0  0  0  0  0  0  0  0  0  0
  132.6730  124.8540   63.7000 C   0  0  0  0  0  0  0  0  0  0  0  0
  133.5170  124.2350   64.5910 O   0  0  0  0  0  0  0  0  0  0  0  0
  134.0080  125.0900   65.6140 C   0  0  0  0  0  0  0  0  0  0  0  0
  134.9647  122.9514   60.5307 H   0  0  0  0  0  0  0  0  0  0  0  0
  133.3997  123.7194   60.0974 H   0  0  0  0  0  0  0  0  0  0  0  0
  134.9088  124.6938   60.0974 H   0  0  0  0  0  0  0  0  0  0  0  0
  132.3443  125.4661   60.3574 H   0  0  0  0  0  0  0  0  0  0  0  0
  129.0580  126.7700   61.4450 H   0  0  0  0  0  0  0  0  0  0  0  0
  128.3275  128.3805   59.9747 H   0  0  0  0  0  0  0  0  0  0  0  0
  129.1936  128.5135   58.3833 H   0  0  0  0  0  0  0  0  0  0  0  0
  126.1905  123.8848   63.2589 H   0  0  0  0  0  0  0  0  0  0  0  0
  125.1161  124.7010   62.0730 H   0  0  0  0  0  0  0  0  0  0  0  0
  125.2574  122.9102   62.0730 H   0  0  0  0  0  0  0  0  0  0  0  0
  127.9547  122.1535   61.9393 H   0  0  0  0  0  0  0  0  0  0  0  0
  131.6685  123.4852   59.8373 H   0  0  0  0  0  0  0  0  0  0  0  0
  133.4681  121.7633   59.8632 H   0  0  0  0  0  0  0  0  0  0  0  0
  132.9038  119.3876   60.3617 H   0  0  0  0  0  0  0  0  0  0  0  0
  130.5491  118.7259   60.8307 H   0  0  0  0  0  0  0  0  0  0  0  0
  128.7493  120.4482   60.8019 H   0  0  0  0  0  0  0  0  0  0  0  0
  129.7282  126.5774   63.6072 H   0  0  0  0  0  0  0  0  0  0  0  0
  130.2421  126.1364   67.1813 H   0  0  0  0  0  0  0  0  0  0  0  0
  130.2495  127.2165   65.7460 H   0  0  0  0  0  0  0  0  0  0  0  0
  129.2414  125.7297   65.7460 H   0  0  0  0  0  0  0  0  0  0  0  0
  133.7628  124.6631   66.5977 H   0  0  0  0  0  0  0  0  0  0  0  0
  135.0995  125.1872   65.5182 H   0  0  0  0  0  0  0  0  0  0  0  0
  133.5418  126.0817   65.5182 H   0  0  0  0  0  0  0  0  0  0  0  0
  1  2  1  0
  2  3  1  0
  3  4  2  0
  4  5  1  0
  5  6  1  0
  6  7  1  0
  7  8  2  0
  7  9  1  0
  9 10  1  0
 10 11  1  0
 11 12  2  0
 12 13  1  0
 13 14  1  0
 13 15  2  0
 15 16  1  0
 16 17  1  0
 17 18  2  0
 18 19  1  0
 19 20  2  0
 20 21  1  0
 21 22  2  0
 16 23  2  0
 23 24  1  0
 24 25  3  0
  5 26  2  0
 26 27  1  0
 27 28  1  0
 28 29  1  0
 27 30  2  0
 30 31  1  0
 31 32  1  0
 30  3  1  0
 23 11  1  0
 22 17  1  0
  1 33  1  0
  1 34  1  0
  1 35  1  0
  4 36  1  0
  6 37  1  0
  9 38  1  0
  9 39  1  0
 14 40  1  0
 14 41  1  0
 14 42  1  0
 15 43  1  0
 18 44  1  0
 19 45  1  0
 20 46  1  0
 21 47  1  0
 22 48  1  0
 26 49  1  0
 29 50  1  0
 29 51  1  0
 29 52  1  0
 32 53  1  0
 32 54  1  0
 32 55  1  0
M  END
>  <Binding energies>  (1) 
[-5.72]

>  <Ligand effiencies>  (1) 
[-0.17333333333333334]

>  <Interactions>  (1) 
["V-B:GLU:543:CB:9878, V-A:HIS:456:CE1:4068, V-B:GLU:543:CD:9880, V-A:GLU:543:CD:4906, V-B:GLU:543:CG:9879, H-A:GLY:454:N:4048, V-A:ARG:545:CZ:4924, V-A:ARG:545:CG:4920, H-A:TYR:484:OH:4346, V-A:ARG:545:CD:4921, H-B:GLU:543:OE1:9881, V-B:PRO:540:C:9853, V-A:GLY:453:C:4040, V-A:TRP:381:CZ2:3368, V-A:ILE:369:CD1:3237, V-A:LEU:475:CD2:4257, V-A:TRP:381:CH2:3370, V-B:PRO:540:CA:9855, V-A:GLY:453:CA:4042, V-B:TYR:539:C:9839, V-B:ALA:541:CA:9862, V-A:ASP:366:CG:3211, V-A:GLY:454:CA:4047, V-B:ALA:541:CB:9864, V-B:TYR:539:CD2:9846, V-B:TYR:539:CE2:9848, V-A:ILE:369:CG2:3235, H-B:TYR:539:OH:9850, V-B:ALA:541:C:9860"]

$$$$
3ci_Grossjean_2025
     RDKit          3D

 39 41  0  0  0  0  0  0  0  0999 V2000
  130.6220  121.1490   61.5000 C   0  0  0  0  0  0  0  0  0  0  0  0
  130.4350  122.1220   60.3510 C   0  0  0  0  0  0  0  0  0  0  0  0
  129.1850  122.3550   59.7860 C   0  0  0  0  0  0  0  0  0  0  0  0
  129.0590  123.2750   58.7370 C   0  0  0  0  0  0  0  0  0  0  0  0
  127.6950  123.5050   58.1720 C   0  0  0  0  0  0  0  0  0  0  0  0
  126.6760  124.0520   58.9620 C   0  0  0  0  0  0  0  0  0  0  0  0
  125.4040  124.2560   58.4330 C   0  0  0  0  0  0  0  0  0  0  0  0
  125.1440  123.9060   57.1110 C   0  0  0  0  0  0  0  0  0  0  0  0
  126.1440  123.3520   56.3150 C   0  0  0  0  0  0  0  0  0  0  0  0
  127.4140  123.1510   56.8470 C   0  0  0  0  0  0  0  0  0  0  0  0
  130.2270  123.9350   58.2760 C   0  0  0  0  0  0  0  0  0  0  0  0
  130.1650  124.8760   57.1520 C   0  0  0  0  0  0  0  0  0  0  0  0
  130.1130  125.6200   56.2660 N   0  0  0  0  0  0  0  0  0  0  0  0
  131.4590  123.6430   58.9100 C   0  0  0  0  0  0  0  0  0  0  0  0
  132.9890  124.4320   58.4240 S   0  0  0  0  0  0  0  0  0  0  0  0
  134.3470  123.8260   59.4780 C   0  0  0  0  0  0  0  0  0  0  0  0
  133.9420  123.6430   60.9460 C   0  0  0  0  0  0  0  0  0  0  0  0
  133.9470  122.5120   61.4350 O   0  0  0  0  0  0  0  0  0  0  0  0
  133.5880  124.7710   61.6010 N   0  0  0  0  0  0  0  0  0  0  0  0
  133.2110  124.8870   62.9320 C   0  0  0  0  0  0  0  0  0  0  0  0
  131.8800  124.8780   63.3490 C   0  0  0  0  0  0  0  0  0  0  0  0
  131.9330  125.0170   64.7170 C   0  0  0  0  0  0  0  0  0  0  0  0
  133.2290  125.1030   65.1030 O   0  0  0  0  0  0  0  0  0  0  0  0
  134.0290  125.0200   63.9630 N   0  0  0  0  0  0  0  0  0  0  0  0
  131.5550  122.7460   59.9240 N   0  0  0  0  0  0  0  0  0  0  0  0
  130.5190  121.6851   62.4550 H   0  0  0  0  0  0  0  0  0  0  0  0
  129.8593  120.3587   61.4390 H   0  0  0  0  0  0  0  0  0  0  0  0
  131.6233  120.6977   61.4390 H   0  0  0  0  0  0  0  0  0  0  0  0
  128.3003  121.8196   60.1610 H   0  0  0  0  0  0  0  0  0  0  0  0
  126.8820  124.3225   60.0081 H   0  0  0  0  0  0  0  0  0  0  0  0
  124.6091  124.6913   59.0564 H   0  0  0  0  0  0  0  0  0  0  0  0
  124.1403  124.0683   56.6913 H   0  0  0  0  0  0  0  0  0  0  0  0
  125.9309  123.0750   55.2720 H   0  0  0  0  0  0  0  0  0  0  0  0
  128.2039  122.7102   56.2211 H   0  0  0  0  0  0  0  0  0  0  0  0
  134.6865  122.8558   59.0862 H   0  0  0  0  0  0  0  0  0  0  0  0
  135.1424  124.5854   59.4523 H   0  0  0  0  0  0  0  0  0  0  0  0
  133.6210  125.6360   61.0830 H   0  0  0  0  0  0  0  0  0  0  0  0
  130.9825  124.7808   62.7205 H   0  0  0  0  0  0  0  0  0  0  0  0
  131.0630  125.0526   65.3892 H   0  0  0  0  0  0  0  0  0  0  0  0
  1  2  1  0
  2  3  2  0
  3  4  1  0
  4  5  1  0
  5  6  2  0
  6  7  1  0
  7  8  2  0
  8  9  1  0
  9 10  2  0
  4 11  2  0
 11 12  1  0
 12 13  3  0
 11 14  1  0
 14 15  1  0
 15 16  1  0
 16 17  1  0
 17 18  2  0
 17 19  1  0
 19 20  1  0
 20 21  1  0
 21 22  2  0
 22 23  1  0
 23 24  1  0
 14 25  2  0
 25  2  1  0
 10  5  1  0
 24 20  2  0
  1 26  1  0
  1 27  1  0
  1 28  1  0
  3 29  1  0
  6 30  1  0
  7 31  1  0
  8 32  1  0
  9 33  1  0
 10 34  1  0
 16 35  1  0
 16 36  1  0
 19 37  1  0
 21 38  1  0
 22 39  1  0
M  END
>  <Binding energies>  (1) 
[-8.29]

>  <Ligand effiencies>  (1) 
[-0.31884615384615383]

>  <Interactions>  (1) 
["H-A:GLY:454:N:4048, V-A:ARG:545:CZ:4924, H-A:TYR:484:OH:4346, H-A:ARG:545:NH1:4925, H-A:ARG:545:NE:4922, V-B:TYR:539:CZ:9849, V-A:ILE:369:CD1:3237, V-A:LEU:475:CD2:4257, V-B:PRO:540:CA:9855, V-B:TYR:539:C:9839, V-A:ASP:366:CG:3211, V-B:PRO:540:CD:9859, V-B:ALA:541:CB:9864, V-B:TYR:539:CD2:9846, V-B:TYR:539:CE2:9848, V-A:ILE:369:CG2:3235, V-B:PRO:540:N:9856, V-B:PRO:540:CB:9857, V-A:ASP:366:CA:3208, V-A:ASP:366:CB:3210, V-A:ILE:369:CG1:3236, V-A:ILE:369:CB:3234, H-A:ARG:545:NH2:4926, H-B:TYR:539:OH:9850, H-A:ASP:366:OD2:3213, H-A:ASP:366:OD1:3212"]

$$$$
3cj_Grossjean_2025
     RDKit          3D

 39 41  0  0  0  0  0  0  0  0999 V2000
  130.5660  121.0920   61.4580 C   0  0  0  0  0  0  0  0  0  0  0  0
  130.3910  122.0850   60.3250 C   0  0  0  0  0  0  0  0  0  0  0  0
  129.1510  122.2950   59.7270 C   0  0  0  0  0  0  0  0  0  0  0  0
  129.0300  123.2390   58.6980 C   0  0  0  0  0  0  0  0  0  0  0  0
  127.6700  123.4780   58.1300 C   0  0  0  0  0  0  0  0  0  0  0  0
  126.6550  124.0270   58.9230 C   0  0  0  0  0  0  0  0  0  0  0  0
  125.3840  124.2380   58.3960 C   0  0  0  0  0  0  0  0  0  0  0  0
  125.1210  123.8930   57.0740 C   0  0  0  0  0  0  0  0  0  0  0  0
  126.1170  123.3370   56.2760 C   0  0  0  0  0  0  0  0  0  0  0  0
  127.3880  123.1280   56.8040 C   0  0  0  0  0  0  0  0  0  0  0  0
  130.1930  123.9290   58.2750 C   0  0  0  0  0  0  0  0  0  0  0  0
  130.1360  124.9070   57.1840 C   0  0  0  0  0  0  0  0  0  0  0  0
  130.0900  125.6800   56.3240 N   0  0  0  0  0  0  0  0  0  0  0  0
  131.4080  123.6560   58.9420 C   0  0  0  0  0  0  0  0  0  0  0  0
  132.9120  124.5460   58.6020 S   0  0  0  0  0  0  0  0  0  0  0  0
  134.1590  123.7890   59.6920 C   0  0  0  0  0  0  0  0  0  0  0  0
  133.6620  123.6770   61.1370 C   0  0  0  0  0  0  0  0  0  0  0  0
  133.6960  122.5850   61.7080 O   0  0  0  0  0  0  0  0  0  0  0  0
  133.2480  124.8340   61.6980 N   0  0  0  0  0  0  0  0  0  0  0  0
  132.8820  125.0280   63.0200 C   0  0  0  0  0  0  0  0  0  0  0  0
  133.6570  125.0200   64.0820 N   0  0  0  0  0  0  0  0  0  0  0  0
  132.9740  125.2720   65.1810 C   0  0  0  0  0  0  0  0  0  0  0  0
  131.6090  125.4910   65.0210 C   0  0  0  0  0  0  0  0  0  0  0  0
  131.2080  125.3570   63.3340 S   0  0  0  0  0  0  0  0  0  0  0  0
  131.5030  122.7580   59.9540 N   0  0  0  0  0  0  0  0  0  0  0  0
  130.4738  121.6149   62.4214 H   0  0  0  0  0  0  0  0  0  0  0  0
  129.7910  120.3146   61.3872 H   0  0  0  0  0  0  0  0  0  0  0  0
  131.5601  120.6263   61.3872 H   0  0  0  0  0  0  0  0  0  0  0  0
  128.2720  121.7236   60.0601 H   0  0  0  0  0  0  0  0  0  0  0  0
  126.8634  124.2934   59.9697 H   0  0  0  0  0  0  0  0  0  0  0  0
  124.5917  124.6752   59.0214 H   0  0  0  0  0  0  0  0  0  0  0  0
  124.1175  124.0610   56.6558 H   0  0  0  0  0  0  0  0  0  0  0  0
  125.9006  123.0640   55.2326 H   0  0  0  0  0  0  0  0  0  0  0  0
  128.1752  122.6854   56.1759 H   0  0  0  0  0  0  0  0  0  0  0  0
  134.3941  122.7817   59.3177 H   0  0  0  0  0  0  0  0  0  0  0  0
  135.0515  124.4320   59.6872 H   0  0  0  0  0  0  0  0  0  0  0  0
  133.2870  125.6660   61.1270 H   0  0  0  0  0  0  0  0  0  0  0  0
  133.4560  125.3072   66.1692 H   0  0  0  0  0  0  0  0  0  0  0  0
  130.8984  125.7130   65.8308 H   0  0  0  0  0  0  0  0  0  0  0  0
  1  2  1  0
  2  3  2  0
  3  4  1  0
  4  5  1  0
  5  6  2  0
  6  7  1  0
  7  8  2  0
  8  9  1  0
  9 10  2  0
  4 11  2  0
 11 12  1  0
 12 13  3  0
 11 14  1  0
 14 15  1  0
 15 16  1  0
 16 17  1  0
 17 18  2  0
 17 19  1  0
 19 20  1  0
 20 21  2  0
 21 22  1  0
 22 23  2  0
 23 24  1  0
 14 25  2  0
 25  2  1  0
 10  5  1  0
 24 20  1  0
  1 26  1  0
  1 27  1  0
  1 28  1  0
  3 29  1  0
  6 30  1  0
  7 31  1  0
  8 32  1  0
  9 33  1  0
 10 34  1  0
 16 35  1  0
 16 36  1  0
 19 37  1  0
 22 38  1  0
 23 39  1  0
M  END
>  <Binding energies>  (1) 
[-8.03]

>  <Ligand effiencies>  (1) 
[-0.3088461538461538]

>  <Interactions>  (1) 
["V-A:HIS:456:CE1:4068, H-A:GLY:454:N:4048, V-A:ARG:545:CZ:4924, V-A:ARG:545:CG:4920, H-A:TYR:484:OH:4346, V-A:ARG:545:CD:4921, H-A:ARG:545:NH1:4925, H-A:ARG:545:NE:4922, V-B:TYR:539:CZ:9849, V-A:ILE:369:CD1:3237, V-A:LEU:475:CD2:4257, V-B:PRO:540:CA:9855, V-B:TYR:539:C:9839, V-A:ASP:366:CG:3211, V-B:PRO:540:CD:9859, V-B:ALA:541:CB:9864, V-B:TYR:539:CD2:9846, V-B:TYR:539:CE2:9848, V-A:ILE:369:CG2:3235, V-B:PRO:540:N:9856, V-B:PRO:540:CB:9857, V-A:ASP:366:CA:3208, V-A:ILE:369:CB:3234, H-A:ARG:545:NH2:4926, H-A:ASP:366:OD2:3213, H-A:ASP:366:OD1:3212"]

$$$$
3ck_Grossjean_2025
     RDKit          3D

 57 58  0  0  0  0  0  0  0  0999 V2000
  127.3500  128.3860   72.8240 C   0  0  0  0  0  0  0  0  0  0  0  0
  128.7280  128.7150   72.7460 O   0  0  0  0  0  0  0  0  0  0  0  0
  129.3730  128.1810   71.5980 C   0  0  0  0  0  0  0  0  0  0  0  0
  128.3190  127.6640   70.6100 C   0  0  0  0  0  0  0  0  0  0  0  0
  128.8590  127.6810   69.2950 O   0  0  0  0  0  0  0  0  0  0  0  0
  127.9370  127.2840   68.2880 C   0  0  0  0  0  0  0  0  0  0  0  0
  127.9980  128.2870   67.1290 C   0  0  0  0  0  0  0  0  0  0  0  0
  126.7670  128.2310   66.4240 O   0  0  0  0  0  0  0  0  0  0  0  0
  126.3160  129.4760   65.9140 C   0  0  0  0  0  0  0  0  0  0  0  0
  126.0700  129.3540   64.3980 C   0  0  0  0  0  0  0  0  0  0  0  0
  127.2010  128.7810   63.6620 N   0  0  0  0  0  0  0  0  0  0  0  0
  127.6670  129.2170   62.4780 C   0  0  0  0  0  0  0  0  0  0  0  0
  127.1970  130.1880   61.8820 O   0  0  0  0  0  0  0  0  0  0  0  0
  128.8490  128.4220   61.8990 C   0  0  0  0  0  0  0  0  0  0  0  0
  128.4940  126.6800   61.4840 S   0  0  0  0  0  0  0  0  0  0  0  0
  129.7820  125.6430   62.1610 C   0  0  0  0  0  0  0  0  0  0  0  0
  130.2670  126.0240   63.3690 N   0  0  0  0  0  0  0  0  0  0  0  0
  131.2470  125.2870   63.9380 C   0  0  0  0  0  0  0  0  0  0  0  0
  131.7400  125.7760   65.2860 C   0  0  0  0  0  0  0  0  0  0  0  0
  131.7790  124.1520   63.3340 C   0  0  0  0  0  0  0  0  0  0  0  0
  131.2980  123.7420   62.0830 C   0  0  0  0  0  0  0  0  0  0  0  0
  131.9140  122.5320   61.4620 C   0  0  0  0  0  0  0  0  0  0  0  0
  133.3060  122.4330   61.3470 C   0  0  0  0  0  0  0  0  0  0  0  0
  133.8880  121.3110   60.7590 C   0  0  0  0  0  0  0  0  0  0  0  0
  133.0780  120.2870   60.2790 C   0  0  0  0  0  0  0  0  0  0  0  0
  131.6910  120.3750   60.3790 C   0  0  0  0  0  0  0  0  0  0  0  0
  131.1130  121.4960   60.9660 C   0  0  0  0  0  0  0  0  0  0  0  0
  130.2610  124.5000   61.4800 C   0  0  0  0  0  0  0  0  0  0  0  0
  129.6890  124.0950   60.1910 C   0  0  0  0  0  0  0  0  0  0  0  0
  129.2380  123.7740   59.1740 N   0  0  0  0  0  0  0  0  0  0  0  0
  127.0494  128.3142   73.8797 H   0  0  0  0  0  0  0  0  0  0  0  0
  126.7576  129.1680   72.3264 H   0  0  0  0  0  0  0  0  0  0  0  0
  127.1747  127.4208   72.3264 H   0  0  0  0  0  0  0  0  0  0  0  0
  129.9724  128.9672   71.1158 H   0  0  0  0  0  0  0  0  0  0  0  0
  130.0290  127.3513   71.9000 H   0  0  0  0  0  0  0  0  0  0  0  0
  128.0374  126.6351   70.8783 H   0  0  0  0  0  0  0  0  0  0  0  0
  127.4284  128.3083   70.6509 H   0  0  0  0  0  0  0  0  0  0  0  0
  128.2009  126.2810   67.9215 H   0  0  0  0  0  0  0  0  0  0  0  0
  126.9194  127.2607   68.7052 H   0  0  0  0  0  0  0  0  0  0  0  0
  128.1546  129.3018   67.5235 H   0  0  0  0  0  0  0  0  0  0  0  0
  128.8313  128.0371   66.4558 H   0  0  0  0  0  0  0  0  0  0  0  0
  125.3788  129.7593   66.4155 H   0  0  0  0  0  0  0  0  0  0  0  0
  127.0798  130.2455   66.0997 H   0  0  0  0  0  0  0  0  0  0  0  0
  125.1911  128.7118   64.2393 H   0  0  0  0  0  0  0  0  0  0  0  0
  125.9195  130.3736   64.0135 H   0  0  0  0  0  0  0  0  0  0  0  0
  127.6530  127.9880   64.0920 H   0  0  0  0  0  0  0  0  0  0  0  0
  129.1812  128.9285   60.9808 H   0  0  0  0  0  0  0  0  0  0  0  0
  129.6124  128.3951   62.6905 H   0  0  0  0  0  0  0  0  0  0  0  0
  131.2046  125.2450   66.0869 H   0  0  0  0  0  0  0  0  0  0  0  0
  132.8190  125.5812   65.3745 H   0  0  0  0  0  0  0  0  0  0  0  0
  131.5540  126.8565   65.3745 H   0  0  0  0  0  0  0  0  0  0  0  0
  132.5730  123.5794   63.8357 H   0  0  0  0  0  0  0  0  0  0  0  0
  133.9445  123.2459   61.7231 H   0  0  0  0  0  0  0  0  0  0  0  0
  134.9822  121.2358   60.6750 H   0  0  0  0  0  0  0  0  0  0  0  0
  133.5363  119.4003   59.8166 H   0  0  0  0  0  0  0  0  0  0  0  0
  131.0564  119.5623   59.9958 H   0  0  0  0  0  0  0  0  0  0  0  0
  130.0180  121.5692   61.0411 H   0  0  0  0  0  0  0  0  0  0  0  0
  1  2  1  0
  2  3  1  0
  3  4  1  0
  4  5  1  0
  5  6  1  0
  6  7  1  0
  7  8  1  0
  8  9  1  0
  9 10  1  0
 10 11  1  0
 11 12  1  0
 12 13  2  0
 12 14  1  0
 14 15  1  0
 15 16  1  0
 16 17  2  0
 17 18  1  0
 18 19  1  0
 18 20  2  0
 20 21  1  0
 21 22  1  0
 22 23  2  0
 23 24  1  0
 24 25  2  0
 25 26  1  0
 26 27  2  0
 21 28  2  0
 28 29  1  0
 29 30  3  0
 28 16  1  0
 27 22  1  0
  1 31  1  0
  1 32  1  0
  1 33  1  0
  3 34  1  0
  3 35  1  0
  4 36  1  0
  4 37  1  0
  6 38  1  0
  6 39  1  0
  7 40  1  0
  7 41  1  0
  9 42  1  0
  9 43  1  0
 10 44  1  0
 10 45  1  0
 11 46  1  0
 14 47  1  0
 14 48  1  0
 19 49  1  0
 19 50  1  0
 19 51  1  0
 20 52  1  0
 23 53  1  0
 24 54  1  0
 25 55  1  0
 26 56  1  0
 27 57  1  0
M  END
>  <Binding energies>  (1) 
[-6.0]

>  <Ligand effiencies>  (1) 
[-0.1935483870967742]

>  <Interactions>  (1) 
["V-B:ARG:545:CZ:9898, V-A:HIS:456:CE1:4068, V-B:GLU:543:CD:9880, V-A:GLU:543:CD:4906, V-B:HIS:456:CE1:9042, V-A:GLY:544:CA:4912, H-A:LYS:547:NZ:4949, V-B:GLY:544:C:9884, V-A:GLY:544:C:4910, H-B:ARG:545:NE:9896, V-B:HIS:456:CD2:9040, V-A:GLU:543:CB:4904, V-B:GLU:543:CG:9879, V-A:GLU:543:CG:4905, V-B:GLU:543:C:9874, V-A:ARG:545:CZ:4924, V-A:ARG:545:CG:4920, V-A:ARG:545:CD:4921, H-B:GLU:543:OE1:9881, V-A:TRP:381:CZ2:3368, V-A:ILE:369:CD1:3237, V-A:LEU:475:CD2:4257, V-A:TRP:381:CH2:3370, V-B:TYR:539:CD2:9846, V-B:TYR:539:CE2:9848, V-A:ILE:369:CG2:3235, H-A:GLU:543:OE2:4908, H-A:GLU:543:OE1:4907, V-B:HIS:456:CG:9038, H-B:GLU:543:OE2:9882"]

$$$$
4aa_Grossjean_2025
     RDKit          3D

 45 47  0  0  0  0  0  0  0  0999 V2000
  129.4890  126.1570   72.1650 C   0  0  0  0  0  0  0  0  0  0  0  0
  129.8960  127.5980   72.4860 C   0  0  0  0  0  0  0  0  0  0  0  0
  129.3130  128.4770   71.5320 O   0  0  0  0  0  0  0  0  0  0  0  0
  128.4140  128.0250   70.6190 C   0  0  0  0  0  0  0  0  0  0  0  0
  127.2020  127.9440   70.8410 O   0  0  0  0  0  0  0  0  0  0  0  0
  129.0420  127.6300   69.3140 C   0  0  0  0  0  0  0  0  0  0  0  0
  128.2190  127.2470   68.2470 C   0  0  0  0  0  0  0  0  0  0  0  0
  128.7710  126.8700   67.0260 C   0  0  0  0  0  0  0  0  0  0  0  0
  130.1540  126.8760   66.8430 C   0  0  0  0  0  0  0  0  0  0  0  0
  130.6050  126.4690   65.5730 N   0  0  0  0  0  0  0  0  0  0  0  0
  131.7310  125.8040   65.2170 C   0  0  0  0  0  0  0  0  0  0  0  0
  132.6140  125.4670   66.0060 O   0  0  0  0  0  0  0  0  0  0  0  0
  131.8600  125.5160   63.7870 C   0  0  0  0  0  0  0  0  0  0  0  0
  133.2580  124.6210   63.1830 S   0  0  0  0  0  0  0  0  0  0  0  0
  132.6890  124.7560   61.5340 C   0  0  0  0  0  0  0  0  0  0  0  0
  133.3650  124.2330   60.5100 N   0  0  0  0  0  0  0  0  0  0  0  0
  132.8170  124.4120   59.2830 C   0  0  0  0  0  0  0  0  0  0  0  0
  133.6040  123.8140   58.1310 C   0  0  0  0  0  0  0  0  0  0  0  0
  131.6210  125.0900   59.0590 C   0  0  0  0  0  0  0  0  0  0  0  0
  130.9140  125.6350   60.1370 C   0  0  0  0  0  0  0  0  0  0  0  0
  129.6120  126.3670   59.8420 C   0  0  0  0  0  0  0  0  0  0  0  0
  131.4580  125.4730   61.4390 C   0  0  0  0  0  0  0  0  0  0  0  0
  131.0110  125.8980   62.7380 C   0  0  0  0  0  0  0  0  0  0  0  0
  129.8510  126.6110   62.9140 N   0  0  0  0  0  0  0  0  0  0  0  0
  130.9870  127.2520   67.9070 C   0  0  0  0  0  0  0  0  0  0  0  0
  130.4330  127.6260   69.1290 C   0  0  0  0  0  0  0  0  0  0  0  0
  129.3325  125.6028   73.1022 H   0  0  0  0  0  0  0  0  0  0  0  0
  128.5568  126.1607   71.5811 H   0  0  0  0  0  0  0  0  0  0  0  0
  130.2854  125.6725   71.5811 H   0  0  0  0  0  0  0  0  0  0  0  0
  129.5429  127.8634   73.4934 H   0  0  0  0  0  0  0  0  0  0  0  0
  130.9916  127.6878   72.4470 H   0  0  0  0  0  0  0  0  0  0  0  0
  127.1265  127.2442   68.3752 H   0  0  0  0  0  0  0  0  0  0  0  0
  128.1121  126.5652   66.1996 H   0  0  0  0  0  0  0  0  0  0  0  0
  129.9920  126.7320   64.8140 H   0  0  0  0  0  0  0  0  0  0  0  0
  134.4208  123.1934   58.5280 H   0  0  0  0  0  0  0  0  0  0  0  0
  132.9374  123.1925   57.5151 H   0  0  0  0  0  0  0  0  0  0  0  0
  134.0241  124.6228   57.5151 H   0  0  0  0  0  0  0  0  0  0  0  0
  131.2324  125.1970   58.0355 H   0  0  0  0  0  0  0  0  0  0  0  0
  129.1233  126.6418   60.7884 H   0  0  0  0  0  0  0  0  0  0  0  0
  129.8262  127.2769   59.2622 H   0  0  0  0  0  0  0  0  0  0  0  0
  128.9459  125.7112   59.2622 H   0  0  0  0  0  0  0  0  0  0  0  0
  128.9480  126.1600   62.9490 H   0  0  0  0  0  0  0  0  0  0  0  0
  129.8620  127.6160   63.0140 H   0  0  0  0  0  0  0  0  0  0  0  0
  132.0792  127.2515   67.7762 H   0  0  0  0  0  0  0  0  0  0  0  0
  131.0930  127.9214   69.9580 H   0  0  0  0  0  0  0  0  0  0  0  0
  1  2  1  0
  2  3  1  0
  3  4  1  0
  4  5  2  0
  4  6  1  0
  6  7  2  0
  7  8  1  0
  8  9  2  0
  9 10  1  0
 10 11  1  0
 11 12  2  0
 11 13  1  0
 13 14  1  0
 14 15  1  0
 15 16  2  0
 16 17  1  0
 17 18  1  0
 17 19  2  0
 19 20  1  0
 20 21  1  0
 20 22  2  0
 22 23  1  0
 23 24  1  0
  9 25  1  0
 25 26  2  0
 26  6  1  0
 23 13  2  0
 22 15  1  0
  1 27  1  0
  1 28  1  0
  1 29  1  0
  2 30  1  0
  2 31  1  0
  7 32  1  0
  8 33  1  0
 10 34  1  0
 18 35  1  0
 18 36  1  0
 18 37  1  0
 19 38  1  0
 21 39  1  0
 21 40  1  0
 21 41  1  0
 24 42  1  0
 24 43  1  0
 25 44  1  0
 26 45  1  0
M  END
>  <Binding energies>  (1) 
[-7.21]

>  <Ligand effiencies>  (1) 
[-0.24862068965517242]

>  <Interactions>  (1) 
["V-B:GLU:543:CB:9878, V-A:HIS:456:CE1:4068, V-A:HIS:456:CD2:4066, V-B:GLU:543:CD:9880, V-A:GLU:543:CD:4906, V-B:HIS:456:CE1:9042, V-A:GLY:544:C:4910, V-B:HIS:456:CD2:9040, V-B:GLU:543:CG:9879, V-A:GLU:543:CG:4905, V-B:GLU:543:C:9874, V-A:ARG:545:CZ:4924, V-A:ARG:545:CG:4920, V-A:LYS:547:CE:4948, H-A:TYR:484:OH:4346, V-A:ARG:545:CD:4921, V-B:LYS:547:CE:9922, H-B:GLU:543:OE1:9881, H-A:ARG:545:NE:4922, V-A:GLU:543:C:4900, V-B:TYR:539:CZ:9849, V-A:ASP:366:CG:3211, V-B:TYR:539:CE2:9848, V-A:ILE:369:CG2:3235, V-A:ASP:366:CA:3208, V-A:ASP:366:CB:3210, V-A:ILE:369:CB:3234, H-A:GLU:543:OE2:4908, H-A:GLU:543:OE1:4907, H-B:HIS:456:ND1:9039, H-B:GLU:543:OE2:9882, H-B:ARG:545:N:9892, H-A:HIS:456:ND1:4065"]

$$$$
4ab_Grossjean_2025
     RDKit          3D

 42 44  0  0  0  0  0  0  0  0999 V2000
  130.0710  127.1660   72.5260 C   0  0  0  0  0  0  0  0  0  0  0  0
  129.4320  128.2880   71.9330 O   0  0  0  0  0  0  0  0  0  0  0  0
  128.3880  128.1270   71.0800 C   0  0  0  0  0  0  0  0  0  0  0  0
  127.2120  128.3290   71.3970 O   0  0  0  0  0  0  0  0  0  0  0  0
  128.8070  127.6720   69.7110 C   0  0  0  0  0  0  0  0  0  0  0  0
  130.1710  127.6270   69.3930 C   0  0  0  0  0  0  0  0  0  0  0  0
  130.5900  127.2120   68.1320 C   0  0  0  0  0  0  0  0  0  0  0  0
  129.6590  126.8250   67.1690 C   0  0  0  0  0  0  0  0  0  0  0  0
  130.1930  126.4300   65.9270 N   0  0  0  0  0  0  0  0  0  0  0  0
  131.4580  126.0750   65.5940 C   0  0  0  0  0  0  0  0  0  0  0  0
  132.4090  126.0830   66.3760 O   0  0  0  0  0  0  0  0  0  0  0  0
  131.6490  125.6890   64.1950 C   0  0  0  0  0  0  0  0  0  0  0  0
  133.0950  124.8020   63.7050 S   0  0  0  0  0  0  0  0  0  0  0  0
  132.5830  124.7960   62.0330 C   0  0  0  0  0  0  0  0  0  0  0  0
  133.3130  124.2260   61.0730 N   0  0  0  0  0  0  0  0  0  0  0  0
  132.8040  124.2930   59.8190 C   0  0  0  0  0  0  0  0  0  0  0  0
  133.6520  123.6430   58.7410 C   0  0  0  0  0  0  0  0  0  0  0  0
  131.5940  124.9080   59.5050 C   0  0  0  0  0  0  0  0  0  0  0  0
  130.8310  125.5060   60.5150 C   0  0  0  0  0  0  0  0  0  0  0  0
  129.5180  126.1660   60.1220 C   0  0  0  0  0  0  0  0  0  0  0  0
  131.3340  125.4590   61.8440 C   0  0  0  0  0  0  0  0  0  0  0  0
  130.8270  125.9640   63.0910 C   0  0  0  0  0  0  0  0  0  0  0  0
  129.6400  126.6480   63.1750 N   0  0  0  0  0  0  0  0  0  0  0  0
  128.2910  126.8710   67.4760 C   0  0  0  0  0  0  0  0  0  0  0  0
  127.8730  127.2900   68.7370 C   0  0  0  0  0  0  0  0  0  0  0  0
  130.0217  127.2526   73.6215 H   0  0  0  0  0  0  0  0  0  0  0  0
  129.5626  126.2439   72.2078 H   0  0  0  0  0  0  0  0  0  0  0  0
  131.1235  127.1329   72.2078 H   0  0  0  0  0  0  0  0  0  0  0  0
  130.9167  127.9220   70.1459 H   0  0  0  0  0  0  0  0  0  0  0  0
  131.6636  127.1892   67.8936 H   0  0  0  0  0  0  0  0  0  0  0  0
  129.5230  126.4270   65.1730 H   0  0  0  0  0  0  0  0  0  0  0  0
  134.4415  123.0379   59.2106 H   0  0  0  0  0  0  0  0  0  0  0  0
  133.0182  122.9972   58.1155 H   0  0  0  0  0  0  0  0  0  0  0  0
  134.1109  124.4229   58.1155 H   0  0  0  0  0  0  0  0  0  0  0  0
  131.2384  124.9237   58.4642 H   0  0  0  0  0  0  0  0  0  0  0  0
  128.9621  126.4454   61.0292 H   0  0  0  0  0  0  0  0  0  0  0  0
  129.7246  127.0674   59.5263 H   0  0  0  0  0  0  0  0  0  0  0  0
  128.9178  125.4625   59.5263 H   0  0  0  0  0  0  0  0  0  0  0  0
  128.7500  126.1890   63.0510 H   0  0  0  0  0  0  0  0  0  0  0  0
  129.6200  127.6420   63.3600 H   0  0  0  0  0  0  0  0  0  0  0  0
  127.5479  126.5760   66.7205 H   0  0  0  0  0  0  0  0  0  0  0  0
  126.7987  127.3216   68.9714 H   0  0  0  0  0  0  0  0  0  0  0  0
  1  2  1  0
  2  3  1  0
  3  4  2  0
  3  5  1  0
  5  6  2  0
  6  7  1  0
  7  8  2  0
  8  9  1  0
  9 10  1  0
 10 11  2  0
 10 12  1  0
 12 13  1  0
 13 14  1  0
 14 15  2  0
 15 16  1  0
 16 17  1  0
 16 18  2  0
 18 19  1  0
 19 20  1  0
 19 21  2  0
 21 22  1  0
 22 23  1  0
  8 24  1  0
 24 25  2  0
 25  5  1  0
 22 12  2  0
 21 14  1  0
  1 26  1  0
  1 27  1  0
  1 28  1  0
  6 29  1  0
  7 30  1  0
  9 31  1  0
 17 32  1  0
 17 33  1  0
 17 34  1  0
 18 35  1  0
 20 36  1  0
 20 37  1  0
 20 38  1  0
 23 39  1  0
 23 40  1  0
 24 41  1  0
 25 42  1  0
M  END
>  <Binding energies>  (1) 
[-6.92]

>  <Ligand effiencies>  (1) 
[-0.24714285714285714]

>  <Interactions>  (1) 
["V-B:GLU:543:CB:9878, V-A:HIS:456:CE1:4068, V-B:GLU:543:CD:9880, V-A:GLU:543:CD:4906, V-B:HIS:456:CE1:9042, V-A:GLY:544:C:4910, V-B:HIS:456:CD2:9040, V-B:GLU:543:CG:9879, V-A:GLU:543:CG:4905, V-B:GLU:543:C:9874, V-A:ARG:545:CZ:4924, V-A:ARG:545:CG:4920, V-A:LYS:547:CE:4948, H-A:TYR:484:OH:4346, H-B:GLU:543:OE1:9881, H-A:ARG:545:NE:4922, V-A:GLU:543:C:4900, V-A:ILE:369:CD1:3237, V-A:ASP:366:CG:3211, V-B:TYR:539:CE2:9848, V-A:ILE:369:CG2:3235, V-A:ASP:366:CA:3208, V-A:ILE:369:CB:3234, H-A:GLU:543:OE2:4908, H-A:GLU:543:OE1:4907, H-B:HIS:456:ND1:9039, H-B:GLU:543:OE2:9882, H-A:HIS:456:ND1:4065"]

$$$$
4ac_Grossjean_2025
     RDKit          3D

 40 42  0  0  0  0  0  0  0  0999 V2000
  128.6130  127.8390   72.1540 C   0  0  0  0  0  0  0  0  0  0  0  0
  127.9650  128.0370   70.9010 O   0  0  0  0  0  0  0  0  0  0  0  0
  128.6160  127.6690   69.7400 C   0  0  0  0  0  0  0  0  0  0  0  0
  127.8090  127.3200   68.6580 C   0  0  0  0  0  0  0  0  0  0  0  0
  128.3760  126.9360   67.4450 C   0  0  0  0  0  0  0  0  0  0  0  0
  129.7630  126.9050   67.2970 C   0  0  0  0  0  0  0  0  0  0  0  0
  130.2450  126.4920   66.0410 N   0  0  0  0  0  0  0  0  0  0  0  0
  130.6390  125.2600   65.6370 C   0  0  0  0  0  0  0  0  0  0  0  0
  130.6630  124.2700   66.3700 O   0  0  0  0  0  0  0  0  0  0  0  0
  131.0570  125.1630   64.2360 C   0  0  0  0  0  0  0  0  0  0  0  0
  132.3070  124.0150   63.7560 S   0  0  0  0  0  0  0  0  0  0  0  0
  132.1970  124.5200   62.0850 C   0  0  0  0  0  0  0  0  0  0  0  0
  132.9560  123.9780   61.1320 N   0  0  0  0  0  0  0  0  0  0  0  0
  132.7720  124.4600   59.8790 C   0  0  0  0  0  0  0  0  0  0  0  0
  133.6440  123.8300   58.8090 C   0  0  0  0  0  0  0  0  0  0  0  0
  131.8580  125.4630   59.5600 C   0  0  0  0  0  0  0  0  0  0  0  0
  131.0640  126.0300   60.5630 C   0  0  0  0  0  0  0  0  0  0  0  0
  130.0810  127.1210   60.1660 C   0  0  0  0  0  0  0  0  0  0  0  0
  131.2270  125.5480   61.8900 C   0  0  0  0  0  0  0  0  0  0  0  0
  130.5900  125.8950   63.1320 C   0  0  0  0  0  0  0  0  0  0  0  0
  129.6160  126.8580   63.2110 N   0  0  0  0  0  0  0  0  0  0  0  0
  130.5820  127.2420   68.3840 C   0  0  0  0  0  0  0  0  0  0  0  0
  130.0120  127.6250   69.5960 C   0  0  0  0  0  0  0  0  0  0  0  0
  127.9074  128.0546   72.9698 H   0  0  0  0  0  0  0  0  0  0  0  0
  128.9536  126.7958   72.2299 H   0  0  0  0  0  0  0  0  0  0  0  0
  129.4785  128.5137   72.2299 H   0  0  0  0  0  0  0  0  0  0  0  0
  126.7144  127.3481   68.7632 H   0  0  0  0  0  0  0  0  0  0  0  0
  127.7282  126.6563   66.6011 H   0  0  0  0  0  0  0  0  0  0  0  0
  130.3360  127.2340   65.3620 H   0  0  0  0  0  0  0  0  0  0  0  0
  134.4475  123.2495   59.2857 H   0  0  0  0  0  0  0  0  0  0  0  0
  133.0323  123.1639   58.1828 H   0  0  0  0  0  0  0  0  0  0  0  0
  134.0843  124.6199   58.1828 H   0  0  0  0  0  0  0  0  0  0  0  0
  131.7610  125.8086   58.5202 H   0  0  0  0  0  0  0  0  0  0  0  0
  129.6629  127.5850   61.0715 H   0  0  0  0  0  0  0  0  0  0  0  0
  130.6019  127.8846   59.5697 H   0  0  0  0  0  0  0  0  0  0  0  0
  129.2674  126.6822   59.5697 H   0  0  0  0  0  0  0  0  0  0  0  0
  129.8270  127.8390   63.1040 H   0  0  0  0  0  0  0  0  0  0  0  0
  128.6500  126.6140   63.3790 H   0  0  0  0  0  0  0  0  0  0  0  0
  131.6764  127.2039   68.2796 H   0  0  0  0  0  0  0  0  0  0  0  0
  130.6586  127.8942   70.4442 H   0  0  0  0  0  0  0  0  0  0  0  0
  1  2  1  0
  2  3  1  0
  3  4  2  0
  4  5  1  0
  5  6  2  0
  6  7  1  0
  7  8  1  0
  8  9  2  0
  8 10  1  0
 10 11  1  0
 11 12  1  0
 12 13  2  0
 13 14  1  0
 14 15  1  0
 14 16  2  0
 16 17  1  0
 17 18  1  0
 17 19  2  0
 19 20  1  0
 20 21  1  0
  6 22  1  0
 22 23  2  0
 23  3  1  0
 20 10  2  0
 19 12  1  0
  1 24  1  0
  1 25  1  0
  1 26  1  0
  4 27  1  0
  5 28  1  0
  7 29  1  0
 15 30  1  0
 15 31  1  0
 15 32  1  0
 16 33  1  0
 18 34  1  0
 18 35  1  0
 18 36  1  0
 21 37  1  0
 21 38  1  0
 22 39  1  0
 23 40  1  0
M  END
>  <Binding energies>  (1) 
[-6.63]

>  <Ligand effiencies>  (1) 
[-0.255]

>  <Interactions>  (1) 
["V-B:GLU:543:CB:9878, V-A:HIS:456:CE1:4068, V-B:GLU:543:CD:9880, V-A:GLU:543:CD:4906, V-B:HIS:456:CE1:9042, V-A:GLY:544:C:4910, V-B:GLU:543:CG:9879, V-A:GLU:543:CG:4905, V-B:GLU:543:C:9874, V-A:ARG:545:CG:4920, H-A:TYR:484:OH:4346, H-B:GLU:543:OE1:9881, V-A:GLU:543:C:4900, V-A:ILE:369:CD1:3237, V-A:ASP:366:CG:3211, V-B:TYR:539:CE2:9848, V-A:ILE:369:CG2:3235, V-A:ASP:366:CA:3208, V-A:ASP:366:CB:3210, V-A:ILE:369:CB:3234, H-A:GLU:543:OE2:4908, H-A:GLU:543:OE1:4907, H-B:GLU:543:OE2:9882"]

$$$$
4ad_Grossjean_2025
     RDKit          3D

 36 38  0  0  0  0  0  0  0  0999 V2000
  125.8390  116.8520   70.5190 C   0  0  0  0  0  0  0  0  0  0  0  0
  126.6740  117.7120   71.4480 C   0  0  0  0  0  0  0  0  0  0  0  0
  127.0020  117.2760   72.7300 C   0  0  0  0  0  0  0  0  0  0  0  0
  127.7720  118.0890   73.5710 C   0  0  0  0  0  0  0  0  0  0  0  0
  128.1010  117.5700   74.9630 C   0  0  0  0  0  0  0  0  0  0  0  0
  128.1940  119.3490   73.0700 C   0  0  0  0  0  0  0  0  0  0  0  0
  128.9770  120.4100   73.6460 C   0  0  0  0  0  0  0  0  0  0  0  0
  129.4890  120.3330   74.9170 N   0  0  0  0  0  0  0  0  0  0  0  0
  129.1620  121.5100   72.7940 C   0  0  0  0  0  0  0  0  0  0  0  0
  129.8840  122.7560   73.0590 C   0  0  0  0  0  0  0  0  0  0  0  0
  129.3920  123.8440   72.7540 O   0  0  0  0  0  0  0  0  0  0  0  0
  131.0920  122.6120   73.6580 N   0  0  0  0  0  0  0  0  0  0  0  0
  132.0420  123.5920   74.0060 C   0  0  0  0  0  0  0  0  0  0  0  0
  131.7330  124.9030   73.6300 C   0  0  0  0  0  0  0  0  0  0  0  0
  132.6040  125.9440   73.9380 C   0  0  0  0  0  0  0  0  0  0  0  0
  133.7830  125.6770   74.6290 C   0  0  0  0  0  0  0  0  0  0  0  0
  134.0950  124.3770   75.0210 C   0  0  0  0  0  0  0  0  0  0  0  0
  133.2270  123.3330   74.7140 C   0  0  0  0  0  0  0  0  0  0  0  0
  128.3670  121.2530   71.2400 S   0  0  0  0  0  0  0  0  0  0  0  0
  127.7920  119.6800   71.7400 C   0  0  0  0  0  0  0  0  0  0  0  0
  127.0590  118.9070   70.9370 N   0  0  0  0  0  0  0  0  0  0  0  0
  125.1946  116.1883   71.1141 H   0  0  0  0  0  0  0  0  0  0  0  0
  125.2140  117.4976   69.8845 H   0  0  0  0  0  0  0  0  0  0  0  0
  126.5028  116.2463   69.8845 H   0  0  0  0  0  0  0  0  0  0  0  0
  126.6560  116.2928   73.0817 H   0  0  0  0  0  0  0  0  0  0  0  0
  127.6723  118.2463   75.7173 H   0  0  0  0  0  0  0  0  0  0  0  0
  127.6757  116.5634   75.0890 H   0  0  0  0  0  0  0  0  0  0  0  0
  129.1928  117.5251   75.0890 H   0  0  0  0  0  0  0  0  0  0  0  0
  130.4050  120.6890   75.1470 H   0  0  0  0  0  0  0  0  0  0  0  0
  128.9590  119.9180   75.6720 H   0  0  0  0  0  0  0  0  0  0  0  0
  131.3520  121.6700   73.9120 H   0  0  0  0  0  0  0  0  0  0  0  0
  130.7984  125.1122   73.0890 H   0  0  0  0  0  0  0  0  0  0  0  0
  132.3619  126.9738   73.6367 H   0  0  0  0  0  0  0  0  0  0  0  0
  134.4737  126.4992   74.8673 H   0  0  0  0  0  0  0  0  0  0  0  0
  135.0255  124.1760   75.5721 H   0  0  0  0  0  0  0  0  0  0  0  0
  133.4689  122.3062   75.0256 H   0  0  0  0  0  0  0  0  0  0  0  0
  1  2  1  0
  2  3  2  0
  3  4  1  0
  4  5  1  0
  4  6  2  0
  6  7  1  0
  7  8  1  0
  7  9  2  0
  9 10  1  0
 10 11  2  0
 10 12  1  0
 12 13  1  0
 13 14  2  0
 14 15  1  0
 15 16  2  0
 16 17  1  0
 17 18  2  0
  9 19  1  0
 19 20  1  0
 20 21  2  0
 21  2  1  0
 20  6  1  0
 18 13  1  0
  1 22  1  0
  1 23  1  0
  1 24  1  0
  3 25  1  0
  5 26  1  0
  5 27  1  0
  5 28  1  0
  8 29  1  0
  8 30  1  0
 12 31  1  0
 14 32  1  0
 15 33  1  0
 16 34  1  0
 17 35  1  0
 18 36  1  0
M  END
>  <Binding energies>  (1) 
[-7.13]

>  <Ligand effiencies>  (1) 
[-0.2970833333333333]

>  <Interactions>  (1) 
["V-A:HIS:456:CD2:4066, H-B:LYS:547:NZ:9923, V-B:GLU:543:C:9874, V-A:HIS:456:CG:4064, V-A:HIS:456:CB:4063, V-B:LYS:547:CE:9922, V-B:GLY:544:CA:9886, V-A:HIS:456:C:4059, V-A:TYR:484:CG:4340, V-A:LYS:471:CE:4218, V-A:TYR:484:CB:4339, V-A:HIS:456:CA:4061, V-B:GLU:543:CA:9876, V-A:ASP:473:CG:4238, V-A:TYR:484:CD1:4341, V-A:VAL:457:C:4071, V-A:VAL:458:CG2:4085, H-A:ASP:473:OD2:4240, V-B:VAL:542:CG1:9871, H-A:TYR:484:N:4338, V-A:SER:483:CB:4331, V-A:SER:483:CA:4329"]

$$$$
4ae_Grossjean_2025
     RDKit          3D

 38 40  0  0  0  0  0  0  0  0999 V2000
  130.6100  127.2570   70.6430 C   0  0  0  0  0  0  0  0  0  0  0  0
  129.7070  127.2660   69.4250 C   0  0  0  0  0  0  0  0  0  0  0  0
  128.3670  127.6500   69.5110 C   0  0  0  0  0  0  0  0  0  0  0  0
  127.5940  127.6260   68.3500 C   0  0  0  0  0  0  0  0  0  0  0  0
  128.1720  127.2220   67.1450 C   0  0  0  0  0  0  0  0  0  0  0  0
  129.5220  126.8570   67.1270 C   0  0  0  0  0  0  0  0  0  0  0  0
  130.0420  126.4400   65.8890 N   0  0  0  0  0  0  0  0  0  0  0  0
  130.5450  125.2290   65.5450 C   0  0  0  0  0  0  0  0  0  0  0  0
  130.6260  124.2740   66.3200 O   0  0  0  0  0  0  0  0  0  0  0  0
  131.0060  125.1110   64.1600 C   0  0  0  0  0  0  0  0  0  0  0  0
  132.2910  123.9760   63.7420 S   0  0  0  0  0  0  0  0  0  0  0  0
  132.2480  124.4700   62.0660 C   0  0  0  0  0  0  0  0  0  0  0  0
  133.0580  123.9350   61.1520 N   0  0  0  0  0  0  0  0  0  0  0  0
  132.9270  124.4100   59.8900 C   0  0  0  0  0  0  0  0  0  0  0  0
  133.8640  123.7930   58.8670 C   0  0  0  0  0  0  0  0  0  0  0  0
  132.0120  125.3950   59.5230 C   0  0  0  0  0  0  0  0  0  0  0  0
  131.1620  125.9540   60.4850 C   0  0  0  0  0  0  0  0  0  0  0  0
  130.1830  127.0280   60.0370 C   0  0  0  0  0  0  0  0  0  0  0  0
  131.2720  125.4820   61.8210 C   0  0  0  0  0  0  0  0  0  0  0  0
  130.5760  125.8290   63.0320 C   0  0  0  0  0  0  0  0  0  0  0  0
  129.5860  126.7780   63.0630 N   0  0  0  0  0  0  0  0  0  0  0  0
  130.2830  126.8720   68.2600 N   0  0  0  0  0  0  0  0  0  0  0  0
  129.9953  127.2631   71.5552 H   0  0  0  0  0  0  0  0  0  0  0  0
  131.2359  126.3526   70.6287 H   0  0  0  0  0  0  0  0  0  0  0  0
  131.2538  128.1488   70.6287 H   0  0  0  0  0  0  0  0  0  0  0  0
  127.9316  127.9638   70.4712 H   0  0  0  0  0  0  0  0  0  0  0  0
  126.5355  127.9236   68.3837 H   0  0  0  0  0  0  0  0  0  0  0  0
  127.5738  127.1912   66.2224 H   0  0  0  0  0  0  0  0  0  0  0  0
  130.0860  127.1620   65.1850 H   0  0  0  0  0  0  0  0  0  0  0  0
  134.6739  123.2597   59.3863 H   0  0  0  0  0  0  0  0  0  0  0  0
  133.3045  123.0860   58.2368 H   0  0  0  0  0  0  0  0  0  0  0  0
  134.2924  124.5863   58.2368 H   0  0  0  0  0  0  0  0  0  0  0  0
  131.9576  125.7333   58.4777 H   0  0  0  0  0  0  0  0  0  0  0  0
  129.7411  127.5127   60.9201 H   0  0  0  0  0  0  0  0  0  0  0  0
  130.7136  127.7791   59.4334 H   0  0  0  0  0  0  0  0  0  0  0  0
  129.3861  126.5690   59.4334 H   0  0  0  0  0  0  0  0  0  0  0  0
  128.6110  126.5290   63.1520 H   0  0  0  0  0  0  0  0  0  0  0  0
  129.8010  127.7630   62.9970 H   0  0  0  0  0  0  0  0  0  0  0  0
  1  2  1  0
  2  3  2  0
  3  4  1  0
  4  5  2  0
  5  6  1  0
  6  7  1  0
  7  8  1  0
  8  9  2  0
  8 10  1  0
 10 11  1  0
 11 12  1  0
 12 13  2  0
 13 14  1  0
 14 15  1  0
 14 16  2  0
 16 17  1  0
 17 18  1  0
 17 19  2  0
 19 20  1  0
 20 21  1  0
  6 22  2  0
 22  2  1  0
 20 10  2  0
 19 12  1  0
  1 23  1  0
  1 24  1  0
  1 25  1  0
  3 26  1  0
  4 27  1  0
  5 28  1  0
  7 29  1  0
 15 30  1  0
 15 31  1  0
 15 32  1  0
 16 33  1  0
 18 34  1  0
 18 35  1  0
 18 36  1  0
 21 37  1  0
 21 38  1  0
M  END
>  <Binding energies>  (1) 
[-6.82]

>  <Ligand effiencies>  (1) 
[-0.2728]

>  <Interactions>  (1) 
["V-B:GLU:543:CB:9878, V-A:HIS:456:CE1:4068, V-A:HIS:456:CD2:4066, V-B:GLU:543:CD:9880, V-A:GLU:543:CD:4906, V-B:HIS:456:CE1:9042, V-A:GLY:544:CA:4912, V-A:GLY:544:C:4910, V-B:GLU:543:CG:9879, H-A:TYR:484:OH:4346, H-B:GLU:543:OE1:9881, V-A:ILE:369:CD1:3237, V-A:ASP:366:CG:3211, V-B:TYR:539:CE2:9848, V-A:ILE:369:CG2:3235, V-A:ASP:366:CA:3208, V-A:ASP:366:CB:3210, V-A:ILE:369:CB:3234, H-A:GLU:543:OE2:4908, H-A:GLU:543:OE1:4907, H-B:GLU:543:OE2:9882"]

$$$$
4af_Grossjean_2025
     RDKit          3D

 35 37  0  0  0  0  0  0  0  0999 V2000
  125.8100  116.8640   70.5070 C   0  0  0  0  0  0  0  0  0  0  0  0
  126.6560  117.7170   71.4350 C   0  0  0  0  0  0  0  0  0  0  0  0
  126.9940  117.2700   72.7100 C   0  0  0  0  0  0  0  0  0  0  0  0
  127.7730  118.0750   73.5510 C   0  0  0  0  0  0  0  0  0  0  0  0
  128.1150  117.5450   74.9340 C   0  0  0  0  0  0  0  0  0  0  0  0
  128.1930  119.3390   73.0550 C   0  0  0  0  0  0  0  0  0  0  0  0
  128.9810  120.3940   73.6340 C   0  0  0  0  0  0  0  0  0  0  0  0
  129.4990  120.3090   74.9020 N   0  0  0  0  0  0  0  0  0  0  0  0
  129.1640  121.4990   72.7880 C   0  0  0  0  0  0  0  0  0  0  0  0
  129.8780  122.7480   73.0620 C   0  0  0  0  0  0  0  0  0  0  0  0
  129.3880  123.8330   72.7470 O   0  0  0  0  0  0  0  0  0  0  0  0
  131.0740  122.6080   73.6850 N   0  0  0  0  0  0  0  0  0  0  0  0
  132.0180  123.5890   74.0420 C   0  0  0  0  0  0  0  0  0  0  0  0
  133.2330  123.3480   74.7090 C   0  0  0  0  0  0  0  0  0  0  0  0
  134.0730  124.4170   75.0220 C   0  0  0  0  0  0  0  0  0  0  0  0
  133.6780  125.7070   74.6630 C   0  0  0  0  0  0  0  0  0  0  0  0
  132.5080  125.9670   74.0260 N   0  0  0  0  0  0  0  0  0  0  0  0
  131.7010  124.9170   73.7300 C   0  0  0  0  0  0  0  0  0  0  0  0
  128.3540  121.2560   71.2390 S   0  0  0  0  0  0  0  0  0  0  0  0
  127.7810  119.6790   71.7320 C   0  0  0  0  0  0  0  0  0  0  0  0
  127.0390  118.9150   70.9290 N   0  0  0  0  0  0  0  0  0  0  0  0
  125.1592  116.2078   71.1036 H   0  0  0  0  0  0  0  0  0  0  0  0
  125.1912  117.5155   69.8725 H   0  0  0  0  0  0  0  0  0  0  0  0
  126.4666  116.2506   69.8725 H   0  0  0  0  0  0  0  0  0  0  0  0
  126.6492  116.2846   73.0566 H   0  0  0  0  0  0  0  0  0  0  0  0
  127.6859  118.2100   75.6980 H   0  0  0  0  0  0  0  0  0  0  0  0
  127.6986  116.5338   75.0524 H   0  0  0  0  0  0  0  0  0  0  0  0
  129.2080  117.5077   75.0524 H   0  0  0  0  0  0  0  0  0  0  0  0
  128.9370  120.0230   75.6910 H   0  0  0  0  0  0  0  0  0  0  0  0
  130.4680  120.5280   75.0880 H   0  0  0  0  0  0  0  0  0  0  0  0
  131.3350  121.6670   73.9400 H   0  0  0  0  0  0  0  0  0  0  0  0
  133.5193  122.3217   74.9824 H   0  0  0  0  0  0  0  0  0  0  0  0
  135.0276  124.2468   75.5414 H   0  0  0  0  0  0  0  0  0  0  0  0
  134.3432  126.5485   74.9067 H   0  0  0  0  0  0  0  0  0  0  0  0
  130.7484  125.1194   73.2185 H   0  0  0  0  0  0  0  0  0  0  0  0
  1  2  1  0
  2  3  2  0
  3  4  1  0
  4  5  1  0
  4  6  2  0
  6  7  1  0
  7  8  1  0
  7  9  2  0
  9 10  1  0
 10 11  2  0
 10 12  1  0
 12 13  1  0
 13 14  2  0
 14 15  1  0
 15 16  2  0
 16 17  1  0
 17 18  2  0
  9 19  1  0
 19 20  1  0
 20 21  2  0
 21  2  1  0
 20  6  1  0
 18 13  1  0
  1 22  1  0
  1 23  1  0
  1 24  1  0
  3 25  1  0
  5 26  1  0
  5 27  1  0
  5 28  1  0
  8 29  1  0
  8 30  1  0
 12 31  1  0
 14 32  1  0
 15 33  1  0
 16 34  1  0
 18 35  1  0
M  END
>  <Binding energies>  (1) 
[-6.75]

>  <Ligand effiencies>  (1) 
[-0.28125]

>  <Interactions>  (1) 
["V-A:HIS:456:CD2:4066, H-B:LYS:547:NZ:9923, V-B:GLU:543:C:9874, V-A:HIS:456:CG:4064, V-A:HIS:456:CB:4063, V-B:LYS:547:CE:9922, V-B:GLY:544:CA:9886, V-A:HIS:456:C:4059, V-A:TYR:484:CG:4340, V-A:LYS:471:CE:4218, V-A:TYR:484:CB:4339, V-A:HIS:456:CA:4061, V-B:GLU:543:CA:9876, V-A:ASP:473:CG:4238, V-A:TYR:484:CD1:4341, V-A:VAL:457:C:4071, V-A:VAL:458:CG2:4085, H-A:ASP:473:OD2:4240, V-B:VAL:542:CG1:9871, H-A:TYR:484:N:4338, V-A:SER:483:CB:4331, V-B:VAL:542:CB:9870, V-A:SER:483:CA:4329"]

$$$$
4ag_Grossjean_2025
     RDKit          3D

 39 41  0  0  0  0  0  0  0  0999 V2000
  134.0380  123.6180   59.2740 C   0  0  0  0  0  0  0  0  0  0  0  0
  133.0790  124.2510   60.2650 C   0  0  0  0  0  0  0  0  0  0  0  0
  131.9360  124.9200   59.8300 C   0  0  0  0  0  0  0  0  0  0  0  0
  131.0640  125.4950   60.7600 C   0  0  0  0  0  0  0  0  0  0  0  0
  129.8300  126.2140   60.2360 C   0  0  0  0  0  0  0  0  0  0  0  0
  131.3880  125.3700   62.1380 C   0  0  0  0  0  0  0  0  0  0  0  0
  130.7320  125.8280   63.3330 C   0  0  0  0  0  0  0  0  0  0  0  0
  129.5570  126.5360   63.3000 N   0  0  0  0  0  0  0  0  0  0  0  0
  131.4040  125.4880   64.5160 C   0  0  0  0  0  0  0  0  0  0  0  0
  131.0180  125.7810   65.8960 C   0  0  0  0  0  0  0  0  0  0  0  0
  130.3830  124.9690   66.5720 O   0  0  0  0  0  0  0  0  0  0  0  0
  131.3820  126.9920   66.3710 N   0  0  0  0  0  0  0  0  0  0  0  0
  131.1270  127.4840   67.7240 C   0  0  0  0  0  0  0  0  0  0  0  0
  129.6680  127.3790   68.1550 C   0  0  0  0  0  0  0  0  0  0  0  0
  129.3460  127.3360   69.5150 C   0  0  0  0  0  0  0  0  0  0  0  0
  128.0130  127.2660   69.9120 C   0  0  0  0  0  0  0  0  0  0  0  0
  127.0060  127.2500   68.9490 C   0  0  0  0  0  0  0  0  0  0  0  0
  127.3190  127.3090   67.5930 C   0  0  0  0  0  0  0  0  0  0  0  0
  128.6520  127.3800   67.1950 C   0  0  0  0  0  0  0  0  0  0  0  0
  132.8740  124.5740   64.1780 S   0  0  0  0  0  0  0  0  0  0  0  0
  132.5860  124.6610   62.4540 C   0  0  0  0  0  0  0  0  0  0  0  0
  133.4180  124.1110   61.5700 N   0  0  0  0  0  0  0  0  0  0  0  0
  134.8350  123.0919   59.8199 H   0  0  0  0  0  0  0  0  0  0  0  0
  133.4923  122.9020   58.6418 H   0  0  0  0  0  0  0  0  0  0  0  0
  134.4819  124.4012   58.6418 H   0  0  0  0  0  0  0  0  0  0  0  0
  131.7197  124.9957   58.7541 H   0  0  0  0  0  0  0  0  0  0  0  0
  129.2239  126.5671   61.0833 H   0  0  0  0  0  0  0  0  0  0  0  0
  130.1391  127.0734   59.6229 H   0  0  0  0  0  0  0  0  0  0  0  0
  129.2347  125.5214   59.6229 H   0  0  0  0  0  0  0  0  0  0  0  0
  128.6830  126.1050   63.0320 H   0  0  0  0  0  0  0  0  0  0  0  0
  129.5260  127.5150   63.5490 H   0  0  0  0  0  0  0  0  0  0  0  0
  131.9500  127.5830   65.7820 H   0  0  0  0  0  0  0  0  0  0  0  0
  131.7386  126.8987   68.4264 H   0  0  0  0  0  0  0  0  0  0  0  0
  131.3852  128.5533   67.7288 H   0  0  0  0  0  0  0  0  0  0  0  0
  130.1450  127.3574   70.2707 H   0  0  0  0  0  0  0  0  0  0  0  0
  127.7562  127.2235   70.9808 H   0  0  0  0  0  0  0  0  0  0  0  0
  125.9534  127.1902   69.2628 H   0  0  0  0  0  0  0  0  0  0  0  0
  126.5172  127.2996   66.8399 H   0  0  0  0  0  0  0  0  0  0  0  0
  128.9049  127.4368   66.1260 H   0  0  0  0  0  0  0  0  0  0  0  0
  1  2  1  0
  2  3  2  0
  3  4  1  0
  4  5  1  0
  4  6  2  0
  6  7  1  0
  7  8  1  0
  7  9  2  0
  9 10  1  0
 10 11  2  0
 10 12  1  0
 12 13  1  0
 13 14  1  0
 14 15  2  0
 15 16  1  0
 16 17  2  0
 17 18  1  0
 18 19  2  0
  9 20  1  0
 20 21  1  0
 21 22  2  0
 22  2  1  0
 21  6  1  0
 19 14  1  0
  1 23  1  0
  1 24  1  0
  1 25  1  0
  3 26  1  0
  5 27  1  0
  5 28  1  0
  5 29  1  0
  8 30  1  0
  8 31  1  0
 12 32  1  0
 13 33  1  0
 13 34  1  0
 15 35  1  0
 16 36  1  0
 17 37  1  0
 18 38  1  0
 19 39  1  0
M  END
>  <Binding energies>  (1) 
[-7.04]

>  <Ligand effiencies>  (1) 
[-0.2816]

>  <Interactions>  (1) 
["V-A:HIS:456:CE1:4068, V-B:GLU:543:CD:9880, V-A:GLU:543:CD:4906, V-B:HIS:456:CE1:9042, V-B:GLY:544:C:9884, V-B:GLU:543:CG:9879, V-A:GLU:543:CG:4905, V-B:GLU:543:C:9874, V-A:ARG:545:CZ:4924, V-A:ARG:545:CG:4920, H-A:TYR:484:OH:4346, V-A:ARG:545:CD:4921, H-B:GLU:543:OE1:9881, V-B:GLY:544:CA:9886, V-A:GLU:543:C:4900, V-A:ILE:369:CD1:3237, V-A:ASP:366:CG:3211, V-A:ILE:369:CG2:3235, V-A:ASP:366:CA:3208, V-A:ILE:369:CB:3234, H-A:GLU:543:OE2:4908, H-A:GLU:543:OE1:4907, H-B:GLU:543:OE2:9882, V-B:ARG:545:CG:9894, V-B:ARG:545:CA:9891"]

$$$$
4ah_Grossjean_2025
     RDKit          3D

 51 53  0  0  0  0  0  0  0  0999 V2000
  132.5500  131.3450   61.4240 C   0  0  0  0  0  0  0  0  0  0  0  0
  131.4530  131.7560   60.6160 O   0  0  0  0  0  0  0  0  0  0  0  0
  130.3190  130.9650   60.5580 C   0  0  0  0  0  0  0  0  0  0  0  0
  130.0140  129.9620   61.4910 C   0  0  0  0  0  0  0  0  0  0  0  0
  128.8510  129.2010   61.3680 C   0  0  0  0  0  0  0  0  0  0  0  0
  128.5120  128.1480   62.4180 C   0  0  0  0  0  0  0  0  0  0  0  0
  128.9550  126.8010   62.0580 N   0  0  0  0  0  0  0  0  0  0  0  0
  130.1520  126.4890   61.5180 C   0  0  0  0  0  0  0  0  0  0  0  0
  130.9950  127.3420   61.2340 O   0  0  0  0  0  0  0  0  0  0  0  0
  130.3820  125.0710   61.2450 C   0  0  0  0  0  0  0  0  0  0  0  0
  129.0300  123.9380   61.2420 S   0  0  0  0  0  0  0  0  0  0  0  0
  130.0990  122.5940   60.9100 C   0  0  0  0  0  0  0  0  0  0  0  0
  129.6450  121.3480   60.7740 N   0  0  0  0  0  0  0  0  0  0  0  0
  130.5780  120.3990   60.5170 C   0  0  0  0  0  0  0  0  0  0  0  0
  130.0400  118.9880   60.3690 C   0  0  0  0  0  0  0  0  0  0  0  0
  131.9390  120.6650   60.3920 C   0  0  0  0  0  0  0  0  0  0  0  0
  132.4140  121.9740   60.5370 C   0  0  0  0  0  0  0  0  0  0  0  0
  133.9090  122.2140   60.3930 C   0  0  0  0  0  0  0  0  0  0  0  0
  131.4650  122.9960   60.8100 C   0  0  0  0  0  0  0  0  0  0  0  0
  131.6000  124.4130   61.0180 C   0  0  0  0  0  0  0  0  0  0  0  0
  132.8150  125.0480   60.9830 N   0  0  0  0  0  0  0  0  0  0  0  0
  127.9660  129.4600   60.3200 C   0  0  0  0  0  0  0  0  0  0  0  0
  128.2480  130.4530   59.3690 C   0  0  0  0  0  0  0  0  0  0  0  0
  127.4250  130.7520   58.2980 O   0  0  0  0  0  0  0  0  0  0  0  0
  126.0790  130.2890   58.3020 C   0  0  0  0  0  0  0  0  0  0  0  0
  129.4310  131.1940   59.4960 C   0  0  0  0  0  0  0  0  0  0  0  0
  129.7110  132.1820   58.5820 O   0  0  0  0  0  0  0  0  0  0  0  0
  130.4710  131.7390   57.4660 C   0  0  0  0  0  0  0  0  0  0  0  0
  132.2812  131.4457   62.4859 H   0  0  0  0  0  0  0  0  0  0  0  0
  132.7932  130.2948   61.2053 H   0  0  0  0  0  0  0  0  0  0  0  0
  133.4235  131.9769   61.2053 H   0  0  0  0  0  0  0  0  0  0  0  0
  130.7003  129.7734   62.3297 H   0  0  0  0  0  0  0  0  0  0  0  0
  128.9951  128.4320   63.3645 H   0  0  0  0  0  0  0  0  0  0  0  0
  127.4157  128.1163   62.5022 H   0  0  0  0  0  0  0  0  0  0  0  0
  128.3490  126.0450   62.3400 H   0  0  0  0  0  0  0  0  0  0  0  0
  129.8740  118.5525   61.3654 H   0  0  0  0  0  0  0  0  0  0  0  0
  129.0888  119.0143   59.8172 H   0  0  0  0  0  0  0  0  0  0  0  0
  130.7672  118.3743   59.8172 H   0  0  0  0  0  0  0  0  0  0  0  0
  132.6417  119.8459   60.1791 H   0  0  0  0  0  0  0  0  0  0  0  0
  134.3663  122.2874   61.3907 H   0  0  0  0  0  0  0  0  0  0  0  0
  134.3633  121.3773   59.8421 H   0  0  0  0  0  0  0  0  0  0  0  0
  134.0786  123.1509   59.8421 H   0  0  0  0  0  0  0  0  0  0  0  0
  132.8980  126.0480   61.0930 H   0  0  0  0  0  0  0  0  0  0  0  0
  133.6720  124.5320   60.8400 H   0  0  0  0  0  0  0  0  0  0  0  0
  127.0358  128.8785   60.2385 H   0  0  0  0  0  0  0  0  0  0  0  0
  125.7350  130.1707   59.3401 H   0  0  0  0  0  0  0  0  0  0  0  0
  125.4387  131.0186   57.7845 H   0  0  0  0  0  0  0  0  0  0  0  0
  126.0230  129.3200   57.7845 H   0  0  0  0  0  0  0  0  0  0  0  0
  131.3708  131.2145   57.8201 H   0  0  0  0  0  0  0  0  0  0  0  0
  129.8630  131.0538   56.8570 H   0  0  0  0  0  0  0  0  0  0  0  0
  130.7676  132.6057   56.8570 H   0  0  0  0  0  0  0  0  0  0  0  0
  1  2  1  0
  2  3  1  0
  3  4  2  0
  4  5  1  0
  5  6  1  0
  6  7  1  0
  7  8  1  0
  8  9  2  0
  8 10  1  0
 10 11  1  0
 11 12  1  0
 12 13  2  0
 13 14  1  0
 14 15  1  0
 14 16  2  0
 16 17  1  0
 17 18  1  0
 17 19  2  0
 19 20  1  0
 20 21  1  0
  5 22  2  0
 22 23  1  0
 23 24  1  0
 24 25  1  0
 23 26  2  0
 26 27  1  0
 27 28  1  0
 26  3  1  0
 20 10  2  0
 19 12  1  0
  1 29  1  0
  1 30  1  0
  1 31  1  0
  4 32  1  0
  6 33  1  0
  6 34  1  0
  7 35  1  0
 15 36  1  0
 15 37  1  0
 15 38  1  0
 16 39  1  0
 18 40  1  0
 18 41  1  0
 18 42  1  0
 21 43  1  0
 21 44  1  0
 22 45  1  0
 25 46  1  0
 25 47  1  0
 25 48  1  0
 28 49  1  0
 28 50  1  0
 28 51  1  0
M  END
>  <Binding energies>  (1) 
[-5.63]

>  <Ligand effiencies>  (1) 
[-0.18161290322580645]

>  <Interactions>  (1) 
["V-B:GLU:543:CD:9880, V-A:GLU:543:CD:4906, H-B:GLU:543:OE1:9881, V-A:TRP:381:CZ2:3368, V-A:ILE:369:CD1:3237, V-A:LEU:475:CD2:4257, V-A:TRP:381:CH2:3370, V-B:TYR:539:C:9839, V-A:ASP:366:CG:3211, V-B:ALA:541:CB:9864, V-B:TYR:539:CD2:9846, V-B:TYR:539:CE2:9848, V-A:ILE:369:CG2:3235, V-A:ILE:369:CG1:3236, V-A:ILE:369:CB:3234, V-A:ASN:362:CB:3174, V-A:PRO:540:CA:4881, V-A:PRO:540:N:4882, V-A:PRO:540:CB:4883, V-A:TYR:539:C:4865, V-A:PRO:540:C:4879, V-A:TYR:539:CE2:4874, H-A:ALA:541:N:4889, H-A:ARG:545:NH2:4926, V-A:TRP:381:CZ3:3369, V-A:TYR:539:CZ:4875, V-A:PRO:482:CG:4325, V-A:PRO:482:CB:4324, H-B:GLU:543:OE2:9882, H-A:ASP:366:OD2:3213, H-A:ASP:366:OD1:3212"]

$$$$
4ai_Grossjean_2025
     RDKit          3D

 32 34  0  0  0  0  0  0  0  0999 V2000
  130.3190  119.2800   60.2420 C   0  0  0  0  0  0  0  0  0  0  0  0
  130.9730  120.5520   60.7500 C   0  0  0  0  0  0  0  0  0  0  0  0
  131.9570  121.1990   60.0040 C   0  0  0  0  0  0  0  0  0  0  0  0
  132.5420  122.3740   60.4890 C   0  0  0  0  0  0  0  0  0  0  0  0
  133.6090  123.0450   59.6380 C   0  0  0  0  0  0  0  0  0  0  0  0
  132.0990  122.8660   61.7470 C   0  0  0  0  0  0  0  0  0  0  0  0
  132.4740  124.0160   62.5240 C   0  0  0  0  0  0  0  0  0  0  0  0
  133.4360  124.9010   62.1050 N   0  0  0  0  0  0  0  0  0  0  0  0
  131.7670  124.1450   63.7300 C   0  0  0  0  0  0  0  0  0  0  0  0
  131.9000  125.1800   64.7580 C   0  0  0  0  0  0  0  0  0  0  0  0
  132.9790  125.7440   64.9470 O   0  0  0  0  0  0  0  0  0  0  0  0
  130.7660  125.4640   65.4460 N   0  0  0  0  0  0  0  0  0  0  0  0
  130.6050  126.4000   66.4590 C   0  0  0  0  0  0  0  0  0  0  0  0
  129.4120  126.5620   67.1650 C   0  0  0  0  0  0  0  0  0  0  0  0
  129.6610  127.5750   68.0620 C   0  0  0  0  0  0  0  0  0  0  0  0
  130.9380  128.0010   67.9060 O   0  0  0  0  0  0  0  0  0  0  0  0
  131.5260  127.2480   66.8890 N   0  0  0  0  0  0  0  0  0  0  0  0
  130.6260  122.8160   63.9440 S   0  0  0  0  0  0  0  0  0  0  0  0
  131.0870  122.1100   62.4110 C   0  0  0  0  0  0  0  0  0  0  0  0
  130.5280  120.9900   61.9530 N   0  0  0  0  0  0  0  0  0  0  0  0
  130.0023  118.6640   61.0966 H   0  0  0  0  0  0  0  0  0  0  0  0
  129.4416  119.5377   59.6306 H   0  0  0  0  0  0  0  0  0  0  0  0
  131.0391  118.7164   59.6306 H   0  0  0  0  0  0  0  0  0  0  0  0
  132.2734  120.7861   59.0347 H   0  0  0  0  0  0  0  0  0  0  0  0
  134.3575  123.5157   60.2924 H   0  0  0  0  0  0  0  0  0  0  0  0
  134.0988  122.2920   59.0031 H   0  0  0  0  0  0  0  0  0  0  0  0
  133.1425  123.8126   59.0031 H   0  0  0  0  0  0  0  0  0  0  0  0
  133.9380  125.4900   62.7540 H   0  0  0  0  0  0  0  0  0  0  0  0
  133.6700  124.9970   61.1270 H   0  0  0  0  0  0  0  0  0  0  0  0
  129.9360  124.9480   65.1970 H   0  0  0  0  0  0  0  0  0  0  0  0
  128.4751  126.0010   67.0328 H   0  0  0  0  0  0  0  0  0  0  0  0
  128.9392  127.9751   68.7893 H   0  0  0  0  0  0  0  0  0  0  0  0
  1  2  1  0
  2  3  2  0
  3  4  1  0
  4  5  1  0
  4  6  2  0
  6  7  1  0
  7  8  1  0
  7  9  2  0
  9 10  1  0
 10 11  2  0
 10 12  1  0
 12 13  1  0
 13 14  1  0
 14 15  2  0
 15 16  1  0
 16 17  1  0
  9 18  1  0
 18 19  1  0
 19 20  2  0
 20  2  1  0
 19  6  1  0
 17 13  2  0
  1 21  1  0
  1 22  1  0
  1 23  1  0
  3 24  1  0
  5 25  1  0
  5 26  1  0
  5 27  1  0
  8 28  1  0
  8 29  1  0
 12 30  1  0
 14 31  1  0
 15 32  1  0
M  END
>  <Binding energies>  (1) 
[-6.53]

>  <Ligand effiencies>  (1) 
[-0.2839130434782609]

>  <Interactions>  (1) 
["V-B:GLU:543:CB:9878, V-A:HIS:456:CE1:4068, V-B:GLU:543:CD:9880, V-A:GLU:543:CD:4906, V-B:GLU:543:CG:9879, V-A:GLU:543:CG:4905, V-A:ARG:545:CZ:4924, H-A:TYR:484:OH:4346, V-A:TYR:484:CZ:4345, H-B:GLU:543:OE1:9881, H-A:ARG:545:NE:4922, V-A:GLU:543:C:4900, V-A:TRP:381:CZ2:3368, V-A:ILE:369:CD1:3237, V-A:LEU:475:CD2:4257, V-A:TRP:381:CH2:3370, V-B:ALA:541:CB:9864, V-B:TYR:539:CD2:9846, V-B:TYR:539:CE2:9848, V-A:ILE:369:CG2:3235, V-A:ILE:369:CB:3234, H-A:ARG:545:NH2:4926, V-A:TRP:381:CZ3:3369, V-A:PRO:482:CG:4325, V-A:PRO:482:CB:4324, V-A:TYR:484:CE1:4343, H-B:GLU:543:OE2:9882, H-A:ASP:366:OD1:3212"]

$$$$
4aj_Grossjean_2025
     RDKit          3D

 32 34  0  0  0  0  0  0  0  0999 V2000
  125.7480  116.7570   70.5000 C   0  0  0  0  0  0  0  0  0  0  0  0
  126.5790  117.6180   71.4330 C   0  0  0  0  0  0  0  0  0  0  0  0
  126.9340  117.1650   72.7010 C   0  0  0  0  0  0  0  0  0  0  0  0
  127.6970  117.9770   73.5480 C   0  0  0  0  0  0  0  0  0  0  0  0
  128.0580  117.4370   74.9230 C   0  0  0  0  0  0  0  0  0  0  0  0
  128.0860  119.2560   73.0660 C   0  0  0  0  0  0  0  0  0  0  0  0
  128.8520  120.3220   73.6550 C   0  0  0  0  0  0  0  0  0  0  0  0
  129.3720  120.2370   74.9210 N   0  0  0  0  0  0  0  0  0  0  0  0
  129.0150  121.4360   72.8160 C   0  0  0  0  0  0  0  0  0  0  0  0
  129.7210  122.6890   73.0940 C   0  0  0  0  0  0  0  0  0  0  0  0
  129.2520  123.7690   72.7300 O   0  0  0  0  0  0  0  0  0  0  0  0
  130.8870  122.5610   73.7740 N   0  0  0  0  0  0  0  0  0  0  0  0
  131.7370  123.5850   74.1700 C   0  0  0  0  0  0  0  0  0  0  0  0
  131.5050  124.8800   74.1500 N   0  0  0  0  0  0  0  0  0  0  0  0
  132.5370  125.5640   74.6050 C   0  0  0  0  0  0  0  0  0  0  0  0
  133.6420  124.8180   75.0070 C   0  0  0  0  0  0  0  0  0  0  0  0
  133.2980  123.1300   74.7720 S   0  0  0  0  0  0  0  0  0  0  0  0
  128.2030  121.1940   71.2690 S   0  0  0  0  0  0  0  0  0  0  0  0
  127.6610  119.6010   71.7480 C   0  0  0  0  0  0  0  0  0  0  0  0
  126.9340  118.8300   70.9390 N   0  0  0  0  0  0  0  0  0  0  0  0
  125.1043  116.0901   71.0924 H   0  0  0  0  0  0  0  0  0  0  0  0
  125.1224  117.4021   69.8656 H   0  0  0  0  0  0  0  0  0  0  0  0
  126.4149  116.1546   69.8656 H   0  0  0  0  0  0  0  0  0  0  0  0
  126.6143  116.1677   73.0374 H   0  0  0  0  0  0  0  0  0  0  0  0
  127.6239  118.0864   75.6975 H   0  0  0  0  0  0  0  0  0  0  0  0
  127.6590  116.4179   75.0330 H   0  0  0  0  0  0  0  0  0  0  0  0
  129.1523  117.4162   75.0330 H   0  0  0  0  0  0  0  0  0  0  0  0
  130.2950  120.5820   75.1430 H   0  0  0  0  0  0  0  0  0  0  0  0
  128.8470  119.8230   75.6780 H   0  0  0  0  0  0  0  0  0  0  0  0
  131.1750  121.6280   74.0290 H   0  0  0  0  0  0  0  0  0  0  0  0
  132.5254  126.6624   74.6636 H   0  0  0  0  0  0  0  0  0  0  0  0
  134.5799  125.2297   75.4080 H   0  0  0  0  0  0  0  0  0  0  0  0
  1  2  1  0
  2  3  2  0
  3  4  1  0
  4  5  1  0
  4  6  2  0
  6  7  1  0
  7  8  1  0
  7  9  2  0
  9 10  1  0
 10 11  2  0
 10 12  1  0
 12 13  1  0
 13 14  2  0
 14 15  1  0
 15 16  2  0
 16 17  1  0
  9 18  1  0
 18 19  1  0
 19 20  2  0
 20  2  1  0
 19  6  1  0
 17 13  1  0
  1 21  1  0
  1 22  1  0
  1 23  1  0
  3 24  1  0
  5 25  1  0
  5 26  1  0
  5 27  1  0
  8 28  1  0
  8 29  1  0
 12 30  1  0
 15 31  1  0
 16 32  1  0
M  END
>  <Binding energies>  (1) 
[-6.73]

>  <Ligand effiencies>  (1) 
[-0.29260869565217396]

>  <Interactions>  (1) 
["V-A:HIS:456:CD2:4066, H-B:LYS:547:NZ:9923, V-B:GLU:543:C:9874, V-A:HIS:456:CG:4064, V-A:HIS:456:CB:4063, V-B:LYS:547:CE:9922, V-B:GLY:544:CA:9886, V-A:HIS:456:C:4059, V-A:TYR:484:CG:4340, V-A:LYS:471:CE:4218, V-A:TYR:484:CB:4339, V-A:ASP:473:CB:4237, V-B:GLU:543:CA:9876, V-A:ASP:473:CG:4238, V-A:TYR:484:CD1:4341, V-A:VAL:458:CG2:4085, H-A:ASP:473:OD2:4240, V-B:VAL:542:CG1:9871, H-A:TYR:484:N:4338, V-A:SER:483:CB:4331, V-A:SER:483:CA:4329"]

$$$$
4ak_Grossjean_2025
     RDKit          3D

 50 51  0  0  0  0  0  0  0  0999 V2000
  131.6060  125.9680   73.1850 C   0  0  0  0  0  0  0  0  0  0  0  0
  130.3520  125.3080   73.1130 O   0  0  0  0  0  0  0  0  0  0  0  0
  129.4930  125.8330   72.1080 C   0  0  0  0  0  0  0  0  0  0  0  0
  130.2510  126.8810   71.2840 C   0  0  0  0  0  0  0  0  0  0  0  0
  129.3870  127.9750   71.0030 O   0  0  0  0  0  0  0  0  0  0  0  0
  128.1680  127.5980   70.3770 C   0  0  0  0  0  0  0  0  0  0  0  0
  128.2890  127.8100   68.8630 C   0  0  0  0  0  0  0  0  0  0  0  0
  129.5660  127.3640   68.4270 O   0  0  0  0  0  0  0  0  0  0  0  0
  129.5120  126.3940   67.3890 C   0  0  0  0  0  0  0  0  0  0  0  0
  130.7520  126.5440   66.4880 C   0  0  0  0  0  0  0  0  0  0  0  0
  130.8420  125.5270   65.4410 N   0  0  0  0  0  0  0  0  0  0  0  0
  131.9660  125.1870   64.7780 C   0  0  0  0  0  0  0  0  0  0  0  0
  133.0570  125.7060   65.0190 O   0  0  0  0  0  0  0  0  0  0  0  0
  131.8210  124.1540   63.7540 C   0  0  0  0  0  0  0  0  0  0  0  0
  130.6360  122.8640   63.9530 S   0  0  0  0  0  0  0  0  0  0  0  0
  131.0820  122.1550   62.4170 C   0  0  0  0  0  0  0  0  0  0  0  0
  130.4970  121.0490   61.9540 N   0  0  0  0  0  0  0  0  0  0  0  0
  130.9370  120.6020   60.7520 C   0  0  0  0  0  0  0  0  0  0  0  0
  130.2590  119.3440   60.2420 C   0  0  0  0  0  0  0  0  0  0  0  0
  131.9360  121.2290   60.0110 C   0  0  0  0  0  0  0  0  0  0  0  0
  132.5470  122.3900   60.4990 C   0  0  0  0  0  0  0  0  0  0  0  0
  133.6350  123.0360   59.6560 C   0  0  0  0  0  0  0  0  0  0  0  0
  132.1130  122.8880   61.7570 C   0  0  0  0  0  0  0  0  0  0  0  0
  132.5120  124.0270   62.5390 C   0  0  0  0  0  0  0  0  0  0  0  0
  133.4850  124.8990   62.1210 N   0  0  0  0  0  0  0  0  0  0  0  0
  131.8835  126.1140   74.2394 H   0  0  0  0  0  0  0  0  0  0  0  0
  132.3716  125.3560   72.6857 H   0  0  0  0  0  0  0  0  0  0  0  0
  131.5350  126.9456   72.6857 H   0  0  0  0  0  0  0  0  0  0  0  0
  129.1600  125.0184   71.4481 H   0  0  0  0  0  0  0  0  0  0  0  0
  128.6180  126.3019   72.5818 H   0  0  0  0  0  0  0  0  0  0  0  0
  131.1212  127.2376   71.8547 H   0  0  0  0  0  0  0  0  0  0  0  0
  130.5925  126.4303   70.3405 H   0  0  0  0  0  0  0  0  0  0  0  0
  127.9611  126.5377   70.5842 H   0  0  0  0  0  0  0  0  0  0  0  0
  127.3458  128.2136   70.7707 H   0  0  0  0  0  0  0  0  0  0  0  0
  127.5040  127.2370   68.3478 H   0  0  0  0  0  0  0  0  0  0  0  0
  128.1726  128.8787   68.6300 H   0  0  0  0  0  0  0  0  0  0  0  0
  129.4968  125.3858   67.8286 H   0  0  0  0  0  0  0  0  0  0  0  0
  128.6012  126.5444   66.7908 H   0  0  0  0  0  0  0  0  0  0  0  0
  130.7162  127.5337   66.0092 H   0  0  0  0  0  0  0  0  0  0  0  0
  131.6352  126.4224   67.1323 H   0  0  0  0  0  0  0  0  0  0  0  0
  129.9800  125.0590   65.1980 H   0  0  0  0  0  0  0  0  0  0  0  0
  129.9298  118.7332   61.0955 H   0  0  0  0  0  0  0  0  0  0  0  0
  129.3872  119.6195   59.6304 H   0  0  0  0  0  0  0  0  0  0  0  0
  130.9685  118.7673   59.6304 H   0  0  0  0  0  0  0  0  0  0  0  0
  132.2451  120.8114   59.0414 H   0  0  0  0  0  0  0  0  0  0  0  0
  134.3918  123.4854   60.3158 H   0  0  0  0  0  0  0  0  0  0  0  0
  134.1087  122.2727   59.0212 H   0  0  0  0  0  0  0  0  0  0  0  0
  133.1916  123.8173   59.0212 H   0  0  0  0  0  0  0  0  0  0  0  0
  133.7370  124.9910   61.1470 H   0  0  0  0  0  0  0  0  0  0  0  0
  133.9820  125.4850   62.7770 H   0  0  0  0  0  0  0  0  0  0  0  0
  1  2  1  0
  2  3  1  0
  3  4  1  0
  4  5  1  0
  5  6  1  0
  6  7  1  0
  7  8  1  0
  8  9  1  0
  9 10  1  0
 10 11  1  0
 11 12  1  0
 12 13  2  0
 12 14  1  0
 14 15  1  0
 15 16  1  0
 16 17  2  0
 17 18  1  0
 18 19  1  0
 18 20  2  0
 20 21  1  0
 21 22  1  0
 21 23  2  0
 23 24  1  0
 24 25  1  0
 24 14  2  0
 23 16  1  0
  1 26  1  0
  1 27  1  0
  1 28  1  0
  3 29  1  0
  3 30  1  0
  4 31  1  0
  4 32  1  0
  6 33  1  0
  6 34  1  0
  7 35  1  0
  7 36  1  0
  9 37  1  0
  9 38  1  0
 10 39  1  0
 10 40  1  0
 11 41  1  0
 19 42  1  0
 19 43  1  0
 19 44  1  0
 20 45  1  0
 22 46  1  0
 22 47  1  0
 22 48  1  0
 25 49  1  0
 25 50  1  0
M  END
>  <Binding energies>  (1) 
[-6.47]

>  <Ligand effiencies>  (1) 
[-0.23107142857142857]

>  <Interactions>  (1) 
["V-B:GLU:543:CB:9878, V-A:HIS:456:CE1:4068, V-A:HIS:456:CD2:4066, V-B:GLU:543:CD:9880, V-A:GLU:543:CD:4906, V-B:HIS:456:CE1:9042, V-B:GLY:544:C:9884, V-A:GLY:544:C:4910, V-B:HIS:456:CD2:9040, V-B:GLU:543:CG:9879, V-A:GLU:543:CG:4905, H-B:LYS:547:NZ:9923, V-A:ARG:545:CZ:4924, V-A:ARG:545:CG:4920, H-A:TYR:484:OH:4346, V-A:HIS:456:CG:4064, V-A:HIS:456:CB:4063, V-A:TYR:484:CZ:4345, V-B:LYS:547:CE:9922, H-B:GLU:543:OE1:9881, V-B:GLY:544:CA:9886, H-A:ARG:545:NE:4922, V-A:TRP:381:CZ2:3368, V-A:ILE:369:CD1:3237, V-A:LEU:475:CD2:4257, V-A:TRP:381:CH2:3370, V-B:ALA:541:CB:9864, V-B:TYR:539:CD2:9846, V-B:TYR:539:CE2:9848, V-A:ILE:369:CG2:3235, V-A:ILE:369:CB:3234, H-A:ARG:545:NH2:4926, V-A:TRP:381:CZ3:3369, V-A:PRO:482:CG:4325, V-A:PRO:482:CB:4324, V-A:TYR:484:CE1:4343, H-B:GLU:543:OE2:9882, H-A:ASP:366:OD1:3212"]

$$$$
4al_Grossjean_2025
     RDKit          3D

 28 29  0  0  0  0  0  0  0  0999 V2000
  131.0230  126.0140   65.9810 C   0  0  0  0  0  0  0  0  0  0  0  0
  132.0740  126.3380   65.0830 O   0  0  0  0  0  0  0  0  0  0  0  0
  132.8840  125.3710   64.5800 C   0  0  0  0  0  0  0  0  0  0  0  0
  134.0870  125.2780   64.8340 O   0  0  0  0  0  0  0  0  0  0  0  0
  132.1730  124.4320   63.6860 C   0  0  0  0  0  0  0  0  0  0  0  0
  132.8460  122.8300   63.3750 S   0  0  0  0  0  0  0  0  0  0  0  0
  131.5070  122.4250   62.3260 C   0  0  0  0  0  0  0  0  0  0  0  0
  131.4190  121.2410   61.7200 N   0  0  0  0  0  0  0  0  0  0  0  0
  130.3300  121.0540   60.9330 C   0  0  0  0  0  0  0  0  0  0  0  0
  130.2500  119.6990   60.2530 C   0  0  0  0  0  0  0  0  0  0  0  0
  129.3390  122.0130   60.7410 C   0  0  0  0  0  0  0  0  0  0  0  0
  129.4340  123.2550   61.3780 C   0  0  0  0  0  0  0  0  0  0  0  0
  128.3280  124.2700   61.1380 C   0  0  0  0  0  0  0  0  0  0  0  0
  130.5610  123.4880   62.2110 C   0  0  0  0  0  0  0  0  0  0  0  0
  130.9680  124.6190   62.9980 C   0  0  0  0  0  0  0  0  0  0  0  0
  130.2340  125.7750   63.0630 N   0  0  0  0  0  0  0  0  0  0  0  0
  131.3784  126.1236   67.0162 H   0  0  0  0  0  0  0  0  0  0  0  0
  130.1736  126.6920   65.8112 H   0  0  0  0  0  0  0  0  0  0  0  0
  130.7028  124.9754   65.8112 H   0  0  0  0  0  0  0  0  0  0  0  0
  130.2033  118.9080   61.0160 H   0  0  0  0  0  0  0  0  0  0  0  0
  129.3478  119.6565   59.6251 H   0  0  0  0  0  0  0  0  0  0  0  0
  131.1410  119.5507   59.6251 H   0  0  0  0  0  0  0  0  0  0  0  0
  128.4811  121.7941   60.0883 H   0  0  0  0  0  0  0  0  0  0  0  0
  127.9406  124.6255   62.1042 H   0  0  0  0  0  0  0  0  0  0  0  0
  128.7288  125.1212   60.5681 H   0  0  0  0  0  0  0  0  0  0  0  0
  127.5143  123.7977   60.5681 H   0  0  0  0  0  0  0  0  0  0  0  0
  129.2750  125.8190   62.7480 H   0  0  0  0  0  0  0  0  0  0  0  0
  130.6310  126.6300   63.4300 H   0  0  0  0  0  0  0  0  0  0  0  0
  1  2  1  0
  2  3  1  0
  3  4  2  0
  3  5  1  0
  5  6  1  0
  6  7  1  0
  7  8  2  0
  8  9  1  0
  9 10  1  0
  9 11  2  0
 11 12  1  0
 12 13  1  0
 12 14  2  0
 14 15  1  0
 15 16  1  0
 15  5  2  0
 14  7  1  0
  1 17  1  0
  1 18  1  0
  1 19  1  0
 10 20  1  0
 10 21  1  0
 10 22  1  0
 11 23  1  0
 13 24  1  0
 13 25  1  0
 13 26  1  0
 16 27  1  0
 16 28  1  0
M  END
>  <Binding energies>  (1) 
[-5.15]

>  <Ligand effiencies>  (1) 
[-0.28611111111111115]

>  <Interactions>  (1) 
["V-A:HIS:456:CE1:4068, V-B:GLU:543:CD:9880, H-A:GLY:454:N:4048, V-A:ARG:545:CZ:4924, H-A:TYR:484:OH:4346, V-A:ARG:545:CD:4921, H-A:ARG:545:NH1:4925, H-B:GLU:543:OE1:9881, H-A:ARG:545:NE:4922, V-A:TRP:381:CZ2:3368, V-A:LEU:475:CD2:4257, V-A:TRP:381:CH2:3370, V-B:TYR:539:C:9839, V-A:GLY:454:CA:4047, V-B:ALA:541:CB:9864, V-B:TYR:539:CD2:9846, H-A:ARG:545:NH2:4926, H-A:GLU:543:OE2:4908, H-B:GLU:543:OE2:9882"]

$$$$
4ba_Grossjean_2025
     RDKit          3D

 44 46  0  0  0  0  0  0  0  0999 V2000
  130.1530  127.3600   72.5910 C   0  0  0  0  0  0  0  0  0  0  0  0
  129.4530  128.4940   71.8200 C   0  0  0  0  0  0  0  0  0  0  0  0
  128.5070  128.0330   70.6920 C   0  0  0  0  0  0  0  0  0  0  0  0
  127.2900  128.0090   70.8910 O   0  0  0  0  0  0  0  0  0  0  0  0
  129.1250  127.6330   69.3830 C   0  0  0  0  0  0  0  0  0  0  0  0
  128.2970  127.2500   68.3200 C   0  0  0  0  0  0  0  0  0  0  0  0
  128.8430  126.8730   67.0970 C   0  0  0  0  0  0  0  0  0  0  0  0
  130.2250  126.8760   66.9080 C   0  0  0  0  0  0  0  0  0  0  0  0
  130.6700  126.4690   65.6350 N   0  0  0  0  0  0  0  0  0  0  0  0
  131.7990  125.8110   65.2750 C   0  0  0  0  0  0  0  0  0  0  0  0
  132.6890  125.4830   66.0610 O   0  0  0  0  0  0  0  0  0  0  0  0
  131.9230  125.5200   63.8450 C   0  0  0  0  0  0  0  0  0  0  0  0
  133.3250  124.6400   63.2390 S   0  0  0  0  0  0  0  0  0  0  0  0
  132.7510  124.7680   61.5930 C   0  0  0  0  0  0  0  0  0  0  0  0
  133.4390  124.2520   60.5760 N   0  0  0  0  0  0  0  0  0  0  0  0
  132.8960  124.4140   59.3480 C   0  0  0  0  0  0  0  0  0  0  0  0
  133.7000  123.8260   58.2020 C   0  0  0  0  0  0  0  0  0  0  0  0
  131.6900  125.0710   59.1150 C   0  0  0  0  0  0  0  0  0  0  0  0
  130.9600  125.6170   60.1830 C   0  0  0  0  0  0  0  0  0  0  0  0
  129.6380  126.3280   59.8780 C   0  0  0  0  0  0  0  0  0  0  0  0
  129.6320  127.6070   60.2600 F   0  0  0  0  0  0  0  0  0  0  0  0
  129.4010  126.3020   58.5660 F   0  0  0  0  0  0  0  0  0  0  0  0
  128.6400  125.7170   60.5180 F   0  0  0  0  0  0  0  0  0  0  0  0
  131.5090  125.4680   61.4920 C   0  0  0  0  0  0  0  0  0  0  0  0
  131.0660  125.8930   62.7970 C   0  0  0  0  0  0  0  0  0  0  0  0
  129.9060  126.6000   62.9900 N   0  0  0  0  0  0  0  0  0  0  0  0
  131.0620  127.2520   67.9700 C   0  0  0  0  0  0  0  0  0  0  0  0
  130.5140  127.6280   69.1930 C   0  0  0  0  0  0  0  0  0  0  0  0
  130.0469  127.5319   73.6723 H   0  0  0  0  0  0  0  0  0  0  0  0
  129.6918  126.3972   72.3258 H   0  0  0  0  0  0  0  0  0  0  0  0
  131.2204  127.3407   72.3258 H   0  0  0  0  0  0  0  0  0  0  0  0
  128.8641  129.0819   72.5394 H   0  0  0  0  0  0  0  0  0  0  0  0
  130.2524  129.0710   71.3321 H   0  0  0  0  0  0  0  0  0  0  0  0
  127.2051  127.2473   68.4534 H   0  0  0  0  0  0  0  0  0  0  0  0
  128.1799  126.5704   66.2731 H   0  0  0  0  0  0  0  0  0  0  0  0
  130.0500  126.7250   64.8820 H   0  0  0  0  0  0  0  0  0  0  0  0
  134.5260  123.2219   58.6056 H   0  0  0  0  0  0  0  0  0  0  0  0
  133.0481  123.1901   57.5851 H   0  0  0  0  0  0  0  0  0  0  0  0
  134.1084  124.6400   57.5851 H   0  0  0  0  0  0  0  0  0  0  0  0
  131.3071  125.1627   58.0879 H   0  0  0  0  0  0  0  0  0  0  0  0
  129.9060  127.5990   63.1390 H   0  0  0  0  0  0  0  0  0  0  0  0
  129.0060  126.1400   62.9990 H   0  0  0  0  0  0  0  0  0  0  0  0
  132.1537  127.2495   67.8355 H   0  0  0  0  0  0  0  0  0  0  0  0
  131.1775  127.9242   70.0188 H   0  0  0  0  0  0  0  0  0  0  0  0
  1  2  1  0
  2  3  1  0
  3  4  2  0
  3  5  1  0
  5  6  2  0
  6  7  1  0
  7  8  2  0
  8  9  1  0
  9 10  1  0
 10 11  2  0
 10 12  1  0
 12 13  1  0
 13 14  1  0
 14 15  2  0
 15 16  1  0
 16 17  1  0
 16 18  2  0
 18 19  1  0
 19 20  1  0
 20 21  1  0
 20 22  1  0
 20 23  1  0
 19 24  2  0
 24 25  1  0
 25 26  1  0
  8 27  1  0
 27 28  2  0
 28  5  1  0
 25 12  2  0
 24 14  1  0
  1 29  1  0
  1 30  1  0
  1 31  1  0
  2 32  1  0
  2 33  1  0
  6 34  1  0
  7 35  1  0
  9 36  1  0
 17 37  1  0
 17 38  1  0
 17 39  1  0
 18 40  1  0
 26 41  1  0
 26 42  1  0
 27 43  1  0
 28 44  1  0
M  END
>  <Binding energies>  (1) 
[-7.12]

>  <Ligand effiencies>  (1) 
[-0.2296774193548387]

>  <Interactions>  (1) 
["V-B:GLU:543:CB:9878, V-A:HIS:456:CE1:4068, V-B:GLU:543:CD:9880, V-A:GLU:543:CD:4906, V-B:HIS:456:CE1:9042, V-A:GLY:544:CA:4912, V-A:GLY:544:C:4910, V-B:HIS:456:CD2:9040, V-B:GLU:543:CG:9879, V-A:GLU:543:CG:4905, V-B:GLU:543:C:9874, V-A:ARG:545:CZ:4924, V-A:ARG:545:CG:4920, V-A:LYS:547:CE:4948, H-A:TYR:484:OH:4346, V-A:ARG:545:CD:4921, H-B:GLU:543:OE1:9881, H-A:ARG:545:NE:4922, V-A:GLU:543:C:4900, V-B:TYR:539:CZ:9849, V-A:ASP:366:CG:3211, V-B:TYR:539:CE2:9848, V-A:ILE:369:CG2:3235, V-A:ASP:366:CA:3208, V-A:ASP:366:CB:3210, V-A:ILE:369:CB:3234, H-A:GLU:543:OE2:4908, H-A:GLU:543:OE1:4907, H-B:HIS:456:ND1:9039, H-B:GLU:543:OE2:9882, H-A:HIS:456:ND1:4065"]

$$$$
4bb_Grossjean_2025
     RDKit          3D

 41 43  0  0  0  0  0  0  0  0999 V2000
  129.4110  128.4920   71.8210 C   0  0  0  0  0  0  0  0  0  0  0  0
  128.4780  128.0110   70.7070 C   0  0  0  0  0  0  0  0  0  0  0  0
  127.2690  127.9700   70.9390 O   0  0  0  0  0  0  0  0  0  0  0  0
  129.0860  127.6060   69.3970 C   0  0  0  0  0  0  0  0  0  0  0  0
  128.2500  127.2100   68.3450 C   0  0  0  0  0  0  0  0  0  0  0  0
  128.7890  126.8290   67.1200 C   0  0  0  0  0  0  0  0  0  0  0  0
  130.1700  126.8430   66.9190 C   0  0  0  0  0  0  0  0  0  0  0  0
  130.6070  126.4360   65.6430 N   0  0  0  0  0  0  0  0  0  0  0  0
  131.7070  125.7310   65.2830 C   0  0  0  0  0  0  0  0  0  0  0  0
  132.5650  125.3360   66.0720 O   0  0  0  0  0  0  0  0  0  0  0  0
  131.8440  125.4780   63.8460 C   0  0  0  0  0  0  0  0  0  0  0  0
  133.2390  124.5960   63.2290 S   0  0  0  0  0  0  0  0  0  0  0  0
  132.6810  124.7710   61.5810 C   0  0  0  0  0  0  0  0  0  0  0  0
  133.3650  124.2650   60.5580 N   0  0  0  0  0  0  0  0  0  0  0  0
  132.8330  124.4650   59.3300 C   0  0  0  0  0  0  0  0  0  0  0  0
  133.6290  123.8790   58.1780 C   0  0  0  0  0  0  0  0  0  0  0  0
  131.6450  125.1540   59.1040 C   0  0  0  0  0  0  0  0  0  0  0  0
  130.9190  125.6890   60.1790 C   0  0  0  0  0  0  0  0  0  0  0  0
  129.6160  126.4390   59.8800 C   0  0  0  0  0  0  0  0  0  0  0  0
  129.6260  127.6990   60.3220 F   0  0  0  0  0  0  0  0  0  0  0  0
  129.4100  126.4790   58.5640 F   0  0  0  0  0  0  0  0  0  0  0  0
  128.5930  125.8180   60.4670 F   0  0  0  0  0  0  0  0  0  0  0  0
  131.4520  125.4960   61.4890 C   0  0  0  0  0  0  0  0  0  0  0  0
  131.0020  125.8910   62.8000 C   0  0  0  0  0  0  0  0  0  0  0  0
  129.8460  126.6010   63.0030 N   0  0  0  0  0  0  0  0  0  0  0  0
  131.0140  127.2320   67.9710 C   0  0  0  0  0  0  0  0  0  0  0  0
  130.4730  127.6120   69.1970 C   0  0  0  0  0  0  0  0  0  0  0  0
  128.9636  128.2614   72.7991 H   0  0  0  0  0  0  0  0  0  0  0  0
  130.3815  127.9819   71.7323 H   0  0  0  0  0  0  0  0  0  0  0  0
  129.5584  129.5785   71.7323 H   0  0  0  0  0  0  0  0  0  0  0  0
  127.1594  127.2002   68.4884 H   0  0  0  0  0  0  0  0  0  0  0  0
  128.1217  126.5145   66.3040 H   0  0  0  0  0  0  0  0  0  0  0  0
  130.0110  126.7410   64.8870 H   0  0  0  0  0  0  0  0  0  0  0  0
  134.4551  123.2708   58.5751 H   0  0  0  0  0  0  0  0  0  0  0  0
  132.9719  123.2475   57.5621 H   0  0  0  0  0  0  0  0  0  0  0  0
  134.0368  124.6940   57.5621 H   0  0  0  0  0  0  0  0  0  0  0  0
  131.2730  125.2799   58.0765 H   0  0  0  0  0  0  0  0  0  0  0  0
  129.8490  127.6060   63.1160 H   0  0  0  0  0  0  0  0  0  0  0  0
  128.9470  126.1420   63.0460 H   0  0  0  0  0  0  0  0  0  0  0  0
  132.1045  127.2368   67.8269 H   0  0  0  0  0  0  0  0  0  0  0  0
  131.1404  127.9195   70.0155 H   0  0  0  0  0  0  0  0  0  0  0  0
  1  2  1  0
  2  3  2  0
  2  4  1  0
  4  5  2  0
  5  6  1  0
  6  7  2  0
  7  8  1  0
  8  9  1  0
  9 10  2  0
  9 11  1  0
 11 12  1  0
 12 13  1  0
 13 14  2  0
 14 15  1  0
 15 16  1  0
 15 17  2  0
 17 18  1  0
 18 19  1  0
 19 20  1  0
 19 21  1  0
 19 22  1  0
 18 23  2  0
 23 24  1  0
 24 25  1  0
  7 26  1  0
 26 27  2  0
 27  4  1  0
 24 11  2  0
 23 13  1  0
  1 28  1  0
  1 29  1  0
  1 30  1  0
  5 31  1  0
  6 32  1  0
  8 33  1  0
 16 34  1  0
 16 35  1  0
 16 36  1  0
 17 37  1  0
 25 38  1  0
 25 39  1  0
 26 40  1  0
 27 41  1  0
M  END
>  <Binding energies>  (1) 
[-6.89]

>  <Ligand effiencies>  (1) 
[-0.22966666666666666]

>  <Interactions>  (1) 
["V-B:GLU:543:CB:9878, V-A:HIS:456:CE1:4068, V-B:GLU:543:CD:9880, V-A:GLU:543:CD:4906, V-B:HIS:456:CE1:9042, V-A:GLY:544:CA:4912, V-A:GLY:544:C:4910, V-B:HIS:456:CD2:9040, V-B:GLU:543:CG:9879, V-A:GLU:543:CG:4905, V-B:GLU:543:C:9874, V-A:ARG:545:CZ:4924, V-A:ARG:545:CG:4920, V-A:LYS:547:CE:4948, H-A:TYR:484:OH:4346, H-B:GLU:543:OE1:9881, H-A:ARG:545:NE:4922, V-A:GLU:543:C:4900, V-B:TYR:539:CZ:9849, V-A:ASP:366:CG:3211, V-B:TYR:539:CE2:9848, V-A:ILE:369:CG2:3235, V-A:ASP:366:CA:3208, V-A:ASP:366:CB:3210, V-A:ILE:369:CB:3234, H-A:GLU:543:OE2:4908, H-A:GLU:543:OE1:4907, H-B:HIS:456:ND1:9039, H-B:GLU:543:OE2:9882, H-A:HIS:456:ND1:4065"]

$$$$
4bc_Grossjean_2025
     RDKit          3D

 40 42  0  0  0  0  0  0  0  0999 V2000
  128.7640  128.3440   72.0170 C   0  0  0  0  0  0  0  0  0  0  0  0
  128.0000  128.0410   70.8540 O   0  0  0  0  0  0  0  0  0  0  0  0
  128.6560  127.6740   69.6950 C   0  0  0  0  0  0  0  0  0  0  0  0
  127.8530  127.3310   68.6080 C   0  0  0  0  0  0  0  0  0  0  0  0
  128.4230  126.9460   67.3970 C   0  0  0  0  0  0  0  0  0  0  0  0
  129.8120  126.9080   67.2550 C   0  0  0  0  0  0  0  0  0  0  0  0
  130.2970  126.4940   66.0020 N   0  0  0  0  0  0  0  0  0  0  0  0
  130.6620  125.2550   65.5910 C   0  0  0  0  0  0  0  0  0  0  0  0
  130.6510  124.2590   66.3160 O   0  0  0  0  0  0  0  0  0  0  0  0
  131.0930  125.1560   64.1930 C   0  0  0  0  0  0  0  0  0  0  0  0
  132.3680  124.0300   63.7350 S   0  0  0  0  0  0  0  0  0  0  0  0
  132.2610  124.5180   62.0600 C   0  0  0  0  0  0  0  0  0  0  0  0
  133.0410  123.9750   61.1260 N   0  0  0  0  0  0  0  0  0  0  0  0
  132.8680  124.4350   59.8660 C   0  0  0  0  0  0  0  0  0  0  0  0
  133.7630  123.8000   58.8170 C   0  0  0  0  0  0  0  0  0  0  0  0
  131.9420  125.4170   59.5200 C   0  0  0  0  0  0  0  0  0  0  0  0
  131.1180  125.9930   60.5000 C   0  0  0  0  0  0  0  0  0  0  0  0
  130.1160  127.0710   60.0710 C   0  0  0  0  0  0  0  0  0  0  0  0
  128.8500  126.7380   60.3280 F   0  0  0  0  0  0  0  0  0  0  0  0
  130.3720  128.2060   60.7210 F   0  0  0  0  0  0  0  0  0  0  0  0
  130.2150  127.2830   58.7590 F   0  0  0  0  0  0  0  0  0  0  0  0
  131.2740  125.5280   61.8400 C   0  0  0  0  0  0  0  0  0  0  0  0
  130.6210  125.8700   63.0800 C   0  0  0  0  0  0  0  0  0  0  0  0
  129.6260  126.8110   63.1570 N   0  0  0  0  0  0  0  0  0  0  0  0
  130.6270  127.2390   68.3490 C   0  0  0  0  0  0  0  0  0  0  0  0
  130.0530  127.6220   69.5570 C   0  0  0  0  0  0  0  0  0  0  0  0
  128.1734  128.1098   72.9150 H   0  0  0  0  0  0  0  0  0  0  0  0
  129.6855  127.7432   72.0172 H   0  0  0  0  0  0  0  0  0  0  0  0
  129.0232  129.4130   72.0172 H   0  0  0  0  0  0  0  0  0  0  0  0
  126.7581  127.3648   68.7079 H   0  0  0  0  0  0  0  0  0  0  0  0
  127.7774  126.6710   66.5499 H   0  0  0  0  0  0  0  0  0  0  0  0
  130.4150  127.2390   65.3320 H   0  0  0  0  0  0  0  0  0  0  0  0
  134.5636  123.2320   59.3133 H   0  0  0  0  0  0  0  0  0  0  0  0
  133.1672  123.1215   58.1888 H   0  0  0  0  0  0  0  0  0  0  0  0
  134.2067  124.5865   58.1888 H   0  0  0  0  0  0  0  0  0  0  0  0
  131.8561  125.7429   58.4729 H   0  0  0  0  0  0  0  0  0  0  0  0
  129.8230  127.8010   63.1330 H   0  0  0  0  0  0  0  0  0  0  0  0
  128.6550  126.5420   63.2390 H   0  0  0  0  0  0  0  0  0  0  0  0
  131.7218  127.1954   68.2509 H   0  0  0  0  0  0  0  0  0  0  0  0
  130.6968  127.8856   70.4090 H   0  0  0  0  0  0  0  0  0  0  0  0
  1  2  1  0
  2  3  1  0
  3  4  2  0
  4  5  1  0
  5  6  2  0
  6  7  1  0
  7  8  1  0
  8  9  2  0
  8 10  1  0
 10 11  1  0
 11 12  1  0
 12 13  2  0
 13 14  1  0
 14 15  1  0
 14 16  2  0
 16 17  1  0
 17 18  1  0
 18 19  1  0
 18 20  1  0
 18 21  1  0
 17 22  2  0
 22 23  1  0
 23 24  1  0
  6 25  1  0
 25 26  2  0
 26  3  1  0
 23 10  2  0
 22 12  1  0
  1 27  1  0
  1 28  1  0
  1 29  1  0
  4 30  1  0
  5 31  1  0
  7 32  1  0
 15 33  1  0
 15 34  1  0
 15 35  1  0
 16 36  1  0
 24 37  1  0
 24 38  1  0
 25 39  1  0
 26 40  1  0
M  END
>  <Binding energies>  (1) 
[-6.24]

>  <Ligand effiencies>  (1) 
[-0.21517241379310345]

>  <Interactions>  (1) 
["V-B:GLU:543:CB:9878, V-A:HIS:456:CE1:4068, V-B:GLU:543:CD:9880, V-A:GLU:543:CD:4906, V-B:HIS:456:CE1:9042, V-A:GLY:544:C:4910, V-B:HIS:456:CD2:9040, V-B:GLU:543:CG:9879, V-A:GLU:543:CG:4905, V-B:GLU:543:C:9874, V-A:ARG:545:CG:4920, H-A:TYR:484:OH:4346, H-B:GLU:543:OE1:9881, V-A:GLU:543:C:4900, V-A:ILE:369:CD1:3237, V-A:ASP:366:CG:3211, V-B:TYR:539:CE2:9848, V-A:ILE:369:CG2:3235, V-A:ASP:366:CA:3208, V-A:ASP:366:CB:3210, V-A:ILE:369:CB:3234, H-A:GLU:543:OE2:4908, H-A:GLU:543:OE1:4907, H-B:GLU:543:OE2:9882"]

$$$$
4bd_Grossjean_2025
     RDKit          3D

 36 38  0  0  0  0  0  0  0  0999 V2000
  133.7480  123.8410   58.8350 C   0  0  0  0  0  0  0  0  0  0  0  0
  132.8480  124.4670   59.8850 C   0  0  0  0  0  0  0  0  0  0  0  0
  131.9270  125.4540   59.5460 C   0  0  0  0  0  0  0  0  0  0  0  0
  131.1030  126.0260   60.5270 C   0  0  0  0  0  0  0  0  0  0  0  0
  130.1070  127.1120   60.1060 C   0  0  0  0  0  0  0  0  0  0  0  0
  128.8400  126.7910   60.3750 F   0  0  0  0  0  0  0  0  0  0  0  0
  130.3760  128.2470   60.7510 F   0  0  0  0  0  0  0  0  0  0  0  0
  130.1950  127.3200   58.7930 F   0  0  0  0  0  0  0  0  0  0  0  0
  131.2540  125.5510   61.8640 C   0  0  0  0  0  0  0  0  0  0  0  0
  130.6010  125.8890   63.1060 C   0  0  0  0  0  0  0  0  0  0  0  0
  129.6110  126.8330   63.1870 N   0  0  0  0  0  0  0  0  0  0  0  0
  131.0710  125.1670   64.2160 C   0  0  0  0  0  0  0  0  0  0  0  0
  130.6480  125.2680   65.6160 C   0  0  0  0  0  0  0  0  0  0  0  0
  130.6800  124.2820   66.3540 O   0  0  0  0  0  0  0  0  0  0  0  0
  130.2460  126.5000   66.0140 N   0  0  0  0  0  0  0  0  0  0  0  0
  129.7480  126.9180   67.2620 C   0  0  0  0  0  0  0  0  0  0  0  0
  128.3560  126.9850   67.3750 C   0  0  0  0  0  0  0  0  0  0  0  0
  127.7660  127.3790   68.5720 C   0  0  0  0  0  0  0  0  0  0  0  0
  128.5680  127.6980   69.6650 C   0  0  0  0  0  0  0  0  0  0  0  0
  129.9550  127.6230   69.5700 C   0  0  0  0  0  0  0  0  0  0  0  0
  130.5490  127.2300   68.3730 C   0  0  0  0  0  0  0  0  0  0  0  0
  132.3390  124.0350   63.7510 S   0  0  0  0  0  0  0  0  0  0  0  0
  132.2360  124.5350   62.0790 C   0  0  0  0  0  0  0  0  0  0  0  0
  133.0150  123.9960   61.1430 N   0  0  0  0  0  0  0  0  0  0  0  0
  134.5543  123.2802   59.3304 H   0  0  0  0  0  0  0  0  0  0  0  0
  133.1581  123.1573   58.2069 H   0  0  0  0  0  0  0  0  0  0  0  0
  134.1838  124.6319   58.2069 H   0  0  0  0  0  0  0  0  0  0  0  0
  131.8445  125.7881   58.5012 H   0  0  0  0  0  0  0  0  0  0  0  0
  128.6450  126.5830   63.3440 H   0  0  0  0  0  0  0  0  0  0  0  0
  129.8160  127.8190   63.0990 H   0  0  0  0  0  0  0  0  0  0  0  0
  130.3270  127.2370   65.3290 H   0  0  0  0  0  0  0  0  0  0  0  0
  127.7240  126.7249   66.5131 H   0  0  0  0  0  0  0  0  0  0  0  0
  126.6707  127.4383   68.6546 H   0  0  0  0  0  0  0  0  0  0  0  0
  128.1020  128.0117   70.6107 H   0  0  0  0  0  0  0  0  0  0  0  0
  130.5809  127.8738   70.4391 H   0  0  0  0  0  0  0  0  0  0  0  0
  131.6444  127.1640   68.2977 H   0  0  0  0  0  0  0  0  0  0  0  0
  1  2  1  0
  2  3  2  0
  3  4  1  0
  4  5  1  0
  5  6  1  0
  5  7  1  0
  5  8  1  0
  4  9  2  0
  9 10  1  0
 10 11  1  0
 10 12  2  0
 12 13  1  0
 13 14  2  0
 13 15  1  0
 15 16  1  0
 16 17  2  0
 17 18  1  0
 18 19  2  0
 19 20  1  0
 20 21  2  0
 12 22  1  0
 22 23  1  0
 23 24  2  0
 24  2  1  0
 23  9  1  0
 21 16  1  0
  1 25  1  0
  1 26  1  0
  1 27  1  0
  3 28  1  0
 11 29  1  0
 11 30  1  0
 15 31  1  0
 17 32  1  0
 18 33  1  0
 19 34  1  0
 20 35  1  0
 21 36  1  0
M  END
>  <Binding energies>  (1) 
[-6.26]

>  <Ligand effiencies>  (1) 
[-0.23185185185185184]

>  <Interactions>  (1) 
["V-B:GLU:543:CB:9878, V-A:HIS:456:CE1:4068, V-B:GLU:543:CD:9880, V-A:GLU:543:CD:4906, V-B:HIS:456:CE1:9042, V-A:GLY:544:C:4910, V-B:GLU:543:CG:9879, V-A:GLU:543:CG:4905, V-B:GLU:543:C:9874, V-A:ARG:545:CG:4920, H-A:TYR:484:OH:4346, H-B:GLU:543:OE1:9881, V-A:GLU:543:C:4900, V-A:ILE:369:CD1:3237, V-A:ASP:366:CG:3211, V-B:TYR:539:CE2:9848, V-A:ILE:369:CG2:3235, V-A:ASP:366:CA:3208, V-A:ASP:366:CB:3210, V-A:ILE:369:CB:3234, H-A:GLU:543:OE2:4908, H-A:GLU:543:OE1:4907, H-B:GLU:543:OE2:9882"]

$$$$
4be_Grossjean_2025
     RDKit          3D

 38 40  0  0  0  0  0  0  0  0999 V2000
  130.6280  127.2580   70.6240 C   0  0  0  0  0  0  0  0  0  0  0  0
  129.7190  127.2650   69.4100 C   0  0  0  0  0  0  0  0  0  0  0  0
  128.3840  127.6690   69.4980 C   0  0  0  0  0  0  0  0  0  0  0  0
  127.6060  127.6470   68.3410 C   0  0  0  0  0  0  0  0  0  0  0  0
  128.1740  127.2280   67.1350 C   0  0  0  0  0  0  0  0  0  0  0  0
  129.5190  126.8430   67.1160 C   0  0  0  0  0  0  0  0  0  0  0  0
  130.0280  126.4240   65.8730 N   0  0  0  0  0  0  0  0  0  0  0  0
  130.5580  125.2230   65.5300 C   0  0  0  0  0  0  0  0  0  0  0  0
  130.6670  124.2740   66.3090 O   0  0  0  0  0  0  0  0  0  0  0  0
  131.0310  125.1160   64.1470 C   0  0  0  0  0  0  0  0  0  0  0  0
  132.3390  124.0060   63.7430 S   0  0  0  0  0  0  0  0  0  0  0  0
  132.2940  124.4930   62.0640 C   0  0  0  0  0  0  0  0  0  0  0  0
  133.1190  123.9610   61.1640 N   0  0  0  0  0  0  0  0  0  0  0  0
  132.9880  124.4160   59.8960 C   0  0  0  0  0  0  0  0  0  0  0  0
  133.9380  123.7990   58.8870 C   0  0  0  0  0  0  0  0  0  0  0  0
  132.0600  125.3800   59.5120 C   0  0  0  0  0  0  0  0  0  0  0  0
  131.1870  125.9440   60.4560 C   0  0  0  0  0  0  0  0  0  0  0  0
  130.1800  126.9990   59.9850 C   0  0  0  0  0  0  0  0  0  0  0  0
  128.9120  126.6450   60.2070 F   0  0  0  0  0  0  0  0  0  0  0  0
  130.3920  128.1450   60.6310 F   0  0  0  0  0  0  0  0  0  0  0  0
  130.3160  127.1990   58.6750 F   0  0  0  0  0  0  0  0  0  0  0  0
  131.3020  125.4890   61.8040 C   0  0  0  0  0  0  0  0  0  0  0  0
  130.6030  125.8320   63.0180 C   0  0  0  0  0  0  0  0  0  0  0  0
  129.6050  126.7710   63.0580 N   0  0  0  0  0  0  0  0  0  0  0  0
  130.2850  126.8560   68.2460 N   0  0  0  0  0  0  0  0  0  0  0  0
  130.0176  127.2627   71.5391 H   0  0  0  0  0  0  0  0  0  0  0  0
  131.2559  126.3550   70.6067 H   0  0  0  0  0  0  0  0  0  0  0  0
  131.2697  128.1512   70.6067 H   0  0  0  0  0  0  0  0  0  0  0  0
  127.9570  127.9966   70.4574 H   0  0  0  0  0  0  0  0  0  0  0  0
  126.5514  127.9576   68.3774 H   0  0  0  0  0  0  0  0  0  0  0  0
  127.5727  127.2012   66.2143 H   0  0  0  0  0  0  0  0  0  0  0  0
  130.0300  127.1360   65.1580 H   0  0  0  0  0  0  0  0  0  0  0  0
  134.7461  123.2741   59.4175 H   0  0  0  0  0  0  0  0  0  0  0  0
  133.3892  123.0845   58.2559 H   0  0  0  0  0  0  0  0  0  0  0  0
  134.3676  124.5910   58.2559 H   0  0  0  0  0  0  0  0  0  0  0  0
  132.0103  125.7022   58.4614 H   0  0  0  0  0  0  0  0  0  0  0  0
  128.6320  126.5140   63.1490 H   0  0  0  0  0  0  0  0  0  0  0  0
  129.8100  127.7580   62.9910 H   0  0  0  0  0  0  0  0  0  0  0  0
  1  2  1  0
  2  3  2  0
  3  4  1  0
  4  5  2  0
  5  6  1  0
  6  7  1  0
  7  8  1  0
  8  9  2  0
  8 10  1  0
 10 11  1  0
 11 12  1  0
 12 13  2  0
 13 14  1  0
 14 15  1  0
 14 16  2  0
 16 17  1  0
 17 18  1  0
 18 19  1  0
 18 20  1  0
 18 21  1  0
 17 22  2  0
 22 23  1  0
 23 24  1  0
  6 25  2  0
 25  2  1  0
 23 10  2  0
 22 12  1  0
  1 26  1  0
  1 27  1  0
  1 28  1  0
  3 29  1  0
  4 30  1  0
  5 31  1  0
  7 32  1  0
 15 33  1  0
 15 34  1  0
 15 35  1  0
 16 36  1  0
 24 37  1  0
 24 38  1  0
M  END
>  <Binding energies>  (1) 
[-6.34]

>  <Ligand effiencies>  (1) 
[-0.22642857142857142]

>  <Interactions>  (1) 
["V-B:GLU:543:CB:9878, V-A:HIS:456:CE1:4068, V-A:HIS:456:CD2:4066, V-B:GLU:543:CD:9880, V-A:GLU:543:CD:4906, V-B:HIS:456:CE1:9042, V-A:GLY:544:CA:4912, V-A:GLY:544:C:4910, V-B:GLU:543:CG:9879, H-A:TYR:484:OH:4346, H-B:GLU:543:OE1:9881, V-A:ILE:369:CD1:3237, V-A:ASP:366:CG:3211, V-B:TYR:539:CE2:9848, V-A:ILE:369:CG2:3235, V-A:ASP:366:CA:3208, V-A:ASP:366:CB:3210, V-A:ILE:369:CB:3234, H-A:GLU:543:OE2:4908, H-A:GLU:543:OE1:4907, H-B:GLU:543:OE2:9882"]

$$$$
4bf_Grossjean_2025
     RDKit          3D

 35 37  0  0  0  0  0  0  0  0999 V2000
  133.7820  123.8500   58.8610 C   0  0  0  0  0  0  0  0  0  0  0  0
  132.8730  124.4770   59.9040 C   0  0  0  0  0  0  0  0  0  0  0  0
  131.9720  125.4800   59.5600 C   0  0  0  0  0  0  0  0  0  0  0  0
  131.1400  126.0530   60.5350 C   0  0  0  0  0  0  0  0  0  0  0  0
  130.1650  127.1560   60.1100 C   0  0  0  0  0  0  0  0  0  0  0  0
  128.8880  126.8420   60.3400 F   0  0  0  0  0  0  0  0  0  0  0  0
  130.4280  128.2760   60.7840 F   0  0  0  0  0  0  0  0  0  0  0  0
  130.2890  127.3890   58.8030 F   0  0  0  0  0  0  0  0  0  0  0  0
  131.2650  125.5620   61.8690 C   0  0  0  0  0  0  0  0  0  0  0  0
  130.6000  125.8980   63.1040 C   0  0  0  0  0  0  0  0  0  0  0  0
  129.6230  126.8580   63.1810 N   0  0  0  0  0  0  0  0  0  0  0  0
  131.0380  125.1550   64.2130 C   0  0  0  0  0  0  0  0  0  0  0  0
  130.6050  125.2570   65.6100 C   0  0  0  0  0  0  0  0  0  0  0  0
  130.6560  124.2790   66.3550 O   0  0  0  0  0  0  0  0  0  0  0  0
  130.1760  126.4840   65.9960 N   0  0  0  0  0  0  0  0  0  0  0  0
  129.6560  126.9020   67.2360 C   0  0  0  0  0  0  0  0  0  0  0  0
  128.2910  127.0650   67.5330 C   0  0  0  0  0  0  0  0  0  0  0  0
  127.9080  127.5020   68.8040 C   0  0  0  0  0  0  0  0  0  0  0  0
  128.9020  127.7710   69.7450 C   0  0  0  0  0  0  0  0  0  0  0  0
  130.2250  127.6290   69.4800 N   0  0  0  0  0  0  0  0  0  0  0  0
  130.5820  127.2030   68.2410 C   0  0  0  0  0  0  0  0  0  0  0  0
  132.2990  124.0120   63.7550 S   0  0  0  0  0  0  0  0  0  0  0  0
  132.2290  124.5300   62.0880 C   0  0  0  0  0  0  0  0  0  0  0  0
  133.0150  123.9890   61.1580 N   0  0  0  0  0  0  0  0  0  0  0  0
  134.5876  123.2943   59.3632 H   0  0  0  0  0  0  0  0  0  0  0  0
  133.1984  123.1615   58.2323 H   0  0  0  0  0  0  0  0  0  0  0  0
  134.2183  124.6401   58.2323 H   0  0  0  0  0  0  0  0  0  0  0  0
  131.9112  125.8261   58.5177 H   0  0  0  0  0  0  0  0  0  0  0  0
  128.6570  126.6240   63.3590 H   0  0  0  0  0  0  0  0  0  0  0  0
  129.8400  127.8380   63.0620 H   0  0  0  0  0  0  0  0  0  0  0  0
  130.2410  127.2160   65.3040 H   0  0  0  0  0  0  0  0  0  0  0  0
  127.5292  126.8498   66.7692 H   0  0  0  0  0  0  0  0  0  0  0  0
  126.8453  127.6311   69.0570 H   0  0  0  0  0  0  0  0  0  0  0  0
  128.5999  128.1133   70.7458 H   0  0  0  0  0  0  0  0  0  0  0  0
  131.6527  127.0888   68.0161 H   0  0  0  0  0  0  0  0  0  0  0  0
  1  2  1  0
  2  3  2  0
  3  4  1  0
  4  5  1  0
  5  6  1  0
  5  7  1  0
  5  8  1  0
  4  9  2  0
  9 10  1  0
 10 11  1  0
 10 12  2  0
 12 13  1  0
 13 14  2  0
 13 15  1  0
 15 16  1  0
 16 17  2  0
 17 18  1  0
 18 19  2  0
 19 20  1  0
 20 21  2  0
 12 22  1  0
 22 23  1  0
 23 24  2  0
 24  2  1  0
 23  9  1  0
 21 16  1  0
  1 25  1  0
  1 26  1  0
  1 27  1  0
  3 28  1  0
 11 29  1  0
 11 30  1  0
 15 31  1  0
 17 32  1  0
 18 33  1  0
 19 34  1  0
 21 35  1  0
M  END
>  <Binding energies>  (1) 
[-5.9]

>  <Ligand effiencies>  (1) 
[-0.21851851851851853]

>  <Interactions>  (1) 
["V-B:GLU:543:CB:9878, V-A:HIS:456:CE1:4068, V-B:GLU:543:CD:9880, V-A:GLU:543:CD:4906, V-B:HIS:456:CE1:9042, V-B:GLU:543:CG:9879, V-A:GLU:543:CG:4905, V-B:GLU:543:C:9874, V-A:ARG:545:CG:4920, H-A:TYR:484:OH:4346, H-B:GLU:543:OE1:9881, V-A:GLU:543:C:4900, V-A:ILE:369:CD1:3237, V-A:ASP:366:CG:3211, V-B:TYR:539:CE2:9848, V-A:ILE:369:CG2:3235, V-A:ASP:366:CA:3208, V-A:ASP:366:CB:3210, V-A:ILE:369:CB:3234, H-A:GLU:543:OE2:4908, H-A:GLU:543:OE1:4907, H-B:GLU:543:OE2:9882"]

$$$$
4bg_Grossjean_2025
     RDKit          3D

 39 41  0  0  0  0  0  0  0  0999 V2000
  134.0360  123.5960   59.1990 C   0  0  0  0  0  0  0  0  0  0  0  0
  133.0680  124.2250   60.1850 C   0  0  0  0  0  0  0  0  0  0  0  0
  131.9250  124.8870   59.7460 C   0  0  0  0  0  0  0  0  0  0  0  0
  131.0410  125.4700   60.6690 C   0  0  0  0  0  0  0  0  0  0  0  0
  129.7970  126.1880   60.1380 C   0  0  0  0  0  0  0  0  0  0  0  0
  128.6580  125.6780   60.6110 F   0  0  0  0  0  0  0  0  0  0  0  0
  129.8350  127.4740   60.4890 F   0  0  0  0  0  0  0  0  0  0  0  0
  129.7540  126.0960   58.8090 F   0  0  0  0  0  0  0  0  0  0  0  0
  131.3690  125.3470   62.0510 C   0  0  0  0  0  0  0  0  0  0  0  0
  130.7250  125.8070   63.2570 C   0  0  0  0  0  0  0  0  0  0  0  0
  129.5610  126.5330   63.2480 N   0  0  0  0  0  0  0  0  0  0  0  0
  131.3910  125.4400   64.4370 C   0  0  0  0  0  0  0  0  0  0  0  0
  131.0400  125.7610   65.8200 C   0  0  0  0  0  0  0  0  0  0  0  0
  130.3630  124.9930   66.5060 O   0  0  0  0  0  0  0  0  0  0  0  0
  131.5330  126.9210   66.3010 N   0  0  0  0  0  0  0  0  0  0  0  0
  131.3000  127.4500   67.6450 C   0  0  0  0  0  0  0  0  0  0  0  0
  129.8380  127.4140   68.0700 C   0  0  0  0  0  0  0  0  0  0  0  0
  128.8270  127.4080   67.1040 C   0  0  0  0  0  0  0  0  0  0  0  0
  127.4930  127.3360   67.4950 C   0  0  0  0  0  0  0  0  0  0  0  0
  127.1730  127.2560   68.8490 C   0  0  0  0  0  0  0  0  0  0  0  0
  128.1760  127.2450   69.8150 C   0  0  0  0  0  0  0  0  0  0  0  0
  129.5110  127.3180   69.4250 C   0  0  0  0  0  0  0  0  0  0  0  0
  132.8650  124.5410   64.0880 S   0  0  0  0  0  0  0  0  0  0  0  0
  132.5680  124.6360   62.3690 C   0  0  0  0  0  0  0  0  0  0  0  0
  133.4040  124.0880   61.4880 N   0  0  0  0  0  0  0  0  0  0  0  0
  134.8346  123.0771   59.7495 H   0  0  0  0  0  0  0  0  0  0  0  0
  133.4980  122.8745   58.5666 H   0  0  0  0  0  0  0  0  0  0  0  0
  134.4768  124.3807   58.5666 H   0  0  0  0  0  0  0  0  0  0  0  0
  131.7125  124.9541   58.6688 H   0  0  0  0  0  0  0  0  0  0  0  0
  129.5420  127.5160   63.4710 H   0  0  0  0  0  0  0  0  0  0  0  0
  128.6750  126.1000   63.0230 H   0  0  0  0  0  0  0  0  0  0  0  0
  132.0110  127.5370   65.6590 H   0  0  0  0  0  0  0  0  0  0  0  0
  131.8847  126.8525   68.3600 H   0  0  0  0  0  0  0  0  0  0  0  0
  131.6063  128.5064   67.6332 H   0  0  0  0  0  0  0  0  0  0  0  0
  129.0856  127.4601   66.0361 H   0  0  0  0  0  0  0  0  0  0  0  0
  126.6946  127.3422   66.7383 H   0  0  0  0  0  0  0  0  0  0  0  0
  126.1186  127.2010   69.1575 H   0  0  0  0  0  0  0  0  0  0  0  0
  127.9150  127.1789   70.8815 H   0  0  0  0  0  0  0  0  0  0  0  0
  130.3076  127.3001   70.1834 H   0  0  0  0  0  0  0  0  0  0  0  0
  1  2  1  0
  2  3  2  0
  3  4  1  0
  4  5  1  0
  5  6  1  0
  5  7  1  0
  5  8  1  0
  4  9  2  0
  9 10  1  0
 10 11  1  0
 10 12  2  0
 12 13  1  0
 13 14  2  0
 13 15  1  0
 15 16  1  0
 16 17  1  0
 17 18  2  0
 18 19  1  0
 19 20  2  0
 20 21  1  0
 21 22  2  0
 12 23  1  0
 23 24  1  0
 24 25  2  0
 25  2  1  0
 24  9  1  0
 22 17  1  0
  1 26  1  0
  1 27  1  0
  1 28  1  0
  3 29  1  0
 11 30  1  0
 11 31  1  0
 15 32  1  0
 16 33  1  0
 16 34  1  0
 18 35  1  0
 19 36  1  0
 20 37  1  0
 21 38  1  0
 22 39  1  0
M  END
>  <Binding energies>  (1) 
[-6.57]

>  <Ligand effiencies>  (1) 
[-0.23464285714285715]

>  <Interactions>  (1) 
["V-A:HIS:456:CE1:4068, V-B:GLU:543:CD:9880, V-A:GLU:543:CD:4906, V-B:HIS:456:CE1:9042, V-B:GLY:544:C:9884, V-B:GLU:543:CG:9879, V-A:GLU:543:CG:4905, V-B:GLU:543:C:9874, V-A:ARG:545:CZ:4924, V-A:ARG:545:CG:4920, H-A:TYR:484:OH:4346, V-A:ARG:545:CD:4921, H-B:GLU:543:OE1:9881, V-A:ILE:369:CD1:3237, V-A:ASP:366:CG:3211, V-A:ILE:369:CG2:3235, V-A:ASP:366:CA:3208, V-A:ILE:369:CB:3234, H-A:GLU:543:OE2:4908, H-A:GLU:543:OE1:4907, H-B:GLU:543:OE2:9882, V-B:ARG:545:CG:9894"]

$$$$
4bh_Grossjean_2025
     RDKit          3D

 51 53  0  0  0  0  0  0  0  0999 V2000
  132.6490  131.1460   61.1720 C   0  0  0  0  0  0  0  0  0  0  0  0
  131.4600  131.7650   60.6940 O   0  0  0  0  0  0  0  0  0  0  0  0
  130.3000  131.0180   60.5890 C   0  0  0  0  0  0  0  0  0  0  0  0
  129.9210  130.0260   61.5060 C   0  0  0  0  0  0  0  0  0  0  0  0
  128.7360  129.3090   61.3360 C   0  0  0  0  0  0  0  0  0  0  0  0
  128.3180  128.2670   62.3670 C   0  0  0  0  0  0  0  0  0  0  0  0
  128.7810  126.9150   62.0520 N   0  0  0  0  0  0  0  0  0  0  0  0
  129.7660  126.6080   61.1830 C   0  0  0  0  0  0  0  0  0  0  0  0
  130.3580  127.4650   60.5230 O   0  0  0  0  0  0  0  0  0  0  0  0
  130.0670  125.1850   61.0290 C   0  0  0  0  0  0  0  0  0  0  0  0
  128.7620  124.0020   61.0360 S   0  0  0  0  0  0  0  0  0  0  0  0
  129.8990  122.6840   60.8660 C   0  0  0  0  0  0  0  0  0  0  0  0
  129.4900  121.4180   60.8010 N   0  0  0  0  0  0  0  0  0  0  0  0
  130.4620  120.4860   60.6680 C   0  0  0  0  0  0  0  0  0  0  0  0
  129.9740  119.0500   60.5980 C   0  0  0  0  0  0  0  0  0  0  0  0
  131.8190  120.7870   60.5960 C   0  0  0  0  0  0  0  0  0  0  0  0
  132.2560  122.1190   60.6660 C   0  0  0  0  0  0  0  0  0  0  0  0
  133.7600  122.4020   60.5800 C   0  0  0  0  0  0  0  0  0  0  0  0
  134.2180  123.1160   61.6110 F   0  0  0  0  0  0  0  0  0  0  0  0
  134.4350  121.2530   60.5600 F   0  0  0  0  0  0  0  0  0  0  0  0
  134.0260  123.0890   59.4690 F   0  0  0  0  0  0  0  0  0  0  0  0
  131.2570  123.1270   60.8100 C   0  0  0  0  0  0  0  0  0  0  0  0
  131.3200  124.5630   60.9190 C   0  0  0  0  0  0  0  0  0  0  0  0
  132.5030  125.2580   60.9080 N   0  0  0  0  0  0  0  0  0  0  0  0
  127.9040  129.6020   60.2540 C   0  0  0  0  0  0  0  0  0  0  0  0
  128.2620  130.5840   59.3160 C   0  0  0  0  0  0  0  0  0  0  0  0
  127.4940  130.9160   58.2150 O   0  0  0  0  0  0  0  0  0  0  0  0
  126.2000  130.3400   58.0670 C   0  0  0  0  0  0  0  0  0  0  0  0
  129.4660  131.2800   59.4920 C   0  0  0  0  0  0  0  0  0  0  0  0
  129.8200  132.2570   58.5910 O   0  0  0  0  0  0  0  0  0  0  0  0
  130.5180  131.7680   57.4550 C   0  0  0  0  0  0  0  0  0  0  0  0
  132.6464  131.1474   62.2720 H   0  0  0  0  0  0  0  0  0  0  0  0
  132.6951  130.1094   60.8067 H   0  0  0  0  0  0  0  0  0  0  0  0
  133.5246  131.7027   60.8067 H   0  0  0  0  0  0  0  0  0  0  0  0
  130.5665  129.8106   62.3703 H   0  0  0  0  0  0  0  0  0  0  0  0
  128.7321  128.5580   63.3436 H   0  0  0  0  0  0  0  0  0  0  0  0
  127.2184  128.2394   62.3713 H   0  0  0  0  0  0  0  0  0  0  0  0
  128.3970  126.1720   62.6190 H   0  0  0  0  0  0  0  0  0  0  0  0
  129.8408  118.6579   61.6171 H   0  0  0  0  0  0  0  0  0  0  0  0
  129.0135  119.0148   60.0631 H   0  0  0  0  0  0  0  0  0  0  0  0
  130.7142  118.4368   60.0631 H   0  0  0  0  0  0  0  0  0  0  0  0
  132.5535  119.9760   60.4835 H   0  0  0  0  0  0  0  0  0  0  0  0
  132.5340  126.2580   60.7650 H   0  0  0  0  0  0  0  0  0  0  0  0
  133.3890  124.7890   61.0340 H   0  0  0  0  0  0  0  0  0  0  0  0
  126.9561  129.0569   60.1346 H   0  0  0  0  0  0  0  0  0  0  0  0
  125.7684  130.1479   59.0604 H   0  0  0  0  0  0  0  0  0  0  0  0
  125.5508  131.0341   57.5132 H   0  0  0  0  0  0  0  0  0  0  0  0
  126.2813  129.3931   57.5132 H   0  0  0  0  0  0  0  0  0  0  0  0
  131.3777  131.1657   57.7841 H   0  0  0  0  0  0  0  0  0  0  0  0
  129.8432  131.1442   56.8505 H   0  0  0  0  0  0  0  0  0  0  0  0
  130.8738  132.6153   56.8505 H   0  0  0  0  0  0  0  0  0  0  0  0
  1  2  1  0
  2  3  1  0
  3  4  2  0
  4  5  1  0
  5  6  1  0
  6  7  1  0
  7  8  1  0
  8  9  2  0
  8 10  1  0
 10 11  1  0
 11 12  1  0
 12 13  2  0
 13 14  1  0
 14 15  1  0
 14 16  2  0
 16 17  1  0
 17 18  1  0
 18 19  1  0
 18 20  1  0
 18 21  1  0
 17 22  2  0
 22 23  1  0
 23 24  1  0
  5 25  2  0
 25 26  1  0
 26 27  1  0
 27 28  1  0
 26 29  2  0
 29 30  1  0
 30 31  1  0
 29  3  1  0
 23 10  2  0
 22 12  1  0
  1 32  1  0
  1 33  1  0
  1 34  1  0
  4 35  1  0
  6 36  1  0
  6 37  1  0
  7 38  1  0
 15 39  1  0
 15 40  1  0
 15 41  1  0
 16 42  1  0
 24 43  1  0
 24 44  1  0
 25 45  1  0
 28 46  1  0
 28 47  1  0
 28 48  1  0
 31 49  1  0
 31 50  1  0
 31 51  1  0
M  END
>  <Binding energies>  (1) 
[-5.38]

>  <Ligand effiencies>  (1) 
[-0.15823529411764706]

>  <Interactions>  (1) 
["V-B:GLU:543:CD:9880, V-A:GLU:543:CD:4906, H-B:GLU:543:OE1:9881, V-A:GLY:453:C:4040, V-A:TRP:381:CZ2:3368, V-A:ILE:369:CD1:3237, V-A:LEU:475:CD2:4257, V-A:TRP:381:CH2:3370, V-A:ASP:366:CG:3211, V-A:GLY:454:CA:4047, V-B:ALA:541:CB:9864, V-B:TYR:539:CD2:9846, V-B:TYR:539:CE2:9848, V-A:ILE:369:CG2:3235, V-A:ILE:369:CG1:3236, V-A:ILE:369:CB:3234, V-A:ASN:362:CB:3174, V-A:PRO:540:CA:4881, V-A:PRO:540:N:4882, H-B:ALA:541:N:9863, V-A:PRO:540:CB:4883, V-A:TYR:539:C:4865, V-A:TYR:539:CE2:4874, H-A:ALA:541:N:4889, H-A:ARG:545:NH2:4926, V-A:TRP:381:CZ3:3369, V-A:TYR:539:CZ:4875, V-A:PRO:482:CG:4325, V-A:PRO:482:CB:4324, H-B:GLU:543:OE2:9882, H-A:ASP:366:OD2:3213, H-A:ASP:366:OD1:3212"]

$$$$
4bi_Grossjean_2025
     RDKit          3D

 32 34  0  0  0  0  0  0  0  0999 V2000
  130.3360  119.4090   60.2630 C   0  0  0  0  0  0  0  0  0  0  0  0
  130.9230  120.7100   60.7800 C   0  0  0  0  0  0  0  0  0  0  0  0
  131.7870  121.4700   59.9950 C   0  0  0  0  0  0  0  0  0  0  0  0
  132.3190  122.6740   60.4850 C   0  0  0  0  0  0  0  0  0  0  0  0
  133.2590  123.4790   59.5820 C   0  0  0  0  0  0  0  0  0  0  0  0
  134.3980  123.8220   60.1870 F   0  0  0  0  0  0  0  0  0  0  0  0
  133.5790  122.7590   58.5070 F   0  0  0  0  0  0  0  0  0  0  0  0
  132.6580  124.6050   59.1950 F   0  0  0  0  0  0  0  0  0  0  0  0
  131.9390  123.0660   61.8030 C   0  0  0  0  0  0  0  0  0  0  0  0
  132.2760  124.2040   62.6230 C   0  0  0  0  0  0  0  0  0  0  0  0
  133.1250  125.1960   62.2030 N   0  0  0  0  0  0  0  0  0  0  0  0
  131.6540  124.2080   63.8830 C   0  0  0  0  0  0  0  0  0  0  0  0
  131.7810  125.1930   64.9610 C   0  0  0  0  0  0  0  0  0  0  0  0
  132.8770  125.6790   65.2440 O   0  0  0  0  0  0  0  0  0  0  0  0
  130.6230  125.5250   65.5850 N   0  0  0  0  0  0  0  0  0  0  0  0
  130.4520  126.4320   66.6230 C   0  0  0  0  0  0  0  0  0  0  0  0
  129.2440  126.5950   67.3000 C   0  0  0  0  0  0  0  0  0  0  0  0
  129.4890  127.5720   68.2380 C   0  0  0  0  0  0  0  0  0  0  0  0
  130.7770  127.9750   68.1320 O   0  0  0  0  0  0  0  0  0  0  0  0
  131.3770  127.2450   67.1040 N   0  0  0  0  0  0  0  0  0  0  0  0
  130.6450  122.7800   64.1000 S   0  0  0  0  0  0  0  0  0  0  0  0
  131.0460  122.1970   62.5020 C   0  0  0  0  0  0  0  0  0  0  0  0
  130.5430  121.0560   62.0310 N   0  0  0  0  0  0  0  0  0  0  0  0
  130.0490  118.7728   61.1132 H   0  0  0  0  0  0  0  0  0  0  0  0
  129.4482  119.6251   59.6506 H   0  0  0  0  0  0  0  0  0  0  0  0
  131.0855  118.8864   59.6506 H   0  0  0  0  0  0  0  0  0  0  0  0
  132.0543  121.1251   58.9852 H   0  0  0  0  0  0  0  0  0  0  0  0
  133.6090  125.7970   62.8550 H   0  0  0  0  0  0  0  0  0  0  0  0
  133.2920  125.3640   61.2200 H   0  0  0  0  0  0  0  0  0  0  0  0
  129.7800  125.0730   65.2610 H   0  0  0  0  0  0  0  0  0  0  0  0
  128.2999  126.0590   67.1229 H   0  0  0  0  0  0  0  0  0  0  0  0
  128.7555  127.9629   68.9586 H   0  0  0  0  0  0  0  0  0  0  0  0
  1  2  1  0
  2  3  2  0
  3  4  1  0
  4  5  1  0
  5  6  1  0
  5  7  1  0
  5  8  1  0
  4  9  2  0
  9 10  1  0
 10 11  1  0
 10 12  2  0
 12 13  1  0
 13 14  2  0
 13 15  1  0
 15 16  1  0
 16 17  1  0
 17 18  2  0
 18 19  1  0
 19 20  1  0
 12 21  1  0
 21 22  1  0
 22 23  2  0
 23  2  1  0
 22  9  1  0
 20 16  2  0
  1 24  1  0
  1 25  1  0
  1 26  1  0
  3 27  1  0
 11 28  1  0
 11 29  1  0
 15 30  1  0
 17 31  1  0
 18 32  1  0
M  END
>  <Binding energies>  (1) 
[-6.18]

>  <Ligand effiencies>  (1) 
[-0.23769230769230767]

>  <Interactions>  (1) 
["V-B:GLU:543:CB:9878, V-A:HIS:456:CE1:4068, V-B:GLU:543:CD:9880, V-A:GLU:543:CD:4906, V-B:GLU:543:CG:9879, V-A:GLU:543:CG:4905, V-A:ARG:545:CZ:4924, H-A:TYR:484:OH:4346, V-A:TYR:484:CZ:4345, H-B:GLU:543:OE1:9881, H-A:ARG:545:NE:4922, V-B:TYR:539:CZ:9849, V-A:TRP:381:CZ2:3368, V-A:ILE:369:CD1:3237, V-A:LEU:475:CD2:4257, V-A:TRP:381:CH2:3370, V-A:ASP:366:CG:3211, V-B:ALA:541:CB:9864, V-B:TYR:539:CD2:9846, V-B:TYR:539:CE2:9848, V-A:ILE:369:CG2:3235, V-A:ASP:366:CB:3210, V-A:ILE:369:CG1:3236, V-A:ILE:369:CB:3234, V-A:TRP:381:CZ3:3369, V-A:PRO:482:CG:4325, V-A:PRO:482:CB:4324, V-A:TYR:484:CE1:4343, H-B:GLU:543:OE2:9882, H-A:ASP:366:OD2:3213, H-A:ASP:366:OD1:3212"]

$$$$
4bj_Grossjean_2025
     RDKit          3D

 32 34  0  0  0  0  0  0  0  0999 V2000
  134.1130  123.6590   58.8790 C   0  0  0  0  0  0  0  0  0  0  0  0
  133.1420  124.2570   59.8810 C   0  0  0  0  0  0  0  0  0  0  0  0
  132.1210  125.1100   59.4680 C   0  0  0  0  0  0  0  0  0  0  0  0
  131.2340  125.6620   60.4060 C   0  0  0  0  0  0  0  0  0  0  0  0
  130.1280  126.5980   59.9050 C   0  0  0  0  0  0  0  0  0  0  0  0
  130.1420  126.7600   58.5810 F   0  0  0  0  0  0  0  0  0  0  0  0
  128.9350  126.1030   60.2340 F   0  0  0  0  0  0  0  0  0  0  0  0
  130.2730  127.8020   60.4570 F   0  0  0  0  0  0  0  0  0  0  0  0
  131.4270  125.3070   61.7740 C   0  0  0  0  0  0  0  0  0  0  0  0
  130.7380  125.6690   62.9890 C   0  0  0  0  0  0  0  0  0  0  0  0
  129.6610  126.5190   63.0050 N   0  0  0  0  0  0  0  0  0  0  0  0
  131.2620  125.0710   64.1460 C   0  0  0  0  0  0  0  0  0  0  0  0
  130.8180  125.2230   65.5340 C   0  0  0  0  0  0  0  0  0  0  0  0
  130.6340  124.2360   66.2490 O   0  0  0  0  0  0  0  0  0  0  0  0
  130.6470  126.5010   65.9540 N   0  0  0  0  0  0  0  0  0  0  0  0
  130.2470  126.9170   67.2160 C   0  0  0  0  0  0  0  0  0  0  0  0
  131.0070  127.2610   68.2330 N   0  0  0  0  0  0  0  0  0  0  0  0
  130.2880  127.6100   69.2810 C   0  0  0  0  0  0  0  0  0  0  0  0
  128.9070  127.5510   69.1260 C   0  0  0  0  0  0  0  0  0  0  0  0
  128.5410  127.0050   67.5160 S   0  0  0  0  0  0  0  0  0  0  0  0
  132.6490  124.0520   63.7660 S   0  0  0  0  0  0  0  0  0  0  0  0
  132.5090  124.4200   62.0630 C   0  0  0  0  0  0  0  0  0  0  0  0
  133.3510  123.9010   61.1690 N   0  0  0  0  0  0  0  0  0  0  0  0
  134.9304  123.1556   59.4161 H   0  0  0  0  0  0  0  0  0  0  0  0
  133.5851  122.9293   58.2474 H   0  0  0  0  0  0  0  0  0  0  0  0
  134.5271  124.4588   58.2474 H   0  0  0  0  0  0  0  0  0  0  0  0
  132.0091  125.3525   58.4009 H   0  0  0  0  0  0  0  0  0  0  0  0
  128.7120  126.1810   62.9360 H   0  0  0  0  0  0  0  0  0  0  0  0
  129.7830  127.5190   63.0810 H   0  0  0  0  0  0  0  0  0  0  0  0
  130.8340  127.2360   65.2890 H   0  0  0  0  0  0  0  0  0  0  0  0
  130.7537  127.9298   70.2248 H   0  0  0  0  0  0  0  0  0  0  0  0
  128.1660  127.8082   69.8972 H   0  0  0  0  0  0  0  0  0  0  0  0
  1  2  1  0
  2  3  2  0
  3  4  1  0
  4  5  1  0
  5  6  1  0
  5  7  1  0
  5  8  1  0
  4  9  2  0
  9 10  1  0
 10 11  1  0
 10 12  2  0
 12 13  1  0
 13 14  2  0
 13 15  1  0
 15 16  1  0
 16 17  2  0
 17 18  1  0
 18 19  2  0
 19 20  1  0
 12 21  1  0
 21 22  1  0
 22 23  2  0
 23  2  1  0
 22  9  1  0
 20 16  1  0
  1 24  1  0
  1 25  1  0
  1 26  1  0
  3 27  1  0
 11 28  1  0
 11 29  1  0
 15 30  1  0
 18 31  1  0
 19 32  1  0
M  END
>  <Binding energies>  (1) 
[-5.84]

>  <Ligand effiencies>  (1) 
[-0.2246153846153846]

>  <Interactions>  (1) 
["V-B:GLU:543:CB:9878, V-A:HIS:456:CE1:4068, V-B:GLU:543:CD:9880, V-A:GLU:543:CD:4906, V-B:HIS:456:CE1:9042, V-A:GLY:544:C:4910, V-B:GLU:543:CG:9879, V-A:GLU:543:CG:4905, V-B:GLU:543:C:9874, H-A:TYR:484:OH:4346, H-B:GLU:543:OE1:9881, V-A:GLU:543:C:4900, V-A:ILE:369:CD1:3237, V-A:ASP:366:CG:3211, V-A:GLY:454:CA:4047, V-B:TYR:539:CE2:9848, V-A:ILE:369:CG2:3235, V-A:ASP:366:CA:3208, V-A:ASP:366:CB:3210, V-A:ILE:369:CB:3234, H-A:GLU:543:OE2:4908, H-A:GLU:543:OE1:4907, H-B:GLU:543:OE2:9882, H-A:HIS:456:ND1:4065"]

$$$$
4bk_Grossjean_2025
     RDKit          3D

 50 51  0  0  0  0  0  0  0  0999 V2000
  131.8770  126.0630   73.5090 C   0  0  0  0  0  0  0  0  0  0  0  0
  130.4930  125.7530   73.4570 O   0  0  0  0  0  0  0  0  0  0  0  0
  129.9640  125.7440   72.1380 C   0  0  0  0  0  0  0  0  0  0  0  0
  130.2310  127.0990   71.4690 C   0  0  0  0  0  0  0  0  0  0  0  0
  129.0210  127.8400   71.4060 O   0  0  0  0  0  0  0  0  0  0  0  0
  128.2770  127.6260   70.2140 C   0  0  0  0  0  0  0  0  0  0  0  0
  129.2320  127.2220   69.0830 C   0  0  0  0  0  0  0  0  0  0  0  0
  128.9300  127.9810   67.9200 O   0  0  0  0  0  0  0  0  0  0  0  0
  129.1350  127.2740   66.7030 C   0  0  0  0  0  0  0  0  0  0  0  0
  130.4250  126.4420   66.8070 C   0  0  0  0  0  0  0  0  0  0  0  0
  130.5900  125.4750   65.7210 N   0  0  0  0  0  0  0  0  0  0  0  0
  131.6900  125.3480   64.9510 C   0  0  0  0  0  0  0  0  0  0  0  0
  132.6930  126.0450   65.1120 O   0  0  0  0  0  0  0  0  0  0  0  0
  131.6320  124.3220   63.9090 C   0  0  0  0  0  0  0  0  0  0  0  0
  130.6350  122.8870   64.1360 S   0  0  0  0  0  0  0  0  0  0  0  0
  131.0810  122.2740   62.5610 C   0  0  0  0  0  0  0  0  0  0  0  0
  130.6090  121.1140   62.1080 N   0  0  0  0  0  0  0  0  0  0  0  0
  131.0240  120.7450   60.8740 C   0  0  0  0  0  0  0  0  0  0  0  0
  130.4730  119.4200   60.3760 C   0  0  0  0  0  0  0  0  0  0  0  0
  131.8910  121.5020   60.0900 C   0  0  0  0  0  0  0  0  0  0  0  0
  132.3930  122.7250   60.5620 C   0  0  0  0  0  0  0  0  0  0  0  0
  133.3470  123.5200   59.6660 C   0  0  0  0  0  0  0  0  0  0  0  0
  132.8320  124.6820   59.2560 F   0  0  0  0  0  0  0  0  0  0  0  0
  134.4690  123.7930   60.3310 F   0  0  0  0  0  0  0  0  0  0  0  0
  133.6420  122.8100   58.5780 F   0  0  0  0  0  0  0  0  0  0  0  0
  131.9740  123.1440   61.8610 C   0  0  0  0  0  0  0  0  0  0  0  0
  132.2660  124.3090   62.6570 C   0  0  0  0  0  0  0  0  0  0  0  0
  133.0950  125.3130   62.2270 N   0  0  0  0  0  0  0  0  0  0  0  0
  132.1975  126.1348   74.5588 H   0  0  0  0  0  0  0  0  0  0  0  0
  132.4494  125.2708   73.0042 H   0  0  0  0  0  0  0  0  0  0  0  0
  132.0568  127.0237   73.0042 H   0  0  0  0  0  0  0  0  0  0  0  0
  130.4470  124.9460   71.5550 H   0  0  0  0  0  0  0  0  0  0  0  0
  128.8797  125.5637   72.1797 H   0  0  0  0  0  0  0  0  0  0  0  0
  130.9739  127.6584   72.0565 H   0  0  0  0  0  0  0  0  0  0  0  0
  130.6164  126.9371   70.4515 H   0  0  0  0  0  0  0  0  0  0  0  0
  127.5428  126.8236   70.3787 H   0  0  0  0  0  0  0  0  0  0  0  0
  127.7511  128.5518   69.9378 H   0  0  0  0  0  0  0  0  0  0  0  0
  130.2697  127.4181   69.3906 H   0  0  0  0  0  0  0  0  0  0  0  0
  129.1128  126.1504   68.8651 H   0  0  0  0  0  0  0  0  0  0  0  0
  128.2810  126.6057   66.5184 H   0  0  0  0  0  0  0  0  0  0  0  0
  129.2252  127.9898   65.8727 H   0  0  0  0  0  0  0  0  0  0  0  0
  131.2837  127.1294   66.7935 H   0  0  0  0  0  0  0  0  0  0  0  0
  130.3625  125.8672   67.7428 H   0  0  0  0  0  0  0  0  0  0  0  0
  129.8010  124.8730   65.5380 H   0  0  0  0  0  0  0  0  0  0  0  0
  130.2094  118.7862   61.2356 H   0  0  0  0  0  0  0  0  0  0  0  0
  129.5760  119.6020   59.7659 H   0  0  0  0  0  0  0  0  0  0  0  0
  131.2346  118.9123   59.7659 H   0  0  0  0  0  0  0  0  0  0  0  0
  132.1845  121.1391   59.0939 H   0  0  0  0  0  0  0  0  0  0  0  0
  133.3980  125.3820   61.2650 H   0  0  0  0  0  0  0  0  0  0  0  0
  133.4290  126.0270   62.8600 H   0  0  0  0  0  0  0  0  0  0  0  0
  1  2  1  0
  2  3  1  0
  3  4  1  0
  4  5  1  0
  5  6  1  0
  6  7  1  0
  7  8  1  0
  8  9  1  0
  9 10  1  0
 10 11  1  0
 11 12  1  0
 12 13  2  0
 12 14  1  0
 14 15  1  0
 15 16  1  0
 16 17  2  0
 17 18  1  0
 18 19  1  0
 18 20  2  0
 20 21  1  0
 21 22  1  0
 22 23  1  0
 22 24  1  0
 22 25  1  0
 21 26  2  0
 26 27  1  0
 27 28  1  0
 27 14  2  0
 26 16  1  0
  1 29  1  0
  1 30  1  0
  1 31  1  0
  3 32  1  0
  3 33  1  0
  4 34  1  0
  4 35  1  0
  6 36  1  0
  6 37  1  0
  7 38  1  0
  7 39  1  0
  9 40  1  0
  9 41  1  0
 10 42  1  0
 10 43  1  0
 11 44  1  0
 19 45  1  0
 19 46  1  0
 19 47  1  0
 20 48  1  0
 28 49  1  0
 28 50  1  0
M  END
>  <Binding energies>  (1) 
[-5.98]

>  <Ligand effiencies>  (1) 
[-0.19290322580645164]

>  <Interactions>  (1) 
["V-B:GLU:543:CB:9878, V-A:HIS:456:CE1:4068, V-A:HIS:456:CD2:4066, V-B:GLU:543:CD:9880, V-A:GLU:543:CD:4906, V-B:HIS:456:CE1:9042, V-B:GLY:544:C:9884, V-A:GLY:544:C:4910, V-B:HIS:456:CD2:9040, V-B:GLU:543:CG:9879, V-A:GLU:543:CG:4905, H-B:LYS:547:NZ:9923, V-A:ARG:545:CZ:4924, H-A:TYR:484:OH:4346, V-A:HIS:456:CG:4064, V-A:HIS:456:CB:4063, V-A:TYR:484:CZ:4345, V-B:LYS:547:CE:9922, H-B:GLU:543:OE1:9881, H-A:ARG:545:NE:4922, V-B:TYR:539:CZ:9849, V-A:TRP:381:CZ2:3368, V-A:ILE:369:CD1:3237, V-A:LEU:475:CD2:4257, V-A:TRP:381:CH2:3370, V-A:ASP:366:CG:3211, V-B:ALA:541:CB:9864, V-B:TYR:539:CD2:9846, V-B:TYR:539:CE2:9848, V-A:ILE:369:CG2:3235, V-A:ASP:366:CB:3210, V-A:ILE:369:CG1:3236, V-A:ILE:369:CB:3234, H-A:ARG:545:NH2:4926, V-A:TRP:381:CZ3:3369, V-A:PRO:482:CG:4325, V-A:PRO:482:CB:4324, V-A:TYR:484:CE1:4343, H-B:GLU:543:OE2:9882, H-A:ASP:366:OD2:3213, H-A:ASP:366:OD1:3212"]

$$$$
4ca_Grossjean_2025
     RDKit          3D

 52 55  0  0  0  0  0  0  0  0999 V2000
  125.6090  128.6100   73.9500 C   0  0  0  0  0  0  0  0  0  0  0  0
  126.8510  127.9470   74.5530 C   0  0  0  0  0  0  0  0  0  0  0  0
  127.7490  127.5890   73.5100 O   0  0  0  0  0  0  0  0  0  0  0  0
  128.3430  128.5380   72.7400 C   0  0  0  0  0  0  0  0  0  0  0  0
  128.4960  129.7090   73.1010 O   0  0  0  0  0  0  0  0  0  0  0  0
  128.7980  128.0190   71.4070 C   0  0  0  0  0  0  0  0  0  0  0  0
  127.8530  127.8180   70.3920 C   0  0  0  0  0  0  0  0  0  0  0  0
  128.2450  127.3420   69.1440 C   0  0  0  0  0  0  0  0  0  0  0  0
  129.5850  127.0500   68.8870 C   0  0  0  0  0  0  0  0  0  0  0  0
  129.8710  126.5830   67.5890 N   0  0  0  0  0  0  0  0  0  0  0  0
  129.4200  127.0170   66.3860 C   0  0  0  0  0  0  0  0  0  0  0  0
  128.6740  127.9840   66.2360 O   0  0  0  0  0  0  0  0  0  0  0  0
  129.8980  126.2580   65.2280 C   0  0  0  0  0  0  0  0  0  0  0  0
  130.8620  124.8010   65.4610 S   0  0  0  0  0  0  0  0  0  0  0  0
  130.9530  124.5320   63.7360 C   0  0  0  0  0  0  0  0  0  0  0  0
  131.6050  123.4880   63.2300 N   0  0  0  0  0  0  0  0  0  0  0  0
  131.6090  123.3530   61.8790 C   0  0  0  0  0  0  0  0  0  0  0  0
  132.3440  122.1610   61.3400 C   0  0  0  0  0  0  0  0  0  0  0  0
  133.6950  121.9440   61.6580 C   0  0  0  0  0  0  0  0  0  0  0  0
  134.3840  120.8430   61.1570 C   0  0  0  0  0  0  0  0  0  0  0  0
  133.7300  119.9400   60.3250 C   0  0  0  0  0  0  0  0  0  0  0  0
  132.3940  120.1310   59.9920 C   0  0  0  0  0  0  0  0  0  0  0  0
  131.7080  121.2340   60.4950 C   0  0  0  0  0  0  0  0  0  0  0  0
  130.9770  124.2800   61.0420 C   0  0  0  0  0  0  0  0  0  0  0  0
  130.2910  125.3860   61.5650 C   0  0  0  0  0  0  0  0  0  0  0  0
  129.6180  126.3600   60.5910 C   0  0  0  0  0  0  0  0  0  0  0  0
  128.3050  126.4790   60.7930 F   0  0  0  0  0  0  0  0  0  0  0  0
  130.1540  127.5730   60.7230 F   0  0  0  0  0  0  0  0  0  0  0  0
  129.7910  125.9360   59.3390 F   0  0  0  0  0  0  0  0  0  0  0  0
  130.2650  125.5280   62.9820 C   0  0  0  0  0  0  0  0  0  0  0  0
  129.6690  126.5020   63.8640 C   0  0  0  0  0  0  0  0  0  0  0  0
  128.9460  127.5720   63.4030 N   0  0  0  0  0  0  0  0  0  0  0  0
  130.5390  127.2530   69.8940 C   0  0  0  0  0  0  0  0  0  0  0  0
  130.1460  127.7310   71.1420 C   0  0  0  0  0  0  0  0  0  0  0  0
  124.9515  128.9610   74.7590 H   0  0  0  0  0  0  0  0  0  0  0  0
  125.9147  129.4649   73.3290 H   0  0  0  0  0  0  0  0  0  0  0  0
  125.0688  127.8803   73.3290 H   0  0  0  0  0  0  0  0  0  0  0  0
  127.3463  128.6505   75.2383 H   0  0  0  0  0  0  0  0  0  0  0  0
  126.5532  127.0447   75.1072 H   0  0  0  0  0  0  0  0  0  0  0  0
  126.7923  128.0382   70.5831 H   0  0  0  0  0  0  0  0  0  0  0  0
  127.4930  127.1950   68.3548 H   0  0  0  0  0  0  0  0  0  0  0  0
  130.5230  125.8130   67.5620 H   0  0  0  0  0  0  0  0  0  0  0  0
  134.2172  122.6561   62.3139 H   0  0  0  0  0  0  0  0  0  0  0  0
  135.4413  120.6877   61.4179 H   0  0  0  0  0  0  0  0  0  0  0  0
  134.2733  119.0697   59.9283 H   0  0  0  0  0  0  0  0  0  0  0  0
  131.8808  119.4142   59.3341 H   0  0  0  0  0  0  0  0  0  0  0  0
  130.6515  121.3824   60.2269 H   0  0  0  0  0  0  0  0  0  0  0  0
  131.0192  124.1382   59.9520 H   0  0  0  0  0  0  0  0  0  0  0  0
  129.3920  128.3990   63.0320 H   0  0  0  0  0  0  0  0  0  0  0  0
  127.9350  127.5700   63.4180 H   0  0  0  0  0  0  0  0  0  0  0  0
  131.5992  127.0346   69.6984 H   0  0  0  0  0  0  0  0  0  0  0  0
  130.9000  127.8844   71.9281 H   0  0  0  0  0  0  0  0  0  0  0  0
  1  2  1  0
  2  3  1  0
  3  4  1  0
  4  5  2  0
  4  6  1  0
  6  7  2  0
  7  8  1  0
  8  9  2  0
  9 10  1  0
 10 11  1  0
 11 12  2  0
 11 13  1  0
 13 14  1  0
 14 15  1  0
 15 16  2  0
 16 17  1  0
 17 18  1  0
 18 19  2  0
 19 20  1  0
 20 21  2  0
 21 22  1  0
 22 23  2  0
 17 24  2  0
 24 25  1  0
 25 26  1  0
 26 27  1  0
 26 28  1  0
 26 29  1  0
 25 30  2  0
 30 31  1  0
 31 32  1  0
  9 33  1  0
 33 34  2  0
 34  6  1  0
 31 13  2  0
 30 15  1  0
 23 18  1  0
  1 35  1  0
  1 36  1  0
  1 37  1  0
  2 38  1  0
  2 39  1  0
  7 40  1  0
  8 41  1  0
 10 42  1  0
 19 43  1  0
 20 44  1  0
 21 45  1  0
 22 46  1  0
 23 47  1  0
 24 48  1  0
 32 49  1  0
 32 50  1  0
 33 51  1  0
 34 52  1  0
M  END
>  <Binding energies>  (1) 
[-4.95]

>  <Ligand effiencies>  (1) 
[-0.13378378378378378]

>  <Interactions>  (1) 
["V-B:GLU:543:CB:9878, V-A:HIS:456:CE1:4068, V-A:HIS:456:CD2:4066, V-B:GLU:543:CD:9880, H-A:HIS:456:NE2:4069, V-A:GLU:543:CD:4906, V-B:HIS:456:CE1:9042, V-A:GLY:544:CA:4912, H-A:LYS:547:NZ:4949, V-B:GLY:544:C:9884, V-A:GLY:544:C:4910, H-B:GLU:543:O:9875, V-B:HIS:456:CD2:9040, V-B:GLU:543:CG:9879, V-A:GLU:543:CG:4905, H-B:LYS:547:NZ:9923, V-B:GLU:543:C:9874, V-A:LYS:547:CE:4948, H-A:TYR:484:OH:4346, V-A:TYR:484:CZ:4345, V-B:LYS:547:CE:9922, H-B:GLU:543:OE1:9881, V-A:GLU:543:C:4900, V-A:TRP:381:CZ2:3368, V-A:ILE:369:CD1:3237, V-A:LEU:475:CD2:4257, V-A:TRP:381:CH2:3370, V-A:GLY:454:CA:4047, V-B:TYR:539:CD2:9846, V-B:TYR:539:CE2:9848, V-A:ILE:369:CG2:3235, V-A:ILE:369:CG1:3236, V-A:TRP:381:CZ3:3369, H-A:GLU:543:OE2:4908, H-A:GLU:543:OE1:4907, V-B:HIS:456:CG:9038, V-B:LYS:547:CD:9921, V-A:TYR:484:CE1:4343, H-B:GLU:543:OE2:9882, V-A:SER:385:CA:3405, V-B:HIS:456:CB:9037, V-A:SER:385:C:3403"]

$$$$
4cb_Grossjean_2025
     RDKit          3D

 49 52  0  0  0  0  0  0  0  0999 V2000
  129.1390  130.3770   72.0270 C   0  0  0  0  0  0  0  0  0  0  0  0
  129.2520  129.0780   72.5900 O   0  0  0  0  0  0  0  0  0  0  0  0
  128.4470  128.0650   72.1770 C   0  0  0  0  0  0  0  0  0  0  0  0
  127.5970  127.5340   72.8980 O   0  0  0  0  0  0  0  0  0  0  0  0
  128.6940  127.6540   70.7530 C   0  0  0  0  0  0  0  0  0  0  0  0
  129.9840  127.2660   70.3670 C   0  0  0  0  0  0  0  0  0  0  0  0
  130.2420  126.8720   69.0570 C   0  0  0  0  0  0  0  0  0  0  0  0
  129.2210  126.8640   68.1060 C   0  0  0  0  0  0  0  0  0  0  0  0
  129.5900  126.4340   66.8170 N   0  0  0  0  0  0  0  0  0  0  0  0
  130.7570  126.5910   66.1460 C   0  0  0  0  0  0  0  0  0  0  0  0
  131.7580  127.1340   66.6160 O   0  0  0  0  0  0  0  0  0  0  0  0
  130.7750  126.0450   64.7860 C   0  0  0  0  0  0  0  0  0  0  0  0
  129.5350  126.5150   63.6250 S   0  0  0  0  0  0  0  0  0  0  0  0
  130.2690  125.5370   62.3760 C   0  0  0  0  0  0  0  0  0  0  0  0
  129.7520  125.4700   61.1520 N   0  0  0  0  0  0  0  0  0  0  0  0
  130.3990  124.6920   60.2450 C   0  0  0  0  0  0  0  0  0  0  0  0
  129.7940  124.6410   58.8720 C   0  0  0  0  0  0  0  0  0  0  0  0
  129.8680  125.7490   58.0130 C   0  0  0  0  0  0  0  0  0  0  0  0
  129.3060  125.7100   56.7400 C   0  0  0  0  0  0  0  0  0  0  0  0
  128.6600  124.5570   56.3050 C   0  0  0  0  0  0  0  0  0  0  0  0
  128.5700  123.4450   57.1370 C   0  0  0  0  0  0  0  0  0  0  0  0
  129.1320  123.4900   58.4100 C   0  0  0  0  0  0  0  0  0  0  0  0
  131.5490  123.9690   60.5790 C   0  0  0  0  0  0  0  0  0  0  0  0
  132.1010  124.0310   61.8680 C   0  0  0  0  0  0  0  0  0  0  0  0
  133.3650  123.2140   62.1660 C   0  0  0  0  0  0  0  0  0  0  0  0
  133.2020  122.3450   63.1660 F   0  0  0  0  0  0  0  0  0  0  0  0
  133.7150  122.5170   61.0850 F   0  0  0  0  0  0  0  0  0  0  0  0
  134.3610  124.0320   62.5050 F   0  0  0  0  0  0  0  0  0  0  0  0
  131.4390  124.8570   62.8220 C   0  0  0  0  0  0  0  0  0  0  0  0
  131.7080  125.1700   64.2050 C   0  0  0  0  0  0  0  0  0  0  0  0
  132.7810  124.6550   64.8860 N   0  0  0  0  0  0  0  0  0  0  0  0
  127.9260  127.2480   68.4850 C   0  0  0  0  0  0  0  0  0  0  0  0
  127.6690  127.6400   69.7960 C   0  0  0  0  0  0  0  0  0  0  0  0
  129.0742  131.1219   72.8338 H   0  0  0  0  0  0  0  0  0  0  0  0
  130.0224  130.5854   71.4056 H   0  0  0  0  0  0  0  0  0  0  0  0
  128.2329  130.4297   71.4056 H   0  0  0  0  0  0  0  0  0  0  0  0
  130.7995  127.2728   71.1052 H   0  0  0  0  0  0  0  0  0  0  0  0
  131.2583  126.5647   68.7695 H   0  0  0  0  0  0  0  0  0  0  0  0
  128.8680  125.9230   66.3310 H   0  0  0  0  0  0  0  0  0  0  0  0
  130.3784  126.6628   58.3514 H   0  0  0  0  0  0  0  0  0  0  0  0
  129.3724  126.5877   56.0803 H   0  0  0  0  0  0  0  0  0  0  0  0
  128.2181  124.5242   55.2982 H   0  0  0  0  0  0  0  0  0  0  0  0
  128.0576  122.5354   56.7907 H   0  0  0  0  0  0  0  0  0  0  0  0
  129.0568  122.6099   59.0655 H   0  0  0  0  0  0  0  0  0  0  0  0
  132.0303  123.3393   59.8162 H   0  0  0  0  0  0  0  0  0  0  0  0
  133.6000  124.3070   64.4090 H   0  0  0  0  0  0  0  0  0  0  0  0
  132.7900  124.6090   65.8960 H   0  0  0  0  0  0  0  0  0  0  0  0
  127.1121  127.2394   67.7450 H   0  0  0  0  0  0  0  0  0  0  0  0
  126.6513  127.9419   70.0842 H   0  0  0  0  0  0  0  0  0  0  0  0
  1  2  1  0
  2  3  1  0
  3  4  2  0
  3  5  1  0
  5  6  2  0
  6  7  1  0
  7  8  2  0
  8  9  1  0
  9 10  1  0
 10 11  2  0
 10 12  1  0
 12 13  1  0
 13 14  1  0
 14 15  2  0
 15 16  1  0
 16 17  1  0
 17 18  2  0
 18 19  1  0
 19 20  2  0
 20 21  1  0
 21 22  2  0
 16 23  2  0
 23 24  1  0
 24 25  1  0
 25 26  1  0
 25 27  1  0
 25 28  1  0
 24 29  2  0
 29 30  1  0
 30 31  1  0
  8 32  1  0
 32 33  2  0
 33  5  1  0
 30 12  2  0
 29 14  1  0
 22 17  1  0
  1 34  1  0
  1 35  1  0
  1 36  1  0
  6 37  1  0
  7 38  1  0
  9 39  1  0
 18 40  1  0
 19 41  1  0
 20 42  1  0
 21 43  1  0
 22 44  1  0
 23 45  1  0
 31 46  1  0
 31 47  1  0
 32 48  1  0
 33 49  1  0
M  END
>  <Binding energies>  (1) 
[-4.61]

>  <Ligand effiencies>  (1) 
[-0.12805555555555556]

>  <Interactions>  (1) 
["V-B:GLU:543:CB:9878, V-A:HIS:456:CE1:4068, V-A:HIS:456:CD2:4066, V-B:GLU:543:CD:9880, V-A:GLU:543:CD:4906, V-B:HIS:456:CE1:9042, V-A:GLY:544:CA:4912, H-A:LYS:547:NZ:4949, V-B:GLY:544:C:9884, V-A:GLY:544:C:4910, H-B:GLU:543:O:9875, V-B:HIS:456:CD2:9040, V-B:GLU:543:CG:9879, V-A:GLU:543:CG:4905, H-B:LYS:547:NZ:9923, V-B:GLU:543:C:9874, V-A:ARG:545:CZ:4924, V-A:ARG:545:CG:4920, V-A:LYS:547:CE:4948, H-A:TYR:484:OH:4346, V-A:TYR:484:CZ:4345, H-B:GLU:543:OE1:9881, H-A:ARG:545:NE:4922, V-A:GLU:543:C:4900, V-B:TYR:539:CZ:9849, V-A:GLY:453:C:4040, V-B:TYR:539:CG:9844, V-A:ILE:369:CD1:3237, V-A:LEU:475:CD2:4257, V-A:GLY:453:CA:4042, V-A:GLY:454:CA:4047, V-B:TYR:539:CD2:9846, V-B:TYR:539:CE2:9848, H-B:GLU:543:OE2:9882"]

$$$$
4cc_Grossjean_2025
     RDKit          3D

 47 50  0  0  0  0  0  0  0  0999 V2000
  133.9100  119.9330   60.3770 C   0  0  0  0  0  0  0  0  0  0  0  0
  134.3380  121.0240   61.1850 O   0  0  0  0  0  0  0  0  0  0  0  0
  133.6920  122.2400   61.0730 C   0  0  0  0  0  0  0  0  0  0  0  0
  132.7050  122.3320   60.0920 C   0  0  0  0  0  0  0  0  0  0  0  0
  131.9990  123.5180   59.9050 C   0  0  0  0  0  0  0  0  0  0  0  0
  132.2790  124.6340   60.6950 C   0  0  0  0  0  0  0  0  0  0  0  0
  131.5040  125.7820   60.4450 N   0  0  0  0  0  0  0  0  0  0  0  0
  131.3380  126.4690   59.2890 C   0  0  0  0  0  0  0  0  0  0  0  0
  131.8460  126.1420   58.2150 O   0  0  0  0  0  0  0  0  0  0  0  0
  130.4920  127.6630   59.3820 C   0  0  0  0  0  0  0  0  0  0  0  0
  129.1770  127.7300   60.5530 S   0  0  0  0  0  0  0  0  0  0  0  0
  128.7420  129.3430   60.0400 C   0  0  0  0  0  0  0  0  0  0  0  0
  127.7300  130.0010   60.6000 N   0  0  0  0  0  0  0  0  0  0  0  0
  127.4740  131.2540   60.1410 C   0  0  0  0  0  0  0  0  0  0  0  0
  126.3250  131.9710   60.7900 C   0  0  0  0  0  0  0  0  0  0  0  0
  125.2560  132.4580   60.0200 C   0  0  0  0  0  0  0  0  0  0  0  0
  124.1880  133.1260   60.6150 C   0  0  0  0  0  0  0  0  0  0  0  0
  124.1750  133.3170   61.9920 C   0  0  0  0  0  0  0  0  0  0  0  0
  125.2220  132.8470   62.7770 C   0  0  0  0  0  0  0  0  0  0  0  0
  126.2890  132.1810   62.1790 C   0  0  0  0  0  0  0  0  0  0  0  0
  128.2240  131.8320   59.1120 C   0  0  0  0  0  0  0  0  0  0  0  0
  129.2920  131.1460   58.5130 C   0  0  0  0  0  0  0  0  0  0  0  0
  130.0750  131.8420   57.3940 C   0  0  0  0  0  0  0  0  0  0  0  0
  130.2160  131.0850   56.3030 F   0  0  0  0  0  0  0  0  0  0  0  0
  129.4430  132.9560   57.0270 F   0  0  0  0  0  0  0  0  0  0  0  0
  131.2970  132.1520   57.8250 F   0  0  0  0  0  0  0  0  0  0  0  0
  129.5760  129.8350   58.9920 C   0  0  0  0  0  0  0  0  0  0  0  0
  130.5660  128.8490   58.6340 C   0  0  0  0  0  0  0  0  0  0  0  0
  131.4970  129.0590   57.6490 N   0  0  0  0  0  0  0  0  0  0  0  0
  133.2620  124.5460   61.6920 C   0  0  0  0  0  0  0  0  0  0  0  0
  133.9650  123.3580   61.8750 C   0  0  0  0  0  0  0  0  0  0  0  0
  133.5848  119.1040   61.0227 H   0  0  0  0  0  0  0  0  0  0  0  0
  133.0711  120.2540   59.7420 H   0  0  0  0  0  0  0  0  0  0  0  0
  134.7434  119.5980   59.7420 H   0  0  0  0  0  0  0  0  0  0  0  0
  132.4820  121.4597   59.4600 H   0  0  0  0  0  0  0  0  0  0  0  0
  131.2183  123.5753   59.1322 H   0  0  0  0  0  0  0  0  0  0  0  0
  130.9800  126.1150   61.2410 H   0  0  0  0  0  0  0  0  0  0  0  0
  125.2622  132.3096   58.9301 H   0  0  0  0  0  0  0  0  0  0  0  0
  123.3583  133.5008   59.9977 H   0  0  0  0  0  0  0  0  0  0  0  0
  123.3316  133.8430   62.4632 H   0  0  0  0  0  0  0  0  0  0  0  0
  125.2076  133.0006   63.8661 H   0  0  0  0  0  0  0  0  0  0  0  0
  127.1165  131.8136   62.8037 H   0  0  0  0  0  0  0  0  0  0  0  0
  127.9718  132.8449   58.7649 H   0  0  0  0  0  0  0  0  0  0  0  0
  132.4880  129.0740   57.8450 H   0  0  0  0  0  0  0  0  0  0  0  0
  131.2210  129.2080   56.6880 H   0  0  0  0  0  0  0  0  0  0  0  0
  133.4776  125.4160   62.3296 H   0  0  0  0  0  0  0  0  0  0  0  0
  134.7395  123.2958   62.6536 H   0  0  0  0  0  0  0  0  0  0  0  0
  1  2  1  0
  2  3  1  0
  3  4  2  0
  4  5  1  0
  5  6  2  0
  6  7  1  0
  7  8  1  0
  8  9  2  0
  8 10  1  0
 10 11  1  0
 11 12  1  0
 12 13  2  0
 13 14  1  0
 14 15  1  0
 15 16  2  0
 16 17  1  0
 17 18  2  0
 18 19  1  0
 19 20  2  0
 14 21  2  0
 21 22  1  0
 22 23  1  0
 23 24  1  0
 23 25  1  0
 23 26  1  0
 22 27  2  0
 27 28  1  0
 28 29  1  0
  6 30  1  0
 30 31  2  0
 31  3  1  0
 28 10  2  0
 27 12  1  0
 20 15  1  0
  1 32  1  0
  1 33  1  0
  1 34  1  0
  4 35  1  0
  5 36  1  0
  7 37  1  0
 16 38  1  0
 17 39  1  0
 18 40  1  0
 19 41  1  0
 20 42  1  0
 21 43  1  0
 29 44  1  0
 29 45  1  0
 30 46  1  0
 31 47  1  0
M  END
>  <Binding energies>  (1) 
[-5.27]

>  <Ligand effiencies>  (1) 
[-0.155]

>  <Interactions>  (1) 
["V-A:GLY:453:C:4040, V-A:TRP:381:CZ2:3368, V-A:ILE:369:CD1:3237, V-A:LEU:475:CD2:4257, V-A:TRP:381:CH2:3370, V-A:ASP:366:CG:3211, V-A:GLY:454:CA:4047, V-B:TYR:539:CE2:9848, V-A:ILE:369:CG2:3235, H-A:TYR:531:OH:4793, V-B:LEU:475:CD2:9231, V-A:PRO:540:CA:4881, V-A:PRO:540:N:4882, V-B:ILE:369:CD1:8211, V-A:PRO:540:CB:4883, V-A:PRO:540:CD:4885, V-A:TYR:539:C:4865, V-A:TYR:539:CE2:4874, V-B:ILE:369:CG2:8209, V-B:GLY:454:CA:9021, V-A:TYR:539:CD2:4872, V-A:TYR:539:CD1:4871, V-A:TYR:539:CG:4870, V-A:TYR:539:CA:4867, V-A:SER:385:CA:3405, H-A:ASP:366:OD2:3213, V-A:SER:385:C:3403, V-A:TYR:539:CB:4869"]

$$$$
4cd_Grossjean_2025
     RDKit          3D

 43 46  0  0  0  0  0  0  0  0999 V2000
  126.1250  126.4780   60.3820 N   0  0  0  0  0  0  0  0  0  0  0  0
  127.3460  126.3860   61.0000 C   0  0  0  0  0  0  0  0  0  0  0  0
  127.8150  127.3360   61.9220 C   0  0  0  0  0  0  0  0  0  0  0  0
  127.1590  128.5630   62.3840 C   0  0  0  0  0  0  0  0  0  0  0  0
  127.3820  129.0090   63.5090 O   0  0  0  0  0  0  0  0  0  0  0  0
  126.3220  129.1450   61.4900 N   0  0  0  0  0  0  0  0  0  0  0  0
  125.5110  130.2860   61.6330 C   0  0  0  0  0  0  0  0  0  0  0  0
  125.0950  130.8940   60.4460 C   0  0  0  0  0  0  0  0  0  0  0  0
  124.2780  132.0210   60.4830 C   0  0  0  0  0  0  0  0  0  0  0  0
  123.8690  132.5360   61.7100 C   0  0  0  0  0  0  0  0  0  0  0  0
  124.2650  131.9330   62.9000 C   0  0  0  0  0  0  0  0  0  0  0  0
  125.0830  130.8050   62.8670 C   0  0  0  0  0  0  0  0  0  0  0  0
  129.4120  126.9000   62.5270 S   0  0  0  0  0  0  0  0  0  0  0  0
  129.4440  125.4600   61.5370 C   0  0  0  0  0  0  0  0  0  0  0  0
  130.4870  124.6330   61.5470 N   0  0  0  0  0  0  0  0  0  0  0  0
  130.4250  123.5460   60.7330 C   0  0  0  0  0  0  0  0  0  0  0  0
  131.6160  122.6340   60.7640 C   0  0  0  0  0  0  0  0  0  0  0  0
  131.5880  121.3920   60.1070 C   0  0  0  0  0  0  0  0  0  0  0  0
  132.6890  120.5410   60.1310 C   0  0  0  0  0  0  0  0  0  0  0  0
  133.8400  120.9220   60.8130 C   0  0  0  0  0  0  0  0  0  0  0  0
  133.8960  122.1470   61.4690 C   0  0  0  0  0  0  0  0  0  0  0  0
  132.7940  122.9950   61.4410 C   0  0  0  0  0  0  0  0  0  0  0  0
  129.3100  123.2860   59.9310 C   0  0  0  0  0  0  0  0  0  0  0  0
  128.2030  124.1500   59.9160 C   0  0  0  0  0  0  0  0  0  0  0  0
  127.0160  123.8060   59.0100 C   0  0  0  0  0  0  0  0  0  0  0  0
  126.6970  124.7920   58.1670 F   0  0  0  0  0  0  0  0  0  0  0  0
  127.3050  122.7320   58.2750 F   0  0  0  0  0  0  0  0  0  0  0  0
  125.9390  123.5540   59.7540 F   0  0  0  0  0  0  0  0  0  0  0  0
  128.2620  125.2990   60.7560 C   0  0  0  0  0  0  0  0  0  0  0  0
  125.5340  127.2920   60.4860 H   0  0  0  0  0  0  0  0  0  0  0  0
  125.7740  125.7330   59.7970 H   0  0  0  0  0  0  0  0  0  0  0  0
  126.2760  128.7140   60.5780 H   0  0  0  0  0  0  0  0  0  0  0  0
  125.4142  130.4806   59.4779 H   0  0  0  0  0  0  0  0  0  0  0  0
  123.9573  132.5021   59.5472 H   0  0  0  0  0  0  0  0  0  0  0  0
  123.2265  133.4284   61.7392 H   0  0  0  0  0  0  0  0  0  0  0  0
  123.9333  132.3455   63.8642 H   0  0  0  0  0  0  0  0  0  0  0  0
  125.3931  130.3217   63.8052 H   0  0  0  0  0  0  0  0  0  0  0  0
  130.6807  121.0874   59.5647 H   0  0  0  0  0  0  0  0  0  0  0  0
  132.6492  119.5714   59.6130 H   0  0  0  0  0  0  0  0  0  0  0  0
  134.7110  120.2504   60.8335 H   0  0  0  0  0  0  0  0  0  0  0  0
  134.8079  122.4439   62.0077 H   0  0  0  0  0  0  0  0  0  0  0  0
  132.8450  123.9649   61.9575 H   0  0  0  0  0  0  0  0  0  0  0  0
  129.2995  122.3860   59.2986 H   0  0  0  0  0  0  0  0  0  0  0  0
  1  2  1  0
  2  3  2  0
  3  4  1  0
  4  5  2  0
  4  6  1  0
  6  7  1  0
  7  8  2  0
  8  9  1  0
  9 10  2  0
 10 11  1  0
 11 12  2  0
  3 13  1  0
 13 14  1  0
 14 15  2  0
 15 16  1  0
 16 17  1  0
 17 18  2  0
 18 19  1  0
 19 20  2  0
 20 21  1  0
 21 22  2  0
 16 23  2  0
 23 24  1  0
 24 25  1  0
 25 26  1  0
 25 27  1  0
 25 28  1  0
 24 29  2  0
 29  2  1  0
 12  7  1  0
 29 14  1  0
 22 17  1  0
  1 30  1  0
  1 31  1  0
  6 32  1  0
  8 33  1  0
  9 34  1  0
 10 35  1  0
 11 36  1  0
 12 37  1  0
 18 38  1  0
 19 39  1  0
 20 40  1  0
 21 41  1  0
 22 42  1  0
 23 43  1  0
M  END
>  <Binding energies>  (1) 
[-5.84]

>  <Ligand effiencies>  (1) 
[-0.1825]

>  <Interactions>  (1) 
["V-B:GLU:543:CD:9880, V-A:GLU:543:CD:4906, V-B:PRO:540:C:9853, V-A:TRP:381:CZ2:3368, V-A:ILE:369:CD1:3237, V-A:LEU:475:CD2:4257, V-A:TRP:381:CH2:3370, V-B:PRO:540:CA:9855, V-B:TYR:539:C:9839, V-B:TYR:539:CA:9841, V-A:GLY:454:CA:4047, V-B:TYR:539:CD2:9846, V-B:TYR:539:CE2:9848, V-A:ILE:369:CG2:3235, V-B:PRO:540:N:9856, V-B:PRO:540:CB:9857, V-B:ASP:366:CG:8185, V-B:ILE:369:CD1:8211, V-A:TYR:539:CE2:4874, V-B:ILE:369:CG2:8209, V-B:GLY:454:CA:9021, H-B:ASP:366:OD2:8187, H-B:ASP:366:OD1:8186"]

$$$$
4ce_Grossjean_2025
     RDKit          3D

 45 48  0  0  0  0  0  0  0  0999 V2000
  124.3180  133.1300   60.1260 C   0  0  0  0  0  0  0  0  0  0  0  0
  124.7020  132.2580   61.3060 C   0  0  0  0  0  0  0  0  0  0  0  0
  124.3430  132.5980   62.6130 C   0  0  0  0  0  0  0  0  0  0  0  0
  124.7240  131.7440   63.6490 C   0  0  0  0  0  0  0  0  0  0  0  0
  125.4450  130.5850   63.3580 C   0  0  0  0  0  0  0  0  0  0  0  0
  125.7760  130.3070   62.0270 C   0  0  0  0  0  0  0  0  0  0  0  0
  126.4820  129.1120   61.7950 N   0  0  0  0  0  0  0  0  0  0  0  0
  127.2960  128.4300   62.6390 C   0  0  0  0  0  0  0  0  0  0  0  0
  127.5270  128.7780   63.7980 O   0  0  0  0  0  0  0  0  0  0  0  0
  127.9040  127.2180   62.0840 C   0  0  0  0  0  0  0  0  0  0  0  0
  129.5100  126.7140   62.6040 S   0  0  0  0  0  0  0  0  0  0  0  0
  129.4440  125.2970   61.5840 C   0  0  0  0  0  0  0  0  0  0  0  0
  130.4530  124.4300   61.5350 N   0  0  0  0  0  0  0  0  0  0  0  0
  130.3040  123.3490   60.7250 C   0  0  0  0  0  0  0  0  0  0  0  0
  131.4560  122.3890   60.6960 C   0  0  0  0  0  0  0  0  0  0  0  0
  132.7610  122.8280   60.9710 C   0  0  0  0  0  0  0  0  0  0  0  0
  133.8370  121.9440   60.9400 C   0  0  0  0  0  0  0  0  0  0  0  0
  133.6200  120.6050   60.6330 C   0  0  0  0  0  0  0  0  0  0  0  0
  132.3380  120.1440   60.3560 C   0  0  0  0  0  0  0  0  0  0  0  0
  131.2650  121.0320   60.3860 C   0  0  0  0  0  0  0  0  0  0  0  0
  129.1540  123.1560   59.9530 C   0  0  0  0  0  0  0  0  0  0  0  0
  128.0860  124.0670   59.9930 C   0  0  0  0  0  0  0  0  0  0  0  0
  126.8550  123.7940   59.1240 C   0  0  0  0  0  0  0  0  0  0  0  0
  126.5250  124.8250   58.3430 F   0  0  0  0  0  0  0  0  0  0  0  0
  127.0880  122.7490   58.3270 F   0  0  0  0  0  0  0  0  0  0  0  0
  125.8050  123.5280   59.9000 F   0  0  0  0  0  0  0  0  0  0  0  0
  128.2250  125.1960   60.8520 C   0  0  0  0  0  0  0  0  0  0  0  0
  127.3630  126.3110   61.1570 C   0  0  0  0  0  0  0  0  0  0  0  0
  126.1240  126.4680   60.5910 N   0  0  0  0  0  0  0  0  0  0  0  0
  125.4040  131.1340   61.0070 N   0  0  0  0  0  0  0  0  0  0  0  0
  123.9000  134.0793   60.4923 H   0  0  0  0  0  0  0  0  0  0  0  0
  125.2097  133.3336   59.5150 H   0  0  0  0  0  0  0  0  0  0  0  0
  123.5658  132.6096   59.5150 H   0  0  0  0  0  0  0  0  0  0  0  0
  123.7740  133.5163   62.8202 H   0  0  0  0  0  0  0  0  0  0  0  0
  124.4575  131.9831   64.6891 H   0  0  0  0  0  0  0  0  0  0  0  0
  125.7487  129.8999   64.1632 H   0  0  0  0  0  0  0  0  0  0  0  0
  126.3220  128.6970   60.8890 H   0  0  0  0  0  0  0  0  0  0  0  0
  132.9363  123.8862   61.2147 H   0  0  0  0  0  0  0  0  0  0  0  0
  134.8537  122.3033   61.1573 H   0  0  0  0  0  0  0  0  0  0  0  0
  134.4688  119.9057   60.6092 H   0  0  0  0  0  0  0  0  0  0  0  0
  132.1718  119.0838   60.1144 H   0  0  0  0  0  0  0  0  0  0  0  0
  130.2522  120.6649   60.1635 H   0  0  0  0  0  0  0  0  0  0  0  0
  129.0846  122.2726   59.3012 H   0  0  0  0  0  0  0  0  0  0  0  0
  125.3790  125.8010   60.7400 H   0  0  0  0  0  0  0  0  0  0  0  0
  125.9130  127.2590   59.9990 H   0  0  0  0  0  0  0  0  0  0  0  0
  1  2  1  0
  2  3  2  0
  3  4  1  0
  4  5  2  0
  5  6  1  0
  6  7  1  0
  7  8  1  0
  8  9  2  0
  8 10  1  0
 10 11  1  0
 11 12  1  0
 12 13  2  0
 13 14  1  0
 14 15  1  0
 15 16  2  0
 16 17  1  0
 17 18  2  0
 18 19  1  0
 19 20  2  0
 14 21  2  0
 21 22  1  0
 22 23  1  0
 23 24  1  0
 23 25  1  0
 23 26  1  0
 22 27  2  0
 27 28  1  0
 28 29  1  0
  6 30  2  0
 30  2  1  0
 28 10  2  0
 27 12  1  0
 20 15  1  0
  1 31  1  0
  1 32  1  0
  1 33  1  0
  3 34  1  0
  4 35  1  0
  5 36  1  0
  7 37  1  0
 16 38  1  0
 17 39  1  0
 18 40  1  0
 19 41  1  0
 20 42  1  0
 21 43  1  0
 29 44  1  0
 29 45  1  0
M  END
>  <Binding energies>  (1) 
[-5.82]

>  <Ligand effiencies>  (1) 
[-0.17636363636363636]

>  <Interactions>  (1) 
["V-B:GLU:543:CD:9880, V-A:GLU:543:CD:4906, V-B:PRO:540:C:9853, V-A:TRP:381:CZ2:3368, V-A:ILE:369:CD1:3237, V-A:LEU:475:CD2:4257, V-A:TRP:381:CH2:3370, V-B:PRO:540:CA:9855, V-B:TYR:539:C:9839, V-B:PRO:540:CD:9859, V-B:TYR:539:CD2:9846, V-B:TYR:539:CE2:9848, V-A:ILE:369:CG2:3235, V-B:PRO:540:N:9856, V-B:PRO:540:CB:9857, V-B:LEU:475:CD2:9231, V-B:ASP:366:CG:8185, V-B:ILE:369:CD1:8211, V-A:TYR:539:CE2:4874, V-B:ILE:369:CG2:8209, V-B:GLY:454:CA:9021, V-A:TYR:539:CD2:4872, H-B:ASP:366:OD2:8187, H-B:ASP:366:OD1:8186"]

$$$$
4cf_Grossjean_2025
     RDKit          3D

 42 45  0  0  0  0  0  0  0  0999 V2000
  126.1520  126.2550   60.3430 N   0  0  0  0  0  0  0  0  0  0  0  0
  127.3760  126.1900   60.9580 C   0  0  0  0  0  0  0  0  0  0  0  0
  127.8310  127.1570   61.8690 C   0  0  0  0  0  0  0  0  0  0  0  0
  127.1630  128.3860   62.3080 C   0  0  0  0  0  0  0  0  0  0  0  0
  127.5300  128.9680   63.3290 O   0  0  0  0  0  0  0  0  0  0  0  0
  126.1530  128.8130   61.5120 N   0  0  0  0  0  0  0  0  0  0  0  0
  125.2880  129.9130   61.6710 C   0  0  0  0  0  0  0  0  0  0  0  0
  124.9620  130.8470   60.6690 C   0  0  0  0  0  0  0  0  0  0  0  0
  124.0980  131.9040   60.9660 C   0  0  0  0  0  0  0  0  0  0  0  0
  123.5820  132.0030   62.2580 C   0  0  0  0  0  0  0  0  0  0  0  0
  123.8850  131.1200   63.2430 N   0  0  0  0  0  0  0  0  0  0  0  0
  124.7280  130.0990   62.9400 C   0  0  0  0  0  0  0  0  0  0  0  0
  129.4390  126.7580   62.4690 S   0  0  0  0  0  0  0  0  0  0  0  0
  129.4930  125.3090   61.4920 C   0  0  0  0  0  0  0  0  0  0  0  0
  130.5540  124.5040   61.5010 N   0  0  0  0  0  0  0  0  0  0  0  0
  130.5090  123.4110   60.6960 C   0  0  0  0  0  0  0  0  0  0  0  0
  131.7210  122.5260   60.7210 C   0  0  0  0  0  0  0  0  0  0  0  0
  131.7460  121.3210   60.0010 C   0  0  0  0  0  0  0  0  0  0  0  0
  132.8660  120.4950   60.0180 C   0  0  0  0  0  0  0  0  0  0  0  0
  133.9850  120.8670   60.7570 C   0  0  0  0  0  0  0  0  0  0  0  0
  133.9900  122.0570   61.4770 C   0  0  0  0  0  0  0  0  0  0  0  0
  132.8670  122.8790   61.4570 C   0  0  0  0  0  0  0  0  0  0  0  0
  129.3930  123.1180   59.9070 C   0  0  0  0  0  0  0  0  0  0  0  0
  128.2680  123.9580   59.8940 C   0  0  0  0  0  0  0  0  0  0  0  0
  127.0800  123.5800   59.0010 C   0  0  0  0  0  0  0  0  0  0  0  0
  126.8340  124.4810   58.0470 F   0  0  0  0  0  0  0  0  0  0  0  0
  127.3220  122.4160   58.3980 F   0  0  0  0  0  0  0  0  0  0  0  0
  125.9760  123.4710   59.7400 F   0  0  0  0  0  0  0  0  0  0  0  0
  128.3100  125.1180   60.7200 C   0  0  0  0  0  0  0  0  0  0  0  0
  126.0030  126.7990   59.5050 H   0  0  0  0  0  0  0  0  0  0  0  0
  125.3520  125.7560   60.7090 H   0  0  0  0  0  0  0  0  0  0  0  0
  125.9890  128.2740   60.6740 H   0  0  0  0  0  0  0  0  0  0  0  0
  125.3849  130.7451   59.6587 H   0  0  0  0  0  0  0  0  0  0  0  0
  123.8302  132.6431   60.1966 H   0  0  0  0  0  0  0  0  0  0  0  0
  122.8990  132.8338   62.4889 H   0  0  0  0  0  0  0  0  0  0  0  0
  124.9838  129.3811   63.7332 H   0  0  0  0  0  0  0  0  0  0  0  0
  130.8648  121.0245   59.4131 H   0  0  0  0  0  0  0  0  0  0  0  0
  132.8667  119.5529   59.4502 H   0  0  0  0  0  0  0  0  0  0  0  0
  134.8713  120.2157   60.7718 H   0  0  0  0  0  0  0  0  0  0  0  0
  134.8770  122.3470   62.0593 H   0  0  0  0  0  0  0  0  0  0  0  0
  132.8756  123.8203   62.0261 H   0  0  0  0  0  0  0  0  0  0  0  0
  129.3962  122.2114   59.2840 H   0  0  0  0  0  0  0  0  0  0  0  0
  1  2  1  0
  2  3  2  0
  3  4  1  0
  4  5  2  0
  4  6  1  0
  6  7  1  0
  7  8  2  0
  8  9  1  0
  9 10  2  0
 10 11  1  0
 11 12  2  0
  3 13  1  0
 13 14  1  0
 14 15  2  0
 15 16  1  0
 16 17  1  0
 17 18  2  0
 18 19  1  0
 19 20  2  0
 20 21  1  0
 21 22  2  0
 16 23  2  0
 23 24  1  0
 24 25  1  0
 25 26  1  0
 25 27  1  0
 25 28  1  0
 24 29  2  0
 29  2  1  0
 12  7  1  0
 29 14  1  0
 22 17  1  0
  1 30  1  0
  1 31  1  0
  6 32  1  0
  8 33  1  0
  9 34  1  0
 10 35  1  0
 12 36  1  0
 18 37  1  0
 19 38  1  0
 20 39  1  0
 21 40  1  0
 22 41  1  0
 23 42  1  0
M  END
>  <Binding energies>  (1) 
[-5.78]

>  <Ligand effiencies>  (1) 
[-0.180625]

>  <Interactions>  (1) 
["V-B:ARG:545:CZ:9898, V-B:GLU:543:CD:9880, H-B:GLY:454:N:9022, V-B:GLY:453:C:9014, V-B:PRO:540:C:9853, V-A:TRP:381:CZ2:3368, V-A:ILE:369:CD1:3237, V-A:LEU:475:CD2:4257, V-A:TRP:381:CH2:3370, V-B:PRO:540:CA:9855, V-B:TYR:539:C:9839, V-B:TYR:539:CA:9841, V-A:GLY:454:CA:4047, V-B:PRO:540:CD:9859, V-B:TYR:539:CD2:9846, V-B:TYR:539:CE2:9848, V-A:ILE:369:CG2:3235, V-B:PRO:540:N:9856, V-B:PRO:540:CB:9857, V-B:ASP:366:CG:8185, V-B:ILE:369:CD1:8211, V-B:GLY:454:CA:9021, H-B:ASP:366:OD2:8187, H-B:ASP:366:OD1:8186"]

$$$$
4cg_Grossjean_2025
     RDKit          3D

 46 49  0  0  0  0  0  0  0  0999 V2000
  126.1450  126.6220   60.5800 N   0  0  0  0  0  0  0  0  0  0  0  0
  127.4180  126.5240   61.0810 C   0  0  0  0  0  0  0  0  0  0  0  0
  128.0140  127.5240   61.8630 C   0  0  0  0  0  0  0  0  0  0  0  0
  127.4350  128.7840   62.3290 C   0  0  0  0  0  0  0  0  0  0  0  0
  127.2480  129.7290   61.5600 O   0  0  0  0  0  0  0  0  0  0  0  0
  127.1600  128.8560   63.6490 N   0  0  0  0  0  0  0  0  0  0  0  0
  126.5600  130.0030   64.3280 C   0  0  0  0  0  0  0  0  0  0  0  0
  125.6200  130.8100   63.4390 C   0  0  0  0  0  0  0  0  0  0  0  0
  126.0130  132.0710   62.9790 C   0  0  0  0  0  0  0  0  0  0  0  0
  125.1710  132.7980   62.1410 C   0  0  0  0  0  0  0  0  0  0  0  0
  123.9450  132.2590   61.7590 C   0  0  0  0  0  0  0  0  0  0  0  0
  123.5550  130.9960   62.2010 C   0  0  0  0  0  0  0  0  0  0  0  0
  124.3970  130.2680   63.0370 C   0  0  0  0  0  0  0  0  0  0  0  0
  129.6420  127.0690   62.3560 S   0  0  0  0  0  0  0  0  0  0  0  0
  129.5240  125.5530   61.4930 C   0  0  0  0  0  0  0  0  0  0  0  0
  130.5290  124.6820   61.4800 N   0  0  0  0  0  0  0  0  0  0  0  0
  130.3440  123.5290   60.7860 C   0  0  0  0  0  0  0  0  0  0  0  0
  131.4990  122.5670   60.7890 C   0  0  0  0  0  0  0  0  0  0  0  0
  132.7860  122.9860   61.1640 C   0  0  0  0  0  0  0  0  0  0  0  0
  133.8580  122.0990   61.1660 C   0  0  0  0  0  0  0  0  0  0  0  0
  133.6600  120.7740   60.7900 C   0  0  0  0  0  0  0  0  0  0  0  0
  132.3970  120.3330   60.4120 C   0  0  0  0  0  0  0  0  0  0  0  0
  131.3270  121.2230   60.4100 C   0  0  0  0  0  0  0  0  0  0  0  0
  129.1560  123.2650   60.0950 C   0  0  0  0  0  0  0  0  0  0  0  0
  128.0900  124.1780   60.1020 C   0  0  0  0  0  0  0  0  0  0  0  0
  126.8170  123.8260   59.3230 C   0  0  0  0  0  0  0  0  0  0  0  0
  125.7730  123.5720   60.1130 F   0  0  0  0  0  0  0  0  0  0  0  0
  126.4790  124.8440   58.5290 F   0  0  0  0  0  0  0  0  0  0  0  0
  127.0290  122.7410   58.5800 F   0  0  0  0  0  0  0  0  0  0  0  0
  128.2680  125.3840   60.8390 C   0  0  0  0  0  0  0  0  0  0  0  0
  125.4580  125.8950   60.7210 H   0  0  0  0  0  0  0  0  0  0  0  0
  125.8480  127.4340   60.0570 H   0  0  0  0  0  0  0  0  0  0  0  0
  127.2690  128.0200   64.2030 H   0  0  0  0  0  0  0  0  0  0  0  0
  125.9908  129.6363   65.1949 H   0  0  0  0  0  0  0  0  0  0  0  0
  127.3819  130.6720   64.6228 H   0  0  0  0  0  0  0  0  0  0  0  0
  126.9858  132.4880   63.2787 H   0  0  0  0  0  0  0  0  0  0  0  0
  125.4729  133.7932   61.7826 H   0  0  0  0  0  0  0  0  0  0  0  0
  123.2777  132.8359   61.1018 H   0  0  0  0  0  0  0  0  0  0  0  0
  122.5866  130.5765   61.8908 H   0  0  0  0  0  0  0  0  0  0  0  0
  124.0994  129.2664   63.3809 H   0  0  0  0  0  0  0  0  0  0  0  0
  132.9492  124.0325   61.4610 H   0  0  0  0  0  0  0  0  0  0  0  0
  134.8590  122.4442   61.4639 H   0  0  0  0  0  0  0  0  0  0  0  0
  134.5070  120.0721   60.7919 H   0  0  0  0  0  0  0  0  0  0  0  0
  132.2439  119.2848   60.1157 H   0  0  0  0  0  0  0  0  0  0  0  0
  130.3303  120.8698   60.1071 H   0  0  0  0  0  0  0  0  0  0  0  0
  129.0557  122.3234   59.5353 H   0  0  0  0  0  0  0  0  0  0  0  0
  1  2  1  0
  2  3  2  0
  3  4  1  0
  4  5  2  0
  4  6  1  0
  6  7  1  0
  7  8  1  0
  8  9  2  0
  9 10  1  0
 10 11  2  0
 11 12  1  0
 12 13  2  0
  3 14  1  0
 14 15  1  0
 15 16  2  0
 16 17  1  0
 17 18  1  0
 18 19  2  0
 19 20  1  0
 20 21  2  0
 21 22  1  0
 22 23  2  0
 17 24  2  0
 24 25  1  0
 25 26  1  0
 26 27  1  0
 26 28  1  0
 26 29  1  0
 25 30  2  0
 30  2  1  0
 13  8  1  0
 30 15  1  0
 23 18  1  0
  1 31  1  0
  1 32  1  0
  6 33  1  0
  7 34  1  0
  7 35  1  0
  9 36  1  0
 10 37  1  0
 11 38  1  0
 12 39  1  0
 13 40  1  0
 19 41  1  0
 20 42  1  0
 21 43  1  0
 22 44  1  0
 23 45  1  0
 24 46  1  0
M  END
>  <Binding energies>  (1) 
[-6.84]

>  <Ligand effiencies>  (1) 
[-0.20727272727272728]

>  <Interactions>  (1) 
["V-B:ARG:545:CZ:9898, V-B:GLY:453:CA:9016, V-B:GLU:543:CD:9880, V-A:GLU:543:CD:4906, V-B:GLY:453:C:9014, H-B:GLU:543:OE1:9881, V-B:PRO:540:C:9853, V-A:TRP:381:CZ2:3368, V-A:ILE:369:CD1:3237, V-A:LEU:475:CD2:4257, V-A:TRP:381:CH2:3370, V-B:PRO:540:CA:9855, V-B:TYR:539:C:9839, V-A:GLY:454:CA:4047, V-B:TYR:539:CD2:9846, V-B:TYR:539:CE2:9848, V-A:ILE:369:CG2:3235, V-B:PRO:540:N:9856, V-B:PRO:540:CB:9857, V-B:LEU:475:CD2:9231, V-B:ASP:366:CG:8185, V-B:ILE:369:CD1:8211, H-A:GLU:543:OE2:4908, H-A:GLU:543:OE1:4907, H-B:GLU:543:OE2:9882, H-B:ASP:366:OD2:8187, H-B:ASP:366:OD1:8186"]

$$$$
4ch_Grossjean_2025
     RDKit          3D

 58 61  0  0  0  0  0  0  0  0999 V2000
  126.5590  128.1800   66.6910 C   0  0  0  0  0  0  0  0  0  0  0  0
  126.9980  127.6270   67.9270 O   0  0  0  0  0  0  0  0  0  0  0  0
  128.3540  127.5110   68.1740 C   0  0  0  0  0  0  0  0  0  0  0  0
  129.3140  127.2700   67.1790 C   0  0  0  0  0  0  0  0  0  0  0  0
  130.6680  127.1660   67.5010 C   0  0  0  0  0  0  0  0  0  0  0  0
  131.6930  126.8760   66.4110 C   0  0  0  0  0  0  0  0  0  0  0  0
  131.1480  126.1870   65.2410 N   0  0  0  0  0  0  0  0  0  0  0  0
  131.8220  125.3230   64.4540 C   0  0  0  0  0  0  0  0  0  0  0  0
  132.9930  125.0040   64.6720 O   0  0  0  0  0  0  0  0  0  0  0  0
  131.0700  124.7510   63.3370 C   0  0  0  0  0  0  0  0  0  0  0  0
  129.9060  125.7380   62.4590 S   0  0  0  0  0  0  0  0  0  0  0  0
  129.5290  124.4150   61.3830 C   0  0  0  0  0  0  0  0  0  0  0  0
  128.6300  124.5440   60.4110 N   0  0  0  0  0  0  0  0  0  0  0  0
  128.4070  123.4620   59.6200 C   0  0  0  0  0  0  0  0  0  0  0  0
  127.3820  123.6390   58.5370 C   0  0  0  0  0  0  0  0  0  0  0  0
  127.5210  122.9860   57.3020 C   0  0  0  0  0  0  0  0  0  0  0  0
  126.5740  123.1470   56.2930 C   0  0  0  0  0  0  0  0  0  0  0  0
  125.4710  123.9660   56.5060 C   0  0  0  0  0  0  0  0  0  0  0  0
  125.3110  124.6280   57.7190 C   0  0  0  0  0  0  0  0  0  0  0  0
  126.2610  124.4660   58.7240 C   0  0  0  0  0  0  0  0  0  0  0  0
  129.0770  122.2510   59.8210 C   0  0  0  0  0  0  0  0  0  0  0  0
  130.0280  122.1020   60.8440 C   0  0  0  0  0  0  0  0  0  0  0  0
  130.7250  120.7470   61.0080 C   0  0  0  0  0  0  0  0  0  0  0  0
  130.5680  120.2210   62.2250 F   0  0  0  0  0  0  0  0  0  0  0  0
  130.2300  119.8760   60.1300 F   0  0  0  0  0  0  0  0  0  0  0  0
  132.0340  120.8860   60.8000 F   0  0  0  0  0  0  0  0  0  0  0  0
  130.2780  123.2350   61.6700 C   0  0  0  0  0  0  0  0  0  0  0  0
  131.1610  123.4620   62.7890 C   0  0  0  0  0  0  0  0  0  0  0  0
  132.0060  122.4970   63.2760 N   0  0  0  0  0  0  0  0  0  0  0  0
  131.0700  127.2860   68.8320 C   0  0  0  0  0  0  0  0  0  0  0  0
  130.1310  127.5260   69.8480 C   0  0  0  0  0  0  0  0  0  0  0  0
  130.4590  127.6570   71.1850 O   0  0  0  0  0  0  0  0  0  0  0  0
  130.9880  126.5390   71.8890 C   0  0  0  0  0  0  0  0  0  0  0  0
  128.7770  127.6420   69.5050 C   0  0  0  0  0  0  0  0  0  0  0  0
  127.8460  127.8620   70.4910 O   0  0  0  0  0  0  0  0  0  0  0  0
  127.9890  127.0120   71.6210 C   0  0  0  0  0  0  0  0  0  0  0  0
  125.8860  129.0277   66.8870 H   0  0  0  0  0  0  0  0  0  0  0  0
  127.4293  128.5282   66.1154 H   0  0  0  0  0  0  0  0  0  0  0  0
  126.0224  127.4114   66.1154 H   0  0  0  0  0  0  0  0  0  0  0  0
  128.9951  127.1617   66.1318 H   0  0  0  0  0  0  0  0  0  0  0  0
  132.1226  127.8325   66.0786 H   0  0  0  0  0  0  0  0  0  0  0  0
  132.4417  126.2023   66.8533 H   0  0  0  0  0  0  0  0  0  0  0  0
  130.2090  126.4430   64.9720 H   0  0  0  0  0  0  0  0  0  0  0  0
  128.3918  122.3367   57.1282 H   0  0  0  0  0  0  0  0  0  0  0  0
  126.6985  122.6279   55.3312 H   0  0  0  0  0  0  0  0  0  0  0  0
  124.7209  124.0912   55.7112 H   0  0  0  0  0  0  0  0  0  0  0  0
  124.4379  125.2765   57.8835 H   0  0  0  0  0  0  0  0  0  0  0  0
  126.1320  124.9941   59.6803 H   0  0  0  0  0  0  0  0  0  0  0  0
  128.8546  121.3972   59.1641 H   0  0  0  0  0  0  0  0  0  0  0  0
  132.1460  121.6180   62.7980 H   0  0  0  0  0  0  0  0  0  0  0  0
  132.5230  122.6370   64.1320 H   0  0  0  0  0  0  0  0  0  0  0  0
  132.1355  127.1914   69.0883 H   0  0  0  0  0  0  0  0  0  0  0  0
  130.9049  126.7147   72.9717 H   0  0  0  0  0  0  0  0  0  0  0  0
  130.4222  125.6349   71.6197 H   0  0  0  0  0  0  0  0  0  0  0  0
  132.0459  126.4032   71.6197 H   0  0  0  0  0  0  0  0  0  0  0  0
  127.8891  127.6059   72.5415 H   0  0  0  0  0  0  0  0  0  0  0  0
  127.2086  126.2371   71.5980 H   0  0  0  0  0  0  0  0  0  0  0  0
  128.9800  126.5351   71.5980 H   0  0  0  0  0  0  0  0  0  0  0  0
  1  2  1  0
  2  3  1  0
  3  4  2  0
  4  5  1  0
  5  6  1  0
  6  7  1  0
  7  8  1  0
  8  9  2  0
  8 10  1  0
 10 11  1  0
 11 12  1  0
 12 13  2  0
 13 14  1  0
 14 15  1  0
 15 16  2  0
 16 17  1  0
 17 18  2  0
 18 19  1  0
 19 20  2  0
 14 21  2  0
 21 22  1  0
 22 23  1  0
 23 24  1  0
 23 25  1  0
 23 26  1  0
 22 27  2  0
 27 28  1  0
 28 29  1  0
  5 30  2  0
 30 31  1  0
 31 32  1  0
 32 33  1  0
 31 34  2  0
 34 35  1  0
 35 36  1  0
 34  3  1  0
 28 10  2  0
 27 12  1  0
 20 15  1  0
  1 37  1  0
  1 38  1  0
  1 39  1  0
  4 40  1  0
  6 41  1  0
  6 42  1  0
  7 43  1  0
 16 44  1  0
 17 45  1  0
 18 46  1  0
 19 47  1  0
 20 48  1  0
 21 49  1  0
 29 50  1  0
 29 51  1  0
 30 52  1  0
 33 53  1  0
 33 54  1  0
 33 55  1  0
 36 56  1  0
 36 57  1  0
 36 58  1  0
M  END
>  <Binding energies>  (1) 
[-6.98]

>  <Ligand effiencies>  (1) 
[-0.17897435897435898]

>  <Interactions>  (1) 
["V-A:HIS:456:CE1:4068, V-A:HIS:456:CD2:4066, V-B:GLU:543:CD:9880, V-A:GLU:543:CD:4906, V-B:HIS:456:CE1:9042, V-B:GLY:544:C:9884, V-A:GLY:544:C:4910, V-B:GLU:543:CG:9879, V-A:GLU:543:CG:4905, H-A:GLY:454:N:4048, V-A:ARG:545:CZ:4924, V-A:ARG:545:CG:4920, H-A:TYR:484:OH:4346, V-A:ARG:545:CD:4921, V-A:HIS:456:CG:4064, V-A:TYR:484:CZ:4345, H-B:GLU:543:OE1:9881, V-B:GLY:544:CA:9886, H-A:ARG:545:NE:4922, V-A:GLU:543:C:4900, V-A:ARG:545:CA:4917, V-A:TRP:381:CZ2:3368, V-A:LEU:475:CD2:4257, V-A:TRP:381:CH2:3370, V-B:PRO:540:CA:9855, V-B:TYR:539:C:9839, V-B:TYR:539:CA:9841, V-A:GLY:454:CA:4047, V-B:ALA:541:CB:9864, V-B:TYR:539:CD2:9846, V-B:TYR:539:CE2:9848, V-B:PRO:540:N:9856, V-A:PRO:482:CB:4324, H-A:GLU:543:OE2:4908, H-B:GLU:543:OE2:9882, V-B:ARG:545:CG:9894, V-B:ARG:545:CD:9895, V-A:LEU:475:CD1:4256, V-A:LEU:475:CG:4255"]

$$$$
4ci_Grossjean_2025
     RDKit          3D

 39 42  0  0  0  0  0  0  0  0999 V2000
  126.2110  126.4170   60.4070 N   0  0  0  0  0  0  0  0  0  0  0  0
  127.4860  126.4330   60.9100 C   0  0  0  0  0  0  0  0  0  0  0  0
  128.0300  127.5340   61.5910 C   0  0  0  0  0  0  0  0  0  0  0  0
  127.3970  128.8180   61.9060 C   0  0  0  0  0  0  0  0  0  0  0  0
  127.6900  129.8360   61.2750 O   0  0  0  0  0  0  0  0  0  0  0  0
  126.5010  128.7920   62.9240 N   0  0  0  0  0  0  0  0  0  0  0  0
  125.7630  129.8560   63.4290 C   0  0  0  0  0  0  0  0  0  0  0  0
  126.0090  131.1850   63.0870 C   0  0  0  0  0  0  0  0  0  0  0  0
  125.0790  131.9140   63.7900 C   0  0  0  0  0  0  0  0  0  0  0  0
  124.3110  131.0670   64.5180 O   0  0  0  0  0  0  0  0  0  0  0  0
  124.7550  129.7660   64.2810 N   0  0  0  0  0  0  0  0  0  0  0  0
  129.6830  127.2100   62.1070 S   0  0  0  0  0  0  0  0  0  0  0  0
  129.6380  125.6110   61.4020 C   0  0  0  0  0  0  0  0  0  0  0  0
  130.6860  124.7930   61.4660 N   0  0  0  0  0  0  0  0  0  0  0  0
  130.5550  123.5690   60.8920 C   0  0  0  0  0  0  0  0  0  0  0  0
  131.7560  122.6700   60.9760 C   0  0  0  0  0  0  0  0  0  0  0  0
  131.7930  121.4510   60.2780 C   0  0  0  0  0  0  0  0  0  0  0  0
  132.9040  120.6140   60.3510 C   0  0  0  0  0  0  0  0  0  0  0  0
  133.9970  120.9860   61.1270 C   0  0  0  0  0  0  0  0  0  0  0  0
  133.9850  122.1840   61.8310 C   0  0  0  0  0  0  0  0  0  0  0  0
  132.8720  123.0170   61.7570 C   0  0  0  0  0  0  0  0  0  0  0  0
  129.3790  123.1800   60.2420 C   0  0  0  0  0  0  0  0  0  0  0  0
  128.2670  124.0350   60.1700 C   0  0  0  0  0  0  0  0  0  0  0  0
  127.0100  123.5440   59.4430 C   0  0  0  0  0  0  0  0  0  0  0  0
  126.5220  124.4360   58.5790 F   0  0  0  0  0  0  0  0  0  0  0  0
  127.2930  122.4370   58.7560 F   0  0  0  0  0  0  0  0  0  0  0  0
  126.0510  123.2780   60.3290 F   0  0  0  0  0  0  0  0  0  0  0  0
  128.3900  125.3160   60.7790 C   0  0  0  0  0  0  0  0  0  0  0  0
  125.7770  125.5660   60.0760 H   0  0  0  0  0  0  0  0  0  0  0  0
  125.6550  127.2600   60.3570 H   0  0  0  0  0  0  0  0  0  0  0  0
  126.3450  127.9040   63.3770 H   0  0  0  0  0  0  0  0  0  0  0  0
  126.7805  131.5677   62.4026 H   0  0  0  0  0  0  0  0  0  0  0  0
  124.9750  133.0088   63.7655 H   0  0  0  0  0  0  0  0  0  0  0  0
  130.9305  121.1528   59.6639 H   0  0  0  0  0  0  0  0  0  0  0  0
  132.9170  119.6634   59.7977 H   0  0  0  0  0  0  0  0  0  0  0  0
  134.8764  120.3276   61.1837 H   0  0  0  0  0  0  0  0  0  0  0  0
  134.8513  122.4730   62.4442 H   0  0  0  0  0  0  0  0  0  0  0  0
  132.8658  123.9625   62.3191 H   0  0  0  0  0  0  0  0  0  0  0  0
  129.3240  122.1843   59.7778 H   0  0  0  0  0  0  0  0  0  0  0  0
  1  2  1  0
  2  3  2  0
  3  4  1  0
  4  5  2  0
  4  6  1  0
  6  7  1  0
  7  8  1  0
  8  9  2  0
  9 10  1  0
 10 11  1  0
  3 12  1  0
 12 13  1  0
 13 14  2  0
 14 15  1  0
 15 16  1  0
 16 17  2  0
 17 18  1  0
 18 19  2  0
 19 20  1  0
 20 21  2  0
 15 22  2  0
 22 23  1  0
 23 24  1  0
 24 25  1  0
 24 26  1  0
 24 27  1  0
 23 28  2  0
 28  2  1  0
 11  7  2  0
 28 13  1  0
 21 16  1  0
  1 29  1  0
  1 30  1  0
  6 31  1  0
  8 32  1  0
  9 33  1  0
 17 34  1  0
 18 35  1  0
 19 36  1  0
 20 37  1  0
 21 38  1  0
 22 39  1  0
M  END
>  <Binding energies>  (1) 
[-6.28]

>  <Ligand effiencies>  (1) 
[-0.20258064516129032]

>  <Interactions>  (1) 
["V-B:ARG:545:CZ:9898, H-B:TYR:484:OH:9320, V-A:GLU:543:CD:4906, H-B:GLY:454:N:9022, H-B:ARG:545:NE:9896, V-B:PRO:540:C:9853, V-A:ILE:369:CD1:3237, V-A:LEU:475:CD2:4257, V-A:TRP:381:CH2:3370, V-B:PRO:540:CA:9855, V-B:TYR:539:C:9839, V-B:TYR:539:CA:9841, V-A:GLY:454:CA:4047, V-B:TYR:539:CD2:9846, V-B:TYR:539:CE2:9848, V-A:ILE:369:CG2:3235, V-B:PRO:540:N:9856, V-B:PRO:540:CB:9857, V-B:LEU:475:CD2:9231, V-B:ASP:366:CG:8185, H-B:ARG:545:NH2:9900, V-B:GLY:454:CA:9021, H-B:GLU:543:OE2:9882, H-B:ASP:366:OD2:8187, H-B:ASP:366:OD1:8186"]

$$$$
4cj_Grossjean_2025
     RDKit          3D

 39 42  0  0  0  0  0  0  0  0999 V2000
  126.3380  125.9440   59.0240 N   0  0  0  0  0  0  0  0  0  0  0  0
  127.3990  125.8760   59.8900 C   0  0  0  0  0  0  0  0  0  0  0  0
  127.6060  126.8010   60.9270 C   0  0  0  0  0  0  0  0  0  0  0  0
  126.7880  127.9590   61.2950 C   0  0  0  0  0  0  0  0  0  0  0  0
  126.0570  128.5040   60.4650 O   0  0  0  0  0  0  0  0  0  0  0  0
  126.9090  128.3710   62.5810 N   0  0  0  0  0  0  0  0  0  0  0  0
  126.2490  129.4360   63.1810 C   0  0  0  0  0  0  0  0  0  0  0  0
  125.3980  129.3960   64.1840 N   0  0  0  0  0  0  0  0  0  0  0  0
  124.9650  130.6010   64.4990 C   0  0  0  0  0  0  0  0  0  0  0  0
  125.4700  131.6550   63.7430 C   0  0  0  0  0  0  0  0  0  0  0  0
  126.5720  131.0210   62.5560 S   0  0  0  0  0  0  0  0  0  0  0  0
  129.0540  126.4070   61.8510 S   0  0  0  0  0  0  0  0  0  0  0  0
  129.3710  125.0140   60.8440 C   0  0  0  0  0  0  0  0  0  0  0  0
  130.4220  124.2270   61.0600 N   0  0  0  0  0  0  0  0  0  0  0  0
  130.5830  123.1630   60.2320 C   0  0  0  0  0  0  0  0  0  0  0  0
  131.7710  122.2880   60.5110 C   0  0  0  0  0  0  0  0  0  0  0  0
  132.8530  122.7650   61.2680 C   0  0  0  0  0  0  0  0  0  0  0  0
  133.9600  121.9600   61.5260 C   0  0  0  0  0  0  0  0  0  0  0  0
  134.0030  120.6630   61.0250 C   0  0  0  0  0  0  0  0  0  0  0  0
  132.9460  120.1670   60.2690 C   0  0  0  0  0  0  0  0  0  0  0  0
  131.8410  120.9740   60.0160 C   0  0  0  0  0  0  0  0  0  0  0  0
  129.7020  122.9090   59.1750 C   0  0  0  0  0  0  0  0  0  0  0  0
  128.5910  123.7340   58.9370 C   0  0  0  0  0  0  0  0  0  0  0  0
  127.6640  123.3970   57.7640 C   0  0  0  0  0  0  0  0  0  0  0  0
  126.4220  123.0940   58.1480 F   0  0  0  0  0  0  0  0  0  0  0  0
  127.5840  124.4410   56.9400 F   0  0  0  0  0  0  0  0  0  0  0  0
  128.1420  122.3460   57.0980 F   0  0  0  0  0  0  0  0  0  0  0  0
  128.4020  124.8420   59.8130 C   0  0  0  0  0  0  0  0  0  0  0  0
  125.6330  126.6650   59.0970 H   0  0  0  0  0  0  0  0  0  0  0  0
  126.2270  125.2740   58.2760 H   0  0  0  0  0  0  0  0  0  0  0  0
  127.5500  127.8630   63.1730 H   0  0  0  0  0  0  0  0  0  0  0  0
  124.2446  130.7642   65.3141 H   0  0  0  0  0  0  0  0  0  0  0  0
  125.2138  132.7166   63.8748 H   0  0  0  0  0  0  0  0  0  0  0  0
  132.8260  123.7910   61.6637 H   0  0  0  0  0  0  0  0  0  0  0  0
  134.7975  122.3486   62.1240 H   0  0  0  0  0  0  0  0  0  0  0  0
  134.8770  120.0266   61.2276 H   0  0  0  0  0  0  0  0  0  0  0  0
  132.9835  119.1415   59.8729 H   0  0  0  0  0  0  0  0  0  0  0  0
  131.0075  120.5768   59.4181 H   0  0  0  0  0  0  0  0  0  0  0  0
  129.8834  122.0460   58.5175 H   0  0  0  0  0  0  0  0  0  0  0  0
  1  2  1  0
  2  3  2  0
  3  4  1  0
  4  5  2  0
  4  6  1  0
  6  7  1  0
  7  8  2  0
  8  9  1  0
  9 10  2  0
 10 11  1  0
  3 12  1  0
 12 13  1  0
 13 14  2  0
 14 15  1  0
 15 16  1  0
 16 17  2  0
 17 18  1  0
 18 19  2  0
 19 20  1  0
 20 21  2  0
 15 22  2  0
 22 23  1  0
 23 24  1  0
 24 25  1  0
 24 26  1  0
 24 27  1  0
 23 28  2  0
 28  2  1  0
 11  7  1  0
 28 13  1  0
 21 16  1  0
  1 29  1  0
  1 30  1  0
  6 31  1  0
  9 32  1  0
 10 33  1  0
 17 34  1  0
 18 35  1  0
 19 36  1  0
 20 37  1  0
 21 38  1  0
 22 39  1  0
M  END
>  <Binding energies>  (1) 
[-5.32]

>  <Ligand effiencies>  (1) 
[-0.17161290322580647]

>  <Interactions>  (1) 
["V-B:ARG:545:CZ:9898, V-B:GLU:543:CD:9880, H-B:ARG:545:NE:9896, H-B:GLU:543:OE1:9881, V-B:TYR:539:CZ:9849, V-B:TYR:539:CG:9844, V-A:TRP:381:CZ2:3368, V-B:TYR:539:CD1:9845, V-A:ILE:369:CD1:3237, V-A:LEU:475:CD2:4257, V-A:TRP:381:CH2:3370, V-B:PRO:540:CA:9855, V-B:TYR:539:C:9839, V-B:TYR:539:CA:9841, V-A:GLY:454:CA:4047, V-B:PRO:540:CD:9859, V-B:TYR:539:CB:9843, V-B:TYR:539:CD2:9846, V-B:TYR:539:CE1:9847, V-B:TYR:539:CE2:9848, V-A:ILE:369:CG2:3235, V-B:PRO:540:N:9856, V-B:PRO:540:CB:9857, V-B:ASP:366:CG:8185, H-B:ARG:545:NH2:9900, V-B:GLY:454:CA:9021, H-B:TYR:531:OH:9767, H-A:GLU:543:OE2:4908, H-A:GLU:543:OE1:4907, H-B:GLU:543:OE2:9882, H-B:ASP:366:OD2:8187, V-A:SER:385:C:3403"]

$$$$
4ck_Grossjean_2025
     RDKit          3D

 57 59  0  0  0  0  0  0  0  0999 V2000
  127.8740  127.9140   71.2860 C   0  0  0  0  0  0  0  0  0  0  0  0
  129.1140  127.2420   71.4420 O   0  0  0  0  0  0  0  0  0  0  0  0
  130.0810  127.6080   70.4670 C   0  0  0  0  0  0  0  0  0  0  0  0
  129.7020  126.9740   69.1230 C   0  0  0  0  0  0  0  0  0  0  0  0
  129.3360  128.0020   68.2120 O   0  0  0  0  0  0  0  0  0  0  0  0
  127.9910  127.9110   67.7630 C   0  0  0  0  0  0  0  0  0  0  0  0
  127.8700  128.5940   66.3950 C   0  0  0  0  0  0  0  0  0  0  0  0
  126.5090  128.5640   65.9880 O   0  0  0  0  0  0  0  0  0  0  0  0
  125.9860  129.8380   65.6350 C   0  0  0  0  0  0  0  0  0  0  0  0
  126.0920  130.0370   64.1150 C   0  0  0  0  0  0  0  0  0  0  0  0
  126.7560  128.9100   63.4590 N   0  0  0  0  0  0  0  0  0  0  0  0
  127.4350  128.9630   62.2940 C   0  0  0  0  0  0  0  0  0  0  0  0
  127.5910  130.0090   61.6620 O   0  0  0  0  0  0  0  0  0  0  0  0
  127.9930  127.6950   61.8220 C   0  0  0  0  0  0  0  0  0  0  0  0
  129.6330  127.2310   62.2700 S   0  0  0  0  0  0  0  0  0  0  0  0
  129.4800  125.7110   61.4200 C   0  0  0  0  0  0  0  0  0  0  0  0
  130.4770  124.8310   61.3850 N   0  0  0  0  0  0  0  0  0  0  0  0
  130.2660  123.6780   60.6980 C   0  0  0  0  0  0  0  0  0  0  0  0
  131.4040  122.6980   60.6930 C   0  0  0  0  0  0  0  0  0  0  0  0
  131.1880  121.3470   60.3800 C   0  0  0  0  0  0  0  0  0  0  0  0
  132.2390  120.4320   60.3760 C   0  0  0  0  0  0  0  0  0  0  0  0
  133.5260  120.8590   60.6860 C   0  0  0  0  0  0  0  0  0  0  0  0
  133.7690  122.1930   60.9950 C   0  0  0  0  0  0  0  0  0  0  0  0
  132.7150  123.1040   60.9970 C   0  0  0  0  0  0  0  0  0  0  0  0
  129.0510  123.4110   60.0580 C   0  0  0  0  0  0  0  0  0  0  0  0
  127.9930  124.3320   60.0870 C   0  0  0  0  0  0  0  0  0  0  0  0
  126.6900  123.9770   59.3610 C   0  0  0  0  0  0  0  0  0  0  0  0
  125.6750  123.7390   60.1920 F   0  0  0  0  0  0  0  0  0  0  0  0
  126.3290  124.9840   58.5660 F   0  0  0  0  0  0  0  0  0  0  0  0
  126.8700  122.8790   58.6260 F   0  0  0  0  0  0  0  0  0  0  0  0
  128.2050  125.5460   60.8030 C   0  0  0  0  0  0  0  0  0  0  0  0
  127.3710  126.6970   61.0570 C   0  0  0  0  0  0  0  0  0  0  0  0
  126.0870  126.8020   60.5870 N   0  0  0  0  0  0  0  0  0  0  0  0
  127.4533  128.1420   72.2765 H   0  0  0  0  0  0  0  0  0  0  0  0
  128.0316  128.8501   70.7303 H   0  0  0  0  0  0  0  0  0  0  0  0
  127.1758  127.2708   70.7303 H   0  0  0  0  0  0  0  0  0  0  0  0
  130.1046  128.7029   70.3643 H   0  0  0  0  0  0  0  0  0  0  0  0
  131.0744  127.2523   70.7780 H   0  0  0  0  0  0  0  0  0  0  0  0
  130.5616  126.4161   68.7232 H   0  0  0  0  0  0  0  0  0  0  0  0
  128.8568  126.2841   69.2633 H   0  0  0  0  0  0  0  0  0  0  0  0
  127.7037  126.8530   67.6729 H   0  0  0  0  0  0  0  0  0  0  0  0
  127.3255  128.4074   68.4846 H   0  0  0  0  0  0  0  0  0  0  0  0
  128.2104  129.6372   66.4711 H   0  0  0  0  0  0  0  0  0  0  0  0
  128.4928  128.0669   65.6573 H   0  0  0  0  0  0  0  0  0  0  0  0
  124.9305  129.8972   65.9390 H   0  0  0  0  0  0  0  0  0  0  0  0
  126.5618  130.6232   66.1467 H   0  0  0  0  0  0  0  0  0  0  0  0
  125.0791  130.1431   63.6994 H   0  0  0  0  0  0  0  0  0  0  0  0
  126.6941  130.9392   63.9319 H   0  0  0  0  0  0  0  0  0  0  0  0
  126.7460  128.0360   63.9640 H   0  0  0  0  0  0  0  0  0  0  0  0
  130.1720  121.0047   60.1337 H   0  0  0  0  0  0  0  0  0  0  0  0
  132.0517  119.3766   60.1288 H   0  0  0  0  0  0  0  0  0  0  0  0
  134.3563  120.1374   60.6868 H   0  0  0  0  0  0  0  0  0  0  0  0
  134.7887  122.5273   61.2367 H   0  0  0  0  0  0  0  0  0  0  0  0
  132.9119  124.1585   61.2405 H   0  0  0  0  0  0  0  0  0  0  0  0
  128.9225  122.4596   59.5211 H   0  0  0  0  0  0  0  0  0  0  0  0
  125.3780  126.1170   60.8050 H   0  0  0  0  0  0  0  0  0  0  0  0
  125.8030  127.5800   60.0060 H   0  0  0  0  0  0  0  0  0  0  0  0
  1  2  1  0
  2  3  1  0
  3  4  1  0
  4  5  1  0
  5  6  1  0
  6  7  1  0
  7  8  1  0
  8  9  1  0
  9 10  1  0
 10 11  1  0
 11 12  1  0
 12 13  2  0
 12 14  1  0
 14 15  1  0
 15 16  1  0
 16 17  2  0
 17 18  1  0
 18 19  1  0
 19 20  2  0
 20 21  1  0
 21 22  2  0
 22 23  1  0
 23 24  2  0
 18 25  2  0
 25 26  1  0
 26 27  1  0
 27 28  1  0
 27 29  1  0
 27 30  1  0
 26 31  2  0
 31 32  1  0
 32 33  1  0
 32 14  2  0
 31 16  1  0
 24 19  1  0
  1 34  1  0
  1 35  1  0
  1 36  1  0
  3 37  1  0
  3 38  1  0
  4 39  1  0
  4 40  1  0
  6 41  1  0
  6 42  1  0
  7 43  1  0
  7 44  1  0
  9 45  1  0
  9 46  1  0
 10 47  1  0
 10 48  1  0
 11 49  1  0
 20 50  1  0
 21 51  1  0
 22 52  1  0
 23 53  1  0
 24 54  1  0
 25 55  1  0
 33 56  1  0
 33 57  1  0
M  END
>  <Binding energies>  (1) 
[-5.53]

>  <Ligand effiencies>  (1) 
[-0.15361111111111111]

>  <Interactions>  (1) 
["V-B:ARG:545:CZ:9898, V-A:HIS:456:CE1:4068, V-B:GLU:543:CD:9880, V-A:GLU:543:CD:4906, V-B:HIS:456:CE1:9042, V-A:GLY:544:CA:4912, V-B:GLY:544:C:9884, V-A:GLY:544:C:4910, H-B:ARG:545:NE:9896, V-B:HIS:456:CD2:9040, V-A:GLU:543:CB:4904, V-B:GLU:543:CG:9879, V-A:GLU:543:CG:4905, V-A:GLU:543:C:4900, V-B:PRO:540:C:9853, V-A:TRP:381:CZ2:3368, V-A:ILE:369:CD1:3237, V-A:LEU:475:CD2:4257, V-A:TRP:381:CH2:3370, V-B:PRO:540:CA:9855, V-B:TYR:539:C:9839, V-B:TYR:539:CD2:9846, V-B:TYR:539:CE2:9848, V-A:ILE:369:CG2:3235, V-B:PRO:540:N:9856, V-B:PRO:540:CB:9857, V-B:ASP:366:CG:8185, V-B:TYR:484:CZ:9319, V-B:HIS:456:CG:9038, H-B:GLU:543:OE2:9882, H-B:ASP:366:OD2:8187, H-B:ASP:366:OD1:8186"]

$$$$
4dd_Grossjean_2025
     RDKit          3D

 43 46  0  0  0  0  0  0  0  0999 V2000
  126.4560  123.1370   57.1410 C   0  0  0  0  0  0  0  0  0  0  0  0
  127.4690  123.6540   58.1510 C   0  0  0  0  0  0  0  0  0  0  0  0
  128.5230  122.8090   58.5200 C   0  0  0  0  0  0  0  0  0  0  0  0
  129.4890  123.2260   59.4440 C   0  0  0  0  0  0  0  0  0  0  0  0
  130.6260  122.3410   59.8620 C   0  0  0  0  0  0  0  0  0  0  0  0
  130.3870  121.0470   60.3550 C   0  0  0  0  0  0  0  0  0  0  0  0
  131.4380  120.2190   60.7420 C   0  0  0  0  0  0  0  0  0  0  0  0
  132.7470  120.6750   60.6430 C   0  0  0  0  0  0  0  0  0  0  0  0
  133.0130  121.9510   60.1570 C   0  0  0  0  0  0  0  0  0  0  0  0
  131.9600  122.7750   59.7690 C   0  0  0  0  0  0  0  0  0  0  0  0
  129.4420  124.4540   60.0290 N   0  0  0  0  0  0  0  0  0  0  0  0
  128.4430  125.2610   59.6740 C   0  0  0  0  0  0  0  0  0  0  0  0
  128.2720  126.8720   60.3340 S   0  0  0  0  0  0  0  0  0  0  0  0
  126.8180  127.1610   59.3760 C   0  0  0  0  0  0  0  0  0  0  0  0
  126.1210  128.4460   59.4560 C   0  0  0  0  0  0  0  0  0  0  0  0
  125.7970  129.0490   58.4320 O   0  0  0  0  0  0  0  0  0  0  0  0
  125.8670  128.8920   60.7110 N   0  0  0  0  0  0  0  0  0  0  0  0
  125.2720  130.0950   61.1310 C   0  0  0  0  0  0  0  0  0  0  0  0
  125.1600  130.2700   62.5140 C   0  0  0  0  0  0  0  0  0  0  0  0
  124.5970  131.4350   63.0300 C   0  0  0  0  0  0  0  0  0  0  0  0
  124.1530  132.4290   62.1640 C   0  0  0  0  0  0  0  0  0  0  0  0
  124.2700  132.2730   60.7850 C   0  0  0  0  0  0  0  0  0  0  0  0
  124.8320  131.1100   60.2650 C   0  0  0  0  0  0  0  0  0  0  0  0
  126.4990  126.0410   58.5920 C   0  0  0  0  0  0  0  0  0  0  0  0
  125.4150  125.9820   57.7510 N   0  0  0  0  0  0  0  0  0  0  0  0
  127.4150  124.9420   58.7430 C   0  0  0  0  0  0  0  0  0  0  0  0
  125.5984  122.6993   57.6730 H   0  0  0  0  0  0  0  0  0  0  0  0
  126.1102  123.9689   56.5098 H   0  0  0  0  0  0  0  0  0  0  0  0
  126.9268  122.3689   56.5098 H   0  0  0  0  0  0  0  0  0  0  0  0
  128.5930  121.8041   58.0780 H   0  0  0  0  0  0  0  0  0  0  0  0
  129.3526  120.6819   60.4366 H   0  0  0  0  0  0  0  0  0  0  0  0
  131.2327  119.2083   61.1244 H   0  0  0  0  0  0  0  0  0  0  0  0
  133.5778  120.0230   60.9508 H   0  0  0  0  0  0  0  0  0  0  0  0
  134.0508  122.3074   60.0796 H   0  0  0  0  0  0  0  0  0  0  0  0
  132.1754  123.7824   59.3833 H   0  0  0  0  0  0  0  0  0  0  0  0
  126.1280  128.2720   61.4630 H   0  0  0  0  0  0  0  0  0  0  0  0
  125.5177  129.4851   63.1966 H   0  0  0  0  0  0  0  0  0  0  0  0
  124.5039  131.5684   64.1179 H   0  0  0  0  0  0  0  0  0  0  0  0
  123.7052  133.3470   62.5723 H   0  0  0  0  0  0  0  0  0  0  0  0
  123.9194  133.0664   60.1085 H   0  0  0  0  0  0  0  0  0  0  0  0
  124.9314  130.9860   59.1765 H   0  0  0  0  0  0  0  0  0  0  0  0
  124.4750  126.1590   58.0780 H   0  0  0  0  0  0  0  0  0  0  0  0
  125.5240  125.7610   56.7720 H   0  0  0  0  0  0  0  0  0  0  0  0
  1  2  1  0
  2  3  2  0
  3  4  1  0
  4  5  1  0
  5  6  2  0
  6  7  1  0
  7  8  2  0
  8  9  1  0
  9 10  2  0
  4 11  2  0
 11 12  1  0
 12 13  1  0
 13 14  1  0
 14 15  1  0
 15 16  2  0
 15 17  1  0
 17 18  1  0
 18 19  2  0
 19 20  1  0
 20 21  2  0
 21 22  1  0
 22 23  2  0
 14 24  2  0
 24 25  1  0
 24 26  1  0
 26  2  1  0
 10  5  1  0
 26 12  2  0
 23 18  1  0
  1 27  1  0
  1 28  1  0
  1 29  1  0
  3 30  1  0
  6 31  1  0
  7 32  1  0
  8 33  1  0
  9 34  1  0
 10 35  1  0
 17 36  1  0
 19 37  1  0
 20 38  1  0
 21 39  1  0
 22 40  1  0
 23 41  1  0
 25 42  1  0
 25 43  1  0
M  END
>  <Binding energies>  (1) 
[-6.23]

>  <Ligand effiencies>  (1) 
[-0.21482758620689657]

>  <Interactions>  (1) 
["V-A:TRP:381:CZ2:3368, V-A:LEU:475:CD2:4257, V-A:TRP:381:CH2:3370, V-B:PRO:540:CA:9855, V-B:TYR:539:C:9839, V-B:PRO:540:CD:9859, V-B:ALA:541:CB:9864, V-B:TYR:539:CD2:9846, V-B:TYR:539:CE2:9848, V-A:ILE:369:CG2:3235, V-B:PRO:540:N:9856, V-B:ASP:366:CG:8185, V-B:ILE:369:CD1:8211, V-B:ILE:369:CG2:8209, V-B:GLY:454:CA:9021, V-B:ASP:366:CB:8184, H-B:TYR:531:OH:9767, H-B:ASP:366:OD2:8187, V-B:TYR:531:CZ:9766, H-B:ASP:366:OD1:8186"]

$$$$
4dg_Grossjean_2025
     RDKit          3D

 46 49  0  0  0  0  0  0  0  0999 V2000
  126.5970  123.9060   59.5040 C   0  0  0  0  0  0  0  0  0  0  0  0
  127.9300  124.2060   60.1740 C   0  0  0  0  0  0  0  0  0  0  0  0
  128.9420  123.2420   60.0900 C   0  0  0  0  0  0  0  0  0  0  0  0
  130.1910  123.4570   60.6850 C   0  0  0  0  0  0  0  0  0  0  0  0
  131.2970  122.4420   60.6100 C   0  0  0  0  0  0  0  0  0  0  0  0
  132.6400  122.8280   60.7500 C   0  0  0  0  0  0  0  0  0  0  0  0
  133.6700  121.8920   60.6780 C   0  0  0  0  0  0  0  0  0  0  0  0
  133.3690  120.5520   60.4640 C   0  0  0  0  0  0  0  0  0  0  0  0
  132.0480  120.1410   60.3180 C   0  0  0  0  0  0  0  0  0  0  0  0
  131.0230  121.0800   60.3900 C   0  0  0  0  0  0  0  0  0  0  0  0
  130.4820  124.6090   61.3490 N   0  0  0  0  0  0  0  0  0  0  0  0
  129.5190  125.5260   61.4300 C   0  0  0  0  0  0  0  0  0  0  0  0
  129.7570  127.0460   62.2600 S   0  0  0  0  0  0  0  0  0  0  0  0
  128.1140  127.5610   61.8810 C   0  0  0  0  0  0  0  0  0  0  0  0
  127.6160  128.8470   62.3670 C   0  0  0  0  0  0  0  0  0  0  0  0
  127.5660  129.8350   61.6320 O   0  0  0  0  0  0  0  0  0  0  0  0
  127.2570  128.8860   63.6670 N   0  0  0  0  0  0  0  0  0  0  0  0
  126.7130  130.0530   64.3600 C   0  0  0  0  0  0  0  0  0  0  0  0
  125.6570  130.7990   63.5520 C   0  0  0  0  0  0  0  0  0  0  0  0
  124.5930  130.0950   62.9810 C   0  0  0  0  0  0  0  0  0  0  0  0
  123.6100  130.7770   62.2700 C   0  0  0  0  0  0  0  0  0  0  0  0
  123.6880  132.1620   62.1400 C   0  0  0  0  0  0  0  0  0  0  0  0
  124.7360  132.8720   62.7200 C   0  0  0  0  0  0  0  0  0  0  0  0
  125.7190  132.1910   63.4340 C   0  0  0  0  0  0  0  0  0  0  0  0
  127.4260  126.5760   61.1570 C   0  0  0  0  0  0  0  0  0  0  0  0
  126.1250  126.7040   60.7410 N   0  0  0  0  0  0  0  0  0  0  0  0
  128.2130  125.4060   60.8760 C   0  0  0  0  0  0  0  0  0  0  0  0
  125.8304  123.7335   60.2737 H   0  0  0  0  0  0  0  0  0  0  0  0
  126.3013  124.7601   58.8770 H   0  0  0  0  0  0  0  0  0  0  0  0
  126.6957  123.0076   58.8770 H   0  0  0  0  0  0  0  0  0  0  0  0
  128.7532  122.3029   59.5492 H   0  0  0  0  0  0  0  0  0  0  0  0
  132.8831  123.8873   60.9194 H   0  0  0  0  0  0  0  0  0  0  0  0
  134.7164  122.2122   60.7900 H   0  0  0  0  0  0  0  0  0  0  0  0
  134.1807  119.8116   60.4097 H   0  0  0  0  0  0  0  0  0  0  0  0
  131.8148  119.0798   60.1466 H   0  0  0  0  0  0  0  0  0  0  0  0
  129.9799  120.7510   60.2727 H   0  0  0  0  0  0  0  0  0  0  0  0
  127.2500  128.0200   64.1860 H   0  0  0  0  0  0  0  0  0  0  0  0
  126.2576  129.7174   65.3034 H   0  0  0  0  0  0  0  0  0  0  0  0
  127.5474  130.7503   64.5262 H   0  0  0  0  0  0  0  0  0  0  0  0
  124.5326  129.0024   63.0935 H   0  0  0  0  0  0  0  0  0  0  0  0
  122.7754  130.2252   61.8128 H   0  0  0  0  0  0  0  0  0  0  0  0
  122.9138  132.7001   61.5734 H   0  0  0  0  0  0  0  0  0  0  0  0
  124.7873  133.9658   62.6148 H   0  0  0  0  0  0  0  0  0  0  0  0
  126.5431  132.7474   63.9045 H   0  0  0  0  0  0  0  0  0  0  0  0
  125.7550  127.5800   60.4040 H   0  0  0  0  0  0  0  0  0  0  0  0
  125.4920  125.9150   60.7520 H   0  0  0  0  0  0  0  0  0  0  0  0
  1  2  1  0
  2  3  2  0
  3  4  1  0
  4  5  1  0
  5  6  2  0
  6  7  1  0
  7  8  2  0
  8  9  1  0
  9 10  2  0
  4 11  2  0
 11 12  1  0
 12 13  1  0
 13 14  1  0
 14 15  1  0
 15 16  2  0
 15 17  1  0
 17 18  1  0
 18 19  1  0
 19 20  2  0
 20 21  1  0
 21 22  2  0
 22 23  1  0
 23 24  2  0
 14 25  2  0
 25 26  1  0
 25 27  1  0
 27  2  1  0
 10  5  1  0
 27 12  2  0
 24 19  1  0
  1 28  1  0
  1 29  1  0
  1 30  1  0
  3 31  1  0
  6 32  1  0
  7 33  1  0
  8 34  1  0
  9 35  1  0
 10 36  1  0
 17 37  1  0
 18 38  1  0
 18 39  1  0
 20 40  1  0
 21 41  1  0
 22 42  1  0
 23 43  1  0
 24 44  1  0
 26 45  1  0
 26 46  1  0
M  END
>  <Binding energies>  (1) 
[-7.17]

>  <Ligand effiencies>  (1) 
[-0.239]

>  <Interactions>  (1) 
["V-B:ARG:545:CZ:9898, V-B:GLY:453:CA:9016, V-B:GLU:543:CD:9880, V-A:GLU:543:CD:4906, H-B:GLU:543:OE1:9881, V-A:TRP:381:CZ2:3368, V-A:ILE:369:CD1:3237, V-A:LEU:475:CD2:4257, V-A:TRP:381:CH2:3370, V-B:PRO:540:CA:9855, V-B:TYR:539:CD2:9846, V-B:TYR:539:CE2:9848, V-A:ILE:369:CG2:3235, V-B:LEU:475:CD2:9231, V-B:ASP:366:CG:8185, V-B:ILE:369:CD1:8211, V-B:GLY:454:CA:9021, H-A:GLU:543:OE2:4908, H-A:GLU:543:OE1:4907, H-B:GLU:543:OE2:9882, H-B:ASP:366:OD2:8187, H-B:ASP:366:OD1:8186"]

$$$$
4dj_Grossjean_2025
     RDKit          3D

 39 42  0  0  0  0  0  0  0  0999 V2000
  126.9920  123.1630   59.4070 C   0  0  0  0  0  0  0  0  0  0  0  0
  128.2450  123.7170   60.0680 C   0  0  0  0  0  0  0  0  0  0  0  0
  129.3610  122.8790   60.1730 C   0  0  0  0  0  0  0  0  0  0  0  0
  130.5440  123.3270   60.7730 C   0  0  0  0  0  0  0  0  0  0  0  0
  131.7590  122.4520   60.8950 C   0  0  0  0  0  0  0  0  0  0  0  0
  131.8360  121.2270   60.2130 C   0  0  0  0  0  0  0  0  0  0  0  0
  132.9590  120.4110   60.3220 C   0  0  0  0  0  0  0  0  0  0  0  0
  134.0250  120.8090   61.1220 C   0  0  0  0  0  0  0  0  0  0  0  0
  133.9750  122.0150   61.8120 C   0  0  0  0  0  0  0  0  0  0  0  0
  132.8510  122.8280   61.6990 C   0  0  0  0  0  0  0  0  0  0  0  0
  130.6680  124.5920   61.2600 N   0  0  0  0  0  0  0  0  0  0  0  0
  129.6060  125.3910   61.1610 C   0  0  0  0  0  0  0  0  0  0  0  0
  129.6250  127.0370   61.7530 S   0  0  0  0  0  0  0  0  0  0  0  0
  127.9560  127.2910   61.2380 C   0  0  0  0  0  0  0  0  0  0  0  0
  127.2980  128.5780   61.4680 C   0  0  0  0  0  0  0  0  0  0  0  0
  127.2220  129.4170   60.5660 O   0  0  0  0  0  0  0  0  0  0  0  0
  126.8050  128.7660   62.7170 N   0  0  0  0  0  0  0  0  0  0  0  0
  126.1440  129.8900   63.1920 C   0  0  0  0  0  0  0  0  0  0  0  0
  125.0020  129.9400   63.8440 N   0  0  0  0  0  0  0  0  0  0  0  0
  124.6690  131.1800   64.1450 C   0  0  0  0  0  0  0  0  0  0  0  0
  125.5550  132.1720   63.7350 C   0  0  0  0  0  0  0  0  0  0  0  0
  126.8930  131.4290   62.9110 S   0  0  0  0  0  0  0  0  0  0  0  0
  127.4300  126.1350   60.6400 C   0  0  0  0  0  0  0  0  0  0  0  0
  126.1520  126.0440   60.1490 N   0  0  0  0  0  0  0  0  0  0  0  0
  128.3550  125.0350   60.5820 C   0  0  0  0  0  0  0  0  0  0  0  0
  126.2778  122.8472   60.1817 H   0  0  0  0  0  0  0  0  0  0  0  0
  126.5329  123.9420   58.7806 H   0  0  0  0  0  0  0  0  0  0  0  0
  127.2592  122.2991   58.7806 H   0  0  0  0  0  0  0  0  0  0  0  0
  129.3079  121.8536   59.7784 H   0  0  0  0  0  0  0  0  0  0  0  0
  130.9943  120.9063   59.5815 H   0  0  0  0  0  0  0  0  0  0  0  0
  133.0029  119.4560   59.7779 H   0  0  0  0  0  0  0  0  0  0  0  0
  134.9130  120.1657   61.2093 H   0  0  0  0  0  0  0  0  0  0  0  0
  134.8199  122.3252   62.4443 H   0  0  0  0  0  0  0  0  0  0  0  0
  132.8156  123.7808   62.2476 H   0  0  0  0  0  0  0  0  0  0  0  0
  126.9300  128.0170   63.3820 H   0  0  0  0  0  0  0  0  0  0  0  0
  123.7431  131.4170   64.6895 H   0  0  0  0  0  0  0  0  0  0  0  0
  125.4289  133.2515   63.9049 H   0  0  0  0  0  0  0  0  0  0  0  0
  125.9390  126.2240   59.1790 H   0  0  0  0  0  0  0  0  0  0  0  0
  125.3770  125.7920   60.7470 H   0  0  0  0  0  0  0  0  0  0  0  0
  1  2  1  0
  2  3  2  0
  3  4  1  0
  4  5  1  0
  5  6  2  0
  6  7  1  0
  7  8  2  0
  8  9  1  0
  9 10  2  0
  4 11  2  0
 11 12  1  0
 12 13  1  0
 13 14  1  0
 14 15  1  0
 15 16  2  0
 15 17  1  0
 17 18  1  0
 18 19  2  0
 19 20  1  0
 20 21  2  0
 21 22  1  0
 14 23  2  0
 23 24  1  0
 23 25  1  0
 25  2  1  0
 10  5  1  0
 25 12  2  0
 22 18  1  0
  1 26  1  0
  1 27  1  0
  1 28  1  0
  3 29  1  0
  6 30  1  0
  7 31  1  0
  8 32  1  0
  9 33  1  0
 10 34  1  0
 17 35  1  0
 20 36  1  0
 21 37  1  0
 24 38  1  0
 24 39  1  0
M  END
>  <Binding energies>  (1) 
[-5.91]

>  <Ligand effiencies>  (1) 
[-0.21107142857142858]

>  <Interactions>  (1) 
["V-B:ARG:545:CZ:9898, H-B:ARG:545:NE:9896, V-B:PRO:540:C:9853, V-A:TRP:381:CZ2:3368, V-A:ILE:369:CD1:3237, V-A:LEU:475:CD2:4257, V-A:TRP:381:CH2:3370, V-B:PRO:540:CA:9855, V-B:TYR:539:C:9839, V-A:GLY:454:CA:4047, V-B:TYR:539:CD2:9846, V-B:TYR:539:CE2:9848, V-A:ILE:369:CG2:3235, V-B:PRO:540:N:9856, V-B:PRO:540:CB:9857, V-B:LEU:475:CD2:9231, V-B:ASP:366:CG:8185, H-B:ARG:545:NH2:9900, V-B:GLY:454:CA:9021, H-B:GLU:543:OE2:9882, H-B:ASP:366:OD2:8187, V-A:SER:385:C:3403"]

$$$$
4ea_Grossjean_2025
     RDKit          3D

 52 55  0  0  0  0  0  0  0  0999 V2000
  130.8080  126.2080   72.6350 C   0  0  0  0  0  0  0  0  0  0  0  0
  129.4730  125.8100   71.9990 C   0  0  0  0  0  0  0  0  0  0  0  0
  128.6190  126.9460   71.9430 O   0  0  0  0  0  0  0  0  0  0  0  0
  128.9070  128.0010   71.1370 C   0  0  0  0  0  0  0  0  0  0  0  0
  128.9920  129.1630   71.5440 O   0  0  0  0  0  0  0  0  0  0  0  0
  129.1100  127.6120   69.7010 C   0  0  0  0  0  0  0  0  0  0  0  0
  130.4100  127.5700   69.1820 C   0  0  0  0  0  0  0  0  0  0  0  0
  130.6320  127.2140   67.8550 C   0  0  0  0  0  0  0  0  0  0  0  0
  129.5620  126.8920   67.0200 C   0  0  0  0  0  0  0  0  0  0  0  0
  129.9060  126.5470   65.6990 N   0  0  0  0  0  0  0  0  0  0  0  0
  130.6300  125.5040   65.2230 C   0  0  0  0  0  0  0  0  0  0  0  0
  131.1370  124.6320   65.9300 O   0  0  0  0  0  0  0  0  0  0  0  0
  130.7860  125.4650   63.7670 C   0  0  0  0  0  0  0  0  0  0  0  0
  130.2380  126.8170   62.7730 S   0  0  0  0  0  0  0  0  0  0  0  0
  130.7570  126.0150   61.3090 C   0  0  0  0  0  0  0  0  0  0  0  0
  130.6050  126.5740   60.1070 N   0  0  0  0  0  0  0  0  0  0  0  0
  131.0490  125.8470   59.0520 C   0  0  0  0  0  0  0  0  0  0  0  0
  130.8670  126.5010   57.6950 C   0  0  0  0  0  0  0  0  0  0  0  0
  131.6350  124.5890   59.1690 C   0  0  0  0  0  0  0  0  0  0  0  0
  131.7930  124.0070   60.4310 C   0  0  0  0  0  0  0  0  0  0  0  0
  132.4170  122.6690   60.5390 C   0  0  0  0  0  0  0  0  0  0  0  0
  131.7140  121.5300   60.1320 C   0  0  0  0  0  0  0  0  0  0  0  0
  132.3020  120.2720   60.2310 C   0  0  0  0  0  0  0  0  0  0  0  0
  133.5920  120.1520   60.7420 C   0  0  0  0  0  0  0  0  0  0  0  0
  134.3000  121.2790   61.1540 C   0  0  0  0  0  0  0  0  0  0  0  0
  133.7110  122.5360   61.0540 C   0  0  0  0  0  0  0  0  0  0  0  0
  131.3390  124.7360   61.5640 C   0  0  0  0  0  0  0  0  0  0  0  0
  131.3430  124.4480   62.9750 C   0  0  0  0  0  0  0  0  0  0  0  0
  131.8510  123.2780   63.4810 N   0  0  0  0  0  0  0  0  0  0  0  0
  128.2550  126.9310   67.5320 C   0  0  0  0  0  0  0  0  0  0  0  0
  128.0350  127.2870   68.8590 C   0  0  0  0  0  0  0  0  0  0  0  0
  130.7149  126.1802   73.7307 H   0  0  0  0  0  0  0  0  0  0  0  0
  131.5906  125.5041   72.3156 H   0  0  0  0  0  0  0  0  0  0  0  0
  131.0774  127.2255   72.3156 H   0  0  0  0  0  0  0  0  0  0  0  0
  129.6495  125.4330   70.9808 H   0  0  0  0  0  0  0  0  0  0  0  0
  128.9983  125.0230   72.6033 H   0  0  0  0  0  0  0  0  0  0  0  0
  131.2635  127.8207   69.8291 H   0  0  0  0  0  0  0  0  0  0  0  0
  131.6589  127.1863   67.4617 H   0  0  0  0  0  0  0  0  0  0  0  0
  129.5500  127.1860   65.0030 H   0  0  0  0  0  0  0  0  0  0  0  0
  130.5744  127.5526   57.8311 H   0  0  0  0  0  0  0  0  0  0  0  0
  131.8126  126.4531   57.1351 H   0  0  0  0  0  0  0  0  0  0  0  0
  130.0821  125.9715   57.1351 H   0  0  0  0  0  0  0  0  0  0  0  0
  131.9733  124.0536   58.2696 H   0  0  0  0  0  0  0  0  0  0  0  0
  130.6938  121.6287   59.7327 H   0  0  0  0  0  0  0  0  0  0  0  0
  131.7504  119.3771   59.9072 H   0  0  0  0  0  0  0  0  0  0  0  0
  134.0563  119.1579   60.8211 H   0  0  0  0  0  0  0  0  0  0  0  0
  135.3187  121.1759   61.5560 H   0  0  0  0  0  0  0  0  0  0  0  0
  134.2649  123.4283   61.3811 H   0  0  0  0  0  0  0  0  0  0  0  0
  132.2040  122.5460   62.8800 H   0  0  0  0  0  0  0  0  0  0  0  0
  131.8880  123.1080   64.4770 H   0  0  0  0  0  0  0  0  0  0  0  0
  127.4034  126.6796   66.8827 H   0  0  0  0  0  0  0  0  0  0  0  0
  127.0081  127.3140   69.2523 H   0  0  0  0  0  0  0  0  0  0  0  0
  1  2  1  0
  2  3  1  0
  3  4  1  0
  4  5  2  0
  4  6  1  0
  6  7  2  0
  7  8  1  0
  8  9  2  0
  9 10  1  0
 10 11  1  0
 11 12  2  0
 11 13  1  0
 13 14  1  0
 14 15  1  0
 15 16  2  0
 16 17  1  0
 17 18  1  0
 17 19  2  0
 19 20  1  0
 20 21  1  0
 21 22  2  0
 22 23  1  0
 23 24  2  0
 24 25  1  0
 25 26  2  0
 20 27  2  0
 27 28  1  0
 28 29  1  0
  9 30  1  0
 30 31  2  0
 31  6  1  0
 28 13  2  0
 27 15  1  0
 26 21  1  0
  1 32  1  0
  1 33  1  0
  1 34  1  0
  2 35  1  0
  2 36  1  0
  7 37  1  0
  8 38  1  0
 10 39  1  0
 18 40  1  0
 18 41  1  0
 18 42  1  0
 19 43  1  0
 22 44  1  0
 23 45  1  0
 24 46  1  0
 25 47  1  0
 26 48  1  0
 29 49  1  0
 29 50  1  0
 30 51  1  0
 31 52  1  0
M  END
>  <Binding energies>  (1) 
[-7.3]

>  <Ligand effiencies>  (1) 
[-0.21470588235294116]

>  <Interactions>  (1) 
["V-B:GLU:543:CB:9878, V-A:HIS:456:CE1:4068, V-A:HIS:456:CD2:4066, V-B:GLU:543:CD:9880, V-A:GLU:543:CD:4906, V-B:HIS:456:CE1:9042, V-A:GLY:544:C:4910, V-B:HIS:456:CD2:9040, V-B:GLU:543:CG:9879, V-A:GLU:543:CG:4905, V-B:GLU:543:C:9874, V-A:ARG:545:CG:4920, H-A:TYR:484:OH:4346, V-A:HIS:456:CG:4064, V-B:LYS:547:CE:9922, H-B:GLU:543:OE1:9881, V-B:GLY:544:CA:9886, V-A:GLU:543:C:4900, V-A:TRP:381:CZ2:3368, V-A:ILE:369:CD1:3237, V-A:LEU:475:CD2:4257, V-A:TRP:381:CH2:3370, V-A:ASP:366:CG:3211, V-A:GLY:454:CA:4047, V-B:TYR:539:CD2:9846, V-B:TYR:539:CE2:9848, V-A:ILE:369:CG2:3235, V-A:ILE:369:CG1:3236, H-A:GLU:543:OE2:4908, H-A:GLU:543:OE1:4907, H-B:GLU:543:OE2:9882"]

$$$$
4eb_Grossjean_2025
     RDKit          3D

 49 52  0  0  0  0  0  0  0  0999 V2000
  130.1750  126.2160   72.1430 C   0  0  0  0  0  0  0  0  0  0  0  0
  128.9700  126.9440   71.9570 O   0  0  0  0  0  0  0  0  0  0  0  0
  128.9140  127.9960   71.0980 C   0  0  0  0  0  0  0  0  0  0  0  0
  128.7190  129.1590   71.4610 O   0  0  0  0  0  0  0  0  0  0  0  0
  129.1140  127.6010   69.6630 C   0  0  0  0  0  0  0  0  0  0  0  0
  130.4130  127.5530   69.1420 C   0  0  0  0  0  0  0  0  0  0  0  0
  130.6310  127.1910   67.8160 C   0  0  0  0  0  0  0  0  0  0  0  0
  129.5570  126.8690   66.9840 C   0  0  0  0  0  0  0  0  0  0  0  0
  129.8970  126.5180   65.6630 N   0  0  0  0  0  0  0  0  0  0  0  0
  130.6410  125.4870   65.1920 C   0  0  0  0  0  0  0  0  0  0  0  0
  131.1740  124.6350   65.9040 O   0  0  0  0  0  0  0  0  0  0  0  0
  130.7850  125.4340   63.7350 C   0  0  0  0  0  0  0  0  0  0  0  0
  130.2180  126.7730   62.7340 S   0  0  0  0  0  0  0  0  0  0  0  0
  130.7300  125.9600   61.2720 C   0  0  0  0  0  0  0  0  0  0  0  0
  130.5640  126.5060   60.0670 N   0  0  0  0  0  0  0  0  0  0  0  0
  131.0040  125.7730   59.0150 C   0  0  0  0  0  0  0  0  0  0  0  0
  130.8040  126.4130   57.6530 C   0  0  0  0  0  0  0  0  0  0  0  0
  131.6000  124.5210   59.1380 C   0  0  0  0  0  0  0  0  0  0  0  0
  131.7730  123.9520   60.4060 C   0  0  0  0  0  0  0  0  0  0  0  0
  132.4090  122.6190   60.5210 C   0  0  0  0  0  0  0  0  0  0  0  0
  131.7110  121.4720   60.1320 C   0  0  0  0  0  0  0  0  0  0  0  0
  132.3090  120.2180   60.2390 C   0  0  0  0  0  0  0  0  0  0  0  0
  133.6050  120.1130   60.7370 C   0  0  0  0  0  0  0  0  0  0  0  0
  134.3080  121.2500   61.1300 C   0  0  0  0  0  0  0  0  0  0  0  0
  133.7090  122.5020   61.0230 C   0  0  0  0  0  0  0  0  0  0  0  0
  131.3240  124.6890   61.5350 C   0  0  0  0  0  0  0  0  0  0  0  0
  131.3420  124.4150   62.9480 C   0  0  0  0  0  0  0  0  0  0  0  0
  131.8630  123.2540   63.4620 N   0  0  0  0  0  0  0  0  0  0  0  0
  128.2520  126.9140   67.4980 C   0  0  0  0  0  0  0  0  0  0  0  0
  128.0360  127.2770   68.8240 C   0  0  0  0  0  0  0  0  0  0  0  0
  130.3699  126.0983   73.2192 H   0  0  0  0  0  0  0  0  0  0  0  0
  130.0798  125.2242   71.6769 H   0  0  0  0  0  0  0  0  0  0  0  0
  131.0087  126.7616   71.6769 H   0  0  0  0  0  0  0  0  0  0  0  0
  131.2685  127.8036   69.7865 H   0  0  0  0  0  0  0  0  0  0  0  0
  131.6569  127.1583   67.4205 H   0  0  0  0  0  0  0  0  0  0  0  0
  129.5200  127.1400   64.9640 H   0  0  0  0  0  0  0  0  0  0  0  0
  130.4782  127.4557   57.7821 H   0  0  0  0  0  0  0  0  0  0  0  0
  131.7517  126.3914   57.0950 H   0  0  0  0  0  0  0  0  0  0  0  0
  130.0372  125.8556   57.0950 H   0  0  0  0  0  0  0  0  0  0  0  0
  131.9345  123.9795   58.2408 H   0  0  0  0  0  0  0  0  0  0  0  0
  130.6868  121.5596   59.7403 H   0  0  0  0  0  0  0  0  0  0  0  0
  131.7601  119.3157   59.9316 H   0  0  0  0  0  0  0  0  0  0  0  0
  134.0781  119.1235   60.8209 H   0  0  0  0  0  0  0  0  0  0  0  0
  135.3314  121.1587   61.5229 H   0  0  0  0  0  0  0  0  0  0  0  0
  134.2598  123.4019   61.3342 H   0  0  0  0  0  0  0  0  0  0  0  0
  131.9120  123.0890   64.4570 H   0  0  0  0  0  0  0  0  0  0  0  0
  132.2160  122.5220   62.8600 H   0  0  0  0  0  0  0  0  0  0  0  0
  127.3983  126.6619   66.8517 H   0  0  0  0  0  0  0  0  0  0  0  0
  127.0099  127.3104   69.2189 H   0  0  0  0  0  0  0  0  0  0  0  0
  1  2  1  0
  2  3  1  0
  3  4  2  0
  3  5  1  0
  5  6  2  0
  6  7  1  0
  7  8  2  0
  8  9  1  0
  9 10  1  0
 10 11  2  0
 10 12  1  0
 12 13  1  0
 13 14  1  0
 14 15  2  0
 15 16  1  0
 16 17  1  0
 16 18  2  0
 18 19  1  0
 19 20  1  0
 20 21  2  0
 21 22  1  0
 22 23  2  0
 23 24  1  0
 24 25  2  0
 19 26  2  0
 26 27  1  0
 27 28  1  0
  8 29  1  0
 29 30  2  0
 30  5  1  0
 27 12  2  0
 26 14  1  0
 25 20  1  0
  1 31  1  0
  1 32  1  0
  1 33  1  0
  6 34  1  0
  7 35  1  0
  9 36  1  0
 17 37  1  0
 17 38  1  0
 17 39  1  0
 18 40  1  0
 21 41  1  0
 22 42  1  0
 23 43  1  0
 24 44  1  0
 25 45  1  0
 28 46  1  0
 28 47  1  0
 29 48  1  0
 30 49  1  0
M  END
>  <Binding energies>  (1) 
[-7.11]

>  <Ligand effiencies>  (1) 
[-0.21545454545454545]

>  <Interactions>  (1) 
["V-B:GLU:543:CB:9878, V-A:HIS:456:CE1:4068, V-A:HIS:456:CD2:4066, V-B:GLU:543:CD:9880, V-A:GLU:543:CD:4906, V-B:HIS:456:CE1:9042, V-A:GLY:544:C:4910, V-B:HIS:456:CD2:9040, V-B:GLU:543:CG:9879, V-A:GLU:543:CG:4905, V-B:GLU:543:C:9874, V-A:ARG:545:CG:4920, H-A:TYR:484:OH:4346, V-A:HIS:456:CG:4064, H-B:GLU:543:OE1:9881, V-A:GLU:543:C:4900, V-A:TRP:381:CZ2:3368, V-A:ILE:369:CD1:3237, V-A:LEU:475:CD2:4257, V-A:TRP:381:CH2:3370, V-A:ASP:366:CG:3211, V-A:GLY:454:CA:4047, V-B:TYR:539:CD2:9846, V-B:TYR:539:CE2:9848, V-A:ILE:369:CG2:3235, V-A:ILE:369:CG1:3236, H-A:GLU:543:OE2:4908, H-A:GLU:543:OE1:4907, H-B:GLU:543:OE2:9882, V-A:SER:385:C:3403"]

$$$$
8a_Ghoteimi_2023
     RDKit          3D

 67 71  0  0  0  0  0  0  0  0999 V2000
  130.2100  124.2040   56.2940 C   0  0  0  0  0  0  0  0  0  0  0  0
  130.9850  125.5240   56.3450 C   0  0  0  0  0  0  0  0  0  0  0  0
  132.3800  125.2560   56.2780 O   0  0  0  0  0  0  0  0  0  0  0  0
  133.0400  124.7130   57.3350 C   0  0  0  0  0  0  0  0  0  0  0  0
  134.0190  123.9700   57.2150 O   0  0  0  0  0  0  0  0  0  0  0  0
  132.4580  125.1020   58.6630 C   0  0  0  0  0  0  0  0  0  0  0  0
  132.9620  124.5130   59.8290 C   0  0  0  0  0  0  0  0  0  0  0  0
  132.4420  124.8520   61.0750 C   0  0  0  0  0  0  0  0  0  0  0  0
  131.4080  125.7840   61.1820 C   0  0  0  0  0  0  0  0  0  0  0  0
  130.9590  126.0440   62.4920 N   0  0  0  0  0  0  0  0  0  0  0  0
  131.2400  125.4110   63.6580 C   0  0  0  0  0  0  0  0  0  0  0  0
  131.9860  124.4370   63.7560 O   0  0  0  0  0  0  0  0  0  0  0  0
  130.5900  125.9730   64.8460 C   0  0  0  0  0  0  0  0  0  0  0  0
  131.1790  125.5710   66.4580 S   0  0  0  0  0  0  0  0  0  0  0  0
  129.9450  126.5580   67.2070 C   0  0  0  0  0  0  0  0  0  0  0  0
  129.8360  126.6580   68.5310 N   0  0  0  0  0  0  0  0  0  0  0  0
  128.8380  127.4470   69.0100 C   0  0  0  0  0  0  0  0  0  0  0  0
  128.7220  127.5290   70.4990 C   0  0  0  0  0  0  0  0  0  0  0  0
  128.7180  128.7660   71.1570 C   0  0  0  0  0  0  0  0  0  0  0  0
  128.6210  128.8350   72.5440 C   0  0  0  0  0  0  0  0  0  0  0  0
  128.5240  127.6730   73.3060 C   0  0  0  0  0  0  0  0  0  0  0  0
  128.4340  127.8380   74.6750 O   0  0  0  0  0  0  0  0  0  0  0  0
  127.1540  128.0300   75.2680 C   0  0  0  0  0  0  0  0  0  0  0  0
  128.5210  126.4300   72.6570 C   0  0  0  0  0  0  0  0  0  0  0  0
  128.6210  126.3640   71.2690 C   0  0  0  0  0  0  0  0  0  0  0  0
  127.9620  128.1350   68.1680 C   0  0  0  0  0  0  0  0  0  0  0  0
  128.0830  128.0460   66.7770 C   0  0  0  0  0  0  0  0  0  0  0  0
  127.1450  128.8250   65.9280 C   0  0  0  0  0  0  0  0  0  0  0  0
  127.6340  129.6250   64.8930 C   0  0  0  0  0  0  0  0  0  0  0  0
  126.7570  130.3400   64.0820 C   0  0  0  0  0  0  0  0  0  0  0  0
  125.3790  130.2640   64.2870 C   0  0  0  0  0  0  0  0  0  0  0  0
  124.5860  131.0070   63.4330 O   0  0  0  0  0  0  0  0  0  0  0  0
  124.5240  132.4180   63.5970 C   0  0  0  0  0  0  0  0  0  0  0  0
  124.8860  129.4530   65.3210 C   0  0  0  0  0  0  0  0  0  0  0  0
  125.7650  128.7380   66.1300 C   0  0  0  0  0  0  0  0  0  0  0  0
  129.1070  127.2080   66.2530 C   0  0  0  0  0  0  0  0  0  0  0  0
  129.4880  126.8400   64.9110 C   0  0  0  0  0  0  0  0  0  0  0  0
  128.8130  127.2910   63.8050 N   0  0  0  0  0  0  0  0  0  0  0  0
  130.9000  126.3820   60.0190 C   0  0  0  0  0  0  0  0  0  0  0  0
  131.4220  126.0420   58.7740 C   0  0  0  0  0  0  0  0  0  0  0  0
  130.0070  123.8582   57.3183 H   0  0  0  0  0  0  0  0  0  0  0  0
  129.2587  124.3576   55.7635 H   0  0  0  0  0  0  0  0  0  0  0  0
  130.8077  123.4481   55.7635 H   0  0  0  0  0  0  0  0  0  0  0  0
  130.6913  126.1551   55.4933 H   0  0  0  0  0  0  0  0  0  0  0  0
  130.7564  126.0480   57.2848 H   0  0  0  0  0  0  0  0  0  0  0  0
  133.7758  123.7761   59.7599 H   0  0  0  0  0  0  0  0  0  0  0  0
  132.8490  124.3819   61.9824 H   0  0  0  0  0  0  0  0  0  0  0  0
  130.3380  126.8370   62.5630 H   0  0  0  0  0  0  0  0  0  0  0  0
  128.7924  129.6937   70.5706 H   0  0  0  0  0  0  0  0  0  0  0  0
  128.6210  129.8156   73.0425 H   0  0  0  0  0  0  0  0  0  0  0  0
  127.2515  128.0154   76.3636 H   0  0  0  0  0  0  0  0  0  0  0  0
  126.7440  128.9997   74.9493 H   0  0  0  0  0  0  0  0  0  0  0  0
  126.4775  127.2233   74.9493 H   0  0  0  0  0  0  0  0  0  0  0  0
  128.4394  125.5043   73.2456 H   0  0  0  0  0  0  0  0  0  0  0  0
  128.6206  125.3831   70.7712 H   0  0  0  0  0  0  0  0  0  0  0  0
  127.1656  128.7557   68.6044 H   0  0  0  0  0  0  0  0  0  0  0  0
  128.7180  129.6905   64.7176 H   0  0  0  0  0  0  0  0  0  0  0  0
  127.1539  130.9703   63.2726 H   0  0  0  0  0  0  0  0  0  0  0  0
  124.5133  132.6624   64.6695 H   0  0  0  0  0  0  0  0  0  0  0  0
  125.4027  132.8810   63.1242 H   0  0  0  0  0  0  0  0  0  0  0  0
  123.6081  132.8022   63.1242 H   0  0  0  0  0  0  0  0  0  0  0  0
  123.8018  129.3821   65.4927 H   0  0  0  0  0  0  0  0  0  0  0  0
  125.3702  128.0998   66.9343 H   0  0  0  0  0  0  0  0  0  0  0  0
  128.3360  126.6530   63.1830 H   0  0  0  0  0  0  0  0  0  0  0  0
  128.7650  128.2730   63.5750 H   0  0  0  0  0  0  0  0  0  0  0  0
  130.0880  127.1206   60.0910 H   0  0  0  0  0  0  0  0  0  0  0  0
  131.0178  126.5155   57.8671 H   0  0  0  0  0  0  0  0  0  0  0  0
  1  2  1  0
  2  3  1  0
  3  4  1  0
  4  5  2  0
  4  6  1  0
  6  7  2  0
  7  8  1  0
  8  9  2  0
  9 10  1  0
 10 11  1  0
 11 12  2  0
 11 13  1  0
 13 14  1  0
 14 15  1  0
 15 16  2  0
 16 17  1  0
 17 18  1  0
 18 19  2  0
 19 20  1  0
 20 21  2  0
 21 22  1  0
 22 23  1  0
 21 24  1  0
 24 25  2  0
 17 26  2  0
 26 27  1  0
 27 28  1  0
 28 29  2  0
 29 30  1  0
 30 31  2  0
 31 32  1  0
 32 33  1  0
 31 34  1  0
 34 35  2  0
 27 36  2  0
 36 37  1  0
 37 38  1  0
  9 39  1  0
 39 40  2  0
 40  6  1  0
 37 13  2  0
 36 15  1  0
 25 18  1  0
 35 28  1  0
  1 41  1  0
  1 42  1  0
  1 43  1  0
  2 44  1  0
  2 45  1  0
  7 46  1  0
  8 47  1  0
 10 48  1  0
 19 49  1  0
 20 50  1  0
 23 51  1  0
 23 52  1  0
 23 53  1  0
 24 54  1  0
 25 55  1  0
 26 56  1  0
 29 57  1  0
 30 58  1  0
 33 59  1  0
 33 60  1  0
 33 61  1  0
 34 62  1  0
 35 63  1  0
 38 64  1  0
 38 65  1  0
 39 66  1  0
 40 67  1  0
M  END
>  <Binding energies>  (1) 
[-0.65]

>  <Ligand effiencies>  (1) 
[-0.015116279069767442]

>  <Interactions>  (1) 
["V-B:ARG:545:CZ:9898, V-B:GLU:543:CB:9878, V-A:HIS:456:CE1:4068, V-B:GLU:543:CD:9880, H-B:TYR:484:OH:9320, V-A:GLU:543:CD:4906, H-B:GLY:454:N:9022, V-B:HIS:456:CE1:9042, V-A:GLY:544:CA:4912, H-A:LYS:547:NZ:4949, V-B:GLY:544:C:9884, V-B:HIS:456:CD2:9040, V-A:GLU:543:CB:4904, V-B:GLU:543:CG:9879, V-A:GLU:543:CG:4905, H-B:LYS:547:NZ:9923, V-B:GLU:543:C:9874, V-A:LYS:547:CE:4948, H-A:TYR:484:OH:4346, V-B:LYS:547:CE:9922, H-B:GLU:543:OE1:9881, V-B:GLY:544:CA:9886, V-A:GLU:543:C:4900, V-B:TYR:539:CZ:9849, V-A:ASP:366:CG:3211, V-B:TYR:539:CD2:9846, V-B:TYR:539:CE1:9847, V-B:TYR:539:CE2:9848, V-A:ASP:366:CA:3208, V-A:ASP:366:CB:3210, H-A:TYR:531:OH:4793, V-B:LEU:475:CD2:9231, V-B:GLY:454:CA:9021, H-A:GLU:543:OE2:4908, H-A:GLU:543:OE1:4907, H-B:TYR:539:OH:9850, V-B:LYS:547:CD:9921, H-B:GLU:543:OE2:9882, V-B:ARG:545:CG:9894, V-B:ARG:545:CD:9895"]

$$$$
8b_Ghoteimi_2023
     RDKit          3D

 54 58  0  0  0  0  0  0  0  0999 V2000
  127.3080  128.0590   75.1470 C   0  0  0  0  0  0  0  0  0  0  0  0
  128.5570  127.6300   74.6150 O   0  0  0  0  0  0  0  0  0  0  0  0
  128.7060  127.5280   73.2450 C   0  0  0  0  0  0  0  0  0  0  0  0
  127.6630  128.0240   72.4660 C   0  0  0  0  0  0  0  0  0  0  0  0
  127.7250  127.9630   71.0770 C   0  0  0  0  0  0  0  0  0  0  0  0
  128.8360  127.4020   70.4300 C   0  0  0  0  0  0  0  0  0  0  0  0
  128.9080  127.3320   68.9380 C   0  0  0  0  0  0  0  0  0  0  0  0
  128.0170  128.0390   68.1230 C   0  0  0  0  0  0  0  0  0  0  0  0
  128.1060  127.9570   66.7300 C   0  0  0  0  0  0  0  0  0  0  0  0
  127.1410  128.7110   65.8970 C   0  0  0  0  0  0  0  0  0  0  0  0
  125.7930  128.7640   66.2550 C   0  0  0  0  0  0  0  0  0  0  0  0
  124.8900  129.4810   65.4760 C   0  0  0  0  0  0  0  0  0  0  0  0
  125.3170  130.1510   64.3290 C   0  0  0  0  0  0  0  0  0  0  0  0
  124.3510  130.8370   63.6180 O   0  0  0  0  0  0  0  0  0  0  0  0
  124.1520  130.5310   62.2420 C   0  0  0  0  0  0  0  0  0  0  0  0
  126.6720  130.0920   63.9680 C   0  0  0  0  0  0  0  0  0  0  0  0
  127.5760  129.3760   64.7490 C   0  0  0  0  0  0  0  0  0  0  0  0
  129.1290  127.1440   66.1720 C   0  0  0  0  0  0  0  0  0  0  0  0
  129.5050  126.8430   64.8160 C   0  0  0  0  0  0  0  0  0  0  0  0
  128.8420  127.3680   63.7360 N   0  0  0  0  0  0  0  0  0  0  0  0
  130.6020  125.9730   64.7100 C   0  0  0  0  0  0  0  0  0  0  0  0
  131.2480  125.4640   63.4980 C   0  0  0  0  0  0  0  0  0  0  0  0
  131.0750  126.0210   62.4120 O   0  0  0  0  0  0  0  0  0  0  0  0
  132.0230  124.3640   63.6710 N   0  0  0  0  0  0  0  0  0  0  0  0
  132.7480  123.6810   62.7040 C   0  0  0  0  0  0  0  0  0  0  0  0
  132.2030  122.6670   61.9170 C   0  0  0  0  0  0  0  0  0  0  0  0
  133.2310  122.2530   61.1020 C   0  0  0  0  0  0  0  0  0  0  0  0
  134.3380  122.9810   61.3810 O   0  0  0  0  0  0  0  0  0  0  0  0
  134.0200  123.8850   62.3970 N   0  0  0  0  0  0  0  0  0  0  0  0
  131.2000  125.5060   66.3030 S   0  0  0  0  0  0  0  0  0  0  0  0
  129.9810  126.4750   67.0970 C   0  0  0  0  0  0  0  0  0  0  0  0
  129.8950  126.5500   68.4250 N   0  0  0  0  0  0  0  0  0  0  0  0
  129.8830  126.9080   71.2190 C   0  0  0  0  0  0  0  0  0  0  0  0
  129.8230  126.9670   72.6090 C   0  0  0  0  0  0  0  0  0  0  0  0
  127.3528  128.0436   76.2460 H   0  0  0  0  0  0  0  0  0  0  0  0
  127.0948  129.0819   74.8030 H   0  0  0  0  0  0  0  0  0  0  0  0
  126.5113  127.3830   74.8030 H   0  0  0  0  0  0  0  0  0  0  0  0
  126.7824  128.4679   72.9532 H   0  0  0  0  0  0  0  0  0  0  0  0
  126.8917  128.3600   70.4786 H   0  0  0  0  0  0  0  0  0  0  0  0
  127.2386  128.6657   68.5828 H   0  0  0  0  0  0  0  0  0  0  0  0
  125.4435  128.2376   67.1554 H   0  0  0  0  0  0  0  0  0  0  0  0
  123.8299  129.5199   65.7671 H   0  0  0  0  0  0  0  0  0  0  0  0
  123.5542  129.6118   62.1535 H   0  0  0  0  0  0  0  0  0  0  0  0
  123.6211  131.3620   61.7546 H   0  0  0  0  0  0  0  0  0  0  0  0
  125.1269  130.3827   61.7546 H   0  0  0  0  0  0  0  0  0  0  0  0
  127.0214  130.6133   63.0646 H   0  0  0  0  0  0  0  0  0  0  0  0
  128.6366  129.3343   64.4603 H   0  0  0  0  0  0  0  0  0  0  0  0
  129.1490  128.2240   63.2960 H   0  0  0  0  0  0  0  0  0  0  0  0
  128.0250  126.9200   63.3450 H   0  0  0  0  0  0  0  0  0  0  0  0
  132.0910  123.9930   64.6070 H   0  0  0  0  0  0  0  0  0  0  0  0
  131.1731  122.2813   61.9424 H   0  0  0  0  0  0  0  0  0  0  0  0
  133.1643  121.4578   60.3449 H   0  0  0  0  0  0  0  0  0  0  0  0
  130.7658  126.4669   70.7332 H   0  0  0  0  0  0  0  0  0  0  0  0
  130.6550  126.5720   73.2105 H   0  0  0  0  0  0  0  0  0  0  0  0
  1  2  1  0
  2  3  1  0
  3  4  2  0
  4  5  1  0
  5  6  2  0
  6  7  1  0
  7  8  2  0
  8  9  1  0
  9 10  1  0
 10 11  2  0
 11 12  1  0
 12 13  2  0
 13 14  1  0
 14 15  1  0
 13 16  1  0
 16 17  2  0
  9 18  2  0
 18 19  1  0
 19 20  1  0
 19 21  2  0
 21 22  1  0
 22 23  2  0
 22 24  1  0
 24 25  1  0
 25 26  1  0
 26 27  2  0
 27 28  1  0
 28 29  1  0
 21 30  1  0
 30 31  1  0
 31 32  2  0
  6 33  1  0
 33 34  2  0
 34  3  1  0
 32  7  1  0
 17 10  1  0
 31 18  1  0
 29 25  2  0
  1 35  1  0
  1 36  1  0
  1 37  1  0
  4 38  1  0
  5 39  1  0
  8 40  1  0
 11 41  1  0
 12 42  1  0
 15 43  1  0
 15 44  1  0
 15 45  1  0
 16 46  1  0
 17 47  1  0
 20 48  1  0
 20 49  1  0
 24 50  1  0
 26 51  1  0
 27 52  1  0
 33 53  1  0
 34 54  1  0
M  END
>  <Binding energies>  (1) 
[-3.84]

>  <Ligand effiencies>  (1) 
[-0.10378378378378378]

>  <Interactions>  (1) 
["V-B:ARG:545:CZ:9898, V-B:GLU:543:CB:9878, V-A:HIS:456:CE1:4068, V-A:HIS:456:CD2:4066, V-B:GLU:543:CD:9880, H-B:TYR:484:OH:9320, V-A:GLU:543:CD:4906, H-B:GLY:454:N:9022, V-B:HIS:456:CE1:9042, H-A:LYS:547:NZ:4949, V-B:GLY:544:C:9884, V-A:GLY:544:C:4910, V-B:HIS:456:CD2:9040, V-A:GLU:543:CB:4904, V-B:GLU:543:CG:9879, V-A:GLU:543:CG:4905, H-A:GLY:454:N:4048, H-B:LYS:547:NZ:9923, V-A:LYS:547:CE:4948, H-A:TYR:484:OH:4346, V-B:LYS:547:CE:9922, H-B:GLU:543:OE1:9881, V-A:ILE:369:CD1:3237, V-A:LEU:475:CD2:4257, H-A:ARG:545:NH2:4926, H-A:GLU:543:OE2:4908, H-A:GLU:543:OE1:4907, V-B:HIS:456:CG:9038, V-B:LYS:547:CD:9921, H-B:GLU:543:OE2:9882, V-B:ARG:545:CG:9894, V-B:ARG:545:CD:9895"]

$$$$
8c_Ghoteimi_2023
     RDKit          3D

 54 58  0  0  0  0  0  0  0  0999 V2000
  123.5010  129.9930   66.9200 C   0  0  0  0  0  0  0  0  0  0  0  0
  123.8820  130.6520   65.7170 O   0  0  0  0  0  0  0  0  0  0  0  0
  124.8900  130.1110   64.9420 C   0  0  0  0  0  0  0  0  0  0  0  0
  124.6320  129.9950   63.5770 C   0  0  0  0  0  0  0  0  0  0  0  0
  125.5880  129.4580   62.7200 C   0  0  0  0  0  0  0  0  0  0  0  0
  126.8290  129.0230   63.2070 C   0  0  0  0  0  0  0  0  0  0  0  0
  127.8600  128.4420   62.2910 C   0  0  0  0  0  0  0  0  0  0  0  0
  128.6020  129.2390   61.4160 C   0  0  0  0  0  0  0  0  0  0  0  0
  129.5620  128.6710   60.5710 C   0  0  0  0  0  0  0  0  0  0  0  0
  130.3250  129.5430   59.6500 C   0  0  0  0  0  0  0  0  0  0  0  0
  131.4140  130.2810   60.1190 C   0  0  0  0  0  0  0  0  0  0  0  0
  132.1350  131.0930   59.2490 C   0  0  0  0  0  0  0  0  0  0  0  0
  131.7800  131.1820   57.9020 C   0  0  0  0  0  0  0  0  0  0  0  0
  132.5550  132.0100   57.1130 O   0  0  0  0  0  0  0  0  0  0  0  0
  133.8130  131.5420   56.6410 C   0  0  0  0  0  0  0  0  0  0  0  0
  130.6830  130.4420   57.4330 C   0  0  0  0  0  0  0  0  0  0  0  0
  129.9620  129.6300   58.3040 C   0  0  0  0  0  0  0  0  0  0  0  0
  129.7610  127.2660   60.6370 C   0  0  0  0  0  0  0  0  0  0  0  0
  130.6430  126.3720   59.9350 C   0  0  0  0  0  0  0  0  0  0  0  0
  131.5290  126.8100   58.9820 N   0  0  0  0  0  0  0  0  0  0  0  0
  130.5110  125.0270   60.3150 C   0  0  0  0  0  0  0  0  0  0  0  0
  131.2440  123.8610   59.8160 C   0  0  0  0  0  0  0  0  0  0  0  0
  131.2560  123.5920   58.6130 O   0  0  0  0  0  0  0  0  0  0  0  0
  131.8840  123.1290   60.7610 N   0  0  0  0  0  0  0  0  0  0  0  0
  132.6460  121.9880   60.5570 C   0  0  0  0  0  0  0  0  0  0  0  0
  132.4660  121.0460   59.6560 N   0  0  0  0  0  0  0  0  0  0  0  0
  133.3850  120.1060   59.7470 C   0  0  0  0  0  0  0  0  0  0  0  0
  134.3410  120.2740   60.7430 C   0  0  0  0  0  0  0  0  0  0  0  0
  134.0080  121.7480   61.6030 S   0  0  0  0  0  0  0  0  0  0  0  0
  129.2810  124.8370   61.5660 S   0  0  0  0  0  0  0  0  0  0  0  0
  128.9520  126.5540   61.5700 C   0  0  0  0  0  0  0  0  0  0  0  0
  128.0360  127.0950   62.3730 N   0  0  0  0  0  0  0  0  0  0  0  0
  127.0820  129.1450   64.5800 C   0  0  0  0  0  0  0  0  0  0  0  0
  126.1280  129.6800   65.4400 C   0  0  0  0  0  0  0  0  0  0  0  0
  123.8415  130.5820   67.7844 H   0  0  0  0  0  0  0  0  0  0  0  0
  122.4060  129.8935   66.9526 H   0  0  0  0  0  0  0  0  0  0  0  0
  123.9611  128.9944   66.9526 H   0  0  0  0  0  0  0  0  0  0  0  0
  123.6650  130.3306   63.1741 H   0  0  0  0  0  0  0  0  0  0  0  0
  125.3671  129.3736   61.6457 H   0  0  0  0  0  0  0  0  0  0  0  0
  128.4297  130.3251   61.3909 H   0  0  0  0  0  0  0  0  0  0  0  0
  131.7024  130.2202   61.1788 H   0  0  0  0  0  0  0  0  0  0  0  0
  132.9923  131.6699   59.6261 H   0  0  0  0  0  0  0  0  0  0  0  0
  134.4596  131.3014   57.4977 H   0  0  0  0  0  0  0  0  0  0  0  0
  133.6628  130.6396   56.0302 H   0  0  0  0  0  0  0  0  0  0  0  0
  134.2891  132.3232   56.0302 H   0  0  0  0  0  0  0  0  0  0  0  0
  130.3923  130.5040   56.3739 H   0  0  0  0  0  0  0  0  0  0  0  0
  129.1024  129.0542   57.9305 H   0  0  0  0  0  0  0  0  0  0  0  0
  131.6370  126.3270   58.1010 H   0  0  0  0  0  0  0  0  0  0  0  0
  132.1030  127.6280   59.1280 H   0  0  0  0  0  0  0  0  0  0  0  0
  131.8090  123.4410   61.7180 H   0  0  0  0  0  0  0  0  0  0  0  0
  133.3954  119.2369   59.0728 H   0  0  0  0  0  0  0  0  0  0  0  0
  135.1731  119.5858   60.9527 H   0  0  0  0  0  0  0  0  0  0  0  0
  128.0497  128.8127   64.9840 H   0  0  0  0  0  0  0  0  0  0  0  0
  126.3458  129.7652   66.5149 H   0  0  0  0  0  0  0  0  0  0  0  0
  1  2  1  0
  2  3  1  0
  3  4  2  0
  4  5  1  0
  5  6  2  0
  6  7  1  0
  7  8  2  0
  8  9  1  0
  9 10  1  0
 10 11  2  0
 11 12  1  0
 12 13  2  0
 13 14  1  0
 14 15  1  0
 13 16  1  0
 16 17  2  0
  9 18  2  0
 18 19  1  0
 19 20  1  0
 19 21  2  0
 21 22  1  0
 22 23  2  0
 22 24  1  0
 24 25  1  0
 25 26  2  0
 26 27  1  0
 27 28  2  0
 28 29  1  0
 21 30  1  0
 30 31  1  0
 31 32  2  0
  6 33  1  0
 33 34  2  0
 34  3  1  0
 32  7  1  0
 17 10  1  0
 31 18  1  0
 29 25  1  0
  1 35  1  0
  1 36  1  0
  1 37  1  0
  4 38  1  0
  5 39  1  0
  8 40  1  0
 11 41  1  0
 12 42  1  0
 15 43  1  0
 15 44  1  0
 15 45  1  0
 16 46  1  0
 17 47  1  0
 20 48  1  0
 20 49  1  0
 24 50  1  0
 27 51  1  0
 28 52  1  0
 33 53  1  0
 34 54  1  0
M  END
>  <Binding energies>  (1) 
[-5.31]

>  <Ligand effiencies>  (1) 
[-0.1435135135135135]

>  <Interactions>  (1) 
["V-B:ARG:545:CZ:9898, V-B:GLU:543:CD:9880, H-B:TYR:484:OH:9320, V-A:GLU:543:CD:4906, H-B:GLY:454:N:9022, V-B:HIS:456:CE1:9042, V-B:GLY:453:C:9014, V-A:TRP:381:CZ2:3368, V-A:ILE:369:CD1:3237, V-A:LEU:475:CD2:4257, V-A:TRP:381:CH2:3370, V-A:ASP:366:CG:3211, V-A:GLY:454:CA:4047, V-B:TYR:539:CD2:9846, V-B:TYR:539:CE2:9848, V-A:ILE:369:CG2:3235, V-A:ASP:366:CB:3210, V-A:ILE:369:CG1:3236, V-A:PRO:540:CA:4881, V-A:PRO:540:N:4882, V-A:TYR:531:CZ:4792, H-B:ARG:545:NH2:9900, V-A:PRO:540:CB:4883, V-A:TYR:531:CE2:4791, V-A:LEU:363:CA:3183, V-B:GLY:454:CA:9021, V-B:TYR:484:CZ:9319, V-B:ARG:545:CG:9894, V-B:ARG:545:CD:9895, V-A:SER:385:CA:3405, H-A:ASP:366:OD2:3213, H-A:ASP:366:OD1:3212, V-A:LEU:363:CD1:3187, V-A:LEU:363:CB:3185, V-B:ARG:545:CB:9893, V-A:SER:385:C:3403, V-B:ILE:455:C:9024, H-B:ILE:455:N:9027, V-B:GLY:454:C:9019"]

$$$$
8d_Ghoteimi_2023
     RDKit          3D

 50 53  0  0  0  0  0  0  0  0999 V2000
  123.7610  124.3970   57.3350 C   0  0  0  0  0  0  0  0  0  0  0  0
  124.8880  124.2770   56.4770 O   0  0  0  0  0  0  0  0  0  0  0  0
  125.9370  123.4820   56.8130 C   0  0  0  0  0  0  0  0  0  0  0  0
  126.1480  122.3730   56.3160 O   0  0  0  0  0  0  0  0  0  0  0  0
  126.8090  124.0840   57.8450 C   0  0  0  0  0  0  0  0  0  0  0  0
  128.1670  123.1640   58.4950 S   0  0  0  0  0  0  0  0  0  0  0  0
  128.6110  124.4880   59.5470 C   0  0  0  0  0  0  0  0  0  0  0  0
  129.6550  124.4110   60.3730 N   0  0  0  0  0  0  0  0  0  0  0  0
  129.9140  125.4990   61.1470 C   0  0  0  0  0  0  0  0  0  0  0  0
  131.0870  125.3850   62.0680 C   0  0  0  0  0  0  0  0  0  0  0  0
  130.9530  125.6130   63.4450 C   0  0  0  0  0  0  0  0  0  0  0  0
  132.0480  125.5060   64.2970 C   0  0  0  0  0  0  0  0  0  0  0  0
  133.3050  125.1690   63.7970 C   0  0  0  0  0  0  0  0  0  0  0  0
  134.3330  125.0850   64.7150 O   0  0  0  0  0  0  0  0  0  0  0  0
  134.0220  125.0420   66.1040 C   0  0  0  0  0  0  0  0  0  0  0  0
  133.4500  124.9360   62.4220 C   0  0  0  0  0  0  0  0  0  0  0  0
  132.3520  125.0440   61.5730 C   0  0  0  0  0  0  0  0  0  0  0  0
  129.1270  126.6530   61.0980 C   0  0  0  0  0  0  0  0  0  0  0  0
  128.0340  126.7350   60.2290 C   0  0  0  0  0  0  0  0  0  0  0  0
  127.2250  127.9760   60.1940 C   0  0  0  0  0  0  0  0  0  0  0  0
  126.5370  128.3970   61.3340 C   0  0  0  0  0  0  0  0  0  0  0  0
  125.7690  129.5580   61.2990 C   0  0  0  0  0  0  0  0  0  0  0  0
  125.6810  130.3150   60.1300 C   0  0  0  0  0  0  0  0  0  0  0  0
  124.8960  131.4490   60.1870 O   0  0  0  0  0  0  0  0  0  0  0  0
  123.7850  131.5710   59.3060 C   0  0  0  0  0  0  0  0  0  0  0  0
  126.3770  129.8900   58.9860 C   0  0  0  0  0  0  0  0  0  0  0  0
  127.1440  128.7290   59.0230 C   0  0  0  0  0  0  0  0  0  0  0  0
  127.7470  125.6120   59.4100 C   0  0  0  0  0  0  0  0  0  0  0  0
  126.7280  125.3520   58.4310 C   0  0  0  0  0  0  0  0  0  0  0  0
  125.7600  126.2710   58.1110 N   0  0  0  0  0  0  0  0  0  0  0  0
  124.0928  124.3617   58.3832 H   0  0  0  0  0  0  0  0  0  0  0  0
  123.2542  125.3542   57.1429 H   0  0  0  0  0  0  0  0  0  0  0  0
  123.0640  123.5680   57.1429 H   0  0  0  0  0  0  0  0  0  0  0  0
  129.9688  125.8801   63.8574 H   0  0  0  0  0  0  0  0  0  0  0  0
  131.9207  125.6889   65.3742 H   0  0  0  0  0  0  0  0  0  0  0  0
  134.9440  125.1695   66.6903 H   0  0  0  0  0  0  0  0  0  0  0  0
  133.3179  125.8513   66.3473 H   0  0  0  0  0  0  0  0  0  0  0  0
  133.5639  124.0720   66.3473 H   0  0  0  0  0  0  0  0  0  0  0  0
  134.4349  124.6669   62.0126 H   0  0  0  0  0  0  0  0  0  0  0  0
  132.4800  124.8586   60.4963 H   0  0  0  0  0  0  0  0  0  0  0  0
  129.3696  127.5055   61.7495 H   0  0  0  0  0  0  0  0  0  0  0  0
  126.6019  127.8100   62.2620 H   0  0  0  0  0  0  0  0  0  0  0  0
  125.2273  129.8811   62.2002 H   0  0  0  0  0  0  0  0  0  0  0  0
  122.8606  131.6725   59.8935 H   0  0  0  0  0  0  0  0  0  0  0  0
  123.9159  132.4602   58.6718 H   0  0  0  0  0  0  0  0  0  0  0  0
  123.7198  130.6746   58.6718 H   0  0  0  0  0  0  0  0  0  0  0  0
  126.3156  130.4769   58.0577 H   0  0  0  0  0  0  0  0  0  0  0  0
  127.6888  128.4039   58.1244 H   0  0  0  0  0  0  0  0  0  0  0  0
  125.3520  126.3060   57.1870 H   0  0  0  0  0  0  0  0  0  0  0  0
  125.4180  126.9390   58.7870 H   0  0  0  0  0  0  0  0  0  0  0  0
  1  2  1  0
  2  3  1  0
  3  4  2  0
  3  5  1  0
  5  6  1  0
  6  7  1  0
  7  8  2  0
  8  9  1  0
  9 10  1  0
 10 11  2  0
 11 12  1  0
 12 13  2  0
 13 14  1  0
 14 15  1  0
 13 16  1  0
 16 17  2  0
  9 18  2  0
 18 19  1  0
 19 20  1  0
 20 21  2  0
 21 22  1  0
 22 23  2  0
 23 24  1  0
 24 25  1  0
 23 26  1  0
 26 27  2  0
 19 28  2  0
 28 29  1  0
 29 30  1  0
 29  5  2  0
 28  7  1  0
 17 10  1  0
 27 20  1  0
  1 31  1  0
  1 32  1  0
  1 33  1  0
 11 34  1  0
 12 35  1  0
 15 36  1  0
 15 37  1  0
 15 38  1  0
 16 39  1  0
 17 40  1  0
 18 41  1  0
 21 42  1  0
 22 43  1  0
 25 44  1  0
 25 45  1  0
 25 46  1  0
 26 47  1  0
 27 48  1  0
 30 49  1  0
 30 50  1  0
M  END
>  <Binding energies>  (1) 
[-6.33]

>  <Ligand effiencies>  (1) 
[-0.1978125]

>  <Interactions>  (1) 
["V-A:HIS:456:CE1:4068, V-B:GLU:543:CD:9880, H-A:GLY:454:N:4048, V-A:ARG:545:CZ:4924, V-A:ARG:545:CG:4920, H-A:TYR:484:OH:4346, V-A:ARG:545:CD:4921, V-A:TYR:484:CZ:4345, H-A:ARG:545:NH1:4925, H-A:ARG:545:NE:4922, V-B:PRO:540:CA:9855, V-B:TYR:539:C:9839, V-A:GLY:454:CA:4047, V-B:PRO:540:CD:9859, V-B:PRO:540:N:9856, V-B:PRO:540:CB:9857, V-B:ASP:366:CG:8185, V-B:ILE:369:CD1:8211, V-A:TYR:539:CE2:4874, V-B:LEU:363:CA:8157, V-B:ILE:369:CG2:8209, V-B:ASP:366:CB:8184, H-B:TYR:531:OH:9767, H-B:ASP:366:OD2:8187, V-B:TYR:531:CZ:9766, V-B:TYR:531:CE2:9765, H-B:TYR:539:N:9842, H-B:ASP:366:OD1:8186, V-B:ILE:369:CB:8208, V-B:LEU:363:CD1:8161"]

$$$$
9a_Ghoteimi_2023
     RDKit          3D

 85 91  0  0  0  0  0  0  0  0999 V2000
  125.1240  129.7880   75.0030 C   0  0  0  0  0  0  0  0  0  0  0  0
  125.3100  128.3060   74.6580 C   0  0  0  0  0  0  0  0  0  0  0  0
  126.6550  128.0800   74.2540 O   0  0  0  0  0  0  0  0  0  0  0  0
  127.3210  128.9870   73.4950 C   0  0  0  0  0  0  0  0  0  0  0  0
  127.5710  130.1370   73.8720 O   0  0  0  0  0  0  0  0  0  0  0  0
  127.7190  128.4580   72.1480 C   0  0  0  0  0  0  0  0  0  0  0  0
  129.0780  128.3320   71.8350 C   0  0  0  0  0  0  0  0  0  0  0  0
  129.4790  127.8460   70.5940 C   0  0  0  0  0  0  0  0  0  0  0  0
  128.5310  127.4740   69.6400 C   0  0  0  0  0  0  0  0  0  0  0  0
  129.0510  126.9970   68.4220 N   0  0  0  0  0  0  0  0  0  0  0  0
  130.3200  127.0100   67.9420 C   0  0  0  0  0  0  0  0  0  0  0  0
  131.2840  127.4760   68.5490 O   0  0  0  0  0  0  0  0  0  0  0  0
  130.4940  126.4100   66.6160 C   0  0  0  0  0  0  0  0  0  0  0  0
  131.6500  125.1000   66.3750 S   0  0  0  0  0  0  0  0  0  0  0  0
  131.2400  124.9880   64.6800 C   0  0  0  0  0  0  0  0  0  0  0  0
  131.8110  124.0880   63.8810 N   0  0  0  0  0  0  0  0  0  0  0  0
  131.4130  124.0760   62.5810 C   0  0  0  0  0  0  0  0  0  0  0  0
  132.0590  123.0510   61.7060 C   0  0  0  0  0  0  0  0  0  0  0  0
  133.4240  123.1280   61.4080 C   0  0  0  0  0  0  0  0  0  0  0  0
  134.0340  122.1770   60.5950 C   0  0  0  0  0  0  0  0  0  0  0  0
  133.3040  121.1050   60.0590 C   0  0  0  0  0  0  0  0  0  0  0  0
  133.8990  120.1530   59.2250 N   0  0  0  0  0  0  0  0  0  0  0  0
  134.6350  118.9970   59.7750 C   0  0  0  0  0  0  0  0  0  0  0  0
  135.5160  118.2690   58.7380 C   0  0  0  0  0  0  0  0  0  0  0  0
  134.7350  117.8880   57.6180 O   0  0  0  0  0  0  0  0  0  0  0  0
  134.1540  119.0160   56.9810 C   0  0  0  0  0  0  0  0  0  0  0  0
  133.2300  119.7590   57.9670 C   0  0  0  0  0  0  0  0  0  0  0  0
  131.9330  121.0410   60.3480 C   0  0  0  0  0  0  0  0  0  0  0  0
  131.3230  121.9940   61.1590 C   0  0  0  0  0  0  0  0  0  0  0  0
  130.4710  124.9780   62.0810 C   0  0  0  0  0  0  0  0  0  0  0  0
  129.8840  125.9380   62.9130 C   0  0  0  0  0  0  0  0  0  0  0  0
  128.9150  126.8970   62.3220 C   0  0  0  0  0  0  0  0  0  0  0  0
  129.1550  128.2720   62.3710 C   0  0  0  0  0  0  0  0  0  0  0  0
  128.2530  129.1680   61.8050 C   0  0  0  0  0  0  0  0  0  0  0  0
  127.0940  128.7110   61.1580 C   0  0  0  0  0  0  0  0  0  0  0  0
  126.1680  129.5920   60.5920 N   0  0  0  0  0  0  0  0  0  0  0  0
  125.0170  130.0420   61.4000 C   0  0  0  0  0  0  0  0  0  0  0  0
  124.3030  131.2770   60.8100 C   0  0  0  0  0  0  0  0  0  0  0  0
  123.9120  131.0190   59.4710 O   0  0  0  0  0  0  0  0  0  0  0  0
  125.0280  130.7250   58.6460 C   0  0  0  0  0  0  0  0  0  0  0  0
  125.7620  129.4750   59.1780 C   0  0  0  0  0  0  0  0  0  0  0  0
  126.8640  127.3280   61.1120 C   0  0  0  0  0  0  0  0  0  0  0  0
  127.7640  126.4330   61.6820 C   0  0  0  0  0  0  0  0  0  0  0  0
  130.2590  125.9450   64.2860 C   0  0  0  0  0  0  0  0  0  0  0  0
  129.8330  126.7290   65.4190 C   0  0  0  0  0  0  0  0  0  0  0  0
  128.8570  127.6880   65.3280 N   0  0  0  0  0  0  0  0  0  0  0  0
  127.1660  127.5930   69.9460 C   0  0  0  0  0  0  0  0  0  0  0  0
  126.7670  128.0800   71.1870 C   0  0  0  0  0  0  0  0  0  0  0  0
  125.1086  129.9109   76.0960 H   0  0  0  0  0  0  0  0  0  0  0  0
  125.9561  130.3701   74.5803 H   0  0  0  0  0  0  0  0  0  0  0  0
  124.1738  130.1464   74.5803 H   0  0  0  0  0  0  0  0  0  0  0  0
  125.0845  127.6922   75.5425 H   0  0  0  0  0  0  0  0  0  0  0  0
  124.6293  128.0313   73.8388 H   0  0  0  0  0  0  0  0  0  0  0  0
  129.8366  128.6201   72.5777 H   0  0  0  0  0  0  0  0  0  0  0  0
  130.5507  127.7545   70.3636 H   0  0  0  0  0  0  0  0  0  0  0  0
  128.3600  126.5770   67.8180 H   0  0  0  0  0  0  0  0  0  0  0  0
  134.0236  123.9519   61.8222 H   0  0  0  0  0  0  0  0  0  0  0  0
  135.1067  122.2673   60.3688 H   0  0  0  0  0  0  0  0  0  0  0  0
  135.2817  119.3536   60.5902 H   0  0  0  0  0  0  0  0  0  0  0  0
  133.8824  118.2730   60.1207 H   0  0  0  0  0  0  0  0  0  0  0  0
  136.3213  118.9418   58.4082 H   0  0  0  0  0  0  0  0  0  0  0  0
  135.9468  117.3685   59.2000 H   0  0  0  0  0  0  0  0  0  0  0  0
  134.9510  119.6959   56.6455 H   0  0  0  0  0  0  0  0  0  0  0  0
  133.5636  118.6788   56.1163 H   0  0  0  0  0  0  0  0  0  0  0  0
  132.8545  120.6677   57.4738 H   0  0  0  0  0  0  0  0  0  0  0  0
  132.4214  119.0637   58.2366 H   0  0  0  0  0  0  0  0  0  0  0  0
  131.3294  120.2237   59.9266 H   0  0  0  0  0  0  0  0  0  0  0  0
  130.2469  121.9150   61.3729 H   0  0  0  0  0  0  0  0  0  0  0  0
  130.1868  124.9332   61.0193 H   0  0  0  0  0  0  0  0  0  0  0  0
  130.0645  128.6499   62.8610 H   0  0  0  0  0  0  0  0  0  0  0  0
  128.4508  130.2484   61.8654 H   0  0  0  0  0  0  0  0  0  0  0  0
  124.2920  129.2173   61.4648 H   0  0  0  0  0  0  0  0  0  0  0  0
  125.4052  130.3308   62.3879 H   0  0  0  0  0  0  0  0  0  0  0  0
  123.4111  131.5042   61.4124 H   0  0  0  0  0  0  0  0  0  0  0  0
  124.9926  132.1339   60.8256 H   0  0  0  0  0  0  0  0  0  0  0  0
  124.6822  130.5351   57.6192 H   0  0  0  0  0  0  0  0  0  0  0  0
  125.7190  131.5808   58.6542 H   0  0  0  0  0  0  0  0  0  0  0  0
  125.0921  128.6082   59.0780 H   0  0  0  0  0  0  0  0  0  0  0  0
  126.6810  129.3605   58.5844 H   0  0  0  0  0  0  0  0  0  0  0  0
  125.9587  126.9454   60.6180 H   0  0  0  0  0  0  0  0  0  0  0  0
  127.5674  125.3521   61.6281 H   0  0  0  0  0  0  0  0  0  0  0  0
  128.8320  128.3520   64.5650 H   0  0  0  0  0  0  0  0  0  0  0  0
  128.1270  127.7640   66.0230 H   0  0  0  0  0  0  0  0  0  0  0  0
  126.4098  127.3005   69.2027 H   0  0  0  0  0  0  0  0  0  0  0  0
  125.6952  128.1698   71.4177 H   0  0  0  0  0  0  0  0  0  0  0  0
  1  2  1  0
  2  3  1  0
  3  4  1  0
  4  5  2  0
  4  6  1  0
  6  7  2  0
  7  8  1  0
  8  9  2  0
  9 10  1  0
 10 11  1  0
 11 12  2  0
 11 13  1  0
 13 14  1  0
 14 15  1  0
 15 16  2  0
 16 17  1  0
 17 18  1  0
 18 19  2  0
 19 20  1  0
 20 21  2  0
 21 22  1  0
 22 23  1  0
 23 24  1  0
 24 25  1  0
 25 26  1  0
 26 27  1  0
 21 28  1  0
 28 29  2  0
 17 30  2  0
 30 31  1  0
 31 32  1  0
 32 33  2  0
 33 34  1  0
 34 35  2  0
 35 36  1  0
 36 37  1  0
 37 38  1  0
 38 39  1  0
 39 40  1  0
 40 41  1  0
 35 42  1  0
 42 43  2  0
 31 44  2  0
 44 45  1  0
 45 46  1  0
  9 47  1  0
 47 48  2  0
 48  6  1  0
 45 13  2  0
 44 15  1  0
 29 18  1  0
 43 32  1  0
 27 22  1  0
 41 36  1  0
  1 49  1  0
  1 50  1  0
  1 51  1  0
  2 52  1  0
  2 53  1  0
  7 54  1  0
  8 55  1  0
 10 56  1  0
 19 57  1  0
 20 58  1  0
 23 59  1  0
 23 60  1  0
 24 61  1  0
 24 62  1  0
 26 63  1  0
 26 64  1  0
 27 65  1  0
 27 66  1  0
 28 67  1  0
 29 68  1  0
 30 69  1  0
 33 70  1  0
 34 71  1  0
 37 72  1  0
 37 73  1  0
 38 74  1  0
 38 75  1  0
 40 76  1  0
 40 77  1  0
 41 78  1  0
 41 79  1  0
 42 80  1  0
 43 81  1  0
 46 82  1  0
 46 83  1  0
 47 84  1  0
 48 85  1  0
M  END
>  <Binding energies>  (1) 
[8.34]

>  <Ligand effiencies>  (1) 
[0.16352941176470587]

>  <Interactions>  (1) 
["V-B:GLU:543:CB:9878, V-A:HIS:456:CE1:4068, V-B:GLU:543:CD:9880, V-A:GLU:543:CD:4906, V-B:HIS:456:CE1:9042, V-A:GLY:544:CA:4912, H-A:LYS:547:NZ:4949, V-B:GLY:544:C:9884, V-A:GLY:544:C:4910, H-B:GLU:543:O:9875, V-B:HIS:456:CD2:9040, V-B:GLU:543:CG:9879, V-A:GLU:543:CG:4905, V-B:GLU:543:C:9874, H-A:TYR:484:OH:4346, V-A:TYR:484:CZ:4345, V-B:GLY:544:CA:9886, V-A:GLU:543:C:4900, V-B:TYR:539:CZ:9849, V-B:TYR:539:CG:9844, V-A:TRP:381:CZ2:3368, V-A:ILE:369:CD1:3237, V-A:LEU:475:CD2:4257, V-A:TRP:381:CH2:3370, V-B:TYR:539:CD2:9846, V-B:TYR:539:CE2:9848, V-A:ILE:369:CG2:3235, V-A:ILE:369:CG1:3236, V-A:ILE:369:CB:3234, V-B:ASP:366:CG:8185, V-A:TYR:539:CE2:4874, V-B:ASP:366:CB:8184, V-A:TRP:381:CZ3:3369, V-A:TYR:539:CZ:4875, H-A:GLU:543:OE2:4908, H-A:GLU:543:OE1:4907, V-B:HIS:456:CG:9038, V-B:LYS:547:CD:9921, H-B:GLU:543:OE2:9882, V-A:SER:385:CA:3405, V-B:ARG:545:CA:9891, H-A:HIS:456:ND1:4065, H-A:ARG:545:N:4918, V-B:HIS:456:CB:9037, V-A:SER:385:C:3403, V-A:SER:385:CB:3407, V-B:VAL:458:CG2:9059, V-B:HIS:456:C:9033, V-B:HIS:456:CA:9035, V-A:LEU:373:CD2:3279, H-A:ASN:382:ND2:3379, V-A:VAL:384:C:3395, V-A:LEU:373:CG:3277"]

$$$$
9b_Ghoteimi_2023
     RDKit          3D

 72 78  0  0  0  0  0  0  0  0999 V2000
  131.0080  125.0180   60.3400 N   0  0  0  0  0  0  0  0  0  0  0  0
  131.4380  124.7830   61.6210 C   0  0  0  0  0  0  0  0  0  0  0  0
  132.4420  123.8560   61.9420 C   0  0  0  0  0  0  0  0  0  0  0  0
  133.2230  123.0050   61.0410 C   0  0  0  0  0  0  0  0  0  0  0  0
  134.1560  123.4740   60.3850 O   0  0  0  0  0  0  0  0  0  0  0  0
  132.8390  121.7050   60.9880 N   0  0  0  0  0  0  0  0  0  0  0  0
  133.3910  120.6900   60.2160 C   0  0  0  0  0  0  0  0  0  0  0  0
  134.3140  119.7720   60.7140 C   0  0  0  0  0  0  0  0  0  0  0  0
  134.6040  118.9460   59.6530 C   0  0  0  0  0  0  0  0  0  0  0  0
  133.8930  119.3470   58.5720 O   0  0  0  0  0  0  0  0  0  0  0  0
  133.1280  120.4530   58.9420 N   0  0  0  0  0  0  0  0  0  0  0  0
  132.7160  123.7910   63.6830 S   0  0  0  0  0  0  0  0  0  0  0  0
  131.4760  124.9880   63.9690 C   0  0  0  0  0  0  0  0  0  0  0  0
  131.1590  125.3840   65.2010 N   0  0  0  0  0  0  0  0  0  0  0  0
  130.1680  126.3070   65.3160 C   0  0  0  0  0  0  0  0  0  0  0  0
  129.8180  126.7180   66.7090 C   0  0  0  0  0  0  0  0  0  0  0  0
  128.4830  126.8620   67.1070 C   0  0  0  0  0  0  0  0  0  0  0  0
  128.1630  127.2590   68.4020 C   0  0  0  0  0  0  0  0  0  0  0  0
  129.1660  127.5420   69.3420 C   0  0  0  0  0  0  0  0  0  0  0  0
  128.8590  127.9400   70.6480 N   0  0  0  0  0  0  0  0  0  0  0  0
  129.7280  127.5780   71.7860 C   0  0  0  0  0  0  0  0  0  0  0  0
  129.4350  128.3770   73.0730 C   0  0  0  0  0  0  0  0  0  0  0  0
  128.0660  128.2530   73.4200 O   0  0  0  0  0  0  0  0  0  0  0  0
  127.2220  128.7570   72.3980 C   0  0  0  0  0  0  0  0  0  0  0  0
  127.4480  127.9730   71.0870 C   0  0  0  0  0  0  0  0  0  0  0  0
  130.5000  127.3780   68.9430 C   0  0  0  0  0  0  0  0  0  0  0  0
  130.8200  126.9760   67.6500 C   0  0  0  0  0  0  0  0  0  0  0  0
  129.5190  126.8490   64.2030 C   0  0  0  0  0  0  0  0  0  0  0  0
  129.8640  126.4500   62.9060 C   0  0  0  0  0  0  0  0  0  0  0  0
  129.1650  127.0780   61.7560 C   0  0  0  0  0  0  0  0  0  0  0  0
  127.7980  126.8740   61.5650 C   0  0  0  0  0  0  0  0  0  0  0  0
  127.1370  127.4760   60.5000 C   0  0  0  0  0  0  0  0  0  0  0  0
  127.8250  128.2990   59.5940 C   0  0  0  0  0  0  0  0  0  0  0  0
  127.1780  128.9260   58.5260 N   0  0  0  0  0  0  0  0  0  0  0  0
  125.7220  129.1560   58.5990 C   0  0  0  0  0  0  0  0  0  0  0  0
  125.0880  129.4760   57.2280 C   0  0  0  0  0  0  0  0  0  0  0  0
  125.7430  130.5880   56.6380 O   0  0  0  0  0  0  0  0  0  0  0  0
  127.1260  130.3370   56.4350 C   0  0  0  0  0  0  0  0  0  0  0  0
  127.8120  130.0340   57.7840 C   0  0  0  0  0  0  0  0  0  0  0  0
  129.1950  128.5110   59.8060 C   0  0  0  0  0  0  0  0  0  0  0  0
  129.8570  127.9080   60.8730 C   0  0  0  0  0  0  0  0  0  0  0  0
  130.8750  125.4590   62.7640 C   0  0  0  0  0  0  0  0  0  0  0  0
  130.0260  125.0470   60.1050 H   0  0  0  0  0  0  0  0  0  0  0  0
  131.6620  125.1700   59.5840 H   0  0  0  0  0  0  0  0  0  0  0  0
  132.0660  121.4310   61.5760 H   0  0  0  0  0  0  0  0  0  0  0  0
  134.7220  119.7194   61.7342 H   0  0  0  0  0  0  0  0  0  0  0  0
  135.3016  118.0959   59.6783 H   0  0  0  0  0  0  0  0  0  0  0  0
  127.6769  126.6587   66.3867 H   0  0  0  0  0  0  0  0  0  0  0  0
  127.1065  127.3525   68.6936 H   0  0  0  0  0  0  0  0  0  0  0  0
  129.5882  126.5086   72.0025 H   0  0  0  0  0  0  0  0  0  0  0  0
  130.7600  127.8165   71.4892 H   0  0  0  0  0  0  0  0  0  0  0  0
  130.0554  127.9867   73.8932 H   0  0  0  0  0  0  0  0  0  0  0  0
  129.6689  129.4379   72.9003 H   0  0  0  0  0  0  0  0  0  0  0  0
  126.1720  128.6514   72.7085 H   0  0  0  0  0  0  0  0  0  0  0  0
  127.4576  129.8179   72.2277 H   0  0  0  0  0  0  0  0  0  0  0  0
  127.1075  126.9381   71.2386 H   0  0  0  0  0  0  0  0  0  0  0  0
  126.8797  128.4920   70.3010 H   0  0  0  0  0  0  0  0  0  0  0  0
  131.3076  127.5705   69.6646 H   0  0  0  0  0  0  0  0  0  0  0  0
  131.8757  126.8595   67.3639 H   0  0  0  0  0  0  0  0  0  0  0  0
  128.7271  127.5986   64.3479 H   0  0  0  0  0  0  0  0  0  0  0  0
  127.2391  126.2323   62.2620 H   0  0  0  0  0  0  0  0  0  0  0  0
  126.0588  127.3049   60.3652 H   0  0  0  0  0  0  0  0  0  0  0  0
  125.2447  128.2507   59.0023 H   0  0  0  0  0  0  0  0  0  0  0  0
  125.5610  130.0308   59.2461 H   0  0  0  0  0  0  0  0  0  0  0  0
  125.1878  128.6020   56.5676 H   0  0  0  0  0  0  0  0  0  0  0  0
  124.0241  129.7171   57.3696 H   0  0  0  0  0  0  0  0  0  0  0  0
  127.2447  129.4734   55.7641 H   0  0  0  0  0  0  0  0  0  0  0  0
  127.5918  131.2262   55.9852 H   0  0  0  0  0  0  0  0  0  0  0  0
  128.8617  129.7686   57.5900 H   0  0  0  0  0  0  0  0  0  0  0  0
  127.7207  130.9367   58.4059 H   0  0  0  0  0  0  0  0  0  0  0  0
  129.7550  129.1631   59.1196 H   0  0  0  0  0  0  0  0  0  0  0  0
  130.9322  128.0872   61.0205 H   0  0  0  0  0  0  0  0  0  0  0  0
  1  2  1  0
  2  3  2  0
  3  4  1  0
  4  5  2  0
  4  6  1  0
  6  7  1  0
  7  8  1  0
  8  9  2  0
  9 10  1  0
 10 11  1  0
  3 12  1  0
 12 13  1  0
 13 14  2  0
 14 15  1  0
 15 16  1  0
 16 17  2  0
 17 18  1  0
 18 19  2  0
 19 20  1  0
 20 21  1  0
 21 22  1  0
 22 23  1  0
 23 24  1  0
 24 25  1  0
 19 26  1  0
 26 27  2  0
 15 28  2  0
 28 29  1  0
 29 30  1  0
 30 31  2  0
 31 32  1  0
 32 33  2  0
 33 34  1  0
 34 35  1  0
 35 36  1  0
 36 37  1  0
 37 38  1  0
 38 39  1  0
 33 40  1  0
 40 41  2  0
 29 42  2  0
 42  2  1  0
 11  7  2  0
 42 13  1  0
 27 16  1  0
 41 30  1  0
 25 20  1  0
 39 34  1  0
  1 43  1  0
  1 44  1  0
  6 45  1  0
  8 46  1  0
  9 47  1  0
 17 48  1  0
 18 49  1  0
 21 50  1  0
 21 51  1  0
 22 52  1  0
 22 53  1  0
 24 54  1  0
 24 55  1  0
 25 56  1  0
 25 57  1  0
 26 58  1  0
 27 59  1  0
 28 60  1  0
 31 61  1  0
 32 62  1  0
 35 63  1  0
 35 64  1  0
 36 65  1  0
 36 66  1  0
 38 67  1  0
 38 68  1  0
 39 69  1  0
 39 70  1  0
 40 71  1  0
 41 72  1  0
M  END
>  <Binding energies>  (1) 
[0.6]

>  <Ligand effiencies>  (1) 
[0.013333333333333332]

>  <Interactions>  (1) 
["V-B:GLU:543:CB:9878, V-A:HIS:456:CE1:4068, V-B:GLU:543:CD:9880, V-A:GLU:543:CD:4906, V-B:HIS:456:CE1:9042, V-A:GLY:544:CA:4912, H-A:LYS:547:NZ:4949, V-B:GLY:544:C:9884, V-A:GLY:544:C:4910, V-B:HIS:456:CD2:9040, V-B:GLU:543:CG:9879, V-A:GLU:543:CG:4905, V-B:GLU:543:C:9874, V-A:ARG:545:CG:4920, V-A:LYS:547:CE:4948, H-A:TYR:484:OH:4346, V-A:GLU:543:C:4900, V-A:TRP:381:CZ2:3368, V-A:ILE:369:CD1:3237, V-A:LEU:475:CD2:4257, V-A:TRP:381:CH2:3370, V-A:GLY:454:CA:4047, V-B:TYR:539:CE2:9848, V-A:ILE:369:CG2:3235, V-B:ASP:366:CG:8185, V-A:TYR:539:CE2:4874, V-B:ASP:366:CB:8184, V-A:TRP:381:CZ3:3369, V-A:TYR:539:CZ:4875, V-B:HIS:456:CG:9038, H-A:TYR:539:OH:4876, V-A:SER:385:CA:3405, H-A:ASP:366:OD1:3212, V-B:HIS:456:CB:9037, V-A:SER:385:C:3403, V-A:SER:385:CB:3407"]

$$$$
9c_Ghoteimi_2023
     RDKit          3D

 72 78  0  0  0  0  0  0  0  0999 V2000
  129.4740  126.8610   60.5790 N   0  0  0  0  0  0  0  0  0  0  0  0
  128.8800  127.5980   61.5710 C   0  0  0  0  0  0  0  0  0  0  0  0
  128.0620  128.7110   61.3220 C   0  0  0  0  0  0  0  0  0  0  0  0
  127.6680  129.2850   60.0320 C   0  0  0  0  0  0  0  0  0  0  0  0
  126.5780  129.0110   59.5250 O   0  0  0  0  0  0  0  0  0  0  0  0
  128.5780  130.1120   59.4610 N   0  0  0  0  0  0  0  0  0  0  0  0
  128.4620  130.7690   58.2440 C   0  0  0  0  0  0  0  0  0  0  0  0
  127.5900  130.5450   57.2850 N   0  0  0  0  0  0  0  0  0  0  0  0
  127.7750  131.3580   56.2630 C   0  0  0  0  0  0  0  0  0  0  0  0
  128.8200  132.2700   56.3820 C   0  0  0  0  0  0  0  0  0  0  0  0
  129.5950  132.0410   57.9210 S   0  0  0  0  0  0  0  0  0  0  0  0
  127.4930  129.4330   62.8270 S   0  0  0  0  0  0  0  0  0  0  0  0
  128.3670  128.2550   63.7760 C   0  0  0  0  0  0  0  0  0  0  0  0
  128.3560  128.2850   65.1080 N   0  0  0  0  0  0  0  0  0  0  0  0
  129.0830  127.3340   65.7510 C   0  0  0  0  0  0  0  0  0  0  0  0
  129.0710  127.4040   67.2440 C   0  0  0  0  0  0  0  0  0  0  0  0
  130.2380  127.1930   67.9880 C   0  0  0  0  0  0  0  0  0  0  0  0
  130.2200  127.2500   69.3780 C   0  0  0  0  0  0  0  0  0  0  0  0
  129.0290  127.5070   70.0770 C   0  0  0  0  0  0  0  0  0  0  0  0
  128.9960  127.5750   71.4750 N   0  0  0  0  0  0  0  0  0  0  0  0
  129.8940  126.7470   72.3060 C   0  0  0  0  0  0  0  0  0  0  0  0
  129.9700  127.1980   73.7800 C   0  0  0  0  0  0  0  0  0  0  0  0
  128.6660  127.2490   74.3380 O   0  0  0  0  0  0  0  0  0  0  0  0
  127.8420  128.1730   73.6470 C   0  0  0  0  0  0  0  0  0  0  0  0
  127.7030  127.7570   72.1660 C   0  0  0  0  0  0  0  0  0  0  0  0
  127.8680  127.7370   69.3260 C   0  0  0  0  0  0  0  0  0  0  0  0
  127.8880  127.6830   67.9350 C   0  0  0  0  0  0  0  0  0  0  0  0
  129.7900  126.3430   65.0650 C   0  0  0  0  0  0  0  0  0  0  0  0
  129.7850  126.2950   63.6670 C   0  0  0  0  0  0  0  0  0  0  0  0
  130.5270  125.2050   62.9850 C   0  0  0  0  0  0  0  0  0  0  0  0
  131.7860  124.8150   63.4450 C   0  0  0  0  0  0  0  0  0  0  0  0
  132.4780  123.7820   62.8190 C   0  0  0  0  0  0  0  0  0  0  0  0
  131.9280  123.1110   61.7150 C   0  0  0  0  0  0  0  0  0  0  0  0
  132.5990  122.0630   61.0780 N   0  0  0  0  0  0  0  0  0  0  0  0
  133.8000  121.4850   61.7140 C   0  0  0  0  0  0  0  0  0  0  0  0
  134.6500  120.6330   60.7470 C   0  0  0  0  0  0  0  0  0  0  0  0
  133.8510  119.6150   60.1650 O   0  0  0  0  0  0  0  0  0  0  0  0
  132.7630  120.1570   59.4320 C   0  0  0  0  0  0  0  0  0  0  0  0
  131.8660  121.0010   60.3630 C   0  0  0  0  0  0  0  0  0  0  0  0
  130.6530  123.4980   61.2750 C   0  0  0  0  0  0  0  0  0  0  0  0
  129.9620  124.5310   61.9010 C   0  0  0  0  0  0  0  0  0  0  0  0
  129.0600  127.3040   62.9700 C   0  0  0  0  0  0  0  0  0  0  0  0
  130.4260  126.5290   60.6580 H   0  0  0  0  0  0  0  0  0  0  0  0
  128.9800  126.6240   59.7300 H   0  0  0  0  0  0  0  0  0  0  0  0
  129.4370  130.2760   59.9660 H   0  0  0  0  0  0  0  0  0  0  0  0
  127.1389  131.3176   55.3665 H   0  0  0  0  0  0  0  0  0  0  0  0
  129.1084  133.0144   55.6253 H   0  0  0  0  0  0  0  0  0  0  0  0
  131.1825  126.9791   67.4662 H   0  0  0  0  0  0  0  0  0  0  0  0
  131.1531  127.0913   69.9384 H   0  0  0  0  0  0  0  0  0  0  0  0
  129.5320  125.7086   72.2792 H   0  0  0  0  0  0  0  0  0  0  0  0
  130.9055  126.8510   71.8864 H   0  0  0  0  0  0  0  0  0  0  0  0
  130.5824  126.4830   74.3490 H   0  0  0  0  0  0  0  0  0  0  0  0
  130.4241  128.1987   73.8293 H   0  0  0  0  0  0  0  0  0  0  0  0
  126.8464  128.1926   74.1142 H   0  0  0  0  0  0  0  0  0  0  0  0
  128.2998  129.1719   73.6986 H   0  0  0  0  0  0  0  0  0  0  0  0
  127.1498  126.8072   72.1228 H   0  0  0  0  0  0  0  0  0  0  0  0
  127.1764  128.5741   71.6513 H   0  0  0  0  0  0  0  0  0  0  0  0
  126.9249  127.9641   69.8446 H   0  0  0  0  0  0  0  0  0  0  0  0
  126.9603  127.8623   67.3718 H   0  0  0  0  0  0  0  0  0  0  0  0
  130.3580  125.5906   65.6318 H   0  0  0  0  0  0  0  0  0  0  0  0
  132.2346  125.3278   64.3086 H   0  0  0  0  0  0  0  0  0  0  0  0
  133.4691  123.4874   63.1943 H   0  0  0  0  0  0  0  0  0  0  0  0
  134.4233  122.3070   62.0958 H   0  0  0  0  0  0  0  0  0  0  0  0
  133.4553  120.8195   62.5191 H   0  0  0  0  0  0  0  0  0  0  0  0
  135.0537  121.2778   59.9525 H   0  0  0  0  0  0  0  0  0  0  0  0
  135.4752  120.1681   61.3063 H   0  0  0  0  0  0  0  0  0  0  0  0
  133.1503  120.7944   58.6235 H   0  0  0  0  0  0  0  0  0  0  0  0
  132.1689  119.3344   59.0072 H   0  0  0  0  0  0  0  0  0  0  0  0
  131.0771  121.4696   59.7563 H   0  0  0  0  0  0  0  0  0  0  0  0
  131.4563  120.3204   61.1239 H   0  0  0  0  0  0  0  0  0  0  0  0
  130.1928  122.9770   60.4225 H   0  0  0  0  0  0  0  0  0  0  0  0
  128.9638  124.8184   61.5392 H   0  0  0  0  0  0  0  0  0  0  0  0
  1  2  1  0
  2  3  2  0
  3  4  1  0
  4  5  2  0
  4  6  1  0
  6  7  1  0
  7  8  2  0
  8  9  1  0
  9 10  2  0
 10 11  1  0
  3 12  1  0
 12 13  1  0
 13 14  2  0
 14 15  1  0
 15 16  1  0
 16 17  2  0
 17 18  1  0
 18 19  2  0
 19 20  1  0
 20 21  1  0
 21 22  1  0
 22 23  1  0
 23 24  1  0
 24 25  1  0
 19 26  1  0
 26 27  2  0
 15 28  2  0
 28 29  1  0
 29 30  1  0
 30 31  2  0
 31 32  1  0
 32 33  2  0
 33 34  1  0
 34 35  1  0
 35 36  1  0
 36 37  1  0
 37 38  1  0
 38 39  1  0
 33 40  1  0
 40 41  2  0
 29 42  2  0
 42  2  1  0
 11  7  1  0
 42 13  1  0
 27 16  1  0
 41 30  1  0
 25 20  1  0
 39 34  1  0
  1 43  1  0
  1 44  1  0
  6 45  1  0
  9 46  1  0
 10 47  1  0
 17 48  1  0
 18 49  1  0
 21 50  1  0
 21 51  1  0
 22 52  1  0
 22 53  1  0
 24 54  1  0
 24 55  1  0
 25 56  1  0
 25 57  1  0
 26 58  1  0
 27 59  1  0
 28 60  1  0
 31 61  1  0
 32 62  1  0
 35 63  1  0
 35 64  1  0
 36 65  1  0
 36 66  1  0
 38 67  1  0
 38 68  1  0
 39 69  1  0
 39 70  1  0
 40 71  1  0
 41 72  1  0
M  END
>  <Binding energies>  (1) 
[1.31]

>  <Ligand effiencies>  (1) 
[0.029111111111111112]

>  <Interactions>  (1) 
["V-B:GLU:543:CB:9878, V-A:HIS:456:CE1:4068, V-B:GLU:543:CD:9880, V-A:GLU:543:CD:4906, V-B:HIS:456:CE1:9042, H-A:LYS:547:NZ:4949, V-B:GLY:544:C:9884, V-A:GLY:544:C:4910, V-B:HIS:456:CD2:9040, V-B:GLU:543:CG:9879, V-A:GLU:543:CG:4905, H-B:LYS:547:NZ:9923, V-A:LYS:547:CE:4948, V-B:LYS:547:CE:9922, V-A:GLU:543:C:4900, V-A:TRP:381:CZ2:3368, V-A:ILE:369:CD1:3237, V-A:LEU:475:CD2:4257, V-A:TRP:381:CH2:3370, V-A:GLY:454:CA:4047, V-B:TYR:539:CD2:9846, V-B:TYR:539:CE2:9848, V-A:ILE:369:CG2:3235, V-A:ILE:369:CG1:3236, V-A:ILE:369:CB:3234, V-A:PRO:540:CA:4881, V-A:PRO:540:N:4882, V-A:TYR:539:C:4865, V-A:TYR:539:CE2:4874, V-A:TYR:539:CD2:4872, V-A:TRP:381:CZ3:3369, V-A:TYR:539:CE1:4873, V-A:TYR:539:CZ:4875, V-A:TYR:539:CD1:4871, V-A:TYR:539:CG:4870, V-A:SER:385:CA:3405, V-A:SER:385:C:3403"]

$$$$
9d_Ghoteimi_2023
     RDKit          3D

 68 73  0  0  0  0  0  0  0  0999 V2000
  133.8840  123.7360   58.3830 C   0  0  0  0  0  0  0  0  0  0  0  0
  133.0090  122.8560   59.0740 O   0  0  0  0  0  0  0  0  0  0  0  0
  133.2460  122.5120   60.3660 C   0  0  0  0  0  0  0  0  0  0  0  0
  133.9800  121.5800   60.7080 O   0  0  0  0  0  0  0  0  0  0  0  0
  132.5270  123.3710   61.3330 C   0  0  0  0  0  0  0  0  0  0  0  0
  132.8290  123.1910   63.0610 S   0  0  0  0  0  0  0  0  0  0  0  0
  131.7070  124.4790   63.4310 C   0  0  0  0  0  0  0  0  0  0  0  0
  131.4950  124.8810   64.6840 N   0  0  0  0  0  0  0  0  0  0  0  0
  130.6160  125.9010   64.8640 C   0  0  0  0  0  0  0  0  0  0  0  0
  130.4140  126.3530   66.2750 C   0  0  0  0  0  0  0  0  0  0  0  0
  129.1930  126.1330   66.9220 C   0  0  0  0  0  0  0  0  0  0  0  0
  128.9940  126.5510   68.2350 C   0  0  0  0  0  0  0  0  0  0  0  0
  130.0130  127.1950   68.9540 C   0  0  0  0  0  0  0  0  0  0  0  0
  129.8220  127.6370   70.2680 N   0  0  0  0  0  0  0  0  0  0  0  0
  128.5680  128.3000   70.6800 C   0  0  0  0  0  0  0  0  0  0  0  0
  128.6620  129.0210   72.0410 C   0  0  0  0  0  0  0  0  0  0  0  0
  129.1130  128.1200   73.0380 O   0  0  0  0  0  0  0  0  0  0  0  0
  130.3990  127.6070   72.7320 C   0  0  0  0  0  0  0  0  0  0  0  0
  130.3610  126.8420   71.3910 C   0  0  0  0  0  0  0  0  0  0  0  0
  131.2300  127.4260   68.2950 C   0  0  0  0  0  0  0  0  0  0  0  0
  131.4280  127.0100   66.9810 C   0  0  0  0  0  0  0  0  0  0  0  0
  129.9310  126.4920   63.7990 C   0  0  0  0  0  0  0  0  0  0  0  0
  130.1350  126.0600   62.4840 C   0  0  0  0  0  0  0  0  0  0  0  0
  129.3590  126.7040   61.3920 C   0  0  0  0  0  0  0  0  0  0  0  0
  127.9630  126.7140   61.4190 C   0  0  0  0  0  0  0  0  0  0  0  0
  127.2410  127.3350   60.4030 C   0  0  0  0  0  0  0  0  0  0  0  0
  127.8980  127.9770   59.3410 C   0  0  0  0  0  0  0  0  0  0  0  0
  127.1960  128.5980   58.3050 N   0  0  0  0  0  0  0  0  0  0  0  0
  127.8200  129.7320   57.5950 C   0  0  0  0  0  0  0  0  0  0  0  0
  127.1320  130.0630   56.2540 C   0  0  0  0  0  0  0  0  0  0  0  0
  125.7470  130.2960   56.4620 O   0  0  0  0  0  0  0  0  0  0  0  0
  125.1020  129.1600   57.0190 C   0  0  0  0  0  0  0  0  0  0  0  0
  125.7380  128.8100   58.3810 C   0  0  0  0  0  0  0  0  0  0  0  0
  129.3000  127.9590   59.3240 C   0  0  0  0  0  0  0  0  0  0  0  0
  130.0210  127.3370   60.3380 C   0  0  0  0  0  0  0  0  0  0  0  0
  131.0830  125.0200   62.2690 C   0  0  0  0  0  0  0  0  0  0  0  0
  131.5880  124.3780   61.0830 C   0  0  0  0  0  0  0  0  0  0  0  0
  131.1990  124.7390   59.8180 N   0  0  0  0  0  0  0  0  0  0  0  0
  134.4656  124.3209   59.1107 H   0  0  0  0  0  0  0  0  0  0  0  0
  134.5689  123.1510   57.7516 H   0  0  0  0  0  0  0  0  0  0  0  0
  133.2951  124.4176   57.7516 H   0  0  0  0  0  0  0  0  0  0  0  0
  128.3792  125.6228   66.3859 H   0  0  0  0  0  0  0  0  0  0  0  0
  128.0214  126.3735   68.7172 H   0  0  0  0  0  0  0  0  0  0  0  0
  128.2995  129.0412   69.9128 H   0  0  0  0  0  0  0  0  0  0  0  0
  127.8091  127.5110   70.7875 H   0  0  0  0  0  0  0  0  0  0  0  0
  129.3697  129.8593   71.9608 H   0  0  0  0  0  0  0  0  0  0  0  0
  127.6666  129.3977   72.3190 H   0  0  0  0  0  0  0  0  0  0  0  0
  131.1139  128.4395   72.6556 H   0  0  0  0  0  0  0  0  0  0  0  0
  130.7105  126.9176   73.5306 H   0  0  0  0  0  0  0  0  0  0  0  0
  131.3862  126.5341   71.1378 H   0  0  0  0  0  0  0  0  0  0  0  0
  129.6869  125.9839   71.5297 H   0  0  0  0  0  0  0  0  0  0  0  0
  132.0419  127.9448   68.8257 H   0  0  0  0  0  0  0  0  0  0  0  0
  132.3944  127.2004   66.4913 H   0  0  0  0  0  0  0  0  0  0  0  0
  129.2212  127.3086   63.9974 H   0  0  0  0  0  0  0  0  0  0  0  0
  127.4296  126.2277   62.2490 H   0  0  0  0  0  0  0  0  0  0  0  0
  126.1415  127.3224   60.4328 H   0  0  0  0  0  0  0  0  0  0  0  0
  127.7696  130.6200   58.2422 H   0  0  0  0  0  0  0  0  0  0  0  0
  128.8571  129.4443   57.3678 H   0  0  0  0  0  0  0  0  0  0  0  0
  127.5918  130.9639   55.8215 H   0  0  0  0  0  0  0  0  0  0  0  0
  127.2554  129.2135   55.5661 H   0  0  0  0  0  0  0  0  0  0  0  0
  124.0337  129.3803   57.1612 H   0  0  0  0  0  0  0  0  0  0  0  0
  125.2178  128.3062   56.3351 H   0  0  0  0  0  0  0  0  0  0  0  0
  125.5409  129.6352   59.0811 H   0  0  0  0  0  0  0  0  0  0  0  0
  125.2877  127.8648   58.7185 H   0  0  0  0  0  0  0  0  0  0  0  0
  129.8379  128.4442   58.4962 H   0  0  0  0  0  0  0  0  0  0  0  0
  131.1206  127.3438   60.3094 H   0  0  0  0  0  0  0  0  0  0  0  0
  131.7550  124.5110   59.0060 H   0  0  0  0  0  0  0  0  0  0  0  0
  130.3380  125.2420   59.6540 H   0  0  0  0  0  0  0  0  0  0  0  0
  1  2  1  0
  2  3  1  0
  3  4  2  0
  3  5  1  0
  5  6  1  0
  6  7  1  0
  7  8  2  0
  8  9  1  0
  9 10  1  0
 10 11  2  0
 11 12  1  0
 12 13  2  0
 13 14  1  0
 14 15  1  0
 15 16  1  0
 16 17  1  0
 17 18  1  0
 18 19  1  0
 13 20  1  0
 20 21  2  0
  9 22  2  0
 22 23  1  0
 23 24  1  0
 24 25  2  0
 25 26  1  0
 26 27  2  0
 27 28  1  0
 28 29  1  0
 29 30  1  0
 30 31  1  0
 31 32  1  0
 32 33  1  0
 27 34  1  0
 34 35  2  0
 23 36  2  0
 36 37  1  0
 37 38  1  0
 37  5  2  0
 36  7  1  0
 21 10  1  0
 35 24  1  0
 19 14  1  0
 33 28  1  0
  1 39  1  0
  1 40  1  0
  1 41  1  0
 11 42  1  0
 12 43  1  0
 15 44  1  0
 15 45  1  0
 16 46  1  0
 16 47  1  0
 18 48  1  0
 18 49  1  0
 19 50  1  0
 19 51  1  0
 20 52  1  0
 21 53  1  0
 22 54  1  0
 25 55  1  0
 26 56  1  0
 29 57  1  0
 29 58  1  0
 30 59  1  0
 30 60  1  0
 32 61  1  0
 32 62  1  0
 33 63  1  0
 33 64  1  0
 34 65  1  0
 35 66  1  0
 38 67  1  0
 38 68  1  0
M  END
>  <Binding energies>  (1) 
[-4.53]

>  <Ligand effiencies>  (1) 
[-0.11325]

>  <Interactions>  (1) 
["V-B:GLU:543:CB:9878, V-A:HIS:456:CE1:4068, V-A:HIS:456:CD2:4066, V-B:GLU:543:CD:9880, V-A:GLU:543:CD:4906, V-B:HIS:456:CE1:9042, V-A:GLY:544:CA:4912, H-A:LYS:547:NZ:4949, V-A:GLY:544:C:4910, V-B:HIS:456:CD2:9040, V-B:GLU:543:CG:9879, V-A:GLU:543:CG:4905, V-B:GLU:543:C:9874, V-A:ARG:545:CG:4920, V-A:LYS:547:CE:4948, H-A:TYR:484:OH:4346, V-A:ARG:545:CD:4921, V-A:HIS:456:CG:4064, V-A:GLU:543:C:4900, V-A:ARG:545:CA:4917, V-A:ILE:369:CD1:3237, V-A:ASP:366:CG:3211, V-A:GLY:454:CA:4047, V-B:TYR:539:CE2:9848, V-A:ILE:369:CG2:3235, V-A:ASP:366:CA:3208, V-A:ASP:366:CB:3210, V-A:ILE:369:CB:3234, V-B:ASP:366:CG:8185, V-B:ASP:366:CB:8184, V-A:TYR:539:CZ:4875, V-B:HIS:456:CG:9038, H-A:TYR:539:OH:4876, V-B:TYR:531:CZ:9766, V-B:TYR:531:CE1:9764"]

$$$$
RR10_Rahimova_2017
     RDKit          3D

 66 70  0  0  0  0  0  0  0  0999 V2000
  134.3190  124.9730   62.5690 C   0  0  0  0  0  0  0  0  0  0  0  0
  134.2100  123.7950   61.5840 C   0  0  1  0  0  0  0  0  0  0  0  0
  133.3580  122.6400   62.1590 C   0  0  0  0  0  0  0  0  0  0  0  0
  133.2910  121.4550   61.1690 C   0  0  0  0  0  0  0  0  0  0  0  0
  132.7140  121.8760   59.7920 C   0  0  1  0  0  0  0  0  0  0  0  0
  131.2910  122.2220   59.9080 N   0  0  0  0  0  0  0  0  0  0  0  0
  130.3270  121.4090   60.3780 C   0  0  0  0  0  0  0  0  0  0  0  0
  130.5510  120.2680   60.7890 O   0  0  0  0  0  0  0  0  0  0  0  0
  128.8870  121.9630   60.3700 C   0  0  1  0  0  0  0  0  0  0  0  0
  128.6990  122.9250   61.5720 C   0  0  0  0  0  0  0  0  0  0  0  0
  127.2870  123.5550   61.5150 C   0  0  0  0  0  0  0  0  0  0  0  0
  126.9790  124.1970   60.1430 C   0  0  0  0  0  0  0  0  0  0  0  0
  127.2450  123.2330   59.0400 N   0  0  0  0  0  0  0  0  0  0  0  0
  126.6490  123.7500   57.4540 S   0  0  0  0  0  0  0  0  0  0  0  0
  125.2100  123.4640   57.3920 O   0  0  0  0  0  0  0  0  0  0  0  0
  127.5550  123.2080   56.4330 O   0  0  0  0  0  0  0  0  0  0  0  0
  126.8200  125.5350   57.4510 C   0  0  0  0  0  0  0  0  0  0  0  0
  127.6330  126.1430   56.4890 C   0  0  0  0  0  0  0  0  0  0  0  0
  127.8100  127.5290   56.4340 C   0  0  0  0  0  0  0  0  0  0  0  0
  127.1290  128.2830   57.3930 C   0  0  0  0  0  0  0  0  0  0  0  0
  127.0510  129.6280   57.6670 N   0  0  0  0  0  0  0  0  0  0  0  0
  126.2140  129.7930   58.7510 C   0  0  0  0  0  0  0  0  0  0  0  0
  125.8890  131.1290   59.3530 C   0  0  0  0  0  0  0  0  0  0  0  0
  124.5550  131.5020   59.5740 C   0  0  0  0  0  0  0  0  0  0  0  0
  124.2520  132.7390   60.1360 C   0  0  0  0  0  0  0  0  0  0  0  0
  125.2810  133.6120   60.4800 C   0  0  0  0  0  0  0  0  0  0  0  0
  126.6100  133.2570   60.2680 C   0  0  0  0  0  0  0  0  0  0  0  0
  126.9120  132.0190   59.7060 C   0  0  0  0  0  0  0  0  0  0  0  0
  125.7440  128.6460   59.1890 N   0  0  0  0  0  0  0  0  0  0  0  0
  126.2940  127.6930   58.3720 C   0  0  0  0  0  0  0  0  0  0  0  0
  126.1330  126.3010   58.4000 C   0  0  0  0  0  0  0  0  0  0  0  0
  128.6340  122.7080   59.0350 C   0  0  0  0  0  0  0  0  0  0  0  0
  133.5680  123.0470   59.2360 C   0  0  0  0  0  0  0  0  0  0  0  0
  133.6310  124.2370   60.2200 C   0  0  0  0  0  0  0  0  0  0  0  0
  134.2838  124.5928   63.6006 H   0  0  0  0  0  0  0  0  0  0  0  0
  135.2699  125.5012   62.4051 H   0  0  0  0  0  0  0  0  0  0  0  0
  133.4812  125.6667   62.4051 H   0  0  0  0  0  0  0  0  0  0  0  0
  135.2359  123.4300   61.4284 H   0  0  0  0  0  0  0  0  0  0  0  0
  133.8080  122.2959   63.1019 H   0  0  0  0  0  0  0  0  0  0  0  0
  132.3367  123.0103   62.3319 H   0  0  0  0  0  0  0  0  0  0  0  0
  134.3063  121.0582   61.0217 H   0  0  0  0  0  0  0  0  0  0  0  0
  132.6228  120.6935   61.5974 H   0  0  0  0  0  0  0  0  0  0  0  0
  132.7683  121.0376   59.0820 H   0  0  0  0  0  0  0  0  0  0  0  0
  131.0150  123.0990   59.4920 H   0  0  0  0  0  0  0  0  0  0  0  0
  128.1653  121.1378   60.4605 H   0  0  0  0  0  0  0  0  0  0  0  0
  128.8122  122.3640   62.5114 H   0  0  0  0  0  0  0  0  0  0  0  0
  129.4569  123.7209   61.5256 H   0  0  0  0  0  0  0  0  0  0  0  0
  126.5423  122.7697   61.7119 H   0  0  0  0  0  0  0  0  0  0  0  0
  127.2459  124.3512   62.2728 H   0  0  0  0  0  0  0  0  0  0  0  0
  125.9210  124.4965   60.1137 H   0  0  0  0  0  0  0  0  0  0  0  0
  127.6277  125.0753   60.0096 H   0  0  0  0  0  0  0  0  0  0  0  0
  128.1497  125.5106   55.7520 H   0  0  0  0  0  0  0  0  0  0  0  0
  128.4518  128.0009   55.6754 H   0  0  0  0  0  0  0  0  0  0  0  0
  127.5070  130.3960   57.1950 H   0  0  0  0  0  0  0  0  0  0  0  0
  123.7427  130.8123   59.3013 H   0  0  0  0  0  0  0  0  0  0  0  0
  123.2040  133.0257   60.3077 H   0  0  0  0  0  0  0  0  0  0  0  0
  125.0415  134.5900   60.9228 H   0  0  0  0  0  0  0  0  0  0  0  0
  127.4180  133.9509   60.5430 H   0  0  0  0  0  0  0  0  0  0  0  0
  127.9620  131.7377   59.5379 H   0  0  0  0  0  0  0  0  0  0  0  0
  125.4837  125.8229   59.1482 H   0  0  0  0  0  0  0  0  0  0  0  0
  128.7642  122.0128   58.1925 H   0  0  0  0  0  0  0  0  0  0  0  0
  129.3483  123.5375   58.9269 H   0  0  0  0  0  0  0  0  0  0  0  0
  134.5900  122.6845   59.0514 H   0  0  0  0  0  0  0  0  0  0  0  0
  133.0965  123.3996   58.3068 H   0  0  0  0  0  0  0  0  0  0  0  0
  134.2722  125.0229   59.7942 H   0  0  0  0  0  0  0  0  0  0  0  0
  132.6109  124.6170   60.3777 H   0  0  0  0  0  0  0  0  0  0  0  0
  1  2  1  0
  2  3  1  0
  3  4  1  0
  4  5  1  0
  5  6  1  0
  6  7  1  0
  7  8  2  0
  7  9  1  0
  9 10  1  0
 10 11  1  0
 11 12  1  0
 12 13  1  0
 13 14  1  0
 14 15  2  0
 14 16  2  0
 14 17  1  0
 17 18  2  0
 18 19  1  0
 19 20  2  0
 20 21  1  0
 21 22  1  0
 22 23  1  0
 23 24  2  0
 24 25  1  0
 25 26  2  0
 26 27  1  0
 27 28  2  0
 22 29  2  0
 29 30  1  0
 30 31  2  0
 13 32  1  0
  5 33  1  0
 33 34  1  0
 34  2  1  0
 32  9  1  0
 31 17  1  0
 30 20  1  0
 28 23  1  0
  1 35  1  0
  1 36  1  0
  1 37  1  0
  2 38  1  6
  3 39  1  0
  3 40  1  0
  4 41  1  0
  4 42  1  0
  5 43  1  6
  6 44  1  0
  9 45  1  1
 10 46  1  0
 10 47  1  0
 11 48  1  0
 11 49  1  0
 12 50  1  0
 12 51  1  0
 18 52  1  0
 19 53  1  0
 21 54  1  0
 24 55  1  0
 25 56  1  0
 26 57  1  0
 27 58  1  0
 28 59  1  0
 31 60  1  0
 32 61  1  0
 32 62  1  0
 33 63  1  0
 33 64  1  0
 34 65  1  0
 34 66  1  0
M  END
>  <Binding energies>  (1) 
[-8.36]

>  <Ligand effiencies>  (1) 
[-0.23222222222222222]

>  <Interactions>  (1) 
["V-B:GLU:543:CD:9880, V-A:ARG:545:CZ:4924, V-B:PRO:540:C:9853, V-A:GLY:453:C:4040, V-A:ILE:369:CD1:3237, V-A:LEU:475:CD2:4257, V-B:PRO:540:CA:9855, V-A:GLY:453:CA:4042, V-B:TYR:539:C:9839, V-B:ALA:541:CA:9862, V-A:ASP:366:CG:3211, V-A:GLY:454:CA:4047, V-B:ALA:541:CB:9864, V-B:TYR:539:CD2:9846, V-B:TYR:539:CE2:9848, V-A:ILE:369:CG2:3235, V-B:PRO:540:N:9856, V-A:ILE:369:CB:3234, V-B:ASP:366:CG:8185, V-B:ILE:369:CD1:8211, V-A:TYR:539:CE2:4874, V-B:ILE:369:CG2:8209, V-A:TYR:539:CD2:4872, H-B:TYR:539:N:9842"]

$$$$
RR11_Rahimova_2017
     RDKit          3D

 55 60  0  0  0  0  0  0  0  0999 V2000
  134.2420  123.7290   57.4070 N   0  0  0  0  0  0  0  0  0  0  0  0
  133.2340  124.6230   57.7630 C   0  0  0  0  0  0  0  0  0  0  0  0
  132.7450  124.6330   59.0680 C   0  0  0  0  0  0  0  0  0  0  0  0
  131.7400  125.5290   59.4230 C   0  0  0  0  0  0  0  0  0  0  0  0
  131.2160  126.4220   58.4790 C   0  0  0  0  0  0  0  0  0  0  0  0
  130.1380  127.3910   58.8650 C   0  0  0  0  0  0  0  0  0  0  0  0
  129.1800  127.1310   59.7290 N   0  0  0  0  0  0  0  0  0  0  0  0
  128.4320  128.2770   59.7940 C   0  0  0  0  0  0  0  0  0  0  0  0
  127.2950  128.5500   60.5680 C   0  0  0  0  0  0  0  0  0  0  0  0
  126.7120  129.8190   60.4710 C   0  0  0  0  0  0  0  0  0  0  0  0
  125.4730  130.1420   61.2940 C   0  0  0  0  0  0  0  0  0  0  0  0
  125.6340  129.7990   62.7680 C   0  0  0  0  0  0  0  0  0  0  0  0
  124.5350  129.9190   63.6270 C   0  0  0  0  0  0  0  0  0  0  0  0
  124.6310  129.6080   64.9850 C   0  0  0  0  0  0  0  0  0  0  0  0
  125.8650  129.1610   65.4750 C   0  0  0  0  0  0  0  0  0  0  0  0
  126.2150  128.8040   66.7510 N   0  0  0  0  0  0  0  0  0  0  0  0
  127.4850  128.4660   66.6820 C   0  0  0  0  0  0  0  0  0  0  0  0
  128.3090  128.0160   67.8540 C   0  0  0  0  0  0  0  0  0  0  0  0
  127.6910  127.6300   69.0500 C   0  0  0  0  0  0  0  0  0  0  0  0
  128.4550  127.2220   70.1410 C   0  0  0  0  0  0  0  0  0  0  0  0
  129.8450  127.1980   70.0420 C   0  0  0  0  0  0  0  0  0  0  0  0
  130.6110  126.7940   71.1350 N   0  0  0  0  0  0  0  0  0  0  0  0
  130.4720  127.5750   68.8570 C   0  0  0  0  0  0  0  0  0  0  0  0
  129.7070  127.9820   67.7680 C   0  0  0  0  0  0  0  0  0  0  0  0
  127.9800  128.5830   65.4010 N   0  0  0  0  0  0  0  0  0  0  0  0
  126.9640  129.0330   64.5920 C   0  0  0  0  0  0  0  0  0  0  0  0
  126.8730  129.3370   63.2320 C   0  0  0  0  0  0  0  0  0  0  0  0
  127.2400  130.7810   59.6020 C   0  0  0  0  0  0  0  0  0  0  0  0
  128.3680  130.5390   58.8150 C   0  0  0  0  0  0  0  0  0  0  0  0
  128.9490  129.2740   58.9340 C   0  0  0  0  0  0  0  0  0  0  0  0
  130.0390  128.6680   58.3540 N   0  0  0  0  0  0  0  0  0  0  0  0
  131.7170  126.4000   57.1710 C   0  0  0  0  0  0  0  0  0  0  0  0
  132.7220  125.5050   56.8130 C   0  0  0  0  0  0  0  0  0  0  0  0
  134.8500  123.9480   56.6310 H   0  0  0  0  0  0  0  0  0  0  0  0
  134.3770  122.8910   57.9540 H   0  0  0  0  0  0  0  0  0  0  0  0
  133.1516  123.9354   59.8151 H   0  0  0  0  0  0  0  0  0  0  0  0
  131.3542  125.5358   60.4531 H   0  0  0  0  0  0  0  0  0  0  0  0
  126.8713  127.7852   61.2355 H   0  0  0  0  0  0  0  0  0  0  0  0
  125.2635  131.2182   61.2051 H   0  0  0  0  0  0  0  0  0  0  0  0
  124.6476  129.5300   60.9013 H   0  0  0  0  0  0  0  0  0  0  0  0
  123.5729  130.2666   63.2225 H   0  0  0  0  0  0  0  0  0  0  0  0
  123.7619  129.7111   65.6514 H   0  0  0  0  0  0  0  0  0  0  0  0
  126.5940  127.6491   69.1285 H   0  0  0  0  0  0  0  0  0  0  0  0
  127.9630  126.9198   71.0773 H   0  0  0  0  0  0  0  0  0  0  0  0
  130.6230  125.8200   71.4010 H   0  0  0  0  0  0  0  0  0  0  0  0
  131.1730  127.4760   71.6260 H   0  0  0  0  0  0  0  0  0  0  0  0
  131.5692  127.5511   68.7820 H   0  0  0  0  0  0  0  0  0  0  0  0
  130.2037  128.2793   66.8326 H   0  0  0  0  0  0  0  0  0  0  0  0
  128.9360  128.3690   65.1540 H   0  0  0  0  0  0  0  0  0  0  0  0
  127.7334  129.2193   62.5568 H   0  0  0  0  0  0  0  0  0  0  0  0
  126.7487  131.7630   59.5366 H   0  0  0  0  0  0  0  0  0  0  0  0
  128.7771  131.3033   58.1378 H   0  0  0  0  0  0  0  0  0  0  0  0
  130.6840  129.0460   57.6760 H   0  0  0  0  0  0  0  0  0  0  0  0
  131.3132  127.0955   56.4205 H   0  0  0  0  0  0  0  0  0  0  0  0
  133.1105  125.4942   55.7839 H   0  0  0  0  0  0  0  0  0  0  0  0
  1  2  1  0
  2  3  2  0
  3  4  1  0
  4  5  2  0
  5  6  1  0
  6  7  2  0
  7  8  1  0
  8  9  2  0
  9 10  1  0
 10 11  1  0
 11 12  1  0
 12 13  2  0
 13 14  1  0
 14 15  2  0
 15 16  1  0
 16 17  2  0
 17 18  1  0
 18 19  2  0
 19 20  1  0
 20 21  2  0
 21 22  1  0
 21 23  1  0
 23 24  2  0
 17 25  1  0
 25 26  1  0
 26 27  2  0
 10 28  2  0
 28 29  1  0
 29 30  2  0
 30 31  1  0
  5 32  1  0
 32 33  2  0
 33  2  1  0
 31  6  1  0
 30  8  1  0
 27 12  1  0
 26 15  1  0
 24 18  1  0
  1 34  1  0
  1 35  1  0
  3 36  1  0
  4 37  1  0
  9 38  1  0
 11 39  1  0
 11 40  1  0
 13 41  1  0
 14 42  1  0
 19 43  1  0
 20 44  1  0
 22 45  1  0
 22 46  1  0
 23 47  1  0
 24 48  1  0
 25 49  1  0
 27 50  1  0
 28 51  1  0
 29 52  1  0
 31 53  1  0
 32 54  1  0
 33 55  1  0
M  END
>  <Binding energies>  (1) 
[-6.04]

>  <Ligand effiencies>  (1) 
[-0.15487179487179487]

>  <Interactions>  (1) 
["V-B:ARG:545:CZ:9898, V-A:HIS:456:CE1:4068, V-A:HIS:456:CD2:4066, V-B:GLU:543:CD:9880, H-B:TYR:484:OH:9320, H-A:HIS:456:NE2:4069, V-A:GLU:543:CD:4906, V-B:HIS:456:CE1:9042, V-B:GLY:544:C:9884, V-A:GLY:544:C:4910, H-B:GLU:543:O:9875, H-B:ARG:545:NE:9896, V-A:GLU:543:CB:4904, V-A:GLU:543:CG:4905, V-B:GLU:543:C:9874, V-A:HIS:456:CG:4064, V-A:GLU:543:C:4900, V-B:TYR:539:CZ:9849, V-A:ASP:366:CG:3211, V-B:TYR:539:CE2:9848, V-A:ILE:369:CG2:3235, V-A:ASP:366:CA:3208, V-A:ASP:366:CB:3210, V-A:ASP:366:C:3206, V-A:ILE:369:CB:3234, H-A:TYR:531:OH:4793, V-B:ASP:366:CG:8185, H-A:GLU:543:OE2:4908, H-A:GLU:543:OE1:4907, H-B:TYR:539:OH:9850, H-B:HIS:456:ND1:9039, H-A:GLY:544:O:4911, H-B:GLU:543:OE2:9882, V-A:TYR:531:CE1:4790, V-B:ARG:545:CG:9894, V-B:ARG:545:CD:9895, H-A:ASP:366:O:3207, H-A:GLU:543:O:4901, H-A:ASP:366:OD2:3213"]

$$$$
RR11_Rahimova_2017-again1
     RDKit          3D

 56 61  0  0  0  0  0  0  0  0999 V2000
  134.4140  123.8750   57.3330 N   0  0  0  0  0  0  0  0  0  0  0  0
  133.2520  124.6230   57.5190 C   0  0  0  0  0  0  0  0  0  0  0  0
  132.6020  124.6020   58.7510 C   0  0  0  0  0  0  0  0  0  0  0  0
  131.4400  125.3480   58.9340 C   0  0  0  0  0  0  0  0  0  0  0  0
  130.9190  126.1190   57.8870 C   0  0  0  0  0  0  0  0  0  0  0  0
  129.6610  126.9160   58.0820 C   0  0  0  0  0  0  0  0  0  0  0  0
  128.6120  126.8510   57.2940 N   0  0  0  0  0  0  0  0  0  0  0  0
  127.7110  127.7430   57.8150 C   0  0  0  0  0  0  0  0  0  0  0  0
  126.4280  128.0760   57.3620 C   0  0  0  0  0  0  0  0  0  0  0  0
  125.7090  129.0390   58.0720 C   0  0  0  0  0  0  0  0  0  0  0  0
  126.2420  129.6660   59.2040 C   0  0  0  0  0  0  0  0  0  0  0  0
  125.4160  130.7140   59.9370 C   0  0  0  0  0  0  0  0  0  0  0  0
  125.4680  130.5480   61.4490 C   0  0  0  0  0  0  0  0  0  0  0  0
  124.5900  131.2820   62.2560 C   0  0  0  0  0  0  0  0  0  0  0  0
  124.5930  131.1730   63.6490 C   0  0  0  0  0  0  0  0  0  0  0  0
  125.5180  130.2850   64.2060 C   0  0  0  0  0  0  0  0  0  0  0  0
  125.7970  129.9450   65.5230 N   0  0  0  0  0  0  0  0  0  0  0  0
  126.8120  129.0170   65.5660 C   0  0  0  0  0  0  0  0  0  0  0  0
  127.4200  128.4070   66.7870 C   0  0  0  0  0  0  0  0  0  0  0  0
  126.6310  127.6500   67.6610 C   0  0  0  0  0  0  0  0  0  0  0  0
  127.1940  127.0720   68.7960 C   0  0  0  0  0  0  0  0  0  0  0  0
  128.5510  127.2500   69.0630 C   0  0  0  0  0  0  0  0  0  0  0  0
  129.1140  126.6670   70.1970 N   0  0  0  0  0  0  0  0  0  0  0  0
  129.3450  128.0030   68.2000 C   0  0  0  0  0  0  0  0  0  0  0  0
  128.7820  128.5810   67.0660 C   0  0  0  0  0  0  0  0  0  0  0  0
  127.1650  128.7680   64.2600 N   0  0  0  0  0  0  0  0  0  0  0  0
  126.3920  129.5350   63.4010 C   0  0  0  0  0  0  0  0  0  0  0  0
  126.3800  129.6430   62.0080 C   0  0  0  0  0  0  0  0  0  0  0  0
  127.5140  129.3330   59.6890 C   0  0  0  0  0  0  0  0  0  0  0  0
  128.2310  128.3740   58.9700 C   0  0  0  0  0  0  0  0  0  0  0  0
  129.4780  127.8130   59.1130 N   0  0  0  0  0  0  0  0  0  0  0  0
  131.5840  126.1320   56.6530 C   0  0  0  0  0  0  0  0  0  0  0  0
  132.7460  125.3880   56.4700 C   0  0  0  0  0  0  0  0  0  0  0  0
  134.5910  123.0780   57.9260 H   0  0  0  0  0  0  0  0  0  0  0  0
  135.0840  124.1630   56.6350 H   0  0  0  0  0  0  0  0  0  0  0  0
  133.0053  123.9979   59.5771 H   0  0  0  0  0  0  0  0  0  0  0  0
  130.9280  125.3315   59.9074 H   0  0  0  0  0  0  0  0  0  0  0  0
  125.9992  127.5923   56.4719 H   0  0  0  0  0  0  0  0  0  0  0  0
  124.6986  129.3118   57.7334 H   0  0  0  0  0  0  0  0  0  0  0  0
  125.8023  131.7110   59.6786 H   0  0  0  0  0  0  0  0  0  0  0  0
  124.3686  130.5911   59.6243 H   0  0  0  0  0  0  0  0  0  0  0  0
  123.8744  131.9669   61.7776 H   0  0  0  0  0  0  0  0  0  0  0  0
  123.9024  131.7564   64.2757 H   0  0  0  0  0  0  0  0  0  0  0  0
  125.3550  130.3030   66.3570 H   0  0  0  0  0  0  0  0  0  0  0  0
  125.5604  127.5109   67.4501 H   0  0  0  0  0  0  0  0  0  0  0  0
  126.5704  126.4771   69.4795 H   0  0  0  0  0  0  0  0  0  0  0  0
  128.7720  125.7730   70.5200 H   0  0  0  0  0  0  0  0  0  0  0  0
  129.8390  127.1570   70.7000 H   0  0  0  0  0  0  0  0  0  0  0  0
  130.4151  128.1403   68.4148 H   0  0  0  0  0  0  0  0  0  0  0  0
  129.4088  129.1768   66.3861 H   0  0  0  0  0  0  0  0  0  0  0  0
  127.8950  128.1160   64.0140 H   0  0  0  0  0  0  0  0  0  0  0  0
  127.0557  129.0449   61.3789 H   0  0  0  0  0  0  0  0  0  0  0  0
  127.9279  129.8043   60.5926 H   0  0  0  0  0  0  0  0  0  0  0  0
  130.1760  127.9970   59.8190 H   0  0  0  0  0  0  0  0  0  0  0  0
  131.1847  126.7343   55.8237 H   0  0  0  0  0  0  0  0  0  0  0  0
  133.2637  125.4039   55.4996 H   0  0  0  0  0  0  0  0  0  0  0  0
  1  2  1  0
  2  3  2  0
  3  4  1  0
  4  5  2  0
  5  6  1  0
  6  7  2  0
  7  8  1  0
  8  9  2  0
  9 10  1  0
 10 11  2  0
 11 12  1  0
 12 13  1  0
 13 14  2  0
 14 15  1  0
 15 16  2  0
 16 17  1  0
 17 18  1  0
 18 19  1  0
 19 20  2  0
 20 21  1  0
 21 22  2  0
 22 23  1  0
 22 24  1  0
 24 25  2  0
 18 26  2  0
 26 27  1  0
 27 28  2  0
 11 29  1  0
 29 30  2  0
 30 31  1  0
  5 32  1  0
 32 33  2  0
 33  2  1  0
 31  6  1  0
 30  8  1  0
 28 13  1  0
 27 16  1  0
 25 19  1  0
  1 34  1  0
  1 35  1  0
  3 36  1  0
  4 37  1  0
  9 38  1  0
 10 39  1  0
 12 40  1  0
 12 41  1  0
 14 42  1  0
 15 43  1  0
 17 44  1  0
 20 45  1  0
 21 46  1  0
 23 47  1  0
 23 48  1  0
 24 49  1  0
 25 50  1  0
 26 51  1  0
 28 52  1  0
 29 53  1  0
 31 54  1  0
 32 55  1  0
 33 56  1  0
M  CHG  1  26   1
M  END
>  <Binding energies>  (1) 
[-7.6]

>  <Ligand effiencies>  (1) 
[-0.19]

>  <Interactions>  (1) 
["V-B:ARG:545:CZ:9898, V-A:HIS:456:CE1:4068, V-A:HIS:456:CD2:4066, V-B:GLU:543:CD:9880, H-B:TYR:484:OH:9320, H-A:HIS:456:NE2:4069, V-A:GLU:543:CD:4906, V-B:HIS:456:CE1:9042, V-B:GLY:544:C:9884, H-B:GLU:543:O:9875, V-A:GLU:543:CB:4904, V-B:GLU:543:CG:9879, V-A:GLU:543:CG:4905, V-B:GLU:543:C:9874, H-B:GLU:543:OE1:9881, V-A:GLU:543:C:4900, V-B:TYR:539:CZ:9849, V-A:ASP:366:CG:3211, V-B:TYR:539:CE2:9848, V-A:ILE:369:CG2:3235, V-A:ASP:366:CA:3208, V-A:ASP:366:CB:3210, V-A:ASP:366:C:3206, V-A:ILE:369:CB:3234, V-B:ASP:366:CG:8185, V-A:TYR:531:CZ:4792, V-B:GLY:454:CA:9021, V-B:ASP:366:CB:8184, V-B:TYR:484:CZ:9319, H-A:GLU:543:OE2:4908, H-A:GLU:543:OE1:4907, H-B:TYR:539:OH:9850, H-B:HIS:456:NE2:9043, H-A:GLY:544:O:4911, H-B:GLU:543:OE2:9882, V-A:TYR:531:CE1:4790, V-B:ARG:545:CG:9894, V-B:ARG:545:CD:9895, H-A:ASP:366:O:3207, H-A:GLU:543:O:4901, H-A:ASP:366:OD2:3213"]

$$$$
RR11_Rahimova_2017-again2
     RDKit          3D

 57 62  0  0  0  0  0  0  0  0999 V2000
  129.0180  126.6720   70.2020 N   0  0  0  0  0  0  0  0  0  0  0  0
  128.4830  127.2540   69.0540 C   0  0  0  0  0  0  0  0  0  0  0  0
  129.2950  128.0180   68.2200 C   0  0  0  0  0  0  0  0  0  0  0  0
  128.7580  128.6040   67.0760 C   0  0  0  0  0  0  0  0  0  0  0  0
  127.4050  128.4280   66.7610 C   0  0  0  0  0  0  0  0  0  0  0  0
  126.8270  129.0640   65.5390 C   0  0  0  0  0  0  0  0  0  0  0  0
  127.1200  128.7540   64.2310 N   0  0  0  0  0  0  0  0  0  0  0  0
  126.3680  129.5450   63.3730 C   0  0  0  0  0  0  0  0  0  0  0  0
  126.3010  129.6000   61.9780 C   0  0  0  0  0  0  0  0  0  0  0  0
  125.4030  130.5200   61.4220 C   0  0  0  0  0  0  0  0  0  0  0  0
  125.2810  130.6220   59.9080 C   0  0  0  0  0  0  0  0  0  0  0  0
  126.0900  129.5580   59.1780 C   0  0  0  0  0  0  0  0  0  0  0  0
  125.5010  128.8440   58.1270 C   0  0  0  0  0  0  0  0  0  0  0  0
  126.1930  127.8570   57.4200 C   0  0  0  0  0  0  0  0  0  0  0  0
  127.5120  127.6140   57.8110 C   0  0  0  0  0  0  0  0  0  0  0  0
  128.4640  126.7180   57.3460 N   0  0  0  0  0  0  0  0  0  0  0  0
  129.6310  126.8530   58.0610 C   0  0  0  0  0  0  0  0  0  0  0  0
  130.8880  126.0640   57.8850 C   0  0  0  0  0  0  0  0  0  0  0  0
  131.5900  126.1160   56.6750 C   0  0  0  0  0  0  0  0  0  0  0  0
  132.7670  125.3900   56.5130 C   0  0  0  0  0  0  0  0  0  0  0  0
  133.2480  124.6080   57.5610 C   0  0  0  0  0  0  0  0  0  0  0  0
  134.4300  123.8850   57.4020 N   0  0  0  0  0  0  0  0  0  0  0  0
  132.5550  124.5450   58.7690 C   0  0  0  0  0  0  0  0  0  0  0  0
  131.3790  125.2730   58.9300 C   0  0  0  0  0  0  0  0  0  0  0  0
  129.4090  127.8510   58.9800 N   0  0  0  0  0  0  0  0  0  0  0  0
  128.1130  128.3360   58.8550 C   0  0  0  0  0  0  0  0  0  0  0  0
  127.4190  129.3280   59.5550 C   0  0  0  0  0  0  0  0  0  0  0  0
  124.6330  131.3620   62.2330 C   0  0  0  0  0  0  0  0  0  0  0  0
  124.7010  131.3170   63.6280 C   0  0  0  0  0  0  0  0  0  0  0  0
  125.5830  130.3840   64.1810 C   0  0  0  0  0  0  0  0  0  0  0  0
  125.8870  130.0680   65.4990 N   0  0  0  0  0  0  0  0  0  0  0  0
  126.5990  127.6540   67.6040 C   0  0  0  0  0  0  0  0  0  0  0  0
  127.1360  127.0680   68.7480 C   0  0  0  0  0  0  0  0  0  0  0  0
  129.2340  125.6860   70.2060 H   0  0  0  0  0  0  0  0  0  0  0  0
  129.1230  127.2280   71.0390 H   0  0  0  0  0  0  0  0  0  0  0  0
  130.3584  128.1586   68.4640 H   0  0  0  0  0  0  0  0  0  0  0  0
  129.3996  129.2076   66.4172 H   0  0  0  0  0  0  0  0  0  0  0  0
  127.7880  128.0390   63.9820 H   0  0  0  0  0  0  0  0  0  0  0  0
  126.9247  128.9508   61.3459 H   0  0  0  0  0  0  0  0  0  0  0  0
  124.2221  130.5092   59.6323 H   0  0  0  0  0  0  0  0  0  0  0  0
  125.6781  131.6033   59.6090 H   0  0  0  0  0  0  0  0  0  0  0  0
  124.4604  129.0672   57.8491 H   0  0  0  0  0  0  0  0  0  0  0  0
  125.7226  127.2993   56.5968 H   0  0  0  0  0  0  0  0  0  0  0  0
  128.3620  126.0440   56.6000 H   0  0  0  0  0  0  0  0  0  0  0  0
  131.2098  126.7336   55.8479 H   0  0  0  0  0  0  0  0  0  0  0  0
  133.3155  125.4337   55.5605 H   0  0  0  0  0  0  0  0  0  0  0  0
  134.6570  123.1520   58.0570 H   0  0  0  0  0  0  0  0  0  0  0  0
  135.0770  124.1460   56.6720 H   0  0  0  0  0  0  0  0  0  0  0  0
  132.9358  123.9224   59.5920 H   0  0  0  0  0  0  0  0  0  0  0  0
  130.8329  125.2262   59.8837 H   0  0  0  0  0  0  0  0  0  0  0  0
  130.1160  128.1490   59.6370 H   0  0  0  0  0  0  0  0  0  0  0  0
  127.8950  129.9011   60.3643 H   0  0  0  0  0  0  0  0  0  0  0  0
  123.9521  132.0827   61.7565 H   0  0  0  0  0  0  0  0  0  0  0  0
  124.0919  131.9815   64.2585 H   0  0  0  0  0  0  0  0  0  0  0  0
  125.5000  130.4800   66.3350 H   0  0  0  0  0  0  0  0  0  0  0  0
  125.5360  127.5077   67.3618 H   0  0  0  0  0  0  0  0  0  0  0  0
  126.4991  126.4605   69.4077 H   0  0  0  0  0  0  0  0  0  0  0  0
  1  2  1  0
  2  3  2  0
  3  4  1  0
  4  5  2  0
  5  6  1  0
  6  7  1  0
  7  8  1  0
  8  9  2  0
  9 10  1  0
 10 11  1  0
 11 12  1  0
 12 13  2  0
 13 14  1  0
 14 15  2  0
 15 16  1  0
 16 17  1  0
 17 18  1  0
 18 19  2  0
 19 20  1  0
 20 21  2  0
 21 22  1  0
 21 23  1  0
 23 24  2  0
 17 25  2  0
 25 26  1  0
 26 27  2  0
 10 28  2  0
 28 29  1  0
 29 30  2  0
 30 31  1  0
  5 32  1  0
 32 33  2  0
 33  2  1  0
 31  6  2  0
 30  8  1  0
 27 12  1  0
 26 15  1  0
 24 18  1  0
  1 34  1  0
  1 35  1  0
  3 36  1  0
  4 37  1  0
  7 38  1  0
  9 39  1  0
 11 40  1  0
 11 41  1  0
 13 42  1  0
 14 43  1  0
 16 44  1  0
 19 45  1  0
 20 46  1  0
 22 47  1  0
 22 48  1  0
 23 49  1  0
 24 50  1  0
 25 51  1  0
 27 52  1  0
 28 53  1  0
 29 54  1  0
 31 55  1  0
 32 56  1  0
 33 57  1  0
M  CHG  2  25   1  31   1
M  END
>  <Binding energies>  (1) 
[-7.95]

>  <Ligand effiencies>  (1) 
[-0.19390243902439025]

>  <Interactions>  (1) 
["V-B:ARG:545:CZ:9898, V-A:HIS:456:CE1:4068, V-B:GLU:543:CD:9880, H-B:TYR:484:OH:9320, H-A:HIS:456:NE2:4069, V-A:GLU:543:CD:4906, V-B:HIS:456:CE1:9042, V-B:GLY:544:C:9884, H-B:GLU:543:O:9875, V-A:GLU:543:CB:4904, V-B:GLU:543:CG:9879, V-A:GLU:543:CG:4905, V-B:GLU:543:C:9874, H-B:GLU:543:OE1:9881, V-A:GLU:543:C:4900, V-B:TYR:539:CZ:9849, V-A:ASP:366:CG:3211, V-B:TYR:539:CE2:9848, V-A:ILE:369:CG2:3235, V-A:ASP:366:CA:3208, V-A:ASP:366:CB:3210, V-A:ASP:366:C:3206, V-A:ILE:369:CB:3234, V-B:ASP:366:CG:8185, V-A:TYR:531:CZ:4792, V-B:GLY:454:CA:9021, V-B:ASP:366:CB:8184, V-B:TYR:484:CZ:9319, H-A:GLU:543:OE2:4908, H-A:GLU:543:OE1:4907, H-B:TYR:539:OH:9850, H-B:HIS:456:NE2:9043, H-B:GLU:543:OE2:9882, V-A:TYR:531:CE1:4790, V-B:ARG:545:CG:9894, V-B:ARG:545:CD:9895, H-A:ASP:366:O:3207, H-A:GLU:543:O:4901, H-A:ASP:366:OD2:3213, V-B:ARG:545:CA:9891"]

$$$$
RR12_Rahimova_2017
     RDKit          3D

 51 53  0  0  0  0  0  0  0  0999 V2000
  126.7500  129.1480   65.9780 C   0  0  0  0  0  0  0  0  0  0  0  0
  128.0020  128.8200   66.8010 C   0  0  0  0  0  0  0  0  0  0  0  0
  127.8270  127.5590   67.6680 C   0  0  0  0  0  0  0  0  0  0  0  0
  128.8860  127.4680   68.6700 N   0  0  0  0  0  0  0  0  0  0  0  0
  130.2490  127.3410   68.4490 C   0  0  0  0  0  0  0  0  0  0  0  0
  130.8760  127.2250   67.0700 C   0  0  0  0  0  0  0  0  0  0  0  0
  130.2550  126.0900   66.2360 C   0  0  0  0  0  0  0  0  0  0  0  0
  131.2940  125.0450   65.7850 C   0  0  0  0  0  0  0  0  0  0  0  0
  131.3830  124.8900   64.3340 N   0  0  0  0  0  0  0  0  0  0  0  0
  132.5290  124.8760   63.6280 C   0  0  0  0  0  0  0  0  0  0  0  0
  133.6420  124.9980   64.1440 O   0  0  0  0  0  0  0  0  0  0  0  0
  132.3730  124.6890   62.1130 C   0  0  0  0  0  0  0  0  0  0  0  0
  131.1510  124.0010   61.8410 O   0  0  0  0  0  0  0  0  0  0  0  0
  131.1970  122.7070   61.3570 C   0  0  0  0  0  0  0  0  0  0  0  0
  132.4520  122.2360   60.9640 C   0  0  0  0  0  0  0  0  0  0  0  0
  132.5980  120.9430   60.4670 C   0  0  0  0  0  0  0  0  0  0  0  0
  131.4850  120.1150   60.3630 C   0  0  0  0  0  0  0  0  0  0  0  0
  130.2260  120.5690   60.7490 C   0  0  0  0  0  0  0  0  0  0  0  0
  130.0800  121.8620   61.2450 C   0  0  0  0  0  0  0  0  0  0  0  0
  130.9530  127.3110   69.5530 N   0  0  0  0  0  0  0  0  0  0  0  0
  130.0370  127.4490   70.5580 C   0  0  0  0  0  0  0  0  0  0  0  0
  130.2490  127.4960   71.9440 C   0  0  0  0  0  0  0  0  0  0  0  0
  129.1370  127.6520   72.7730 C   0  0  0  0  0  0  0  0  0  0  0  0
  127.8500  127.7590   72.2470 C   0  0  0  0  0  0  0  0  0  0  0  0
  127.6070  127.7150   70.8720 C   0  0  0  0  0  0  0  0  0  0  0  0
  128.7220  127.5570   70.0400 C   0  0  0  0  0  0  0  0  0  0  0  0
  125.9124  129.3674   66.6564 H   0  0  0  0  0  0  0  0  0  0  0  0
  126.9475  130.0247   65.3437 H   0  0  0  0  0  0  0  0  0  0  0  0
  126.4922  128.2871   65.3437 H   0  0  0  0  0  0  0  0  0  0  0  0
  128.8445  128.6598   66.1121 H   0  0  0  0  0  0  0  0  0  0  0  0
  128.1871  129.6669   67.4781 H   0  0  0  0  0  0  0  0  0  0  0  0
  126.8524  127.6030   68.1762 H   0  0  0  0  0  0  0  0  0  0  0  0
  127.8797  126.6735   67.0175 H   0  0  0  0  0  0  0  0  0  0  0  0
  130.7319  128.1755   66.5355 H   0  0  0  0  0  0  0  0  0  0  0  0
  131.9434  126.9961   67.2053 H   0  0  0  0  0  0  0  0  0  0  0  0
  129.4895  125.5853   66.8437 H   0  0  0  0  0  0  0  0  0  0  0  0
  129.8237  126.5414   65.3303 H   0  0  0  0  0  0  0  0  0  0  0  0
  132.2807  125.3517   66.1622 H   0  0  0  0  0  0  0  0  0  0  0  0
  130.9707  124.0754   66.1917 H   0  0  0  0  0  0  0  0  0  0  0  0
  130.5090  124.7810   63.8410 H   0  0  0  0  0  0  0  0  0  0  0  0
  132.3567  125.6732   61.6219 H   0  0  0  0  0  0  0  0  0  0  0  0
  133.2186  124.1005   61.7274 H   0  0  0  0  0  0  0  0  0  0  0  0
  133.3316  122.8912   61.0477 H   0  0  0  0  0  0  0  0  0  0  0  0
  133.5888  120.5783   60.1582 H   0  0  0  0  0  0  0  0  0  0  0  0
  131.6001  119.0931   59.9726 H   0  0  0  0  0  0  0  0  0  0  0  0
  129.3505  119.9087   60.6624 H   0  0  0  0  0  0  0  0  0  0  0  0
  129.0868  122.2231   61.5502 H   0  0  0  0  0  0  0  0  0  0  0  0
  131.2618  127.4124   72.3650 H   0  0  0  0  0  0  0  0  0  0  0  0
  129.2787  127.6913   73.8631 H   0  0  0  0  0  0  0  0  0  0  0  0
  127.0008  127.8817   72.9353 H   0  0  0  0  0  0  0  0  0  0  0  0
  126.5894  127.8003   70.4630 H   0  0  0  0  0  0  0  0  0  0  0  0
  1  2  1  0
  2  3  1  0
  3  4  1  0
  4  5  1  0
  5  6  1  0
  6  7  1  0
  7  8  1  0
  8  9  1  0
  9 10  1  0
 10 11  2  0
 10 12  1  0
 12 13  1  0
 13 14  1  0
 14 15  2  0
 15 16  1  0
 16 17  2  0
 17 18  1  0
 18 19  2  0
  5 20  2  0
 20 21  1  0
 21 22  2  0
 22 23  1  0
 23 24  2  0
 24 25  1  0
 25 26  2  0
 26  4  1  0
 19 14  1  0
 26 21  1  0
  1 27  1  0
  1 28  1  0
  1 29  1  0
  2 30  1  0
  2 31  1  0
  3 32  1  0
  3 33  1  0
  6 34  1  0
  6 35  1  0
  7 36  1  0
  7 37  1  0
  8 38  1  0
  8 39  1  0
  9 40  1  0
 12 41  1  0
 12 42  1  0
 15 43  1  0
 16 44  1  0
 17 45  1  0
 18 46  1  0
 19 47  1  0
 22 48  1  0
 23 49  1  0
 24 50  1  0
 25 51  1  0
M  END
>  <Binding energies>  (1) 
[-7.78]

>  <Ligand effiencies>  (1) 
[-0.28814814814814815]

>  <Interactions>  (1) 
["V-B:GLU:543:CB:9878, V-A:HIS:456:CE1:4068, V-B:GLU:543:CD:9880, V-A:GLU:543:CD:4906, V-B:HIS:456:CE1:9042, V-A:GLY:544:CA:4912, V-B:GLY:544:C:9884, V-A:GLY:544:C:4910, V-B:HIS:456:CD2:9040, V-A:GLU:543:CB:4904, V-B:GLU:543:CG:9879, V-A:GLU:543:CG:4905, H-A:GLY:454:N:4048, V-A:ARG:545:CZ:4924, V-A:ARG:545:CG:4920, V-A:LYS:547:CE:4948, H-A:TYR:484:OH:4346, V-A:TYR:484:CZ:4345, H-A:ARG:545:NH1:4925, H-B:GLU:543:OE1:9881, V-B:GLY:544:CA:9886, H-A:ARG:545:NE:4922, V-A:GLU:543:C:4900, V-A:TRP:381:CZ2:3368, V-A:LEU:475:CD2:4257, V-A:TRP:381:CH2:3370, V-B:ALA:541:CB:9864, V-B:TYR:539:CD2:9846, V-B:TYR:539:CE2:9848, V-A:ILE:369:CG2:3235, H-A:ARG:545:NH2:4926, V-B:HIS:456:CG:9038, H-A:HIS:456:ND1:4065, H-A:ARG:545:N:4918"]

$$$$
RR13_Rahimova_2017
     RDKit          3D

 84 90  0  0  0  0  0  0  0  0999 V2000
  131.9640  131.0600   61.0740 Cl  0  0  0  0  0  0  0  0  0  0  0  0
  131.5470  130.8730   59.4040 C   0  0  0  0  0  0  0  0  0  0  0  0
  132.4490  131.3520   58.4510 C   0  0  0  0  0  0  0  0  0  0  0  0
  132.1620  131.2510   57.0920 C   0  0  0  0  0  0  0  0  0  0  0  0
  130.9670  130.6710   56.6770 C   0  0  0  0  0  0  0  0  0  0  0  0
  130.0620  130.1900   57.6210 C   0  0  0  0  0  0  0  0  0  0  0  0
  130.3390  130.2730   58.9960 C   0  0  0  0  0  0  0  0  0  0  0  0
  129.3080  129.7550   60.0230 C   0  0  1  0  0  0  0  0  0  0  0  0
  127.8790  129.8520   59.4680 C   0  0  0  0  0  0  0  0  0  0  0  0
  127.1420  128.8600   59.0200 N   0  0  0  0  0  0  0  0  0  0  0  0
  125.9450  129.4340   58.6020 N   0  0  0  0  0  0  0  0  0  0  0  0
  125.9830  130.8010   58.7910 N   0  0  0  0  0  0  0  0  0  0  0  0
  127.1950  131.0380   59.3030 N   0  0  0  0  0  0  0  0  0  0  0  0
  127.5880  132.3920   59.6740 C   0  0  0  0  0  0  0  0  0  0  0  0
  127.6870  132.5180   61.2060 C   0  0  0  0  0  0  0  0  0  0  0  0
  126.5740  131.7650   61.9180 C   0  0  0  0  0  0  0  0  0  0  0  0
  125.2480  132.1790   61.7720 C   0  0  0  0  0  0  0  0  0  0  0  0
  124.2300  131.4940   62.4310 C   0  0  0  0  0  0  0  0  0  0  0  0
  124.5430  130.3970   63.2320 C   0  0  0  0  0  0  0  0  0  0  0  0
  125.8630  129.9800   63.3820 C   0  0  0  0  0  0  0  0  0  0  0  0
  126.8820  130.6660   62.7240 C   0  0  0  0  0  0  0  0  0  0  0  0
  129.6210  128.4030   60.5440 N   0  0  0  0  0  0  0  0  0  0  0  0
  129.4980  128.3720   62.0130 C   0  0  0  0  0  0  0  0  0  0  0  0
  129.6920  126.9360   62.5510 C   0  0  0  0  0  0  0  0  0  0  0  0
  131.0340  126.4320   62.2140 N   0  0  0  0  0  0  0  0  0  0  0  0
  131.2940  125.0890   62.7810 C   0  0  1  0  0  0  0  0  0  0  0  0
  131.7100  124.0050   61.7620 C   0  0  0  0  0  0  0  0  0  0  0  0
  133.0570  123.9720   61.3760 C   0  0  0  0  0  0  0  0  0  0  0  0
  133.5250  123.0170   60.4740 C   0  0  0  0  0  0  0  0  0  0  0  0
  132.6460  122.0800   59.9370 C   0  0  0  0  0  0  0  0  0  0  0  0
  131.3020  122.1060   60.2950 C   0  0  0  0  0  0  0  0  0  0  0  0
  130.8220  123.0610   61.1950 C   0  0  0  0  0  0  0  0  0  0  0  0
  129.1210  123.0540   61.5220 Cl  0  0  0  0  0  0  0  0  0  0  0  0
  132.2770  125.1110   63.9540 C   0  0  0  0  0  0  0  0  0  0  0  0
  133.5540  124.8150   63.8840 N   0  0  0  0  0  0  0  0  0  0  0  0
  134.0570  124.9850   65.1700 N   0  0  0  0  0  0  0  0  0  0  0  0
  133.0540  125.4060   66.0180 N   0  0  0  0  0  0  0  0  0  0  0  0
  131.9680  125.4980   65.2410 N   0  0  0  0  0  0  0  0  0  0  0  0
  130.6900  125.9030   65.8170 C   0  0  0  0  0  0  0  0  0  0  0  0
  130.8900  127.0710   66.8000 C   0  0  0  0  0  0  0  0  0  0  0  0
  129.7610  127.1670   67.8150 C   0  0  0  0  0  0  0  0  0  0  0  0
  130.0540  127.2500   69.1780 C   0  0  0  0  0  0  0  0  0  0  0  0
  129.0210  127.3450   70.1070 C   0  0  0  0  0  0  0  0  0  0  0  0
  127.6980  127.3540   69.6680 C   0  0  0  0  0  0  0  0  0  0  0  0
  127.4000  127.2720   68.3090 C   0  0  0  0  0  0  0  0  0  0  0  0
  128.4320  127.1780   67.3800 C   0  0  0  0  0  0  0  0  0  0  0  0
  131.1520  126.4590   60.7450 C   0  0  0  0  0  0  0  0  0  0  0  0
  130.9660  127.9000   60.2140 C   0  0  0  0  0  0  0  0  0  0  0  0
  133.3934  131.8126   58.7765 H   0  0  0  0  0  0  0  0  0  0  0  0
  132.8786  131.6290   56.3479 H   0  0  0  0  0  0  0  0  0  0  0  0
  130.7370  130.5923   55.6042 H   0  0  0  0  0  0  0  0  0  0  0  0
  129.1168  129.7387   57.2849 H   0  0  0  0  0  0  0  0  0  0  0  0
  129.3749  130.4200   60.8967 H   0  0  0  0  0  0  0  0  0  0  0  0
  128.5665  132.6214   59.2269 H   0  0  0  0  0  0  0  0  0  0  0  0
  126.8304  133.0988   59.3046 H   0  0  0  0  0  0  0  0  0  0  0  0
  128.6553  132.1112   61.5330 H   0  0  0  0  0  0  0  0  0  0  0  0
  127.5924  133.5832   61.4638 H   0  0  0  0  0  0  0  0  0  0  0  0
  125.0081  133.0449   61.1374 H   0  0  0  0  0  0  0  0  0  0  0  0
  123.1844  131.8170   62.3199 H   0  0  0  0  0  0  0  0  0  0  0  0
  123.7387  129.8550   63.7511 H   0  0  0  0  0  0  0  0  0  0  0  0
  126.1002  129.1135   64.0167 H   0  0  0  0  0  0  0  0  0  0  0  0
  127.9272  130.3428   62.8389 H   0  0  0  0  0  0  0  0  0  0  0  0
  130.2636  129.0281   62.4527 H   0  0  0  0  0  0  0  0  0  0  0  0
  128.4913  128.7186   62.2894 H   0  0  0  0  0  0  0  0  0  0  0  0
  129.5718  126.9405   63.6444 H   0  0  0  0  0  0  0  0  0  0  0  0
  128.9406  126.2797   62.0877 H   0  0  0  0  0  0  0  0  0  0  0  0
  130.3021  124.7930   63.1532 H   0  0  0  0  0  0  0  0  0  0  0  0
  133.7568  124.7119   61.7916 H   0  0  0  0  0  0  0  0  0  0  0  0
  134.5869  123.0039   60.1872 H   0  0  0  0  0  0  0  0  0  0  0  0
  133.0137  121.3207   59.2311 H   0  0  0  0  0  0  0  0  0  0  0  0
  130.6099  121.3670   59.8651 H   0  0  0  0  0  0  0  0  0  0  0  0
  130.0131  126.2203   65.0101 H   0  0  0  0  0  0  0  0  0  0  0  0
  130.2572  125.0499   66.3601 H   0  0  0  0  0  0  0  0  0  0  0  0
  131.8382  126.9232   67.3376 H   0  0  0  0  0  0  0  0  0  0  0  0
  130.9013  128.0043   66.2179 H   0  0  0  0  0  0  0  0  0  0  0  0
  131.1002  127.2403   69.5175 H   0  0  0  0  0  0  0  0  0  0  0  0
  129.2477  127.4126   71.1813 H   0  0  0  0  0  0  0  0  0  0  0  0
  126.8813  127.4265   70.4013 H   0  0  0  0  0  0  0  0  0  0  0  0
  126.3530  127.2815   67.9719 H   0  0  0  0  0  0  0  0  0  0  0  0
  128.2028  127.1125   66.3061 H   0  0  0  0  0  0  0  0  0  0  0  0
  132.1474  126.0917   60.4548 H   0  0  0  0  0  0  0  0  0  0  0  0
  130.3706  125.8166   60.3130 H   0  0  0  0  0  0  0  0  0  0  0  0
  131.7203  128.5553   60.6740 H   0  0  0  0  0  0  0  0  0  0  0  0
  131.0846  127.8938   59.1204 H   0  0  0  0  0  0  0  0  0  0  0  0
  1  2  1  0
  2  3  2  0
  3  4  1  0
  4  5  2  0
  5  6  1  0
  6  7  2  0
  7  8  1  0
  8  9  1  0
  9 10  2  0
 10 11  1  0
 11 12  2  0
 12 13  1  0
 13 14  1  0
 14 15  1  0
 15 16  1  0
 16 17  2  0
 17 18  1  0
 18 19  2  0
 19 20  1  0
 20 21  2  0
  8 22  1  0
 22 23  1  0
 23 24  1  0
 24 25  1  0
 25 26  1  0
 26 27  1  0
 27 28  2  0
 28 29  1  0
 29 30  2  0
 30 31  1  0
 31 32  2  0
 32 33  1  0
 26 34  1  0
 34 35  2  0
 35 36  1  0
 36 37  2  0
 37 38  1  0
 38 39  1  0
 39 40  1  0
 40 41  1  0
 41 42  2  0
 42 43  1  0
 43 44  2  0
 44 45  1  0
 45 46  2  0
 25 47  1  0
 47 48  1  0
  7  2  1  0
 13  9  1  0
 21 16  1  0
 48 22  1  0
 32 27  1  0
 38 34  1  0
 46 41  1  0
  3 49  1  0
  4 50  1  0
  5 51  1  0
  6 52  1  0
  8 53  1  1
 14 54  1  0
 14 55  1  0
 15 56  1  0
 15 57  1  0
 17 58  1  0
 18 59  1  0
 19 60  1  0
 20 61  1  0
 21 62  1  0
 23 63  1  0
 23 64  1  0
 24 65  1  0
 24 66  1  0
 26 67  1  1
 28 68  1  0
 29 69  1  0
 30 70  1  0
 31 71  1  0
 39 72  1  0
 39 73  1  0
 40 74  1  0
 40 75  1  0
 42 76  1  0
 43 77  1  0
 44 78  1  0
 45 79  1  0
 46 80  1  0
 47 81  1  0
 47 82  1  0
 48 83  1  0
 48 84  1  0
M  END
>  <Binding energies>  (1) 
[-12.95]

>  <Ligand effiencies>  (1) 
[-0.26979166666666665]

>  <Interactions>  (1) 
["V-B:ARG:545:CZ:9898, V-B:GLU:543:CB:9878, V-A:HIS:456:CE1:4068, V-B:GLU:543:CD:9880, V-A:GLU:543:CD:4906, V-B:HIS:456:CE1:9042, V-B:GLY:544:C:9884, V-B:GLU:543:CG:9879, V-A:GLU:543:CG:4905, H-A:GLY:454:N:4048, V-B:GLU:543:C:9874, V-A:ARG:545:CZ:4924, V-A:ARG:545:CG:4920, H-A:TYR:484:OH:4346, V-A:ARG:545:CD:4921, H-A:ARG:545:NE:4922, V-A:ILE:369:CD1:3237, V-A:ASP:366:CG:3211, V-B:ALA:541:CB:9864, V-B:TYR:539:CD2:9846, V-B:TYR:539:CE2:9848, V-A:ILE:369:CG2:3235, V-A:PRO:540:CA:4881, V-A:PRO:540:N:4882, V-A:PRO:540:CB:4883, V-A:TYR:539:CE2:4874, V-A:ALA:541:CB:4890, H-A:ARG:545:NH2:4926, V-A:TYR:539:CD2:4872, V-B:ARG:545:CG:9894, H-A:HIS:456:ND1:4065"]

$$$$
RR14_Rahimova_2017
     RDKit          3D

 76 80  0  0  0  0  0  0  0  0999 V2000
  132.8520  125.2970   64.9380 C   0  0  0  0  0  0  0  0  0  0  0  0
  133.2530  124.6350   63.7440 O   0  0  0  0  0  0  0  0  0  0  0  0
  132.2930  124.2830   62.8150 C   0  0  0  0  0  0  0  0  0  0  0  0
  131.2130  125.1540   62.6750 C   0  0  0  0  0  0  0  0  0  0  0  0
  130.1850  124.8700   61.7810 C   0  0  0  0  0  0  0  0  0  0  0  0
  130.2260  123.7000   61.0190 C   0  0  0  0  0  0  0  0  0  0  0  0
  129.0700  123.3520   60.0890 C   0  0  0  0  0  0  0  0  0  0  0  0
  127.7580  123.6590   60.6560 N   0  0  0  0  0  0  0  0  0  0  0  0
  127.3890  123.1350   61.8310 N   0  0  0  0  0  0  0  0  0  0  0  0
  126.1070  123.6040   62.0380 N   0  0  0  0  0  0  0  0  0  0  0  0
  125.7130  124.4070   60.9720 N   0  0  0  0  0  0  0  0  0  0  0  0
  126.7300  124.4200   60.1420 C   0  0  0  0  0  0  0  0  0  0  0  0
  126.7620  125.1510   58.8070 C   0  0  0  0  0  0  0  0  0  0  0  0
  127.4610  126.4440   58.8910 N   0  0  0  0  0  0  0  0  0  0  0  0
  127.3610  127.0360   60.2310 C   0  0  0  0  0  0  0  0  0  0  0  0
  126.6610  128.4120   60.2440 C   0  0  0  0  0  0  0  0  0  0  0  0
  127.0410  129.2900   61.4550 C   0  0  0  0  0  0  0  0  0  0  0  0
  126.0170  129.3040   62.5050 N   0  0  0  0  0  0  0  0  0  0  0  0
  124.9150  130.2000   62.1330 C   0  0  0  0  0  0  0  0  0  0  0  0
  123.8450  130.2780   63.2420 C   0  0  0  0  0  0  0  0  0  0  0  0
  124.4470  130.6470   64.4780 O   0  0  0  0  0  0  0  0  0  0  0  0
  125.4370  129.7150   64.8950 C   0  0  0  0  0  0  0  0  0  0  0  0
  126.5570  129.6220   63.8360 C   0  0  0  0  0  0  0  0  0  0  0  0
  128.8690  126.2850   58.5020 C   0  0  0  0  0  0  0  0  0  0  0  0
  129.6250  127.5710   58.1760 C   0  0  0  0  0  0  0  0  0  0  0  0
  128.9630  128.7250   57.9160 C   0  0  0  0  0  0  0  0  0  0  0  0
  129.6680  129.9730   57.5590 C   0  0  0  0  0  0  0  0  0  0  0  0
  129.0150  131.1900   57.3030 C   0  0  0  0  0  0  0  0  0  0  0  0
  127.4990  131.3140   57.3760 C   0  0  0  0  0  0  0  0  0  0  0  0
  129.7770  132.3150   56.9760 C   0  0  0  0  0  0  0  0  0  0  0  0
  131.1670  132.2360   56.9030 C   0  0  0  0  0  0  0  0  0  0  0  0
  131.8260  131.0300   57.1590 C   0  0  0  0  0  0  0  0  0  0  0  0
  133.3460  130.9770   57.0740 C   0  0  0  0  0  0  0  0  0  0  0  0
  131.0710  129.8940   57.4890 C   0  0  0  0  0  0  0  0  0  0  0  0
  131.6920  128.6550   57.7520 N   0  0  0  0  0  0  0  0  0  0  0  0
  131.0860  127.4870   58.0820 C   0  0  0  0  0  0  0  0  0  0  0  0
  131.7530  126.4700   58.2710 O   0  0  0  0  0  0  0  0  0  0  0  0
  131.3170  122.8360   61.1310 C   0  0  0  0  0  0  0  0  0  0  0  0
  132.3440  123.1220   62.0260 C   0  0  0  0  0  0  0  0  0  0  0  0
  133.1995  124.7232   65.8098 H   0  0  0  0  0  0  0  0  0  0  0  0
  133.2914  126.3051   64.9636 H   0  0  0  0  0  0  0  0  0  0  0  0
  131.7550  125.3744   64.9636 H   0  0  0  0  0  0  0  0  0  0  0  0
  131.1733  126.0740   63.2767 H   0  0  0  0  0  0  0  0  0  0  0  0
  129.3404  125.5666   61.6744 H   0  0  0  0  0  0  0  0  0  0  0  0
  129.1890  123.9222   59.1559 H   0  0  0  0  0  0  0  0  0  0  0  0
  129.1049  122.2658   59.9189 H   0  0  0  0  0  0  0  0  0  0  0  0
  127.2778  124.5179   58.0700 H   0  0  0  0  0  0  0  0  0  0  0  0
  125.7221  125.3510   58.5095 H   0  0  0  0  0  0  0  0  0  0  0  0
  126.7911  126.3490   60.8738 H   0  0  0  0  0  0  0  0  0  0  0  0
  128.3876  127.1910   60.5944 H   0  0  0  0  0  0  0  0  0  0  0  0
  126.9360  128.9502   59.3249 H   0  0  0  0  0  0  0  0  0  0  0  0
  125.5797  128.2219   60.3115 H   0  0  0  0  0  0  0  0  0  0  0  0
  127.9773  128.9050   61.8854 H   0  0  0  0  0  0  0  0  0  0  0  0
  127.1468  130.3219   61.0891 H   0  0  0  0  0  0  0  0  0  0  0  0
  125.3190  131.2076   61.9557 H   0  0  0  0  0  0  0  0  0  0  0  0
  124.4397  129.8009   61.2248 H   0  0  0  0  0  0  0  0  0  0  0  0
  123.0898  131.0290   62.9667 H   0  0  0  0  0  0  0  0  0  0  0  0
  123.3696  129.2923   63.3534 H   0  0  0  0  0  0  0  0  0  0  0  0
  125.8675  130.0451   65.8519 H   0  0  0  0  0  0  0  0  0  0  0  0
  124.9721  128.7254   65.0156 H   0  0  0  0  0  0  0  0  0  0  0  0
  127.0832  130.5867   63.7869 H   0  0  0  0  0  0  0  0  0  0  0  0
  127.2440  128.8152   64.1309 H   0  0  0  0  0  0  0  0  0  0  0  0
  129.3930  125.7883   59.3319 H   0  0  0  0  0  0  0  0  0  0  0  0
  128.8537  125.7060   57.5668 H   0  0  0  0  0  0  0  0  0  0  0  0
  127.8645  128.7323   57.9727 H   0  0  0  0  0  0  0  0  0  0  0  0
  127.1835  131.3398   58.4295 H   0  0  0  0  0  0  0  0  0  0  0  0
  127.1824  132.2410   56.8756 H   0  0  0  0  0  0  0  0  0  0  0  0
  127.0360  130.4507   56.8756 H   0  0  0  0  0  0  0  0  0  0  0  0
  129.2749  133.2727   56.7741 H   0  0  0  0  0  0  0  0  0  0  0  0
  131.7506  133.1310   56.6415 H   0  0  0  0  0  0  0  0  0  0  0  0
  133.7697  130.9622   58.0890 H   0  0  0  0  0  0  0  0  0  0  0  0
  133.6517  130.0677   56.5358 H   0  0  0  0  0  0  0  0  0  0  0  0
  133.7143  131.8629   56.5358 H   0  0  0  0  0  0  0  0  0  0  0  0
  132.6970  128.6030   57.6890 H   0  0  0  0  0  0  0  0  0  0  0  0
  131.3650  121.9284   60.5114 H   0  0  0  0  0  0  0  0  0  0  0  0
  133.1991  122.4359   62.1158 H   0  0  0  0  0  0  0  0  0  0  0  0
  1  2  1  0
  2  3  1  0
  3  4  2  0
  4  5  1  0
  5  6  2  0
  6  7  1  0
  7  8  1  0
  8  9  1  0
  9 10  2  0
 10 11  1  0
 11 12  2  0
 12 13  1  0
 13 14  1  0
 14 15  1  0
 15 16  1  0
 16 17  1  0
 17 18  1  0
 18 19  1  0
 19 20  1  0
 20 21  1  0
 21 22  1  0
 22 23  1  0
 14 24  1  0
 24 25  1  0
 25 26  2  0
 26 27  1  0
 27 28  2  0
 28 29  1  0
 28 30  1  0
 30 31  2  0
 31 32  1  0
 32 33  1  0
 32 34  2  0
 34 35  1  0
 35 36  1  0
 36 37  2  0
  6 38  1  0
 38 39  2  0
 39  3  1  0
 12  8  1  0
 23 18  1  0
 36 25  1  0
 34 27  1  0
  1 40  1  0
  1 41  1  0
  1 42  1  0
  4 43  1  0
  5 44  1  0
  7 45  1  0
  7 46  1  0
 13 47  1  0
 13 48  1  0
 15 49  1  0
 15 50  1  0
 16 51  1  0
 16 52  1  0
 17 53  1  0
 17 54  1  0
 19 55  1  0
 19 56  1  0
 20 57  1  0
 20 58  1  0
 22 59  1  0
 22 60  1  0
 23 61  1  0
 23 62  1  0
 24 63  1  0
 24 64  1  0
 26 65  1  0
 29 66  1  0
 29 67  1  0
 29 68  1  0
 30 69  1  0
 31 70  1  0
 33 71  1  0
 33 72  1  0
 33 73  1  0
 35 74  1  0
 38 75  1  0
 39 76  1  0
M  END
>  <Binding energies>  (1) 
[-9.15]

>  <Ligand effiencies>  (1) 
[-0.22875]

>  <Interactions>  (1) 
["V-B:ARG:545:CZ:9898, V-B:GLY:453:CA:9016, V-A:HIS:456:CE1:4068, H-B:TYR:484:OH:9320, V-A:GLU:543:CD:4906, H-B:GLY:454:N:9022, V-B:GLY:453:C:9014, H-A:GLY:454:N:4048, V-A:ARG:545:CZ:4924, V-A:ARG:545:CG:4920, H-A:TYR:484:OH:4346, V-A:ARG:545:CD:4921, V-B:PRO:540:CA:9855, V-A:ASP:366:CG:3211, V-A:ASP:366:CB:3210, H-A:TYR:531:OH:4793, V-A:PRO:540:CA:4881, V-A:PRO:540:N:4882, V-B:ASP:366:CG:8185, V-A:TYR:531:CZ:4792, H-B:ARG:545:NH2:9900, H-B:ALA:541:N:9863, V-A:PRO:540:CB:4883, V-A:PRO:540:CD:4885, V-A:TYR:539:C:4865, V-A:TYR:539:CE2:4874, V-A:TYR:531:CE2:4791, V-A:LEU:363:CA:3183, V-A:TYR:539:CD2:4872, V-A:TYR:539:CE1:4873, V-A:TYR:539:CZ:4875, V-A:TYR:539:CA:4867, H-A:ASP:366:OD2:3213, H-A:ASP:366:OD1:3212"]

$$$$
RR15_Rahimova_2017
     RDKit          3D

 85 89  0  0  0  0  0  0  0  0999 V2000
  126.9110  128.0240   74.6500 C   0  0  0  0  0  0  0  0  0  0  0  0
  128.2340  127.5910   74.3460 O   0  0  0  0  0  0  0  0  0  0  0  0
  128.6470  127.5380   73.0260 C   0  0  0  0  0  0  0  0  0  0  0  0
  127.9330  128.1160   71.9640 C   0  0  0  0  0  0  0  0  0  0  0  0
  128.4040  128.0240   70.6570 C   0  0  0  0  0  0  0  0  0  0  0  0
  129.5970  127.3520   70.3710 C   0  0  0  0  0  0  0  0  0  0  0  0
  130.1030  127.2470   68.9590 C   0  0  0  0  0  0  0  0  0  0  0  0
  131.2410  127.7950   68.5580 N   0  0  0  0  0  0  0  0  0  0  0  0
  131.3580  127.4950   67.2160 N   0  0  0  0  0  0  0  0  0  0  0  0
  130.2790  126.7530   66.9650 N   0  0  0  0  0  0  0  0  0  0  0  0
  129.9160  126.3490   65.6080 C   0  0  0  0  0  0  0  0  0  0  0  0
  130.7040  125.1340   65.0600 C   0  0  0  0  0  0  0  0  0  0  0  0
  130.5450  124.0410   65.6080 O   0  0  0  0  0  0  0  0  0  0  0  0
  131.5240  125.2920   63.9750 N   0  0  0  0  0  0  0  0  0  0  0  0
  132.9940  125.2940   64.1180 C   0  0  0  0  0  0  0  0  0  0  0  0
  133.7450  125.3530   62.7700 C   0  0  0  0  0  0  0  0  0  0  0  0
  134.2510  123.9880   62.2480 C   0  0  0  0  0  0  0  0  0  0  0  0
  133.4810  123.4670   61.1140 N   0  0  0  0  0  0  0  0  0  0  0  0
  133.6420  124.2540   59.8830 C   0  0  0  0  0  0  0  0  0  0  0  0
  132.8820  123.6160   58.7010 C   0  0  0  0  0  0  0  0  0  0  0  0
  133.2850  122.2620   58.5310 O   0  0  0  0  0  0  0  0  0  0  0  0
  133.0330  121.4720   59.6880 C   0  0  0  0  0  0  0  0  0  0  0  0
  133.8010  122.0490   60.8970 C   0  0  0  0  0  0  0  0  0  0  0  0
  131.0320  125.2780   62.5630 C   0  0  2  0  0  0  0  0  0  0  0  0
  129.9540  126.3640   62.2550 C   0  0  0  0  0  0  0  0  0  0  0  0
  130.2390  127.5620   62.2570 O   0  0  0  0  0  0  0  0  0  0  0  0
  128.7290  125.8990   61.9540 N   0  0  0  0  0  0  0  0  0  0  0  0
  127.5950  126.7150   61.5340 C   0  0  0  0  0  0  0  0  0  0  0  0
  126.7510  125.9900   60.4700 C   0  0  2  0  0  0  0  0  0  0  0  0
  125.7480  124.9580   61.0140 C   0  0  0  0  0  0  0  0  0  0  0  0
  126.4140  123.6230   60.7820 C   0  0  0  0  0  0  0  0  0  0  0  0
  127.1750  123.8890   59.4940 C   0  0  0  0  0  0  0  0  0  0  0  0
  127.6700  125.2080   59.6960 O   0  0  0  0  0  0  0  0  0  0  0  0
  130.7420  123.8530   62.1080 C   0  0  0  0  0  0  0  0  0  0  0  0
  130.2370  123.6630   60.8160 C   0  0  0  0  0  0  0  0  0  0  0  0
  129.9540  122.3840   60.3460 C   0  0  0  0  0  0  0  0  0  0  0  0
  130.1750  121.2820   61.1670 C   0  0  0  0  0  0  0  0  0  0  0  0
  129.9010  120.0390   60.7110 F   0  0  0  0  0  0  0  0  0  0  0  0
  130.6780  121.4510   62.4550 C   0  0  0  0  0  0  0  0  0  0  0  0
  130.9600  122.7310   62.9240 C   0  0  0  0  0  0  0  0  0  0  0  0
  129.4510  126.6060   68.0060 N   0  0  0  0  0  0  0  0  0  0  0  0
  130.3090  126.7780   71.4340 C   0  0  0  0  0  0  0  0  0  0  0  0
  129.8480  126.8660   72.7590 C   0  0  0  0  0  0  0  0  0  0  0  0
  130.5160  126.3190   73.8410 O   0  0  0  0  0  0  0  0  0  0  0  0
  131.9110  126.0530   73.7450 C   0  0  0  0  0  0  0  0  0  0  0  0
  126.7808  128.0666   75.7414 H   0  0  0  0  0  0  0  0  0  0  0  0
  126.7448  129.0234   74.2216 H   0  0  0  0  0  0  0  0  0  0  0  0
  126.1860  127.3162   74.2216 H   0  0  0  0  0  0  0  0  0  0  0  0
  126.9914  128.6472   72.1668 H   0  0  0  0  0  0  0  0  0  0  0  0
  127.8309  128.4854   69.8393 H   0  0  0  0  0  0  0  0  0  0  0  0
  128.8459  126.0942   65.6014 H   0  0  0  0  0  0  0  0  0  0  0  0
  130.1635  127.1989   64.9550 H   0  0  0  0  0  0  0  0  0  0  0  0
  133.2842  126.1700   64.7166 H   0  0  0  0  0  0  0  0  0  0  0  0
  133.2728  124.3464   64.6020 H   0  0  0  0  0  0  0  0  0  0  0  0
  133.0636  125.7758   62.0171 H   0  0  0  0  0  0  0  0  0  0  0  0
  134.6398  125.9695   62.9413 H   0  0  0  0  0  0  0  0  0  0  0  0
  135.2984  124.1038   61.9324 H   0  0  0  0  0  0  0  0  0  0  0  0
  134.1372  123.2674   63.0713 H   0  0  0  0  0  0  0  0  0  0  0  0
  133.2516  125.2682   60.0534 H   0  0  0  0  0  0  0  0  0  0  0  0
  134.7120  124.2840   59.6297 H   0  0  0  0  0  0  0  0  0  0  0  0
  131.8012  123.6508   58.9027 H   0  0  0  0  0  0  0  0  0  0  0  0
  133.1109  124.1766   57.7827 H   0  0  0  0  0  0  0  0  0  0  0  0
  131.9546  121.4769   59.9050 H   0  0  0  0  0  0  0  0  0  0  0  0
  133.3708  120.4416   59.5031 H   0  0  0  0  0  0  0  0  0  0  0  0
  133.5286  121.4796   61.7979 H   0  0  0  0  0  0  0  0  0  0  0  0
  134.8785  121.9668   60.6915 H   0  0  0  0  0  0  0  0  0  0  0  0
  131.8443  125.6166   61.9031 H   0  0  0  0  0  0  0  0  0  0  0  0
  128.5820  124.9000   61.9470 H   0  0  0  0  0  0  0  0  0  0  0  0
  126.9632  126.9286   62.4087 H   0  0  0  0  0  0  0  0  0  0  0  0
  127.9803  127.6479   61.0966 H   0  0  0  0  0  0  0  0  0  0  0  0
  126.1872  126.7720   59.9403 H   0  0  0  0  0  0  0  0  0  0  0  0
  125.5665  125.1205   62.0867 H   0  0  0  0  0  0  0  0  0  0  0  0
  124.7677  125.0274   60.5198 H   0  0  0  0  0  0  0  0  0  0  0  0
  127.0953  123.3644   61.6060 H   0  0  0  0  0  0  0  0  0  0  0  0
  125.7154  122.7752   60.7253 H   0  0  0  0  0  0  0  0  0  0  0  0
  127.9981  123.1711   59.3630 H   0  0  0  0  0  0  0  0  0  0  0  0
  126.5568  123.7861   58.5900 H   0  0  0  0  0  0  0  0  0  0  0  0
  130.0622  124.5331   60.1661 H   0  0  0  0  0  0  0  0  0  0  0  0
  129.5572  122.2445   59.3296 H   0  0  0  0  0  0  0  0  0  0  0  0
  130.8517  120.5763   63.0990 H   0  0  0  0  0  0  0  0  0  0  0  0
  131.3565  122.8646   63.9413 H   0  0  0  0  0  0  0  0  0  0  0  0
  131.2496  126.2468   71.2263 H   0  0  0  0  0  0  0  0  0  0  0  0
  132.3391  125.9714   74.7550 H   0  0  0  0  0  0  0  0  0  0  0  0
  132.0678  125.1088   73.2029 H   0  0  0  0  0  0  0  0  0  0  0  0
  132.4042  126.8733   73.2029 H   0  0  0  0  0  0  0  0  0  0  0  0
  1  2  1  0
  2  3  1  0
  3  4  2  0
  4  5  1  0
  5  6  2  0
  6  7  1  0
  7  8  1  0
  8  9  2  0
  9 10  1  0
 10 11  1  0
 11 12  1  0
 12 13  2  0
 12 14  1  0
 14 15  1  0
 15 16  1  0
 16 17  1  0
 17 18  1  0
 18 19  1  0
 19 20  1  0
 20 21  1  0
 21 22  1  0
 22 23  1  0
 14 24  1  0
 24 25  1  0
 25 26  2  0
 25 27  1  0
 27 28  1  0
 28 29  1  0
 29 30  1  0
 30 31  1  0
 31 32  1  0
 32 33  1  0
 24 34  1  0
 34 35  2  0
 35 36  1  0
 36 37  2  0
 37 38  1  0
 37 39  1  0
 39 40  2  0
 10 41  1  0
  6 42  1  0
 42 43  2  0
 43 44  1  0
 44 45  1  0
 43  3  1  0
 41  7  2  0
 23 18  1  0
 33 29  1  0
 40 34  1  0
  1 46  1  0
  1 47  1  0
  1 48  1  0
  4 49  1  0
  5 50  1  0
 11 51  1  0
 11 52  1  0
 15 53  1  0
 15 54  1  0
 16 55  1  0
 16 56  1  0
 17 57  1  0
 17 58  1  0
 19 59  1  0
 19 60  1  0
 20 61  1  0
 20 62  1  0
 22 63  1  0
 22 64  1  0
 23 65  1  0
 23 66  1  0
 24 67  1  6
 27 68  1  0
 28 69  1  0
 28 70  1  0
 29 71  1  6
 30 72  1  0
 30 73  1  0
 31 74  1  0
 31 75  1  0
 32 76  1  0
 32 77  1  0
 35 78  1  0
 36 79  1  0
 39 80  1  0
 40 81  1  0
 42 82  1  0
 45 83  1  0
 45 84  1  0
 45 85  1  0
M  END
>  <Binding energies>  (1) 
[-8.76]

>  <Ligand effiencies>  (1) 
[-0.19043478260869565]

>  <Interactions>  (1) 
["V-B:GLU:543:CB:9878, V-A:HIS:456:CE1:4068, V-A:HIS:456:CD2:4066, V-B:GLU:543:CD:9880, V-A:GLU:543:CD:4906, V-B:HIS:456:CE1:9042, H-A:LYS:547:NZ:4949, V-B:GLY:544:C:9884, V-A:GLY:544:C:4910, V-B:HIS:456:CD2:9040, V-B:GLU:543:CG:9879, V-A:GLU:543:CG:4905, H-B:LYS:547:NZ:9923, V-A:ARG:545:CZ:4924, V-A:LYS:547:CE:4948, H-A:TYR:484:OH:4346, V-A:ARG:545:CD:4921, V-A:HIS:456:CG:4064, V-A:HIS:456:CB:4063, V-B:LYS:547:CE:9922, H-B:GLU:543:OE1:9881, H-A:ARG:545:NE:4922, V-B:TYR:539:CZ:9849, V-B:PRO:540:C:9853, V-A:GLY:453:C:4040, V-A:ILE:369:CD1:3237, V-A:LEU:475:CD2:4257, V-B:PRO:540:CA:9855, V-A:GLY:453:CA:4042, V-A:ASP:366:CG:3211, V-A:GLY:454:CA:4047, V-B:ALA:541:CB:9864, V-B:TYR:539:CD2:9846, V-B:TYR:539:CE2:9848, V-A:ILE:369:CG2:3235, V-A:ASP:366:CB:3210, H-A:ARG:545:NH2:4926, V-A:PRO:482:CB:4324, H-B:TYR:539:OH:9850, V-B:HIS:456:CG:9038, V-B:LYS:547:CD:9921, H-B:GLU:543:OE2:9882, H-A:ARG:545:N:4918"]

$$$$
RR16_Rahimova_2017
     RDKit          3D

 80 85  0  0  0  0  0  0  0  0999 V2000
  126.9600  133.3030   63.3990 O   0  0  0  0  0  0  0  0  0  0  0  0
  126.3180  132.8150   62.1730 S   0  0  0  0  0  0  0  0  0  0  0  0
  125.2440  133.5810   61.5300 O   0  0  0  0  0  0  0  0  0  0  0  0
  125.7120  131.1900   62.5000 N   0  0  0  0  0  0  0  0  0  0  0  0
  125.0030  130.4170   61.4530 C   0  0  0  0  0  0  0  0  0  0  0  0
  124.8080  131.3130   60.2020 C   0  0  0  0  0  0  0  0  0  0  0  0
  124.3200  130.6290   58.9110 C   0  0  0  0  0  0  0  0  0  0  0  0
  125.3160  129.6090   58.3300 C   0  0  0  0  0  0  0  0  0  0  0  0
  126.7590  129.7030   58.8640 C   0  0  0  0  0  0  0  0  0  0  0  0
  127.0090  129.2210   60.3070 C   0  0  0  0  0  0  0  0  0  0  0  0
  125.7710  129.0950   61.2160 C   0  0  0  0  0  0  0  0  0  0  0  0
  127.6180  132.5720   60.9680 C   0  0  0  0  0  0  0  0  0  0  0  0
  127.3800  132.8190   59.6140 C   0  0  0  0  0  0  0  0  0  0  0  0
  128.3590  132.5090   58.6750 C   0  0  0  0  0  0  0  0  0  0  0  0
  129.5710  131.9550   59.0930 C   0  0  0  0  0  0  0  0  0  0  0  0
  130.7750  131.4260   57.8770 S   0  0  0  0  0  0  0  0  0  0  0  0
  132.0380  132.1120   58.1820 O   0  0  0  0  0  0  0  0  0  0  0  0
  130.1560  131.5670   56.5540 O   0  0  0  0  0  0  0  0  0  0  0  0
  130.9900  129.6950   58.2040 N   0  0  0  0  0  0  0  0  0  0  0  0
  130.4700  129.2490   59.5230 C   0  0  0  0  0  0  0  0  0  0  0  0
  130.9720  127.8270   59.8480 C   0  0  0  0  0  0  0  0  0  0  0  0
  130.6580  126.8310   58.7050 C   0  0  0  0  0  0  0  0  0  0  0  0
  131.1900  125.4240   58.9890 C   0  0  0  0  0  0  0  0  0  0  0  0
  132.5400  125.1290   58.7490 C   0  0  0  0  0  0  0  0  0  0  0  0
  133.0690  123.8620   59.0010 C   0  0  0  0  0  0  0  0  0  0  0  0
  134.3920  123.5930   58.7650 O   0  0  0  0  0  0  0  0  0  0  0  0
  132.2110  122.8740   59.5080 C   0  0  0  0  0  0  0  0  0  0  0  0
  132.4460  121.5770   59.8600 N   0  0  0  0  0  0  0  0  0  0  0  0
  131.2620  121.0540   60.3310 N   0  0  0  0  0  0  0  0  0  0  0  0
  130.3080  122.0000   60.2290 N   0  0  0  0  0  0  0  0  0  0  0  0
  128.9660  121.7460   60.7380 C   0  0  0  0  0  0  0  0  0  0  0  0
  127.9400  122.7360   60.2060 C   0  0  0  0  0  0  0  0  0  0  0  0
  127.2710  123.5950   61.0860 C   0  0  0  0  0  0  0  0  0  0  0  0
  126.3460  124.5180   60.5980 C   0  0  0  0  0  0  0  0  0  0  0  0
  126.0850  124.5890   59.2290 C   0  0  0  0  0  0  0  0  0  0  0  0
  126.7490  123.7370   58.3470 C   0  0  0  0  0  0  0  0  0  0  0  0
  126.4370  123.8300   56.6520 Cl  0  0  0  0  0  0  0  0  0  0  0  0
  127.6730  122.8100   58.8350 C   0  0  0  0  0  0  0  0  0  0  0  0
  130.8480  123.1780   59.7390 C   0  0  0  0  0  0  0  0  0  0  0  0
  130.3150  124.4450   59.4840 C   0  0  0  0  0  0  0  0  0  0  0  0
  131.0950  127.3700   57.3180 C   0  0  0  0  0  0  0  0  0  0  0  0
  130.5980  128.8090   57.0770 C   0  0  0  0  0  0  0  0  0  0  0  0
  129.8230  131.7480   60.4510 C   0  0  0  0  0  0  0  0  0  0  0  0
  128.8430  132.0540   61.3890 C   0  0  0  0  0  0  0  0  0  0  0  0
  126.1990  130.6480   63.2180 H   0  0  0  0  0  0  0  0  0  0  0  0
  123.9869  130.1241   61.7561 H   0  0  0  0  0  0  0  0  0  0  0  0
  124.0731  132.0888   60.4628 H   0  0  0  0  0  0  0  0  0  0  0  0
  125.8152  131.6839   59.9611 H   0  0  0  0  0  0  0  0  0  0  0  0
  123.3777  130.1060   59.1312 H   0  0  0  0  0  0  0  0  0  0  0  0
  124.1978  131.4206   58.1571 H   0  0  0  0  0  0  0  0  0  0  0  0
  124.9374  128.6011   58.5556 H   0  0  0  0  0  0  0  0  0  0  0  0
  125.3797  129.8321   57.2547 H   0  0  0  0  0  0  0  0  0  0  0  0
  127.3976  129.1027   58.1993 H   0  0  0  0  0  0  0  0  0  0  0  0
  126.9854  130.7793   58.8813 H   0  0  0  0  0  0  0  0  0  0  0  0
  127.4839  128.2304   60.2505 H   0  0  0  0  0  0  0  0  0  0  0  0
  127.6309  130.0013   60.7700 H   0  0  0  0  0  0  0  0  0  0  0  0
  125.0791  128.3754   60.7541 H   0  0  0  0  0  0  0  0  0  0  0  0
  126.1409  128.7711   62.2000 H   0  0  0  0  0  0  0  0  0  0  0  0
  126.4235  133.2563   59.2916 H   0  0  0  0  0  0  0  0  0  0  0  0
  128.1789  132.6997   57.6067 H   0  0  0  0  0  0  0  0  0  0  0  0
  130.8176  129.9428   60.3027 H   0  0  0  0  0  0  0  0  0  0  0  0
  129.3706  129.2391   59.4875 H   0  0  0  0  0  0  0  0  0  0  0  0
  132.0606  127.8603   60.0022 H   0  0  0  0  0  0  0  0  0  0  0  0
  130.4546  127.4808   60.7549 H   0  0  0  0  0  0  0  0  0  0  0  0
  129.5627  126.7366   58.6662 H   0  0  0  0  0  0  0  0  0  0  0  0
  133.1985  125.9158   58.3522 H   0  0  0  0  0  0  0  0  0  0  0  0
  134.9780  124.3000   59.0440 H   0  0  0  0  0  0  0  0  0  0  0  0
  128.6630  120.7311   60.4409 H   0  0  0  0  0  0  0  0  0  0  0  0
  128.9987  121.8564   61.8320 H   0  0  0  0  0  0  0  0  0  0  0  0
  127.4754  123.5419   62.1655 H   0  0  0  0  0  0  0  0  0  0  0  0
  125.8218  125.1905   61.2929 H   0  0  0  0  0  0  0  0  0  0  0  0
  125.3553  125.3173   58.8454 H   0  0  0  0  0  0  0  0  0  0  0  0
  128.1926  122.1356   58.1384 H   0  0  0  0  0  0  0  0  0  0  0  0
  129.2525  124.6656   59.6641 H   0  0  0  0  0  0  0  0  0  0  0  0
  132.1935  127.3594   57.2625 H   0  0  0  0  0  0  0  0  0  0  0  0
  130.6523  126.7231   56.5463 H   0  0  0  0  0  0  0  0  0  0  0  0
  131.0398  129.1925   56.1455 H   0  0  0  0  0  0  0  0  0  0  0  0
  129.5007  128.7966   57.0017 H   0  0  0  0  0  0  0  0  0  0  0  0
  130.7929  131.3445   60.7774 H   0  0  0  0  0  0  0  0  0  0  0  0
  129.0331  131.8881   62.4597 H   0  0  0  0  0  0  0  0  0  0  0  0
  1  2  2  0
  2  3  2  0
  2  4  1  0
  4  5  1  0
  5  6  1  0
  6  7  1  0
  7  8  1  0
  8  9  1  0
  9 10  1  0
 10 11  1  0
  2 12  1  0
 12 13  2  0
 13 14  1  0
 14 15  2  0
 15 16  1  0
 16 17  2  0
 16 18  2  0
 16 19  1  0
 19 20  1  0
 20 21  1  0
 21 22  1  0
 22 23  1  0
 23 24  2  0
 24 25  1  0
 25 26  1  0
 25 27  2  0
 27 28  1  0
 28 29  2  0
 29 30  1  0
 30 31  1  0
 31 32  1  0
 32 33  2  0
 33 34  1  0
 34 35  2  0
 35 36  1  0
 36 37  1  0
 36 38  2  0
 30 39  1  0
 39 40  2  0
 22 41  1  0
 41 42  1  0
 15 43  1  0
 43 44  2  0
 11  5  1  0
 44 12  1  0
 42 19  1  0
 40 23  1  0
 39 27  1  0
 38 32  1  0
  4 45  1  0
  5 46  1  0
  6 47  1  0
  6 48  1  0
  7 49  1  0
  7 50  1  0
  8 51  1  0
  8 52  1  0
  9 53  1  0
  9 54  1  0
 10 55  1  0
 10 56  1  0
 11 57  1  0
 11 58  1  0
 13 59  1  0
 14 60  1  0
 20 61  1  0
 20 62  1  0
 21 63  1  0
 21 64  1  0
 22 65  1  0
 24 66  1  0
 26 67  1  0
 31 68  1  0
 31 69  1  0
 33 70  1  0
 34 71  1  0
 35 72  1  0
 38 73  1  0
 40 74  1  0
 41 75  1  0
 41 76  1  0
 42 77  1  0
 42 78  1  0
 43 79  1  0
 44 80  1  0
M  END
>  <Binding energies>  (1) 
[-7.45]

>  <Ligand effiencies>  (1) 
[-0.15520833333333334]

>  <Interactions>  (1) 
["V-B:PRO:540:C:9853, V-B:PRO:540:CA:9855, V-B:TYR:539:C:9839, V-B:ALA:541:CA:9862, V-A:ASP:366:CG:3211, V-B:ALA:541:CB:9864, V-B:TYR:539:CD2:9846, V-B:TYR:539:CE2:9848, V-B:PRO:540:N:9856, V-A:ASP:366:CB:3210, H-A:TYR:531:OH:4793, V-B:LEU:475:CD2:9231, V-A:PRO:540:CA:4881, V-A:PRO:540:N:4882, V-B:ASP:366:CG:8185, V-A:TYR:539:C:4865, V-A:TYR:539:CE2:4874, V-A:ALA:541:CB:4890, V-B:ASP:366:CB:8184, V-A:TYR:539:CD2:4872, H-A:GLU:543:OE1:4907, V-A:TYR:539:CG:4870, V-B:ASP:366:CA:8182, H-A:ASP:366:O:3207, H-A:ASP:366:OD1:3212"]

$$$$
RR17_Rahimova_2017
     RDKit          3D

 63 66  0  0  0  0  0  0  0  0999 V2000
  130.9790  127.0930   58.7450 C   0  0  0  0  0  0  0  0  0  0  0  0
  131.1380  127.0490   57.2220 C   0  0  0  0  0  0  0  0  0  0  0  0
  131.3480  125.6970   56.8230 O   0  0  0  0  0  0  0  0  0  0  0  0
  131.8720  124.7970   57.7320 C   0  0  0  0  0  0  0  0  0  0  0  0
  130.9550  124.0720   58.4900 C   0  0  0  0  0  0  0  0  0  0  0  0
  131.3880  123.1430   59.4310 C   0  0  0  0  0  0  0  0  0  0  0  0
  132.7580  122.9200   59.6340 C   0  0  0  0  0  0  0  0  0  0  0  0
  133.1960  121.9110   60.6550 C   0  0  0  0  0  0  0  0  0  0  0  0
  133.2100  120.6980   60.4230 O   0  0  0  0  0  0  0  0  0  0  0  0
  133.6210  122.4520   62.0390 C   0  0  0  0  0  0  0  0  0  0  0  0
  133.9720  124.2460   61.9990 S   0  0  0  0  0  0  0  0  0  0  0  0
  133.2870  124.7250   63.5600 C   0  0  0  0  0  0  0  0  0  0  0  0
  133.9790  125.0260   64.6330 N   0  0  0  0  0  0  0  0  0  0  0  0
  133.0810  125.3550   65.6410 N   0  0  0  0  0  0  0  0  0  0  0  0
  131.8780  125.2440   65.1370 C   0  0  0  0  0  0  0  0  0  0  0  0
  130.5920  125.5250   65.9000 C   0  0  0  0  0  0  0  0  0  0  0  0
  130.5660  126.8320   66.5500 N   0  0  0  0  0  0  0  0  0  0  0  0
  129.8840  127.0930   67.7530 C   0  0  0  0  0  0  0  0  0  0  0  0
  130.6530  127.2540   68.9050 C   0  0  0  0  0  0  0  0  0  0  0  0
  130.0420  127.5090   70.1290 C   0  0  0  0  0  0  0  0  0  0  0  0
  128.6510  127.6100   70.2150 C   0  0  0  0  0  0  0  0  0  0  0  0
  127.9950  127.8830   71.5680 C   0  0  0  0  0  0  0  0  0  0  0  0
  128.6370  128.8280   72.2590 F   0  0  0  0  0  0  0  0  0  0  0  0
  126.7330  128.2820   71.4010 F   0  0  0  0  0  0  0  0  0  0  0  0
  127.9980  126.7620   72.2890 F   0  0  0  0  0  0  0  0  0  0  0  0
  127.8780  127.4560   69.0590 C   0  0  0  0  0  0  0  0  0  0  0  0
  128.4900  127.2030   67.8350 C   0  0  0  0  0  0  0  0  0  0  0  0
  131.9360  124.8350   63.8200 N   0  0  0  0  0  0  0  0  0  0  0  0
  130.8660  124.6140   62.9400 C   0  0  0  0  0  0  0  0  0  0  0  0
  130.4070  123.3150   62.7270 C   0  0  0  0  0  0  0  0  0  0  0  0
  129.3480  123.0960   61.8510 C   0  0  0  0  0  0  0  0  0  0  0  0
  128.7440  124.1760   61.1860 C   0  0  0  0  0  0  0  0  0  0  0  0
  127.6900  124.0540   60.3020 O   0  0  0  0  0  0  0  0  0  0  0  0
  127.7830  123.1160   59.2350 C   0  0  0  0  0  0  0  0  0  0  0  0
  129.2180  125.4700   61.4100 C   0  0  0  0  0  0  0  0  0  0  0  0
  130.2770  125.6960   62.2860 C   0  0  0  0  0  0  0  0  0  0  0  0
  133.6800  123.6490   58.8700 C   0  0  0  0  0  0  0  0  0  0  0  0
  133.2440  124.5780   57.9280 C   0  0  0  0  0  0  0  0  0  0  0  0
  131.9347  126.8285   59.2212 H   0  0  0  0  0  0  0  0  0  0  0  0
  130.6836  128.1066   59.0537 H   0  0  0  0  0  0  0  0  0  0  0  0
  130.2045  126.3754   59.0537 H   0  0  0  0  0  0  0  0  0  0  0  0
  130.2275  127.4389   56.7434 H   0  0  0  0  0  0  0  0  0  0  0  0
  131.9952  127.6671   56.9168 H   0  0  0  0  0  0  0  0  0  0  0  0
  129.8772  124.2358   58.3430 H   0  0  0  0  0  0  0  0  0  0  0  0
  130.6502  122.5789   60.0204 H   0  0  0  0  0  0  0  0  0  0  0  0
  132.8090  122.2655   62.7572 H   0  0  0  0  0  0  0  0  0  0  0  0
  134.5442  121.9331   62.3363 H   0  0  0  0  0  0  0  0  0  0  0  0
  129.7508  125.4724   65.1931 H   0  0  0  0  0  0  0  0  0  0  0  0
  130.5205  124.7697   66.6965 H   0  0  0  0  0  0  0  0  0  0  0  0
  130.8760  127.6250   66.0090 H   0  0  0  0  0  0  0  0  0  0  0  0
  131.7488  127.1790   68.8459 H   0  0  0  0  0  0  0  0  0  0  0  0
  130.6568  127.6316   71.0329 H   0  0  0  0  0  0  0  0  0  0  0  0
  126.7824  127.5352   69.1178 H   0  0  0  0  0  0  0  0  0  0  0  0
  127.8769  127.0890   66.9288 H   0  0  0  0  0  0  0  0  0  0  0  0
  130.8787  122.4687   63.2479 H   0  0  0  0  0  0  0  0  0  0  0  0
  128.9824  122.0730   61.6786 H   0  0  0  0  0  0  0  0  0  0  0  0
  127.8836  122.1010   59.6468 H   0  0  0  0  0  0  0  0  0  0  0  0
  126.8748  123.1725   58.6169 H   0  0  0  0  0  0  0  0  0  0  0  0
  128.6624  123.3498   58.6169 H   0  0  0  0  0  0  0  0  0  0  0  0
  128.7507  126.3191   60.8897 H   0  0  0  0  0  0  0  0  0  0  0  0
  130.6452  126.7178   62.4603 H   0  0  0  0  0  0  0  0  0  0  0  0
  134.7580  123.4859   59.0158 H   0  0  0  0  0  0  0  0  0  0  0  0
  133.9787  125.1425   57.3351 H   0  0  0  0  0  0  0  0  0  0  0  0
  1  2  1  0
  2  3  1  0
  3  4  1  0
  4  5  2  0
  5  6  1  0
  6  7  2  0
  7  8  1  0
  8  9  2  0
  8 10  1  0
 10 11  1  0
 11 12  1  0
 12 13  2  0
 13 14  1  0
 14 15  2  0
 15 16  1  0
 16 17  1  0
 17 18  1  0
 18 19  2  0
 19 20  1  0
 20 21  2  0
 21 22  1  0
 22 23  1  0
 22 24  1  0
 22 25  1  0
 21 26  1  0
 26 27  2  0
 15 28  1  0
 28 29  1  0
 29 30  2  0
 30 31  1  0
 31 32  2  0
 32 33  1  0
 33 34  1  0
 32 35  1  0
 35 36  2  0
  7 37  1  0
 37 38  2  0
 38  4  1  0
 28 12  1  0
 36 29  1  0
 27 18  1  0
  1 39  1  0
  1 40  1  0
  1 41  1  0
  2 42  1  0
  2 43  1  0
  5 44  1  0
  6 45  1  0
 10 46  1  0
 10 47  1  0
 16 48  1  0
 16 49  1  0
 17 50  1  0
 19 51  1  0
 20 52  1  0
 26 53  1  0
 27 54  1  0
 30 55  1  0
 31 56  1  0
 34 57  1  0
 34 58  1  0
 34 59  1  0
 35 60  1  0
 36 61  1  0
 37 62  1  0
 38 63  1  0
M  END
>  <Binding energies>  (1) 
[-8.73]

>  <Ligand effiencies>  (1) 
[-0.22384615384615386]

>  <Interactions>  (1) 
["V-B:GLU:543:CB:9878, V-A:HIS:456:CE1:4068, V-B:GLU:543:CD:9880, V-A:GLU:543:CD:4906, V-B:HIS:456:CE1:9042, V-A:GLY:544:CA:4912, V-B:GLY:544:C:9884, V-A:GLY:544:C:4910, V-B:HIS:456:CD2:9040, V-B:GLU:543:CG:9879, V-A:GLU:543:CG:4905, H-A:GLY:454:N:4048, V-B:GLU:543:C:9874, V-A:ARG:545:CZ:4924, V-A:ARG:545:CG:4920, V-A:LYS:547:CE:4948, H-A:TYR:484:OH:4346, V-B:LYS:547:CE:9922, H-A:ARG:545:NH1:4925, V-B:GLY:544:CA:9886, H-A:ARG:545:NE:4922, V-A:GLU:543:C:4900, V-B:TYR:539:CZ:9849, V-A:ILE:369:CD1:3237, V-A:LEU:475:CD2:4257, V-B:PRO:540:CA:9855, V-B:TYR:539:C:9839, V-A:ASP:366:CG:3211, V-A:GLY:454:CA:4047, V-B:ALA:541:CB:9864, V-B:TYR:539:CD2:9846, V-B:TYR:539:CE2:9848, V-A:ILE:369:CG2:3235, V-B:PRO:540:N:9856, V-A:ASP:366:CA:3208, V-A:ASP:366:CB:3210, V-A:ILE:369:CB:3234, H-A:TYR:531:OH:4793, H-A:GLU:543:OE2:4908, H-A:GLU:543:OE1:4907, H-B:TYR:539:OH:9850, V-B:HIS:456:CG:9038, V-B:ARG:545:CA:9891, V-B:HIS:456:CB:9037"]

$$$$
RR18_Rahimova_2017
     RDKit          3D

 56 61  0  0  0  0  0  0  0  0999 V2000
  133.5450  131.3660   60.5580 C   0  0  0  0  0  0  0  0  0  0  0  0
  132.0870  131.0160   60.7130 C   0  0  0  0  0  0  0  0  0  0  0  0
  131.0990  131.3740   61.6160 C   0  0  0  0  0  0  0  0  0  0  0  0
  129.9360  130.7100   61.2260 C   0  0  0  0  0  0  0  0  0  0  0  0
  130.2550  129.9710   60.0980 C   0  0  0  0  0  0  0  0  0  0  0  0
  129.4620  129.0440   59.1820 C   0  0  1  0  0  0  0  0  0  0  0  0
  128.8730  129.8120   57.9610 C   0  0  0  0  0  0  0  0  0  0  0  0
  127.8640  130.8490   58.1570 C   0  0  0  0  0  0  0  0  0  0  0  0
  127.6850  131.7460   57.3310 O   0  0  0  0  0  0  0  0  0  0  0  0
  127.1520  130.7200   59.3000 N   0  0  0  0  0  0  0  0  0  0  0  0
  126.1240  131.5280   59.8310 C   0  0  0  0  0  0  0  0  0  0  0  0
  124.7640  131.1670   59.8100 C   0  0  0  0  0  0  0  0  0  0  0  0
  123.7970  132.0150   60.3460 C   0  0  0  0  0  0  0  0  0  0  0  0
  124.1680  133.2350   60.9030 C   0  0  0  0  0  0  0  0  0  0  0  0
  125.5090  133.6110   60.9200 C   0  0  0  0  0  0  0  0  0  0  0  0
  126.4920  132.7710   60.3870 C   0  0  0  0  0  0  0  0  0  0  0  0
  127.9460  133.2310   60.4270 C   0  0  0  0  0  0  0  0  0  0  0  0
  129.3940  129.5670   56.7300 C   0  0  0  0  0  0  0  0  0  0  0  0
  130.3200  128.6070   56.4550 N   0  0  0  0  0  0  0  0  0  0  0  0
  130.6930  127.8060   57.3840 C   0  0  0  0  0  0  0  0  0  0  0  0
  131.7540  126.4370   57.1470 S   0  0  0  0  0  0  0  0  0  0  0  0
  131.6360  125.9810   58.8760 C   0  0  0  0  0  0  0  0  0  0  0  0
  132.2480  124.9140   59.4990 C   0  0  0  0  0  0  0  0  0  0  0  0
  133.0410  123.9540   58.7170 C   0  0  0  0  0  0  0  0  0  0  0  0
  133.3020  123.9350   57.5150 O   0  0  0  0  0  0  0  0  0  0  0  0
  133.4640  123.0070   59.5610 N   0  0  0  0  0  0  0  0  0  0  0  0
  133.0770  123.2300   60.8480 C   0  0  0  0  0  0  0  0  0  0  0  0
  133.3570  122.4540   61.9710 C   0  0  0  0  0  0  0  0  0  0  0  0
  132.8910  122.8750   63.2130 C   0  0  0  0  0  0  0  0  0  0  0  0
  132.1670  124.0620   63.3110 C   0  0  0  0  0  0  0  0  0  0  0  0
  131.8980  124.8230   62.1700 C   0  0  0  0  0  0  0  0  0  0  0  0
  132.3410  124.4010   60.9020 C   0  0  0  0  0  0  0  0  0  0  0  0
  130.7510  126.9390   59.5370 C   0  0  0  0  0  0  0  0  0  0  0  0
  130.3940  126.9140   60.7110 O   0  0  0  0  0  0  0  0  0  0  0  0
  130.3130  127.9050   58.6840 N   0  0  0  0  0  0  0  0  0  0  0  0
  131.5670  130.1620   59.7930 O   0  0  0  0  0  0  0  0  0  0  0  0
  134.0033  131.4760   61.5519 H   0  0  0  0  0  0  0  0  0  0  0  0
  134.0575  130.5654   60.0045 H   0  0  0  0  0  0  0  0  0  0  0  0
  133.6382  132.3120   60.0045 H   0  0  0  0  0  0  0  0  0  0  0  0
  131.2104  132.0516   62.4753 H   0  0  0  0  0  0  0  0  0  0  0  0
  128.9542  130.7628   61.7191 H   0  0  0  0  0  0  0  0  0  0  0  0
  128.6343  128.6405   59.7838 H   0  0  0  0  0  0  0  0  0  0  0  0
  127.3420  129.8930   59.8450 H   0  0  0  0  0  0  0  0  0  0  0  0
  124.4617  130.2068   59.3665 H   0  0  0  0  0  0  0  0  0  0  0  0
  122.7376  131.7193   60.3288 H   0  0  0  0  0  0  0  0  0  0  0  0
  123.4035  133.9013   61.3292 H   0  0  0  0  0  0  0  0  0  0  0  0
  125.7978  134.5783   61.3570 H   0  0  0  0  0  0  0  0  0  0  0  0
  128.2695  133.3334   61.4733 H   0  0  0  0  0  0  0  0  0  0  0  0
  128.5793  132.4893   59.9182 H   0  0  0  0  0  0  0  0  0  0  0  0
  128.0375  134.2020   59.9182 H   0  0  0  0  0  0  0  0  0  0  0  0
  129.0419  130.1898   55.8944 H   0  0  0  0  0  0  0  0  0  0  0  0
  134.0300  122.2230   59.2710 H   0  0  0  0  0  0  0  0  0  0  0  0
  133.9368  121.5239   61.8774 H   0  0  0  0  0  0  0  0  0  0  0  0
  133.0929  122.2744   64.1122 H   0  0  0  0  0  0  0  0  0  0  0  0
  131.8051  124.4020   64.2925 H   0  0  0  0  0  0  0  0  0  0  0  0
  131.3336  125.7625   62.2638 H   0  0  0  0  0  0  0  0  0  0  0  0
  1  2  1  0
  2  3  2  0
  3  4  1  0
  4  5  2  0
  5  6  1  0
  6  7  1  0
  7  8  1  0
  8  9  2  0
  8 10  1  0
 10 11  1  0
 11 12  2  0
 12 13  1  0
 13 14  2  0
 14 15  1  0
 15 16  2  0
 16 17  1  0
  7 18  2  0
 18 19  1  0
 19 20  2  0
 20 21  1  0
 21 22  1  0
 22 23  2  0
 23 24  1  0
 24 25  2  0
 24 26  1  0
 26 27  1  0
 27 28  2  0
 28 29  1  0
 29 30  2  0
 30 31  1  0
 31 32  2  0
 22 33  1  0
 33 34  2  0
 33 35  1  0
  5 36  1  0
 36  2  1  0
 35  6  1  0
 16 11  1  0
 35 20  1  0
 32 23  1  0
 32 27  1  0
  1 37  1  0
  1 38  1  0
  1 39  1  0
  3 40  1  0
  4 41  1  0
  6 42  1  1
 10 43  1  0
 12 44  1  0
 13 45  1  0
 14 46  1  0
 15 47  1  0
 17 48  1  0
 17 49  1  0
 17 50  1  0
 18 51  1  0
 26 52  1  0
 28 53  1  0
 29 54  1  0
 30 55  1  0
 31 56  1  0
M  END
>  <Binding energies>  (1) 
[-8.22]

>  <Ligand effiencies>  (1) 
[-0.21631578947368424]

>  <Interactions>  (1) 
["V-A:GLU:543:CD:4906, V-A:ILE:369:CD1:3237, V-A:LEU:475:CD2:4257, V-A:ASP:366:CG:3211, V-A:GLY:454:CA:4047, V-B:TYR:539:CE2:9848, V-A:ILE:369:CG2:3235, V-A:ASP:366:CB:3210, V-A:ILE:369:CB:3234, H-A:TYR:531:OH:4793, V-B:LEU:475:CD2:9231, V-A:ASN:362:CB:3174, V-A:PRO:540:CA:4881, V-B:ASP:366:CG:8185, V-B:ILE:369:CD1:8211, V-A:PRO:540:CB:4883, V-A:ASN:362:C:3170, V-A:TYR:539:C:4865, V-A:TYR:539:CE2:4874, V-B:ILE:369:CG2:8209, V-A:ALA:541:CB:4890, H-A:ARG:545:NH2:4926, V-A:TYR:539:CD2:4872, H-B:TYR:539:OH:9850, H-A:TYR:539:OH:4876, V-B:ILE:369:CB:8208, V-A:ALA:541:CA:4888"]

$$$$
RR19_Rahimova_2017
     RDKit          3D

 72 77  0  0  0  0  0  0  0  0999 V2000
  130.0050  124.7570   58.0740 O   0  0  0  0  0  0  0  0  0  0  0  0
  130.5660  125.4040   58.9630 C   0  0  0  0  0  0  0  0  0  0  0  0
  130.1320  126.5770   59.4890 N   0  0  0  0  0  0  0  0  0  0  0  0
  128.9430  127.2590   59.4010 C   0  0  0  0  0  0  0  0  0  0  0  0
  127.5060  126.6540   58.7420 S   0  0  0  0  0  0  0  0  0  0  0  0
  129.1150  128.5110   59.9370 N   0  0  0  0  0  0  0  0  0  0  0  0
  128.2530  129.5190   60.2260 C   0  0  0  0  0  0  0  0  0  0  0  0
  127.0210  129.4500   60.2270 O   0  0  0  0  0  0  0  0  0  0  0  0
  128.9470  130.8640   60.5570 C   0  0  2  0  0  0  0  0  0  0  0  0
  127.9860  132.0820   60.6790 C   0  0  0  0  0  0  0  0  0  0  0  0
  126.8280  131.8980   61.6470 C   0  0  0  0  0  0  0  0  0  0  0  0
  125.4950  132.1080   61.2310 C   0  0  0  0  0  0  0  0  0  0  0  0
  124.4470  131.8590   62.1050 C   0  0  0  0  0  0  0  0  0  0  0  0
  124.7000  131.3850   63.3870 C   0  0  0  0  0  0  0  0  0  0  0  0
  126.0050  131.1460   63.8010 C   0  0  0  0  0  0  0  0  0  0  0  0
  127.0680  131.3860   62.9400 C   0  0  0  0  0  0  0  0  0  0  0  0
  130.0640  131.1420   59.6130 N   0  0  0  0  0  0  0  0  0  0  0  0
  131.3510  130.8090   59.9200 C   0  0  0  0  0  0  0  0  0  0  0  0
  131.7600  130.2920   60.9610 O   0  0  0  0  0  0  0  0  0  0  0  0
  132.1540  131.1960   58.7340 C   0  0  0  0  0  0  0  0  0  0  0  0
  133.5230  131.0960   58.4840 C   0  0  0  0  0  0  0  0  0  0  0  0
  134.0130  131.5410   57.2520 C   0  0  0  0  0  0  0  0  0  0  0  0
  133.1390  132.0730   56.2940 C   0  0  0  0  0  0  0  0  0  0  0  0
  131.7690  132.1640   56.5640 C   0  0  0  0  0  0  0  0  0  0  0  0
  131.3000  131.7160   57.7990 C   0  0  0  0  0  0  0  0  0  0  0  0
  129.9270  131.6740   58.3620 C   0  0  0  0  0  0  0  0  0  0  0  0
  128.8870  132.0350   57.8100 O   0  0  0  0  0  0  0  0  0  0  0  0
  131.9000  124.8850   59.5620 C   0  0  2  0  0  0  0  0  0  0  0  0
  132.2810  123.4470   59.1030 C   0  0  0  0  0  0  0  0  0  0  0  0
  131.5660  122.3470   59.8660 C   0  0  0  0  0  0  0  0  0  0  0  0
  130.1890  122.4640   60.1530 C   0  0  0  0  0  0  0  0  0  0  0  0
  129.5150  121.4120   60.7610 C   0  0  0  0  0  0  0  0  0  0  0  0
  130.1830  120.2340   61.0630 C   0  0  0  0  0  0  0  0  0  0  0  0
  131.5300  120.0890   60.7510 C   0  0  0  0  0  0  0  0  0  0  0  0
  132.2220  121.1290   60.1440 C   0  0  0  0  0  0  0  0  0  0  0  0
  131.9760  125.0220   61.0440 N   0  0  0  0  0  0  0  0  0  0  0  0
  130.8670  125.2610   61.7990 C   0  0  0  0  0  0  0  0  0  0  0  0
  129.7110  125.4100   61.4020 O   0  0  0  0  0  0  0  0  0  0  0  0
  131.3480  125.3040   63.2030 C   0  0  0  0  0  0  0  0  0  0  0  0
  130.6620  125.5210   64.3990 C   0  0  0  0  0  0  0  0  0  0  0  0
  131.3830  125.5030   65.5980 C   0  0  0  0  0  0  0  0  0  0  0  0
  132.7650  125.2700   65.5870 C   0  0  0  0  0  0  0  0  0  0  0  0
  133.4350  125.0530   64.3770 C   0  0  0  0  0  0  0  0  0  0  0  0
  132.6970  125.0770   63.1920 C   0  0  0  0  0  0  0  0  0  0  0  0
  133.1160  124.8820   61.7830 C   0  0  0  0  0  0  0  0  0  0  0  0
  134.2510  124.6440   61.3680 O   0  0  0  0  0  0  0  0  0  0  0  0
  130.7780  126.9800   60.1520 H   0  0  0  0  0  0  0  0  0  0  0  0
  130.0830  128.7710   60.0530 H   0  0  0  0  0  0  0  0  0  0  0  0
  129.3609  130.7310   61.5675 H   0  0  0  0  0  0  0  0  0  0  0  0
  128.5753  132.9483   61.0140 H   0  0  0  0  0  0  0  0  0  0  0  0
  127.5347  132.2158   59.6848 H   0  0  0  0  0  0  0  0  0  0  0  0
  125.2875  132.4694   60.2130 H   0  0  0  0  0  0  0  0  0  0  0  0
  123.4107  132.0375   61.7820 H   0  0  0  0  0  0  0  0  0  0  0  0
  123.8637  131.1983   64.0768 H   0  0  0  0  0  0  0  0  0  0  0  0
  126.1968  130.7651   64.8150 H   0  0  0  0  0  0  0  0  0  0  0  0
  128.0975  131.1769   63.2661 H   0  0  0  0  0  0  0  0  0  0  0  0
  134.2027  130.6760   59.2401 H   0  0  0  0  0  0  0  0  0  0  0  0
  135.0890  131.4732   57.0339 H   0  0  0  0  0  0  0  0  0  0  0  0
  133.5313  132.4201   55.3267 H   0  0  0  0  0  0  0  0  0  0  0  0
  131.0762  132.5802   55.8178 H   0  0  0  0  0  0  0  0  0  0  0  0
  132.6615  125.5564   59.1386 H   0  0  0  0  0  0  0  0  0  0  0  0
  132.0317  123.3467   58.0363 H   0  0  0  0  0  0  0  0  0  0  0  0
  133.3563  123.3241   59.2994 H   0  0  0  0  0  0  0  0  0  0  0  0
  129.6497  123.3875   59.8955 H   0  0  0  0  0  0  0  0  0  0  0  0
  128.4470  121.5135   61.0040 H   0  0  0  0  0  0  0  0  0  0  0  0
  129.6435  119.4097   61.5523 H   0  0  0  0  0  0  0  0  0  0  0  0
  132.0491  119.1480   60.9855 H   0  0  0  0  0  0  0  0  0  0  0  0
  133.2823  121.0031   59.8797 H   0  0  0  0  0  0  0  0  0  0  0  0
  129.5771  125.7024   64.3990 H   0  0  0  0  0  0  0  0  0  0  0  0
  130.8633  125.6723   66.5526 H   0  0  0  0  0  0  0  0  0  0  0  0
  133.3257  125.2576   66.5333 H   0  0  0  0  0  0  0  0  0  0  0  0
  134.5191  124.8676   64.3603 H   0  0  0  0  0  0  0  0  0  0  0  0
  1  2  2  0
  2  3  1  0
  3  4  1  0
  4  5  2  0
  4  6  1  0
  6  7  1  0
  7  8  2  0
  7  9  1  0
  9 10  1  0
 10 11  1  0
 11 12  2  0
 12 13  1  0
 13 14  2  0
 14 15  1  0
 15 16  2  0
  9 17  1  0
 17 18  1  0
 18 19  2  0
 18 20  1  0
 20 21  2  0
 21 22  1  0
 22 23  2  0
 23 24  1  0
 24 25  2  0
 25 26  1  0
 26 27  2  0
  2 28  1  0
 28 29  1  0
 29 30  1  0
 30 31  2  0
 31 32  1  0
 32 33  2  0
 33 34  1  0
 34 35  2  0
 28 36  1  0
 36 37  1  0
 37 38  2  0
 37 39  1  0
 39 40  2  0
 40 41  1  0
 41 42  2  0
 42 43  1  0
 43 44  2  0
 44 45  1  0
 45 46  2  0
 16 11  1  0
 26 17  1  0
 35 30  1  0
 45 36  1  0
 25 20  1  0
 44 39  1  0
  3 47  1  0
  6 48  1  0
  9 49  1  1
 10 50  1  0
 10 51  1  0
 12 52  1  0
 13 53  1  0
 14 54  1  0
 15 55  1  0
 16 56  1  0
 21 57  1  0
 22 58  1  0
 23 59  1  0
 24 60  1  0
 28 61  1  6
 29 62  1  0
 29 63  1  0
 31 64  1  0
 32 65  1  0
 33 66  1  0
 34 67  1  0
 35 68  1  0
 40 69  1  0
 41 70  1  0
 42 71  1  0
 43 72  1  0
M  END
>  <Binding energies>  (1) 
[-10.22]

>  <Ligand effiencies>  (1) 
[-0.21291666666666667]

>  <Interactions>  (1) 
["V-A:HIS:456:CE1:4068, V-B:GLU:543:CD:9880, V-A:ARG:545:CZ:4924, V-A:ARG:545:CG:4920, V-A:ARG:545:CD:4921, V-A:TYR:484:CZ:4345, V-B:TYR:539:CZ:9849, V-A:TRP:381:CZ2:3368, V-A:LEU:475:CD2:4257, V-A:TRP:381:CH2:3370, V-A:GLY:453:CA:4042, V-A:ASP:366:CG:3211, V-B:ALA:541:CB:9864, V-B:TYR:539:CD2:9846, V-B:TYR:539:CE2:9848, V-A:PRO:540:CG:4884, V-A:PRO:540:CA:4881, V-A:PRO:540:N:4882, V-A:PRO:540:CB:4883, V-A:PRO:540:CD:4885, V-A:TYR:539:C:4865, V-A:TYR:531:CE2:4791, V-A:LEU:363:CA:3183, V-B:GLY:454:CA:9021, H-A:ARG:545:NH2:4926, H-A:ASP:366:OD2:3213, V-A:LEU:363:CD1:3187, V-A:LEU:363:CB:3185, V-A:ILE:538:CB:4860"]

$$$$
RR19_Rahimova_2017-again1
     RDKit          3D

 71 76  0  0  0  0  0  0  0  0999 V2000
  130.3200  123.2990   62.7360 O   0  0  0  0  0  0  0  0  0  0  0  0
  129.5000  123.5940   61.8640 C   0  0  0  0  0  0  0  0  0  0  0  0
  129.1350  124.8500   61.5120 N   0  0  0  0  0  0  0  0  0  0  0  0
  129.6100  126.0850   61.8550 C   0  0  0  0  0  0  0  0  0  0  0  0
  130.7920  126.5230   62.9660 S   0  0  0  0  0  0  0  0  0  0  0  0
  128.9770  126.9960   61.0280 N   0  0  0  0  0  0  0  0  0  0  0  0
  127.7720  126.9740   60.5580 C   0  0  0  0  0  0  0  0  0  0  0  0
  126.8330  126.1840   60.7800 O   0  0  0  0  0  0  0  0  0  0  0  0
  127.4310  128.1060   59.5320 C   0  0  2  0  0  0  0  0  0  0  0  0
  128.7080  128.5830   58.7630 C   0  0  0  0  0  0  0  0  0  0  0  0
  129.4780  127.4680   58.0590 C   0  0  0  0  0  0  0  0  0  0  0  0
  130.8200  127.6560   57.7190 C   0  0  0  0  0  0  0  0  0  0  0  0
  131.5280  126.6340   57.0910 C   0  0  0  0  0  0  0  0  0  0  0  0
  130.8900  125.4290   56.8020 C   0  0  0  0  0  0  0  0  0  0  0  0
  129.5500  125.2370   57.1350 C   0  0  0  0  0  0  0  0  0  0  0  0
  128.8420  126.2590   57.7620 C   0  0  0  0  0  0  0  0  0  0  0  0
  126.6020  129.2130   60.1130 N   0  0  0  0  0  0  0  0  0  0  0  0
  126.7630  129.6240   61.4030 C   0  0  0  0  0  0  0  0  0  0  0  0
  127.5480  129.1740   62.2390 O   0  0  0  0  0  0  0  0  0  0  0  0
  125.7880  130.7290   61.5890 C   0  0  0  0  0  0  0  0  0  0  0  0
  125.5040  131.5200   62.7030 C   0  0  0  0  0  0  0  0  0  0  0  0
  124.5170  132.5050   62.5900 C   0  0  0  0  0  0  0  0  0  0  0  0
  123.8350  132.6880   61.3800 C   0  0  0  0  0  0  0  0  0  0  0  0
  124.1350  131.8850   60.2740 C   0  0  0  0  0  0  0  0  0  0  0  0
  125.1210  130.9070   60.4080 C   0  0  0  0  0  0  0  0  0  0  0  0
  125.6500  129.9230   59.4330 C   0  0  0  0  0  0  0  0  0  0  0  0
  125.3030  129.7800   58.2610 O   0  0  0  0  0  0  0  0  0  0  0  0
  128.7840  122.4650   61.0650 C   0  0  2  0  0  0  0  0  0  0  0  0
  129.7550  121.3940   60.4890 C   0  0  0  0  0  0  0  0  0  0  0  0
  131.1920  121.8680   60.3630 C   0  0  0  0  0  0  0  0  0  0  0  0
  132.2520  121.0250   60.7590 C   0  0  0  0  0  0  0  0  0  0  0  0
  133.5680  121.4190   60.5510 C   0  0  0  0  0  0  0  0  0  0  0  0
  133.8460  122.6300   59.9300 C   0  0  0  0  0  0  0  0  0  0  0  0
  132.8120  123.4530   59.5010 C   0  0  0  0  0  0  0  0  0  0  0  0
  131.4900  123.0770   59.6990 C   0  0  0  0  0  0  0  0  0  0  0  0
  127.8230  122.9630   60.0350 N   0  0  0  0  0  0  0  0  0  0  0  0
  128.0810  122.8470   58.7020 C   0  0  0  0  0  0  0  0  0  0  0  0
  129.1090  122.4220   58.1740 O   0  0  0  0  0  0  0  0  0  0  0  0
  126.8580  123.3340   58.0190 C   0  0  0  0  0  0  0  0  0  0  0  0
  126.5470  123.4340   56.6610 C   0  0  0  0  0  0  0  0  0  0  0  0
  125.2850  123.9180   56.2980 C   0  0  0  0  0  0  0  0  0  0  0  0
  124.3620  124.2940   57.2820 C   0  0  0  0  0  0  0  0  0  0  0  0
  124.6930  124.1890   58.6380 C   0  0  0  0  0  0  0  0  0  0  0  0
  125.9550  123.7010   58.9800 C   0  0  0  0  0  0  0  0  0  0  0  0
  126.5760  123.4520   60.3040 C   0  0  0  0  0  0  0  0  0  0  0  0
  126.0670  123.6360   61.4110 O   0  0  0  0  0  0  0  0  0  0  0  0
  128.4310  124.8830   60.7910 H   0  0  0  0  0  0  0  0  0  0  0  0
  126.7683  127.6658   58.7724 H   0  0  0  0  0  0  0  0  0  0  0  0
  128.3981  129.3177   58.0052 H   0  0  0  0  0  0  0  0  0  0  0  0
  129.3883  129.0038   59.5180 H   0  0  0  0  0  0  0  0  0  0  0  0
  131.3171  128.6104   57.9471 H   0  0  0  0  0  0  0  0  0  0  0  0
  132.5856  126.7772   56.8244 H   0  0  0  0  0  0  0  0  0  0  0  0
  131.4492  124.6217   56.3064 H   0  0  0  0  0  0  0  0  0  0  0  0
  129.0543  124.2827   56.9035 H   0  0  0  0  0  0  0  0  0  0  0  0
  127.7832  126.1152   58.0234 H   0  0  0  0  0  0  0  0  0  0  0  0
  126.0445  131.3722   63.6496 H   0  0  0  0  0  0  0  0  0  0  0  0
  124.2752  133.1391   63.4557 H   0  0  0  0  0  0  0  0  0  0  0  0
  123.0611  133.4655   61.2991 H   0  0  0  0  0  0  0  0  0  0  0  0
  123.6051  132.0218   59.3198 H   0  0  0  0  0  0  0  0  0  0  0  0
  128.1733  121.9521   61.8226 H   0  0  0  0  0  0  0  0  0  0  0  0
  129.7368  120.5175   61.1533 H   0  0  0  0  0  0  0  0  0  0  0  0
  129.4059  121.1617   59.4720 H   0  0  0  0  0  0  0  0  0  0  0  0
  132.0364  120.0558   61.2324 H   0  0  0  0  0  0  0  0  0  0  0  0
  134.3928  120.7695   60.8793 H   0  0  0  0  0  0  0  0  0  0  0  0
  134.8905  122.9391   59.7770 H   0  0  0  0  0  0  0  0  0  0  0  0
  133.0416  124.4063   59.0025 H   0  0  0  0  0  0  0  0  0  0  0  0
  130.6750  123.7216   59.3382 H   0  0  0  0  0  0  0  0  0  0  0  0
  127.2779  123.1388   55.8937 H   0  0  0  0  0  0  0  0  0  0  0  0
  125.0167  124.0035   55.2347 H   0  0  0  0  0  0  0  0  0  0  0  0
  123.3724  124.6736   56.9879 H   0  0  0  0  0  0  0  0  0  0  0  0
  123.9745  124.4845   59.4167 H   0  0  0  0  0  0  0  0  0  0  0  0
  1  2  2  0
  2  3  1  0
  3  4  1  0
  4  5  2  0
  4  6  1  0
  6  7  2  0
  7  8  1  0
  7  9  1  0
  9 10  1  0
 10 11  1  0
 11 12  2  0
 12 13  1  0
 13 14  2  0
 14 15  1  0
 15 16  2  0
  9 17  1  0
 17 18  1  0
 18 19  2  0
 18 20  1  0
 20 21  2  0
 21 22  1  0
 22 23  2  0
 23 24  1  0
 24 25  2  0
 25 26  1  0
 26 27  2  0
  2 28  1  0
 28 29  1  0
 29 30  1  0
 30 31  2  0
 31 32  1  0
 32 33  2  0
 33 34  1  0
 34 35  2  0
 28 36  1  0
 36 37  1  0
 37 38  2  0
 37 39  1  0
 39 40  2  0
 40 41  1  0
 41 42  2  0
 42 43  1  0
 43 44  2  0
 44 45  1  0
 45 46  2  0
 16 11  1  0
 26 17  1  0
 35 30  1  0
 45 36  1  0
 25 20  1  0
 44 39  1  0
  3 47  1  0
  9 48  1  6
 10 49  1  0
 10 50  1  0
 12 51  1  0
 13 52  1  0
 14 53  1  0
 15 54  1  0
 16 55  1  0
 21 56  1  0
 22 57  1  0
 23 58  1  0
 24 59  1  0
 28 60  1  1
 29 61  1  0
 29 62  1  0
 31 63  1  0
 32 64  1  0
 33 65  1  0
 34 66  1  0
 35 67  1  0
 40 68  1  0
 41 69  1  0
 42 70  1  0
 43 71  1  0
M  CHG  1   8  -1
M  END
>  <Binding energies>  (1) 
[-7.66]

>  <Ligand effiencies>  (1) 
[-0.16297872340425532]

>  <Interactions>  (1) 
["V-B:GLU:543:CD:9880, V-A:GLU:543:CD:4906, V-A:ARG:545:CZ:4924, H-B:GLU:543:OE1:9881, V-B:TYR:539:CZ:9849, V-B:PRO:540:C:9853, V-A:ILE:369:CD1:3237, V-A:LEU:475:CD2:4257, V-B:PRO:540:CA:9855, V-B:TYR:539:C:9839, V-B:ALA:541:CA:9862, V-A:ASP:366:CG:3211, V-B:ALA:541:CB:9864, V-B:TYR:539:CD2:9846, V-B:TYR:539:CE2:9848, V-A:ILE:369:CG2:3235, V-B:PRO:540:N:9856, V-B:PRO:540:CB:9857, V-A:ASP:366:CB:3210, V-A:ILE:369:CG1:3236, V-A:ILE:369:CB:3234, V-B:LEU:475:CD2:9231, V-B:ASP:366:CG:8185, V-B:ILE:369:CD1:8211, H-B:ARG:545:NH2:9900, H-B:ALA:541:N:9863, V-A:TYR:539:CE2:4874, V-B:ILE:369:CG2:8209, V-B:GLY:454:CA:9021, V-B:TYR:531:CZ:9766, V-B:TYR:531:CE2:9765"]

$$$$
RR1_Rahimova_2017
     RDKit          3D

 68 71  0  0  0  0  0  0  0  0999 V2000
  124.1520  133.5740   60.7030 C   0  0  0  0  0  0  0  0  0  0  0  0
  123.5760  132.9030   61.8180 O   0  0  0  0  0  0  0  0  0  0  0  0
  124.3670  132.0730   62.5880 C   0  0  0  0  0  0  0  0  0  0  0  0
  125.6040  132.4450   63.1380 C   0  0  0  0  0  0  0  0  0  0  0  0
  126.3360  131.5370   63.8970 C   0  0  0  0  0  0  0  0  0  0  0  0
  125.8470  130.2500   64.1240 C   0  0  0  0  0  0  0  0  0  0  0  0
  126.6810  129.3900   64.8640 N   0  0  0  0  0  0  0  0  0  0  0  0
  127.2790  129.5970   66.0580 C   0  0  0  0  0  0  0  0  0  0  0  0
  127.2390  130.6530   66.6880 O   0  0  0  0  0  0  0  0  0  0  0  0
  128.0500  128.3850   66.6050 C   0  0  0  0  0  0  0  0  0  0  0  0
  127.2450  127.5020   67.9860 S   0  0  0  0  0  0  0  0  0  0  0  0
  128.6640  127.3150   69.0130 C   0  0  0  0  0  0  0  0  0  0  0  0
  128.6190  127.1850   70.3150 N   0  0  0  0  0  0  0  0  0  0  0  0
  129.8950  127.0620   70.6660 C   0  0  0  0  0  0  0  0  0  0  0  0
  130.3210  126.8730   72.0940 C   0  0  0  0  0  0  0  0  0  0  0  0
  131.4950  126.1770   72.4240 C   0  0  0  0  0  0  0  0  0  0  0  0
  131.8640  126.0150   73.7610 C   0  0  0  0  0  0  0  0  0  0  0  0
  131.0420  126.5570   74.7480 C   0  0  0  0  0  0  0  0  0  0  0  0
  129.9010  127.2340   74.4640 N   0  0  0  0  0  0  0  0  0  0  0  0
  129.5610  127.3830   73.1590 C   0  0  0  0  0  0  0  0  0  0  0  0
  130.7630  127.1140   69.6730 N   0  0  0  0  0  0  0  0  0  0  0  0
  129.9730  127.2780   68.6070 N   0  0  0  0  0  0  0  0  0  0  0  0
  130.5460  127.3610   67.2640 C   0  0  0  0  0  0  0  0  0  0  0  0
  130.4770  126.0590   66.4460 C   0  0  0  0  0  0  0  0  0  0  0  0
  129.8810  125.0680   66.8830 O   0  0  0  0  0  0  0  0  0  0  0  0
  131.1070  126.1010   65.2570 N   0  0  0  0  0  0  0  0  0  0  0  0
  130.9640  125.0170   64.4020 N   0  0  0  0  0  0  0  0  0  0  0  0
  132.0790  124.5150   63.8270 C   0  0  0  0  0  0  0  0  0  0  0  0
  133.2250  124.8940   64.0930 O   0  0  0  0  0  0  0  0  0  0  0  0
  131.8550  123.4050   62.8210 C   0  0  0  0  0  0  0  0  0  0  0  0
  132.9390  122.6460   62.3650 C   0  0  0  0  0  0  0  0  0  0  0  0
  132.7580  121.6300   61.4330 C   0  0  0  0  0  0  0  0  0  0  0  0
  131.4820  121.3450   60.9200 C   0  0  0  0  0  0  0  0  0  0  0  0
  131.2360  120.3590   59.9820 O   0  0  0  0  0  0  0  0  0  0  0  0
  130.3360  119.3020   60.2950 C   0  0  0  0  0  0  0  0  0  0  0  0
  130.3850  122.0980   61.3580 C   0  0  0  0  0  0  0  0  0  0  0  0
  129.1520  121.7910   60.8070 O   0  0  0  0  0  0  0  0  0  0  0  0
  128.4010  122.8060   60.1510 C   0  0  0  0  0  0  0  0  0  0  0  0
  130.5800  123.1180   62.3060 C   0  0  0  0  0  0  0  0  0  0  0  0
  124.6100  129.8740   63.5770 C   0  0  0  0  0  0  0  0  0  0  0  0
  123.8810  130.7860   62.8200 C   0  0  0  0  0  0  0  0  0  0  0  0
  124.8297  134.3634   61.0602 H   0  0  0  0  0  0  0  0  0  0  0  0
  124.7173  132.8536   60.0935 H   0  0  0  0  0  0  0  0  0  0  0  0
  123.3543  134.0236   60.0935 H   0  0  0  0  0  0  0  0  0  0  0  0
  125.9962  133.4586   62.9682 H   0  0  0  0  0  0  0  0  0  0  0  0
  127.3062  131.8357   64.3207 H   0  0  0  0  0  0  0  0  0  0  0  0
  126.8800  128.5100   64.4110 H   0  0  0  0  0  0  0  0  0  0  0  0
  128.1883  127.6705   65.7802 H   0  0  0  0  0  0  0  0  0  0  0  0
  128.9928  128.7828   67.0085 H   0  0  0  0  0  0  0  0  0  0  0  0
  132.1262  125.7579   71.6266 H   0  0  0  0  0  0  0  0  0  0  0  0
  132.7823  125.4721   74.0293 H   0  0  0  0  0  0  0  0  0  0  0  0
  131.3308  126.4304   75.8018 H   0  0  0  0  0  0  0  0  0  0  0  0
  128.6388  127.9339   72.9221 H   0  0  0  0  0  0  0  0  0  0  0  0
  130.0044  128.1415   66.7095 H   0  0  0  0  0  0  0  0  0  0  0  0
  131.6149  127.5832   67.3989 H   0  0  0  0  0  0  0  0  0  0  0  0
  131.4140  126.9460   64.7950 H   0  0  0  0  0  0  0  0  0  0  0  0
  130.0880  125.0540   63.9020 H   0  0  0  0  0  0  0  0  0  0  0  0
  133.9481  122.8561   62.7492 H   0  0  0  0  0  0  0  0  0  0  0  0
  133.6241  121.0428   61.0937 H   0  0  0  0  0  0  0  0  0  0  0  0
  130.2520  119.2033   61.3873 H   0  0  0  0  0  0  0  0  0  0  0  0
  129.3463  119.5251   59.8698 H   0  0  0  0  0  0  0  0  0  0  0  0
  130.7140  118.3606   59.8698 H   0  0  0  0  0  0  0  0  0  0  0  0
  127.9231  123.4519   60.9022 H   0  0  0  0  0  0  0  0  0  0  0  0
  129.0717  123.4096   59.5218 H   0  0  0  0  0  0  0  0  0  0  0  0
  127.6277  122.3412   59.5218 H   0  0  0  0  0  0  0  0  0  0  0  0
  129.7155  123.7038   62.6518 H   0  0  0  0  0  0  0  0  0  0  0  0
  124.2178  128.8604   63.7465 H   0  0  0  0  0  0  0  0  0  0  0  0
  122.9092  130.4884   62.3992 H   0  0  0  0  0  0  0  0  0  0  0  0
  1  2  1  0
  2  3  1  0
  3  4  2  0
  4  5  1  0
  5  6  2  0
  6  7  1  0
  7  8  1  0
  8  9  2  0
  8 10  1  0
 10 11  1  0
 11 12  1  0
 12 13  2  0
 13 14  1  0
 14 15  1  0
 15 16  2  0
 16 17  1  0
 17 18  2  0
 18 19  1  0
 19 20  2  0
 14 21  2  0
 21 22  1  0
 22 23  1  0
 23 24  1  0
 24 25  2  0
 24 26  1  0
 26 27  1  0
 27 28  1  0
 28 29  2  0
 28 30  1  0
 30 31  2  0
 31 32  1  0
 32 33  2  0
 33 34  1  0
 34 35  1  0
 33 36  1  0
 36 37  1  0
 37 38  1  0
 36 39  2  0
  6 40  1  0
 40 41  2  0
 41  3  1  0
 22 12  1  0
 39 30  1  0
 20 15  1  0
  1 42  1  0
  1 43  1  0
  1 44  1  0
  4 45  1  0
  5 46  1  0
  7 47  1  0
 10 48  1  0
 10 49  1  0
 16 50  1  0
 17 51  1  0
 18 52  1  0
 20 53  1  0
 23 54  1  0
 23 55  1  0
 26 56  1  0
 27 57  1  0
 31 58  1  0
 32 59  1  0
 35 60  1  0
 35 61  1  0
 35 62  1  0
 38 63  1  0
 38 64  1  0
 38 65  1  0
 39 66  1  0
 40 67  1  0
 41 68  1  0
M  END
>  <Binding energies>  (1) 
[-10.37]

>  <Ligand effiencies>  (1) 
[-0.23568181818181816]

>  <Interactions>  (1) 
["V-B:ARG:545:CZ:9898, V-B:GLU:543:CB:9878, V-B:GLY:453:CA:9016, V-A:HIS:456:CE1:4068, V-A:HIS:456:CD2:4066, V-B:GLU:543:CD:9880, H-B:TYR:484:OH:9320, V-A:GLU:543:CD:4906, V-B:HIS:456:CE1:9042, H-A:LYS:547:NZ:4949, V-A:GLY:544:C:4910, V-A:GLU:543:CB:4904, V-B:GLY:453:C:9014, V-B:GLU:543:CG:9879, V-A:GLU:543:CG:4905, H-A:GLY:454:N:4048, H-B:LYS:547:NZ:9923, V-B:GLU:543:C:9874, V-A:ARG:545:CG:4920, V-A:LYS:547:CE:4948, H-A:TYR:484:OH:4346, V-A:HIS:456:CG:4064, V-A:HIS:456:CB:4063, V-B:LYS:547:CE:9922, H-B:GLU:543:OE1:9881, H-A:ARG:545:NE:4922, V-A:LYS:547:CD:4947, V-A:TRP:381:CZ2:3368, V-A:LEU:475:CD2:4257, V-A:TRP:381:CH2:3370, V-B:PRO:540:CA:9855, V-B:TYR:539:C:9839, V-A:GLY:454:CA:4047, V-B:ALA:541:CB:9864, V-B:TYR:539:CD2:9846, V-B:LEU:475:CD2:9231, V-B:ILE:369:CD1:8211, H-B:ALA:541:N:9863, V-A:TYR:539:CE2:4874, V-B:ILE:369:CG2:8209, V-B:GLY:454:CA:9021, V-A:TRP:381:CZ3:3369, V-A:PRO:482:CG:4325, V-A:PRO:482:CB:4324, H-A:GLU:543:OE2:4908, H-A:GLU:543:OE1:4907, H-B:GLU:543:OE2:9882, H-A:HIS:456:ND1:4065"]

$$$$
RR20_Rahimova_2017
     RDKit          3D

 68 73  0  0  0  0  0  0  0  0999 V2000
  125.5770  129.4000   65.9980 C   0  0  0  0  0  0  0  0  0  0  0  0
  125.4490  129.9070   64.5730 C   0  0  0  0  0  0  0  0  0  0  0  0
  126.5780  130.3720   63.8980 C   0  0  0  0  0  0  0  0  0  0  0  0
  126.4650  130.8300   62.5880 C   0  0  0  0  0  0  0  0  0  0  0  0
  125.2210  130.8390   61.9470 C   0  0  0  0  0  0  0  0  0  0  0  0
  125.1230  131.3210   60.5170 C   0  0  0  0  0  0  0  0  0  0  0  0
  125.0980  132.5390   60.3250 O   0  0  0  0  0  0  0  0  0  0  0  0
  125.0800  130.4060   59.5040 N   0  0  0  0  0  0  0  0  0  0  0  0
  124.7840  130.8030   58.1180 C   0  0  0  0  0  0  0  0  0  0  0  0
  124.9760  129.5600   57.2660 C   0  0  0  0  0  0  0  0  0  0  0  0
  125.7330  128.6440   58.1790 C   0  0  0  0  0  0  0  0  0  0  0  0
  126.2670  127.3820   57.9140 C   0  0  0  0  0  0  0  0  0  0  0  0
  126.8020  126.6020   58.9460 C   0  0  0  0  0  0  0  0  0  0  0  0
  127.3850  125.2460   58.6600 C   0  0  0  0  0  0  0  0  0  0  0  0
  128.4100  124.8360   59.3890 N   0  0  0  0  0  0  0  0  0  0  0  0
  128.8230  123.6360   59.0670 C   0  0  0  0  0  0  0  0  0  0  0  0
  129.8620  122.9110   59.6300 N   0  0  0  0  0  0  0  0  0  0  0  0
  129.7570  121.8140   60.4190 C   0  0  0  0  0  0  0  0  0  0  0  0
  128.6850  121.2900   60.7310 O   0  0  0  0  0  0  0  0  0  0  0  0
  131.0610  121.1640   60.9380 C   0  0  0  0  0  0  0  0  0  0  0  0
  131.7950  122.0230   61.8860 N   0  0  0  0  0  0  0  0  0  0  0  0
  132.8030  122.8610   61.2190 C   0  0  0  0  0  0  0  0  0  0  0  0
  133.7160  123.5340   62.2690 C   0  0  0  0  0  0  0  0  0  0  0  0
  132.9360  124.1470   63.4330 C   0  0  0  0  0  0  0  0  0  0  0  0
  133.5540  125.0220   64.3330 C   0  0  0  0  0  0  0  0  0  0  0  0
  132.8540  125.5500   65.4150 C   0  0  0  0  0  0  0  0  0  0  0  0
  131.5180  125.2090   65.6080 C   0  0  0  0  0  0  0  0  0  0  0  0
  130.8880  124.3460   64.7140 C   0  0  0  0  0  0  0  0  0  0  0  0
  131.5810  123.8070   63.6240 C   0  0  0  0  0  0  0  0  0  0  0  0
  130.8740  122.9070   62.6100 C   0  0  0  0  0  0  0  0  0  0  0  0
  127.9460  122.9040   57.7810 S   0  0  0  0  0  0  0  0  0  0  0  0
  126.9540  124.3380   57.6700 C   0  0  0  0  0  0  0  0  0  0  0  0
  125.8740  124.4420   56.6150 C   0  0  0  0  0  0  0  0  0  0  0  0
  126.7380  127.0950   60.2590 C   0  0  0  0  0  0  0  0  0  0  0  0
  126.1880  128.3480   60.5300 C   0  0  0  0  0  0  0  0  0  0  0  0
  125.7340  129.1530   59.4770 C   0  0  0  0  0  0  0  0  0  0  0  0
  124.0970  130.3440   62.6210 C   0  0  0  0  0  0  0  0  0  0  0  0
  124.2100  129.8850   63.9320 C   0  0  0  0  0  0  0  0  0  0  0  0
  125.3696  130.2215   66.6995 H   0  0  0  0  0  0  0  0  0  0  0  0
  124.8563  128.5857   66.1636 H   0  0  0  0  0  0  0  0  0  0  0  0
  126.5979  129.0254   66.1636 H   0  0  0  0  0  0  0  0  0  0  0  0
  127.5566  130.3768   64.4003 H   0  0  0  0  0  0  0  0  0  0  0  0
  127.3582  131.1866   62.0541 H   0  0  0  0  0  0  0  0  0  0  0  0
  123.7475  131.1626   58.0383 H   0  0  0  0  0  0  0  0  0  0  0  0
  125.4432  131.6191   57.7873 H   0  0  0  0  0  0  0  0  0  0  0  0
  124.0081  129.1227   56.9797 H   0  0  0  0  0  0  0  0  0  0  0  0
  125.4980  129.7585   56.3183 H   0  0  0  0  0  0  0  0  0  0  0  0
  126.2675  126.9964   56.8838 H   0  0  0  0  0  0  0  0  0  0  0  0
  130.7950  123.2470   59.4320 H   0  0  0  0  0  0  0  0  0  0  0  0
  130.8055  120.2215   61.4444 H   0  0  0  0  0  0  0  0  0  0  0  0
  131.7150  120.9989   60.0691 H   0  0  0  0  0  0  0  0  0  0  0  0
  133.4148  122.2337   60.5540 H   0  0  0  0  0  0  0  0  0  0  0  0
  132.2924  123.6405   60.6345 H   0  0  0  0  0  0  0  0  0  0  0  0
  134.4067  122.7774   62.6696 H   0  0  0  0  0  0  0  0  0  0  0  0
  134.2512  124.3518   61.7642 H   0  0  0  0  0  0  0  0  0  0  0  0
  134.6086  125.2970   64.1837 H   0  0  0  0  0  0  0  0  0  0  0  0
  133.3552  126.2345   66.1152 H   0  0  0  0  0  0  0  0  0  0  0  0
  130.9617  125.6196   66.4635 H   0  0  0  0  0  0  0  0  0  0  0  0
  129.8306  124.0844   64.8670 H   0  0  0  0  0  0  0  0  0  0  0  0
  130.1401  122.2861   63.1446 H   0  0  0  0  0  0  0  0  0  0  0  0
  130.3952  123.5619   61.8672 H   0  0  0  0  0  0  0  0  0  0  0  0
  124.8927  124.5365   57.1029 H   0  0  0  0  0  0  0  0  0  0  0  0
  126.0582  125.3266   55.9876 H   0  0  0  0  0  0  0  0  0  0  0  0
  125.8861  123.5385   55.9876 H   0  0  0  0  0  0  0  0  0  0  0  0
  127.1275  126.4839   61.0866 H   0  0  0  0  0  0  0  0  0  0  0  0
  126.1109  128.7033   61.5682 H   0  0  0  0  0  0  0  0  0  0  0  0
  123.1215  130.3175   62.1134 H   0  0  0  0  0  0  0  0  0  0  0  0
  123.3232  129.5057   64.4609 H   0  0  0  0  0  0  0  0  0  0  0  0
  1  2  1  0
  2  3  2  0
  3  4  1  0
  4  5  2  0
  5  6  1  0
  6  7  2  0
  6  8  1  0
  8  9  1  0
  9 10  1  0
 10 11  1  0
 11 12  2  0
 12 13  1  0
 13 14  1  0
 14 15  1  0
 15 16  2  0
 16 17  1  0
 17 18  1  0
 18 19  2  0
 18 20  1  0
 20 21  1  0
 21 22  1  0
 22 23  1  0
 23 24  1  0
 24 25  2  0
 25 26  1  0
 26 27  2  0
 27 28  1  0
 28 29  2  0
 29 30  1  0
 16 31  1  0
 31 32  1  0
 32 33  1  0
 13 34  2  0
 34 35  1  0
 35 36  2  0
  5 37  1  0
 37 38  2  0
 38  2  1  0
 36  8  1  0
 36 11  1  0
 32 14  2  0
 30 21  1  0
 29 24  1  0
  1 39  1  0
  1 40  1  0
  1 41  1  0
  3 42  1  0
  4 43  1  0
  9 44  1  0
  9 45  1  0
 10 46  1  0
 10 47  1  0
 12 48  1  0
 17 49  1  0
 20 50  1  0
 20 51  1  0
 22 52  1  0
 22 53  1  0
 23 54  1  0
 23 55  1  0
 25 56  1  0
 26 57  1  0
 27 58  1  0
 28 59  1  0
 30 60  1  0
 30 61  1  0
 33 62  1  0
 33 63  1  0
 33 64  1  0
 34 65  1  0
 35 66  1  0
 37 67  1  0
 38 68  1  0
M  END
>  <Binding energies>  (1) 
[-8.66]

>  <Ligand effiencies>  (1) 
[-0.22205128205128205]

>  <Interactions>  (1) 
["V-B:ARG:545:CZ:9898, V-B:GLU:543:CB:9878, V-B:GLY:453:CA:9016, V-A:HIS:456:CE1:4068, V-B:GLU:543:CD:9880, V-A:GLU:543:CD:4906, V-B:HIS:456:CE1:9042, V-A:ARG:545:CZ:4924, V-A:ARG:545:CG:4920, V-A:ARG:545:CD:4921, V-A:TYR:484:CZ:4345, V-A:GLY:453:C:4040, V-B:TYR:539:CG:9844, V-A:ILE:369:CD1:3237, V-A:LEU:475:CD2:4257, V-B:PRO:540:CA:9855, V-A:GLY:453:CA:4042, V-B:TYR:539:C:9839, V-A:GLY:454:CA:4047, V-B:ALA:541:CB:9864, V-B:TYR:539:CD2:9846, V-B:TYR:539:CE2:9848, V-B:PRO:540:N:9856, V-B:ASP:366:CG:8185, H-B:ALA:541:N:9863, V-A:TYR:539:CE2:4874, V-B:ASP:366:CB:8184, V-A:TYR:539:CZ:4875, V-B:ARG:545:CG:9894, V-B:ARG:545:CD:9895"]

$$$$
RR20_Rahimova_2017-again1
     RDKit          3D

 68 73  0  0  0  0  0  0  0  0999 V2000
  126.5280  129.6830   65.9920 C   0  0  0  0  0  0  0  0  0  0  0  0
  126.0140  130.2250   64.6700 C   0  0  0  0  0  0  0  0  0  0  0  0
  126.8430  131.0140   63.8720 C   0  0  0  0  0  0  0  0  0  0  0  0
  126.3750  131.5060   62.6570 C   0  0  0  0  0  0  0  0  0  0  0  0
  125.0700  131.2220   62.2350 C   0  0  0  0  0  0  0  0  0  0  0  0
  124.5850  131.7500   60.9030 C   0  0  0  0  0  0  0  0  0  0  0  0
  124.2460  132.9340   60.8450 O   0  0  0  0  0  0  0  0  0  0  0  0
  124.5670  130.9170   59.8220 N   0  0  0  0  0  0  0  0  0  0  0  0
  124.0870  131.3740   58.5070 C   0  0  0  0  0  0  0  0  0  0  0  0
  124.3560  130.2380   57.5340 C   0  0  0  0  0  0  0  0  0  0  0  0
  125.3100  129.3670   58.2950 C   0  0  0  0  0  0  0  0  0  0  0  0
  125.9700  128.2120   57.8750 C   0  0  0  0  0  0  0  0  0  0  0  0
  126.6990  127.4330   58.7870 C   0  0  0  0  0  0  0  0  0  0  0  0
  127.4050  126.1870   58.3370 C   0  0  0  0  0  0  0  0  0  0  0  0
  128.7130  126.1050   58.5270 N   0  0  0  0  0  0  0  0  0  0  0  0
  129.2470  124.9880   58.0960 C   0  0  0  0  0  0  0  0  0  0  0  0
  130.5620  124.6040   58.0990 N   0  0  0  0  0  0  0  0  0  0  0  0
  131.5490  125.3400   57.7130 C   0  0  0  0  0  0  0  0  0  0  0  0
  131.5970  126.5270   57.3380 O   0  0  0  0  0  0  0  0  0  0  0  0
  132.9120  124.6190   57.7320 C   0  0  0  0  0  0  0  0  0  0  0  0
  133.4800  124.5960   59.1810 N   0  0  2  0  0  0  0  0  0  0  0  0
  134.2200  123.2820   59.5060 C   0  0  0  0  0  0  0  0  0  0  0  0
  133.2270  122.1050   59.5010 C   0  0  0  0  0  0  0  0  0  0  0  0
  131.9700  122.3750   60.3210 C   0  0  0  0  0  0  0  0  0  0  0  0
  131.1840  121.3030   60.7610 C   0  0  0  0  0  0  0  0  0  0  0  0
  130.0050  121.5140   61.4710 C   0  0  0  0  0  0  0  0  0  0  0  0
  129.5950  122.8110   61.7540 C   0  0  0  0  0  0  0  0  0  0  0  0
  130.3720  123.8870   61.3350 C   0  0  0  0  0  0  0  0  0  0  0  0
  131.5640  123.6960   60.6270 C   0  0  0  0  0  0  0  0  0  0  0  0
  132.4010  124.9220   60.2420 C   0  0  0  0  0  0  0  0  0  0  0  0
  128.1030  123.9240   57.3670 S   0  0  0  0  0  0  0  0  0  0  0  0
  126.8250  125.0610   57.7190 C   0  0  0  0  0  0  0  0  0  0  0  0
  125.3870  124.7330   57.3740 C   0  0  0  0  0  0  0  0  0  0  0  0
  126.7080  127.8180   60.1340 C   0  0  0  0  0  0  0  0  0  0  0  0
  126.0330  128.9630   60.5610 C   0  0  0  0  0  0  0  0  0  0  0  0
  125.3750  129.7740   59.6270 C   0  0  0  0  0  0  0  0  0  0  0  0
  124.2550  130.4040   63.0270 C   0  0  0  0  0  0  0  0  0  0  0  0
  124.7230  129.9120   64.2420 C   0  0  0  0  0  0  0  0  0  0  0  0
  126.0308  130.2073   66.8214 H   0  0  0  0  0  0  0  0  0  0  0  0
  126.3111  128.6065   66.0561 H   0  0  0  0  0  0  0  0  0  0  0  0
  127.6145  129.8426   66.0561 H   0  0  0  0  0  0  0  0  0  0  0  0
  127.8658  131.2471   64.2029 H   0  0  0  0  0  0  0  0  0  0  0  0
  127.0331  132.1207   62.0253 H   0  0  0  0  0  0  0  0  0  0  0  0
  123.0095  131.5913   58.5497 H   0  0  0  0  0  0  0  0  0  0  0  0
  124.5980  132.2965   58.1943 H   0  0  0  0  0  0  0  0  0  0  0  0
  123.4301  129.6952   57.2930 H   0  0  0  0  0  0  0  0  0  0  0  0
  124.7543  130.5784   56.5668 H   0  0  0  0  0  0  0  0  0  0  0  0
  125.9186  127.9088   56.8189 H   0  0  0  0  0  0  0  0  0  0  0  0
  132.7834  123.5867   57.3744 H   0  0  0  0  0  0  0  0  0  0  0  0
  133.6141  125.1552   57.0767 H   0  0  0  0  0  0  0  0  0  0  0  0
  134.1740  125.3320   59.2200 H   0  0  0  0  0  0  0  0  0  0  0  0
  134.9986  123.1053   58.7493 H   0  0  0  0  0  0  0  0  0  0  0  0
  134.6802  123.3628   60.5018 H   0  0  0  0  0  0  0  0  0  0  0  0
  132.9294  121.9033   58.4614 H   0  0  0  0  0  0  0  0  0  0  0  0
  133.7375  121.2452   59.9594 H   0  0  0  0  0  0  0  0  0  0  0  0
  131.5043  120.2738   60.5414 H   0  0  0  0  0  0  0  0  0  0  0  0
  129.4011  120.6579   61.8063 H   0  0  0  0  0  0  0  0  0  0  0  0
  128.6604  122.9867   62.3068 H   0  0  0  0  0  0  0  0  0  0  0  0
  130.0418  124.9106   61.5655 H   0  0  0  0  0  0  0  0  0  0  0  0
  131.7300  125.6937   59.8367 H   0  0  0  0  0  0  0  0  0  0  0  0
  132.9187  125.2702   61.1480 H   0  0  0  0  0  0  0  0  0  0  0  0
  124.8086  124.6011   58.3003 H   0  0  0  0  0  0  0  0  0  0  0  0
  124.9543  125.5555   56.7856 H   0  0  0  0  0  0  0  0  0  0  0  0
  125.3538  123.8042   56.7856 H   0  0  0  0  0  0  0  0  0  0  0  0
  127.2560  127.2080   60.8673 H   0  0  0  0  0  0  0  0  0  0  0  0
  126.0178  129.2279   61.6285 H   0  0  0  0  0  0  0  0  0  0  0  0
  123.2403  130.1491   62.6874 H   0  0  0  0  0  0  0  0  0  0  0  0
  124.0757  129.2768   64.8645 H   0  0  0  0  0  0  0  0  0  0  0  0
  1  2  1  0
  2  3  2  0
  3  4  1  0
  4  5  2  0
  5  6  1  0
  6  7  2  0
  6  8  1  0
  8  9  1  0
  9 10  1  0
 10 11  1  0
 11 12  2  0
 12 13  1  0
 13 14  1  0
 14 15  1  0
 15 16  2  0
 16 17  1  0
 17 18  2  0
 18 19  1  0
 18 20  1  0
 20 21  1  0
 21 22  1  0
 22 23  1  0
 23 24  1  0
 24 25  2  0
 25 26  1  0
 26 27  2  0
 27 28  1  0
 28 29  2  0
 29 30  1  0
 16 31  1  0
 31 32  1  0
 32 33  1  0
 13 34  2  0
 34 35  1  0
 35 36  2  0
  5 37  1  0
 37 38  2  0
 38  2  1  0
 36  8  1  0
 36 11  1  0
 32 14  2  0
 30 21  1  0
 29 24  1  0
  1 39  1  0
  1 40  1  0
  1 41  1  0
  3 42  1  0
  4 43  1  0
  9 44  1  0
  9 45  1  0
 10 46  1  0
 10 47  1  0
 12 48  1  0
 20 49  1  0
 20 50  1  0
 21 51  1  6
 22 52  1  0
 22 53  1  0
 23 54  1  0
 23 55  1  0
 25 56  1  0
 26 57  1  0
 27 58  1  0
 28 59  1  0
 30 60  1  0
 30 61  1  0
 33 62  1  0
 33 63  1  0
 33 64  1  0
 34 65  1  0
 35 66  1  0
 37 67  1  0
 38 68  1  0
M  CHG  2  19  -1  21   1
M  END
>  <Binding energies>  (1) 
[-7.58]

>  <Ligand effiencies>  (1) 
[-0.19435897435897437]

>  <Interactions>  (1) 
["V-B:ARG:545:CZ:9898, V-A:GLU:543:CD:4906, V-B:HIS:456:CE1:9042, V-B:TYR:539:CZ:9849, V-A:ILE:369:CD1:3237, V-A:LEU:475:CD2:4257, V-A:ASP:366:CG:3211, V-B:ALA:541:CB:9864, V-B:TYR:539:CD2:9846, V-B:TYR:539:CE2:9848, V-A:ILE:369:CG2:3235, V-A:ASP:366:CA:3208, V-A:ASP:366:CB:3210, V-A:ILE:369:CG1:3236, V-A:ILE:369:CB:3234, H-A:TYR:531:OH:4793, V-B:ASP:366:CG:8185, V-A:TYR:539:CE2:4874, V-B:ILE:369:CG2:8209, V-B:ASP:366:CB:8184, V-A:TYR:539:CZ:4875, V-B:TYR:484:CZ:9319, V-B:ASP:366:CA:8182, H-A:ASP:366:OD2:3213, H-A:ASP:366:OD1:3212"]

$$$$
RR21_Rahimova_2017
     RDKit          3D

 62 67  0  0  0  0  0  0  0  0999 V2000
  124.2590  130.9750   63.1040 C   0  0  0  0  0  0  0  0  0  0  0  0
  124.2470  131.0040   64.5280 O   0  0  0  0  0  0  0  0  0  0  0  0
  125.1490  130.2250   65.2280 C   0  0  0  0  0  0  0  0  0  0  0  0
  124.7870  129.1690   66.0810 C   0  0  0  0  0  0  0  0  0  0  0  0
  125.7610  128.4290   66.7490 C   0  0  0  0  0  0  0  0  0  0  0  0
  127.1200  128.7210   66.5800 C   0  0  0  0  0  0  0  0  0  0  0  0
  128.1660  127.9210   67.2950 C   0  0  0  0  0  0  0  0  0  0  0  0
  128.1830  127.8950   68.6140 N   0  0  0  0  0  0  0  0  0  0  0  0
  129.2120  127.1100   68.9700 N   0  0  0  0  0  0  0  0  0  0  0  0
  129.5060  126.8480   70.3330 C   0  0  0  0  0  0  0  0  0  0  0  0
  128.4770  126.7110   71.2760 C   0  0  0  0  0  0  0  0  0  0  0  0
  128.7780  126.4490   72.6100 C   0  0  0  0  0  0  0  0  0  0  0  0
  130.1080  126.3230   73.0050 C   0  0  0  0  0  0  0  0  0  0  0  0
  131.1390  126.4590   72.0790 C   0  0  0  0  0  0  0  0  0  0  0  0
  130.8410  126.7220   70.7450 C   0  0  0  0  0  0  0  0  0  0  0  0
  129.8420  126.6200   67.8540 C   0  0  0  0  0  0  0  0  0  0  0  0
  129.2010  127.1360   66.7380 C   0  0  0  0  0  0  0  0  0  0  0  0
  129.4800  126.8670   65.3350 C   0  0  0  0  0  0  0  0  0  0  0  0
  130.4010  126.0250   64.8120 C   0  0  0  0  0  0  0  0  0  0  0  0
  131.5610  124.9970   65.6830 S   0  0  0  0  0  0  0  0  0  0  0  0
  132.1550  124.3880   64.1440 C   0  0  0  0  0  0  0  0  0  0  0  0
  133.0810  123.5030   63.9430 N   0  0  0  0  0  0  0  0  0  0  0  0
  133.4610  123.0870   62.6380 C   0  0  0  0  0  0  0  0  0  0  0  0
  134.3130  122.2410   62.3640 O   0  0  0  0  0  0  0  0  0  0  0  0
  132.7060  123.7780   61.5360 C   0  0  0  0  0  0  0  0  0  0  0  0
  133.0450  123.4240   60.0820 C   0  0  0  0  0  0  0  0  0  0  0  0
  131.8860  123.6050   59.1040 C   0  0  0  0  0  0  0  0  0  0  0  0
  132.0550  124.3830   57.9550 C   0  0  0  0  0  0  0  0  0  0  0  0
  131.0030  124.5340   57.0550 C   0  0  0  0  0  0  0  0  0  0  0  0
  129.7800  123.9060   57.3000 C   0  0  0  0  0  0  0  0  0  0  0  0
  128.6410  124.0640   56.3090 C   0  0  0  0  0  0  0  0  0  0  0  0
  129.6130  123.1190   58.4420 C   0  0  0  0  0  0  0  0  0  0  0  0
  130.6640  122.9680   59.3420 C   0  0  0  0  0  0  0  0  0  0  0  0
  131.7880  124.6630   61.7510 N   0  0  0  0  0  0  0  0  0  0  0  0
  131.5060  124.9710   63.0880 N   0  0  0  0  0  0  0  0  0  0  0  0
  130.5390  125.8790   63.3690 C   0  0  0  0  0  0  0  0  0  0  0  0
  129.8730  126.4840   62.5220 O   0  0  0  0  0  0  0  0  0  0  0  0
  127.4810  129.7760   65.7360 C   0  0  0  0  0  0  0  0  0  0  0  0
  126.5080  130.5180   65.0670 C   0  0  0  0  0  0  0  0  0  0  0  0
  126.8910  131.5320   64.2570 F   0  0  0  0  0  0  0  0  0  0  0  0
  124.6585  130.0095   62.7603 H   0  0  0  0  0  0  0  0  0  0  0  0
  123.2340  131.1032   62.7260 H   0  0  0  0  0  0  0  0  0  0  0  0
  124.8938  131.7900   62.7260 H   0  0  0  0  0  0  0  0  0  0  0  0
  123.7241  128.9238   66.2231 H   0  0  0  0  0  0  0  0  0  0  0  0
  125.4592  127.6076   67.4155 H   0  0  0  0  0  0  0  0  0  0  0  0
  127.4280  126.8109   70.9605 H   0  0  0  0  0  0  0  0  0  0  0  0
  127.9696  126.3420   73.3483 H   0  0  0  0  0  0  0  0  0  0  0  0
  130.3460  126.1141   74.0584 H   0  0  0  0  0  0  0  0  0  0  0  0
  132.1861  126.3589   72.4008 H   0  0  0  0  0  0  0  0  0  0  0  0
  131.6541  126.8313   70.0123 H   0  0  0  0  0  0  0  0  0  0  0  0
  130.7045  125.9374   67.8460 H   0  0  0  0  0  0  0  0  0  0  0  0
  128.8645  127.4176   64.6083 H   0  0  0  0  0  0  0  0  0  0  0  0
  133.8750  124.0677   59.7553 H   0  0  0  0  0  0  0  0  0  0  0  0
  133.3028  122.3547   60.0702 H   0  0  0  0  0  0  0  0  0  0  0  0
  133.0191  124.8761   57.7617 H   0  0  0  0  0  0  0  0  0  0  0  0
  131.1354  125.1476   56.1517 H   0  0  0  0  0  0  0  0  0  0  0  0
  127.6953  124.1952   56.8552 H   0  0  0  0  0  0  0  0  0  0  0  0
  128.8246  124.9453   55.6768 H   0  0  0  0  0  0  0  0  0  0  0  0
  128.5778  123.1660   55.6768 H   0  0  0  0  0  0  0  0  0  0  0  0
  128.6514  122.6189   58.6299 H   0  0  0  0  0  0  0  0  0  0  0  0
  130.5333  122.3474   60.2408 H   0  0  0  0  0  0  0  0  0  0  0  0
  128.5440  130.0233   65.5983 H   0  0  0  0  0  0  0  0  0  0  0  0
  1  2  1  0
  2  3  1  0
  3  4  2  0
  4  5  1  0
  5  6  2  0
  6  7  1  0
  7  8  2  0
  8  9  1  0
  9 10  1  0
 10 11  2  0
 11 12  1  0
 12 13  2  0
 13 14  1  0
 14 15  2  0
  9 16  1  0
 16 17  2  0
 17 18  1  0
 18 19  2  0
 19 20  1  0
 20 21  1  0
 21 22  2  0
 22 23  1  0
 23 24  2  0
 23 25  1  0
 25 26  1  0
 26 27  1  0
 27 28  2  0
 28 29  1  0
 29 30  2  0
 30 31  1  0
 30 32  1  0
 32 33  2  0
 25 34  2  0
 34 35  1  0
 35 36  1  0
 36 37  2  0
  6 38  1  0
 38 39  2  0
 39 40  1  0
 39  3  1  0
 17  7  1  0
 36 19  1  0
 15 10  1  0
 35 21  1  0
 33 27  1  0
  1 41  1  0
  1 42  1  0
  1 43  1  0
  4 44  1  0
  5 45  1  0
 11 46  1  0
 12 47  1  0
 13 48  1  0
 14 49  1  0
 15 50  1  0
 16 51  1  0
 18 52  1  0
 26 53  1  0
 26 54  1  0
 28 55  1  0
 29 56  1  0
 31 57  1  0
 31 58  1  0
 31 59  1  0
 32 60  1  0
 33 61  1  0
 38 62  1  0
M  END
>  <Binding energies>  (1) 
[-4.84]

>  <Ligand effiencies>  (1) 
[-0.121]

>  <Interactions>  (1) 
["V-B:ARG:545:CZ:9898, V-B:GLU:543:CB:9878, V-A:HIS:456:CE1:4068, V-A:HIS:456:CD2:4066, V-B:GLU:543:CD:9880, H-B:TYR:484:OH:9320, V-A:GLU:543:CD:4906, H-B:GLY:454:N:9022, V-B:HIS:456:CE1:9042, V-B:GLY:544:C:9884, V-A:GLY:544:C:4910, V-A:GLU:543:CB:4904, V-B:GLU:543:CG:9879, V-A:GLU:543:CG:4905, H-A:GLY:454:N:4048, V-B:GLU:543:C:9874, H-A:TYR:484:OH:4346, V-A:HIS:456:CG:4064, V-A:TYR:484:CZ:4345, V-B:LYS:547:CE:9922, V-B:GLY:544:CA:9886, V-B:TYR:539:CZ:9849, V-A:GLY:453:C:4040, V-A:GLY:454:CA:4047, V-B:TYR:539:CD2:9846, V-B:TYR:539:CE1:9847, V-B:TYR:539:CE2:9848, V-B:GLY:454:CA:9021, V-B:TYR:484:CZ:9319, V-B:ARG:545:CG:9894, V-B:ARG:545:CD:9895, V-B:TYR:484:CE1:9317"]

$$$$
RR22_Rahimova_2017
     RDKit          3D

 49 54  0  0  0  0  0  0  0  0999 V2000
  124.4130  129.4700   56.3330 O   0  0  0  0  0  0  0  0  0  0  0  0
  125.3170  129.6340   57.1480 C   0  0  0  0  0  0  0  0  0  0  0  0
  125.2220  129.6180   58.5290 N   0  0  0  0  0  0  0  0  0  0  0  0
  126.3900  129.7670   59.3420 C   0  0  1  0  0  0  0  0  0  0  0  0
  126.1110  130.8760   60.2000 O   0  0  0  0  0  0  0  0  0  0  0  0
  126.1240  130.6660   61.5800 C   0  0  0  0  0  0  0  0  0  0  0  0
  125.5010  131.6380   62.3630 C   0  0  0  0  0  0  0  0  0  0  0  0
  125.5080  131.5180   63.7520 C   0  0  0  0  0  0  0  0  0  0  0  0
  126.1440  130.4340   64.3570 C   0  0  0  0  0  0  0  0  0  0  0  0
  126.7680  129.4610   63.5730 C   0  0  0  0  0  0  0  0  0  0  0  0
  126.7480  129.5550   62.1780 C   0  0  0  0  0  0  0  0  0  0  0  0
  127.4300  128.5810   61.2450 C   0  0  1  0  0  0  0  0  0  0  0  0
  127.5790  127.1090   61.5710 C   0  0  0  0  0  0  0  0  0  0  0  0
  127.5600  126.5230   60.1560 C   0  0  0  0  0  0  0  0  0  0  0  0
  128.0540  125.1670   59.8470 C   0  0  0  0  0  0  0  0  0  0  0  0
  128.4320  124.2930   60.8780 C   0  0  0  0  0  0  0  0  0  0  0  0
  128.8950  123.0140   60.5810 C   0  0  0  0  0  0  0  0  0  0  0  0
  128.9850  122.6010   59.2550 C   0  0  0  0  0  0  0  0  0  0  0  0
  128.6140  123.4570   58.2200 C   0  0  0  0  0  0  0  0  0  0  0  0
  128.1490  124.7350   58.5150 C   0  0  0  0  0  0  0  0  0  0  0  0
  127.0480  127.3480   59.3220 N   0  0  0  0  0  0  0  0  0  0  0  0
  126.6710  128.5000   60.0330 N   0  0  0  0  0  0  0  0  0  0  0  0
  127.5160  130.1940   58.4110 C   0  0  0  0  0  0  0  0  0  0  0  0
  128.6670  130.7530   58.8550 C   0  0  0  0  0  0  0  0  0  0  0  0
  129.8380  131.1910   58.0710 C   0  0  0  0  0  0  0  0  0  0  0  0
  131.1340  130.7060   58.2920 C   0  0  0  0  0  0  0  0  0  0  0  0
  132.1950  131.1680   57.5100 C   0  0  0  0  0  0  0  0  0  0  0  0
  131.9290  132.1160   56.5230 C   0  0  0  0  0  0  0  0  0  0  0  0
  130.6870  132.6100   56.2920 N   0  0  0  0  0  0  0  0  0  0  0  0
  129.6690  132.1480   57.0620 C   0  0  0  0  0  0  0  0  0  0  0  0
  127.0560  129.9500   56.7200 S   0  0  0  0  0  0  0  0  0  0  0  0
  124.3250  129.5460   58.9840 H   0  0  0  0  0  0  0  0  0  0  0  0
  125.0057  132.4966   61.8860 H   0  0  0  0  0  0  0  0  0  0  0  0
  125.0113  132.2792   64.3716 H   0  0  0  0  0  0  0  0  0  0  0  0
  126.1541  130.3453   65.4534 H   0  0  0  0  0  0  0  0  0  0  0  0
  127.2787  128.6150   64.0562 H   0  0  0  0  0  0  0  0  0  0  0  0
  128.4387  129.0195   61.2606 H   0  0  0  0  0  0  0  0  0  0  0  0
  128.5270  126.8988   62.0877 H   0  0  0  0  0  0  0  0  0  0  0  0
  126.8153  126.7044   62.2515 H   0  0  0  0  0  0  0  0  0  0  0  0
  128.3621  124.6201   61.9259 H   0  0  0  0  0  0  0  0  0  0  0  0
  129.1889  122.3317   61.3922 H   0  0  0  0  0  0  0  0  0  0  0  0
  129.3520  121.5905   59.0221 H   0  0  0  0  0  0  0  0  0  0  0  0
  128.6884  123.1240   57.1743 H   0  0  0  0  0  0  0  0  0  0  0  0
  127.8540  125.4110   57.6989 H   0  0  0  0  0  0  0  0  0  0  0  0
  128.7383  130.8998   59.9428 H   0  0  0  0  0  0  0  0  0  0  0  0
  131.3157  129.9616   59.0812 H   0  0  0  0  0  0  0  0  0  0  0  0
  133.2167  130.7926   57.6692 H   0  0  0  0  0  0  0  0  0  0  0  0
  132.7629  132.4793   55.9044 H   0  0  0  0  0  0  0  0  0  0  0  0
  128.6589  132.5457   56.8845 H   0  0  0  0  0  0  0  0  0  0  0  0
  1  2  2  0
  2  3  1  0
  3  4  1  0
  4  5  1  1
  5  6  1  0
  6  7  2  0
  7  8  1  0
  8  9  2  0
  9 10  1  0
 10 11  2  0
 11 12  1  0
 12 13  1  0
 13 14  1  0
 14 15  1  0
 15 16  2  0
 16 17  1  0
 17 18  2  0
 18 19  1  0
 19 20  2  0
 14 21  2  0
 21 22  1  0
  4 23  1  0
 23 24  2  0
 24 25  1  0
 25 26  2  0
 26 27  1  0
 27 28  2  0
 28 29  1  0
 29 30  2  0
 23 31  1  0
 31  2  1  0
 22  4  1  0
 30 25  1  0
 11  6  1  0
 22 12  1  0
 20 15  1  0
  3 32  1  0
  7 33  1  0
  8 34  1  0
  9 35  1  0
 10 36  1  0
 12 37  1  6
 13 38  1  0
 13 39  1  0
 16 40  1  0
 17 41  1  0
 18 42  1  0
 19 43  1  0
 20 44  1  0
 24 45  1  0
 26 46  1  0
 27 47  1  0
 28 48  1  0
 30 49  1  0
M  END
>  <Binding energies>  (1) 
[-8.3]

>  <Ligand effiencies>  (1) 
[-0.259375]

>  <Interactions>  (1) 
["V-B:GLU:543:CD:9880, V-A:GLU:543:CD:4906, V-B:TYR:539:C:9839, V-B:ALA:541:CB:9864, V-B:TYR:539:CD2:9846, V-B:TYR:539:CE2:9848, V-A:PRO:540:CA:4881, V-A:PRO:540:N:4882, V-B:ASP:366:CG:8185, V-A:PRO:540:CB:4883, V-A:PRO:540:CD:4885, V-A:TYR:539:C:4865, V-B:ASP:366:CB:8184, H-B:TYR:531:OH:9767, H-A:TYR:539:N:4868, H-A:TYR:539:OH:4876, H-B:ASP:366:OD2:8187, H-B:ASP:366:OD1:8186, V-A:ILE:538:CB:4860"]

$$$$
RR23_Rahimova_2017
     RDKit          3D

 65 70  0  0  0  0  0  0  0  0999 V2000
  126.9010  128.0800   67.0420 C   0  0  0  0  0  0  0  0  0  0  0  0
  126.3490  129.0640   66.0260 C   0  0  0  0  0  0  0  0  0  0  0  0
  127.2130  129.7160   65.1460 C   0  0  0  0  0  0  0  0  0  0  0  0
  126.7040  130.6120   64.2080 C   0  0  0  0  0  0  0  0  0  0  0  0
  125.3300  130.8710   64.1520 C   0  0  0  0  0  0  0  0  0  0  0  0
  124.7960  131.8310   63.1130 C   0  0  0  0  0  0  0  0  0  0  0  0
  124.3120  132.8930   63.5110 O   0  0  0  0  0  0  0  0  0  0  0  0
  124.8800  131.5020   61.7890 N   0  0  0  0  0  0  0  0  0  0  0  0
  123.7520  131.7190   60.8680 C   0  0  0  0  0  0  0  0  0  0  0  0
  124.2630  131.3760   59.4780 C   0  0  0  0  0  0  0  0  0  0  0  0
  125.7500  131.3520   59.6660 C   0  0  0  0  0  0  0  0  0  0  0  0
  126.7530  131.1780   58.7130 C   0  0  0  0  0  0  0  0  0  0  0  0
  128.0900  131.0240   59.1100 C   0  0  0  0  0  0  0  0  0  0  0  0
  129.2260  130.8300   58.0930 C   0  0  2  0  0  0  0  0  0  0  0  0
  129.5220  129.4310   57.8670 N   0  0  0  0  0  0  0  0  0  0  0  0
  130.7540  129.2440   57.6070 C   0  0  0  0  0  0  0  0  0  0  0  0
  131.3910  128.0660   57.3680 N   0  0  0  0  0  0  0  0  0  0  0  0
  130.9050  126.8070   57.4860 C   0  0  0  0  0  0  0  0  0  0  0  0
  129.7500  126.5110   57.8030 O   0  0  0  0  0  0  0  0  0  0  0  0
  131.9100  125.6800   57.1980 C   0  0  0  0  0  0  0  0  0  0  0  0
  131.8560  124.6900   58.2980 N   0  0  0  0  0  0  0  0  0  0  0  0
  132.9900  124.6240   59.0970 N   0  0  0  0  0  0  0  0  0  0  0  0
  133.0700  123.7980   60.0910 N   0  0  0  0  0  0  0  0  0  0  0  0
  131.9970  122.9520   60.3780 C   0  0  0  0  0  0  0  0  0  0  0  0
  132.1160  122.0720   61.4570 C   0  0  0  0  0  0  0  0  0  0  0  0
  131.0610  121.2130   61.7680 C   0  0  0  0  0  0  0  0  0  0  0  0
  129.8910  121.2310   61.0060 C   0  0  0  0  0  0  0  0  0  0  0  0
  129.7700  122.1100   59.9270 C   0  0  0  0  0  0  0  0  0  0  0  0
  130.8280  122.9720   59.6160 C   0  0  0  0  0  0  0  0  0  0  0  0
  130.7190  123.9280   58.4500 C   0  0  0  0  0  0  0  0  0  0  0  0
  129.7290  124.0040   57.7150 O   0  0  0  0  0  0  0  0  0  0  0  0
  131.8010  130.6920   57.5580 S   0  0  0  0  0  0  0  0  0  0  0  0
  130.5170  131.6140   58.4230 C   0  0  2  0  0  0  0  0  0  0  0  0
  130.8970  131.7250   59.9150 C   0  0  0  0  0  0  0  0  0  0  0  0
  128.3900  131.0010   60.4770 C   0  0  0  0  0  0  0  0  0  0  0  0
  127.3840  131.1540   61.4320 C   0  0  0  0  0  0  0  0  0  0  0  0
  126.0640  131.3880   61.0260 C   0  0  0  0  0  0  0  0  0  0  0  0
  124.4660  130.1910   65.0200 C   0  0  0  0  0  0  0  0  0  0  0  0
  124.9740  129.2950   65.9570 C   0  0  0  0  0  0  0  0  0  0  0  0
  126.6948  128.4476   68.0580 H   0  0  0  0  0  0  0  0  0  0  0  0
  126.4208  127.1003   66.9020 H   0  0  0  0  0  0  0  0  0  0  0  0
  127.9874  127.9792   66.9020 H   0  0  0  0  0  0  0  0  0  0  0  0
  128.2949  129.5230   65.1925 H   0  0  0  0  0  0  0  0  0  0  0  0
  127.3854  131.1180   63.5083 H   0  0  0  0  0  0  0  0  0  0  0  0
  122.9099  131.0641   61.1364 H   0  0  0  0  0  0  0  0  0  0  0  0
  123.3910  132.7570   60.9160 H   0  0  0  0  0  0  0  0  0  0  0  0
  123.8895  130.3948   59.1497 H   0  0  0  0  0  0  0  0  0  0  0  0
  123.9336  132.0868   58.7058 H   0  0  0  0  0  0  0  0  0  0  0  0
  126.4946  131.1614   57.6439 H   0  0  0  0  0  0  0  0  0  0  0  0
  128.8361  131.2623   57.1597 H   0  0  0  0  0  0  0  0  0  0  0  0
  132.3650  128.1350   57.1140 H   0  0  0  0  0  0  0  0  0  0  0  0
  131.6513  125.1896   56.2480 H   0  0  0  0  0  0  0  0  0  0  0  0
  132.9248  126.0981   57.1251 H   0  0  0  0  0  0  0  0  0  0  0  0
  133.0369  122.0564   62.0584 H   0  0  0  0  0  0  0  0  0  0  0  0
  131.1515  120.5191   62.6167 H   0  0  0  0  0  0  0  0  0  0  0  0
  129.0628  120.5516   61.2559 H   0  0  0  0  0  0  0  0  0  0  0  0
  128.8491  122.1246   59.3256 H   0  0  0  0  0  0  0  0  0  0  0  0
  130.3800  132.6627   58.1206 H   0  0  0  0  0  0  0  0  0  0  0  0
  130.0251  131.4703   60.5354 H   0  0  0  0  0  0  0  0  0  0  0  0
  131.7202  131.0298   60.1364 H   0  0  0  0  0  0  0  0  0  0  0  0
  131.2165  132.7540   60.1364 H   0  0  0  0  0  0  0  0  0  0  0  0
  129.4313  130.8606   60.8025 H   0  0  0  0  0  0  0  0  0  0  0  0
  127.6275  131.0909   62.5029 H   0  0  0  0  0  0  0  0  0  0  0  0
  123.3815  130.3656   64.9611 H   0  0  0  0  0  0  0  0  0  0  0  0
  124.2925  128.7697   66.6422 H   0  0  0  0  0  0  0  0  0  0  0  0
  1  2  1  0
  2  3  2  0
  3  4  1  0
  4  5  2  0
  5  6  1  0
  6  7  2  0
  6  8  1  0
  8  9  1  0
  9 10  1  0
 10 11  1  0
 11 12  2  0
 12 13  1  0
 13 14  1  0
 14 15  1  0
 15 16  2  0
 16 17  1  0
 17 18  1  0
 18 19  2  0
 18 20  1  0
 20 21  1  0
 21 22  1  0
 22 23  2  0
 23 24  1  0
 24 25  2  0
 25 26  1  0
 26 27  2  0
 27 28  1  0
 28 29  2  0
 29 30  1  0
 30 31  2  0
 16 32  1  0
 32 33  1  0
 33 34  1  0
 13 35  2  0
 35 36  1  0
 36 37  2  0
  5 38  1  0
 38 39  2  0
 39  2  1  0
 37  8  1  0
 37 11  1  0
 33 14  1  0
 30 21  1  0
 29 24  1  0
  1 40  1  0
  1 41  1  0
  1 42  1  0
  3 43  1  0
  4 44  1  0
  9 45  1  0
  9 46  1  0
 10 47  1  0
 10 48  1  0
 12 49  1  0
 14 50  1  6
 17 51  1  0
 20 52  1  0
 20 53  1  0
 25 54  1  0
 26 55  1  0
 27 56  1  0
 28 57  1  0
 33 58  1  6
 34 59  1  0
 34 60  1  0
 34 61  1  0
 35 62  1  0
 36 63  1  0
 38 64  1  0
 39 65  1  0
M  END
>  <Binding energies>  (1) 
[-8.75]

>  <Ligand effiencies>  (1) 
[-0.21875]

>  <Interactions>  (1) 
["V-B:ARG:545:CZ:9898, V-B:GLU:543:CD:9880, H-B:TYR:484:OH:9320, V-A:GLU:543:CD:4906, H-B:GLY:454:N:9022, V-B:HIS:456:CE1:9042, V-A:GLU:543:CB:4904, V-B:GLU:543:CG:9879, V-A:GLU:543:CG:4905, V-B:TYR:539:CZ:9849, V-A:LEU:475:CD2:4257, V-A:ASP:366:CG:3211, V-B:ALA:541:CB:9864, V-B:TYR:539:CD2:9846, V-B:TYR:539:CE2:9848, V-A:ASP:366:CB:3210, H-A:TYR:531:OH:4793, V-A:PRO:540:CA:4881, V-A:PRO:540:N:4882, V-B:ASP:366:CG:8185, V-B:ILE:369:CD1:8211, V-A:TYR:531:CZ:4792, V-A:PRO:540:CB:4883, V-A:TYR:539:C:4865, V-A:PRO:540:C:4879, V-A:TYR:539:CE2:4874, V-B:ILE:369:CG2:8209, V-B:GLY:454:CA:9021, V-A:TYR:539:CD2:4872, V-A:TYR:539:CZ:4875, V-B:ARG:545:CG:9894, V-B:ARG:545:CD:9895, H-A:ASP:366:OD2:3213"]

$$$$
RR24_Rahimova_2017
     RDKit          3D

 65 71  0  0  0  0  0  0  0  0999 V2000
  126.6600  124.9690   59.2240 C   0  0  0  0  0  0  0  0  0  0  0  0
  127.9590  125.0120   58.4060 C   0  0  2  0  0  0  0  0  0  0  0  0
  127.7280  124.8320   56.8770 C   0  0  0  0  0  0  0  0  0  0  0  0
  127.9110  123.7510   56.3090 O   0  0  0  0  0  0  0  0  0  0  0  0
  127.3380  125.9900   56.2680 O   0  0  0  0  0  0  0  0  0  0  0  0
  127.6820  127.2000   56.8250 C   0  0  0  0  0  0  0  0  0  0  0  0
  126.6840  128.1420   57.0870 C   0  0  0  0  0  0  0  0  0  0  0  0
  127.0180  129.3650   57.6590 C   0  0  0  0  0  0  0  0  0  0  0  0
  128.3480  129.6510   57.9790 C   0  0  0  0  0  0  0  0  0  0  0  0
  128.7130  131.0090   58.5910 C   0  0  1  0  0  0  0  0  0  0  0  0
  127.7810  131.3810   59.7670 C   0  0  0  0  0  0  0  0  0  0  0  0
  128.2440  131.7680   60.9700 C   0  0  0  0  0  0  0  0  0  0  0  0
  129.5870  131.8580   61.2430 N   0  0  0  0  0  0  0  0  0  0  0  0
  130.5320  131.5530   60.2910 C   0  0  0  0  0  0  0  0  0  0  0  0
  131.8120  131.7020   60.7160 N   0  0  0  0  0  0  0  0  0  0  0  0
  132.8800  131.3730   59.9390 C   0  0  0  0  0  0  0  0  0  0  0  0
  133.9840  131.2220   60.4660 O   0  0  0  0  0  0  0  0  0  0  0  0
  132.5540  131.0770   58.6250 N   0  0  0  0  0  0  0  0  0  0  0  0
  133.6850  130.8010   57.7160 C   0  0  0  0  0  0  0  0  0  0  0  0
  131.2900  130.8990   58.0890 C   0  0  0  0  0  0  0  0  0  0  0  0
  131.0740  130.5830   56.9140 O   0  0  0  0  0  0  0  0  0  0  0  0
  130.1990  131.1440   59.0380 C   0  0  0  0  0  0  0  0  0  0  0  0
  127.1480  132.0540   61.8800 C   0  0  0  0  0  0  0  0  0  0  0  0
  127.0990  132.4740   63.2100 C   0  0  0  0  0  0  0  0  0  0  0  0
  125.8570  132.6650   63.8200 C   0  0  0  0  0  0  0  0  0  0  0  0
  124.6780  132.4390   63.1030 C   0  0  0  0  0  0  0  0  0  0  0  0
  124.7330  132.0190   61.7710 C   0  0  0  0  0  0  0  0  0  0  0  0
  125.9770  131.8280   61.1670 C   0  0  0  0  0  0  0  0  0  0  0  0
  126.3220  131.3980   59.7960 C   0  0  0  0  0  0  0  0  0  0  0  0
  125.5860  131.1080   58.8540 O   0  0  0  0  0  0  0  0  0  0  0  0
  129.3430  128.6990   57.7320 C   0  0  0  0  0  0  0  0  0  0  0  0
  129.0090  127.4740   57.1620 C   0  0  0  0  0  0  0  0  0  0  0  0
  128.9890  124.0720   58.9400 N   0  0  0  0  0  0  0  0  0  0  0  0
  130.3220  124.3260   58.8090 C   0  0  0  0  0  0  0  0  0  0  0  0
  130.8480  125.2960   58.2610 O   0  0  0  0  0  0  0  0  0  0  0  0
  131.0070  123.1850   59.4650 C   0  0  0  0  0  0  0  0  0  0  0  0
  132.3650  122.9100   59.6330 C   0  0  0  0  0  0  0  0  0  0  0  0
  132.7320  121.7390   60.3080 C   0  0  0  0  0  0  0  0  0  0  0  0
  131.7500  120.8710   60.8010 C   0  0  0  0  0  0  0  0  0  0  0  0
  130.3940  121.1660   60.6230 C   0  0  0  0  0  0  0  0  0  0  0  0
  130.0480  122.3360   59.9460 C   0  0  0  0  0  0  0  0  0  0  0  0
  128.7210  122.9110   59.6110 C   0  0  0  0  0  0  0  0  0  0  0  0
  127.6160  122.4420   59.8840 O   0  0  0  0  0  0  0  0  0  0  0  0
  126.9020  124.9770   60.2970 H   0  0  0  0  0  0  0  0  0  0  0  0
  126.0441  125.8472   58.9804 H   0  0  0  0  0  0  0  0  0  0  0  0
  126.1035  124.0519   58.9804 H   0  0  0  0  0  0  0  0  0  0  0  0
  128.3596  126.0293   58.5269 H   0  0  0  0  0  0  0  0  0  0  0  0
  125.6357  127.9168   56.8413 H   0  0  0  0  0  0  0  0  0  0  0  0
  126.2332  130.1091   57.8600 H   0  0  0  0  0  0  0  0  0  0  0  0
  128.5688  131.7203   57.7644 H   0  0  0  0  0  0  0  0  0  0  0  0
  129.8910  132.1550   62.1590 H   0  0  0  0  0  0  0  0  0  0  0  0
  132.0130  132.0410   61.6460 H   0  0  0  0  0  0  0  0  0  0  0  0
  134.5858  130.5812   58.3078 H   0  0  0  0  0  0  0  0  0  0  0  0
  133.4428  129.9356   57.0816 H   0  0  0  0  0  0  0  0  0  0  0  0
  133.8687  131.6807   57.0816 H   0  0  0  0  0  0  0  0  0  0  0  0
  128.0279  132.6526   63.7715 H   0  0  0  0  0  0  0  0  0  0  0  0
  125.8062  132.9944   64.8683 H   0  0  0  0  0  0  0  0  0  0  0  0
  123.7033  132.5924   63.5892 H   0  0  0  0  0  0  0  0  0  0  0  0
  123.8067  131.8410   61.2051 H   0  0  0  0  0  0  0  0  0  0  0  0
  130.3899  128.9188   57.9884 H   0  0  0  0  0  0  0  0  0  0  0  0
  129.7902  126.7220   56.9771 H   0  0  0  0  0  0  0  0  0  0  0  0
  133.1302  123.5978   59.2438 H   0  0  0  0  0  0  0  0  0  0  0  0
  133.7961  121.5002   60.4515 H   0  0  0  0  0  0  0  0  0  0  0  0
  132.0460  119.9533   61.3305 H   0  0  0  0  0  0  0  0  0  0  0  0
  129.6169  120.4897   61.0087 H   0  0  0  0  0  0  0  0  0  0  0  0
  1  2  1  0
  2  3  1  0
  3  4  2  0
  3  5  1  0
  5  6  1  0
  6  7  2  0
  7  8  1  0
  8  9  2  0
  9 10  1  0
 10 11  1  0
 11 12  2  0
 12 13  1  0
 13 14  1  0
 14 15  1  0
 15 16  1  0
 16 17  2  0
 16 18  1  0
 18 19  1  0
 18 20  1  0
 20 21  2  0
 20 22  1  0
 12 23  1  0
 23 24  2  0
 24 25  1  0
 25 26  2  0
 26 27  1  0
 27 28  2  0
 28 29  1  0
 29 30  2  0
  9 31  1  0
 31 32  2  0
  2 33  1  0
 33 34  1  0
 34 35  2  0
 34 36  1  0
 36 37  2  0
 37 38  1  0
 38 39  2  0
 39 40  1  0
 40 41  2  0
 41 42  1  0
 42 43  2  0
 32  6  1  0
 42 33  1  0
 22 10  1  0
 28 23  1  0
 41 36  1  0
 29 11  1  0
 22 14  2  0
  1 44  1  0
  1 45  1  0
  1 46  1  0
  2 47  1  6
  7 48  1  0
  8 49  1  0
 10 50  1  6
 13 51  1  0
 15 52  1  0
 19 53  1  0
 19 54  1  0
 19 55  1  0
 24 56  1  0
 25 57  1  0
 26 58  1  0
 27 59  1  0
 31 60  1  0
 32 61  1  0
 37 62  1  0
 38 63  1  0
 39 64  1  0
 40 65  1  0
M  END
>  <Binding energies>  (1) 
[-9.11]

>  <Ligand effiencies>  (1) 
[-0.20244444444444443]

>  <Interactions>  (1) 
["V-A:LEU:475:CD2:4257, V-B:TYR:539:C:9839, V-A:ASP:366:CG:3211, V-B:ALA:541:CB:9864, V-B:TYR:539:CD2:9846, V-B:TYR:539:CE2:9848, V-A:ILE:369:CG2:3235, V-A:ASP:366:CB:3210, H-A:TYR:531:OH:4793, V-B:LEU:475:CD2:9231, V-A:PRO:540:CA:4881, H-A:LEU:363:N:3184, H-B:ALA:541:N:9863, V-A:PRO:540:CB:4883, V-A:PRO:540:C:4879, V-A:TYR:539:CE2:4874, V-A:TYR:531:CE2:4791, V-A:LEU:363:CA:3183, V-B:GLY:454:CA:9021, V-A:ALA:541:CB:4890, H-B:TYR:531:OH:9767, H-A:ARG:545:NH2:4926, V-B:TYR:484:CZ:9319, H-A:GLU:543:OE1:4907, H-A:TYR:539:OH:4876, H-A:ALA:541:O:4887"]

$$$$
RR24_Rahimova_2017-again1
     RDKit          3D

 63 69  0  0  0  0  0  0  0  0999 V2000
  126.7210  122.7890   56.4330 C   0  0  0  0  0  0  0  0  0  0  0  0
  126.5650  123.5920   57.7310 C   0  0  2  0  0  0  0  0  0  0  0  0
  126.1820  125.0820   57.4940 C   0  0  0  0  0  0  0  0  0  0  0  0
  125.0640  125.5250   57.7820 O   0  0  0  0  0  0  0  0  0  0  0  0
  127.1940  125.8010   56.9240 O   0  0  0  0  0  0  0  0  0  0  0  0
  127.4310  127.0900   57.3420 C   0  0  0  0  0  0  0  0  0  0  0  0
  127.0560  127.4760   58.6300 C   0  0  0  0  0  0  0  0  0  0  0  0
  127.3090  128.7720   59.0680 C   0  0  0  0  0  0  0  0  0  0  0  0
  127.9460  129.6880   58.2240 C   0  0  0  0  0  0  0  0  0  0  0  0
  128.2280  131.1190   58.7020 C   0  0  1  0  0  0  0  0  0  0  0  0
  127.2020  131.5680   59.7680 C   0  0  0  0  0  0  0  0  0  0  0  0
  125.8660  131.7650   59.7180 C   0  0  0  0  0  0  0  0  0  0  0  0
  125.1390  131.6340   58.6610 O   0  0  0  0  0  0  0  0  0  0  0  0
  125.3550  132.1190   61.0420 C   0  0  0  0  0  0  0  0  0  0  0  0
  124.0670  132.4040   61.5130 C   0  0  0  0  0  0  0  0  0  0  0  0
  123.8780  132.7100   62.8610 C   0  0  0  0  0  0  0  0  0  0  0  0
  124.9680  132.7320   63.7330 C   0  0  0  0  0  0  0  0  0  0  0  0
  126.2500  132.4490   63.2590 C   0  0  0  0  0  0  0  0  0  0  0  0
  126.4370  132.1400   61.9100 C   0  0  0  0  0  0  0  0  0  0  0  0
  127.6240  131.8250   61.1350 C   0  0  0  0  0  0  0  0  0  0  0  0
  128.8510  131.7710   61.4960 N   0  0  0  0  0  0  0  0  0  0  0  0
  129.8550  131.5770   60.5940 C   0  0  0  0  0  0  0  0  0  0  0  0
  131.0980  131.7130   61.1390 N   0  0  0  0  0  0  0  0  0  0  0  0
  132.1340  131.5370   60.3970 C   0  0  0  0  0  0  0  0  0  0  0  0
  133.2110  131.6800   61.0000 O   0  0  0  0  0  0  0  0  0  0  0  0
  132.0370  131.2190   59.0440 N   0  0  0  0  0  0  0  0  0  0  0  0
  133.2110  131.0090   58.1640 C   0  0  0  0  0  0  0  0  0  0  0  0
  130.8210  131.0800   58.4030 C   0  0  0  0  0  0  0  0  0  0  0  0
  130.6910  130.8230   57.2020 O   0  0  0  0  0  0  0  0  0  0  0  0
  129.6570  131.2720   59.2730 C   0  0  0  0  0  0  0  0  0  0  0  0
  128.3310  129.2940   56.9380 C   0  0  0  0  0  0  0  0  0  0  0  0
  128.0790  127.9970   56.5000 C   0  0  0  0  0  0  0  0  0  0  0  0
  127.7520  123.4470   58.6250 N   0  0  0  0  0  0  0  0  0  0  0  0
  127.6140  123.2650   59.9690 C   0  0  0  0  0  0  0  0  0  0  0  0
  126.5660  123.2000   60.6130 O   0  0  0  0  0  0  0  0  0  0  0  0
  128.9980  123.1620   60.4960 C   0  0  0  0  0  0  0  0  0  0  0  0
  129.4700  122.9780   61.7970 C   0  0  0  0  0  0  0  0  0  0  0  0
  130.8520  122.9190   62.0060 C   0  0  0  0  0  0  0  0  0  0  0  0
  131.7360  123.0400   60.9260 C   0  0  0  0  0  0  0  0  0  0  0  0
  131.2440  123.2230   59.6290 C   0  0  0  0  0  0  0  0  0  0  0  0
  129.8620  123.2820   59.4420 C   0  0  0  0  0  0  0  0  0  0  0  0
  129.0550  123.4620   58.2090 C   0  0  0  0  0  0  0  0  0  0  0  0
  129.4710  123.5950   57.0580 O   0  0  0  0  0  0  0  0  0  0  0  0
  126.9256  121.7358   56.6757 H   0  0  0  0  0  0  0  0  0  0  0  0
  125.7930  122.8565   55.8463 H   0  0  0  0  0  0  0  0  0  0  0  0
  127.5563  123.1990   55.8463 H   0  0  0  0  0  0  0  0  0  0  0  0
  125.7073  123.1481   58.2576 H   0  0  0  0  0  0  0  0  0  0  0  0
  126.5608  126.7560   59.2981 H   0  0  0  0  0  0  0  0  0  0  0  0
  127.0073  129.0773   60.0808 H   0  0  0  0  0  0  0  0  0  0  0  0
  128.1369  131.7634   57.8152 H   0  0  0  0  0  0  0  0  0  0  0  0
  123.2096  132.3867   60.8241 H   0  0  0  0  0  0  0  0  0  0  0  0
  122.8689  132.9342   63.2372 H   0  0  0  0  0  0  0  0  0  0  0  0
  124.8163  132.9728   64.7955 H   0  0  0  0  0  0  0  0  0  0  0  0
  127.1095  132.4693   63.9452 H   0  0  0  0  0  0  0  0  0  0  0  0
  134.1076  130.8486   58.7808 H   0  0  0  0  0  0  0  0  0  0  0  0
  133.0402  130.1271   57.5290 H   0  0  0  0  0  0  0  0  0  0  0  0
  133.3565  131.8954   57.5290 H   0  0  0  0  0  0  0  0  0  0  0  0
  128.8338  130.0105   56.2718 H   0  0  0  0  0  0  0  0  0  0  0  0
  128.3899  127.6865   55.4916 H   0  0  0  0  0  0  0  0  0  0  0  0
  128.7699  122.8815   62.6400 H   0  0  0  0  0  0  0  0  0  0  0  0
  131.2463  122.7769   63.0230 H   0  0  0  0  0  0  0  0  0  0  0  0
  132.8213  122.9909   61.0983 H   0  0  0  0  0  0  0  0  0  0  0  0
  131.9312  123.3183   58.7754 H   0  0  0  0  0  0  0  0  0  0  0  0
  1  2  1  0
  2  3  1  0
  3  4  2  0
  3  5  1  0
  5  6  1  0
  6  7  2  0
  7  8  1  0
  8  9  2  0
  9 10  1  0
 10 11  1  0
 11 12  2  0
 12 13  1  0
 12 14  1  0
 14 15  2  0
 15 16  1  0
 16 17  2  0
 17 18  1  0
 18 19  2  0
 19 20  1  0
 20 21  2  0
 21 22  1  0
 22 23  1  0
 23 24  2  0
 24 25  1  0
 24 26  1  0
 26 27  1  0
 26 28  1  0
 28 29  2  0
 28 30  1  0
  9 31  1  0
 31 32  2  0
  2 33  1  0
 33 34  1  0
 34 35  2  0
 34 36  1  0
 36 37  2  0
 37 38  1  0
 38 39  2  0
 39 40  1  0
 40 41  2  0
 41 42  1  0
 42 43  2  0
 32  6  1  0
 42 33  1  0
 30 10  1  0
 41 36  1  0
 20 11  1  0
 30 22  2  0
 19 14  1  0
  1 44  1  0
  1 45  1  0
  1 46  1  0
  2 47  1  1
  7 48  1  0
  8 49  1  0
 10 50  1  6
 15 51  1  0
 16 52  1  0
 17 53  1  0
 18 54  1  0
 27 55  1  0
 27 56  1  0
 27 57  1  0
 31 58  1  0
 32 59  1  0
 37 60  1  0
 38 61  1  0
 39 62  1  0
 40 63  1  0
M  CHG  2  13  -1  25  -1
M  END
>  <Binding energies>  (1) 
[-8.09]

>  <Ligand effiencies>  (1) 
[-0.18813953488372093]

>  <Interactions>  (1) 
["V-B:GLY:453:C:9014, V-B:PRO:540:C:9853, V-B:PRO:540:CA:9855, V-B:TYR:539:C:9839, V-B:TYR:539:CA:9841, V-A:ASP:366:CG:3211, V-B:PRO:540:CD:9859, V-B:ALA:541:CB:9864, V-B:TYR:539:CD2:9846, V-B:ILE:538:C:9830, V-B:TYR:539:CE2:9848, V-B:PRO:540:N:9856, H-A:TYR:531:OH:4793, V-B:LEU:475:CD2:9231, V-A:PRO:540:CA:4881, V-A:PRO:540:N:4882, V-B:ILE:369:CD1:8211, H-B:ALA:541:N:9863, V-A:PRO:540:CB:4883, V-A:PRO:540:C:4879, V-A:TYR:539:CE2:4874, V-A:LEU:363:CA:3183, V-B:GLY:454:CA:9021, H-A:ALA:541:N:4889, H-B:TYR:531:OH:9767, V-A:TYR:539:CD2:4872, H-B:TYR:539:OH:9850, V-B:ILE:538:CA:9832, H-A:TYR:539:OH:4876"]

$$$$
RR25_Rahimova_2017
     RDKit          3D

 63 68  0  0  0  0  0  0  0  0999 V2000
  127.0380  123.4080   61.6080 O   0  0  0  0  0  0  0  0  0  0  0  0
  128.0990  123.8500   61.1670 C   0  0  0  0  0  0  0  0  0  0  0  0
  129.1910  123.0240   61.2720 O   0  0  0  0  0  0  0  0  0  0  0  0
  130.3680  123.2950   60.6000 C   0  0  0  0  0  0  0  0  0  0  0  0
  131.1860  122.2060   60.3030 C   0  0  0  0  0  0  0  0  0  0  0  0
  132.3920  122.4070   59.6350 C   0  0  0  0  0  0  0  0  0  0  0  0
  132.7980  123.6960   59.2580 C   0  0  0  0  0  0  0  0  0  0  0  0
  134.0790  123.9070   58.5390 N   0  0  0  0  0  0  0  0  0  0  0  0
  134.0860  123.8230   57.3130 O   0  0  0  0  0  0  0  0  0  0  0  0
  135.0860  124.1570   59.1940 O   0  0  0  0  0  0  0  0  0  0  0  0
  131.9660  124.7810   59.5770 C   0  0  0  0  0  0  0  0  0  0  0  0
  130.7570  124.5970   60.2540 C   0  0  0  0  0  0  0  0  0  0  0  0
  129.8190  125.7350   60.6120 C   0  0  0  0  0  0  0  0  0  0  0  0
  128.3450  125.2460   60.5230 C   0  0  2  0  0  0  0  0  0  0  0  0
  127.3570  126.3580   60.9780 C   0  0  0  0  0  0  0  0  0  0  0  0
  127.0410  126.3470   62.1720 O   0  0  0  0  0  0  0  0  0  0  0  0
  126.9590  127.3650   60.1430 N   0  0  0  0  0  0  0  0  0  0  0  0
  127.0430  127.2640   58.6710 C   0  0  0  0  0  0  0  0  0  0  0  0
  127.4220  128.6440   58.0940 C   0  0  0  0  0  0  0  0  0  0  0  0
  126.4910  129.6850   58.5410 N   0  0  0  0  0  0  0  0  0  0  0  0
  126.7700  130.9720   57.8890 C   0  0  0  0  0  0  0  0  0  0  0  0
  127.6060  131.9290   58.7790 C   0  0  0  0  0  0  0  0  0  0  0  0
  129.0810  131.7060   58.7780 N   0  0  0  0  0  0  0  0  0  0  0  0
  129.6840  131.7590   57.5390 C   0  0  0  0  0  0  0  0  0  0  0  0
  129.0570  131.9410   56.4890 O   0  0  0  0  0  0  0  0  0  0  0  0
  131.1910  131.5950   57.5620 C   0  0  0  0  0  0  0  0  0  0  0  0
  131.9090  131.6580   56.3610 C   0  0  0  0  0  0  0  0  0  0  0  0
  133.2950  131.5200   56.3460 C   0  0  0  0  0  0  0  0  0  0  0  0
  134.0080  131.3180   57.5270 C   0  0  0  0  0  0  0  0  0  0  0  0
  133.3260  131.2460   58.7650 C   0  0  0  0  0  0  0  0  0  0  0  0
  133.9860  131.0450   60.0010 C   0  0  0  0  0  0  0  0  0  0  0  0
  133.2530  130.9880   61.1850 C   0  0  0  0  0  0  0  0  0  0  0  0
  131.8670  131.1260   61.1760 C   0  0  0  0  0  0  0  0  0  0  0  0
  131.1700  131.3270   59.9770 C   0  0  0  0  0  0  0  0  0  0  0  0
  131.9100  131.3870   58.7680 C   0  0  0  0  0  0  0  0  0  0  0  0
  129.6620  131.4820   60.0100 C   0  0  0  0  0  0  0  0  0  0  0  0
  129.0200  131.4260   61.0640 O   0  0  0  0  0  0  0  0  0  0  0  0
  126.5340  129.7970   60.0000 C   0  0  0  0  0  0  0  0  0  0  0  0
  126.1360  128.4690   60.6870 C   0  0  0  0  0  0  0  0  0  0  0  0
  130.8801  121.1906   60.5953 H   0  0  0  0  0  0  0  0  0  0  0  0
  133.0335  121.5448   59.4004 H   0  0  0  0  0  0  0  0  0  0  0  0
  132.2720  125.7973   59.2881 H   0  0  0  0  0  0  0  0  0  0  0  0
  130.0305  126.0748   61.6366 H   0  0  0  0  0  0  0  0  0  0  0  0
  129.9702  126.5672   59.9087 H   0  0  0  0  0  0  0  0  0  0  0  0
  128.1300  125.0614   59.4601 H   0  0  0  0  0  0  0  0  0  0  0  0
  127.8101  126.5255   58.3951 H   0  0  0  0  0  0  0  0  0  0  0  0
  126.0721  126.9448   58.2642 H   0  0  0  0  0  0  0  0  0  0  0  0
  128.4373  128.9047   58.4275 H   0  0  0  0  0  0  0  0  0  0  0  0
  127.3745  128.5852   56.9966 H   0  0  0  0  0  0  0  0  0  0  0  0
  127.3260  130.7815   56.9592 H   0  0  0  0  0  0  0  0  0  0  0  0
  125.8039  131.4606   57.6944 H   0  0  0  0  0  0  0  0  0  0  0  0
  127.4213  132.9567   58.4331 H   0  0  0  0  0  0  0  0  0  0  0  0
  127.2786  131.7340   59.8109 H   0  0  0  0  0  0  0  0  0  0  0  0
  131.3703  131.8189   55.4155 H   0  0  0  0  0  0  0  0  0  0  0  0
  133.8346  131.5711   55.3888 H   0  0  0  0  0  0  0  0  0  0  0  0
  135.1027  131.2144   57.4965 H   0  0  0  0  0  0  0  0  0  0  0  0
  135.0800  130.9335   60.0271 H   0  0  0  0  0  0  0  0  0  0  0  0
  133.7763  130.8319   62.1399 H   0  0  0  0  0  0  0  0  0  0  0  0
  131.3113  131.0765   62.1240 H   0  0  0  0  0  0  0  0  0  0  0  0
  127.5556  130.0652   60.3071 H   0  0  0  0  0  0  0  0  0  0  0  0
  125.8148  130.5709   60.3062 H   0  0  0  0  0  0  0  0  0  0  0  0
  126.3046  128.5521   61.7708 H   0  0  0  0  0  0  0  0  0  0  0  0
  125.0727  128.2619   60.4957 H   0  0  0  0  0  0  0  0  0  0  0  0
  1  2  2  0
  2  3  1  0
  3  4  1  0
  4  5  2  0
  5  6  1  0
  6  7  2  0
  7  8  1  0
  8  9  2  0
  8 10  1  0
  7 11  1  0
 11 12  2  0
 12 13  1  0
 13 14  1  0
 14 15  1  0
 15 16  2  0
 15 17  1  0
 17 18  1  0
 18 19  1  0
 19 20  1  0
 20 21  1  0
 21 22  1  0
 22 23  1  0
 23 24  1  0
 24 25  2  0
 24 26  1  0
 26 27  2  0
 27 28  1  0
 28 29  2  0
 29 30  1  0
 30 31  2  0
 31 32  1  0
 32 33  2  0
 33 34  1  0
 34 35  2  0
 34 36  1  0
 36 37  2  0
 20 38  1  0
 38 39  1  0
 14  2  1  0
 39 17  1  0
 12  4  1  0
 36 23  1  0
 35 26  1  0
 35 30  1  0
  5 40  1  0
  6 41  1  0
 11 42  1  0
 13 43  1  0
 13 44  1  0
 14 45  1  6
 18 46  1  0
 18 47  1  0
 19 48  1  0
 19 49  1  0
 21 50  1  0
 21 51  1  0
 22 52  1  0
 22 53  1  0
 27 54  1  0
 28 55  1  0
 29 56  1  0
 31 57  1  0
 32 58  1  0
 33 59  1  0
 38 60  1  0
 38 61  1  0
 39 62  1  0
 39 63  1  0
M  CHG  2   8   1  10  -1
M  END
>  <Binding energies>  (1) 
[-10.21]

>  <Ligand effiencies>  (1) 
[-0.2617948717948718]

>  <Interactions>  (1) 
["V-A:ARG:545:CZ:4924, V-A:ILE:369:CD1:3237, V-A:ASP:366:CG:3211, V-B:TYR:539:CD2:9846, V-B:TYR:539:CE2:9848, V-A:ILE:369:CG2:3235, V-A:ASP:366:CA:3208, V-A:ASP:366:CB:3210, V-A:ILE:369:CB:3234, V-A:ASN:362:CB:3174, V-A:PRO:540:CA:4881, V-A:PRO:540:N:4882, V-B:ASP:366:CG:8185, V-A:TYR:531:CZ:4792, H-B:ARG:545:NH2:9900, H-B:ALA:541:N:9863, V-A:PRO:540:CB:4883, V-A:PRO:540:CD:4885, V-A:ASN:362:C:3170, V-A:TYR:539:C:4865, V-A:TYR:539:CE2:4874, V-A:TYR:531:CE2:4791, V-A:LEU:363:CA:3183, V-A:TYR:539:CD2:4872, V-A:TYR:539:CZ:4875, H-B:TYR:539:OH:9850, V-A:LEU:363:CD1:3187, V-A:LEU:363:CB:3185, V-A:ASN:362:CA:3172"]

$$$$
RR26_Rahimova_2017
     RDKit          3D

 59 65  0  0  0  0  0  0  0  0999 V2000
  125.1270  131.3440   64.1210 C   0  0  0  0  0  0  0  0  0  0  0  0
  124.8280  131.9010   62.7350 C   0  0  0  0  0  0  0  0  0  0  0  0
  123.8150  132.8580   62.6100 C   0  0  0  0  0  0  0  0  0  0  0  0
  123.5260  133.4310   61.3730 C   0  0  0  0  0  0  0  0  0  0  0  0
  124.2550  133.0560   60.2490 C   0  0  0  0  0  0  0  0  0  0  0  0
  125.2670  132.1040   60.3610 C   0  0  0  0  0  0  0  0  0  0  0  0
  125.5660  131.5100   61.5960 C   0  0  0  0  0  0  0  0  0  0  0  0
  126.6600  130.4830   61.6260 C   0  0  0  0  0  0  0  0  0  0  0  0
  126.4480  129.2280   62.0160 N   0  0  0  0  0  0  0  0  0  0  0  0
  127.6330  128.6980   61.8770 C   0  0  0  0  0  0  0  0  0  0  0  0
  128.3310  127.1430   62.1390 S   0  0  0  0  0  0  0  0  0  0  0  0
  129.9180  127.7850   61.5720 C   0  0  0  0  0  0  0  0  0  0  0  0
  131.0930  127.1220   61.4760 C   0  0  0  0  0  0  0  0  0  0  0  0
  131.3660  125.7310   61.7990 C   0  0  0  0  0  0  0  0  0  0  0  0
  131.6720  124.6940   60.9310 C   0  0  0  0  0  0  0  0  0  0  0  0
  131.8930  123.5670   61.6810 N   0  0  0  0  0  0  0  0  0  0  0  0
  132.2410  122.2670   61.2300 C   0  0  0  0  0  0  0  0  0  0  0  0
  131.2520  121.3590   60.8240 C   0  0  0  0  0  0  0  0  0  0  0  0
  131.6070  120.0860   60.3870 C   0  0  0  0  0  0  0  0  0  0  0  0
  132.9490  119.7170   60.3510 C   0  0  0  0  0  0  0  0  0  0  0  0
  133.9410  120.6110   60.7490 C   0  0  0  0  0  0  0  0  0  0  0  0
  133.5890  121.8830   61.1890 C   0  0  0  0  0  0  0  0  0  0  0  0
  131.7680  123.8450   62.9870 N   0  0  0  0  0  0  0  0  0  0  0  0
  131.4510  125.1220   63.0720 C   0  0  0  0  0  0  0  0  0  0  0  0
  131.2290  125.7480   64.4140 C   0  0  0  0  0  0  0  0  0  0  0  0
  132.3080  125.9610   65.2860 C   0  0  0  0  0  0  0  0  0  0  0  0
  132.1110  126.5410   66.5400 C   0  0  0  0  0  0  0  0  0  0  0  0
  130.8280  126.9120   66.9350 C   0  0  0  0  0  0  0  0  0  0  0  0
  129.7430  126.7210   66.0660 C   0  0  0  0  0  0  0  0  0  0  0  0
  129.9420  126.1370   64.8160 C   0  0  0  0  0  0  0  0  0  0  0  0
  128.4480  127.0330   66.4310 O   0  0  0  0  0  0  0  0  0  0  0  0
  128.3540  127.9420   67.5330 C   0  0  0  0  0  0  0  0  0  0  0  0
  129.3400  127.5380   68.6560 C   0  0  0  0  0  0  0  0  0  0  0  0
  130.6850  127.5250   68.1630 O   0  0  0  0  0  0  0  0  0  0  0  0
  129.8470  129.1960   61.2040 C   0  0  0  0  0  0  0  0  0  0  0  0
  130.7390  129.9360   60.7860 O   0  0  0  0  0  0  0  0  0  0  0  0
  128.5190  129.5990   61.4140 N   0  0  0  0  0  0  0  0  0  0  0  0
  127.8950  130.7670   61.2420 N   0  0  0  0  0  0  0  0  0  0  0  0
  124.7527  132.0413   64.8850 H   0  0  0  0  0  0  0  0  0  0  0  0
  124.6308  130.3695   64.2394 H   0  0  0  0  0  0  0  0  0  0  0  0
  126.2134  131.2190   64.2394 H   0  0  0  0  0  0  0  0  0  0  0  0
  123.2405  133.1613   63.4977 H   0  0  0  0  0  0  0  0  0  0  0  0
  122.7233  134.1781   61.2855 H   0  0  0  0  0  0  0  0  0  0  0  0
  124.0329  133.5106   59.2723 H   0  0  0  0  0  0  0  0  0  0  0  0
  125.8396  131.8143   59.4676 H   0  0  0  0  0  0  0  0  0  0  0  0
  131.9481  127.7079   61.1079 H   0  0  0  0  0  0  0  0  0  0  0  0
  131.7277  124.7629   59.8346 H   0  0  0  0  0  0  0  0  0  0  0  0
  130.1926  121.6538   60.8510 H   0  0  0  0  0  0  0  0  0  0  0  0
  130.8301  119.3741   60.0713 H   0  0  0  0  0  0  0  0  0  0  0  0
  133.2287  118.7109   60.0053 H   0  0  0  0  0  0  0  0  0  0  0  0
  134.9990  120.3119   60.7154 H   0  0  0  0  0  0  0  0  0  0  0  0
  134.3704  122.5895   61.5056 H   0  0  0  0  0  0  0  0  0  0  0  0
  133.3220  125.6670   64.9770 H   0  0  0  0  0  0  0  0  0  0  0  0
  132.9653  126.7044   67.2134 H   0  0  0  0  0  0  0  0  0  0  0  0
  129.0868  125.9805   64.1421 H   0  0  0  0  0  0  0  0  0  0  0  0
  128.5968  128.9573   67.1863 H   0  0  0  0  0  0  0  0  0  0  0  0
  127.3294  127.9120   67.9320 H   0  0  0  0  0  0  0  0  0  0  0  0
  129.2642  128.2610   69.4815 H   0  0  0  0  0  0  0  0  0  0  0  0
  129.0814  126.5291   69.0101 H   0  0  0  0  0  0  0  0  0  0  0  0
  1  2  1  0
  2  3  2  0
  3  4  1  0
  4  5  2  0
  5  6  1  0
  6  7  2  0
  7  8  1  0
  8  9  1  0
  9 10  2  0
 10 11  1  0
 11 12  1  0
 12 13  2  0
 13 14  1  0
 14 15  2  0
 15 16  1  0
 16 17  1  0
 17 18  2  0
 18 19  1  0
 19 20  2  0
 20 21  1  0
 21 22  2  0
 16 23  1  0
 23 24  2  0
 24 25  1  0
 25 26  2  0
 26 27  1  0
 27 28  2  0
 28 29  1  0
 29 30  2  0
 29 31  1  0
 31 32  1  0
 32 33  1  0
 33 34  1  0
 12 35  1  0
 35 36  2  0
 35 37  1  0
 37 38  1  0
  7  2  1  0
 38  8  2  0
 37 10  1  0
 24 14  1  0
 30 25  1  0
 22 17  1  0
 34 28  1  0
  1 39  1  0
  1 40  1  0
  1 41  1  0
  3 42  1  0
  4 43  1  0
  5 44  1  0
  6 45  1  0
 13 46  1  0
 15 47  1  0
 18 48  1  0
 19 49  1  0
 20 50  1  0
 21 51  1  0
 22 52  1  0
 26 53  1  0
 27 54  1  0
 30 55  1  0
 32 56  1  0
 32 57  1  0
 33 58  1  0
 33 59  1  0
M  END
>  <Binding energies>  (1) 
[-4.61]

>  <Ligand effiencies>  (1) 
[-0.12131578947368422]

>  <Interactions>  (1) 
["V-B:GLU:543:CB:9878, V-A:HIS:456:CE1:4068, V-B:GLU:543:CD:9880, V-A:GLU:543:CD:4906, V-B:HIS:456:CE1:9042, V-B:GLU:543:CG:9879, V-A:GLU:543:CG:4905, V-A:ARG:545:CZ:4924, V-A:ARG:545:CG:4920, H-A:TYR:484:OH:4346, V-A:ARG:545:CD:4921, V-A:TRP:381:CZ2:3368, V-A:ILE:369:CD1:3237, V-A:LEU:475:CD2:4257, V-A:TRP:381:CH2:3370, V-B:TYR:539:CD2:9846, V-B:TYR:539:CE2:9848, V-A:ILE:369:CG2:3235, V-B:LEU:475:CD2:9231, V-B:ILE:369:CD1:8211, H-B:ARG:545:NH2:9900, V-A:TYR:539:CE2:4874, V-B:ILE:369:CG2:8209, V-B:GLY:454:CA:9021, H-A:ARG:545:NH2:4926, V-A:TRP:381:CZ3:3369, V-A:SER:385:C:3403, V-B:ILE:369:CG1:8210"]

$$$$
RR27_Rahimova_2017
     RDKit          3D

 66 71  0  0  0  0  0  0  0  0999 V2000
  128.9730  123.1580   61.8810 O   0  0  0  0  0  0  0  0  0  0  0  0
  129.6190  123.9870   61.2330 C   0  0  0  0  0  0  0  0  0  0  0  0
  131.1630  124.0330   61.4250 C   0  0  0  0  0  0  0  0  0  0  0  0
  131.8600  122.7140   61.0420 C   0  0  0  0  0  0  0  0  0  0  0  0
  131.1340  121.5420   60.7800 C   0  0  0  0  0  0  0  0  0  0  0  0
  131.7960  120.3680   60.4330 C   0  0  0  0  0  0  0  0  0  0  0  0
  133.1850  120.3590   60.3480 C   0  0  0  0  0  0  0  0  0  0  0  0
  133.9190  121.5130   60.6070 C   0  0  0  0  0  0  0  0  0  0  0  0
  133.2570  122.6870   60.9540 C   0  0  0  0  0  0  0  0  0  0  0  0
  131.5510  124.5940   62.8070 C   0  0  0  0  0  0  0  0  0  0  0  0
  130.6270  125.2730   63.6130 C   0  0  0  0  0  0  0  0  0  0  0  0
  131.0140  125.7770   64.8520 C   0  0  0  0  0  0  0  0  0  0  0  0
  132.3250  125.6100   65.2870 C   0  0  0  0  0  0  0  0  0  0  0  0
  133.2570  124.9470   64.4920 C   0  0  0  0  0  0  0  0  0  0  0  0
  132.8700  124.4440   63.2540 C   0  0  0  0  0  0  0  0  0  0  0  0
  129.0380  124.7450   60.2600 N   0  0  0  0  0  0  0  0  0  0  0  0
  129.6890  125.9090   59.6420 C   0  0  0  0  0  0  0  0  0  0  0  0
  129.3560  127.1310   60.5270 C   0  0  0  0  0  0  0  0  0  0  0  0
  127.8200  127.3230   60.7360 C   0  0  0  0  0  0  0  0  0  0  0  0
  127.4370  128.4590   61.7020 C   0  0  0  0  0  0  0  0  0  0  0  0
  126.9530  128.0820   62.9220 N   0  0  0  0  0  0  0  0  0  0  0  0
  126.6250  129.0480   63.8240 C   0  0  0  0  0  0  0  0  0  0  0  0
  126.1350  128.7950   65.0780 O   0  0  0  0  0  0  0  0  0  0  0  0
  126.7960  130.3980   63.4600 C   0  0  0  0  0  0  0  0  0  0  0  0
  126.5790  131.5810   64.1040 N   0  0  0  0  0  0  0  0  0  0  0  0
  126.9290  132.5940   63.2320 N   0  0  0  0  0  0  0  0  0  0  0  0
  127.3610  132.0450   62.0770 N   0  0  0  0  0  0  0  0  0  0  0  0
  127.7740  132.8930   60.9610 C   0  0  0  0  0  0  0  0  0  0  0  0
  128.9100  132.3060   60.1340 C   0  0  0  0  0  0  0  0  0  0  0  0
  128.7700  132.1580   58.7510 C   0  0  0  0  0  0  0  0  0  0  0  0
  129.8150  131.6300   57.9910 C   0  0  0  0  0  0  0  0  0  0  0  0
  131.0070  131.2530   58.6090 C   0  0  0  0  0  0  0  0  0  0  0  0
  131.1570  131.4070   59.9880 C   0  0  0  0  0  0  0  0  0  0  0  0
  132.6410  130.9660   60.7520 Cl  0  0  0  0  0  0  0  0  0  0  0  0
  130.1090  131.9270   60.7490 C   0  0  0  0  0  0  0  0  0  0  0  0
  127.2940  130.6640   62.1660 C   0  0  0  0  0  0  0  0  0  0  0  0
  127.6160  129.7370   61.2610 N   0  0  0  0  0  0  0  0  0  0  0  0
  127.1020  125.9740   61.0520 C   0  0  0  0  0  0  0  0  0  0  0  0
  127.5720  124.8070   60.1480 C   0  0  0  0  0  0  0  0  0  0  0  0
  131.5615  124.7561   60.6981 H   0  0  0  0  0  0  0  0  0  0  0  0
  130.0362  121.5513   60.8492 H   0  0  0  0  0  0  0  0  0  0  0  0
  131.2239  119.4514   60.2269 H   0  0  0  0  0  0  0  0  0  0  0  0
  133.7079  119.4310   60.0735 H   0  0  0  0  0  0  0  0  0  0  0  0
  135.0167  121.4971   60.5378 H   0  0  0  0  0  0  0  0  0  0  0  0
  133.8352  123.5997   61.1605 H   0  0  0  0  0  0  0  0  0  0  0  0
  129.5921  125.4083   63.2655 H   0  0  0  0  0  0  0  0  0  0  0  0
  130.2857  126.3054   65.4847 H   0  0  0  0  0  0  0  0  0  0  0  0
  132.6283  126.0052   66.2677 H   0  0  0  0  0  0  0  0  0  0  0  0
  134.2927  124.8219   64.8409 H   0  0  0  0  0  0  0  0  0  0  0  0
  133.6051  123.9247   62.6216 H   0  0  0  0  0  0  0  0  0  0  0  0
  130.7776  125.7565   59.6015 H   0  0  0  0  0  0  0  0  0  0  0  0
  129.3324  126.0593   58.6123 H   0  0  0  0  0  0  0  0  0  0  0  0
  129.8305  126.9935   61.5098 H   0  0  0  0  0  0  0  0  0  0  0  0
  129.7361  128.0266   60.0137 H   0  0  0  0  0  0  0  0  0  0  0  0
  127.4372  127.6710   59.7652 H   0  0  0  0  0  0  0  0  0  0  0  0
  126.5380  128.0250   65.4850 H   0  0  0  0  0  0  0  0  0  0  0  0
  126.9071  133.0455   60.3014 H   0  0  0  0  0  0  0  0  0  0  0  0
  128.1438  133.8348   61.3925 H   0  0  0  0  0  0  0  0  0  0  0  0
  127.8328  132.4588   58.2598 H   0  0  0  0  0  0  0  0  0  0  0  0
  129.6982  131.5112   56.9037 H   0  0  0  0  0  0  0  0  0  0  0  0
  131.8289  130.8343   58.0096 H   0  0  0  0  0  0  0  0  0  0  0  0
  130.2257  132.0395   61.8370 H   0  0  0  0  0  0  0  0  0  0  0  0
  127.3036  125.7076   62.1000 H   0  0  0  0  0  0  0  0  0  0  0  0
  126.0286  126.1225   60.8630 H   0  0  0  0  0  0  0  0  0  0  0  0
  127.1260  123.8610   60.4887 H   0  0  0  0  0  0  0  0  0  0  0  0
  127.2627  124.9672   59.1046 H   0  0  0  0  0  0  0  0  0  0  0  0
  1  2  2  0
  2  3  1  0
  3  4  1  0
  4  5  2  0
  5  6  1  0
  6  7  2  0
  7  8  1  0
  8  9  2  0
  3 10  1  0
 10 11  2  0
 11 12  1  0
 12 13  2  0
 13 14  1  0
 14 15  2  0
  2 16  1  0
 16 17  1  0
 17 18  1  0
 18 19  1  0
 19 20  1  0
 20 21  2  0
 21 22  1  0
 22 23  1  0
 22 24  2  0
 24 25  1  0
 25 26  2  0
 26 27  1  0
 27 28  1  0
 28 29  1  0
 29 30  2  0
 30 31  1  0
 31 32  2  0
 32 33  1  0
 33 34  1  0
 33 35  2  0
 27 36  1  0
 36 37  2  0
 19 38  1  0
 38 39  1  0
  9  4  1  0
 15 10  1  0
 39 16  1  0
 37 20  1  0
 36 24  1  0
 35 29  1  0
  3 40  1  0
  5 41  1  0
  6 42  1  0
  7 43  1  0
  8 44  1  0
  9 45  1  0
 11 46  1  0
 12 47  1  0
 13 48  1  0
 14 49  1  0
 15 50  1  0
 17 51  1  0
 17 52  1  0
 18 53  1  0
 18 54  1  0
 19 55  1  0
 23 56  1  0
 28 57  1  0
 28 58  1  0
 30 59  1  0
 31 60  1  0
 32 61  1  0
 35 62  1  0
 38 63  1  0
 38 64  1  0
 39 65  1  0
 39 66  1  0
M  END
>  <Binding energies>  (1) 
[-9.23]

>  <Ligand effiencies>  (1) 
[-0.23075]

>  <Interactions>  (1) 
["V-B:ARG:545:CZ:9898, V-A:HIS:456:CE1:4068, V-B:GLU:543:CD:9880, H-B:TYR:484:OH:9320, V-A:GLU:543:CD:4906, H-B:ARG:545:NE:9896, V-A:ARG:545:CZ:4924, V-A:ARG:545:CG:4920, V-A:ARG:545:CD:4921, V-A:TRP:381:CZ2:3368, V-A:ILE:369:CD1:3237, V-A:LEU:475:CD2:4257, V-A:TRP:381:CH2:3370, V-B:TYR:539:CD2:9846, V-B:TYR:539:CE2:9848, V-A:ILE:369:CG2:3235, V-A:ILE:369:CG1:3236, V-A:ASN:362:CB:3174, V-A:PRO:540:CA:4881, V-A:PRO:540:N:4882, H-B:ARG:545:NH2:9900, V-A:PRO:540:CB:4883, V-A:TYR:539:C:4865, V-A:PRO:540:C:4879, V-A:TYR:539:CE2:4874, V-A:ALA:541:CB:4890, V-A:TYR:539:CD2:4872, H-B:GLU:543:OE2:9882"]

$$$$
RR27_Rahimova_2017-again1
     RDKit          3D

 66 71  0  0  0  0  0  0  0  0999 V2000
  129.6070  128.5390   58.0990 O   0  0  0  0  0  0  0  0  0  0  0  0
  129.2260  129.0740   59.1440 C   0  0  0  0  0  0  0  0  0  0  0  0
  129.8140  130.4690   59.5130 C   0  0  0  0  0  0  0  0  0  0  0  0
  128.7240  131.4830   59.9100 C   0  0  0  0  0  0  0  0  0  0  0  0
  128.9760  132.5390   60.7990 C   0  0  0  0  0  0  0  0  0  0  0  0
  127.9650  133.4360   61.1310 C   0  0  0  0  0  0  0  0  0  0  0  0
  126.6960  133.2830   60.5790 C   0  0  0  0  0  0  0  0  0  0  0  0
  126.4310  132.2410   59.6950 C   0  0  0  0  0  0  0  0  0  0  0  0
  127.4420  131.3450   59.3620 C   0  0  0  0  0  0  0  0  0  0  0  0
  130.7830  130.9920   58.4360 C   0  0  0  0  0  0  0  0  0  0  0  0
  132.1730  130.8760   58.5830 C   0  0  0  0  0  0  0  0  0  0  0  0
  133.0300  131.3750   57.6050 C   0  0  0  0  0  0  0  0  0  0  0  0
  132.5010  131.9890   56.4730 C   0  0  0  0  0  0  0  0  0  0  0  0
  131.1240  132.1130   56.3130 C   0  0  0  0  0  0  0  0  0  0  0  0
  130.2670  131.6210   57.2950 C   0  0  0  0  0  0  0  0  0  0  0  0
  128.2020  128.5470   59.8770 N   0  0  0  0  0  0  0  0  0  0  0  0
  127.8850  128.9600   61.2510 C   0  0  0  0  0  0  0  0  0  0  0  0
  128.7820  128.1410   62.2080 C   0  0  0  0  0  0  0  0  0  0  0  0
  128.9060  126.6160   61.8830 C   0  0  0  0  0  0  0  0  0  0  0  0
  130.2010  125.9840   62.4030 C   0  0  0  0  0  0  0  0  0  0  0  0
  130.9310  125.2430   61.6300 N   0  0  0  0  0  0  0  0  0  0  0  0
  132.0550  124.7290   62.2000 C   0  0  0  0  0  0  0  0  0  0  0  0
  132.4750  124.9220   63.5070 C   0  0  0  0  0  0  0  0  0  0  0  0
  133.6030  124.2700   63.7300 N   0  0  0  0  0  0  0  0  0  0  0  0
  133.9520  123.6250   62.5470 N   0  0  0  0  0  0  0  0  0  0  0  0
  133.0140  123.9300   61.6340 N   0  0  0  0  0  0  0  0  0  0  0  0
  133.0790  123.3860   60.2830 C   0  0  0  0  0  0  0  0  0  0  0  0
  131.7990  123.5910   59.4880 C   0  0  0  0  0  0  0  0  0  0  0  0
  130.6840  122.7820   59.7320 C   0  0  0  0  0  0  0  0  0  0  0  0
  129.5110  122.9610   58.9970 C   0  0  0  0  0  0  0  0  0  0  0  0
  129.4460  123.9510   58.0170 C   0  0  0  0  0  0  0  0  0  0  0  0
  130.5530  124.7650   57.7720 C   0  0  0  0  0  0  0  0  0  0  0  0
  130.4730  125.9860   56.5560 Cl  0  0  0  0  0  0  0  0  0  0  0  0
  131.7260  124.5870   58.5070 C   0  0  0  0  0  0  0  0  0  0  0  0
  131.6730  125.7600   64.3990 C   0  0  0  0  0  0  0  0  0  0  0  0
  131.8840  126.0480   65.5750 O   0  0  0  0  0  0  0  0  0  0  0  0
  130.5670  126.2300   63.7230 N   0  0  0  0  0  0  0  0  0  0  0  0
  128.5980  126.2020   60.4090 C   0  0  0  0  0  0  0  0  0  0  0  0
  127.7230  127.1860   59.5930 C   0  0  0  0  0  0  0  0  0  0  0  0
  130.4226  130.3322   60.4190 H   0  0  0  0  0  0  0  0  0  0  0  0
  129.9784  132.6585   61.2360 H   0  0  0  0  0  0  0  0  0  0  0  0
  128.1679  134.2631   61.8272 H   0  0  0  0  0  0  0  0  0  0  0  0
  125.8967  133.9910   60.8435 H   0  0  0  0  0  0  0  0  0  0  0  0
  125.4265  132.1264   59.2615 H   0  0  0  0  0  0  0  0  0  0  0  0
  127.2331  130.5218   58.6630 H   0  0  0  0  0  0  0  0  0  0  0  0
  132.5891  130.3877   59.4766 H   0  0  0  0  0  0  0  0  0  0  0  0
  134.1195  131.2844   57.7264 H   0  0  0  0  0  0  0  0  0  0  0  0
  133.1772  132.3795   55.6983 H   0  0  0  0  0  0  0  0  0  0  0  0
  130.7140  132.5976   55.4147 H   0  0  0  0  0  0  0  0  0  0  0  0
  129.1788  131.7269   57.1740 H   0  0  0  0  0  0  0  0  0  0  0  0
  128.0875  130.0340   61.3753 H   0  0  0  0  0  0  0  0  0  0  0  0
  126.8224  128.7803   61.4714 H   0  0  0  0  0  0  0  0  0  0  0  0
  129.7920  128.5758   62.1794 H   0  0  0  0  0  0  0  0  0  0  0  0
  128.2990  128.1989   63.1946 H   0  0  0  0  0  0  0  0  0  0  0  0
  128.0767  126.1825   62.4612 H   0  0  0  0  0  0  0  0  0  0  0  0
  133.9045  123.8783   59.7481 H   0  0  0  0  0  0  0  0  0  0  0  0
  133.2333  122.3009   60.3766 H   0  0  0  0  0  0  0  0  0  0  0  0
  130.7319  122.0019   60.5060 H   0  0  0  0  0  0  0  0  0  0  0  0
  128.6376  122.3210   59.1908 H   0  0  0  0  0  0  0  0  0  0  0  0
  128.5219  124.0904   57.4368 H   0  0  0  0  0  0  0  0  0  0  0  0
  132.5963  125.2317   58.3148 H   0  0  0  0  0  0  0  0  0  0  0  0
  129.9560  126.8180   64.2710 H   0  0  0  0  0  0  0  0  0  0  0  0
  129.5580  126.0910   59.8836 H   0  0  0  0  0  0  0  0  0  0  0  0
  128.0116  125.2740   60.4793 H   0  0  0  0  0  0  0  0  0  0  0  0
  127.8192  126.9710   58.5185 H   0  0  0  0  0  0  0  0  0  0  0  0
  126.6638  127.0832   59.8713 H   0  0  0  0  0  0  0  0  0  0  0  0
  1  2  2  0
  2  3  1  0
  3  4  1  0
  4  5  2  0
  5  6  1  0
  6  7  2  0
  7  8  1  0
  8  9  2  0
  3 10  1  0
 10 11  2  0
 11 12  1  0
 12 13  2  0
 13 14  1  0
 14 15  2  0
  2 16  1  0
 16 17  1  0
 17 18  1  0
 18 19  1  0
 19 20  1  0
 20 21  2  0
 21 22  1  0
 22 23  2  0
 23 24  1  0
 24 25  2  0
 25 26  1  0
 26 27  1  0
 27 28  1  0
 28 29  2  0
 29 30  1  0
 30 31  2  0
 31 32  1  0
 32 33  1  0
 32 34  2  0
 23 35  1  0
 35 36  2  0
 35 37  1  0
 19 38  1  0
 38 39  1  0
  9  4  1  0
 15 10  1  0
 39 16  1  0
 37 20  1  0
 26 22  1  0
 34 28  1  0
  3 40  1  0
  5 41  1  0
  6 42  1  0
  7 43  1  0
  8 44  1  0
  9 45  1  0
 11 46  1  0
 12 47  1  0
 13 48  1  0
 14 49  1  0
 15 50  1  0
 17 51  1  0
 17 52  1  0
 18 53  1  0
 18 54  1  0
 19 55  1  0
 27 56  1  0
 27 57  1  0
 29 58  1  0
 30 59  1  0
 31 60  1  0
 34 61  1  0
 37 62  1  0
 38 63  1  0
 38 64  1  0
 39 65  1  0
 39 66  1  0
M  END
>  <Binding energies>  (1) 
[-9.8]

>  <Ligand effiencies>  (1) 
[-0.24500000000000002]

>  <Interactions>  (1) 
["V-B:GLU:543:CD:9880, V-A:GLU:543:CD:4906, H-A:GLY:454:N:4048, V-A:ARG:545:CZ:4924, H-A:TYR:484:OH:4346, H-B:GLU:543:OE1:9881, H-A:ARG:545:NE:4922, V-B:TYR:539:CZ:9849, V-B:TYR:539:CD2:9846, V-B:TYR:539:CE2:9848, V-A:PRO:540:CA:4881, V-A:PRO:540:N:4882, V-A:PRO:540:CB:4883, V-A:PRO:540:CD:4885, V-A:TYR:539:C:4865, V-A:PRO:540:C:4879, V-A:TYR:539:CE2:4874, V-A:TYR:531:CE2:4791, V-A:ALA:541:CB:4890, V-A:TYR:539:CD2:4872, H-A:GLU:543:OE2:4908, H-B:GLU:543:OE2:9882, V-A:ILE:538:CB:4860"]

$$$$
RR28_Rahimova_2017
     RDKit          3D

 82 85  0  0  0  0  0  0  0  0999 V2000
  133.9320  123.1400   58.6240 C   0  0  0  0  0  0  0  0  0  0  0  0
  132.7860  123.5660   59.5350 C   0  0  0  0  0  0  0  0  0  0  0  0
  133.0170  123.8480   60.7090 O   0  0  0  0  0  0  0  0  0  0  0  0
  131.5600  123.6050   58.9740 N   0  0  0  0  0  0  0  0  0  0  0  0
  130.2740  123.9700   59.6100 C   0  0  0  0  0  0  0  0  0  0  0  0
  130.5520  124.3360   61.0960 C   0  0  0  0  0  0  0  0  0  0  0  0
  130.4990  123.3310   62.0740 C   0  0  0  0  0  0  0  0  0  0  0  0
  130.7380  123.6230   63.4130 C   0  0  0  0  0  0  0  0  0  0  0  0
  131.0360  124.9290   63.8070 C   0  0  0  0  0  0  0  0  0  0  0  0
  131.2910  125.2310   65.2830 C   0  0  0  0  0  0  0  0  0  0  0  0
  132.5930  125.3070   65.5670 F   0  0  0  0  0  0  0  0  0  0  0  0
  130.7270  126.3900   65.6220 F   0  0  0  0  0  0  0  0  0  0  0  0
  130.7590  124.2610   66.0270 F   0  0  0  0  0  0  0  0  0  0  0  0
  131.0900  125.9390   62.8430 C   0  0  0  0  0  0  0  0  0  0  0  0
  130.8500  125.6460   61.5030 C   0  0  0  0  0  0  0  0  0  0  0  0
  129.2240  122.8160   59.4300 C   0  0  0  0  0  0  0  0  0  0  0  0
  128.8120  122.5870   57.9530 C   0  0  0  0  0  0  0  0  0  0  0  0
  128.2560  123.8620   57.4730 N   0  0  0  0  0  0  0  0  0  0  0  0
  126.9160  124.0940   57.5320 C   0  0  0  0  0  0  0  0  0  0  0  0
  126.1110  123.2060   57.8220 O   0  0  0  0  0  0  0  0  0  0  0  0
  126.3730  125.4650   57.0620 C   0  0  0  0  0  0  0  0  0  0  0  0
  125.7980  126.3840   58.1740 C   0  0  0  0  0  0  0  0  0  0  0  0
  126.7950  126.7590   59.2960 C   0  0  0  0  0  0  0  0  0  0  0  0
  126.4980  126.4630   60.4570 O   0  0  0  0  0  0  0  0  0  0  0  0
  128.0160  127.2720   58.9720 N   0  0  0  0  0  0  0  0  0  0  0  0
  128.3020  127.9250   57.6890 C   0  0  0  0  0  0  0  0  0  0  0  0
  127.8790  129.4030   57.8420 C   0  0  0  0  0  0  0  0  0  0  0  0
  128.5670  130.1630   59.0300 C   0  0  0  0  0  0  0  0  0  0  0  0
  127.8080  131.3970   59.3200 N   0  0  0  0  0  0  0  0  0  0  0  0
  128.0650  132.3310   60.2580 C   0  0  0  0  0  0  0  0  0  0  0  0
  127.0860  133.4980   60.3360 C   0  0  0  0  0  0  0  0  0  0  0  0
  129.0210  132.2860   61.0310 O   0  0  0  0  0  0  0  0  0  0  0  0
  129.9930  130.5880   58.5500 C   0  0  0  0  0  0  0  0  0  0  0  0
  130.2940  130.8600   57.2050 C   0  0  0  0  0  0  0  0  0  0  0  0
  131.5780  131.2360   56.8190 C   0  0  0  0  0  0  0  0  0  0  0  0
  132.5950  131.3480   57.7690 C   0  0  0  0  0  0  0  0  0  0  0  0
  134.0090  131.7650   57.3620 C   0  0  0  0  0  0  0  0  0  0  0  0
  133.9770  132.8780   56.6270 F   0  0  0  0  0  0  0  0  0  0  0  0
  134.7280  131.9990   58.4590 F   0  0  0  0  0  0  0  0  0  0  0  0
  134.6260  130.8200   56.6510 F   0  0  0  0  0  0  0  0  0  0  0  0
  132.3140  131.0730   59.1080 C   0  0  0  0  0  0  0  0  0  0  0  0
  131.0300  130.6970   59.4900 C   0  0  0  0  0  0  0  0  0  0  0  0
  128.5930  129.2220   60.2960 C   0  0  0  0  0  0  0  0  0  0  0  0
  128.9270  127.7290   60.0290 C   0  0  0  0  0  0  0  0  0  0  0  0
  129.2470  124.9470   57.4220 C   0  0  0  0  0  0  0  0  0  0  0  0
  129.6910  125.2250   58.8820 C   0  0  0  0  0  0  0  0  0  0  0  0
  134.7884  122.8216   59.2365 H   0  0  0  0  0  0  0  0  0  0  0  0
  133.6042  122.3036   57.9891 H   0  0  0  0  0  0  0  0  0  0  0  0
  134.2301  123.9874   57.9891 H   0  0  0  0  0  0  0  0  0  0  0  0
  131.4890  123.3320   58.0050 H   0  0  0  0  0  0  0  0  0  0  0  0
  130.2652  122.2978   61.7777 H   0  0  0  0  0  0  0  0  0  0  0  0
  130.6920  122.8213   64.1648 H   0  0  0  0  0  0  0  0  0  0  0  0
  131.3233  126.9709   63.1442 H   0  0  0  0  0  0  0  0  0  0  0  0
  130.8945  126.4507   60.7544 H   0  0  0  0  0  0  0  0  0  0  0  0
  129.6593  121.8839   59.8196 H   0  0  0  0  0  0  0  0  0  0  0  0
  128.3178  123.1114   59.9791 H   0  0  0  0  0  0  0  0  0  0  0  0
  129.6896  122.3050   57.3528 H   0  0  0  0  0  0  0  0  0  0  0  0
  128.0762  121.7739   57.8663 H   0  0  0  0  0  0  0  0  0  0  0  0
  127.1973  126.0040   56.5721 H   0  0  0  0  0  0  0  0  0  0  0  0
  125.5271  125.2379   56.3965 H   0  0  0  0  0  0  0  0  0  0  0  0
  125.4510  127.3147   57.7013 H   0  0  0  0  0  0  0  0  0  0  0  0
  124.9928  125.8120   58.6582 H   0  0  0  0  0  0  0  0  0  0  0  0
  129.3761  127.8593   57.4608 H   0  0  0  0  0  0  0  0  0  0  0  0
  127.7565  127.4394   56.8664 H   0  0  0  0  0  0  0  0  0  0  0  0
  128.1284  129.9290   56.9087 H   0  0  0  0  0  0  0  0  0  0  0  0
  126.8010  129.3963   58.0606 H   0  0  0  0  0  0  0  0  0  0  0  0
  126.9760  131.5240   58.7630 H   0  0  0  0  0  0  0  0  0  0  0  0
  126.8847  133.7379   61.3905 H   0  0  0  0  0  0  0  0  0  0  0  0
  127.5217  134.3761   59.8369 H   0  0  0  0  0  0  0  0  0  0  0  0
  126.1455  133.2216   59.8369 H   0  0  0  0  0  0  0  0  0  0  0  0
  129.5032  130.7746   56.4451 H   0  0  0  0  0  0  0  0  0  0  0  0
  131.7921  131.4458   55.7606 H   0  0  0  0  0  0  0  0  0  0  0  0
  133.1096  131.1537   59.8633 H   0  0  0  0  0  0  0  0  0  0  0  0
  130.8235  130.4810   60.5486 H   0  0  0  0  0  0  0  0  0  0  0  0
  129.3476  129.6161   60.9926 H   0  0  0  0  0  0  0  0  0  0  0  0
  127.5667  129.2297   60.6918 H   0  0  0  0  0  0  0  0  0  0  0  0
  129.9713  127.6280   59.6985 H   0  0  0  0  0  0  0  0  0  0  0  0
  128.8045  127.1281   60.9422 H   0  0  0  0  0  0  0  0  0  0  0  0
  130.1122  124.6401   56.8160 H   0  0  0  0  0  0  0  0  0  0  0  0
  128.8171  125.8499   56.9639 H   0  0  0  0  0  0  0  0  0  0  0  0
  130.4633  126.0082   58.8672 H   0  0  0  0  0  0  0  0  0  0  0  0
  128.7933  125.5322   59.4387 H   0  0  0  0  0  0  0  0  0  0  0  0
  1  2  1  0
  2  3  2  0
  2  4  1  0
  4  5  1  0
  5  6  1  0
  6  7  2  0
  7  8  1  0
  8  9  2  0
  9 10  1  0
 10 11  1  0
 10 12  1  0
 10 13  1  0
  9 14  1  0
 14 15  2  0
  5 16  1  0
 16 17  1  0
 17 18  1  0
 18 19  1  0
 19 20  2  0
 19 21  1  0
 21 22  1  0
 22 23  1  0
 23 24  2  0
 23 25  1  0
 25 26  1  0
 26 27  1  0
 27 28  1  0
 28 29  1  0
 29 30  1  0
 30 31  1  0
 30 32  2  0
 28 33  1  0
 33 34  2  0
 34 35  1  0
 35 36  2  0
 36 37  1  0
 37 38  1  0
 37 39  1  0
 37 40  1  0
 36 41  1  0
 41 42  2  0
 28 43  1  0
 43 44  1  0
 18 45  1  0
 45 46  1  0
 46  5  1  0
 15  6  1  0
 44 25  1  0
 42 33  1  0
  1 47  1  0
  1 48  1  0
  1 49  1  0
  4 50  1  0
  7 51  1  0
  8 52  1  0
 14 53  1  0
 15 54  1  0
 16 55  1  0
 16 56  1  0
 17 57  1  0
 17 58  1  0
 21 59  1  0
 21 60  1  0
 22 61  1  0
 22 62  1  0
 26 63  1  0
 26 64  1  0
 27 65  1  0
 27 66  1  0
 29 67  1  0
 31 68  1  0
 31 69  1  0
 31 70  1  0
 34 71  1  0
 35 72  1  0
 41 73  1  0
 42 74  1  0
 43 75  1  0
 43 76  1  0
 44 77  1  0
 44 78  1  0
 45 79  1  0
 45 80  1  0
 46 81  1  0
 46 82  1  0
M  END
>  <Binding energies>  (1) 
[-5.94]

>  <Ligand effiencies>  (1) 
[-0.12375000000000001]

>  <Interactions>  (1) 
["V-B:GLU:543:CB:9878, V-A:HIS:456:CE1:4068, V-B:GLU:543:CD:9880, V-A:GLU:543:CD:4906, V-B:GLU:543:CG:9879, V-A:ARG:545:CZ:4924, V-A:ARG:545:CG:4920, V-A:ARG:545:CD:4921, V-A:TYR:484:CZ:4345, V-B:TYR:539:CZ:9849, V-B:TYR:539:CG:9844, V-A:ILE:369:CD1:3237, V-B:TYR:539:C:9839, V-B:TYR:539:CD2:9846, V-B:TYR:539:CE2:9848, V-A:ILE:369:CG2:3235, V-B:PRO:540:N:9856, V-A:ASP:366:CB:3210, V-A:ILE:369:CB:3234, V-A:PRO:540:CG:4884, V-A:PRO:540:CA:4881, V-A:PRO:540:N:4882, V-B:ASP:366:CG:8185, V-A:TYR:531:CZ:4792, H-B:ARG:545:NH2:9900, V-A:PRO:540:CB:4883, V-A:PRO:540:CD:4885, V-A:ASN:362:C:3170, V-A:TYR:539:CE2:4874, V-A:TYR:531:CE2:4791, V-A:LEU:363:CA:3183, H-A:ALA:541:N:4889, V-B:ASP:366:CB:8184, V-A:TYR:539:CD2:4872, H-B:TYR:539:OH:9850, V-A:TYR:484:CE1:4343, V-A:LEU:363:CD1:3187, V-A:LEU:363:CB:3185, V-A:LEU:363:CG:3186, V-A:ILE:538:CB:4860, V-A:ILE:538:CD1:4863, V-A:TYR:531:CD2:4789, V-A:LEU:363:C:3181"]

$$$$
RR29_Rahimova_2017
     RDKit          3D

 35 36  0  0  0  0  0  0  0  0999 V2000
  125.0800  129.4800   65.1780 C   0  0  0  0  0  0  0  0  0  0  0  0
  126.5070  129.1480   64.7700 C   0  0  0  0  0  0  0  0  0  0  0  0
  127.4810  129.0990   65.9680 C   0  0  0  0  0  0  0  0  0  0  0  0
  127.0850  128.0040   66.9810 C   0  0  0  0  0  0  0  0  0  0  0  0
  128.1850  127.7320   67.9960 C   0  0  0  0  0  0  0  0  0  0  0  0
  129.5270  127.6530   67.5750 C   0  0  0  0  0  0  0  0  0  0  0  0
  130.5570  127.4050   68.4940 C   0  0  0  0  0  0  0  0  0  0  0  0
  130.2000  127.2290   69.8260 C   0  0  0  0  0  0  0  0  0  0  0  0
  128.9000  127.3020   70.2400 C   0  0  0  0  0  0  0  0  0  0  0  0
  127.8600  127.5580   69.3530 C   0  0  0  0  0  0  0  0  0  0  0  0
  128.8460  127.1260   71.5870 O   0  0  0  0  0  0  0  0  0  0  0  0
  130.1360  126.7280   71.9680 C   0  0  0  0  0  0  0  0  0  0  0  0
  131.0020  127.0060   70.9010 O   0  0  0  0  0  0  0  0  0  0  0  0
  126.7620  128.9580   63.5280 N   0  0  0  0  0  0  0  0  0  0  0  0
  128.0690  128.7420   63.1470 N   0  0  0  0  0  0  0  0  0  0  0  0
  128.5010  127.6190   62.5500 C   0  0  0  0  0  0  0  0  0  0  0  0
  127.7300  126.5790   62.2320 N   0  0  0  0  0  0  0  0  0  0  0  0
  129.7900  127.5360   62.2530 N   0  0  0  0  0  0  0  0  0  0  0  0
  125.0069  129.4970   66.2754 H   0  0  0  0  0  0  0  0  0  0  0  0
  124.8040  130.4663   64.7768 H   0  0  0  0  0  0  0  0  0  0  0  0
  124.3969  128.7168   64.7768 H   0  0  0  0  0  0  0  0  0  0  0  0
  128.4945  128.8900   65.5951 H   0  0  0  0  0  0  0  0  0  0  0  0
  127.4426  130.0712   66.4813 H   0  0  0  0  0  0  0  0  0  0  0  0
  126.1810  128.3284   67.5173 H   0  0  0  0  0  0  0  0  0  0  0  0
  126.9073  127.0747   66.4199 H   0  0  0  0  0  0  0  0  0  0  0  0
  129.7704  127.7877   66.5108 H   0  0  0  0  0  0  0  0  0  0  0  0
  131.6078  127.3518   68.1729 H   0  0  0  0  0  0  0  0  0  0  0  0
  126.8185  127.6222   69.7011 H   0  0  0  0  0  0  0  0  0  0  0  0
  130.4515  127.2866   72.8615 H   0  0  0  0  0  0  0  0  0  0  0  0
  130.1524  125.6544   72.2070 H   0  0  0  0  0  0  0  0  0  0  0  0
  128.7310  129.4740   63.3630 H   0  0  0  0  0  0  0  0  0  0  0  0
  128.0290  125.9220   61.5260 H   0  0  0  0  0  0  0  0  0  0  0  0
  126.8400  126.4600   62.6950 H   0  0  0  0  0  0  0  0  0  0  0  0
  130.4580  128.1180   62.7370 H   0  0  0  0  0  0  0  0  0  0  0  0
  130.1020  126.8860   61.5470 H   0  0  0  0  0  0  0  0  0  0  0  0
  1  2  1  0
  2  3  1  0
  3  4  1  0
  4  5  1  0
  5  6  2  0
  6  7  1  0
  7  8  2  0
  8  9  1  0
  9 10  2  0
  9 11  1  0
 11 12  1  0
 12 13  1  0
  2 14  2  0
 14 15  1  0
 15 16  1  0
 16 17  1  0
 16 18  2  0
 10  5  1  0
 13  8  1  0
  1 19  1  0
  1 20  1  0
  1 21  1  0
  3 22  1  0
  3 23  1  0
  4 24  1  0
  4 25  1  0
  6 26  1  0
  7 27  1  0
 10 28  1  0
 12 29  1  0
 12 30  1  0
 15 31  1  0
 17 32  1  0
 17 33  1  0
 18 34  1  0
 18 35  1  0
M  CHG  1  18   1
M  END
>  <Binding energies>  (1) 
[-7.2]

>  <Ligand effiencies>  (1) 
[-0.3130434782608696]

>  <Interactions>  (1) 
["V-B:ARG:545:CZ:9898, V-A:HIS:456:CE1:4068, V-A:HIS:456:CD2:4066, V-B:GLU:543:CD:9880, V-A:GLU:543:CD:4906, V-B:HIS:456:CE1:9042, V-B:GLY:544:C:9884, V-A:GLY:544:C:4910, V-A:GLU:543:CB:4904, V-B:GLU:543:CG:9879, V-A:GLU:543:CG:4905, V-B:GLU:543:C:9874, V-A:ARG:545:CG:4920, H-B:GLU:543:OE1:9881, V-A:GLU:543:C:4900, H-B:ARG:545:NH2:9900, H-A:GLU:543:OE2:4908, H-A:GLU:543:OE1:4907, H-B:GLU:543:OE2:9882, V-B:ARG:545:CG:9894, V-B:ARG:545:CD:9895, H-A:HIS:456:ND1:4065, H-A:ARG:545:N:4918"]

$$$$
RR29_Rahimova_2017-again1
     RDKit          3D

 34 35  0  0  0  0  0  0  0  0999 V2000
  132.5930  123.6050   75.0090 C   0  0  0  0  0  0  0  0  0  0  0  0
  131.4640  123.7500   74.0000 C   0  0  0  0  0  0  0  0  0  0  0  0
  131.0210  122.4110   73.3790 C   0  0  0  0  0  0  0  0  0  0  0  0
  129.5860  122.0360   73.8070 C   0  0  0  0  0  0  0  0  0  0  0  0
  128.8880  121.1600   72.7780 C   0  0  0  0  0  0  0  0  0  0  0  0
  128.6910  121.6360   71.4670 C   0  0  0  0  0  0  0  0  0  0  0  0
  128.0520  120.8450   70.5020 C   0  0  0  0  0  0  0  0  0  0  0  0
  127.6150  119.5830   70.8910 C   0  0  0  0  0  0  0  0  0  0  0  0
  127.8010  119.1170   72.1630 C   0  0  0  0  0  0  0  0  0  0  0  0
  128.4410  119.8770   73.1360 C   0  0  0  0  0  0  0  0  0  0  0  0
  127.3100  117.8540   72.2540 O   0  0  0  0  0  0  0  0  0  0  0  0
  126.6160  117.6300   71.0560 C   0  0  0  0  0  0  0  0  0  0  0  0
  127.0020  118.6270   70.1470 O   0  0  0  0  0  0  0  0  0  0  0  0
  131.0000  124.9210   73.7410 N   0  0  0  0  0  0  0  0  0  0  0  0
  130.0590  125.0040   72.8560 N   0  0  0  0  0  0  0  0  0  0  0  0
  129.9050  126.1310   72.2620 C   0  0  0  0  0  0  0  0  0  0  0  0
  130.6460  127.3310   72.4530 N   0  0  0  0  0  0  0  0  0  0  0  0
  128.9090  126.3110   71.2790 N   0  0  0  0  0  0  0  0  0  0  0  0
  132.1828  123.6577   76.0283 H   0  0  0  0  0  0  0  0  0  0  0  0
  133.0919  122.6354   74.8642 H   0  0  0  0  0  0  0  0  0  0  0  0
  133.3207  124.4171   74.8642 H   0  0  0  0  0  0  0  0  0  0  0  0
  131.0563  122.4964   72.2829 H   0  0  0  0  0  0  0  0  0  0  0  0
  131.7034  121.6241   73.7327 H   0  0  0  0  0  0  0  0  0  0  0  0
  129.6323  121.4919   74.7619 H   0  0  0  0  0  0  0  0  0  0  0  0
  129.0089  122.9675   73.9034 H   0  0  0  0  0  0  0  0  0  0  0  0
  129.0434  122.6423   71.1967 H   0  0  0  0  0  0  0  0  0  0  0  0
  127.9017  121.2089   69.4749 H   0  0  0  0  0  0  0  0  0  0  0  0
  128.5924  119.4863   74.1531 H   0  0  0  0  0  0  0  0  0  0  0  0
  126.8713  116.6380   70.6549 H   0  0  0  0  0  0  0  0  0  0  0  0
  125.5300  117.6642   71.2275 H   0  0  0  0  0  0  0  0  0  0  0  0
  131.3990  127.3940   73.1240 H   0  0  0  0  0  0  0  0  0  0  0  0
  130.4500  128.1760   71.9410 H   0  0  0  0  0  0  0  0  0  0  0  0
  128.2800  125.5680   71.0110 H   0  0  0  0  0  0  0  0  0  0  0  0
  128.7690  127.1890   70.8040 H   0  0  0  0  0  0  0  0  0  0  0  0
  1  2  1  0
  2  3  1  0
  3  4  1  0
  4  5  1  0
  5  6  2  0
  6  7  1  0
  7  8  2  0
  8  9  1  0
  9 10  2  0
  9 11  1  0
 11 12  1  0
 12 13  1  0
  2 14  2  0
 14 15  1  0
 15 16  2  0
 16 17  1  0
 16 18  1  0
 10  5  1  0
 13  8  1  0
  1 19  1  0
  1 20  1  0
  1 21  1  0
  3 22  1  0
  3 23  1  0
  4 24  1  0
  4 25  1  0
  6 26  1  0
  7 27  1  0
 10 28  1  0
 12 29  1  0
 12 30  1  0
 17 31  1  0
 17 32  1  0
 18 33  1  0
 18 34  1  0
M  END
>  <Binding energies>  (1) 
[-6.8]

>  <Ligand effiencies>  (1) 
[-0.3090909090909091]

>  <Interactions>  (1) 
["H-B:GLY:544:O:9885, V-A:HIS:456:CD2:4066, H-A:HIS:456:NE2:4069, V-A:GLY:544:CA:4912, V-B:GLY:544:C:9884, V-A:GLY:544:C:4910, H-B:GLU:543:O:9875, H-B:LYS:547:NZ:9923, V-B:GLU:543:C:9874, V-A:LYS:547:CE:4948, V-A:HIS:456:CG:4064, V-A:HIS:456:CB:4063, V-B:LYS:547:CE:9922, V-B:GLY:544:CA:9886, V-A:TYR:484:CG:4340, V-A:LYS:471:CE:4218, V-A:TYR:484:CB:4339, V-B:GLU:543:CA:9876, V-A:TYR:484:CA:4337, V-A:ASP:473:CG:4238, V-A:TYR:484:CD1:4341, H-A:GLY:544:O:4911, H-A:GLU:543:O:4901, V-B:VAL:542:CG1:9871, V-B:VAL:542:C:9866, H-A:TYR:484:N:4338, V-A:SER:483:CB:4331, V-A:LYS:471:CD:4217"]

$$$$
RR2_Rahimova_2017
     RDKit          3D

 76 80  0  0  0  0  0  0  0  0999 V2000
  126.3650  130.3310   64.1560 C   0  0  0  0  0  0  0  0  0  0  0  0
  125.7630  129.8630   62.9540 O   0  0  0  0  0  0  0  0  0  0  0  0
  126.4990  129.0680   62.0960 C   0  0  0  0  0  0  0  0  0  0  0  0
  127.6890  128.4160   62.4470 C   0  0  0  0  0  0  0  0  0  0  0  0
  128.3660  127.6370   61.5130 C   0  0  0  0  0  0  0  0  0  0  0  0
  127.8740  127.4930   60.2090 C   0  0  0  0  0  0  0  0  0  0  0  0
  128.6340  126.6450   59.2080 C   0  0  0  0  0  0  0  0  0  0  0  0
  128.0240  126.0050   58.3440 O   0  0  0  0  0  0  0  0  0  0  0  0
  129.9800  126.6360   59.3440 N   0  0  0  0  0  0  0  0  0  0  0  0
  130.7180  125.8010   58.5110 N   0  0  0  0  0  0  0  0  0  0  0  0
  131.9090  125.3500   58.9540 C   0  0  0  0  0  0  0  0  0  0  0  0
  132.4860  125.7580   59.9670 O   0  0  0  0  0  0  0  0  0  0  0  0
  132.5460  124.2330   58.1170 C   0  0  0  0  0  0  0  0  0  0  0  0
  133.0790  122.7610   59.0660 S   0  0  0  0  0  0  0  0  0  0  0  0
  133.1660  123.4390   60.6960 C   0  0  0  0  0  0  0  0  0  0  0  0
  134.2980  123.7020   61.2990 N   0  0  0  0  0  0  0  0  0  0  0  0
  133.9950  124.1500   62.5780 N   0  0  0  0  0  0  0  0  0  0  0  0
  132.6870  124.1690   62.6890 C   0  0  0  0  0  0  0  0  0  0  0  0
  131.9740  124.6130   63.9250 C   0  0  0  0  0  0  0  0  0  0  0  0
  130.9670  123.8120   64.4710 C   0  0  0  0  0  0  0  0  0  0  0  0
  130.2920  124.2210   65.6170 C   0  0  0  0  0  0  0  0  0  0  0  0
  130.6300  125.4280   66.2390 C   0  0  0  0  0  0  0  0  0  0  0  0
  129.9770  125.8940   67.3900 N   0  0  0  0  0  0  0  0  0  0  0  0
  129.9100  127.5970   67.8950 S   0  0  0  0  0  0  0  0  0  0  0  0
  128.8220  128.2060   67.1210 O   0  0  0  0  0  0  0  0  0  0  0  0
  131.2710  128.1430   67.8380 O   0  0  0  0  0  0  0  0  0  0  0  0
  129.3690  127.5580   69.6030 C   0  0  0  0  0  0  0  0  0  0  0  0
  128.0250  127.7580   69.9280 C   0  0  0  0  0  0  0  0  0  0  0  0
  127.6280  127.7390   71.2620 C   0  0  0  0  0  0  0  0  0  0  0  0
  128.5710  127.5150   72.2680 C   0  0  0  0  0  0  0  0  0  0  0  0
  128.1390  127.5100   73.7230 C   0  0  0  0  0  0  0  0  0  0  0  0
  129.9150  127.3200   71.9400 C   0  0  0  0  0  0  0  0  0  0  0  0
  130.3130  127.3400   70.6070 C   0  0  0  0  0  0  0  0  0  0  0  0
  131.6370  126.2250   65.6940 C   0  0  0  0  0  0  0  0  0  0  0  0
  132.3090  125.8200   64.5440 C   0  0  0  0  0  0  0  0  0  0  0  0
  132.0930  123.7220   61.5200 N   0  0  0  0  0  0  0  0  0  0  0  0
  130.7200  123.5490   61.2450 C   0  0  0  0  0  0  0  0  0  0  0  0
  129.8120  124.5560   61.5720 C   0  0  0  0  0  0  0  0  0  0  0  0
  128.4600  124.3810   61.2940 C   0  0  0  0  0  0  0  0  0  0  0  0
  128.0040  123.2070   60.6930 C   0  0  0  0  0  0  0  0  0  0  0  0
  126.6450  123.1240   60.4570 O   0  0  0  0  0  0  0  0  0  0  0  0
  125.7910  124.1520   60.9490 C   0  0  0  0  0  0  0  0  0  0  0  0
  128.9260  122.1980   60.3670 C   0  0  0  0  0  0  0  0  0  0  0  0
  130.2790  122.3690   60.6420 C   0  0  0  0  0  0  0  0  0  0  0  0
  126.6780  128.1440   59.8660 C   0  0  0  0  0  0  0  0  0  0  0  0
  126.0030  128.9220   60.8030 C   0  0  0  0  0  0  0  0  0  0  0  0
  125.8287  129.9141   65.0212 H   0  0  0  0  0  0  0  0  0  0  0  0
  127.4170  130.0112   64.1879 H   0  0  0  0  0  0  0  0  0  0  0  0
  126.3145  131.4294   64.1879 H   0  0  0  0  0  0  0  0  0  0  0  0
  128.0901  128.5204   63.4659 H   0  0  0  0  0  0  0  0  0  0  0  0
  129.2978  127.1287   61.8019 H   0  0  0  0  0  0  0  0  0  0  0  0
  130.4200  126.7480   60.2460 H   0  0  0  0  0  0  0  0  0  0  0  0
  130.1510  125.3060   57.8370 H   0  0  0  0  0  0  0  0  0  0  0  0
  131.8103  123.9071   57.3669 H   0  0  0  0  0  0  0  0  0  0  0  0
  133.4587  124.6615   57.6772 H   0  0  0  0  0  0  0  0  0  0  0  0
  130.7074  122.8557   63.9934 H   0  0  0  0  0  0  0  0  0  0  0  0
  129.4907  123.5939   66.0350 H   0  0  0  0  0  0  0  0  0  0  0  0
  129.4880  125.2180   67.9580 H   0  0  0  0  0  0  0  0  0  0  0  0
  127.2840  127.9297   69.1334 H   0  0  0  0  0  0  0  0  0  0  0  0
  126.5719  127.9003   71.5240 H   0  0  0  0  0  0  0  0  0  0  0  0
  129.0288  127.5203   74.3697 H   0  0  0  0  0  0  0  0  0  0  0  0
  127.5272  128.4011   73.9269 H   0  0  0  0  0  0  0  0  0  0  0  0
  127.5480  126.6050   73.9269 H   0  0  0  0  0  0  0  0  0  0  0  0
  130.6571  127.1510   72.7342 H   0  0  0  0  0  0  0  0  0  0  0  0
  131.3700  127.1842   70.3451 H   0  0  0  0  0  0  0  0  0  0  0  0
  131.9013  127.1781   66.1753 H   0  0  0  0  0  0  0  0  0  0  0  0
  133.1049  126.4512   64.1220 H   0  0  0  0  0  0  0  0  0  0  0  0
  130.1630  125.4838   62.0473 H   0  0  0  0  0  0  0  0  0  0  0  0
  127.7438  125.1755   61.5504 H   0  0  0  0  0  0  0  0  0  0  0  0
  125.8001  124.1411   62.0489 H   0  0  0  0  0  0  0  0  0  0  0  0
  126.1475  125.1284   60.5891 H   0  0  0  0  0  0  0  0  0  0  0  0
  124.7658  123.9806   60.5891 H   0  0  0  0  0  0  0  0  0  0  0  0
  128.5766  121.2692   59.8925 H   0  0  0  0  0  0  0  0  0  0  0  0
  130.9988  121.5777   60.3854 H   0  0  0  0  0  0  0  0  0  0  0  0
  126.2713  128.0386   58.8494 H   0  0  0  0  0  0  0  0  0  0  0  0
  125.0679  129.4267   60.5188 H   0  0  0  0  0  0  0  0  0  0  0  0
  1  2  1  0
  2  3  1  0
  3  4  2  0
  4  5  1  0
  5  6  2  0
  6  7  1  0
  7  8  2  0
  7  9  1  0
  9 10  1  0
 10 11  1  0
 11 12  2  0
 11 13  1  0
 13 14  1  0
 14 15  1  0
 15 16  2  0
 16 17  1  0
 17 18  2  0
 18 19  1  0
 19 20  2  0
 20 21  1  0
 21 22  2  0
 22 23  1  0
 23 24  1  0
 24 25  2  0
 24 26  2  0
 24 27  1  0
 27 28  2  0
 28 29  1  0
 29 30  2  0
 30 31  1  0
 30 32  1  0
 32 33  2  0
 22 34  1  0
 34 35  2  0
 18 36  1  0
 36 37  1  0
 37 38  2  0
 38 39  1  0
 39 40  2  0
 40 41  1  0
 41 42  1  0
 40 43  1  0
 43 44  2  0
  6 45  1  0
 45 46  2  0
 46  3  1  0
 36 15  1  0
 44 37  1  0
 35 19  1  0
 33 27  1  0
  1 47  1  0
  1 48  1  0
  1 49  1  0
  4 50  1  0
  5 51  1  0
  9 52  1  0
 10 53  1  0
 13 54  1  0
 13 55  1  0
 20 56  1  0
 21 57  1  0
 23 58  1  0
 28 59  1  0
 29 60  1  0
 31 61  1  0
 31 62  1  0
 31 63  1  0
 32 64  1  0
 33 65  1  0
 34 66  1  0
 35 67  1  0
 38 68  1  0
 39 69  1  0
 42 70  1  0
 42 71  1  0
 42 72  1  0
 43 73  1  0
 44 74  1  0
 45 75  1  0
 46 76  1  0
M  END
>  <Binding energies>  (1) 
[-8.15]

>  <Ligand effiencies>  (1) 
[-0.1663265306122449]

>  <Interactions>  (1) 
["V-B:GLU:543:CB:9878, V-A:HIS:456:CE1:4068, V-A:HIS:456:CD2:4066, V-B:GLU:543:CD:9880, H-A:HIS:456:NE2:4069, V-A:GLU:543:CD:4906, V-B:HIS:456:CE1:9042, V-A:GLY:544:CA:4912, V-B:GLY:544:C:9884, V-A:GLY:544:C:4910, H-B:GLU:543:O:9875, V-B:HIS:456:CD2:9040, V-B:GLU:543:CG:9879, V-A:GLU:543:CG:4905, H-A:GLY:454:N:4048, V-A:ARG:545:CZ:4924, V-A:ARG:545:CG:4920, V-A:ARG:545:CD:4921, V-A:TYR:484:CZ:4345, V-B:LYS:547:CE:9922, V-B:GLY:544:CA:9886, V-A:GLU:543:C:4900, V-B:TYR:539:CZ:9849, V-A:ILE:369:CD1:3237, V-B:PRO:540:CA:9855, V-B:TYR:539:C:9839, V-A:ASP:366:CG:3211, V-B:ALA:541:CB:9864, V-B:TYR:539:CE2:9848, V-A:ASP:366:CB:3210, V-B:ASP:366:CG:8185, H-B:ARG:545:NH2:9900, H-B:ALA:541:N:9863, V-B:HIS:456:CG:9038, V-A:TYR:484:CE1:4343, H-A:ARG:545:N:4918"]

$$$$
RR30_Rahimova_2017
     RDKit          3D

 29 30  0  0  0  0  0  0  0  0999 V2000
  125.4980  116.5020   72.4830 C   0  0  0  0  0  0  0  0  0  0  0  0
  126.8750  117.1210   72.7610 C   0  0  0  0  0  0  0  0  0  0  0  0
  127.2440  118.1790   71.7440 C   0  0  0  0  0  0  0  0  0  0  0  0
  127.0770  118.1470   70.4450 N   0  0  0  0  0  0  0  0  0  0  0  0
  127.5870  119.3510   69.9640 N   0  0  0  0  0  0  0  0  0  0  0  0
  128.0260  120.0010   71.0110 C   0  0  0  0  0  0  0  0  0  0  0  0
  128.7720  121.5990   71.0500 S   0  0  0  0  0  0  0  0  0  0  0  0
  129.0070  121.7910   72.8460 C   0  0  0  0  0  0  0  0  0  0  0  0
  129.9240  122.9690   73.1870 C   0  0  0  0  0  0  0  0  0  0  0  0
  129.5770  124.1110   72.8770 O   0  0  0  0  0  0  0  0  0  0  0  0
  131.0920  122.6540   73.7890 N   0  0  0  0  0  0  0  0  0  0  0  0
  132.0790  123.5430   74.1880 C   0  0  0  0  0  0  0  0  0  0  0  0
  133.1460  123.3010   74.9160 N   0  0  0  0  0  0  0  0  0  0  0  0
  133.9160  124.4390   75.1190 N   0  0  0  0  0  0  0  0  0  0  0  0
  133.4220  125.5120   74.5450 C   0  0  0  0  0  0  0  0  0  0  0  0
  134.0770  126.8710   74.6260 C   0  0  0  0  0  0  0  0  0  0  0  0
  131.9370  125.1990   73.6870 S   0  0  0  0  0  0  0  0  0  0  0  0
  127.8380  119.3210   72.1720 O   0  0  0  0  0  0  0  0  0  0  0  0
  124.9978  116.2771   73.4365 H   0  0  0  0  0  0  0  0  0  0  0  0
  124.8865  117.2118   71.9066 H   0  0  0  0  0  0  0  0  0  0  0  0
  125.6230  115.5735   71.9066 H   0  0  0  0  0  0  0  0  0  0  0  0
  126.8613  117.5803   73.7604 H   0  0  0  0  0  0  0  0  0  0  0  0
  127.6242  116.3180   72.6987 H   0  0  0  0  0  0  0  0  0  0  0  0
  128.0264  121.9579   73.3157 H   0  0  0  0  0  0  0  0  0  0  0  0
  129.4813  120.8735   73.2244 H   0  0  0  0  0  0  0  0  0  0  0  0
  131.2790  121.6770   73.9660 H   0  0  0  0  0  0  0  0  0  0  0  0
  134.2118  127.1507   75.6813 H   0  0  0  0  0  0  0  0  0  0  0  0
  135.0571  126.8359   74.1279 H   0  0  0  0  0  0  0  0  0  0  0  0
  133.4390  127.6158   74.1279 H   0  0  0  0  0  0  0  0  0  0  0  0
  1  2  1  0
  2  3  1  0
  3  4  2  0
  4  5  1  0
  5  6  2  0
  6  7  1  0
  7  8  1  0
  8  9  1  0
  9 10  2  0
  9 11  1  0
 11 12  1  0
 12 13  2  0
 13 14  1  0
 14 15  2  0
 15 16  1  0
 15 17  1  0
  6 18  1  0
 18  3  1  0
 17 12  1  0
  1 19  1  0
  1 20  1  0
  1 21  1  0
  2 22  1  0
  2 23  1  0
  8 24  1  0
  8 25  1  0
 11 26  1  0
 16 27  1  0
 16 28  1  0
 16 29  1  0
M  END
>  <Binding energies>  (1) 
[-6.67]

>  <Ligand effiencies>  (1) 
[-0.35105263157894734]

>  <Interactions>  (1) 
["V-A:HIS:456:CD2:4066, H-B:LYS:547:NZ:9923, V-A:HIS:456:CG:4064, V-A:HIS:456:CB:4063, V-B:LYS:547:CE:9922, V-B:GLY:544:CA:9886, V-A:LYS:547:CD:4947, V-A:HIS:456:C:4059, V-A:TYR:484:CG:4340, V-A:LYS:547:CG:4946, V-A:TYR:484:CB:4339, V-A:TYR:484:CA:4337, V-A:ASP:473:CG:4238, V-A:TYR:484:CD1:4341, V-A:VAL:457:C:4071, V-A:VAL:458:CG2:4085, H-A:ASP:473:OD2:4240, H-B:GLY:544:N:9887, H-A:TYR:484:N:4338, V-A:TYR:484:C:4335, V-A:LYS:547:CB:4945, H-B:GLU:543:N:9877"]

$$$$
RR31_Rahimova_2017
     RDKit          3D

 44 45  0  0  0  0  0  0  0  0999 V2000
  125.4320  123.0560   56.3030 C   0  0  0  0  0  0  0  0  0  0  0  0
  126.5350  123.3700   57.3050 C   0  0  0  0  0  0  0  0  0  0  0  0
  127.8610  123.1050   56.9620 C   0  0  0  0  0  0  0  0  0  0  0  0
  128.8940  123.3850   57.8550 C   0  0  0  0  0  0  0  0  0  0  0  0
  128.6320  123.9460   59.1150 C   0  0  0  0  0  0  0  0  0  0  0  0
  129.6550  124.2220   60.0250 N   0  0  0  0  0  0  0  0  0  0  0  0
  130.0680  125.6030   60.3410 C   0  0  0  0  0  0  0  0  0  0  0  0
  131.4500  125.7060   61.0280 C   0  0  0  0  0  0  0  0  0  0  0  0
  131.4930  124.8910   62.2450 N   0  0  0  0  0  0  0  0  0  0  0  0
  132.7800  124.9970   62.9380 C   0  0  0  0  0  0  0  0  0  0  0  0
  132.6390  125.4460   64.4060 C   0  0  0  0  0  0  0  0  0  0  0  0
  131.1990  125.3020   64.9240 C   0  0  0  0  0  0  0  0  0  0  0  0
  130.2520  126.1700   64.0870 N   0  0  0  0  0  0  0  0  0  0  0  0
  131.2580  123.5030   61.8500 C   0  0  0  0  0  0  0  0  0  0  0  0
  129.8670  123.3460   61.1950 C   0  0  0  0  0  0  0  0  0  0  0  0
  127.2930  124.1990   59.4500 C   0  0  0  0  0  0  0  0  0  0  0  0
  126.2470  123.9220   58.5630 C   0  0  0  0  0  0  0  0  0  0  0  0
  124.8140  124.2170   58.9890 C   0  0  0  0  0  0  0  0  0  0  0  0
  124.5101  122.7936   56.8427 H   0  0  0  0  0  0  0  0  0  0  0  0
  125.2487  123.9376   55.6713 H   0  0  0  0  0  0  0  0  0  0  0  0
  125.7405  122.2100   55.6713 H   0  0  0  0  0  0  0  0  0  0  0  0
  128.0934  122.6713   55.9782 H   0  0  0  0  0  0  0  0  0  0  0  0
  129.9322  123.1626   57.5676 H   0  0  0  0  0  0  0  0  0  0  0  0
  130.1048  126.1760   59.4028 H   0  0  0  0  0  0  0  0  0  0  0  0
  129.3292  126.0007   61.0523 H   0  0  0  0  0  0  0  0  0  0  0  0
  132.2252  125.3538   60.3315 H   0  0  0  0  0  0  0  0  0  0  0  0
  131.6276  126.7562   61.3028 H   0  0  0  0  0  0  0  0  0  0  0  0
  133.2708  124.0128   62.9182 H   0  0  0  0  0  0  0  0  0  0  0  0
  133.3727  125.7623   62.4155 H   0  0  0  0  0  0  0  0  0  0  0  0
  133.3027  124.8294   65.0299 H   0  0  0  0  0  0  0  0  0  0  0  0
  132.9114  126.5104   64.4601 H   0  0  0  0  0  0  0  0  0  0  0  0
  130.8889  124.2492   64.8505 H   0  0  0  0  0  0  0  0  0  0  0  0
  131.1578  125.6304   65.9730 H   0  0  0  0  0  0  0  0  0  0  0  0
  130.7810  126.8410   63.5490 H   0  0  0  0  0  0  0  0  0  0  0  0
  129.6130  126.6680   64.6890 H   0  0  0  0  0  0  0  0  0  0  0  0
  129.7190  125.5930   63.4520 H   0  0  0  0  0  0  0  0  0  0  0  0
  132.0318  123.1970   61.1306 H   0  0  0  0  0  0  0  0  0  0  0  0
  131.2979  122.8695   62.7484 H   0  0  0  0  0  0  0  0  0  0  0  0
  129.7526  122.3011   60.8708 H   0  0  0  0  0  0  0  0  0  0  0  0
  129.1230  123.6370   61.9511 H   0  0  0  0  0  0  0  0  0  0  0  0
  127.0595  124.6265   60.4363 H   0  0  0  0  0  0  0  0  0  0  0  0
  124.7532  124.2295   60.0872 H   0  0  0  0  0  0  0  0  0  0  0  0
  124.5083  125.1969   58.5936 H   0  0  0  0  0  0  0  0  0  0  0  0
  124.1461  123.4375   58.5936 H   0  0  0  0  0  0  0  0  0  0  0  0
  1  2  1  0
  2  3  2  0
  3  4  1  0
  4  5  2  0
  5  6  1  0
  6  7  1  0
  7  8  1  0
  8  9  1  0
  9 10  1  0
 10 11  1  0
 11 12  1  0
 12 13  1  0
  9 14  1  0
 14 15  1  0
  5 16  1  0
 16 17  2  0
 17 18  1  0
 17  2  1  0
 15  6  1  0
  1 19  1  0
  1 20  1  0
  1 21  1  0
  3 22  1  0
  4 23  1  0
  7 24  1  0
  7 25  1  0
  8 26  1  0
  8 27  1  0
 10 28  1  0
 10 29  1  0
 11 30  1  0
 11 31  1  0
 12 32  1  0
 12 33  1  0
 13 34  1  0
 13 35  1  0
 13 36  1  0
 14 37  1  0
 14 38  1  0
 15 39  1  0
 15 40  1  0
 16 41  1  0
 18 42  1  0
 18 43  1  0
 18 44  1  0
M  CHG  1  13   1
M  END
>  <Binding energies>  (1) 
[-6.49]

>  <Ligand effiencies>  (1) 
[-0.30904761904761907]

>  <Interactions>  (1) 
["V-B:GLU:543:CD:9880, V-A:GLU:543:CD:4906, V-A:ARG:545:CZ:4924, V-A:ARG:545:CD:4921, H-B:GLU:543:OE1:9881, V-B:TYR:539:CZ:9849, V-B:TYR:539:CG:9844, V-B:PRO:540:CA:9855, V-B:TYR:539:C:9839, V-A:ASP:366:CG:3211, V-B:PRO:540:CD:9859, V-B:TYR:539:CD2:9846, V-B:TYR:539:CE2:9848, V-B:PRO:540:N:9856, V-B:PRO:540:CB:9857, V-B:ASP:366:CG:8185, H-A:GLU:543:OE2:4908, H-B:GLU:543:OE2:9882, V-B:ILE:538:CB:9834"]

$$$$
RR32_Rahimova_2017
     RDKit          3D

 37 39  0  0  0  0  0  0  0  0999 V2000
  126.0310  124.4550   61.4310 C   0  0  0  0  0  0  0  0  0  0  0  0
  126.7950  123.8710   60.2460 C   0  0  0  0  0  0  0  0  0  0  0  0
  128.0870  123.3920   60.4660 C   0  0  0  0  0  0  0  0  0  0  0  0
  128.8130  122.8500   59.4100 C   0  0  0  0  0  0  0  0  0  0  0  0
  130.0940  122.3760   59.6320 N   0  0  0  0  0  0  0  0  0  0  0  0
  131.0820  123.3270   60.1740 C   0  0  0  0  0  0  0  0  0  0  0  0
  132.5200  122.7570   60.2150 C   0  0  0  0  0  0  0  0  0  0  0  0
  132.5570  121.5370   61.0200 N   0  0  0  0  0  0  0  0  0  0  0  0
  133.9180  121.0170   61.0850 C   0  0  0  0  0  0  0  0  0  0  0  0
  131.6700  120.5570   60.3950 C   0  0  0  0  0  0  0  0  0  0  0  0
  130.2200  121.0950   60.3530 C   0  0  0  0  0  0  0  0  0  0  0  0
  128.3170  122.7640   58.1480 N   0  0  0  0  0  0  0  0  0  0  0  0
  127.0610  123.2250   57.9020 C   0  0  0  0  0  0  0  0  0  0  0  0
  126.5700  123.1250   56.5770 C   0  0  0  0  0  0  0  0  0  0  0  0
  125.2940  123.5800   56.2670 C   0  0  0  0  0  0  0  0  0  0  0  0
  124.4850  124.1370   57.2510 C   0  0  0  0  0  0  0  0  0  0  0  0
  124.9370  124.2500   58.5620 C   0  0  0  0  0  0  0  0  0  0  0  0
  126.2390  123.7980   58.9260 C   0  0  0  0  0  0  0  0  0  0  0  0
  126.4872  124.1063   62.3692 H   0  0  0  0  0  0  0  0  0  0  0  0
  126.0730  125.5534   61.3890 H   0  0  0  0  0  0  0  0  0  0  0  0
  124.9821  124.1263   61.3890 H   0  0  0  0  0  0  0  0  0  0  0  0
  128.5303  123.4427   61.4714 H   0  0  0  0  0  0  0  0  0  0  0  0
  131.0814  124.2285   59.5437 H   0  0  0  0  0  0  0  0  0  0  0  0
  130.7885  123.5468   61.2111 H   0  0  0  0  0  0  0  0  0  0  0  0
  132.8488  122.5266   59.1909 H   0  0  0  0  0  0  0  0  0  0  0  0
  133.1896  123.5045   60.6654 H   0  0  0  0  0  0  0  0  0  0  0  0
  134.2170  120.9028   62.1374 H   0  0  0  0  0  0  0  0  0  0  0  0
  133.9612  120.0390   60.5833 H   0  0  0  0  0  0  0  0  0  0  0  0
  134.6023  121.7170   60.5833 H   0  0  0  0  0  0  0  0  0  0  0  0
  132.0135  120.3591   59.3689 H   0  0  0  0  0  0  0  0  0  0  0  0
  131.6903  119.6287   60.9848 H   0  0  0  0  0  0  0  0  0  0  0  0
  129.5850  120.3489   59.8529 H   0  0  0  0  0  0  0  0  0  0  0  0
  129.9085  121.2740   61.3927 H   0  0  0  0  0  0  0  0  0  0  0  0
  127.2011  122.6855   55.7905 H   0  0  0  0  0  0  0  0  0  0  0  0
  124.9212  123.4988   55.2353 H   0  0  0  0  0  0  0  0  0  0  0  0
  123.4770  124.4921   56.9903 H   0  0  0  0  0  0  0  0  0  0  0  0
  124.2820  124.6933   59.3265 H   0  0  0  0  0  0  0  0  0  0  0  0
  1  2  1  0
  2  3  2  0
  3  4  1  0
  4  5  1  0
  5  6  1  0
  6  7  1  0
  7  8  1  0
  8  9  1  0
  8 10  1  0
 10 11  1  0
  4 12  2  0
 12 13  1  0
 13 14  2  0
 14 15  1  0
 15 16  2  0
 16 17  1  0
 17 18  2  0
 18  2  1  0
 11  5  1  0
 18 13  1  0
  1 19  1  0
  1 20  1  0
  1 21  1  0
  3 22  1  0
  6 23  1  0
  6 24  1  0
  7 25  1  0
  7 26  1  0
  9 27  1  0
  9 28  1  0
  9 29  1  0
 10 30  1  0
 10 31  1  0
 11 32  1  0
 11 33  1  0
 14 34  1  0
 15 35  1  0
 16 36  1  0
 17 37  1  0
M  END
>  <Binding energies>  (1) 
[-6.47]

>  <Ligand effiencies>  (1) 
[-0.35944444444444446]

>  <Interactions>  (1) 
["V-B:GLU:543:CD:9880, V-A:ILE:369:CD1:3237, V-A:LEU:475:CD2:4257, V-A:TRP:381:CH2:3370, V-B:PRO:540:CA:9855, V-B:TYR:539:C:9839, V-B:PRO:540:CD:9859, V-B:ALA:541:CB:9864, V-B:TYR:539:CD2:9846, V-B:TYR:539:CE2:9848, V-A:ILE:369:CG2:3235, V-B:PRO:540:N:9856, V-B:PRO:540:CB:9857, V-B:ILE:538:CB:9834, V-B:TYR:531:CZ:9766, V-B:TYR:531:CE2:9765"]

$$$$
RR32_Rahimova_2017-again1
     RDKit          3D

 38 40  0  0  0  0  0  0  0  0999 V2000
  125.7860  124.1580   61.2000 C   0  0  0  0  0  0  0  0  0  0  0  0
  127.0650  123.7150   60.5030 C   0  0  0  0  0  0  0  0  0  0  0  0
  128.2240  123.4840   61.2430 C   0  0  0  0  0  0  0  0  0  0  0  0
  129.3970  123.0730   60.6010 C   0  0  0  0  0  0  0  0  0  0  0  0
  130.5750  122.8450   61.3210 N   0  0  0  0  0  0  0  0  0  0  0  0
  131.5350  123.9430   61.5490 C   0  0  0  0  0  0  0  0  0  0  0  0
  131.1910  124.7810   62.8030 C   0  0  0  0  0  0  0  0  0  0  0  0
  131.2360  123.8590   64.0370 N   0  0  0  0  0  0  0  0  0  0  0  0
  130.8840  124.6410   65.3180 C   0  0  0  0  0  0  0  0  0  0  0  0
  130.2480  122.6950   63.8200 C   0  0  0  0  0  0  0  0  0  0  0  0
  130.6260  121.9660   62.5090 C   0  0  0  0  0  0  0  0  0  0  0  0
  129.4470  122.9150   59.2490 N   0  0  0  0  0  0  0  0  0  0  0  0
  128.3310  123.1300   58.5010 C   0  0  0  0  0  0  0  0  0  0  0  0
  128.4150  122.9420   57.1010 C   0  0  0  0  0  0  0  0  0  0  0  0
  127.2960  123.1480   56.2980 C   0  0  0  0  0  0  0  0  0  0  0  0
  126.0860  123.5430   56.8600 C   0  0  0  0  0  0  0  0  0  0  0  0
  125.9730  123.7380   58.2340 C   0  0  0  0  0  0  0  0  0  0  0  0
  127.0930  123.5360   59.0870 C   0  0  0  0  0  0  0  0  0  0  0  0
  125.9266  124.1093   62.2899 H   0  0  0  0  0  0  0  0  0  0  0  0
  125.5476  125.1911   60.9069 H   0  0  0  0  0  0  0  0  0  0  0  0
  124.9597  123.4937   60.9069 H   0  0  0  0  0  0  0  0  0  0  0  0
  128.2160  123.6252   62.3339 H   0  0  0  0  0  0  0  0  0  0  0  0
  132.5391  123.5125   61.6772 H   0  0  0  0  0  0  0  0  0  0  0  0
  131.4897  124.6125   60.6773 H   0  0  0  0  0  0  0  0  0  0  0  0
  131.9247  125.5923   62.9194 H   0  0  0  0  0  0  0  0  0  0  0  0
  130.1881  125.2204   62.6982 H   0  0  0  0  0  0  0  0  0  0  0  0
  132.1680  123.4780   64.1190 H   0  0  0  0  0  0  0  0  0  0  0  0
  131.1540  124.0411   66.1996 H   0  0  0  0  0  0  0  0  0  0  0  0
  131.4424  125.5886   65.3342 H   0  0  0  0  0  0  0  0  0  0  0  0
  129.8044  124.8513   65.3342 H   0  0  0  0  0  0  0  0  0  0  0  0
  130.3098  121.9938   64.6652 H   0  0  0  0  0  0  0  0  0  0  0  0
  129.2203  123.0814   63.7527 H   0  0  0  0  0  0  0  0  0  0  0  0
  131.6482  121.5723   62.6096 H   0  0  0  0  0  0  0  0  0  0  0  0
  129.8890  121.1640   62.3555 H   0  0  0  0  0  0  0  0  0  0  0  0
  129.3671  122.6322   56.6456 H   0  0  0  0  0  0  0  0  0  0  0  0
  127.3693  122.9972   55.2108 H   0  0  0  0  0  0  0  0  0  0  0  0
  125.2108  123.7027   56.2130 H   0  0  0  0  0  0  0  0  0  0  0  0
  125.0097  124.0508   58.6632 H   0  0  0  0  0  0  0  0  0  0  0  0
  1  2  1  0
  2  3  2  0
  3  4  1  0
  4  5  1  0
  5  6  1  0
  6  7  1  0
  7  8  1  0
  8  9  1  0
  8 10  1  0
 10 11  1  0
  4 12  2  0
 12 13  1  0
 13 14  2  0
 14 15  1  0
 15 16  2  0
 16 17  1  0
 17 18  2  0
 18  2  1  0
 11  5  1  0
 18 13  1  0
  1 19  1  0
  1 20  1  0
  1 21  1  0
  3 22  1  0
  6 23  1  0
  6 24  1  0
  7 25  1  0
  7 26  1  0
  8 27  1  0
  9 28  1  0
  9 29  1  0
  9 30  1  0
 10 31  1  0
 10 32  1  0
 11 33  1  0
 11 34  1  0
 14 35  1  0
 15 36  1  0
 16 37  1  0
 17 38  1  0
M  CHG  1   8   1
M  END
>  <Binding energies>  (1) 
[-6.36]

>  <Ligand effiencies>  (1) 
[-0.33473684210526317]

>  <Interactions>  (1) 
["V-B:GLU:543:CB:9878, V-A:HIS:456:CE1:4068, V-B:GLU:543:CD:9880, H-A:TYR:484:OH:4346, V-A:TYR:484:CZ:4345, V-B:TYR:539:CZ:9849, V-B:TYR:539:CG:9844, V-B:TYR:539:CD1:9845, V-A:LEU:475:CD2:4257, V-B:PRO:540:CA:9855, V-B:TYR:539:C:9839, V-B:ALA:541:CB:9864, V-B:TYR:539:CD2:9846, V-B:TYR:539:CE1:9847, V-B:TYR:539:CE2:9848, V-B:PRO:540:N:9856, V-B:PRO:540:CB:9857, V-A:TYR:484:CE1:4343"]

$$$$
RR32_Rahimova_2017-again2
     RDKit          3D

 39 41  0  0  0  0  0  0  0  0999 V2000
  128.4080  123.1340   57.2450 C   0  0  0  0  0  0  0  0  0  0  0  0
  128.3940  123.2570   58.7630 C   0  0  0  0  0  0  0  0  0  0  0  0
  129.5670  123.0490   59.4950 C   0  0  0  0  0  0  0  0  0  0  0  0
  129.5740  123.1510   60.8920 C   0  0  0  0  0  0  0  0  0  0  0  0
  130.7580  122.9610   61.6910 N   0  0  0  0  0  0  0  0  0  0  0  0
  131.6890  124.0900   61.9540 C   0  0  0  0  0  0  0  0  0  0  0  0
  131.2150  124.9210   63.1770 C   0  0  0  0  0  0  0  0  0  0  0  0
  131.1480  124.0090   64.4260 N   0  0  0  0  0  0  0  0  0  0  0  0
  130.6260  124.7860   65.6490 C   0  0  0  0  0  0  0  0  0  0  0  0
  130.2650  122.7710   64.1370 C   0  0  0  0  0  0  0  0  0  0  0  0
  130.7920  122.0530   62.8660 C   0  0  0  0  0  0  0  0  0  0  0  0
  128.4150  123.4660   61.5070 N   0  0  0  0  0  0  0  0  0  0  0  0
  127.2150  123.6890   60.8720 C   0  0  0  0  0  0  0  0  0  0  0  0
  126.0570  124.0120   61.6140 C   0  0  0  0  0  0  0  0  0  0  0  0
  124.8600  124.2350   60.9380 C   0  0  0  0  0  0  0  0  0  0  0  0
  124.8010  124.1410   59.5490 C   0  0  0  0  0  0  0  0  0  0  0  0
  125.9370  123.8230   58.8040 C   0  0  0  0  0  0  0  0  0  0  0  0
  127.1840  123.5860   59.4500 C   0  0  0  0  0  0  0  0  0  0  0  0
  128.5283  122.0774   56.9638 H   0  0  0  0  0  0  0  0  0  0  0  0
  127.4605  123.5163   56.8374 H   0  0  0  0  0  0  0  0  0  0  0  0
  129.2453  123.7195   56.8374 H   0  0  0  0  0  0  0  0  0  0  0  0
  130.4989  122.8014   58.9655 H   0  0  0  0  0  0  0  0  0  0  0  0
  132.6932  123.6897   62.1572 H   0  0  0  0  0  0  0  0  0  0  0  0
  131.7096  124.7438   61.0696 H   0  0  0  0  0  0  0  0  0  0  0  0
  131.9244  125.7416   63.3598 H   0  0  0  0  0  0  0  0  0  0  0  0
  130.2174  125.3372   62.9730 H   0  0  0  0  0  0  0  0  0  0  0  0
  132.0850  123.6800   64.6180 H   0  0  0  0  0  0  0  0  0  0  0  0
  130.9610  124.2874   66.5705 H   0  0  0  0  0  0  0  0  0  0  0  0
  131.0176  125.8136   65.6250 H   0  0  0  0  0  0  0  0  0  0  0  0
  129.5266  124.8119   65.6250 H   0  0  0  0  0  0  0  0  0  0  0  0
  130.3069  122.0814   64.9930 H   0  0  0  0  0  0  0  0  0  0  0  0
  129.2242  123.0890   63.9768 H   0  0  0  0  0  0  0  0  0  0  0  0
  131.8283  121.7278   63.0398 H   0  0  0  0  0  0  0  0  0  0  0  0
  130.1467  121.1866   62.6591 H   0  0  0  0  0  0  0  0  0  0  0  0
  128.4320  123.5490   62.5120 H   0  0  0  0  0  0  0  0  0  0  0  0
  126.1002  124.0863   62.7106 H   0  0  0  0  0  0  0  0  0  0  0  0
  123.9525  124.4877   61.5060 H   0  0  0  0  0  0  0  0  0  0  0  0
  123.8461  124.3199   59.0330 H   0  0  0  0  0  0  0  0  0  0  0  0
  125.8689  123.7547   57.7082 H   0  0  0  0  0  0  0  0  0  0  0  0
  1  2  1  0
  2  3  2  0
  3  4  1  0
  4  5  1  0
  5  6  1  0
  6  7  1  0
  7  8  1  0
  8  9  1  0
  8 10  1  0
 10 11  1  0
  4 12  2  0
 12 13  1  0
 13 14  2  0
 14 15  1  0
 15 16  2  0
 16 17  1  0
 17 18  2  0
 18  2  1  0
 11  5  1  0
 18 13  1  0
  1 19  1  0
  1 20  1  0
  1 21  1  0
  3 22  1  0
  6 23  1  0
  6 24  1  0
  7 25  1  0
  7 26  1  0
  8 27  1  0
  9 28  1  0
  9 29  1  0
  9 30  1  0
 10 31  1  0
 10 32  1  0
 11 33  1  0
 11 34  1  0
 12 35  1  0
 14 36  1  0
 15 37  1  0
 16 38  1  0
 17 39  1  0
M  CHG  2   8   1  12   1
M  END
>  <Binding energies>  (1) 
[-7.4]

>  <Ligand effiencies>  (1) 
[-0.37]

>  <Interactions>  (1) 
["V-B:GLU:543:CB:9878, V-A:HIS:456:CE1:4068, V-B:GLU:543:CD:9880, V-B:GLU:543:CG:9879, H-A:TYR:484:OH:4346, V-A:TYR:484:CZ:4345, H-B:GLU:543:OE1:9881, V-B:TYR:539:CZ:9849, V-B:TYR:539:CG:9844, V-A:LEU:475:CD2:4257, V-B:PRO:540:CA:9855, V-B:TYR:539:C:9839, V-B:ALA:541:CB:9864, V-B:TYR:539:CD2:9846, V-B:TYR:539:CE2:9848, V-B:PRO:540:N:9856, V-B:PRO:540:CB:9857, V-B:ASP:366:CG:8185, V-B:ASN:362:CB:8148, V-A:TYR:484:CE1:4343"]

$$$$
RR33_Rahimova_2017
     RDKit          3D

 36 37  0  0  0  0  0  0  0  0999 V2000
  131.9580  124.9700   75.7210 C   0  0  0  0  0  0  0  0  0  0  0  0
  131.8870  126.4980   75.6490 C   0  0  0  0  0  0  0  0  0  0  0  0
  130.5730  126.8770   75.2470 O   0  0  0  0  0  0  0  0  0  0  0  0
  130.2650  126.9310   73.9010 C   0  0  0  0  0  0  0  0  0  0  0  0
  129.0950  127.6060   73.5570 C   0  0  0  0  0  0  0  0  0  0  0  0
  128.7020  127.7100   72.2260 C   0  0  0  0  0  0  0  0  0  0  0  0
  129.4770  127.1360   71.2140 C   0  0  0  0  0  0  0  0  0  0  0  0
  129.0530  127.2460   69.7850 C   0  0  0  0  0  0  0  0  0  0  0  0
  127.8980  127.6670   69.3200 N   0  0  0  0  0  0  0  0  0  0  0  0
  127.9990  127.5840   68.0030 C   0  0  0  0  0  0  0  0  0  0  0  0
  126.8530  128.0000   67.1070 C   0  0  0  0  0  0  0  0  0  0  0  0
  127.3410  128.7630   65.9680 N   0  0  0  0  0  0  0  0  0  0  0  0
  126.4240  129.8430   65.6420 C   0  0  0  0  0  0  0  0  0  0  0  0
  129.2550  127.0970   67.6610 C   0  0  0  0  0  0  0  0  0  0  0  0
  129.9710  126.7880   66.3690 C   0  0  0  0  0  0  0  0  0  0  0  0
  129.9300  126.8800   68.8130 O   0  0  0  0  0  0  0  0  0  0  0  0
  130.6540  126.4600   71.5540 C   0  0  0  0  0  0  0  0  0  0  0  0
  131.0470  126.3560   72.8860 C   0  0  0  0  0  0  0  0  0  0  0  0
  131.9727  124.6528   76.7742 H   0  0  0  0  0  0  0  0  0  0  0  0
  131.0790  124.5381   75.2203 H   0  0  0  0  0  0  0  0  0  0  0  0
  132.8733  124.6215   75.2203 H   0  0  0  0  0  0  0  0  0  0  0  0
  132.1092  126.9257   76.6378 H   0  0  0  0  0  0  0  0  0  0  0  0
  132.6234  126.8732   74.9231 H   0  0  0  0  0  0  0  0  0  0  0  0
  128.4765  128.0607   74.3449 H   0  0  0  0  0  0  0  0  0  0  0  0
  127.7768  128.2466   71.9690 H   0  0  0  0  0  0  0  0  0  0  0  0
  126.3341  127.1008   66.7435 H   0  0  0  0  0  0  0  0  0  0  0  0
  126.1628  128.6313   67.6859 H   0  0  0  0  0  0  0  0  0  0  0  0
  127.4240  128.1510   65.1680 H   0  0  0  0  0  0  0  0  0  0  0  0
  126.0422  130.2927   66.5705 H   0  0  0  0  0  0  0  0  0  0  0  0
  126.9526  130.6081   65.0544 H   0  0  0  0  0  0  0  0  0  0  0  0
  125.5833  129.4454   65.0544 H   0  0  0  0  0  0  0  0  0  0  0  0
  130.9602  126.3611   66.5910 H   0  0  0  0  0  0  0  0  0  0  0  0
  129.3815  126.0642   65.7871 H   0  0  0  0  0  0  0  0  0  0  0  0
  130.0932  127.7135   65.7871 H   0  0  0  0  0  0  0  0  0  0  0  0
  131.2725  126.0081   70.7646 H   0  0  0  0  0  0  0  0  0  0  0  0
  131.9732  125.8216   73.1440 H   0  0  0  0  0  0  0  0  0  0  0  0
  1  2  1  0
  2  3  1  0
  3  4  1  0
  4  5  2  0
  5  6  1  0
  6  7  2  0
  7  8  1  0
  8  9  2  0
  9 10  1  0
 10 11  1  0
 11 12  1  0
 12 13  1  0
 10 14  2  0
 14 15  1  0
 14 16  1  0
  7 17  1  0
 17 18  2  0
 18  4  1  0
 16  8  1  0
  1 19  1  0
  1 20  1  0
  1 21  1  0
  2 22  1  0
  2 23  1  0
  5 24  1  0
  6 25  1  0
 11 26  1  0
 11 27  1  0
 12 28  1  0
 13 29  1  0
 13 30  1  0
 13 31  1  0
 15 32  1  0
 15 33  1  0
 15 34  1  0
 17 35  1  0
 18 36  1  0
M  END
>  <Binding energies>  (1) 
[-5.47]

>  <Ligand effiencies>  (1) 
[-0.28789473684210526]

>  <Interactions>  (1) 
["V-B:GLU:543:CB:9878, V-A:HIS:456:CE1:4068, V-A:HIS:456:CD2:4066, V-B:GLU:543:CD:9880, V-A:GLU:543:CD:4906, V-B:HIS:456:CE1:9042, H-A:LYS:547:NZ:4949, V-A:GLY:544:C:4910, V-B:GLU:543:CG:9879, V-A:GLU:543:CG:4905, H-B:LYS:547:NZ:9923, V-A:LYS:547:CE:4948, V-A:HIS:456:CG:4064, V-B:LYS:547:CE:9922, V-A:LYS:547:CD:4947, V-A:LYS:471:CE:4218, V-B:TYR:484:CZ:9319, H-A:GLU:543:OE2:4908, H-A:GLU:543:OE1:4907, V-A:VAL:458:CG2:4085, H-B:GLU:543:OE2:9882, V-B:ARG:545:CG:9894"]

$$$$
RR33_Rahimova_2017-again1
     RDKit          3D

 37 38  0  0  0  0  0  0  0  0999 V2000
  131.2070  125.1500   56.2860 C   0  0  0  0  0  0  0  0  0  0  0  0
  132.7050  125.3560   56.5300 C   0  0  0  0  0  0  0  0  0  0  0  0
  133.1620  124.3630   57.4440 O   0  0  0  0  0  0  0  0  0  0  0  0
  132.9300  124.5280   58.7970 C   0  0  0  0  0  0  0  0  0  0  0  0
  133.8840  123.9920   59.6620 C   0  0  0  0  0  0  0  0  0  0  0  0
  133.7370  124.1090   61.0410 C   0  0  0  0  0  0  0  0  0  0  0  0
  132.6260  124.7680   61.5780 C   0  0  0  0  0  0  0  0  0  0  0  0
  132.4650  124.8970   63.0580 C   0  0  0  0  0  0  0  0  0  0  0  0
  131.3470  125.0560   63.7330 N   0  0  0  0  0  0  0  0  0  0  0  0
  131.7100  125.1160   65.0060 C   0  0  0  0  0  0  0  0  0  0  0  0
  130.6840  125.3110   66.1060 C   0  0  0  0  0  0  0  0  0  0  0  0
  130.4670  126.8170   66.3310 N   0  0  0  0  0  0  0  0  0  0  0  0
  130.0580  127.1700   67.7680 C   0  0  0  0  0  0  0  0  0  0  0  0
  133.0920  124.9980   65.1010 C   0  0  0  0  0  0  0  0  0  0  0  0
  134.0950  124.9950   66.2270 C   0  0  0  0  0  0  0  0  0  0  0  0
  133.5720  124.8540   63.8430 O   0  0  0  0  0  0  0  0  0  0  0  0
  131.6670  125.3070   60.7140 C   0  0  0  0  0  0  0  0  0  0  0  0
  131.8160  125.1900   59.3340 C   0  0  0  0  0  0  0  0  0  0  0  0
  130.6847  125.0782   57.2514 H   0  0  0  0  0  0  0  0  0  0  0  0
  130.8079  126.0017   55.7157 H   0  0  0  0  0  0  0  0  0  0  0  0
  131.0526  124.2222   55.7157 H   0  0  0  0  0  0  0  0  0  0  0  0
  133.2507  125.2628   55.5795 H   0  0  0  0  0  0  0  0  0  0  0  0
  132.8813  126.3582   56.9478 H   0  0  0  0  0  0  0  0  0  0  0  0
  134.7613  123.4716   59.2501 H   0  0  0  0  0  0  0  0  0  0  0  0
  134.4973  123.6816   61.7113 H   0  0  0  0  0  0  0  0  0  0  0  0
  129.7338  124.8421   65.8107 H   0  0  0  0  0  0  0  0  0  0  0  0
  131.0443  124.8457   67.0354 H   0  0  0  0  0  0  0  0  0  0  0  0
  131.3200  127.3060   66.1030 H   0  0  0  0  0  0  0  0  0  0  0  0
  129.7470  127.1360   65.6990 H   0  0  0  0  0  0  0  0  0  0  0  0
  130.6952  126.6200   68.4762 H   0  0  0  0  0  0  0  0  0  0  0  0
  130.1797  128.2514   67.9287 H   0  0  0  0  0  0  0  0  0  0  0  0
  129.0060  126.8915   67.9287 H   0  0  0  0  0  0  0  0  0  0  0  0
  133.5645  124.9966   67.1906 H   0  0  0  0  0  0  0  0  0  0  0  0
  134.7234  124.0950   66.1559 H   0  0  0  0  0  0  0  0  0  0  0  0
  134.7288  125.8913   66.1559 H   0  0  0  0  0  0  0  0  0  0  0  0
  130.7897  125.8265   61.1269 H   0  0  0  0  0  0  0  0  0  0  0  0
  131.0571  125.6184   58.6627 H   0  0  0  0  0  0  0  0  0  0  0  0
  1  2  1  0
  2  3  1  0
  3  4  1  0
  4  5  2  0
  5  6  1  0
  6  7  2  0
  7  8  1  0
  8  9  2  0
  9 10  1  0
 10 11  1  0
 11 12  1  0
 12 13  1  0
 10 14  2  0
 14 15  1  0
 14 16  1  0
  7 17  1  0
 17 18  2  0
 18  4  1  0
 16  8  1  0
  1 19  1  0
  1 20  1  0
  1 21  1  0
  2 22  1  0
  2 23  1  0
  5 24  1  0
  6 25  1  0
 11 26  1  0
 11 27  1  0
 12 28  1  0
 12 29  1  0
 13 30  1  0
 13 31  1  0
 13 32  1  0
 15 33  1  0
 15 34  1  0
 15 35  1  0
 17 36  1  0
 18 37  1  0
M  CHG  1  12   1
M  END
>  <Binding energies>  (1) 
[-6.32]

>  <Ligand effiencies>  (1) 
[-0.316]

>  <Interactions>  (1) 
["V-B:GLU:543:CB:9878, V-A:HIS:456:CE1:4068, V-B:GLU:543:CD:9880, V-A:GLU:543:CD:4906, V-B:GLU:543:CG:9879, V-A:GLU:543:CG:4905, H-A:GLY:454:N:4048, V-A:ARG:545:CZ:4924, V-A:ARG:545:CG:4920, H-A:TYR:484:OH:4346, V-A:ARG:545:CD:4921, V-A:TYR:484:CZ:4345, H-B:GLU:543:OE1:9881, H-A:ARG:545:NE:4922, V-B:TYR:539:CZ:9849, V-A:ILE:369:CD1:3237, V-A:ASP:366:CG:3211, V-A:GLY:454:CA:4047, V-B:TYR:539:CE2:9848, V-A:ILE:369:CG2:3235, V-A:ASP:366:CA:3208, V-A:ASP:366:CB:3210, H-A:GLU:543:OE2:4908, H-B:TYR:539:OH:9850, H-B:GLU:543:OE2:9882, V-A:TYR:531:CE1:4790"]

$$$$
RR3_Rahimova_2017
     RDKit          3D

 63 69  0  0  0  0  0  0  0  0999 V2000
  123.9390  131.5820   62.0470 C   0  0  0  0  0  0  0  0  0  0  0  0
  123.5160  130.3720   62.5870 C   0  0  0  0  0  0  0  0  0  0  0  0
  124.2410  129.7870   63.6210 C   0  0  0  0  0  0  0  0  0  0  0  0
  125.3950  130.4020   64.1290 C   0  0  0  0  0  0  0  0  0  0  0  0
  126.1740  129.7720   65.2420 C   0  0  0  0  0  0  0  0  0  0  0  0
  127.2880  130.4160   65.7960 C   0  0  0  0  0  0  0  0  0  0  0  0
  128.0140  129.8290   66.8280 C   0  0  0  0  0  0  0  0  0  0  0  0
  127.6450  128.5760   67.3260 C   0  0  0  0  0  0  0  0  0  0  0  0
  128.4240  127.9370   68.4330 C   0  0  0  0  0  0  0  0  0  0  0  0
  128.1230  128.2050   69.6980 N   0  0  0  0  0  0  0  0  0  0  0  0
  128.9280  127.4790   70.4370 C   0  0  0  0  0  0  0  0  0  0  0  0
  128.9440  127.4620   71.8970 C   0  0  0  0  0  0  0  0  0  0  0  0
  129.9960  127.0360   72.6900 C   0  0  0  0  0  0  0  0  0  0  0  0
  129.6710  127.1660   74.0160 N   0  0  0  0  0  0  0  0  0  0  0  0
  128.3980  127.6770   74.1390 C   0  0  0  0  0  0  0  0  0  0  0  0
  127.6420  127.9800   75.2760 C   0  0  0  0  0  0  0  0  0  0  0  0
  126.3620  128.4940   75.0660 C   0  0  0  0  0  0  0  0  0  0  0  0
  125.8530  128.6980   73.7880 C   0  0  0  0  0  0  0  0  0  0  0  0
  126.6070  128.3970   72.6550 C   0  0  0  0  0  0  0  0  0  0  0  0
  127.9050  127.8760   72.8100 C   0  0  0  0  0  0  0  0  0  0  0  0
  129.7690  126.7340   69.6570 N   0  0  0  0  0  0  0  0  0  0  0  0
  129.4870  127.0220   68.3460 C   0  0  0  0  0  0  0  0  0  0  0  0
  130.2510  126.4350   67.2050 C   0  0  0  0  0  0  0  0  0  0  0  0
  129.8540  125.2190   66.6470 C   0  0  0  0  0  0  0  0  0  0  0  0
  130.5710  124.6630   65.5920 C   0  0  0  0  0  0  0  0  0  0  0  0
  131.6990  125.3110   65.0670 C   0  0  0  0  0  0  0  0  0  0  0  0
  132.4790  124.7000   63.9460 C   0  0  0  0  0  0  0  0  0  0  0  0
  132.1330  123.4420   63.4300 C   0  0  0  0  0  0  0  0  0  0  0  0
  132.8570  122.8760   62.3830 C   0  0  0  0  0  0  0  0  0  0  0  0
  133.9370  123.5650   61.8400 C   0  0  0  0  0  0  0  0  0  0  0  0
  134.2970  124.8130   62.3360 C   0  0  0  0  0  0  0  0  0  0  0  0
  133.5730  125.3750   63.3830 C   0  0  0  0  0  0  0  0  0  0  0  0
  132.0780  126.5400   65.6250 C   0  0  0  0  0  0  0  0  0  0  0  0
  131.3630  127.0990   66.6800 C   0  0  0  0  0  0  0  0  0  0  0  0
  126.5280  127.9330   66.7900 C   0  0  0  0  0  0  0  0  0  0  0  0
  125.8040  128.5220   65.7570 C   0  0  0  0  0  0  0  0  0  0  0  0
  125.8030  131.6210   63.5680 C   0  0  0  0  0  0  0  0  0  0  0  0
  125.0800  132.2100   62.5340 C   0  0  0  0  0  0  0  0  0  0  0  0
  123.3672  132.0451   61.2294 H   0  0  0  0  0  0  0  0  0  0  0  0
  122.6124  129.8796   62.1985 H   0  0  0  0  0  0  0  0  0  0  0  0
  123.9046  128.8296   64.0456 H   0  0  0  0  0  0  0  0  0  0  0  0
  127.5932  131.3997   65.4097 H   0  0  0  0  0  0  0  0  0  0  0  0
  128.8822  130.3534   67.2538 H   0  0  0  0  0  0  0  0  0  0  0  0
  130.9537  126.6493   72.3113 H   0  0  0  0  0  0  0  0  0  0  0  0
  130.3070  126.9110   74.7570 H   0  0  0  0  0  0  0  0  0  0  0  0
  128.0385  127.8204   76.2896 H   0  0  0  0  0  0  0  0  0  0  0  0
  125.7376  128.7450   75.9361 H   0  0  0  0  0  0  0  0  0  0  0  0
  124.8376  129.1040   73.6692 H   0  0  0  0  0  0  0  0  0  0  0  0
  126.1918  128.5649   71.6503 H   0  0  0  0  0  0  0  0  0  0  0  0
  130.4880  126.1070   69.9870 H   0  0  0  0  0  0  0  0  0  0  0  0
  128.9701  124.6976   67.0431 H   0  0  0  0  0  0  0  0  0  0  0  0
  130.2489  123.7023   65.1639 H   0  0  0  0  0  0  0  0  0  0  0  0
  131.2793  122.8957   63.8576 H   0  0  0  0  0  0  0  0  0  0  0  0
  132.5761  121.8888   61.9873 H   0  0  0  0  0  0  0  0  0  0  0  0
  134.5096  123.1196   61.0131 H   0  0  0  0  0  0  0  0  0  0  0  0
  135.1509  125.3541   61.9024 H   0  0  0  0  0  0  0  0  0  0  0  0
  133.8620  126.3615   63.7746 H   0  0  0  0  0  0  0  0  0  0  0  0
  132.9537  127.0705   65.2229 H   0  0  0  0  0  0  0  0  0  0  0  0
  131.6740  128.0661   67.1018 H   0  0  0  0  0  0  0  0  0  0  0  0
  126.2179  126.9548   67.1863 H   0  0  0  0  0  0  0  0  0  0  0  0
  124.9305  127.9997   65.3397 H   0  0  0  0  0  0  0  0  0  0  0  0
  126.7066  132.1186   63.9501 H   0  0  0  0  0  0  0  0  0  0  0  0
  125.4099  133.1675   62.1045 H   0  0  0  0  0  0  0  0  0  0  0  0
  1  2  2  0
  2  3  1  0
  3  4  2  0
  4  5  1  0
  5  6  2  0
  6  7  1  0
  7  8  2  0
  8  9  1  0
  9 10  1  0
 10 11  2  0
 11 12  1  0
 12 13  2  0
 13 14  1  0
 14 15  1  0
 15 16  2  0
 16 17  1  0
 17 18  2  0
 18 19  1  0
 19 20  2  0
 11 21  1  0
 21 22  1  0
 22 23  1  0
 23 24  2  0
 24 25  1  0
 25 26  2  0
 26 27  1  0
 27 28  2  0
 28 29  1  0
 29 30  2  0
 30 31  1  0
 31 32  2  0
 26 33  1  0
 33 34  2  0
  8 35  1  0
 35 36  2  0
  4 37  1  0
 37 38  2  0
 38  1  1  0
 36  5  1  0
 22  9  2  0
 34 23  1  0
 20 12  1  0
 32 27  1  0
 20 15  1  0
  1 39  1  0
  2 40  1  0
  3 41  1  0
  6 42  1  0
  7 43  1  0
 13 44  1  0
 14 45  1  0
 16 46  1  0
 17 47  1  0
 18 48  1  0
 19 49  1  0
 21 50  1  0
 24 51  1  0
 25 52  1  0
 28 53  1  0
 29 54  1  0
 30 55  1  0
 31 56  1  0
 32 57  1  0
 33 58  1  0
 34 59  1  0
 35 60  1  0
 36 61  1  0
 37 62  1  0
 38 63  1  0
M  END
>  <Binding energies>  (1) 
[-5.89]

>  <Ligand effiencies>  (1) 
[-0.14725]

>  <Interactions>  (1) 
["V-B:ARG:545:CZ:9898, V-B:GLU:543:CB:9878, V-B:GLY:453:CA:9016, V-A:HIS:456:CE1:4068, V-A:HIS:456:CD2:4066, V-B:GLU:543:CD:9880, H-A:HIS:456:NE2:4069, V-A:GLU:543:CD:4906, V-B:HIS:456:CE1:9042, V-B:GLY:544:C:9884, H-B:GLU:543:O:9875, V-B:HIS:456:CD2:9040, V-A:GLU:543:CB:4904, V-B:GLY:453:C:9014, V-B:GLU:543:CG:9879, V-A:GLU:543:CG:4905, V-A:ARG:545:CZ:4924, V-A:ARG:545:CG:4920, V-A:LYS:547:CE:4948, V-A:ARG:545:CD:4921, V-A:TYR:484:CZ:4345, V-B:LYS:547:CE:9922, V-B:GLU:543:CA:9876, V-A:GLY:453:C:4040, V-A:ILE:369:CD1:3237, V-A:LEU:475:CD2:4257, V-A:GLY:453:CA:4042, V-A:GLY:454:CA:4047, V-B:LEU:475:CD2:9231, V-B:ILE:369:CD1:8211, V-B:TYR:484:CZ:9319, V-B:HIS:456:CG:9038, V-B:LYS:547:CD:9921, V-A:TYR:484:CE1:4343, V-B:ARG:545:CG:9894, V-B:ARG:545:CD:9895, V-B:TYR:484:CE1:9317, V-B:HIS:456:CB:9037, V-B:VAL:458:CG2:9059, V-A:GLU:543:CA:4902"]

$$$$
RR4_Rahimova_2017
     RDKit          3D

 66 70  0  0  0  0  0  0  0  0999 V2000
  124.2670  129.8040   66.6100 C   0  0  0  0  0  0  0  0  0  0  0  0
  124.1130  130.6140   65.4510 O   0  0  0  0  0  0  0  0  0  0  0  0
  124.6960  130.2110   64.2640 C   0  0  0  0  0  0  0  0  0  0  0  0
  125.9160  129.5460   64.3620 C   0  0  0  0  0  0  0  0  0  0  0  0
  126.5750  129.1020   63.2200 C   0  0  0  0  0  0  0  0  0  0  0  0
  126.0340  129.3140   61.9430 C   0  0  0  0  0  0  0  0  0  0  0  0
  126.7490  128.8350   60.7120 C   0  0  0  0  0  0  0  0  0  0  0  0
  127.7970  129.5470   60.1190 C   0  0  0  0  0  0  0  0  0  0  0  0
  128.4360  129.0560   58.9730 C   0  0  0  0  0  0  0  0  0  0  0  0
  129.5650  129.8570   58.4120 C   0  0  0  0  0  0  0  0  0  0  0  0
  129.3800  131.2060   58.0940 C   0  0  0  0  0  0  0  0  0  0  0  0
  130.4300  131.9620   57.5820 C   0  0  0  0  0  0  0  0  0  0  0  0
  131.6860  131.3890   57.3840 C   0  0  0  0  0  0  0  0  0  0  0  0
  132.6670  132.2160   56.8720 O   0  0  0  0  0  0  0  0  0  0  0  0
  133.9990  131.7250   56.7560 C   0  0  0  0  0  0  0  0  0  0  0  0
  131.8780  130.0370   57.7060 C   0  0  0  0  0  0  0  0  0  0  0  0
  130.8260  129.2820   58.2190 C   0  0  0  0  0  0  0  0  0  0  0  0
  127.9760  127.8380   58.4140 C   0  0  0  0  0  0  0  0  0  0  0  0
  128.6090  127.2780   57.2160 C   0  0  0  0  0  0  0  0  0  0  0  0
  129.1090  126.8370   56.2700 N   0  0  0  0  0  0  0  0  0  0  0  0
  126.8930  127.1860   59.0480 C   0  0  0  0  0  0  0  0  0  0  0  0
  126.1800  125.6580   58.4790 S   0  0  0  0  0  0  0  0  0  0  0  0
  125.8280  124.6290   59.9430 C   0  0  0  0  0  0  0  0  0  0  0  0
  127.0740  124.0740   60.6460 C   0  0  0  0  0  0  0  0  0  0  0  0
  126.9750  123.4900   61.7280 O   0  0  0  0  0  0  0  0  0  0  0  0
  128.2380  124.2960   59.9940 N   0  0  0  0  0  0  0  0  0  0  0  0
  129.5300  123.9180   60.3690 C   0  0  0  0  0  0  0  0  0  0  0  0
  130.1750  122.3250   60.0770 S   0  0  0  0  0  0  0  0  0  0  0  0
  131.6890  122.7400   60.8190 C   0  0  0  0  0  0  0  0  0  0  0  0
  131.6910  124.0660   61.2790 C   0  0  0  0  0  0  0  0  0  0  0  0
  130.4730  124.7360   61.0100 C   0  0  0  0  0  0  0  0  0  0  0  0
  130.2250  126.1290   61.3700 C   0  0  0  0  0  0  0  0  0  0  0  0
  130.0290  127.2330   61.6560 N   0  0  0  0  0  0  0  0  0  0  0  0
  132.9300  124.6840   61.9390 C   0  0  0  0  0  0  0  0  0  0  0  0
  134.1850  123.8310   61.6490 C   0  0  0  0  0  0  0  0  0  0  0  0
  133.9270  122.3290   61.8590 C   0  0  0  0  0  0  0  0  0  0  0  0
  132.8700  121.7800   60.8780 C   0  0  0  0  0  0  0  0  0  0  0  0
  126.3150  127.6670   60.1730 N   0  0  0  0  0  0  0  0  0  0  0  0
  124.8030  129.9830   61.8550 C   0  0  0  0  0  0  0  0  0  0  0  0
  124.1410  130.4280   62.9960 C   0  0  0  0  0  0  0  0  0  0  0  0
  124.1489  130.4254   67.5100 H   0  0  0  0  0  0  0  0  0  0  0  0
  123.5033  129.0123   66.6082 H   0  0  0  0  0  0  0  0  0  0  0  0
  125.2680  129.3478   66.6082 H   0  0  0  0  0  0  0  0  0  0  0  0
  126.3627  129.3702   65.3517 H   0  0  0  0  0  0  0  0  0  0  0  0
  127.5360  128.5761   63.3199 H   0  0  0  0  0  0  0  0  0  0  0  0
  128.1227  130.5021   60.5569 H   0  0  0  0  0  0  0  0  0  0  0  0
  128.3965  131.6734   58.2498 H   0  0  0  0  0  0  0  0  0  0  0  0
  130.2680  133.0207   57.3313 H   0  0  0  0  0  0  0  0  0  0  0  0
  134.4211  131.5694   57.7598 H   0  0  0  0  0  0  0  0  0  0  0  0
  133.9916  130.7705   56.2093 H   0  0  0  0  0  0  0  0  0  0  0  0
  134.6129  132.4559   56.2093 H   0  0  0  0  0  0  0  0  0  0  0  0
  132.8629  129.5716   57.5528 H   0  0  0  0  0  0  0  0  0  0  0  0
  130.9879  128.2244   58.4747 H   0  0  0  0  0  0  0  0  0  0  0  0
  125.2693  125.2408   60.6666 H   0  0  0  0  0  0  0  0  0  0  0  0
  125.2582  123.7593   59.5840 H   0  0  0  0  0  0  0  0  0  0  0  0
  128.1770  124.7880   59.1140 H   0  0  0  0  0  0  0  0  0  0  0  0
  133.0829  125.6983   61.5417 H   0  0  0  0  0  0  0  0  0  0  0  0
  132.7705  124.7206   63.0268 H   0  0  0  0  0  0  0  0  0  0  0  0
  134.4919  123.9954   60.6055 H   0  0  0  0  0  0  0  0  0  0  0  0
  134.9734  124.1400   62.3511 H   0  0  0  0  0  0  0  0  0  0  0  0
  134.8695  121.7824   61.7076 H   0  0  0  0  0  0  0  0  0  0  0  0
  133.5455  122.1900   62.8813 H   0  0  0  0  0  0  0  0  0  0  0  0
  133.3142  121.6824   59.8764 H   0  0  0  0  0  0  0  0  0  0  0  0
  132.5255  120.7938   61.2225 H   0  0  0  0  0  0  0  0  0  0  0  0
  124.3533  130.1588   60.8666 H   0  0  0  0  0  0  0  0  0  0  0  0
  123.1785  130.9520   62.9016 H   0  0  0  0  0  0  0  0  0  0  0  0
  1  2  1  0
  2  3  1  0
  3  4  2  0
  4  5  1  0
  5  6  2  0
  6  7  1  0
  7  8  2  0
  8  9  1  0
  9 10  1  0
 10 11  2  0
 11 12  1  0
 12 13  2  0
 13 14  1  0
 14 15  1  0
 13 16  1  0
 16 17  2  0
  9 18  2  0
 18 19  1  0
 19 20  3  0
 18 21  1  0
 21 22  1  0
 22 23  1  0
 23 24  1  0
 24 25  2  0
 24 26  1  0
 26 27  1  0
 27 28  1  0
 28 29  1  0
 29 30  2  0
 30 31  1  0
 31 32  1  0
 32 33  3  0
 30 34  1  0
 34 35  1  0
 35 36  1  0
 36 37  1  0
 21 38  2  0
  6 39  1  0
 39 40  2  0
 40  3  1  0
 38  7  1  0
 17 10  1  0
 31 27  2  0
 37 29  1  0
  1 41  1  0
  1 42  1  0
  1 43  1  0
  4 44  1  0
  5 45  1  0
  8 46  1  0
 11 47  1  0
 12 48  1  0
 15 49  1  0
 15 50  1  0
 15 51  1  0
 16 52  1  0
 17 53  1  0
 23 54  1  0
 23 55  1  0
 26 56  1  0
 34 57  1  0
 34 58  1  0
 35 59  1  0
 35 60  1  0
 36 61  1  0
 36 62  1  0
 37 63  1  0
 37 64  1  0
 39 65  1  0
 40 66  1  0
M  END
>  <Binding energies>  (1) 
[-7.95]

>  <Ligand effiencies>  (1) 
[-0.19390243902439025]

>  <Interactions>  (1) 
["V-B:ARG:545:CZ:9898, V-B:GLY:453:CA:9016, H-B:TYR:484:OH:9320, H-B:GLY:454:N:9022, V-B:HIS:456:CE1:9042, V-A:GLY:453:C:4040, V-A:ILE:369:CD1:3237, V-A:LEU:475:CD2:4257, V-B:PRO:540:CA:9855, V-A:GLY:453:CA:4042, V-A:ASP:366:CG:3211, V-A:GLY:454:CA:4047, V-B:TYR:539:CD2:9846, V-B:TYR:539:CE2:9848, V-A:PRO:540:CG:4884, V-A:PRO:540:CA:4881, V-A:PRO:540:N:4882, V-B:ASP:366:CG:8185, H-B:ARG:545:NH2:9900, H-B:ALA:541:N:9863, V-A:PRO:540:CB:4883, V-A:PRO:540:CD:4885, V-A:TYR:539:C:4865, V-A:TYR:531:CE2:4791, V-A:LEU:363:CA:3183, H-B:TYR:531:OH:9767, H-A:ARG:545:NH2:4926, V-B:TYR:484:CZ:9319, V-B:ARG:545:CG:9894, V-B:ARG:545:CD:9895, V-A:LEU:363:CD1:3187, V-A:LEU:363:CB:3185, V-A:LEU:363:CG:3186"]

$$$$
RR5_Rahimova_2017
     RDKit          3D

 77 82  0  0  0  0  0  0  0  0999 V2000
  132.9090  123.3900   61.9310 O   0  0  0  0  0  0  0  0  0  0  0  0
  131.9970  124.1930   62.1200 C   0  0  0  0  0  0  0  0  0  0  0  0
  132.0650  125.1570   63.3190 C   0  0  0  0  0  0  0  0  0  0  0  0
  130.6690  125.4750   63.9640 C   0  0  2  0  0  0  0  0  0  0  0  0
  129.8630  126.4800   63.2430 N   0  0  0  0  0  0  0  0  0  0  0  0
  130.3310  127.0970   62.0900 C   0  0  0  0  0  0  0  0  0  0  0  0
  131.3980  126.8690   61.5150 O   0  0  0  0  0  0  0  0  0  0  0  0
  129.4240  128.0090   61.7000 O   0  0  0  0  0  0  0  0  0  0  0  0
  128.0790  127.9670   62.1670 C   0  0  0  0  0  0  0  0  0  0  0  0
  127.5860  129.3810   62.5460 C   0  0  0  0  0  0  0  0  0  0  0  0
  126.5860  129.9610   61.5620 C   0  0  0  0  0  0  0  0  0  0  0  0
  126.7220  130.1940   60.1900 C   0  0  0  0  0  0  0  0  0  0  0  0
  125.6510  130.7220   59.4650 C   0  0  0  0  0  0  0  0  0  0  0  0
  124.4480  131.0180   60.1080 C   0  0  0  0  0  0  0  0  0  0  0  0
  124.3110  130.7890   61.4780 C   0  0  0  0  0  0  0  0  0  0  0  0
  125.3830  130.2620   62.2010 C   0  0  0  0  0  0  0  0  0  0  0  0
  125.5190  129.9330   63.6280 C   0  0  0  0  0  0  0  0  0  0  0  0
  124.6200  130.0570   64.6900 C   0  0  0  0  0  0  0  0  0  0  0  0
  125.0160  129.6860   65.9760 C   0  0  0  0  0  0  0  0  0  0  0  0
  126.3030  129.1910   66.1980 C   0  0  0  0  0  0  0  0  0  0  0  0
  127.1960  129.0650   65.1340 C   0  0  0  0  0  0  0  0  0  0  0  0
  126.8040  129.4320   63.8450 C   0  0  0  0  0  0  0  0  0  0  0  0
  130.8310  125.9010   65.4440 C   0  0  0  0  0  0  0  0  0  0  0  0
  130.0200  125.6790   66.3210 O   0  0  0  0  0  0  0  0  0  0  0  0
  132.0260  126.5420   65.6100 O   0  0  0  0  0  0  0  0  0  0  0  0
  130.9140  124.3330   61.3220 N   0  0  0  0  0  0  0  0  0  0  0  0
  130.4530  123.6350   60.0850 C   0  0  0  0  0  0  0  0  0  0  0  0
  128.9270  123.9870   60.0600 C   0  0  0  0  0  0  0  0  0  0  0  0
  128.1030  123.6010   58.9900 C   0  0  0  0  0  0  0  0  0  0  0  0
  126.7470  123.9180   58.9800 C   0  0  0  0  0  0  0  0  0  0  0  0
  126.1950  124.6370   60.0350 C   0  0  0  0  0  0  0  0  0  0  0  0
  126.9870  125.0300   61.1070 C   0  0  0  0  0  0  0  0  0  0  0  0
  128.3390  124.7040   61.1220 C   0  0  0  0  0  0  0  0  0  0  0  0
  131.2330  124.2580   58.8790 C   0  0  0  0  0  0  0  0  0  0  0  0
  132.6250  124.1200   58.7500 C   0  0  0  0  0  0  0  0  0  0  0  0
  133.3010  124.6990   57.6790 C   0  0  0  0  0  0  0  0  0  0  0  0
  132.5960  125.4250   56.7250 C   0  0  0  0  0  0  0  0  0  0  0  0
  131.2170  125.5720   56.8280 C   0  0  0  0  0  0  0  0  0  0  0  0
  130.5410  124.9850   57.8940 C   0  0  0  0  0  0  0  0  0  0  0  0
  130.7220  122.1110   60.3190 C   0  0  0  0  0  0  0  0  0  0  0  0
  131.9980  121.5590   60.1040 C   0  0  0  0  0  0  0  0  0  0  0  0
  132.2410  120.2030   60.3030 C   0  0  0  0  0  0  0  0  0  0  0  0
  131.2110  119.3720   60.7290 C   0  0  0  0  0  0  0  0  0  0  0  0
  129.9430  119.8900   60.9630 C   0  0  0  0  0  0  0  0  0  0  0  0
  129.7040  121.2470   60.7630 C   0  0  0  0  0  0  0  0  0  0  0  0
  132.7071  124.7055   64.0896 H   0  0  0  0  0  0  0  0  0  0  0  0
  132.4639  126.1091   62.9391 H   0  0  0  0  0  0  0  0  0  0  0  0
  130.1083  124.5313   63.8931 H   0  0  0  0  0  0  0  0  0  0  0  0
  129.0370  126.8440   63.6940 H   0  0  0  0  0  0  0  0  0  0  0  0
  127.4343  127.5608   61.3737 H   0  0  0  0  0  0  0  0  0  0  0  0
  128.0357  127.3270   63.0606 H   0  0  0  0  0  0  0  0  0  0  0  0
  128.5350  129.9357   62.5874 H   0  0  0  0  0  0  0  0  0  0  0  0
  127.6701  129.9621   59.6827 H   0  0  0  0  0  0  0  0  0  0  0  0
  125.7559  130.9048   58.3854 H   0  0  0  0  0  0  0  0  0  0  0  0
  123.6063  131.4326   59.5339 H   0  0  0  0  0  0  0  0  0  0  0  0
  123.3634  131.0225   61.9855 H   0  0  0  0  0  0  0  0  0  0  0  0
  123.6058  130.4448   64.5138 H   0  0  0  0  0  0  0  0  0  0  0  0
  124.3130  129.7837   66.8164 H   0  0  0  0  0  0  0  0  0  0  0  0
  126.6126  128.9003   67.2127 H   0  0  0  0  0  0  0  0  0  0  0  0
  128.2098  128.6763   65.3104 H   0  0  0  0  0  0  0  0  0  0  0  0
  132.1120  127.3040   65.0340 H   0  0  0  0  0  0  0  0  0  0  0  0
  130.2180  124.9710   61.6800 H   0  0  0  0  0  0  0  0  0  0  0  0
  128.5349  123.0403   58.1479 H   0  0  0  0  0  0  0  0  0  0  0  0
  126.1133  123.6002   58.1389 H   0  0  0  0  0  0  0  0  0  0  0  0
  125.1260  124.8958   60.0206 H   0  0  0  0  0  0  0  0  0  0  0  0
  126.5464  125.5967   61.9405 H   0  0  0  0  0  0  0  0  0  0  0  0
  128.9598  125.0107   61.9767 H   0  0  0  0  0  0  0  0  0  0  0  0
  133.1871  123.5484   59.5032 H   0  0  0  0  0  0  0  0  0  0  0  0
  134.3910  124.5823   57.5877 H   0  0  0  0  0  0  0  0  0  0  0  0
  133.1330  125.8862   55.8830 H   0  0  0  0  0  0  0  0  0  0  0  0
  130.6638  126.1485   56.0719 H   0  0  0  0  0  0  0  0  0  0  0  0
  129.4486  125.0915   57.9670 H   0  0  0  0  0  0  0  0  0  0  0  0
  132.8192  122.2114   59.7723 H   0  0  0  0  0  0  0  0  0  0  0  0
  133.2447  119.7902   60.1238 H   0  0  0  0  0  0  0  0  0  0  0  0
  131.4007  118.2993   60.8815 H   0  0  0  0  0  0  0  0  0  0  0  0
  129.1315  119.2307   61.3048 H   0  0  0  0  0  0  0  0  0  0  0  0
  128.6995  121.6517   60.9559 H   0  0  0  0  0  0  0  0  0  0  0  0
  1  2  2  0
  2  3  1  0
  3  4  1  0
  4  5  1  0
  5  6  1  0
  6  7  2  0
  6  8  1  0
  8  9  1  0
  9 10  1  0
 10 11  1  0
 11 12  2  0
 12 13  1  0
 13 14  2  0
 14 15  1  0
 15 16  2  0
 16 17  1  0
 17 18  2  0
 18 19  1  0
 19 20  2  0
 20 21  1  0
 21 22  2  0
  4 23  1  0
 23 24  2  0
 23 25  1  0
  2 26  1  0
 26 27  1  0
 27 28  1  0
 28 29  2  0
 29 30  1  0
 30 31  2  0
 31 32  1  0
 32 33  2  0
 27 34  1  0
 34 35  2  0
 35 36  1  0
 36 37  2  0
 37 38  1  0
 38 39  2  0
 27 40  1  0
 40 41  2  0
 41 42  1  0
 42 43  2  0
 43 44  1  0
 44 45  2  0
 22 10  1  0
 33 28  1  0
 39 34  1  0
 45 40  1  0
 16 11  1  0
 22 17  1  0
  3 46  1  0
  3 47  1  0
  4 48  1  1
  5 49  1  0
  9 50  1  0
  9 51  1  0
 10 52  1  0
 12 53  1  0
 13 54  1  0
 14 55  1  0
 15 56  1  0
 18 57  1  0
 19 58  1  0
 20 59  1  0
 21 60  1  0
 25 61  1  0
 26 62  1  0
 29 63  1  0
 30 64  1  0
 31 65  1  0
 32 66  1  0
 33 67  1  0
 35 68  1  0
 36 69  1  0
 37 70  1  0
 38 71  1  0
 39 72  1  0
 41 73  1  0
 42 74  1  0
 43 75  1  0
 44 76  1  0
 45 77  1  0
M  END
>  <Binding energies>  (1) 
[-9.41]

>  <Ligand effiencies>  (1) 
[-0.19604166666666667]

>  <Interactions>  (1) 
["V-B:ARG:545:CZ:9898, V-A:HIS:456:CE1:4068, V-B:GLU:543:CD:9880, V-A:GLU:543:CD:4906, V-B:HIS:456:CE1:9042, V-A:ARG:545:CZ:4924, H-B:GLU:543:OE1:9881, H-A:ARG:545:NE:4922, V-B:TYR:539:CZ:9849, V-A:TRP:381:CZ2:3368, V-A:LEU:475:CD2:4257, V-A:TRP:381:CH2:3370, V-B:PRO:540:CA:9855, V-A:ASP:366:CG:3211, V-B:ALA:541:CB:9864, V-B:TYR:539:CD2:9846, V-B:TYR:539:CE2:9848, V-A:ASP:366:CA:3208, V-A:ASP:366:CB:3210, V-A:ASP:366:C:3206, V-B:ASP:366:CG:8185, V-A:TYR:539:CE2:4874, H-A:ARG:545:NH2:4926, V-A:TRP:381:CZ3:3369, V-A:PRO:482:CG:4325, V-B:TYR:484:CZ:9319, V-A:PRO:482:CB:4324, H-A:GLU:543:OE2:4908, H-B:GLU:543:OE2:9882, V-A:TYR:531:CE1:4790, V-B:ARG:545:CG:9894, V-B:ARG:545:CD:9895"]

$$$$
RR5_Rahimova_2017-again1
     RDKit          3D

 76 81  0  0  0  0  0  0  0  0999 V2000
  131.4680  122.1910   62.7470 O   0  0  0  0  0  0  0  0  0  0  0  0
  130.7460  123.1620   62.9720 C   0  0  0  0  0  0  0  0  0  0  0  0
  130.7630  123.7910   64.3800 C   0  0  0  0  0  0  0  0  0  0  0  0
  131.6440  125.0700   64.5670 C   0  0  2  0  0  0  0  0  0  0  0  0
  131.1190  126.1490   63.7040 N   0  0  0  0  0  0  0  0  0  0  0  0
  131.4040  126.2010   62.3440 C   0  0  0  0  0  0  0  0  0  0  0  0
  132.1130  125.4120   61.7120 O   0  0  0  0  0  0  0  0  0  0  0  0
  130.7760  127.2660   61.8110 O   0  0  0  0  0  0  0  0  0  0  0  0
  129.3910  127.4920   62.0480 C   0  0  0  0  0  0  0  0  0  0  0  0
  128.9040  128.7020   61.2290 C   0  0  0  0  0  0  0  0  0  0  0  0
  130.0330  129.5650   60.6930 C   0  0  0  0  0  0  0  0  0  0  0  0
  131.0340  130.2540   61.3830 C   0  0  0  0  0  0  0  0  0  0  0  0
  131.9920  130.9830   60.6760 C   0  0  0  0  0  0  0  0  0  0  0  0
  131.9490  131.0290   59.2810 C   0  0  0  0  0  0  0  0  0  0  0  0
  130.9480  130.3470   58.5890 C   0  0  0  0  0  0  0  0  0  0  0  0
  129.9910  129.6180   59.2980 C   0  0  0  0  0  0  0  0  0  0  0  0
  128.8390  128.8280   58.8370 C   0  0  0  0  0  0  0  0  0  0  0  0
  128.3560  128.5730   57.5520 C   0  0  0  0  0  0  0  0  0  0  0  0
  127.2130  127.7880   57.3870 C   0  0  0  0  0  0  0  0  0  0  0  0
  126.5590  127.2600   58.5020 C   0  0  0  0  0  0  0  0  0  0  0  0
  127.0460  127.5150   59.7850 C   0  0  0  0  0  0  0  0  0  0  0  0
  128.1910  128.2990   59.9540 C   0  0  0  0  0  0  0  0  0  0  0  0
  133.1740  124.7830   64.2870 C   0  0  0  0  0  0  0  0  0  0  0  0
  133.9580  125.3130   65.1090 O   0  0  0  0  0  0  0  0  0  0  0  0
  133.4410  124.0380   63.3130 O   0  0  0  0  0  0  0  0  0  0  0  0
  130.0310  123.7820   62.0090 N   0  0  0  0  0  0  0  0  0  0  0  0
  129.8490  123.4150   60.5810 C   0  0  0  0  0  0  0  0  0  0  0  0
  128.3600  123.6230   60.1590 C   0  0  0  0  0  0  0  0  0  0  0  0
  127.4150  124.1290   61.0690 C   0  0  0  0  0  0  0  0  0  0  0  0
  126.0900  124.3280   60.6920 C   0  0  0  0  0  0  0  0  0  0  0  0
  125.6910  124.0270   59.3940 C   0  0  0  0  0  0  0  0  0  0  0  0
  126.6060  123.5290   58.4720 C   0  0  0  0  0  0  0  0  0  0  0  0
  127.9310  123.3300   58.8510 C   0  0  0  0  0  0  0  0  0  0  0  0
  130.6460  124.2910   59.5620 C   0  0  0  0  0  0  0  0  0  0  0  0
  130.0840  125.4620   59.0230 C   0  0  0  0  0  0  0  0  0  0  0  0
  130.7910  126.2440   58.1140 C   0  0  0  0  0  0  0  0  0  0  0  0
  132.0760  125.8690   57.7340 C   0  0  0  0  0  0  0  0  0  0  0  0
  132.6590  124.7210   58.2620 C   0  0  0  0  0  0  0  0  0  0  0  0
  131.9490  123.9410   59.1700 C   0  0  0  0  0  0  0  0  0  0  0  0
  130.2320  121.8960   60.5230 C   0  0  0  0  0  0  0  0  0  0  0  0
  131.5490  121.4750   60.2710 C   0  0  0  0  0  0  0  0  0  0  0  0
  131.8770  120.1230   60.2410 C   0  0  0  0  0  0  0  0  0  0  0  0
  130.8930  119.1690   60.4770 C   0  0  0  0  0  0  0  0  0  0  0  0
  129.5860  119.5580   60.7520 C   0  0  0  0  0  0  0  0  0  0  0  0
  129.2610  120.9110   60.7800 C   0  0  0  0  0  0  0  0  0  0  0  0
  129.7277  124.0586   64.6381 H   0  0  0  0  0  0  0  0  0  0  0  0
  131.2165  123.0295   65.0315 H   0  0  0  0  0  0  0  0  0  0  0  0
  131.5856  125.3910   65.6175 H   0  0  0  0  0  0  0  0  0  0  0  0
  130.4850  126.8250   64.1060 H   0  0  0  0  0  0  0  0  0  0  0  0
  128.8209  126.5991   61.7519 H   0  0  0  0  0  0  0  0  0  0  0  0
  129.2377  127.6964   63.1179 H   0  0  0  0  0  0  0  0  0  0  0  0
  128.2623  129.2286   61.9507 H   0  0  0  0  0  0  0  0  0  0  0  0
  131.0671  130.2220   62.4820 H   0  0  0  0  0  0  0  0  0  0  0  0
  132.7823  131.5222   61.2189 H   0  0  0  0  0  0  0  0  0  0  0  0
  132.7056  131.6039   58.7269 H   0  0  0  0  0  0  0  0  0  0  0  0
  130.9127  130.3833   57.4902 H   0  0  0  0  0  0  0  0  0  0  0  0
  128.8731  128.9882   56.6744 H   0  0  0  0  0  0  0  0  0  0  0  0
  126.8272  127.5852   56.3770 H   0  0  0  0  0  0  0  0  0  0  0  0
  125.6587  126.6422   58.3691 H   0  0  0  0  0  0  0  0  0  0  0  0
  126.5292  127.0993   60.6625 H   0  0  0  0  0  0  0  0  0  0  0  0
  129.4260  124.5280   62.3190 H   0  0  0  0  0  0  0  0  0  0  0  0
  127.7279  124.3715   62.0953 H   0  0  0  0  0  0  0  0  0  0  0  0
  125.3621  124.7213   61.4169 H   0  0  0  0  0  0  0  0  0  0  0  0
  124.6443  124.1839   59.0943 H   0  0  0  0  0  0  0  0  0  0  0  0
  126.2838  123.2932   57.4470 H   0  0  0  0  0  0  0  0  0  0  0  0
  128.6521  122.9386   58.1183 H   0  0  0  0  0  0  0  0  0  0  0  0
  129.0703  125.7646   59.3243 H   0  0  0  0  0  0  0  0  0  0  0  0
  130.3357  127.1547   57.6978 H   0  0  0  0  0  0  0  0  0  0  0  0
  132.6341  126.4834   57.0122 H   0  0  0  0  0  0  0  0  0  0  0  0
  133.6771  124.4312   57.9628 H   0  0  0  0  0  0  0  0  0  0  0  0
  132.4153  123.0363   59.5873 H   0  0  0  0  0  0  0  0  0  0  0  0
  132.3330  122.2262   60.0947 H   0  0  0  0  0  0  0  0  0  0  0  0
  132.9105  119.8101   60.0314 H   0  0  0  0  0  0  0  0  0  0  0  0
  131.1499  118.0999   60.4460 H   0  0  0  0  0  0  0  0  0  0  0  0
  128.8131  118.7999   60.9464 H   0  0  0  0  0  0  0  0  0  0  0  0
  128.2284  121.2150   61.0067 H   0  0  0  0  0  0  0  0  0  0  0  0
  1  2  2  0
  2  3  1  0
  3  4  1  0
  4  5  1  0
  5  6  1  0
  6  7  2  0
  6  8  1  0
  8  9  1  0
  9 10  1  0
 10 11  1  0
 11 12  2  0
 12 13  1  0
 13 14  2  0
 14 15  1  0
 15 16  2  0
 16 17  1  0
 17 18  2  0
 18 19  1  0
 19 20  2  0
 20 21  1  0
 21 22  2  0
  4 23  1  0
 23 24  2  0
 23 25  1  0
  2 26  1  0
 26 27  1  0
 27 28  1  0
 28 29  2  0
 29 30  1  0
 30 31  2  0
 31 32  1  0
 32 33  2  0
 27 34  1  0
 34 35  2  0
 35 36  1  0
 36 37  2  0
 37 38  1  0
 38 39  2  0
 27 40  1  0
 40 41  2  0
 41 42  1  0
 42 43  2  0
 43 44  1  0
 44 45  2  0
 22 10  1  0
 33 28  1  0
 39 34  1  0
 45 40  1  0
 16 11  1  0
 22 17  1  0
  3 46  1  0
  3 47  1  0
  4 48  1  1
  5 49  1  0
  9 50  1  0
  9 51  1  0
 10 52  1  0
 12 53  1  0
 13 54  1  0
 14 55  1  0
 15 56  1  0
 18 57  1  0
 19 58  1  0
 20 59  1  0
 21 60  1  0
 26 61  1  0
 29 62  1  0
 30 63  1  0
 31 64  1  0
 32 65  1  0
 33 66  1  0
 35 67  1  0
 36 68  1  0
 37 69  1  0
 38 70  1  0
 39 71  1  0
 41 72  1  0
 42 73  1  0
 43 74  1  0
 44 75  1  0
 45 76  1  0
M  CHG  1  25  -1
M  END
>  <Binding energies>  (1) 
[-8.92]

>  <Ligand effiencies>  (1) 
[-0.18978723404255318]

>  <Interactions>  (1) 
["V-B:GLU:543:CB:9878, V-B:GLU:543:CD:9880, V-A:GLU:543:CD:4906, H-A:GLY:454:N:4048, V-A:ARG:545:CZ:4924, H-A:TYR:484:OH:4346, V-A:TYR:484:CZ:4345, H-B:GLU:543:OE1:9881, H-A:ARG:545:NE:4922, V-B:PRO:540:C:9853, V-A:TRP:381:CZ2:3368, V-A:LEU:475:CD2:4257, V-A:TRP:381:CH2:3370, V-B:PRO:540:CA:9855, V-B:TYR:539:C:9839, V-B:ALA:541:CA:9862, V-A:ASP:366:CG:3211, V-B:ALA:541:CB:9864, V-B:TYR:539:CD2:9846, V-B:TYR:539:CE2:9848, V-B:PRO:540:N:9856, V-B:PRO:540:CB:9857, V-A:ASP:366:CB:3210, V-A:PRO:540:CA:4881, V-B:ASP:366:CG:8185, V-A:PRO:540:CB:4883, H-A:ARG:545:NH2:4926, V-A:TRP:381:CZ3:3369, V-A:TRP:381:CE2:3365, V-A:PRO:482:CG:4325, V-A:PRO:482:CB:4324, H-A:GLU:543:OE2:4908, V-A:TYR:484:CE1:4343, H-B:GLU:543:OE2:9882"]

$$$$
RR6_Rahimova_2017
     RDKit          3D

 63 66  0  0  0  0  0  0  0  0999 V2000
  131.2170  124.8590   64.4360 C   0  0  0  0  0  0  0  0  0  0  0  0
  131.6460  124.5460   63.1180 O   0  0  0  0  0  0  0  0  0  0  0  0
  131.3640  123.3420   62.5580 C   0  0  0  0  0  0  0  0  0  0  0  0
  132.0940  122.3520   62.6700 O   0  0  0  0  0  0  0  0  0  0  0  0
  130.0740  123.3330   61.7890 C   0  0  0  0  0  0  0  0  0  0  0  0
  129.5650  122.1630   61.2060 C   0  0  0  0  0  0  0  0  0  0  0  0
  128.3690  122.1890   60.4920 C   0  0  0  0  0  0  0  0  0  0  0  0
  127.6620  123.3920   60.3460 C   0  0  0  0  0  0  0  0  0  0  0  0
  126.4630  123.5350   59.6240 N   0  0  0  0  0  0  0  0  0  0  0  0
  125.2390  123.9040   60.0610 C   0  0  0  0  0  0  0  0  0  0  0  0
  124.9550  124.2010   61.2220 O   0  0  0  0  0  0  0  0  0  0  0  0
  124.1250  123.8790   59.0090 C   0  0  0  0  0  0  0  0  0  0  0  0
  124.6300  124.5500   57.3900 S   0  0  0  0  0  0  0  0  0  0  0  0
  126.0750  125.5500   57.6770 C   0  0  0  0  0  0  0  0  0  0  0  0
  125.8080  126.8020   58.1220 N   0  0  0  0  0  0  0  0  0  0  0  0
  126.8300  127.6490   58.4040 C   0  0  0  0  0  0  0  0  0  0  0  0
  126.4500  128.9940   58.9490 C   0  0  0  0  0  0  0  0  0  0  0  0
  125.3800  129.7200   58.4020 C   0  0  0  0  0  0  0  0  0  0  0  0
  125.0360  130.9740   58.8990 C   0  0  0  0  0  0  0  0  0  0  0  0
  125.7540  131.5250   59.9590 C   0  0  0  0  0  0  0  0  0  0  0  0
  125.3820  132.8960   60.4920 C   0  0  0  0  0  0  0  0  0  0  0  0
  126.8180  130.8200   60.5180 C   0  0  0  0  0  0  0  0  0  0  0  0
  127.1570  129.5670   60.0180 C   0  0  0  0  0  0  0  0  0  0  0  0
  128.1580  127.2490   58.2290 C   0  0  0  0  0  0  0  0  0  0  0  0
  128.4610  125.9610   57.7660 C   0  0  0  0  0  0  0  0  0  0  0  0
  129.9010  125.5940   57.6210 C   0  0  0  0  0  0  0  0  0  0  0  0
  130.5030  124.7300   58.5410 C   0  0  0  0  0  0  0  0  0  0  0  0
  131.8410  124.3700   58.4030 C   0  0  0  0  0  0  0  0  0  0  0  0
  132.6010  124.8610   57.3430 C   0  0  0  0  0  0  0  0  0  0  0  0
  133.9180  124.4490   57.2850 O   0  0  0  0  0  0  0  0  0  0  0  0
  134.5150  123.8680   58.4400 C   0  0  0  0  0  0  0  0  0  0  0  0
  132.0000  125.7240   56.4130 C   0  0  0  0  0  0  0  0  0  0  0  0
  130.6620  126.0810   56.5540 C   0  0  0  0  0  0  0  0  0  0  0  0
  127.3890  125.0820   57.4740 C   0  0  0  0  0  0  0  0  0  0  0  0
  127.6340  123.7310   56.9590 C   0  0  0  0  0  0  0  0  0  0  0  0
  127.8280  122.6640   56.5550 N   0  0  0  0  0  0  0  0  0  0  0  0
  128.1570  124.5530   60.9390 C   0  0  0  0  0  0  0  0  0  0  0  0
  129.3540  124.5260   61.6500 C   0  0  0  0  0  0  0  0  0  0  0  0
  131.8834  124.3728   65.1637 H   0  0  0  0  0  0  0  0  0  0  0  0
  131.2471  125.9488   64.5823 H   0  0  0  0  0  0  0  0  0  0  0  0
  130.1884  124.4977   64.5823 H   0  0  0  0  0  0  0  0  0  0  0  0
  130.1151  121.2165   61.3136 H   0  0  0  0  0  0  0  0  0  0  0  0
  127.9782  121.2645   60.0418 H   0  0  0  0  0  0  0  0  0  0  0  0
  126.5200  123.2380   58.6610 H   0  0  0  0  0  0  0  0  0  0  0  0
  123.8040  122.8364   58.8679 H   0  0  0  0  0  0  0  0  0  0  0  0
  123.3142  124.5208   59.3841 H   0  0  0  0  0  0  0  0  0  0  0  0
  124.8048  129.2914   57.5681 H   0  0  0  0  0  0  0  0  0  0  0  0
  124.1973  131.5302   58.4550 H   0  0  0  0  0  0  0  0  0  0  0  0
  125.3875  132.8757   61.5918 H   0  0  0  0  0  0  0  0  0  0  0  0
  126.1112  133.6383   60.1353 H   0  0  0  0  0  0  0  0  0  0  0  0
  124.3776  133.1679   60.1353 H   0  0  0  0  0  0  0  0  0  0  0  0
  127.3885  131.2533   61.3527 H   0  0  0  0  0  0  0  0  0  0  0  0
  127.9948  129.0147   60.4687 H   0  0  0  0  0  0  0  0  0  0  0  0
  128.9731  127.9517   58.4568 H   0  0  0  0  0  0  0  0  0  0  0  0
  129.9147  124.3314   59.3807 H   0  0  0  0  0  0  0  0  0  0  0  0
  132.3020  123.6924   59.1367 H   0  0  0  0  0  0  0  0  0  0  0  0
  134.0659  124.3050   59.3441 H   0  0  0  0  0  0  0  0  0  0  0  0
  134.3437  122.7814   58.4341 H   0  0  0  0  0  0  0  0  0  0  0  0
  135.5965  124.0687   58.4341 H   0  0  0  0  0  0  0  0  0  0  0  0
  132.5877  126.1189   55.5711 H   0  0  0  0  0  0  0  0  0  0  0  0
  130.1982  126.7538   55.8177 H   0  0  0  0  0  0  0  0  0  0  0  0
  127.5985  125.4959   60.8445 H   0  0  0  0  0  0  0  0  0  0  0  0
  129.7375  125.4503   62.1067 H   0  0  0  0  0  0  0  0  0  0  0  0
  1  2  1  0
  2  3  1  0
  3  4  2  0
  3  5  1  0
  5  6  2  0
  6  7  1  0
  7  8  2  0
  8  9  1  0
  9 10  1  0
 10 11  2  0
 10 12  1  0
 12 13  1  0
 13 14  1  0
 14 15  2  0
 15 16  1  0
 16 17  1  0
 17 18  2  0
 18 19  1  0
 19 20  2  0
 20 21  1  0
 20 22  1  0
 22 23  2  0
 16 24  2  0
 24 25  1  0
 25 26  1  0
 26 27  2  0
 27 28  1  0
 28 29  2  0
 29 30  1  0
 30 31  1  0
 29 32  1  0
 32 33  2  0
 25 34  2  0
 34 35  1  0
 35 36  3  0
  8 37  1  0
 37 38  2  0
 38  5  1  0
 34 14  1  0
 23 17  1  0
 33 26  1  0
  1 39  1  0
  1 40  1  0
  1 41  1  0
  6 42  1  0
  7 43  1  0
  9 44  1  0
 12 45  1  0
 12 46  1  0
 18 47  1  0
 19 48  1  0
 21 49  1  0
 21 50  1  0
 21 51  1  0
 22 52  1  0
 23 53  1  0
 24 54  1  0
 27 55  1  0
 28 56  1  0
 31 57  1  0
 31 58  1  0
 31 59  1  0
 32 60  1  0
 33 61  1  0
 37 62  1  0
 38 63  1  0
M  END
>  <Binding energies>  (1) 
[-7.04]

>  <Ligand effiencies>  (1) 
[-0.18051282051282053]

>  <Interactions>  (1) 
["V-B:GLU:543:CD:9880, H-A:TYR:484:OH:4346, V-B:TYR:539:CZ:9849, V-B:PRO:540:C:9853, V-A:ILE:369:CD1:3237, V-B:PRO:540:CA:9855, V-B:TYR:539:C:9839, V-B:ALA:541:CA:9862, V-A:ASP:366:CG:3211, V-B:ALA:541:CB:9864, V-B:TYR:539:CE2:9848, V-A:ILE:369:CG2:3235, V-B:PRO:540:N:9856, V-B:PRO:540:CB:9857, V-A:ASP:366:CA:3208, V-A:ASP:366:CB:3210, V-A:ASP:366:C:3206, V-A:ILE:369:CG1:3236, V-A:ILE:369:CB:3234, V-B:ASP:366:CG:8185, V-A:TYR:531:CZ:4792, H-B:ARG:545:NH2:9900, V-A:TYR:539:CE2:4874, V-B:LEU:363:CA:8157, V-B:ASP:366:CB:8184, H-B:TYR:531:OH:9767, V-A:TYR:539:CD2:4872, V-A:TYR:539:CZ:4875, H-B:TYR:539:OH:9850, V-A:TYR:531:CE1:4790, H-B:TYR:539:N:9842, H-B:TYR:539:O:9840"]

$$$$
RR7_Rahimova_2017
     RDKit          3D

 80 86  0  0  0  0  0  0  0  0999 V2000
  133.1680  131.4370   61.7530 C   0  0  0  0  0  0  0  0  0  0  0  0
  131.7680  131.6960   61.7440 O   0  0  0  0  0  0  0  0  0  0  0  0
  130.9350  130.8640   61.0200 C   0  0  0  0  0  0  0  0  0  0  0  0
  131.5310  130.1130   60.0090 C   0  0  0  0  0  0  0  0  0  0  0  0
  130.7730  129.2430   59.2310 C   0  0  0  0  0  0  0  0  0  0  0  0
  129.3920  129.1130   59.4390 C   0  0  0  0  0  0  0  0  0  0  0  0
  128.5230  128.1210   58.6040 C   0  0  0  0  0  0  0  0  0  0  0  0
  129.4310  127.4410   57.7080 O   0  0  0  0  0  0  0  0  0  0  0  0
  129.7650  126.0670   57.9340 C   0  0  0  0  0  0  0  0  0  0  0  0
  131.2600  125.9660   58.2790 C   0  0  1  0  0  0  0  0  0  0  0  0
  131.4130  126.4770   59.6010 O   0  0  0  0  0  0  0  0  0  0  0  0
  131.9650  125.5290   60.4680 C   0  0  1  0  0  0  0  0  0  0  0  0
  131.4320  125.7050   61.8060 N   0  0  0  0  0  0  0  0  0  0  0  0
  130.2090  126.2390   62.1720 C   0  0  0  0  0  0  0  0  0  0  0  0
  129.9990  126.3250   63.4630 N   0  0  0  0  0  0  0  0  0  0  0  0
  131.1630  125.8650   64.0150 C   0  0  0  0  0  0  0  0  0  0  0  0
  131.5790  125.7170   65.3520 C   0  0  0  0  0  0  0  0  0  0  0  0
  130.6860  126.0750   66.3800 N   0  0  0  0  0  0  0  0  0  0  0  0
  130.7540  127.1130   67.2460 C   0  0  0  0  0  0  0  0  0  0  0  0
  131.6730  127.9360   67.2730 O   0  0  0  0  0  0  0  0  0  0  0  0
  129.6210  127.2090   68.2460 C   0  0  0  0  0  0  0  0  0  0  0  0
  128.2950  127.2440   67.7890 C   0  0  0  0  0  0  0  0  0  0  0  0
  127.2380  127.3260   68.6910 C   0  0  0  0  0  0  0  0  0  0  0  0
  127.4980  127.3690   70.0570 C   0  0  0  0  0  0  0  0  0  0  0  0
  128.8060  127.3310   70.5300 C   0  0  0  0  0  0  0  0  0  0  0  0
  129.8650  127.2500   69.6290 C   0  0  0  0  0  0  0  0  0  0  0  0
  132.8320  125.2370   65.6130 N   0  0  0  0  0  0  0  0  0  0  0  0
  133.6240  124.9240   64.5550 C   0  0  0  0  0  0  0  0  0  0  0  0
  133.3250  125.0240   63.2320 N   0  0  0  0  0  0  0  0  0  0  0  0
  132.0890  125.4890   63.0070 C   0  0  0  0  0  0  0  0  0  0  0  0
  131.6640  124.1780   59.8290 C   0  0  0  0  0  0  0  0  0  0  0  0
  131.8120  124.5350   58.3600 C   0  0  2  0  0  0  0  0  0  0  0  0
  133.1580  124.4490   57.9240 O   0  0  0  0  0  0  0  0  0  0  0  0
  127.8560  127.0330   59.4860 C   0  0  0  0  0  0  0  0  0  0  0  0
  127.8280  127.1730   60.8830 C   0  0  0  0  0  0  0  0  0  0  0  0
  127.2460  126.1970   61.6850 C   0  0  0  0  0  0  0  0  0  0  0  0
  126.6840  125.0670   61.0970 C   0  0  0  0  0  0  0  0  0  0  0  0
  126.7010  124.9070   59.7150 C   0  0  0  0  0  0  0  0  0  0  0  0
  127.2860  125.8840   58.9130 C   0  0  0  0  0  0  0  0  0  0  0  0
  127.3670  128.7600   57.7830 C   0  0  0  0  0  0  0  0  0  0  0  0
  126.0890  128.1780   57.7850 C   0  0  0  0  0  0  0  0  0  0  0  0
  125.0510  128.7370   57.0460 C   0  0  0  0  0  0  0  0  0  0  0  0
  125.2820  129.8820   56.2890 C   0  0  0  0  0  0  0  0  0  0  0  0
  126.5440  130.4680   56.2630 C   0  0  0  0  0  0  0  0  0  0  0  0
  127.5810  129.9080   57.0020 C   0  0  0  0  0  0  0  0  0  0  0  0
  128.8000  129.8600   60.4680 C   0  0  0  0  0  0  0  0  0  0  0  0
  129.5580  130.7300   61.2470 C   0  0  0  0  0  0  0  0  0  0  0  0
  133.5221  131.3715   62.7924 H   0  0  0  0  0  0  0  0  0  0  0  0
  133.3684  130.4865   61.2368 H   0  0  0  0  0  0  0  0  0  0  0  0
  133.6952  132.2529   61.2368 H   0  0  0  0  0  0  0  0  0  0  0  0
  132.6111  130.2087   59.8240 H   0  0  0  0  0  0  0  0  0  0  0  0
  131.2625  128.6505   58.4440 H   0  0  0  0  0  0  0  0  0  0  0  0
  129.1663  125.6744   58.7691 H   0  0  0  0  0  0  0  0  0  0  0  0
  129.5516  125.4788   57.0293 H   0  0  0  0  0  0  0  0  0  0  0  0
  131.7941  126.5022   57.4807 H   0  0  0  0  0  0  0  0  0  0  0  0
  133.0525  125.6275   60.6007 H   0  0  0  0  0  0  0  0  0  0  0  0
  129.4652  126.5682   61.4315 H   0  0  0  0  0  0  0  0  0  0  0  0
  129.8900  125.4600   66.4750 H   0  0  0  0  0  0  0  0  0  0  0  0
  128.0890  127.2063   66.7091 H   0  0  0  0  0  0  0  0  0  0  0  0
  126.2011  127.3567   68.3251 H   0  0  0  0  0  0  0  0  0  0  0  0
  126.6623  127.4336   70.7693 H   0  0  0  0  0  0  0  0  0  0  0  0
  129.0030  127.3648   71.6117 H   0  0  0  0  0  0  0  0  0  0  0  0
  130.8991  127.2179   70.0026 H   0  0  0  0  0  0  0  0  0  0  0  0
  134.6275  124.5441   64.7972 H   0  0  0  0  0  0  0  0  0  0  0  0
  132.3901  123.4112   60.1368 H   0  0  0  0  0  0  0  0  0  0  0  0
  130.6902  123.7456   60.1024 H   0  0  0  0  0  0  0  0  0  0  0  0
  131.2741  123.8407   57.6977 H   0  0  0  0  0  0  0  0  0  0  0  0
  133.6970  125.0160   58.4820 H   0  0  0  0  0  0  0  0  0  0  0  0
  128.2717  128.0653   61.3486 H   0  0  0  0  0  0  0  0  0  0  0  0
  127.2298  126.3173   62.7783 H   0  0  0  0  0  0  0  0  0  0  0  0
  126.2229  124.2946   61.7301 H   0  0  0  0  0  0  0  0  0  0  0  0
  126.2540  124.0121   59.2574 H   0  0  0  0  0  0  0  0  0  0  0  0
  127.3018  125.7547   57.8207 H   0  0  0  0  0  0  0  0  0  0  0  0
  125.9064  127.2695   58.3777 H   0  0  0  0  0  0  0  0  0  0  0  0
  124.0523  128.2761   57.0600 H   0  0  0  0  0  0  0  0  0  0  0  0
  124.4612  130.3268   55.7072 H   0  0  0  0  0  0  0  0  0  0  0  0
  126.7209  131.3709   55.6601 H   0  0  0  0  0  0  0  0  0  0  0  0
  128.5793  130.3690   56.9746 H   0  0  0  0  0  0  0  0  0  0  0  0
  127.7222  129.7571   60.6621 H   0  0  0  0  0  0  0  0  0  0  0  0
  129.0746  131.3145   62.0437 H   0  0  0  0  0  0  0  0  0  0  0  0
  1  2  1  0
  2  3  1  0
  3  4  2  0
  4  5  1  0
  5  6  2  0
  6  7  1  0
  7  8  1  0
  8  9  1  0
  9 10  1  0
 10 11  1  0
 11 12  1  0
 12 13  1  0
 13 14  1  0
 14 15  2  0
 15 16  1  0
 16 17  2  0
 17 18  1  0
 18 19  1  0
 19 20  2  0
 19 21  1  0
 21 22  2  0
 22 23  1  0
 23 24  2  0
 24 25  1  0
 25 26  2  0
 17 27  1  0
 27 28  2  0
 28 29  1  0
 29 30  2  0
 12 31  1  0
 31 32  1  0
 32 33  1  0
  7 34  1  0
 34 35  2  0
 35 36  1  0
 36 37  2  0
 37 38  1  0
 38 39  2  0
  7 40  1  0
 40 41  2  0
 41 42  1  0
 42 43  2  0
 43 44  1  0
 44 45  2  0
  6 46  1  0
 46 47  2  0
 47  3  1  0
 32 10  1  0
 39 34  1  0
 45 40  1  0
 30 13  1  0
 30 16  1  0
 26 21  1  0
  1 48  1  0
  1 49  1  0
  1 50  1  0
  4 51  1  0
  5 52  1  0
  9 53  1  0
  9 54  1  0
 10 55  1  6
 12 56  1  1
 14 57  1  0
 18 58  1  0
 22 59  1  0
 23 60  1  0
 24 61  1  0
 25 62  1  0
 26 63  1  0
 28 64  1  0
 31 65  1  0
 31 66  1  0
 32 67  1  6
 33 68  1  0
 35 69  1  0
 36 70  1  0
 37 71  1  0
 38 72  1  0
 39 73  1  0
 41 74  1  0
 42 75  1  0
 43 76  1  0
 44 77  1  0
 45 78  1  0
 46 79  1  0
 47 80  1  0
M  END
>  <Binding energies>  (1) 
[-7.82]

>  <Ligand effiencies>  (1) 
[-0.15959183673469388]

>  <Interactions>  (1) 
["V-B:GLU:543:CB:9878, V-A:HIS:456:CE1:4068, V-B:GLU:543:CD:9880, H-A:HIS:456:NE2:4069, V-A:GLU:543:CD:4906, V-B:HIS:456:CE1:9042, V-B:GLY:544:C:9884, H-B:GLU:543:O:9875, V-B:HIS:456:CD2:9040, V-B:GLU:543:CG:9879, V-A:GLU:543:CG:4905, H-A:GLY:454:N:4048, V-B:GLU:543:C:9874, V-A:ARG:545:CZ:4924, V-A:ARG:545:CG:4920, H-A:TYR:484:OH:4346, V-A:ARG:545:CD:4921, H-A:ARG:545:NH1:4925, H-B:GLU:543:OE1:9881, V-B:GLY:544:CA:9886, H-A:ARG:545:NE:4922, V-B:TYR:539:CZ:9849, V-A:GLY:453:C:4040, V-A:GLY:453:CA:4042, V-A:ASP:366:CG:3211, V-A:GLY:454:CA:4047, V-B:TYR:539:CE2:9848, V-A:ASN:362:CB:3174, V-A:PRO:540:CA:4881, V-B:ASP:366:CG:8185, V-A:PRO:540:CB:4883, V-A:TYR:539:CE2:4874, H-A:ALA:541:N:4889, V-B:ASP:366:CB:8184, H-A:ARG:545:NH2:4926, V-A:TYR:539:CE1:4873, V-A:TYR:539:CZ:4875, H-B:TYR:539:OH:9850, H-B:GLU:543:OE2:9882, V-B:ARG:545:CG:9894, V-B:TYR:531:CZ:9766, H-A:ASP:366:O:3207, H-A:ASP:366:OD2:3213, H-A:ASP:366:OD1:3212, H-A:ARG:545:N:4918, V-B:TYR:531:CE1:9764, V-A:ASN:362:CG:3175"]

$$$$
RR8_A_Rahimova_2017
     RDKit          3D

 73 77  0  0  0  0  0  0  0  0999 V2000
  127.8530  128.5510   56.9470 O   0  0  0  0  0  0  0  0  0  0  0  0
  128.4850  128.0760   57.8970 C   0  0  0  0  0  0  0  0  0  0  0  0
  128.3540  126.7890   58.3460 O   0  0  0  0  0  0  0  0  0  0  0  0
  129.2470  125.8340   57.8440 C   0  0  1  0  0  0  0  0  0  0  0  0
  130.5770  126.2250   58.0260 O   0  0  0  0  0  0  0  0  0  0  0  0
  131.4120  125.1220   58.3670 C   0  0  2  0  0  0  0  0  0  0  0  0
  132.5670  125.0490   57.3530 C   0  0  0  0  0  0  0  0  0  0  0  0
  133.3310  123.8790   57.6120 O   0  0  0  0  0  0  0  0  0  0  0  0
  134.3360  124.0530   58.6020 C   0  0  0  0  0  0  0  0  0  0  0  0
  133.9300  123.3350   59.8800 C   0  0  0  0  0  0  0  0  0  0  0  0
  133.5050  122.0050   59.8280 C   0  0  0  0  0  0  0  0  0  0  0  0
  133.1390  121.3430   60.9980 C   0  0  0  0  0  0  0  0  0  0  0  0
  133.2030  122.0120   62.2180 C   0  0  0  0  0  0  0  0  0  0  0  0
  133.6310  123.3370   62.2800 C   0  0  0  0  0  0  0  0  0  0  0  0
  133.9990  123.9980   61.1110 C   0  0  0  0  0  0  0  0  0  0  0  0
  130.4530  123.9240   58.3640 C   0  0  1  0  0  0  0  0  0  0  0  0
  130.7200  122.9890   59.4070 O   0  0  0  0  0  0  0  0  0  0  0  0
  129.7070  122.8650   60.3990 C   0  0  0  0  0  0  0  0  0  0  0  0
  130.1780  123.4920   61.7040 C   0  0  0  0  0  0  0  0  0  0  0  0
  130.2180  122.7200   62.8690 C   0  0  0  0  0  0  0  0  0  0  0  0
  130.6380  123.2880   64.0680 C   0  0  0  0  0  0  0  0  0  0  0  0
  131.0160  124.6290   64.1010 C   0  0  0  0  0  0  0  0  0  0  0  0
  130.9730  125.4070   62.9470 C   0  0  0  0  0  0  0  0  0  0  0  0
  130.5510  124.8400   61.7480 C   0  0  0  0  0  0  0  0  0  0  0  0
  129.1040  124.5550   58.6570 C   0  0  2  0  0  0  0  0  0  0  0  0
  128.0470  123.7080   58.2120 O   0  0  0  0  0  0  0  0  0  0  0  0
  126.7640  124.3170   58.1280 C   0  0  0  0  0  0  0  0  0  0  0  0
  126.0220  124.1470   59.4450 C   0  0  0  0  0  0  0  0  0  0  0  0
  126.7270  124.1350   60.6530 C   0  0  0  0  0  0  0  0  0  0  0  0
  126.0430  123.9890   61.8570 C   0  0  0  0  0  0  0  0  0  0  0  0
  124.6560  123.8590   61.8520 C   0  0  0  0  0  0  0  0  0  0  0  0
  123.9460  123.8760   60.6540 C   0  0  0  0  0  0  0  0  0  0  0  0
  124.6300  124.0230   59.4480 C   0  0  0  0  0  0  0  0  0  0  0  0
  129.4970  128.8620   58.6790 C   0  0  0  0  0  0  0  0  0  0  0  0
  130.3020  129.8420   58.0770 C   0  0  0  0  0  0  0  0  0  0  0  0
  131.2330  130.5530   58.8290 C   0  0  0  0  0  0  0  0  0  0  0  0
  131.3850  130.3030   60.1990 C   0  0  0  0  0  0  0  0  0  0  0  0
  132.3750  131.0630   61.0000 N   0  0  0  0  0  0  0  0  0  0  0  0
  131.9850  131.6870   61.9820 O   0  0  0  0  0  0  0  0  0  0  0  0
  133.5530  131.0410   60.6530 O   0  0  0  0  0  0  0  0  0  0  0  0
  130.5830  129.3240   60.7980 C   0  0  0  0  0  0  0  0  0  0  0  0
  129.6520  128.6120   60.0490 C   0  0  0  0  0  0  0  0  0  0  0  0
  129.0175  125.7073   56.7757 H   0  0  0  0  0  0  0  0  0  0  0  0
  131.9121  125.1806   59.3450 H   0  0  0  0  0  0  0  0  0  0  0  0
  132.1602  125.0063   56.3319 H   0  0  0  0  0  0  0  0  0  0  0  0
  133.2046  125.9403   57.4482 H   0  0  0  0  0  0  0  0  0  0  0  0
  135.2859  123.6367   58.2352 H   0  0  0  0  0  0  0  0  0  0  0  0
  134.4578  125.1260   58.8112 H   0  0  0  0  0  0  0  0  0  0  0  0
  133.4593  121.4801   58.8624 H   0  0  0  0  0  0  0  0  0  0  0  0
  132.8011  120.2969   60.9585 H   0  0  0  0  0  0  0  0  0  0  0  0
  132.9129  121.4895   63.1415 H   0  0  0  0  0  0  0  0  0  0  0  0
  133.6778  123.8580   63.2477 H   0  0  0  0  0  0  0  0  0  0  0  0
  134.3441  125.0416   61.1548 H   0  0  0  0  0  0  0  0  0  0  0  0
  130.5313  123.3709   57.4164 H   0  0  0  0  0  0  0  0  0  0  0  0
  128.7963  123.3779   60.0561 H   0  0  0  0  0  0  0  0  0  0  0  0
  129.4936  121.7990   60.5665 H   0  0  0  0  0  0  0  0  0  0  0  0
  129.9171  121.6624   62.8378 H   0  0  0  0  0  0  0  0  0  0  0  0
  130.6715  122.6816   64.9851 H   0  0  0  0  0  0  0  0  0  0  0  0
  131.3516  125.0772   65.0479 H   0  0  0  0  0  0  0  0  0  0  0  0
  131.2713  126.4652   62.9828 H   0  0  0  0  0  0  0  0  0  0  0  0
  130.5107  125.4517   60.8347 H   0  0  0  0  0  0  0  0  0  0  0  0
  128.8583  124.7277   59.7152 H   0  0  0  0  0  0  0  0  0  0  0  0
  126.8827  125.3891   57.9122 H   0  0  0  0  0  0  0  0  0  0  0  0
  126.1876  123.8369   57.3234 H   0  0  0  0  0  0  0  0  0  0  0  0
  127.8219  124.2409   60.6518 H   0  0  0  0  0  0  0  0  0  0  0  0
  126.5955  123.9764   62.8081 H   0  0  0  0  0  0  0  0  0  0  0  0
  124.1164  123.7418   62.8034 H   0  0  0  0  0  0  0  0  0  0  0  0
  122.8508  123.7739   60.6592 H   0  0  0  0  0  0  0  0  0  0  0  0
  124.0741  124.0414   58.4990 H   0  0  0  0  0  0  0  0  0  0  0  0
  130.1962  130.0498   57.0020 H   0  0  0  0  0  0  0  0  0  0  0  0
  131.8554  131.3186   58.3427 H   0  0  0  0  0  0  0  0  0  0  0  0
  130.6904  129.1157   61.8727 H   0  0  0  0  0  0  0  0  0  0  0  0
  129.0317  127.8456   60.5367 H   0  0  0  0  0  0  0  0  0  0  0  0
  1  2  2  0
  2  3  1  0
  3  4  1  0
  4  5  1  0
  5  6  1  0
  6  7  1  0
  7  8  1  0
  8  9  1  0
  9 10  1  0
 10 11  2  0
 11 12  1  0
 12 13  2  0
 13 14  1  0
 14 15  2  0
  6 16  1  0
 16 17  1  0
 17 18  1  0
 18 19  1  0
 19 20  2  0
 20 21  1  0
 21 22  2  0
 22 23  1  0
 23 24  2  0
 16 25  1  0
 25 26  1  0
 26 27  1  0
 27 28  1  0
 28 29  2  0
 29 30  1  0
 30 31  2  0
 31 32  1  0
 32 33  2  0
  2 34  1  0
 34 35  2  0
 35 36  1  0
 36 37  2  0
 37 38  1  0
 38 39  2  0
 38 40  1  0
 37 41  1  0
 41 42  2  0
 25  4  1  0
 33 28  1  0
 42 34  1  0
 15 10  1  0
 24 19  1  0
  4 43  1  6
  6 44  1  1
  7 45  1  0
  7 46  1  0
  9 47  1  0
  9 48  1  0
 11 49  1  0
 12 50  1  0
 13 51  1  0
 14 52  1  0
 15 53  1  0
 16 54  1  6
 18 55  1  0
 18 56  1  0
 20 57  1  0
 21 58  1  0
 22 59  1  0
 23 60  1  0
 24 61  1  0
 25 62  1  1
 27 63  1  0
 27 64  1  0
 29 65  1  0
 30 66  1  0
 31 67  1  0
 32 68  1  0
 33 69  1  0
 35 70  1  0
 36 71  1  0
 41 72  1  0
 42 73  1  0
M  CHG  2  38   1  40  -1
M  END
>  <Binding energies>  (1) 
[-8.26]

>  <Ligand effiencies>  (1) 
[-0.19666666666666666]

>  <Interactions>  (1) 
["V-B:ARG:545:CZ:9898, V-B:GLU:543:CB:9878, V-B:GLU:543:CD:9880, V-A:TYR:484:CZ:4345, V-B:TYR:539:CZ:9849, V-A:GLY:453:C:4040, V-A:ILE:369:CD1:3237, V-A:LEU:475:CD2:4257, V-B:PRO:540:CA:9855, V-A:ASP:366:CG:3211, V-A:GLY:454:CA:4047, V-B:ALA:541:CB:9864, V-B:TYR:539:CD2:9846, V-B:TYR:539:CE2:9848, V-A:ILE:369:CG2:3235, V-B:PRO:540:CB:9857, V-A:ASP:366:CA:3208, V-A:ASP:366:CB:3210, V-A:ASP:366:C:3206, V-A:ILE:369:CB:3234, V-A:PRO:540:CA:4881, V-A:PRO:540:CB:4883, V-B:ASN:362:C:8144, V-B:ASN:362:CB:8148, H-A:ALA:541:N:4889, H-A:ARG:545:NH2:4926, H-B:TYR:539:OH:9850, V-A:TYR:484:CE1:4343"]

$$$$
RR8_B_Rahimova_2017
     RDKit          3D

 73 77  0  0  0  0  0  0  0  0999 V2000
  130.9790  126.6210   56.3180 O   0  0  0  0  0  0  0  0  0  0  0  0
  130.5600  126.6910   57.4780 C   0  0  0  0  0  0  0  0  0  0  0  0
  129.8740  125.6930   58.1130 O   0  0  0  0  0  0  0  0  0  0  0  0
  130.4370  124.4040   58.1270 C   0  0  2  0  0  0  0  0  0  0  0  0
  129.5790  123.4540   57.5600 O   0  0  0  0  0  0  0  0  0  0  0  0
  128.7440  122.8510   58.5480 C   0  0  2  0  0  0  0  0  0  0  0  0
  127.2670  123.0770   58.1790 C   0  0  0  0  0  0  0  0  0  0  0  0
  127.1240  124.3630   57.5890 O   0  0  0  0  0  0  0  0  0  0  0  0
  126.0620  125.1470   58.1130 C   0  0  0  0  0  0  0  0  0  0  0  0
  125.7660  124.7010   59.5370 C   0  0  0  0  0  0  0  0  0  0  0  0
  126.6530  125.0310   60.5660 C   0  0  0  0  0  0  0  0  0  0  0  0
  126.4010  124.6060   61.8680 C   0  0  0  0  0  0  0  0  0  0  0  0
  125.2600  123.8520   62.1360 C   0  0  0  0  0  0  0  0  0  0  0  0
  124.3680  123.5250   61.1180 C   0  0  0  0  0  0  0  0  0  0  0  0
  124.6220  123.9480   59.8150 C   0  0  0  0  0  0  0  0  0  0  0  0
  129.1990  123.4840   59.8680 C   0  0  1  0  0  0  0  0  0  0  0  0
  129.1220  122.5190   60.9210 O   0  0  0  0  0  0  0  0  0  0  0  0
  129.7280  121.2460   60.6820 C   0  0  0  0  0  0  0  0  0  0  0  0
  131.2360  121.2730   60.9070 C   0  0  0  0  0  0  0  0  0  0  0  0
  131.7740  122.0030   61.9710 C   0  0  0  0  0  0  0  0  0  0  0  0
  133.1480  122.0000   62.1930 C   0  0  0  0  0  0  0  0  0  0  0  0
  133.9810  121.2700   61.3470 C   0  0  0  0  0  0  0  0  0  0  0  0
  133.4530  120.5440   60.2810 C   0  0  0  0  0  0  0  0  0  0  0  0
  132.0770  120.5440   60.0620 C   0  0  0  0  0  0  0  0  0  0  0  0
  130.6220  123.9440   59.5720 C   0  0  2  0  0  0  0  0  0  0  0  0
  131.0020  124.9890   60.4640 O   0  0  0  0  0  0  0  0  0  0  0  0
  130.2160  125.1080   61.6400 C   0  0  0  0  0  0  0  0  0  0  0  0
  131.1530  125.1670   62.8340 C   0  0  0  0  0  0  0  0  0  0  0  0
  130.6470  125.3860   64.1180 C   0  0  0  0  0  0  0  0  0  0  0  0
  131.5170  125.4570   65.2030 C   0  0  0  0  0  0  0  0  0  0  0  0
  132.8880  125.3100   65.0000 C   0  0  0  0  0  0  0  0  0  0  0  0
  133.3990  125.0910   63.7220 C   0  0  0  0  0  0  0  0  0  0  0  0
  132.5290  125.0190   62.6380 C   0  0  0  0  0  0  0  0  0  0  0  0
  130.7210  127.9120   58.3370 C   0  0  0  0  0  0  0  0  0  0  0  0
  131.0990  129.1510   57.7980 C   0  0  0  0  0  0  0  0  0  0  0  0
  131.2490  130.2630   58.6190 C   0  0  0  0  0  0  0  0  0  0  0  0
  131.0370  130.1640   59.9990 C   0  0  0  0  0  0  0  0  0  0  0  0
  131.2240  131.3460   60.8770 N   0  0  0  0  0  0  0  0  0  0  0  0
  132.3540  131.6070   61.2800 O   0  0  0  0  0  0  0  0  0  0  0  0
  130.2420  132.0250   61.1670 O   0  0  0  0  0  0  0  0  0  0  0  0
  130.6540  128.9280   60.5370 C   0  0  0  0  0  0  0  0  0  0  0  0
  130.4960  127.8170   59.7150 C   0  0  0  0  0  0  0  0  0  0  0  0
  131.3805  124.4710   57.5654 H   0  0  0  0  0  0  0  0  0  0  0  0
  128.8306  121.7573   58.6270 H   0  0  0  0  0  0  0  0  0  0  0  0
  126.9444  122.3061   57.4637 H   0  0  0  0  0  0  0  0  0  0  0  0
  126.6460  123.0148   59.0848 H   0  0  0  0  0  0  0  0  0  0  0  0
  126.3531  126.2078   58.1128 H   0  0  0  0  0  0  0  0  0  0  0  0
  125.1644  125.0162   57.4908 H   0  0  0  0  0  0  0  0  0  0  0  0
  127.5511  125.6271   60.3469 H   0  0  0  0  0  0  0  0  0  0  0  0
  127.0977  124.8636   62.6793 H   0  0  0  0  0  0  0  0  0  0  0  0
  125.0619  123.5114   63.1630 H   0  0  0  0  0  0  0  0  0  0  0  0
  123.4667  122.9353   61.3415 H   0  0  0  0  0  0  0  0  0  0  0  0
  123.9229  123.6896   59.0060 H   0  0  0  0  0  0  0  0  0  0  0  0
  128.5760  124.3240   60.2090 H   0  0  0  0  0  0  0  0  0  0  0  0
  129.2815  120.5077   61.3643 H   0  0  0  0  0  0  0  0  0  0  0  0
  129.5489  120.9796   59.6299 H   0  0  0  0  0  0  0  0  0  0  0  0
  131.1113  122.5799   62.6328 H   0  0  0  0  0  0  0  0  0  0  0  0
  133.5741  122.5706   63.0314 H   0  0  0  0  0  0  0  0  0  0  0  0
  135.0669  121.2669   61.5226 H   0  0  0  0  0  0  0  0  0  0  0  0
  134.1188  119.9742   59.6162 H   0  0  0  0  0  0  0  0  0  0  0  0
  131.6530  119.9706   59.2245 H   0  0  0  0  0  0  0  0  0  0  0  0
  131.4222  123.2002   59.6999 H   0  0  0  0  0  0  0  0  0  0  0  0
  129.6137  126.0273   61.5937 H   0  0  0  0  0  0  0  0  0  0  0  0
  129.5376  124.2470   61.7320 H   0  0  0  0  0  0  0  0  0  0  0  0
  129.5639  125.5020   64.2713 H   0  0  0  0  0  0  0  0  0  0  0  0
  131.1238  125.6284   66.2159 H   0  0  0  0  0  0  0  0  0  0  0  0
  133.5742  125.3675   65.8578 H   0  0  0  0  0  0  0  0  0  0  0  0
  134.4825  124.9758   63.5711 H   0  0  0  0  0  0  0  0  0  0  0  0
  132.9246  124.8455   61.6264 H   0  0  0  0  0  0  0  0  0  0  0  0
  131.2782  129.2434   56.7166 H   0  0  0  0  0  0  0  0  0  0  0  0
  131.5370  131.2296   58.1799 H   0  0  0  0  0  0  0  0  0  0  0  0
  130.4768  128.8356   61.6187 H   0  0  0  0  0  0  0  0  0  0  0  0
  130.1913  126.8547   60.1522 H   0  0  0  0  0  0  0  0  0  0  0  0
  1  2  2  0
  2  3  1  0
  3  4  1  0
  4  5  1  0
  5  6  1  0
  6  7  1  0
  7  8  1  0
  8  9  1  0
  9 10  1  0
 10 11  2  0
 11 12  1  0
 12 13  2  0
 13 14  1  0
 14 15  2  0
  6 16  1  0
 16 17  1  0
 17 18  1  0
 18 19  1  0
 19 20  2  0
 20 21  1  0
 21 22  2  0
 22 23  1  0
 23 24  2  0
 16 25  1  0
 25 26  1  0
 26 27  1  0
 27 28  1  0
 28 29  2  0
 29 30  1  0
 30 31  2  0
 31 32  1  0
 32 33  2  0
  2 34  1  0
 34 35  2  0
 35 36  1  0
 36 37  2  0
 37 38  1  0
 38 39  2  0
 38 40  1  0
 37 41  1  0
 41 42  2  0
 25  4  1  0
 33 28  1  0
 42 34  1  0
 15 10  1  0
 24 19  1  0
  4 43  1  6
  6 44  1  1
  7 45  1  0
  7 46  1  0
  9 47  1  0
  9 48  1  0
 11 49  1  0
 12 50  1  0
 13 51  1  0
 14 52  1  0
 15 53  1  0
 16 54  1  1
 18 55  1  0
 18 56  1  0
 20 57  1  0
 21 58  1  0
 22 59  1  0
 23 60  1  0
 24 61  1  0
 25 62  1  6
 27 63  1  0
 27 64  1  0
 29 65  1  0
 30 66  1  0
 31 67  1  0
 32 68  1  0
 33 69  1  0
 35 70  1  0
 36 71  1  0
 41 72  1  0
 42 73  1  0
M  CHG  2  38   1  40  -1
M  END
>  <Binding energies>  (1) 
[-8.9]

>  <Ligand effiencies>  (1) 
[-0.2119047619047619]

>  <Interactions>  (1) 
["V-B:ARG:545:CZ:9898, V-A:HIS:456:CE1:4068, V-B:GLU:543:CD:9880, V-A:ARG:545:CZ:4924, V-A:ARG:545:CG:4920, V-A:ARG:545:CD:4921, V-B:TYR:539:CZ:9849, V-B:PRO:540:C:9853, V-A:TRP:381:CZ2:3368, V-A:ILE:369:CD1:3237, V-A:LEU:475:CD2:4257, V-A:TRP:381:CH2:3370, V-B:PRO:540:CA:9855, V-A:GLY:453:CA:4042, V-B:TYR:539:C:9839, V-A:ASP:366:CG:3211, V-A:GLY:454:CA:4047, V-B:ALA:541:CB:9864, V-B:TYR:539:CD2:9846, V-B:TYR:539:CE2:9848, V-A:ILE:369:CG2:3235, V-B:PRO:540:N:9856, V-B:PRO:540:CB:9857, H-A:TYR:531:OH:4793, V-A:PRO:540:CA:4881, H-B:ALA:541:N:9863, V-B:ASN:362:CB:8148, V-A:PRO:540:C:4879, H-A:ALA:541:N:4889, H-A:ARG:545:NH2:4926, V-B:ALA:541:C:9860"]

$$$$
RR9_Rahimova_2017
     RDKit          3D

 64 68  0  0  0  0  0  0  0  0999 V2000
  126.8190  128.7480   73.1370 C   0  0  0  0  0  0  0  0  0  0  0  0
  127.9310  128.3970   72.1440 C   0  0  0  0  0  0  0  0  0  0  0  0
  127.3370  128.0370   70.9000 O   0  0  0  0  0  0  0  0  0  0  0  0
  128.1470  127.6720   69.8430 C   0  0  0  0  0  0  0  0  0  0  0  0
  127.5060  127.3430   68.6500 C   0  0  0  0  0  0  0  0  0  0  0  0
  128.2400  126.9600   67.5320 C   0  0  0  0  0  0  0  0  0  0  0  0
  129.6400  126.8960   67.5750 C   0  0  0  0  0  0  0  0  0  0  0  0
  130.4370  126.4800   66.3740 C   0  0  0  0  0  0  0  0  0  0  0  0
  129.8790  126.4780   65.0860 C   0  0  0  0  0  0  0  0  0  0  0  0
  130.6340  126.1000   63.9610 C   0  0  0  0  0  0  0  0  0  0  0  0
  130.0110  126.2160   62.5960 C   0  0  0  0  0  0  0  0  0  0  0  0
  129.9630  127.3050   62.0250 O   0  0  0  0  0  0  0  0  0  0  0  0
  129.5070  125.0760   62.0840 N   0  0  0  0  0  0  0  0  0  0  0  0
  128.7400  124.9580   60.8390 C   0  0  0  0  0  0  0  0  0  0  0  0
  127.4430  124.1330   61.0020 C   0  0  0  0  0  0  0  0  0  0  0  0
  126.6450  123.9400   59.7180 C   0  0  0  0  0  0  0  0  0  0  0  0
  125.2810  124.2480   59.6870 C   0  0  0  0  0  0  0  0  0  0  0  0
  124.5620  124.1040   58.5030 C   0  0  0  0  0  0  0  0  0  0  0  0
  125.2080  123.6480   57.3560 C   0  0  0  0  0  0  0  0  0  0  0  0
  126.5660  123.3350   57.3800 C   0  0  0  0  0  0  0  0  0  0  0  0
  127.2850  123.4800   58.5640 C   0  0  0  0  0  0  0  0  0  0  0  0
  131.9680  125.6920   64.2090 C   0  0  0  0  0  0  0  0  0  0  0  0
  133.1070  125.1960   63.4730 C   0  0  0  0  0  0  0  0  0  0  0  0
  133.2230  124.8460   62.0270 C   0  0  0  0  0  0  0  0  0  0  0  0
  134.2270  123.9750   61.5920 C   0  0  0  0  0  0  0  0  0  0  0  0
  134.3430  123.6610   60.2400 C   0  0  0  0  0  0  0  0  0  0  0  0
  133.4530  124.2150   59.3180 C   0  0  0  0  0  0  0  0  0  0  0  0
  133.5910  123.8880   57.8420 C   0  0  0  0  0  0  0  0  0  0  0  0
  132.4510  125.0860   59.7480 C   0  0  0  0  0  0  0  0  0  0  0  0
  132.3350  125.3960   61.1000 C   0  0  0  0  0  0  0  0  0  0  0  0
  134.1390  125.0400   64.2720 N   0  0  0  0  0  0  0  0  0  0  0  0
  133.7470  125.3470   65.5190 N   0  0  0  0  0  0  0  0  0  0  0  0
  132.4300  125.7400   65.5460 C   0  0  0  0  0  0  0  0  0  0  0  0
  131.7250  126.1070   66.6150 N   0  0  0  0  0  0  0  0  0  0  0  0
  130.2790  127.2270   68.7780 C   0  0  0  0  0  0  0  0  0  0  0  0
  129.5460  127.6110   69.8990 C   0  0  0  0  0  0  0  0  0  0  0  0
  127.1940  128.6296   74.1643 H   0  0  0  0  0  0  0  0  0  0  0  0
  126.5025  129.7897   72.9799 H   0  0  0  0  0  0  0  0  0  0  0  0
  125.9618  128.0767   72.9799 H   0  0  0  0  0  0  0  0  0  0  0  0
  128.5884  129.2674   72.0019 H   0  0  0  0  0  0  0  0  0  0  0  0
  128.5272  127.5575   72.5310 H   0  0  0  0  0  0  0  0  0  0  0  0
  126.4084  127.3866   68.5918 H   0  0  0  0  0  0  0  0  0  0  0  0
  127.7142  126.7036   66.6004 H   0  0  0  0  0  0  0  0  0  0  0  0
  128.8291  126.7784   64.9536 H   0  0  0  0  0  0  0  0  0  0  0  0
  129.6690  124.2160   62.5860 H   0  0  0  0  0  0  0  0  0  0  0  0
  128.4717  125.9681   60.4960 H   0  0  0  0  0  0  0  0  0  0  0  0
  129.3747  124.4311   60.1113 H   0  0  0  0  0  0  0  0  0  0  0  0
  127.7151  123.1398   61.3888 H   0  0  0  0  0  0  0  0  0  0  0  0
  126.7969  124.7022   61.6866 H   0  0  0  0  0  0  0  0  0  0  0  0
  124.7764  124.6038   60.5974 H   0  0  0  0  0  0  0  0  0  0  0  0
  123.4900  124.3489   58.4736 H   0  0  0  0  0  0  0  0  0  0  0  0
  124.6400  123.5337   56.4210 H   0  0  0  0  0  0  0  0  0  0  0  0
  127.0670  122.9755   56.4691 H   0  0  0  0  0  0  0  0  0  0  0  0
  128.3565  123.2325   58.5907 H   0  0  0  0  0  0  0  0  0  0  0  0
  134.9266  123.5370   62.3192 H   0  0  0  0  0  0  0  0  0  0  0  0
  135.1347  122.9775   59.8992 H   0  0  0  0  0  0  0  0  0  0  0  0
  134.0164  122.8800   57.7280 H   0  0  0  0  0  0  0  0  0  0  0  0
  132.6008  123.9243   57.3643 H   0  0  0  0  0  0  0  0  0  0  0  0
  134.2558  124.6227   57.3643 H   0  0  0  0  0  0  0  0  0  0  0  0
  131.7542  125.5267   59.0199 H   0  0  0  0  0  0  0  0  0  0  0  0
  131.5407  126.0769   61.4397 H   0  0  0  0  0  0  0  0  0  0  0  0
  134.3920  125.2780   66.2930 H   0  0  0  0  0  0  0  0  0  0  0  0
  131.3765  127.1829   68.8379 H   0  0  0  0  0  0  0  0  0  0  0  0
  130.0680  127.8676   70.8326 H   0  0  0  0  0  0  0  0  0  0  0  0
  1  2  1  0
  2  3  1  0
  3  4  1  0
  4  5  2  0
  5  6  1  0
  6  7  2  0
  7  8  1  0
  8  9  2  0
  9 10  1  0
 10 11  1  0
 11 12  2  0
 11 13  1  0
 13 14  1  0
 14 15  1  0
 15 16  1  0
 16 17  2  0
 17 18  1  0
 18 19  2  0
 19 20  1  0
 20 21  2  0
 10 22  2  0
 22 23  1  0
 23 24  1  0
 24 25  2  0
 25 26  1  0
 26 27  2  0
 27 28  1  0
 27 29  1  0
 29 30  2  0
 23 31  2  0
 31 32  1  0
 32 33  1  0
 33 34  2  0
  7 35  1  0
 35 36  2  0
 36  4  1  0
 34  8  1  0
 21 16  1  0
 33 22  1  0
 30 24  1  0
  1 37  1  0
  1 38  1  0
  1 39  1  0
  2 40  1  0
  2 41  1  0
  5 42  1  0
  6 43  1  0
  9 44  1  0
 13 45  1  0
 14 46  1  0
 14 47  1  0
 15 48  1  0
 15 49  1  0
 17 50  1  0
 18 51  1  0
 19 52  1  0
 20 53  1  0
 21 54  1  0
 25 55  1  0
 26 56  1  0
 28 57  1  0
 28 58  1  0
 28 59  1  0
 29 60  1  0
 30 61  1  0
 32 62  1  0
 35 63  1  0
 36 64  1  0
M  END
>  <Binding energies>  (1) 
[-7.73]

>  <Ligand effiencies>  (1) 
[-0.20342105263157895]

>  <Interactions>  (1) 
["V-B:GLU:543:CB:9878, V-A:HIS:456:CE1:4068, V-B:GLU:543:CD:9880, V-A:GLU:543:CD:4906, V-B:HIS:456:CE1:9042, V-B:GLY:544:C:9884, V-B:HIS:456:CD2:9040, V-B:GLU:543:CG:9879, H-A:GLY:454:N:4048, V-B:GLU:543:C:9874, V-A:ARG:545:CZ:4924, V-A:ARG:545:CG:4920, H-A:TYR:484:OH:4346, V-A:ARG:545:CD:4921, H-A:ARG:545:NH1:4925, H-B:GLU:543:OE1:9881, H-A:ARG:545:NE:4922, V-A:GLU:543:C:4900, V-B:TYR:539:CZ:9849, V-A:GLY:453:C:4040, V-A:ILE:369:CD1:3237, V-B:PRO:540:CA:9855, V-A:GLY:453:CA:4042, V-B:TYR:539:C:9839, V-A:ASP:366:CG:3211, V-B:PRO:540:CD:9859, V-B:TYR:539:CE2:9848, V-A:ILE:369:CG2:3235, V-B:PRO:540:N:9856, V-B:PRO:540:CB:9857, V-A:ASP:366:CA:3208, V-A:ASP:366:CB:3210, V-A:ILE:369:CG1:3236, V-A:ILE:369:CB:3234, H-A:ARG:545:NH2:4926, H-B:HIS:456:ND1:9039, V-B:HIS:456:CG:9038, V-B:ARG:545:CG:9894, H-A:HIS:456:ND1:4065, V-B:HIS:456:CB:9037, H-A:ILE:455:O:4051"]

$$$$
