1a_Ghoteimi_2023
     RDKit          3D

 40 43  0  0  0  0  0  0  0  0999 V2000
  132.8620  121.0590   60.1640 C   0  0  0  0  0  0  0  0  0  0  0  0
  133.1480  122.1520   61.1980 C   0  0  0  0  0  0  0  0  0  0  0  0
  132.1440  122.1220   62.2060 O   0  0  0  0  0  0  0  0  0  0  0  0
  131.4620  123.2440   62.5500 C   0  0  0  0  0  0  0  0  0  0  0  0
  131.8660  124.0580   63.3860 O   0  0  0  0  0  0  0  0  0  0  0  0
  130.1660  123.4010   61.8060 C   0  0  0  0  0  0  0  0  0  0  0  0
  129.4780  124.6220   61.7630 C   0  0  0  0  0  0  0  0  0  0  0  0
  128.2770  124.7360   61.0680 C   0  0  0  0  0  0  0  0  0  0  0  0
  127.7430  123.6260   60.3970 C   0  0  0  0  0  0  0  0  0  0  0  0
  126.5370  123.6270   59.6700 N   0  0  0  0  0  0  0  0  0  0  0  0
  125.3210  124.1050   60.0120 C   0  0  0  0  0  0  0  0  0  0  0  0
  125.0450  124.6690   61.0700 O   0  0  0  0  0  0  0  0  0  0  0  0
  124.2240  123.9180   58.9640 C   0  0  0  0  0  0  0  0  0  0  0  0
  124.6920  124.6370   57.3630 S   0  0  0  0  0  0  0  0  0  0  0  0
  126.1490  125.6120   57.6640 C   0  0  0  0  0  0  0  0  0  0  0  0
  125.8880  126.8860   58.0420 N   0  0  0  0  0  0  0  0  0  0  0  0
  126.9160  127.7350   58.3090 C   0  0  0  0  0  0  0  0  0  0  0  0
  126.5460  129.1240   58.7410 C   0  0  0  0  0  0  0  0  0  0  0  0
  127.4000  129.8870   59.5540 C   0  0  0  0  0  0  0  0  0  0  0  0
  127.0540  131.1750   59.9530 C   0  0  0  0  0  0  0  0  0  0  0  0
  125.8450  131.7400   59.5550 C   0  0  0  0  0  0  0  0  0  0  0  0
  125.5850  133.0230   59.9960 O   0  0  0  0  0  0  0  0  0  0  0  0
  126.3910  133.5780   61.0300 C   0  0  0  0  0  0  0  0  0  0  0  0
  124.9790  130.9890   58.7480 C   0  0  0  0  0  0  0  0  0  0  0  0
  125.3280  129.7020   58.3510 C   0  0  0  0  0  0  0  0  0  0  0  0
  128.2430  127.3030   58.1940 C   0  0  0  0  0  0  0  0  0  0  0  0
  128.5380  125.9970   57.7810 C   0  0  0  0  0  0  0  0  0  0  0  0
  129.9770  125.6170   57.6510 C   0  0  0  0  0  0  0  0  0  0  0  0
  130.5800  124.7630   58.5800 C   0  0  0  0  0  0  0  0  0  0  0  0
  131.9180  124.4020   58.4430 C   0  0  0  0  0  0  0  0  0  0  0  0
  132.6750  124.8790   57.3740 C   0  0  0  0  0  0  0  0  0  0  0  0
  133.9920  124.4670   57.3190 O   0  0  0  0  0  0  0  0  0  0  0  0
  134.5850  123.8840   58.4740 C   0  0  0  0  0  0  0  0  0  0  0  0
  132.0710  125.7300   56.4350 C   0  0  0  0  0  0  0  0  0  0  0  0
  130.7330  126.0910   56.5740 C   0  0  0  0  0  0  0  0  0  0  0  0
  127.4620  125.1180   57.5100 C   0  0  0  0  0  0  0  0  0  0  0  0
  127.7070  123.7350   57.0890 C   0  0  0  0  0  0  0  0  0  0  0  0
  127.9020  122.6430   56.7570 N   0  0  0  0  0  0  0  0  0  0  0  0
  128.4230  122.4090   60.4420 C   0  0  0  0  0  0  0  0  0  0  0  0
  129.6240  122.2960   61.1370 C   0  0  0  0  0  0  0  0  0  0  0  0
  1  2  1  0
  2  3  1  0
  3  4  1  0
  4  5  2  0
  4  6  1  0
  6  7  2  0
  7  8  1  0
  8  9  2  0
  9 10  1  0
 10 11  1  0
 11 12  2  0
 11 13  1  0
 13 14  1  0
 14 15  1  0
 15 16  2  0
 16 17  1  0
 17 18  1  0
 18 19  2  0
 19 20  1  0
 20 21  2  0
 21 22  1  0
 22 23  1  0
 21 24  1  0
 24 25  2  0
 17 26  2  0
 26 27  1  0
 27 28  1  0
 28 29  2  0
 29 30  1  0
 30 31  2  0
 31 32  1  0
 32 33  1  0
 31 34  1  0
 34 35  2  0
 27 36  2  0
 36 37  1  0
 37 38  3  0
  9 39  1  0
 39 40  2  0
 40  6  1  0
 36 15  1  0
 25 18  1  0
 35 28  1  0
M  END
>  <Binding energies>  (1) 
[-6.55]

>  <Ligand effiencies>  (1) 
[-0.1597560975609756]

>  <Interactions>  (1) 
["V-B:GLU:543:CD:9880, H-A:TYR:484:OH:4346, V-B:TYR:539:CZ:9849, V-B:PRO:540:C:9853, V-A:ILE:369:CD1:3237, V-A:LEU:475:CD2:4257, V-A:TRP:381:CH2:3370, V-B:PRO:540:CA:9855, V-B:TYR:539:C:9839, V-A:ASP:366:CG:3211, V-B:ALA:541:CB:9864, V-B:TYR:539:CD2:9846, V-B:TYR:539:CE2:9848, V-A:ILE:369:CG2:3235, V-B:PRO:540:N:9856, V-B:PRO:540:CB:9857, V-A:ASP:366:CA:3208, V-A:ASP:366:CB:3210, V-A:ASP:366:C:3206, V-A:ILE:369:CG1:3236, V-A:ILE:369:CB:3234, V-B:LEU:475:CD2:9231, V-B:ASP:366:CG:8185, V-A:TYR:531:CZ:4792, H-B:ARG:545:NH2:9900, V-A:TYR:539:CE2:4874, V-B:ASP:366:CB:8184, H-B:TYR:531:OH:9767, V-A:TYR:539:CD2:4872, V-A:TYR:539:CZ:4875, H-B:TYR:539:OH:9850, V-A:TYR:531:CE1:4790, H-B:TYR:539:N:9842, H-B:TYR:539:O:9840"]

$$$$
1b_Ghoteimi_2023
     RDKit          3D

 34 37  0  0  0  0  0  0  0  0999 V2000
  133.5790  125.0030   65.2400 C   0  0  0  0  0  0  0  0  0  0  0  0
  133.4680  124.4970   63.9150 O   0  0  0  0  0  0  0  0  0  0  0  0
  132.5110  125.0250   63.0700 C   0  0  0  0  0  0  0  0  0  0  0  0
  132.7470  124.8990   61.7020 C   0  0  0  0  0  0  0  0  0  0  0  0
  131.8380  125.4030   60.7760 C   0  0  0  0  0  0  0  0  0  0  0  0
  130.6620  126.0450   61.1900 C   0  0  0  0  0  0  0  0  0  0  0  0
  129.6840  126.5900   60.1860 C   0  0  0  0  0  0  0  0  0  0  0  0
  128.7790  127.6130   60.4830 C   0  0  0  0  0  0  0  0  0  0  0  0
  127.8900  128.0880   59.5100 C   0  0  0  0  0  0  0  0  0  0  0  0
  126.9480  129.1790   59.9000 C   0  0  0  0  0  0  0  0  0  0  0  0
  126.0970  129.0180   60.9970 C   0  0  0  0  0  0  0  0  0  0  0  0
  125.2110  130.0290   61.3590 C   0  0  0  0  0  0  0  0  0  0  0  0
  125.1550  131.2170   60.6300 C   0  0  0  0  0  0  0  0  0  0  0  0
  124.2450  132.1630   61.0620 O   0  0  0  0  0  0  0  0  0  0  0  0
  124.4580  133.5320   60.7320 C   0  0  0  0  0  0  0  0  0  0  0  0
  126.0010  131.3800   59.5240 C   0  0  0  0  0  0  0  0  0  0  0  0
  126.8860  130.3670   59.1640 C   0  0  0  0  0  0  0  0  0  0  0  0
  127.9400  127.5150   58.2150 C   0  0  0  0  0  0  0  0  0  0  0  0
  127.0990  128.0410   57.1360 C   0  0  0  0  0  0  0  0  0  0  0  0
  126.4340  128.4570   56.2850 N   0  0  0  0  0  0  0  0  0  0  0  0
  128.8630  126.4710   57.9870 C   0  0  0  0  0  0  0  0  0  0  0  0
  129.0590  125.6300   56.4300 S   0  0  0  0  0  0  0  0  0  0  0  0
  128.7780  123.8500   56.7130 C   0  0  0  0  0  0  0  0  0  0  0  0
  127.5590  123.5150   57.5850 C   0  0  0  0  0  0  0  0  0  0  0  0
  126.6400  122.8220   57.1430 O   0  0  0  0  0  0  0  0  0  0  0  0
  127.5970  124.0390   58.8310 N   0  0  0  0  0  0  0  0  0  0  0  0
  126.6400  123.9020   59.8300 C   0  0  0  0  0  0  0  0  0  0  0  0
  125.2890  124.1810   59.6340 C   0  0  0  0  0  0  0  0  0  0  0  0
  124.6900  123.9220   60.8460 C   0  0  0  0  0  0  0  0  0  0  0  0
  125.6330  123.5050   61.7250 O   0  0  0  0  0  0  0  0  0  0  0  0
  126.8640  123.4960   61.0690 N   0  0  0  0  0  0  0  0  0  0  0  0
  129.7210  126.0410   58.9440 N   0  0  0  0  0  0  0  0  0  0  0  0
  130.4350  126.1680   62.5700 C   0  0  0  0  0  0  0  0  0  0  0  0
  131.3420  125.6680   63.4990 C   0  0  0  0  0  0  0  0  0  0  0  0
  1  2  1  0
  2  3  1  0
  3  4  2  0
  4  5  1  0
  5  6  2  0
  6  7  1  0
  7  8  2  0
  8  9  1  0
  9 10  1  0
 10 11  2  0
 11 12  1  0
 12 13  2  0
 13 14  1  0
 14 15  1  0
 13 16  1  0
 16 17  2  0
  9 18  2  0
 18 19  1  0
 19 20  3  0
 18 21  1  0
 21 22  1  0
 22 23  1  0
 23 24  1  0
 24 25  2  0
 24 26  1  0
 26 27  1  0
 27 28  1  0
 28 29  2  0
 29 30  1  0
 30 31  1  0
 21 32  2  0
  6 33  1  0
 33 34  2  0
 34  3  1  0
 32  7  1  0
 17 10  1  0
 31 27  2  0
M  END
>  <Binding energies>  (2) 
[-7.1]

>  <Ligand effiencies>  (2) 
[-0.20285714285714285]

>  <Interactions>  (2) 
["V-A:HIS:456:CE1:4068, V-B:GLU:543:CD:9880, H-A:GLY:454:N:4048, V-A:ARG:545:CZ:4924, V-A:ARG:545:CG:4920, H-A:TYR:484:OH:4346, V-A:ARG:545:CD:4921, V-B:TYR:539:CZ:9849, V-B:PRO:540:CA:9855, V-B:TYR:539:C:9839, V-A:ASP:366:CG:3211, V-A:GLY:454:CA:4047, V-B:TYR:539:CE1:9847, V-B:TYR:539:CE2:9848, V-B:PRO:540:N:9856, V-B:PRO:540:CB:9857, V-B:ASP:366:CG:8185, H-B:ARG:545:NH2:9900, H-B:ALA:541:N:9863, V-B:ASN:362:CB:8148, V-A:TYR:539:CE2:4874, V-B:ILE:369:CG2:8209, H-B:TYR:531:OH:9767, H-B:TYR:539:N:9842"]

$$$$
1c_Ghoteimi_2023
     RDKit          3D

 34 37  0  0  0  0  0  0  0  0999 V2000
  125.1620  133.2950   61.1810 C   0  0  0  0  0  0  0  0  0  0  0  0
  125.9600  133.0510   60.0280 O   0  0  0  0  0  0  0  0  0  0  0  0
  126.1530  131.7500   59.6040 C   0  0  0  0  0  0  0  0  0  0  0  0
  127.4330  131.2250   59.7600 C   0  0  0  0  0  0  0  0  0  0  0  0
  127.7180  129.9230   59.3570 C   0  0  0  0  0  0  0  0  0  0  0  0
  126.7310  129.1070   58.7850 C   0  0  0  0  0  0  0  0  0  0  0  0
  127.0350  127.7040   58.3450 C   0  0  0  0  0  0  0  0  0  0  0  0
  128.3400  127.2420   58.1400 C   0  0  0  0  0  0  0  0  0  0  0  0
  128.5760  125.9170   57.7560 C   0  0  0  0  0  0  0  0  0  0  0  0
  129.9950  125.4740   57.6210 C   0  0  0  0  0  0  0  0  0  0  0  0
  130.5630  124.6090   58.5620 C   0  0  0  0  0  0  0  0  0  0  0  0
  131.8920  124.2150   58.4460 C   0  0  0  0  0  0  0  0  0  0  0  0
  132.6800  124.6790   57.3930 C   0  0  0  0  0  0  0  0  0  0  0  0
  133.9880  124.2350   57.3590 O   0  0  0  0  0  0  0  0  0  0  0  0
  134.6360  123.8850   58.5780 C   0  0  0  0  0  0  0  0  0  0  0  0
  132.1160  125.5520   56.4510 C   0  0  0  0  0  0  0  0  0  0  0  0
  130.7860  125.9460   56.5680 C   0  0  0  0  0  0  0  0  0  0  0  0
  127.4640  125.0670   57.5510 C   0  0  0  0  0  0  0  0  0  0  0  0
  127.6430  123.6770   57.1150 C   0  0  0  0  0  0  0  0  0  0  0  0
  127.7860  122.5810   56.7720 N   0  0  0  0  0  0  0  0  0  0  0  0
  126.1770  125.5920   57.7910 C   0  0  0  0  0  0  0  0  0  0  0  0
  124.7050  124.5930   57.7380 S   0  0  0  0  0  0  0  0  0  0  0  0
  124.5340  123.9250   59.4250 C   0  0  0  0  0  0  0  0  0  0  0  0
  125.8030  124.1280   60.2590 C   0  0  0  0  0  0  0  0  0  0  0  0
  126.4630  123.1490   60.6100 O   0  0  0  0  0  0  0  0  0  0  0  0
  126.1260  125.4160   60.5120 N   0  0  0  0  0  0  0  0  0  0  0  0
  127.2910  125.8760   61.1040 C   0  0  0  0  0  0  0  0  0  0  0  0
  128.4550  125.2670   61.1780 N   0  0  0  0  0  0  0  0  0  0  0  0
  129.3570  126.0190   61.7800 C   0  0  0  0  0  0  0  0  0  0  0  0
  128.9270  127.2720   62.2060 C   0  0  0  0  0  0  0  0  0  0  0  0
  127.2490  127.4660   61.7960 S   0  0  0  0  0  0  0  0  0  0  0  0
  125.9730  126.8720   58.1850 N   0  0  0  0  0  0  0  0  0  0  0  0
  125.4430  129.6440   58.6380 C   0  0  0  0  0  0  0  0  0  0  0  0
  125.1540  130.9450   59.0370 C   0  0  0  0  0  0  0  0  0  0  0  0
  1  2  1  0
  2  3  1  0
  3  4  2  0
  4  5  1  0
  5  6  2  0
  6  7  1  0
  7  8  2  0
  8  9  1  0
  9 10  1  0
 10 11  2  0
 11 12  1  0
 12 13  2  0
 13 14  1  0
 14 15  1  0
 13 16  1  0
 16 17  2  0
  9 18  2  0
 18 19  1  0
 19 20  3  0
 18 21  1  0
 21 22  1  0
 22 23  1  0
 23 24  1  0
 24 25  2  0
 24 26  1  0
 26 27  1  0
 27 28  2  0
 28 29  1  0
 29 30  2  0
 30 31  1  0
 21 32  2  0
  6 33  1  0
 33 34  2  0
 34  3  1  0
 32  7  1  0
 17 10  1  0
 31 27  1  0
M  END
>  <Binding energies>  (3) 
[-6.74]

>  <Ligand effiencies>  (3) 
[-0.1925714285714286]

>  <Interactions>  (3) 
["V-B:GLU:543:CD:9880, V-A:GLU:543:CD:4906, V-B:TYR:539:CZ:9849, V-A:ILE:369:CD1:3237, V-B:PRO:540:CA:9855, V-A:ASP:366:CG:3211, V-B:TYR:539:CE2:9848, V-A:ILE:369:CG2:3235, V-B:PRO:540:CB:9857, V-A:ASP:366:CA:3208, V-A:ASP:366:CB:3210, V-A:ASP:366:C:3206, V-A:ILE:369:CG1:3236, V-A:ILE:369:CB:3234, V-B:LEU:475:CD2:9231, V-B:ASP:366:CG:8185, V-A:TYR:531:CZ:4792, H-B:ALA:541:N:9863, V-A:TYR:539:CE2:4874, V-B:ASP:366:CB:8184, H-B:TYR:531:OH:9767, V-A:TYR:539:CD2:4872, V-A:TYR:539:CZ:4875, H-B:TYR:539:OH:9850, V-A:TYR:531:CE1:4790, H-B:ASP:366:OD2:8187, H-B:TYR:539:N:9842, H-B:ASP:366:OD1:8186"]

$$$$
1d_Ghoteimi_2023
     RDKit          3D

 30 32  0  0  0  0  0  0  0  0999 V2000
  125.0030  123.4410   56.2970 C   0  0  0  0  0  0  0  0  0  0  0  0
  126.2020  122.7280   56.5600 O   0  0  0  0  0  0  0  0  0  0  0  0
  127.1670  123.2710   57.3320 C   0  0  0  0  0  0  0  0  0  0  0  0
  128.2120  122.7220   57.6850 O   0  0  0  0  0  0  0  0  0  0  0  0
  126.8340  124.6980   57.7580 C   0  0  0  0  0  0  0  0  0  0  0  0
  126.0800  124.6140   59.4100 S   0  0  0  0  0  0  0  0  0  0  0  0
  127.0660  125.6320   60.4850 C   0  0  0  0  0  0  0  0  0  0  0  0
  126.5310  126.8530   60.7220 N   0  0  0  0  0  0  0  0  0  0  0  0
  127.1820  127.7340   61.5240 C   0  0  0  0  0  0  0  0  0  0  0  0
  126.5180  129.0630   61.7410 C   0  0  0  0  0  0  0  0  0  0  0  0
  126.2650  129.9350   60.6690 C   0  0  0  0  0  0  0  0  0  0  0  0
  125.6560  131.1690   60.8730 C   0  0  0  0  0  0  0  0  0  0  0  0
  125.2820  131.5730   62.1520 C   0  0  0  0  0  0  0  0  0  0  0  0
  124.6860  132.8150   62.2600 O   0  0  0  0  0  0  0  0  0  0  0  0
  123.8880  133.2970   61.1840 C   0  0  0  0  0  0  0  0  0  0  0  0
  125.5280  130.7140   63.2320 C   0  0  0  0  0  0  0  0  0  0  0  0
  126.1360  129.4800   63.0250 C   0  0  0  0  0  0  0  0  0  0  0  0
  128.4010  127.3890   62.1200 C   0  0  0  0  0  0  0  0  0  0  0  0
  128.9850  126.1390   61.8790 C   0  0  0  0  0  0  0  0  0  0  0  0
  130.2910  125.8400   62.5410 C   0  0  0  0  0  0  0  0  0  0  0  0
  131.4120  125.5160   61.7710 C   0  0  0  0  0  0  0  0  0  0  0  0
  132.6320  125.2360   62.3810 C   0  0  0  0  0  0  0  0  0  0  0  0
  132.7580  125.2790   63.7690 C   0  0  0  0  0  0  0  0  0  0  0  0
  134.0030  124.9800   64.2870 O   0  0  0  0  0  0  0  0  0  0  0  0
  134.1940  125.0030   65.6970 C   0  0  0  0  0  0  0  0  0  0  0  0
  131.6380  125.6150   64.5460 C   0  0  0  0  0  0  0  0  0  0  0  0
  130.4200  125.8960   63.9330 C   0  0  0  0  0  0  0  0  0  0  0  0
  128.3120  125.2350   61.0200 C   0  0  0  0  0  0  0  0  0  0  0  0
  128.9270  123.9560   60.6520 C   0  0  0  0  0  0  0  0  0  0  0  0
  129.4120  122.9470   60.3610 N   0  0  0  0  0  0  0  0  0  0  0  0
  1  2  1  0
  2  3  1  0
  3  4  2  0
  3  5  1  0
  5  6  1  0
  6  7  1  0
  7  8  2  0
  8  9  1  0
  9 10  1  0
 10 11  2  0
 11 12  1  0
 12 13  2  0
 13 14  1  0
 14 15  1  0
 13 16  1  0
 16 17  2  0
  9 18  2  0
 18 19  1  0
 19 20  1  0
 20 21  2  0
 21 22  1  0
 22 23  2  0
 23 24  1  0
 24 25  1  0
 23 26  1  0
 26 27  2  0
 19 28  2  0
 28 29  1  0
 29 30  3  0
 28  7  1  0
 17 10  1  0
 27 20  1  0
M  END
>  <Binding energies>  (4) 
[-6.24]

>  <Ligand effiencies>  (4) 
[-0.20800000000000002]

>  <Interactions>  (4) 
["V-B:ARG:545:CZ:9898, V-A:HIS:456:CE1:4068, V-B:GLU:543:CD:9880, H-A:GLY:454:N:4048, V-A:ARG:545:CZ:4924, V-A:ARG:545:CG:4920, H-A:TYR:484:OH:4346, V-A:ARG:545:CD:4921, H-A:ARG:545:NH1:4925, H-A:ARG:545:NE:4922, V-A:GLY:453:C:4040, V-B:PRO:540:CA:9855, V-A:GLY:453:CA:4042, V-B:TYR:539:C:9839, V-A:GLY:454:CA:4047, V-B:PRO:540:CD:9859, V-B:PRO:540:N:9856, V-B:LEU:475:CD2:9231, V-B:ILE:369:CD1:8211, H-B:ARG:545:NH2:9900, V-B:ILE:369:CG2:8209, V-B:ILE:538:CB:9834, V-B:TYR:531:CE2:9765, H-B:TYR:539:N:9842"]

$$$$
1j_Grossjean_2025
     RDKit          3D

 20 21  0  0  0  0  0  0  0  0999 V2000
  129.6280  122.1370   73.7090 C   0  0  0  0  0  0  0  0  0  0  0  0
  130.6760  123.2300   73.8180 C   0  0  0  0  0  0  0  0  0  0  0  0
  131.8280  123.0620   74.5820 C   0  0  0  0  0  0  0  0  0  0  0  0
  132.7650  124.0990   74.6350 C   0  0  0  0  0  0  0  0  0  0  0  0
  134.0300  123.8840   75.4660 C   0  0  0  0  0  0  0  0  0  0  0  0
  132.5170  125.2920   73.9200 C   0  0  0  0  0  0  0  0  0  0  0  0
  133.5090  126.3700   73.9180 C   0  0  0  0  0  0  0  0  0  0  0  0
  134.2960  127.2190   73.9190 N   0  0  0  0  0  0  0  0  0  0  0  0
  131.3070  125.3850   73.1910 C   0  0  0  0  0  0  0  0  0  0  0  0
  130.8320  126.8110   72.2380 S   0  0  0  0  0  0  0  0  0  0  0  0
  129.0180  126.8260   72.1330 C   0  0  0  0  0  0  0  0  0  0  0  0
  128.4120  128.0390   72.8420 C   0  0  0  0  0  0  0  0  0  0  0  0
  128.9980  129.1220   72.7930 O   0  0  0  0  0  0  0  0  0  0  0  0
  127.2440  127.8160   73.4820 N   0  0  0  0  0  0  0  0  0  0  0  0
  126.5020  128.7450   74.1990 C   0  0  0  0  0  0  0  0  0  0  0  0
  126.9070  129.8980   74.6870 N   0  0  0  0  0  0  0  0  0  0  0  0
  125.9330  130.5260   75.3150 C   0  0  0  0  0  0  0  0  0  0  0  0
  124.7020  129.8790   75.3450 C   0  0  0  0  0  0  0  0  0  0  0  0
  124.8370  128.3660   74.5000 S   0  0  0  0  0  0  0  0  0  0  0  0
  130.4150  124.3650   73.1280 N   0  0  0  0  0  0  0  0  0  0  0  0
  1  2  1  0
  2  3  2  0
  3  4  1  0
  4  5  1  0
  4  6  2  0
  6  7  1  0
  7  8  3  0
  6  9  1  0
  9 10  1  0
 10 11  1  0
 11 12  1  0
 12 13  2  0
 12 14  1  0
 14 15  1  0
 15 16  2  0
 16 17  1  0
 17 18  2  0
 18 19  1  0
  9 20  2  0
 20  2  1  0
 19 15  1  0
M  END
>  <Binding energies>  (5) 
[-8.08]

>  <Ligand effiencies>  (5) 
[-0.38476190476190475]

>  <Interactions>  (5) 
["H-B:GLY:544:O:9885, V-A:HIS:456:CD2:4066, H-A:LYS:547:NZ:4949, V-B:GLY:544:C:9884, H-B:LYS:547:NZ:9923, V-A:LYS:547:CE:4948, V-A:HIS:456:CG:4064, V-A:HIS:456:CB:4063, V-B:LYS:547:CE:9922, V-A:HIS:456:C:4059, V-A:LYS:471:CE:4218, V-A:ASP:473:CG:4238, V-B:HIS:456:CG:9038, V-A:VAL:458:CG2:4085, V-B:HIS:456:CB:9037, V-A:LYS:471:CD:4217, V-A:LYS:471:CG:4216, V-B:VAL:458:CG2:9059, V-B:HIS:456:C:9033, V-B:HIS:456:CA:9035, V-B:VAL:457:C:9045, V-B:LYS:471:CE:9192"]

$$$$
1o_Grossjean_2025
     RDKit          3D

 26 27  0  0  0  0  0  0  0  0999 V2000
  130.8160  126.5510   73.3840 C   0  0  0  0  0  0  0  0  0  0  0  0
  129.4290  126.8140   73.2230 O   0  0  0  0  0  0  0  0  0  0  0  0
  128.9980  127.8590   72.4720 C   0  0  0  0  0  0  0  0  0  0  0  0
  128.4870  128.8770   72.9500 O   0  0  0  0  0  0  0  0  0  0  0  0
  129.2070  127.6580   70.9980 C   0  0  0  0  0  0  0  0  0  0  0  0
  130.4850  127.4920   70.4460 C   0  0  0  0  0  0  0  0  0  0  0  0
  130.6450  127.3040   69.0750 C   0  0  0  0  0  0  0  0  0  0  0  0
  129.5350  127.2840   68.2300 C   0  0  0  0  0  0  0  0  0  0  0  0
  129.8090  127.0790   66.8640 N   0  0  0  0  0  0  0  0  0  0  0  0
  130.1940  125.9560   66.2170 C   0  0  0  0  0  0  0  0  0  0  0  0
  130.3340  124.8500   66.7380 O   0  0  0  0  0  0  0  0  0  0  0  0
  130.4350  126.1120   64.7080 C   0  0  0  0  0  0  0  0  0  0  0  0
  131.5020  125.1460   64.1570 C   0  0  0  0  0  0  0  0  0  0  0  0
  130.9980  123.4000   64.1760 S   0  0  0  0  0  0  0  0  0  0  0  0
  131.4730  122.6590   62.6280 C   0  0  0  0  0  0  0  0  0  0  0  0
  130.6810  121.6200   62.2600 N   0  0  0  0  0  0  0  0  0  0  0  0
  130.9410  120.9830   61.0950 C   0  0  0  0  0  0  0  0  0  0  0  0
  130.0030  119.8430   60.7430 C   0  0  0  0  0  0  0  0  0  0  0  0
  131.9980  121.3420   60.2620 C   0  0  0  0  0  0  0  0  0  0  0  0
  132.8370  122.3940   60.6430 C   0  0  0  0  0  0  0  0  0  0  0  0
  133.9980  122.7590   59.7200 C   0  0  0  0  0  0  0  0  0  0  0  0
  132.5880  123.0720   61.8580 C   0  0  0  0  0  0  0  0  0  0  0  0
  133.4900  124.1360   62.3030 C   0  0  0  0  0  0  0  0  0  0  0  0
  134.2040  124.9780   62.6510 N   0  0  0  0  0  0  0  0  0  0  0  0
  128.2520  127.4440   68.7760 C   0  0  0  0  0  0  0  0  0  0  0  0
  128.0950  127.6300   70.1470 C   0  0  0  0  0  0  0  0  0  0  0  0
  1  2  1  0
  2  3  1  0
  3  4  2  0
  3  5  1  0
  5  6  2  0
  6  7  1  0
  7  8  2  0
  8  9  1  0
  9 10  1  0
 10 11  2  0
 10 12  1  0
 12 13  1  0
 13 14  1  0
 14 15  1  0
 15 16  2  0
 16 17  1  0
 17 18  1  0
 17 19  2  0
 19 20  1  0
 20 21  1  0
 20 22  2  0
 22 23  1  0
 23 24  3  0
  8 25  1  0
 25 26  2  0
 26  5  1  0
 22 15  1  0
M  END
>  <Binding energies>  (6) 
[-7.86]

>  <Ligand effiencies>  (6) 
[-0.2911111111111111]

>  <Interactions>  (6) 
["V-B:GLU:543:CB:9878, V-A:HIS:456:CE1:4068, V-B:GLU:543:CD:9880, V-A:GLU:543:CD:4906, V-B:HIS:456:CE1:9042, V-A:GLY:544:CA:4912, H-A:LYS:547:NZ:4949, V-B:GLY:544:C:9884, V-A:GLY:544:C:4910, V-B:HIS:456:CD2:9040, V-B:GLU:543:CG:9879, V-A:GLU:543:CG:4905, H-A:GLY:454:N:4048, H-B:LYS:547:NZ:9923, V-B:GLU:543:C:9874, V-A:LYS:547:CE:4948, H-A:TYR:484:OH:4346, H-A:ARG:545:NH1:4925, V-A:GLU:543:C:4900, V-A:ILE:369:CD1:3237, V-A:LEU:475:CD2:4257, V-A:TRP:381:CH2:3370, V-B:ALA:541:CB:9864, V-B:TYR:539:CD2:9846, V-B:TYR:539:CE2:9848, V-A:ILE:369:CG2:3235, V-A:ILE:369:CG1:3236, V-A:ILE:369:CB:3234, H-A:ARG:545:NH2:4926, V-A:PRO:482:CG:4325, V-A:PRO:482:CB:4324, H-A:GLU:543:OE2:4908, H-A:GLU:543:OE1:4907, H-B:GLU:543:OE2:9882"]

$$$$
1p_Grossjean_2025
     RDKit          3D

 21 22  0  0  0  0  0  0  0  0999 V2000
  129.8750  122.0090   73.6900 C   0  0  0  0  0  0  0  0  0  0  0  0
  130.9010  123.1080   73.8970 C   0  0  0  0  0  0  0  0  0  0  0  0
  132.1280  122.8530   74.5070 C   0  0  0  0  0  0  0  0  0  0  0  0
  133.0300  123.9080   74.6840 C   0  0  0  0  0  0  0  0  0  0  0  0
  134.3630  123.6090   75.3680 C   0  0  0  0  0  0  0  0  0  0  0  0
  132.6800  125.2000   74.2340 C   0  0  0  0  0  0  0  0  0  0  0  0
  133.5860  126.3290   74.4500 C   0  0  0  0  0  0  0  0  0  0  0  0
  134.3040  127.2210   74.6220 N   0  0  0  0  0  0  0  0  0  0  0  0
  131.4220  125.3620   73.6050 C   0  0  0  0  0  0  0  0  0  0  0  0
  130.8300  126.9150   72.9730 S   0  0  0  0  0  0  0  0  0  0  0  0
  130.0370  126.5650   71.3760 C   0  0  0  0  0  0  0  0  0  0  0  0
  128.6080  127.1280   71.2550 C   0  0  0  0  0  0  0  0  0  0  0  0
  128.3040  128.2510   72.2580 C   0  0  0  0  0  0  0  0  0  0  0  0
  129.0870  129.1960   72.3670 O   0  0  0  0  0  0  0  0  0  0  0  0
  127.1540  128.1160   72.9550 N   0  0  0  0  0  0  0  0  0  0  0  0
  126.6460  128.9830   73.9150 C   0  0  0  0  0  0  0  0  0  0  0  0
  125.4110  128.7940   74.5340 C   0  0  0  0  0  0  0  0  0  0  0  0
  125.2820  129.8520   75.4060 C   0  0  0  0  0  0  0  0  0  0  0  0
  126.3810  130.6370   75.3150 O   0  0  0  0  0  0  0  0  0  0  0  0
  127.2380  130.0760   74.3660 N   0  0  0  0  0  0  0  0  0  0  0  0
  130.5450  124.3370   73.4570 N   0  0  0  0  0  0  0  0  0  0  0  0
  1  2  1  0
  2  3  2  0
  3  4  1  0
  4  5  1  0
  4  6  2  0
  6  7  1  0
  7  8  3  0
  6  9  1  0
  9 10  1  0
 10 11  1  0
 11 12  1  0
 12 13  1  0
 13 14  2  0
 13 15  1  0
 15 16  1  0
 16 17  1  0
 17 18  2  0
 18 19  1  0
 19 20  1  0
  9 21  2  0
 21  2  1  0
 20 16  2  0
M  END
>  <Binding energies>  (7) 
[-8.09]

>  <Ligand effiencies>  (7) 
[-0.36772727272727274]

>  <Interactions>  (7) 
["H-B:GLY:544:O:9885, V-A:HIS:456:CE1:4068, V-A:HIS:456:CD2:4066, H-A:LYS:547:NZ:4949, V-B:GLY:544:C:9884, V-B:HIS:456:CD2:9040, H-B:LYS:547:NZ:9923, V-A:HIS:456:CG:4064, V-A:HIS:456:CB:4063, V-B:LYS:547:CE:9922, V-B:GLY:544:CA:9886, V-A:LYS:547:CD:4947, V-A:HIS:456:C:4059, V-A:LYS:471:CE:4218, V-A:ASP:473:CG:4238, V-B:HIS:456:CG:9038, V-A:VAL:458:CG2:4085, V-B:HIS:456:CB:9037, V-A:LYS:471:CD:4217, V-A:LYS:471:CG:4216, V-B:VAL:458:CG2:9059, V-B:HIS:456:C:9033"]

$$$$
2a_Ghoteimi_2023
     RDKit          3D

 48 53  0  0  0  0  0  0  0  0999 V2000
  130.5600  122.6790   63.3270 C   0  0  0  0  0  0  0  0  0  0  0  0
  130.8040  122.0510   61.9510 C   0  0  0  0  0  0  0  0  0  0  0  0
  129.5600  121.8650   61.2890 O   0  0  0  0  0  0  0  0  0  0  0  0
  129.3170  122.4320   60.0790 C   0  0  0  0  0  0  0  0  0  0  0  0
  129.7250  121.9600   59.0130 O   0  0  0  0  0  0  0  0  0  0  0  0
  128.4950  123.6860   60.1670 C   0  0  0  0  0  0  0  0  0  0  0  0
  127.7670  124.0190   61.3190 C   0  0  0  0  0  0  0  0  0  0  0  0
  127.0170  125.1890   61.3670 C   0  0  0  0  0  0  0  0  0  0  0  0
  126.9820  126.0540   60.2710 C   0  0  0  0  0  0  0  0  0  0  0  0
  126.1880  127.2070   60.4280 N   0  0  0  0  0  0  0  0  0  0  0  0
  126.3270  128.4340   59.8810 C   0  0  0  0  0  0  0  0  0  0  0  0
  127.2530  128.7820   59.1480 O   0  0  0  0  0  0  0  0  0  0  0  0
  125.2420  129.4470   60.2680 C   0  0  0  0  0  0  0  0  0  0  0  0
  125.5620  130.3370   61.8260 S   0  0  0  0  0  0  0  0  0  0  0  0
  126.7730  129.3660   62.6920 C   0  0  0  0  0  0  0  0  0  0  0  0
  127.6880  128.7820   61.8840 N   0  0  0  0  0  0  0  0  0  0  0  0
  128.6600  128.0070   62.4270 C   0  0  0  0  0  0  0  0  0  0  0  0
  129.6300  127.3870   61.4730 C   0  0  0  0  0  0  0  0  0  0  0  0
  130.2710  126.1790   61.7730 C   0  0  0  0  0  0  0  0  0  0  0  0
  131.1810  125.6120   60.8860 C   0  0  0  0  0  0  0  0  0  0  0  0
  131.4800  126.2270   59.6610 C   0  0  0  0  0  0  0  0  0  0  0  0
  132.4200  125.6610   58.7930 N   0  0  0  0  0  0  0  0  0  0  0  0
  132.1920  125.6160   57.3350 C   0  0  0  0  0  0  0  0  0  0  0  0
  133.4600  125.2990   56.5150 C   0  0  0  0  0  0  0  0  0  0  0  0
  134.0470  124.0920   56.9750 O   0  0  0  0  0  0  0  0  0  0  0  0
  134.4250  124.1860   58.3390 C   0  0  0  0  0  0  0  0  0  0  0  0
  133.1870  124.4700   59.2150 C   0  0  0  0  0  0  0  0  0  0  0  0
  130.8430  127.4450   59.3710 C   0  0  0  0  0  0  0  0  0  0  0  0
  129.9320  128.0100   60.2570 C   0  0  0  0  0  0  0  0  0  0  0  0
  128.7420  127.8120   63.8080 C   0  0  0  0  0  0  0  0  0  0  0  0
  127.8050  128.4070   64.6650 C   0  0  0  0  0  0  0  0  0  0  0  0
  127.9470  128.1520   66.1310 C   0  0  0  0  0  0  0  0  0  0  0  0
  129.2110  128.1620   66.7270 C   0  0  0  0  0  0  0  0  0  0  0  0
  129.3560  127.9060   68.0870 C   0  0  0  0  0  0  0  0  0  0  0  0
  128.2400  127.6350   68.8940 C   0  0  0  0  0  0  0  0  0  0  0  0
  128.3650  127.3570   70.2580 N   0  0  0  0  0  0  0  0  0  0  0  0
  127.9130  128.3580   71.2440 C   0  0  0  0  0  0  0  0  0  0  0  0
  127.7440  127.7810   72.6660 C   0  0  0  0  0  0  0  0  0  0  0  0
  128.9520  127.1670   73.0880 O   0  0  0  0  0  0  0  0  0  0  0  0
  129.3310  126.1050   72.2260 C   0  0  0  0  0  0  0  0  0  0  0  0
  129.5380  126.6370   70.7930 C   0  0  0  0  0  0  0  0  0  0  0  0
  126.9770  127.6150   68.2860 C   0  0  0  0  0  0  0  0  0  0  0  0
  126.8320  127.8690   66.9250 C   0  0  0  0  0  0  0  0  0  0  0  0
  126.7910  129.2150   64.0970 C   0  0  0  0  0  0  0  0  0  0  0  0
  125.8170  129.9080   64.9460 C   0  0  0  0  0  0  0  0  0  0  0  0
  125.0490  130.4530   65.6190 N   0  0  0  0  0  0  0  0  0  0  0  0
  127.7000  125.7250   59.1130 C   0  0  0  0  0  0  0  0  0  0  0  0
  128.4520  124.5530   59.0660 C   0  0  0  0  0  0  0  0  0  0  0  0
  1  2  1  0
  2  3  1  0
  3  4  1  0
  4  5  2  0
  4  6  1  0
  6  7  2  0
  7  8  1  0
  8  9  2  0
  9 10  1  0
 10 11  1  0
 11 12  2  0
 11 13  1  0
 13 14  1  0
 14 15  1  0
 15 16  2  0
 16 17  1  0
 17 18  1  0
 18 19  2  0
 19 20  1  0
 20 21  2  0
 21 22  1  0
 22 23  1  0
 23 24  1  0
 24 25  1  0
 25 26  1  0
 26 27  1  0
 21 28  1  0
 28 29  2  0
 17 30  2  0
 30 31  1  0
 31 32  1  0
 32 33  2  0
 33 34  1  0
 34 35  2  0
 35 36  1  0
 36 37  1  0
 37 38  1  0
 38 39  1  0
 39 40  1  0
 40 41  1  0
 35 42  1  0
 42 43  2  0
 31 44  2  0
 44 45  1  0
 45 46  3  0
  9 47  1  0
 47 48  2  0
 48  6  1  0
 44 15  1  0
 29 18  1  0
 43 32  1  0
 27 22  1  0
 41 36  1  0
M  END
>  <Binding energies>  (8) 
[0.62]

>  <Ligand effiencies>  (8) 
[0.012653061224489795]

>  <Interactions>  (8) 
["V-B:ARG:545:CZ:9898, V-A:HIS:456:CE1:4068, V-A:HIS:456:CD2:4066, V-B:GLU:543:CD:9880, H-B:TYR:484:OH:9320, V-A:GLU:543:CD:4906, H-B:GLY:454:N:9022, V-B:HIS:456:CE1:9042, H-A:LYS:547:NZ:4949, V-B:GLY:544:C:9884, V-B:HIS:456:CD2:9040, V-A:GLU:543:CB:4904, V-B:GLU:543:CG:9879, V-A:GLU:543:CG:4905, H-B:LYS:547:NZ:9923, V-B:GLU:543:C:9874, V-B:LYS:547:CE:9922, V-B:GLY:544:CA:9886, V-A:GLU:543:C:4900, V-B:TYR:539:CZ:9849, V-A:ILE:369:CD1:3237, V-A:LEU:475:CD2:4257, V-A:ASP:366:CG:3211, V-B:ALA:541:CB:9864, V-B:TYR:539:CD2:9846, V-A:ILE:369:CG2:3235, V-A:ASP:366:CA:3208, V-A:ASP:366:CB:3210, V-A:ASP:366:C:3206, V-A:ILE:369:CB:3234, V-B:ASP:366:CG:8185, V-A:TYR:531:CZ:4792, V-B:ASP:366:CB:8184, H-B:TYR:539:OH:9850, V-B:HIS:456:CG:9038, V-A:TYR:531:CE1:4790, V-B:ARG:545:CG:9894, H-B:ASP:366:OD2:8187, H-B:ASP:366:OD1:8186"]

$$$$
2aa_Ghoteimi_2023
     RDKit          3D

 48 53  0  0  0  0  0  0  0  0999 V2000
  133.5500  132.5850   56.3440 C   0  0  0  0  0  0  0  0  0  0  0  0
  132.8830  131.2780   56.7850 C   0  0  0  0  0  0  0  0  0  0  0  0
  133.6150  130.7180   57.8670 O   0  0  0  0  0  0  0  0  0  0  0  0
  133.3100  131.0230   59.1550 C   0  0  0  0  0  0  0  0  0  0  0  0
  134.1510  131.3770   59.9880 O   0  0  0  0  0  0  0  0  0  0  0  0
  131.8450  130.9050   59.4620 C   0  0  0  0  0  0  0  0  0  0  0  0
  130.9320  130.3930   58.5270 C   0  0  0  0  0  0  0  0  0  0  0  0
  129.5800  130.2920   58.8430 C   0  0  0  0  0  0  0  0  0  0  0  0
  129.1120  130.7050   60.0910 C   0  0  0  0  0  0  0  0  0  0  0  0
  127.7280  130.5550   60.3060 N   0  0  0  0  0  0  0  0  0  0  0  0
  126.8280  131.4340   60.7980 C   0  0  0  0  0  0  0  0  0  0  0  0
  127.0810  132.5920   61.1350 O   0  0  0  0  0  0  0  0  0  0  0  0
  125.3960  130.8930   60.8970 C   0  0  0  0  0  0  0  0  0  0  0  0
  125.2180  130.2310   62.1540 O   0  0  0  0  0  0  0  0  0  0  0  0
  126.2570  129.4950   62.7070 C   0  0  0  0  0  0  0  0  0  0  0  0
  127.1820  128.9580   61.8620 N   0  0  0  0  0  0  0  0  0  0  0  0
  128.2120  128.2360   62.3710 C   0  0  0  0  0  0  0  0  0  0  0  0
  129.1860  127.6740   61.3840 C   0  0  0  0  0  0  0  0  0  0  0  0
  130.4660  127.2810   61.7880 C   0  0  0  0  0  0  0  0  0  0  0  0
  131.3740  126.7510   60.8740 C   0  0  0  0  0  0  0  0  0  0  0  0
  131.0300  126.5810   59.5240 C   0  0  0  0  0  0  0  0  0  0  0  0
  131.9340  126.0620   58.5910 N   0  0  0  0  0  0  0  0  0  0  0  0
  132.6350  124.7830   58.8270 C   0  0  0  0  0  0  0  0  0  0  0  0
  133.8350  124.5470   57.8860 C   0  0  0  0  0  0  0  0  0  0  0  0
  133.4210  124.6560   56.5340 O   0  0  0  0  0  0  0  0  0  0  0  0
  132.8960  125.9450   56.2540 C   0  0  0  0  0  0  0  0  0  0  0  0
  131.6680  126.2220   57.1460 C   0  0  0  0  0  0  0  0  0  0  0  0
  129.7530  126.9970   59.1200 C   0  0  0  0  0  0  0  0  0  0  0  0
  128.8470  127.5300   60.0330 C   0  0  0  0  0  0  0  0  0  0  0  0
  128.3330  128.0190   63.7460 C   0  0  0  0  0  0  0  0  0  0  0  0
  127.3900  128.5500   64.6350 C   0  0  0  0  0  0  0  0  0  0  0  0
  127.5580  128.2630   66.0920 C   0  0  0  0  0  0  0  0  0  0  0  0
  126.4840  127.7810   66.8450 C   0  0  0  0  0  0  0  0  0  0  0  0
  126.6280  127.5300   68.2070 C   0  0  0  0  0  0  0  0  0  0  0  0
  127.8480  127.7680   68.8590 C   0  0  0  0  0  0  0  0  0  0  0  0
  128.0170  127.5200   70.2240 N   0  0  0  0  0  0  0  0  0  0  0  0
  127.7250  128.5540   71.2350 C   0  0  0  0  0  0  0  0  0  0  0  0
  127.6260  127.9990   72.6720 C   0  0  0  0  0  0  0  0  0  0  0  0
  128.8120  127.2910   73.0000 O   0  0  0  0  0  0  0  0  0  0  0  0
  129.0300  126.1990   72.1200 C   0  0  0  0  0  0  0  0  0  0  0  0
  129.1660  126.7060   70.6700 C   0  0  0  0  0  0  0  0  0  0  0  0
  128.9220  128.2440   68.0940 C   0  0  0  0  0  0  0  0  0  0  0  0
  128.7780  128.4950   66.7330 C   0  0  0  0  0  0  0  0  0  0  0  0
  126.3310  129.3210   64.1000 C   0  0  0  0  0  0  0  0  0  0  0  0
  125.3270  129.9560   64.9570 C   0  0  0  0  0  0  0  0  0  0  0  0
  124.5350  130.4580   65.6350 N   0  0  0  0  0  0  0  0  0  0  0  0
  130.0190  131.2110   61.0330 C   0  0  0  0  0  0  0  0  0  0  0  0
  131.3720  131.3080   60.7160 C   0  0  0  0  0  0  0  0  0  0  0  0
  1  2  1  0
  2  3  1  0
  3  4  1  0
  4  5  2  0
  4  6  1  0
  6  7  2  0
  7  8  1  0
  8  9  2  0
  9 10  1  0
 10 11  1  0
 11 12  2  0
 11 13  1  0
 13 14  1  0
 14 15  1  0
 15 16  2  0
 16 17  1  0
 17 18  1  0
 18 19  2  0
 19 20  1  0
 20 21  2  0
 21 22  1  0
 22 23  1  0
 23 24  1  0
 24 25  1  0
 25 26  1  0
 26 27  1  0
 21 28  1  0
 28 29  2  0
 17 30  2  0
 30 31  1  0
 31 32  1  0
 32 33  2  0
 33 34  1  0
 34 35  2  0
 35 36  1  0
 36 37  1  0
 37 38  1  0
 38 39  1  0
 39 40  1  0
 40 41  1  0
 35 42  1  0
 42 43  2  0
 31 44  2  0
 44 45  1  0
 45 46  3  0
  9 47  1  0
 47 48  2  0
 48  6  1  0
 44 15  1  0
 29 18  1  0
 43 32  1  0
 27 22  1  0
 41 36  1  0
M  END
>  <Binding energies>  (9) 
[-0.31]

>  <Ligand effiencies>  (9) 
[-0.0063265306122448975]

>  <Interactions>  (9) 
["V-B:ARG:545:CZ:9898, V-A:HIS:456:CE1:4068, V-A:HIS:456:CD2:4066, V-B:GLU:543:CD:9880, H-B:TYR:484:OH:9320, V-A:GLU:543:CD:4906, H-B:GLY:454:N:9022, V-B:HIS:456:CE1:9042, H-A:LYS:547:NZ:4949, V-B:GLY:544:C:9884, V-B:HIS:456:CD2:9040, V-A:GLU:543:CB:4904, V-B:GLU:543:CG:9879, V-A:GLU:543:CG:4905, H-B:LYS:547:NZ:9923, V-B:GLU:543:C:9874, V-B:LYS:547:CE:9922, V-B:GLY:544:CA:9886, V-A:GLU:543:C:4900, V-A:ASP:366:CG:3211, V-A:ASP:366:CA:3208, V-A:ASP:366:CB:3210, V-A:ASP:366:C:3206, H-A:TYR:531:OH:4793, V-A:PRO:540:CG:4884, V-A:PRO:540:CA:4881, V-A:PRO:540:N:4882, H-A:LEU:363:N:3184, V-A:TYR:531:CZ:4792, H-B:ARG:545:NH2:9900, V-A:PRO:540:CB:4883, V-A:PRO:540:CD:4885, V-A:ASN:362:C:3170, V-A:PRO:540:C:4879, V-A:TYR:531:CE2:4791, V-A:LEU:363:CA:3183, H-B:TYR:539:OH:9850, V-B:HIS:456:CG:9038, V-A:TYR:531:CE1:4790, V-B:ARG:545:CG:9894, V-B:ARG:545:CD:9895, V-B:ARG:545:CA:9891, V-A:LEU:363:CD1:3187, V-A:LEU:363:CB:3185, V-B:ARG:545:CB:9893, V-A:ILE:538:CB:4860"]

$$$$
2b_Ghoteimi_2023
     RDKit          3D

 42 47  0  0  0  0  0  0  0  0999 V2000
  130.9190  123.6890   59.8580 N   0  0  0  0  0  0  0  0  0  0  0  0
  130.8100  124.1500   60.9140 C   0  0  0  0  0  0  0  0  0  0  0  0
  130.6690  124.7390   62.2490 C   0  0  0  0  0  0  0  0  0  0  0  0
  130.0210  125.9880   62.4200 C   0  0  0  0  0  0  0  0  0  0  0  0
  129.4450  126.7860   61.2970 C   0  0  0  0  0  0  0  0  0  0  0  0
  130.2840  127.4750   60.4190 C   0  0  0  0  0  0  0  0  0  0  0  0
  129.7520  128.2200   59.3710 C   0  0  0  0  0  0  0  0  0  0  0  0
  128.3640  128.3110   59.1820 C   0  0  0  0  0  0  0  0  0  0  0  0
  127.8080  129.0420   58.1310 N   0  0  0  0  0  0  0  0  0  0  0  0
  126.3390  129.0900   57.9880 C   0  0  0  0  0  0  0  0  0  0  0  0
  125.8760  129.5950   56.6050 C   0  0  0  0  0  0  0  0  0  0  0  0
  126.4590  130.8580   56.3240 O   0  0  0  0  0  0  0  0  0  0  0  0
  127.8760  130.7920   56.3160 C   0  0  0  0  0  0  0  0  0  0  0  0
  128.3880  130.3270   57.6950 C   0  0  0  0  0  0  0  0  0  0  0  0
  127.5300  127.6190   60.0710 C   0  0  0  0  0  0  0  0  0  0  0  0
  128.0620  126.8700   61.1160 C   0  0  0  0  0  0  0  0  0  0  0  0
  129.9060  126.5080   63.7150 C   0  0  0  0  0  0  0  0  0  0  0  0
  130.3920  125.7900   64.8120 C   0  0  0  0  0  0  0  0  0  0  0  0
  130.2670  126.2870   66.2170 C   0  0  0  0  0  0  0  0  0  0  0  0
  129.0440  126.2130   66.8940 C   0  0  0  0  0  0  0  0  0  0  0  0
  128.9240  126.6580   68.2080 C   0  0  0  0  0  0  0  0  0  0  0  0
  130.0210  127.2080   68.8910 C   0  0  0  0  0  0  0  0  0  0  0  0
  129.9240  127.6310   70.2210 N   0  0  0  0  0  0  0  0  0  0  0  0
  128.7200  128.3580   70.6760 C   0  0  0  0  0  0  0  0  0  0  0  0
  128.9130  129.0920   72.0200 C   0  0  0  0  0  0  0  0  0  0  0  0
  129.3620  128.1810   73.0110 O   0  0  0  0  0  0  0  0  0  0  0  0
  130.6050  127.5980   72.6560 C   0  0  0  0  0  0  0  0  0  0  0  0
  130.4660  126.8220   71.3290 C   0  0  0  0  0  0  0  0  0  0  0  0
  131.2460  127.2730   68.2110 C   0  0  0  0  0  0  0  0  0  0  0  0
  131.3650  126.8250   66.8980 C   0  0  0  0  0  0  0  0  0  0  0  0
  131.0110  124.5940   64.6460 N   0  0  0  0  0  0  0  0  0  0  0  0
  131.1640  124.0860   63.4000 C   0  0  0  0  0  0  0  0  0  0  0  0
  132.0000  122.5150   63.3690 S   0  0  0  0  0  0  0  0  0  0  0  0
  133.6310  122.7770   62.6090 C   0  0  0  0  0  0  0  0  0  0  0  0
  133.5690  122.7220   61.0820 C   0  0  0  0  0  0  0  0  0  0  0  0
  133.3300  121.6490   60.5250 O   0  0  0  0  0  0  0  0  0  0  0  0
  133.7960  123.8930   60.4480 N   0  0  0  0  0  0  0  0  0  0  0  0
  133.7890  124.1250   59.0800 C   0  0  0  0  0  0  0  0  0  0  0  0
  132.9030  125.0070   58.4630 C   0  0  0  0  0  0  0  0  0  0  0  0
  133.2180  124.9520   57.1260 C   0  0  0  0  0  0  0  0  0  0  0  0
  134.2400  124.0830   56.9460 O   0  0  0  0  0  0  0  0  0  0  0  0
  134.5960  123.5660   58.1940 N   0  0  0  0  0  0  0  0  0  0  0  0
  1  2  3  0
  2  3  1  0
  3  4  2  0
  4  5  1  0
  5  6  2  0
  6  7  1  0
  7  8  2  0
  8  9  1  0
  9 10  1  0
 10 11  1  0
 11 12  1  0
 12 13  1  0
 13 14  1  0
  8 15  1  0
 15 16  2  0
  4 17  1  0
 17 18  2  0
 18 19  1  0
 19 20  2  0
 20 21  1  0
 21 22  2  0
 22 23  1  0
 23 24  1  0
 24 25  1  0
 25 26  1  0
 26 27  1  0
 27 28  1  0
 22 29  1  0
 29 30  2  0
 18 31  1  0
 31 32  2  0
 32 33  1  0
 33 34  1  0
 34 35  1  0
 35 36  2  0
 35 37  1  0
 37 38  1  0
 38 39  1  0
 39 40  2  0
 40 41  1  0
 41 42  1  0
 32  3  1  0
 42 38  2  0
 16  5  1  0
 30 19  1  0
 14  9  1  0
 28 23  1  0
M  END
>  <Binding energies>  (10) 
[-4.93]

>  <Ligand effiencies>  (10) 
[-0.11465116279069766]

>  <Interactions>  (10) 
["V-B:GLU:543:CB:9878, V-A:HIS:456:CE1:4068, V-A:HIS:456:CD2:4066, V-B:GLU:543:CD:9880, V-A:GLU:543:CD:4906, V-B:HIS:456:CE1:9042, V-A:GLY:544:CA:4912, H-A:LYS:547:NZ:4949, V-A:GLY:544:C:4910, V-B:HIS:456:CD2:9040, V-B:GLU:543:CG:9879, V-A:GLU:543:CG:4905, V-B:GLU:543:C:9874, V-A:ARG:545:CG:4920, V-A:LYS:547:CE:4948, H-A:TYR:484:OH:4346, V-A:ARG:545:CD:4921, V-A:HIS:456:CG:4064, V-A:GLU:543:C:4900, V-A:ARG:545:CA:4917, V-B:TYR:539:CZ:9849, V-A:GLY:453:C:4040, V-A:ILE:369:CD1:3237, V-A:LEU:475:CD2:4257, V-A:ASP:366:CG:3211, V-A:GLY:454:CA:4047, V-B:TYR:539:CE2:9848, V-A:ILE:369:CG2:3235, V-A:ASP:366:CA:3208, V-A:ASP:366:CB:3210, V-A:ASP:366:C:3206, V-A:TYR:539:CE2:4874, V-A:TYR:539:CE1:4873, V-A:TYR:539:CZ:4875, H-B:TYR:539:OH:9850, H-A:TYR:539:OH:4876, H-A:ASP:366:OD1:3212"]

$$$$
2c_Ghoteimi_2023
     RDKit          3D

 42 47  0  0  0  0  0  0  0  0999 V2000
  126.0950  130.8580   60.1360 N   0  0  0  0  0  0  0  0  0  0  0  0
  126.3680  130.4280   61.1740 C   0  0  0  0  0  0  0  0  0  0  0  0
  126.7190  129.8790   62.4880 C   0  0  0  0  0  0  0  0  0  0  0  0
  127.6400  128.8080   62.6000 C   0  0  0  0  0  0  0  0  0  0  0  0
  128.3100  128.1620   61.4310 C   0  0  0  0  0  0  0  0  0  0  0  0
  129.6270  128.4900   61.1070 C   0  0  0  0  0  0  0  0  0  0  0  0
  130.2600  127.8880   60.0220 C   0  0  0  0  0  0  0  0  0  0  0  0
  129.5880  126.9510   59.2230 C   0  0  0  0  0  0  0  0  0  0  0  0
  130.2100  126.3210   58.1420 N   0  0  0  0  0  0  0  0  0  0  0  0
  131.6710  126.4460   57.9770 C   0  0  0  0  0  0  0  0  0  0  0  0
  132.1620  126.0450   56.5690 C   0  0  0  0  0  0  0  0  0  0  0  0
  131.7270  124.7300   56.2590 O   0  0  0  0  0  0  0  0  0  0  0  0
  130.3120  124.6270   56.2740 C   0  0  0  0  0  0  0  0  0  0  0  0
  129.7730  124.9920   57.6730 C   0  0  0  0  0  0  0  0  0  0  0  0
  128.2630  126.6310   59.5540 C   0  0  0  0  0  0  0  0  0  0  0  0
  127.6320  127.2310   60.6400 C   0  0  0  0  0  0  0  0  0  0  0  0
  127.9450  128.3220   63.8770 C   0  0  0  0  0  0  0  0  0  0  0  0
  127.3710  128.9030   65.0120 C   0  0  0  0  0  0  0  0  0  0  0  0
  127.6770  128.4320   66.3980 C   0  0  0  0  0  0  0  0  0  0  0  0
  126.6700  127.9050   67.2120 C   0  0  0  0  0  0  0  0  0  0  0  0
  126.9500  127.4590   68.5020 C   0  0  0  0  0  0  0  0  0  0  0  0
  128.2480  127.5350   69.0290 C   0  0  0  0  0  0  0  0  0  0  0  0
  128.5510  127.0690   70.3130 N   0  0  0  0  0  0  0  0  0  0  0  0
  129.8920  126.5180   70.5980 C   0  0  0  0  0  0  0  0  0  0  0  0
  129.9620  125.7040   71.9070 C   0  0  0  0  0  0  0  0  0  0  0  0
  129.4980  126.4890   72.9930 O   0  0  0  0  0  0  0  0  0  0  0  0
  128.1510  126.8910   72.8050 C   0  0  0  0  0  0  0  0  0  0  0  0
  128.0240  127.7370   71.5200 C   0  0  0  0  0  0  0  0  0  0  0  0
  129.2570  128.0520   68.2050 C   0  0  0  0  0  0  0  0  0  0  0  0
  128.9770  128.4960   66.9150 C   0  0  0  0  0  0  0  0  0  0  0  0
  126.4910  129.9300   64.9030 N   0  0  0  0  0  0  0  0  0  0  0  0
  126.1560  130.3980   63.6760 C   0  0  0  0  0  0  0  0  0  0  0  0
  124.9850  131.7350   63.7200 S   0  0  0  0  0  0  0  0  0  0  0  0
  125.8860  133.2630   63.3190 C   0  0  0  0  0  0  0  0  0  0  0  0
  126.7920  133.0920   62.0990 C   0  0  0  0  0  0  0  0  0  0  0  0
  126.4170  133.5130   61.0040 O   0  0  0  0  0  0  0  0  0  0  0  0
  127.9670  132.4670   62.3290 N   0  0  0  0  0  0  0  0  0  0  0  0
  128.9630  132.2060   61.4000 C   0  0  0  0  0  0  0  0  0  0  0  0
  130.1820  131.7650   61.6250 N   0  0  0  0  0  0  0  0  0  0  0  0
  130.8610  131.6240   60.5040 C   0  0  0  0  0  0  0  0  0  0  0  0
  130.1900  131.9580   59.3320 C   0  0  0  0  0  0  0  0  0  0  0  0
  128.5810  132.4820   59.7310 S   0  0  0  0  0  0  0  0  0  0  0  0
  1  2  3  0
  2  3  1  0
  3  4  2  0
  4  5  1  0
  5  6  2  0
  6  7  1  0
  7  8  2  0
  8  9  1  0
  9 10  1  0
 10 11  1  0
 11 12  1  0
 12 13  1  0
 13 14  1  0
  8 15  1  0
 15 16  2  0
  4 17  1  0
 17 18  2  0
 18 19  1  0
 19 20  2  0
 20 21  1  0
 21 22  2  0
 22 23  1  0
 23 24  1  0
 24 25  1  0
 25 26  1  0
 26 27  1  0
 27 28  1  0
 22 29  1  0
 29 30  2  0
 18 31  1  0
 31 32  2  0
 32 33  1  0
 33 34  1  0
 34 35  1  0
 35 36  2  0
 35 37  1  0
 37 38  1  0
 38 39  2  0
 39 40  1  0
 40 41  2  0
 41 42  1  0
 32  3  1  0
 42 38  1  0
 16  5  1  0
 30 19  1  0
 14  9  1  0
 28 23  1  0
M  END
>  <Binding energies>  (11) 
[-4.72]

>  <Ligand effiencies>  (11) 
[-0.10976744186046511]

>  <Interactions>  (11) 
["V-A:HIS:456:CE1:4068, V-A:HIS:456:CD2:4066, V-B:GLU:543:CD:9880, H-B:TYR:484:OH:9320, V-A:GLU:543:CD:4906, H-B:GLY:454:N:9022, V-B:HIS:456:CE1:9042, V-B:GLY:544:C:9884, V-B:HIS:456:CD2:9040, V-A:GLU:543:CB:4904, V-B:GLU:543:CG:9879, V-A:GLU:543:CG:4905, H-B:LYS:547:NZ:9923, V-B:GLU:543:C:9874, V-A:HIS:456:CG:4064, V-B:LYS:547:CE:9922, V-B:GLY:544:CA:9886, V-A:GLU:543:C:4900, V-B:TYR:539:CZ:9849, V-A:ASP:366:CG:3211, V-B:TYR:539:CE1:9847, V-B:TYR:539:CE2:9848, V-A:ASP:366:CB:3210, V-B:LEU:475:CD2:9231, V-A:PRO:540:CA:4881, V-A:PRO:540:N:4882, V-A:TYR:531:CZ:4792, V-A:TYR:539:C:4865, V-A:PRO:540:C:4879, V-A:ALA:541:CB:4890, H-A:ALA:541:N:4889, V-A:TYR:539:CD2:4872, H-A:GLU:543:OE1:4907, H-B:TYR:539:OH:9850, V-A:TYR:531:CE1:4790, V-B:ARG:545:CG:9894, V-B:ARG:545:CD:9895, V-B:ARG:545:CA:9891, V-A:ALA:541:CA:4888"]

$$$$
2j_Grossjean_2025
     RDKit          3D

 23 24  0  0  0  0  0  0  0  0999 V2000
  130.5820  119.4590   60.7930 C   0  0  0  0  0  0  0  0  0  0  0  0
  130.5560  120.9450   60.4900 C   0  0  0  0  0  0  0  0  0  0  0  0
  129.4460  121.7310   60.7870 C   0  0  0  0  0  0  0  0  0  0  0  0
  129.4710  123.1020   60.4910 C   0  0  0  0  0  0  0  0  0  0  0  0
  128.2350  123.9570   60.8270 C   0  0  0  0  0  0  0  0  0  0  0  0
  127.3980  123.2640   61.6000 F   0  0  0  0  0  0  0  0  0  0  0  0
  128.6050  125.0630   61.4730 F   0  0  0  0  0  0  0  0  0  0  0  0
  127.5580  124.3350   59.7400 F   0  0  0  0  0  0  0  0  0  0  0  0
  130.6370  123.6440   59.8930 C   0  0  0  0  0  0  0  0  0  0  0  0
  130.7190  125.0700   59.5610 C   0  0  0  0  0  0  0  0  0  0  0  0
  130.7830  126.1960   59.3000 N   0  0  0  0  0  0  0  0  0  0  0  0
  131.7190  122.7710   59.6250 C   0  0  0  0  0  0  0  0  0  0  0  0
  133.2370  123.3440   58.8760 S   0  0  0  0  0  0  0  0  0  0  0  0
  134.3820  123.8440   60.2060 C   0  0  0  0  0  0  0  0  0  0  0  0
  133.8030  123.7500   61.6260 C   0  0  0  0  0  0  0  0  0  0  0  0
  133.6120  122.6530   62.1560 O   0  0  0  0  0  0  0  0  0  0  0  0
  133.5240  124.9390   62.2030 N   0  0  0  0  0  0  0  0  0  0  0  0
  132.9980  125.1420   63.4720 C   0  0  0  0  0  0  0  0  0  0  0  0
  133.6390  125.1420   64.6210 N   0  0  0  0  0  0  0  0  0  0  0  0
  132.8240  125.3720   65.6320 C   0  0  0  0  0  0  0  0  0  0  0  0
  131.4840  125.5650   65.3110 C   0  0  0  0  0  0  0  0  0  0  0  0
  131.2930  125.4370   63.5870 S   0  0  0  0  0  0  0  0  0  0  0  0
  131.6750  121.4480   59.9210 N   0  0  0  0  0  0  0  0  0  0  0  0
  1  2  1  0
  2  3  2  0
  3  4  1  0
  4  5  1  0
  5  6  1  0
  5  7  1  0
  5  8  1  0
  4  9  2  0
  9 10  1  0
 10 11  3  0
  9 12  1  0
 12 13  1  0
 13 14  1  0
 14 15  1  0
 15 16  2  0
 15 17  1  0
 17 18  1  0
 18 19  2  0
 19 20  1  0
 20 21  2  0
 21 22  1  0
 12 23  2  0
 23  2  1  0
 22 18  1  0
M  END
>  <Binding energies>  (12) 
[-5.74]

>  <Ligand effiencies>  (12) 
[-0.23916666666666667]

>  <Interactions>  (12) 
["V-A:HIS:456:CE1:4068, V-B:GLU:543:CD:9880, H-A:GLY:454:N:4048, V-A:ARG:545:CZ:4924, V-A:ARG:545:CG:4920, H-A:TYR:484:OH:4346, V-A:ARG:545:CD:4921, H-A:ARG:545:NE:4922, V-B:PRO:540:C:9853, V-A:TRP:381:CZ2:3368, V-A:ILE:369:CD1:3237, V-A:LEU:475:CD2:4257, V-A:TRP:381:CH2:3370, V-B:PRO:540:CA:9855, V-B:ALA:541:CA:9862, V-A:ASP:366:CG:3211, V-B:ALA:541:CB:9864, V-B:TYR:539:CD2:9846, V-B:TYR:539:CE2:9848, V-A:ILE:369:CG2:3235, V-A:ILE:369:CB:3234, V-A:PRO:482:CG:4325, V-A:PRO:482:CB:4324, H-A:ASP:366:OD2:3213, H-A:ASP:366:OD1:3212"]

$$$$
3ab_Grossjean_2025
     RDKit          3D

 33 35  0  0  0  0  0  0  0  0999 V2000
  129.1100  125.6410   72.3490 C   0  0  0  0  0  0  0  0  0  0  0  0
  128.7410  126.9140   72.8630 O   0  0  0  0  0  0  0  0  0  0  0  0
  128.7090  128.0090   72.0610 C   0  0  0  0  0  0  0  0  0  0  0  0
  128.3630  129.1280   72.4500 O   0  0  0  0  0  0  0  0  0  0  0  0
  129.1410  127.7240   70.6510 C   0  0  0  0  0  0  0  0  0  0  0  0
  130.4950  127.6260   70.2940 C   0  0  0  0  0  0  0  0  0  0  0  0
  130.8660  127.3600   68.9790 C   0  0  0  0  0  0  0  0  0  0  0  0
  129.8830  127.1870   67.9920 C   0  0  0  0  0  0  0  0  0  0  0  0
  130.1430  126.9090   66.6360 N   0  0  0  0  0  0  0  0  0  0  0  0
  130.3930  125.7310   66.0260 C   0  0  0  0  0  0  0  0  0  0  0  0
  130.4530  124.6350   66.5830 O   0  0  0  0  0  0  0  0  0  0  0  0
  130.6160  125.8110   64.5140 C   0  0  0  0  0  0  0  0  0  0  0  0
  131.4940  124.3530   63.8740 S   0  0  0  0  0  0  0  0  0  0  0  0
  131.1260  124.2280   62.1360 C   0  0  0  0  0  0  0  0  0  0  0  0
  129.8010  124.1610   61.8670 N   0  0  0  0  0  0  0  0  0  0  0  0
  129.3770  124.0690   60.5800 C   0  0  0  0  0  0  0  0  0  0  0  0
  127.8930  124.0020   60.3670 C   0  0  0  0  0  0  0  0  0  0  0  0
  127.0100  123.9960   61.4580 C   0  0  0  0  0  0  0  0  0  0  0  0
  125.6320  123.9360   61.2660 C   0  0  0  0  0  0  0  0  0  0  0  0
  125.1170  123.8790   59.9740 C   0  0  0  0  0  0  0  0  0  0  0  0
  125.9700  123.8790   58.8760 C   0  0  0  0  0  0  0  0  0  0  0  0
  127.3470  123.9400   59.0730 C   0  0  0  0  0  0  0  0  0  0  0  0
  130.2950  124.0190   59.5250 C   0  0  0  0  0  0  0  0  0  0  0  0
  131.6730  124.0670   59.7800 C   0  0  0  0  0  0  0  0  0  0  0  0
  132.6500  124.0040   58.5910 C   0  0  0  0  0  0  0  0  0  0  0  0
  133.2550  122.8190   58.4800 F   0  0  0  0  0  0  0  0  0  0  0  0
  132.0000  124.2270   57.4480 F   0  0  0  0  0  0  0  0  0  0  0  0
  133.6010  124.9290   58.7340 F   0  0  0  0  0  0  0  0  0  0  0  0
  132.1100  124.1660   61.1240 C   0  0  0  0  0  0  0  0  0  0  0  0
  133.5390  124.1620   61.4500 C   0  0  0  0  0  0  0  0  0  0  0  0
  134.6680  124.1590   61.7030 N   0  0  0  0  0  0  0  0  0  0  0  0
  128.5360  127.2770   68.3450 C   0  0  0  0  0  0  0  0  0  0  0  0
  128.1680  127.5450   69.6600 C   0  0  0  0  0  0  0  0  0  0  0  0
  1  2  1  0
  2  3  1  0
  3  4  2  0
  3  5  1  0
  5  6  2  0
  6  7  1  0
  7  8  2  0
  8  9  1  0
  9 10  1  0
 10 11  2  0
 10 12  1  0
 12 13  1  0
 13 14  1  0
 14 15  2  0
 15 16  1  0
 16 17  1  0
 17 18  2  0
 18 19  1  0
 19 20  2  0
 20 21  1  0
 21 22  2  0
 16 23  2  0
 23 24  1  0
 24 25  1  0
 25 26  1  0
 25 27  1  0
 25 28  1  0
 24 29  2  0
 29 30  1  0
 30 31  3  0
  8 32  1  0
 32 33  2  0
 33  5  1  0
 29 14  1  0
 22 17  1  0
M  END
>  <Binding energies>  (13) 
[-7.61]

>  <Ligand effiencies>  (13) 
[-0.22382352941176473]

>  <Interactions>  (13) 
["V-B:GLU:543:CB:9878, V-A:HIS:456:CE1:4068, V-A:HIS:456:CD2:4066, V-B:GLU:543:CD:9880, V-A:GLU:543:CD:4906, V-B:HIS:456:CE1:9042, V-A:GLY:544:CA:4912, H-A:LYS:547:NZ:4949, V-B:GLY:544:C:9884, V-A:GLY:544:C:4910, V-B:HIS:456:CD2:9040, V-B:GLU:543:CG:9879, V-A:GLU:543:CG:4905, H-A:GLY:454:N:4048, H-B:LYS:547:NZ:9923, V-B:GLU:543:C:9874, V-A:ARG:545:CG:4920, H-A:TYR:484:OH:4346, V-B:LYS:547:CE:9922, V-B:GLY:544:CA:9886, V-A:GLU:543:C:4900, V-B:TYR:539:CZ:9849, V-A:ILE:369:CD1:3237, V-B:PRO:540:CA:9855, V-A:ASP:366:CG:3211, V-B:TYR:539:CD2:9846, V-B:TYR:539:CE2:9848, V-A:ILE:369:CG2:3235, V-B:PRO:540:N:9856, V-B:PRO:540:CB:9857, V-A:ASP:366:CA:3208, V-A:ASP:366:CB:3210, V-A:ILE:369:CB:3234, H-A:GLU:543:OE2:4908, H-A:GLU:543:OE1:4907, H-B:GLU:543:OE2:9882"]

$$$$
3ac_Grossjean_2025
     RDKit          3D

 31 33  0  0  0  0  0  0  0  0999 V2000
  126.6640  128.5310   74.5420 C   0  0  0  0  0  0  0  0  0  0  0  0
  128.0420  128.3020   74.2590 O   0  0  0  0  0  0  0  0  0  0  0  0
  128.4150  127.9220   72.9840 C   0  0  0  0  0  0  0  0  0  0  0  0
  127.4510  128.0600   71.9860 C   0  0  0  0  0  0  0  0  0  0  0  0
  127.7370  127.7060   70.6710 C   0  0  0  0  0  0  0  0  0  0  0  0
  128.9930  127.1980   70.3360 C   0  0  0  0  0  0  0  0  0  0  0  0
  129.1940  126.8880   68.9780 N   0  0  0  0  0  0  0  0  0  0  0  0
  129.0060  127.6660   67.8900 C   0  0  0  0  0  0  0  0  0  0  0  0
  128.6490  128.8440   67.9110 O   0  0  0  0  0  0  0  0  0  0  0  0
  129.2710  126.9910   66.5440 C   0  0  0  0  0  0  0  0  0  0  0  0
  130.9950  126.4360   66.3800 S   0  0  0  0  0  0  0  0  0  0  0  0
  131.2670  125.9010   64.7020 C   0  0  0  0  0  0  0  0  0  0  0  0
  130.1900  126.0890   63.9010 N   0  0  0  0  0  0  0  0  0  0  0  0
  130.2490  125.7350   62.5920 C   0  0  0  0  0  0  0  0  0  0  0  0
  129.0120  125.9700   61.7770 C   0  0  0  0  0  0  0  0  0  0  0  0
  128.4650  127.2580   61.6580 C   0  0  0  0  0  0  0  0  0  0  0  0
  127.3210  127.4840   60.8980 C   0  0  0  0  0  0  0  0  0  0  0  0
  126.7040  126.4210   60.2470 C   0  0  0  0  0  0  0  0  0  0  0  0
  127.2220  125.1350   60.3530 C   0  0  0  0  0  0  0  0  0  0  0  0
  128.3670  124.9130   61.1130 C   0  0  0  0  0  0  0  0  0  0  0  0
  131.4060  125.1580   62.0580 C   0  0  0  0  0  0  0  0  0  0  0  0
  132.5270  124.9310   62.8700 C   0  0  0  0  0  0  0  0  0  0  0  0
  133.7790  124.2880   62.2410 C   0  0  0  0  0  0  0  0  0  0  0  0
  133.9670  123.0270   62.6360 F   0  0  0  0  0  0  0  0  0  0  0  0
  133.6740  124.2760   60.9110 F   0  0  0  0  0  0  0  0  0  0  0  0
  134.8640  124.9840   62.5820 F   0  0  0  0  0  0  0  0  0  0  0  0
  132.4580  125.2980   64.2370 C   0  0  0  0  0  0  0  0  0  0  0  0
  133.5740  125.0100   65.1410 C   0  0  0  0  0  0  0  0  0  0  0  0
  134.4560  124.7820   65.8540 N   0  0  0  0  0  0  0  0  0  0  0  0
  129.9710  127.0620   71.3340 C   0  0  0  0  0  0  0  0  0  0  0  0
  129.6820  127.4180   72.6480 C   0  0  0  0  0  0  0  0  0  0  0  0
  1  2  1  0
  2  3  1  0
  3  4  2  0
  4  5  1  0
  5  6  2  0
  6  7  1  0
  7  8  1  0
  8  9  2  0
  8 10  1  0
 10 11  1  0
 11 12  1  0
 12 13  2  0
 13 14  1  0
 14 15  1  0
 15 16  2  0
 16 17  1  0
 17 18  2  0
 18 19  1  0
 19 20  2  0
 14 21  2  0
 21 22  1  0
 22 23  1  0
 23 24  1  0
 23 25  1  0
 23 26  1  0
 22 27  2  0
 27 28  1  0
 28 29  3  0
  6 30  1  0
 30 31  2  0
 31  3  1  0
 27 12  1  0
 20 15  1  0
M  END
>  <Binding energies>  (14) 
[-7.31]

>  <Ligand effiencies>  (14) 
[-0.2284375]

>  <Interactions>  (14) 
["V-B:GLU:543:CB:9878, V-A:HIS:456:CE1:4068, V-A:HIS:456:CD2:4066, V-B:GLU:543:CD:9880, H-A:HIS:456:NE2:4069, V-A:GLU:543:CD:4906, V-B:HIS:456:CE1:9042, H-A:LYS:547:NZ:4949, V-B:GLY:544:C:9884, V-A:GLY:544:C:4910, H-B:GLU:543:O:9875, V-B:HIS:456:CD2:9040, V-B:GLU:543:CG:9879, V-A:GLU:543:CG:4905, H-A:GLY:454:N:4048, H-B:LYS:547:NZ:9923, V-B:GLU:543:C:9874, V-A:ARG:545:CZ:4924, V-A:ARG:545:CG:4920, V-A:LYS:547:CE:4948, H-A:TYR:484:OH:4346, V-A:ARG:545:CD:4921, V-B:LYS:547:CE:9922, H-A:ARG:545:NE:4922, V-A:GLY:453:C:4040, V-A:ILE:369:CD1:3237, V-A:GLY:453:CA:4042, V-A:ASP:366:CG:3211, V-A:GLY:454:CA:4047, V-B:HIS:456:CG:9038, H-A:ILE:455:N:4053"]

$$$$
3af_Grossjean_2025
     RDKit          3D

 29 31  0  0  0  0  0  0  0  0999 V2000
  133.5630  124.6780   63.1590 N   0  0  0  0  0  0  0  0  0  0  0  0
  132.6530  124.4770   62.4730 C   0  0  0  0  0  0  0  0  0  0  0  0
  131.5010  124.2220   61.6040 C   0  0  0  0  0  0  0  0  0  0  0  0
  131.3990  123.0110   60.8780 C   0  0  0  0  0  0  0  0  0  0  0  0
  132.4430  121.8830   60.9880 C   0  0  0  0  0  0  0  0  0  0  0  0
  131.9980  120.7160   60.5160 F   0  0  0  0  0  0  0  0  0  0  0  0
  133.5370  122.2060   60.2970 F   0  0  0  0  0  0  0  0  0  0  0  0
  132.7780  121.6920   62.2650 F   0  0  0  0  0  0  0  0  0  0  0  0
  130.3050  122.8360   60.0160 C   0  0  0  0  0  0  0  0  0  0  0  0
  129.3420  123.8420   59.8830 C   0  0  0  0  0  0  0  0  0  0  0  0
  128.1640  123.7150   58.9630 C   0  0  0  0  0  0  0  0  0  0  0  0
  128.3280  123.2590   57.6460 C   0  0  0  0  0  0  0  0  0  0  0  0
  127.2380  123.1360   56.7880 C   0  0  0  0  0  0  0  0  0  0  0  0
  125.9660  123.4690   57.2390 C   0  0  0  0  0  0  0  0  0  0  0  0
  125.7750  123.9210   58.5410 C   0  0  0  0  0  0  0  0  0  0  0  0
  126.8680  124.0410   59.3950 C   0  0  0  0  0  0  0  0  0  0  0  0
  129.4460  125.0030   60.5780 N   0  0  0  0  0  0  0  0  0  0  0  0
  130.4820  125.1860   61.4330 C   0  0  0  0  0  0  0  0  0  0  0  0
  130.4400  126.7610   62.2640 S   0  0  0  0  0  0  0  0  0  0  0  0
  129.1660  127.7840   61.4670 C   0  0  0  0  0  0  0  0  0  0  0  0
  127.8670  127.8050   62.2720 C   0  0  0  0  0  0  0  0  0  0  0  0
  127.0990  126.8460   62.1940 O   0  0  0  0  0  0  0  0  0  0  0  0
  127.6650  128.9130   63.0170 N   0  0  0  0  0  0  0  0  0  0  0  0
  126.5840  129.2480   63.8550 C   0  0  0  0  0  0  0  0  0  0  0  0
  126.5590  129.1180   65.2560 C   0  0  0  0  0  0  0  0  0  0  0  0
  125.4140  129.4870   65.9640 C   0  0  0  0  0  0  0  0  0  0  0  0
  124.3180  129.9790   65.2540 C   0  0  0  0  0  0  0  0  0  0  0  0
  124.3170  130.1140   63.9050 N   0  0  0  0  0  0  0  0  0  0  0  0
  125.4370  129.7510   63.2310 C   0  0  0  0  0  0  0  0  0  0  0  0
  1  2  3  0
  2  3  1  0
  3  4  2  0
  4  5  1  0
  5  6  1  0
  5  7  1  0
  5  8  1  0
  4  9  1  0
  9 10  2  0
 10 11  1  0
 11 12  2  0
 12 13  1  0
 13 14  2  0
 14 15  1  0
 15 16  2  0
 10 17  1  0
 17 18  2  0
 18 19  1  0
 19 20  1  0
 20 21  1  0
 21 22  2  0
 21 23  1  0
 23 24  1  0
 24 25  2  0
 25 26  1  0
 26 27  2  0
 27 28  1  0
 28 29  2  0
 18  3  1  0
 29 24  1  0
 16 11  1  0
M  END
>  <Binding energies>  (15) 
[-7.41]

>  <Ligand effiencies>  (15) 
[-0.247]

>  <Interactions>  (15) 
["V-B:ARG:545:CZ:9898, V-B:GLU:543:CD:9880, H-B:TYR:484:OH:9320, V-A:GLU:543:CD:4906, H-B:GLY:454:N:9022, V-B:HIS:456:CE1:9042, H-B:ARG:545:NE:9896, H-A:GLY:454:N:4048, V-A:ILE:369:CD1:3237, V-A:LEU:475:CD2:4257, V-A:TRP:381:CH2:3370, V-B:PRO:540:CA:9855, V-B:TYR:539:C:9839, V-A:GLY:454:CA:4047, V-B:PRO:540:CD:9859, V-B:TYR:539:CD2:9846, V-B:TYR:539:CE2:9848, V-A:ILE:369:CG2:3235, V-B:PRO:540:N:9856, V-B:PRO:540:CB:9857, H-B:ARG:545:NH2:9900, V-B:GLY:454:CA:9021, H-A:ARG:545:NH2:4926, H-A:GLU:543:OE2:4908, H-A:GLU:543:OE1:4907, V-B:ARG:545:CG:9894, V-B:ARG:545:CD:9895, H-B:ARG:545:NH1:9899"]

$$$$
3ag_Grossjean_2025
     RDKit          3D

 30 32  0  0  0  0  0  0  0  0999 V2000
  124.9990  123.4530   56.9240 N   0  0  0  0  0  0  0  0  0  0  0  0
  125.7890  123.4970   57.7680 C   0  0  0  0  0  0  0  0  0  0  0  0
  126.7870  123.5540   58.8410 C   0  0  0  0  0  0  0  0  0  0  0  0
  126.3930  123.7590   60.1860 C   0  0  0  0  0  0  0  0  0  0  0  0
  124.9170  123.8740   60.6120 C   0  0  0  0  0  0  0  0  0  0  0  0
  124.0690  123.6790   59.6000 F   0  0  0  0  0  0  0  0  0  0  0  0
  124.6430  122.9650   61.5480 F   0  0  0  0  0  0  0  0  0  0  0  0
  124.6740  125.0890   61.1050 F   0  0  0  0  0  0  0  0  0  0  0  0
  127.3900  123.8590   61.1690 C   0  0  0  0  0  0  0  0  0  0  0  0
  128.7410  123.7700   60.8170 C   0  0  0  0  0  0  0  0  0  0  0  0
  129.8450  123.8730   61.8250 C   0  0  0  0  0  0  0  0  0  0  0  0
  130.5990  125.0510   61.9450 C   0  0  0  0  0  0  0  0  0  0  0  0
  131.6270  125.1530   62.8780 C   0  0  0  0  0  0  0  0  0  0  0  0
  131.9160  124.0740   63.7070 C   0  0  0  0  0  0  0  0  0  0  0  0
  131.1860  122.8940   63.6070 C   0  0  0  0  0  0  0  0  0  0  0  0
  130.1600  122.7950   62.6710 C   0  0  0  0  0  0  0  0  0  0  0  0
  129.1140  123.5610   59.5280 N   0  0  0  0  0  0  0  0  0  0  0  0
  128.1680  123.4410   58.5650 C   0  0  0  0  0  0  0  0  0  0  0  0
  128.8380  123.1680   56.9400 S   0  0  0  0  0  0  0  0  0  0  0  0
  129.3960  124.7790   56.3070 C   0  0  0  0  0  0  0  0  0  0  0  0
  130.7650  125.1750   56.8620 C   0  0  0  0  0  0  0  0  0  0  0  0
  131.3540  126.1550   56.4020 O   0  0  0  0  0  0  0  0  0  0  0  0
  131.2520  124.4090   57.8540 N   0  0  0  0  0  0  0  0  0  0  0  0
  132.5190  124.6280   58.5510 C   0  0  0  0  0  0  0  0  0  0  0  0
  132.8170  123.5990   59.6360 C   0  0  0  0  0  0  0  0  0  0  0  0
  132.1310  122.3820   59.6470 C   0  0  0  0  0  0  0  0  0  0  0  0
  132.4220  121.4280   60.6190 C   0  0  0  0  0  0  0  0  0  0  0  0
  133.4040  121.6910   61.5710 C   0  0  0  0  0  0  0  0  0  0  0  0
  134.1030  122.8960   61.5570 C   0  0  0  0  0  0  0  0  0  0  0  0
  133.8130  123.8500   60.5850 C   0  0  0  0  0  0  0  0  0  0  0  0
  1  2  3  0
  2  3  1  0
  3  4  2  0
  4  5  1  0
  5  6  1  0
  5  7  1  0
  5  8  1  0
  4  9  1  0
  9 10  2  0
 10 11  1  0
 11 12  2  0
 12 13  1  0
 13 14  2  0
 14 15  1  0
 15 16  2  0
 10 17  1  0
 17 18  2  0
 18 19  1  0
 19 20  1  0
 20 21  1  0
 21 22  2  0
 21 23  1  0
 23 24  1  0
 24 25  1  0
 25 26  2  0
 26 27  1  0
 27 28  2  0
 28 29  1  0
 29 30  2  0
 18  3  1  0
 30 25  1  0
 16 11  1  0
M  END
>  <Binding energies>  (16) 
[-6.48]

>  <Ligand effiencies>  (16) 
[-0.20903225806451614]

>  <Interactions>  (16) 
["V-B:ARG:545:CZ:9898, V-B:GLU:543:CD:9880, V-A:TYR:484:CZ:4345, V-B:TYR:539:CZ:9849, V-B:PRO:540:C:9853, V-A:GLY:453:C:4040, V-A:ILE:369:CD1:3237, V-A:LEU:475:CD2:4257, V-B:PRO:540:CA:9855, V-B:TYR:539:C:9839, V-B:ALA:541:CA:9862, V-A:ASP:366:CG:3211, V-A:GLY:454:CA:4047, V-B:PRO:540:CD:9859, V-B:ALA:541:CB:9864, V-B:TYR:539:CD2:9846, V-B:TYR:539:CE2:9848, V-B:PRO:540:N:9856, V-B:PRO:540:CB:9857, V-A:ASP:366:CB:3210, H-A:TYR:531:OH:4793, V-B:ASP:366:CG:8185, V-B:ASN:362:C:8144, V-B:ASN:362:CB:8148, V-B:LEU:363:CA:8157, H-B:TYR:531:OH:9767, H-B:TYR:539:OH:9850, V-B:ALA:541:C:9860"]

$$$$
3bc_Grossjean_2025
     RDKit          3D

 28 30  0  0  0  0  0  0  0  0999 V2000
  127.0280  128.6840   73.8040 C   0  0  0  0  0  0  0  0  0  0  0  0
  128.3970  128.5600   73.4340 O   0  0  0  0  0  0  0  0  0  0  0  0
  128.7130  128.1060   72.1670 C   0  0  0  0  0  0  0  0  0  0  0  0
  127.6610  128.0240   71.2550 C   0  0  0  0  0  0  0  0  0  0  0  0
  127.8820  127.5780   69.9550 C   0  0  0  0  0  0  0  0  0  0  0  0
  129.1630  127.1980   69.5510 C   0  0  0  0  0  0  0  0  0  0  0  0
  129.2910  126.7720   68.2150 N   0  0  0  0  0  0  0  0  0  0  0  0
  130.2940  127.0000   67.3410 C   0  0  0  0  0  0  0  0  0  0  0  0
  131.3270  127.6190   67.6040 O   0  0  0  0  0  0  0  0  0  0  0  0
  130.0860  126.3830   65.9500 C   0  0  0  0  0  0  0  0  0  0  0  0
  130.6590  124.6600   65.7720 S   0  0  0  0  0  0  0  0  0  0  0  0
  131.3500  124.4820   64.1430 C   0  0  0  0  0  0  0  0  0  0  0  0
  130.4290  124.2100   63.1860 N   0  0  0  0  0  0  0  0  0  0  0  0
  130.8210  124.0520   61.8950 C   0  0  0  0  0  0  0  0  0  0  0  0
  129.7440  123.7320   60.9020 C   0  0  0  0  0  0  0  0  0  0  0  0
  128.3900  123.7990   61.2660 C   0  0  0  0  0  0  0  0  0  0  0  0
  127.3850  123.5040   60.3490 C   0  0  0  0  0  0  0  0  0  0  0  0
  127.7220  123.1340   59.0510 C   0  0  0  0  0  0  0  0  0  0  0  0
  129.0560  123.0570   58.6650 C   0  0  0  0  0  0  0  0  0  0  0  0
  130.0580  123.3520   59.5860 C   0  0  0  0  0  0  0  0  0  0  0  0
  132.1680  124.1650   61.5340 C   0  0  0  0  0  0  0  0  0  0  0  0
  133.1280  124.4680   62.5050 C   0  0  0  0  0  0  0  0  0  0  0  0
  134.5840  124.5990   62.0630 C   0  0  0  0  0  0  0  0  0  0  0  0
  132.7230  124.6440   63.8460 C   0  0  0  0  0  0  0  0  0  0  0  0
  133.7030  125.0100   64.8710 C   0  0  0  0  0  0  0  0  0  0  0  0
  134.4800  125.2980   65.6790 N   0  0  0  0  0  0  0  0  0  0  0  0
  130.2290  127.2890   70.4570 C   0  0  0  0  0  0  0  0  0  0  0  0
  130.0030  127.7360   71.7570 C   0  0  0  0  0  0  0  0  0  0  0  0
  1  2  1  0
  2  3  1  0
  3  4  2  0
  4  5  1  0
  5  6  2  0
  6  7  1  0
  7  8  1  0
  8  9  2  0
  8 10  1  0
 10 11  1  0
 11 12  1  0
 12 13  2  0
 13 14  1  0
 14 15  1  0
 15 16  2  0
 16 17  1  0
 17 18  2  0
 18 19  1  0
 19 20  2  0
 14 21  2  0
 21 22  1  0
 22 23  1  0
 22 24  2  0
 24 25  1  0
 25 26  3  0
  6 27  1  0
 27 28  2  0
 28  3  1  0
 24 12  1  0
 20 15  1  0
M  END
>  <Binding energies>  (17) 
[-8.36]

>  <Ligand effiencies>  (17) 
[-0.2882758620689655]

>  <Interactions>  (17) 
["V-B:GLU:543:CB:9878, V-A:HIS:456:CE1:4068, V-A:HIS:456:CD2:4066, V-B:GLU:543:CD:9880, H-A:HIS:456:NE2:4069, V-A:GLU:543:CD:4906, V-B:HIS:456:CE1:9042, V-A:GLY:544:CA:4912, H-A:LYS:547:NZ:4949, V-B:GLY:544:C:9884, V-A:GLY:544:C:4910, H-B:GLU:543:O:9875, V-B:HIS:456:CD2:9040, V-B:GLU:543:CG:9879, V-A:GLU:543:CG:4905, H-A:GLY:454:N:4048, V-B:GLU:543:C:9874, V-A:ARG:545:CZ:4924, V-A:ARG:545:CG:4920, V-A:LYS:547:CE:4948, H-A:TYR:484:OH:4346, V-A:ARG:545:CD:4921, H-A:ARG:545:NE:4922, V-A:GLY:453:C:4040, V-A:ILE:369:CD1:3237, V-B:PRO:540:CA:9855, V-A:GLY:453:CA:4042, V-B:TYR:539:C:9839, V-A:GLY:454:CA:4047, V-B:ALA:541:CB:9864, V-B:TYR:539:CD2:9846, V-B:TYR:539:CE2:9848, V-B:PRO:540:N:9856, V-B:HIS:456:CG:9038, H-B:GLU:543:OE2:9882, V-B:HIS:456:CB:9037"]

$$$$
3bd_Grossjean_2025
     RDKit          3D

 26 28  0  0  0  0  0  0  0  0999 V2000
  133.3570  123.1760   75.0850 C   0  0  0  0  0  0  0  0  0  0  0  0
  132.1720  123.6830   74.2650 C   0  0  0  0  0  0  0  0  0  0  0  0
  131.1860  122.7650   73.8880 C   0  0  0  0  0  0  0  0  0  0  0  0
  130.0870  123.1900   73.1330 C   0  0  0  0  0  0  0  0  0  0  0  0
  128.9920  122.2600   72.7000 C   0  0  0  0  0  0  0  0  0  0  0  0
  127.9160  121.9720   73.5540 C   0  0  0  0  0  0  0  0  0  0  0  0
  126.8980  121.1080   73.1590 C   0  0  0  0  0  0  0  0  0  0  0  0
  126.9440  120.5170   71.9000 C   0  0  0  0  0  0  0  0  0  0  0  0
  128.0010  120.7830   71.0370 C   0  0  0  0  0  0  0  0  0  0  0  0
  129.0170  121.6470   71.4360 C   0  0  0  0  0  0  0  0  0  0  0  0
  129.9540  124.4920   72.7700 N   0  0  0  0  0  0  0  0  0  0  0  0
  130.9020  125.3970   73.1260 C   0  0  0  0  0  0  0  0  0  0  0  0
  130.6170  127.0720   72.5780 S   0  0  0  0  0  0  0  0  0  0  0  0
  128.8710  127.2170   72.0940 C   0  0  0  0  0  0  0  0  0  0  0  0
  128.1720  128.3730   72.8100 C   0  0  0  0  0  0  0  0  0  0  0  0
  128.6710  129.4980   72.7580 O   0  0  0  0  0  0  0  0  0  0  0  0
  127.0380  128.0530   73.4710 N   0  0  0  0  0  0  0  0  0  0  0  0
  126.1670  128.8910   74.1930 C   0  0  0  0  0  0  0  0  0  0  0  0
  126.7340  130.0490   74.7300 C   0  0  0  0  0  0  0  0  0  0  0  0
  125.9520  130.9350   75.4680 C   0  0  0  0  0  0  0  0  0  0  0  0
  124.6050  130.6570   75.6770 C   0  0  0  0  0  0  0  0  0  0  0  0
  124.0310  129.4980   75.1580 C   0  0  0  0  0  0  0  0  0  0  0  0
  124.8100  128.6110   74.4190 C   0  0  0  0  0  0  0  0  0  0  0  0
  132.0390  125.0350   73.8790 C   0  0  0  0  0  0  0  0  0  0  0  0
  133.0550  126.0210   74.2590 C   0  0  0  0  0  0  0  0  0  0  0  0
  133.8560  126.8000   74.5610 N   0  0  0  0  0  0  0  0  0  0  0  0
  1  2  1  0
  2  3  2  0
  3  4  1  0
  4  5  1  0
  5  6  2  0
  6  7  1  0
  7  8  2  0
  8  9  1  0
  9 10  2  0
  4 11  2  0
 11 12  1  0
 12 13  1  0
 13 14  1  0
 14 15  1  0
 15 16  2  0
 15 17  1  0
 17 18  1  0
 18 19  2  0
 19 20  1  0
 20 21  2  0
 21 22  1  0
 22 23  2  0
 12 24  2  0
 24 25  1  0
 25 26  3  0
 24  2  1  0
 10  5  1  0
 23 18  1  0
M  END
>  <Binding energies>  (18) 
[-9.8]

>  <Ligand effiencies>  (18) 
[-0.362962962962963]

>  <Interactions>  (18) 
["H-B:GLY:544:O:9885, V-A:HIS:456:CD2:4066, H-A:LYS:547:NZ:4949, V-B:GLY:544:C:9884, V-B:HIS:456:CD2:9040, H-B:LYS:547:NZ:9923, V-B:GLU:543:C:9874, V-A:LYS:547:CE:4948, V-A:HIS:456:CG:4064, V-A:HIS:456:CB:4063, V-B:LYS:547:CE:9922, V-B:GLY:544:CA:9886, V-A:HIS:456:C:4059, V-A:TYR:484:CG:4340, V-A:LYS:471:CE:4218, V-A:TYR:484:CB:4339, V-B:GLU:543:CA:9876, V-A:ASP:473:CG:4238, V-A:TYR:484:CD1:4341, V-B:HIS:456:CG:9038, V-A:VAL:458:CG2:4085, V-B:HIS:456:CB:9037, V-A:LYS:471:CD:4217, V-A:LYS:471:CG:4216, V-B:VAL:458:CG2:9059, V-B:HIS:456:C:9033, V-B:HIS:456:CA:9035, V-B:VAL:457:C:9045, V-B:LYS:471:CE:9192, V-B:LYS:471:CG:9190, V-B:LYS:471:CD:9191, V-B:VAL:457:CA:9047"]

$$$$
3be_Grossjean_2025
     RDKit          3D

 27 29  0  0  0  0  0  0  0  0999 V2000
  133.5710  123.8410   60.2320 C   0  0  0  0  0  0  0  0  0  0  0  0
  132.9520  124.4020   61.4970 C   0  0  0  0  0  0  0  0  0  0  0  0
  133.6210  124.3560   62.7220 C   0  0  0  0  0  0  0  0  0  0  0  0
  132.9890  124.8890   63.8450 C   0  0  0  0  0  0  0  0  0  0  0  0
  131.7160  125.4520   63.7180 C   0  0  0  0  0  0  0  0  0  0  0  0
  131.1030  125.4690   62.4600 C   0  0  0  0  0  0  0  0  0  0  0  0
  129.8180  126.0400   62.4000 N   0  0  0  0  0  0  0  0  0  0  0  0
  129.4710  127.3150   62.1210 C   0  0  0  0  0  0  0  0  0  0  0  0
  130.2700  128.2190   61.8700 O   0  0  0  0  0  0  0  0  0  0  0  0
  127.9580  127.5870   62.1320 C   0  0  0  0  0  0  0  0  0  0  0  0
  127.2880  128.3100   60.5970 S   0  0  0  0  0  0  0  0  0  0  0  0
  127.8550  129.9930   60.4840 C   0  0  0  0  0  0  0  0  0  0  0  0
  128.9100  130.1560   59.6480 N   0  0  0  0  0  0  0  0  0  0  0  0
  129.4430  131.3930   59.4640 C   0  0  0  0  0  0  0  0  0  0  0  0
  130.6170  131.4850   58.5340 C   0  0  0  0  0  0  0  0  0  0  0  0
  130.4800  132.0630   57.2620 C   0  0  0  0  0  0  0  0  0  0  0  0
  131.5640  132.1500   56.3930 C   0  0  0  0  0  0  0  0  0  0  0  0
  132.8040  131.6560   56.7850 C   0  0  0  0  0  0  0  0  0  0  0  0
  132.9660  131.0770   58.0380 C   0  0  0  0  0  0  0  0  0  0  0  0
  131.8790  130.9910   58.9040 C   0  0  0  0  0  0  0  0  0  0  0  0
  128.9210  132.5060   60.1310 C   0  0  0  0  0  0  0  0  0  0  0  0
  127.8180  132.3580   60.9780 C   0  0  0  0  0  0  0  0  0  0  0  0
  127.2700  133.6050   61.6710 C   0  0  0  0  0  0  0  0  0  0  0  0
  127.2530  131.0780   61.1600 C   0  0  0  0  0  0  0  0  0  0  0  0
  126.0650  130.9100   62.0000 C   0  0  0  0  0  0  0  0  0  0  0  0
  125.1250  130.7800   62.6640 N   0  0  0  0  0  0  0  0  0  0  0  0
  131.7150  124.9460   61.3580 N   0  0  0  0  0  0  0  0  0  0  0  0
  1  2  1  0
  2  3  2  0
  3  4  1  0
  4  5  2  0
  5  6  1  0
  6  7  1  0
  7  8  1  0
  8  9  2  0
  8 10  1  0
 10 11  1  0
 11 12  1  0
 12 13  2  0
 13 14  1  0
 14 15  1  0
 15 16  2  0
 16 17  1  0
 17 18  2  0
 18 19  1  0
 19 20  2  0
 14 21  2  0
 21 22  1  0
 22 23  1  0
 22 24  2  0
 24 25  1  0
 25 26  3  0
  6 27  2  0
 27  2  1  0
 24 12  1  0
 20 15  1  0
M  END
>  <Binding energies>  (19) 
[-7.26]

>  <Ligand effiencies>  (19) 
[-0.2592857142857143]

>  <Interactions>  (19) 
["V-B:GLU:543:CD:9880, V-A:GLU:543:CD:4906, V-A:ARG:545:CZ:4924, H-B:GLU:543:OE1:9881, V-A:GLY:453:C:4040, V-A:ILE:369:CD1:3237, V-A:GLY:453:CA:4042, V-A:ASP:366:CG:3211, V-A:GLY:454:CA:4047, V-B:LEU:475:CD2:9231, V-A:PRO:540:CA:4881, V-A:PRO:540:N:4882, V-A:PRO:540:CB:4883, V-A:PRO:540:CD:4885, V-A:TYR:539:C:4865, V-A:TYR:531:CE2:4791, V-A:ALA:541:CB:4890, H-A:ARG:545:NH2:4926, H-B:GLU:543:OE2:9882, V-A:ILE:538:CB:4860"]

$$$$
3bf_Grossjean_2025
     RDKit          3D

 26 28  0  0  0  0  0  0  0  0999 V2000
  133.4530  123.2620   75.1070 C   0  0  0  0  0  0  0  0  0  0  0  0
  132.2710  123.7560   74.2750 C   0  0  0  0  0  0  0  0  0  0  0  0
  131.2950  122.8270   73.9000 C   0  0  0  0  0  0  0  0  0  0  0  0
  130.1880  123.2400   73.1500 C   0  0  0  0  0  0  0  0  0  0  0  0
  129.0970  122.2990   72.7360 C   0  0  0  0  0  0  0  0  0  0  0  0
  128.0820  121.9390   73.6360 C   0  0  0  0  0  0  0  0  0  0  0  0
  127.0660  121.0650   73.2600 C   0  0  0  0  0  0  0  0  0  0  0  0
  127.0520  120.5380   71.9720 C   0  0  0  0  0  0  0  0  0  0  0  0
  128.0470  120.8770   71.0620 C   0  0  0  0  0  0  0  0  0  0  0  0
  129.0620  121.7500   71.4440 C   0  0  0  0  0  0  0  0  0  0  0  0
  130.0450  124.5390   72.7760 N   0  0  0  0  0  0  0  0  0  0  0  0
  130.9950  125.4460   73.1110 C   0  0  0  0  0  0  0  0  0  0  0  0
  130.6430  127.0930   72.5320 S   0  0  0  0  0  0  0  0  0  0  0  0
  128.8620  127.1890   72.1490 C   0  0  0  0  0  0  0  0  0  0  0  0
  128.1070  128.3340   72.8410 C   0  0  0  0  0  0  0  0  0  0  0  0
  128.5030  129.4970   72.7430 O   0  0  0  0  0  0  0  0  0  0  0  0
  126.9970  127.9540   73.5100 N   0  0  0  0  0  0  0  0  0  0  0  0
  126.0990  128.7440   74.2510 C   0  0  0  0  0  0  0  0  0  0  0  0
  126.6330  129.8250   74.9600 C   0  0  0  0  0  0  0  0  0  0  0  0
  125.7920  130.6550   75.7040 C   0  0  0  0  0  0  0  0  0  0  0  0
  124.4240  130.3800   75.7130 C   0  0  0  0  0  0  0  0  0  0  0  0
  123.8760  129.3450   75.0270 N   0  0  0  0  0  0  0  0  0  0  0  0
  124.7080  128.5470   74.3080 C   0  0  0  0  0  0  0  0  0  0  0  0
  132.1280  125.1040   73.8820 C   0  0  0  0  0  0  0  0  0  0  0  0
  133.1130  126.1030   74.3060 C   0  0  0  0  0  0  0  0  0  0  0  0
  133.8920  126.8910   74.6400 N   0  0  0  0  0  0  0  0  0  0  0  0
  1  2  1  0
  2  3  2  0
  3  4  1  0
  4  5  1  0
  5  6  2  0
  6  7  1  0
  7  8  2  0
  8  9  1  0
  9 10  2  0
  4 11  2  0
 11 12  1  0
 12 13  1  0
 13 14  1  0
 14 15  1  0
 15 16  2  0
 15 17  1  0
 17 18  1  0
 18 19  2  0
 19 20  1  0
 20 21  2  0
 21 22  1  0
 22 23  2  0
 12 24  2  0
 24 25  1  0
 25 26  3  0
 24  2  1  0
 10  5  1  0
 23 18  1  0
M  END
>  <Binding energies>  (20) 
[-9.47]

>  <Ligand effiencies>  (20) 
[-0.35074074074074074]

>  <Interactions>  (20) 
["H-B:GLY:544:O:9885, V-A:HIS:456:CD2:4066, H-A:LYS:547:NZ:4949, V-B:GLY:544:C:9884, V-B:HIS:456:CD2:9040, H-B:LYS:547:NZ:9923, V-B:GLU:543:C:9874, V-A:HIS:456:CG:4064, V-A:HIS:456:CB:4063, V-B:LYS:547:CE:9922, V-B:GLY:544:CA:9886, V-A:HIS:456:C:4059, V-A:TYR:484:CG:4340, V-A:LYS:471:CE:4218, V-A:TYR:484:CB:4339, V-B:GLU:543:CA:9876, V-A:ASP:473:CG:4238, V-A:TYR:484:CD1:4341, V-B:HIS:456:CG:9038, V-A:VAL:458:CG2:4085, V-B:HIS:456:CB:9037, V-A:LYS:471:CD:4217, V-A:LYS:471:CG:4216, V-B:VAL:458:CG2:9059, V-B:HIS:456:C:9033, V-B:HIS:456:CA:9035, V-B:VAL:457:C:9045, V-B:LYS:471:CE:9192, V-B:LYS:471:CG:9190, V-B:LYS:471:CD:9191, H-B:VAL:457:N:9048, H-B:VAL:458:N:9056"]

$$$$
3bg_Grossjean_2025
     RDKit          3D

 27 29  0  0  0  0  0  0  0  0999 V2000
  130.6460  120.2930   61.0970 C   0  0  0  0  0  0  0  0  0  0  0  0
  130.1560  121.7370   61.0100 C   0  0  0  0  0  0  0  0  0  0  0  0
  128.9080  121.9780   60.4260 C   0  0  0  0  0  0  0  0  0  0  0  0
  128.4180  123.2870   60.3330 C   0  0  0  0  0  0  0  0  0  0  0  0
  127.0800  123.6140   59.7280 C   0  0  0  0  0  0  0  0  0  0  0  0
  126.8940  123.6070   58.3360 C   0  0  0  0  0  0  0  0  0  0  0  0
  125.6540  123.8910   57.7720 C   0  0  0  0  0  0  0  0  0  0  0  0
  124.5740  124.1920   58.5960 C   0  0  0  0  0  0  0  0  0  0  0  0
  124.7310  124.2190   59.9760 C   0  0  0  0  0  0  0  0  0  0  0  0
  125.9740  123.9360   60.5350 C   0  0  0  0  0  0  0  0  0  0  0  0
  129.1380  124.3310   60.8240 N   0  0  0  0  0  0  0  0  0  0  0  0
  130.3500  124.1140   61.3970 C   0  0  0  0  0  0  0  0  0  0  0  0
  131.1770  125.5650   62.0320 S   0  0  0  0  0  0  0  0  0  0  0  0
  131.4860  126.7000   60.6400 C   0  0  0  0  0  0  0  0  0  0  0  0
  130.5480  127.9110   60.6730 C   0  0  0  0  0  0  0  0  0  0  0  0
  129.3750  127.7690   61.0200 O   0  0  0  0  0  0  0  0  0  0  0  0
  131.0730  129.0850   60.2840 N   0  0  0  0  0  0  0  0  0  0  0  0
  130.3210  130.3210   60.0640 C   0  0  0  0  0  0  0  0  0  0  0  0
  130.6590  130.9580   58.7220 C   0  0  0  0  0  0  0  0  0  0  0  0
  131.9830  130.9840   58.2720 C   0  0  0  0  0  0  0  0  0  0  0  0
  132.2930  131.5740   57.0510 C   0  0  0  0  0  0  0  0  0  0  0  0
  131.2760  132.1270   56.2740 C   0  0  0  0  0  0  0  0  0  0  0  0
  129.9520  132.0880   56.7050 C   0  0  0  0  0  0  0  0  0  0  0  0
  129.6430  131.4970   57.9280 C   0  0  0  0  0  0  0  0  0  0  0  0
  130.9080  122.8230   61.5060 C   0  0  0  0  0  0  0  0  0  0  0  0
  132.2140  122.6020   62.1290 C   0  0  0  0  0  0  0  0  0  0  0  0
  133.2460  122.4250   62.6220 N   0  0  0  0  0  0  0  0  0  0  0  0
  1  2  1  0
  2  3  2  0
  3  4  1  0
  4  5  1  0
  5  6  2  0
  6  7  1  0
  7  8  2  0
  8  9  1  0
  9 10  2  0
  4 11  2  0
 11 12  1  0
 12 13  1  0
 13 14  1  0
 14 15  1  0
 15 16  2  0
 15 17  1  0
 17 18  1  0
 18 19  1  0
 19 20  2  0
 20 21  1  0
 21 22  2  0
 22 23  1  0
 23 24  2  0
 12 25  2  0
 25 26  1  0
 26 27  3  0
 25  2  1  0
 10  5  1  0
 24 19  1  0
M  END
>  <Binding energies>  (21) 
[-7.43]

>  <Ligand effiencies>  (21) 
[-0.26535714285714285]

>  <Interactions>  (21) 
["H-A:GLY:454:N:4048, H-A:TYR:484:OH:4346, V-B:PRO:540:C:9853, V-A:LEU:475:CD2:4257, V-B:PRO:540:CA:9855, V-B:TYR:539:C:9839, V-A:ASP:366:CG:3211, V-B:ALA:541:CB:9864, V-B:TYR:539:CD2:9846, V-B:PRO:540:N:9856, V-B:PRO:540:CB:9857, V-A:PRO:540:CA:4881, V-A:PRO:540:N:4882, V-B:ASP:366:CG:8185, V-A:PRO:540:CB:4883, V-A:PRO:540:CD:4885, V-A:TYR:539:C:4865, H-A:ARG:545:NH2:4926, H-A:ASP:366:OD2:3213, H-A:ASP:366:OD1:3212, V-A:ILE:538:CB:4860"]

$$$$
3ca_Grossjean_2025
     RDKit          3D

 31 33  0  0  0  0  0  0  0  0999 V2000
  126.1590  128.7540   73.5480 C   0  0  0  0  0  0  0  0  0  0  0  0
  127.1920  127.9860   74.3770 C   0  0  0  0  0  0  0  0  0  0  0  0
  128.4410  127.9870   73.6950 O   0  0  0  0  0  0  0  0  0  0  0  0
  128.6820  128.8480   72.6740 C   0  0  0  0  0  0  0  0  0  0  0  0
  128.7510  130.0730   72.8180 O   0  0  0  0  0  0  0  0  0  0  0  0
  128.8630  128.1620   71.3500 C   0  0  0  0  0  0  0  0  0  0  0  0
  130.1480  127.7720   70.9520 C   0  0  0  0  0  0  0  0  0  0  0  0
  130.3480  127.1350   69.7300 C   0  0  0  0  0  0  0  0  0  0  0  0
  129.2710  126.8820   68.8790 C   0  0  0  0  0  0  0  0  0  0  0  0
  129.5840  126.2320   67.6700 N   0  0  0  0  0  0  0  0  0  0  0  0
  130.5420  126.5160   66.7620 C   0  0  0  0  0  0  0  0  0  0  0  0
  131.3610  127.4310   66.8530 O   0  0  0  0  0  0  0  0  0  0  0  0
  130.5890  125.5840   65.5470 C   0  0  0  0  0  0  0  0  0  0  0  0
  132.1290  125.7390   64.5820 S   0  0  0  0  0  0  0  0  0  0  0  0
  132.0740  124.6430   63.1700 C   0  0  0  0  0  0  0  0  0  0  0  0
  133.0480  123.7000   63.1200 N   0  0  0  0  0  0  0  0  0  0  0  0
  133.0570  122.8240   62.0920 C   0  0  0  0  0  0  0  0  0  0  0  0
  134.1650  121.7910   62.1160 C   0  0  0  0  0  0  0  0  0  0  0  0
  132.1120  122.8600   61.0700 C   0  0  0  0  0  0  0  0  0  0  0  0
  131.1060  123.8350   61.0890 C   0  0  0  0  0  0  0  0  0  0  0  0
  130.1230  123.8440   59.9640 C   0  0  0  0  0  0  0  0  0  0  0  0
  128.9260  123.1240   60.0720 C   0  0  0  0  0  0  0  0  0  0  0  0
  128.0080  123.1180   59.0260 C   0  0  0  0  0  0  0  0  0  0  0  0
  128.2850  123.8310   57.8620 C   0  0  0  0  0  0  0  0  0  0  0  0
  129.4740  124.5460   57.7350 C   0  0  0  0  0  0  0  0  0  0  0  0
  130.3900  124.5490   58.7840 C   0  0  0  0  0  0  0  0  0  0  0  0
  131.0760  124.7500   62.1720 C   0  0  0  0  0  0  0  0  0  0  0  0
  130.0180  125.7610   62.2730 C   0  0  0  0  0  0  0  0  0  0  0  0
  129.1820  126.5570   62.3520 N   0  0  0  0  0  0  0  0  0  0  0  0
  127.9790  127.2630   69.2740 C   0  0  0  0  0  0  0  0  0  0  0  0
  127.7810  127.8980   70.4970 C   0  0  0  0  0  0  0  0  0  0  0  0
  1  2  1  0
  2  3  1  0
  3  4  1  0
  4  5  2  0
  4  6  1  0
  6  7  2  0
  7  8  1  0
  8  9  2  0
  9 10  1  0
 10 11  1  0
 11 12  2  0
 11 13  1  0
 13 14  1  0
 14 15  1  0
 15 16  2  0
 16 17  1  0
 17 18  1  0
 17 19  2  0
 19 20  1  0
 20 21  1  0
 21 22  2  0
 22 23  1  0
 23 24  2  0
 24 25  1  0
 25 26  2  0
 20 27  2  0
 27 28  1  0
 28 29  3  0
  9 30  1  0
 30 31  2  0
 31  6  1  0
 27 15  1  0
 26 21  1  0
M  END
>  <Binding energies>  (22) 
[-8.16]

>  <Ligand effiencies>  (22) 
[-0.255]

>  <Interactions>  (22) 
["V-B:GLU:543:CB:9878, V-A:HIS:456:CE1:4068, V-A:HIS:456:CD2:4066, V-B:GLU:543:CD:9880, H-A:HIS:456:NE2:4069, V-A:GLU:543:CD:4906, V-B:HIS:456:CE1:9042, V-A:GLY:544:CA:4912, H-A:LYS:547:NZ:4949, V-B:GLY:544:C:9884, V-A:GLY:544:C:4910, H-B:GLU:543:O:9875, V-B:HIS:456:CD2:9040, V-B:GLU:543:CG:9879, H-A:GLY:454:N:4048, H-B:LYS:547:NZ:9923, V-B:GLU:543:C:9874, V-A:LYS:547:CE:4948, H-A:TYR:484:OH:4346, V-B:LYS:547:CE:9922, H-B:GLU:543:OE1:9881, H-A:ARG:545:NE:4922, V-A:GLU:543:C:4900, V-A:GLY:453:C:4040, V-A:ILE:369:CD1:3237, V-A:LEU:475:CD2:4257, V-B:PRO:540:CA:9855, V-B:TYR:539:C:9839, V-A:GLY:454:CA:4047, V-B:TYR:539:CE2:9848, V-B:PRO:540:N:9856, H-A:ARG:545:NH2:4926, V-B:HIS:456:CG:9038, V-B:LYS:547:CD:9921, H-B:GLU:543:OE2:9882, V-B:HIS:456:CB:9037"]

$$$$
3ce_Grossjean_2025
     RDKit          3D

 27 29  0  0  0  0  0  0  0  0999 V2000
  129.9130  127.5410   71.2250 C   0  0  0  0  0  0  0  0  0  0  0  0
  129.3880  127.4390   69.8060 C   0  0  0  0  0  0  0  0  0  0  0  0
  128.0340  127.6210   69.5130 C   0  0  0  0  0  0  0  0  0  0  0  0
  127.6240  127.5220   68.1840 C   0  0  0  0  0  0  0  0  0  0  0  0
  128.5650  127.2460   67.1890 C   0  0  0  0  0  0  0  0  0  0  0  0
  129.9040  127.0650   67.5530 C   0  0  0  0  0  0  0  0  0  0  0  0
  130.8090  126.8090   66.5090 N   0  0  0  0  0  0  0  0  0  0  0  0
  131.1080  125.6230   65.9340 C   0  0  0  0  0  0  0  0  0  0  0  0
  130.6080  124.5410   66.2460 O   0  0  0  0  0  0  0  0  0  0  0  0
  132.1430  125.6730   64.8110 C   0  0  0  0  0  0  0  0  0  0  0  0
  131.8690  124.3690   63.5750 S   0  0  0  0  0  0  0  0  0  0  0  0
  130.8430  125.1010   62.3210 C   0  0  0  0  0  0  0  0  0  0  0  0
  130.8110  126.4560   62.3570 N   0  0  0  0  0  0  0  0  0  0  0  0
  130.0710  127.1100   61.4320 C   0  0  0  0  0  0  0  0  0  0  0  0
  130.0900  128.6240   61.5220 C   0  0  0  0  0  0  0  0  0  0  0  0
  129.3330  126.4460   60.4560 C   0  0  0  0  0  0  0  0  0  0  0  0
  129.3330  125.0450   60.4180 C   0  0  0  0  0  0  0  0  0  0  0  0
  128.5060  124.3780   59.3690 C   0  0  0  0  0  0  0  0  0  0  0  0
  127.1090  124.4170   59.4450 C   0  0  0  0  0  0  0  0  0  0  0  0
  126.3310  123.7920   58.4740 C   0  0  0  0  0  0  0  0  0  0  0  0
  126.9480  123.1170   57.4240 C   0  0  0  0  0  0  0  0  0  0  0  0
  128.3370  123.0600   57.3400 C   0  0  0  0  0  0  0  0  0  0  0  0
  129.1120  123.6870   58.3120 C   0  0  0  0  0  0  0  0  0  0  0  0
  130.1120  124.3450   61.3740 C   0  0  0  0  0  0  0  0  0  0  0  0
  130.1630  122.8800   61.3750 C   0  0  0  0  0  0  0  0  0  0  0  0
  130.2030  121.7240   61.3740 N   0  0  0  0  0  0  0  0  0  0  0  0
  130.3140  127.1670   68.8520 N   0  0  0  0  0  0  0  0  0  0  0  0
  1  2  1  0
  2  3  2  0
  3  4  1  0
  4  5  2  0
  5  6  1  0
  6  7  1  0
  7  8  1  0
  8  9  2  0
  8 10  1  0
 10 11  1  0
 11 12  1  0
 12 13  2  0
 13 14  1  0
 14 15  1  0
 14 16  2  0
 16 17  1  0
 17 18  1  0
 18 19  2  0
 19 20  1  0
 20 21  2  0
 21 22  1  0
 22 23  2  0
 17 24  2  0
 24 25  1  0
 25 26  3  0
  6 27  2  0
 27  2  1  0
 24 12  1  0
 23 18  1  0
M  END
>  <Binding energies>  (23) 
[-7.58]

>  <Ligand effiencies>  (23) 
[-0.27071428571428574]

>  <Interactions>  (23) 
["V-B:GLU:543:CB:9878, V-A:HIS:456:CE1:4068, V-B:GLU:543:CD:9880, V-A:GLU:543:CD:4906, V-B:HIS:456:CE1:9042, V-A:GLY:544:CA:4912, V-B:GLY:544:C:9884, V-A:GLY:544:C:4910, V-B:GLU:543:CG:9879, V-A:GLU:543:CG:4905, V-A:ARG:545:CZ:4924, V-A:ARG:545:CG:4920, H-A:TYR:484:OH:4346, V-A:ARG:545:CD:4921, V-B:TYR:539:CZ:9849, V-B:TYR:539:CG:9844, V-B:PRO:540:CA:9855, V-B:TYR:539:C:9839, V-B:ALA:541:CB:9864, V-B:TYR:539:CD2:9846, V-B:TYR:539:CE2:9848, V-B:PRO:540:N:9856, V-B:PRO:540:CB:9857, H-A:ARG:545:NH2:4926, H-A:GLU:543:OE2:4908, V-B:ARG:545:CG:9894"]

$$$$
3cj_Grossjean_2025
     RDKit          3D

 25 27  0  0  0  0  0  0  0  0999 V2000
  130.5660  121.0920   61.4580 C   0  0  0  0  0  0  0  0  0  0  0  0
  130.3910  122.0850   60.3250 C   0  0  0  0  0  0  0  0  0  0  0  0
  129.1510  122.2950   59.7270 C   0  0  0  0  0  0  0  0  0  0  0  0
  129.0300  123.2390   58.6980 C   0  0  0  0  0  0  0  0  0  0  0  0
  127.6700  123.4780   58.1300 C   0  0  0  0  0  0  0  0  0  0  0  0
  126.6550  124.0270   58.9230 C   0  0  0  0  0  0  0  0  0  0  0  0
  125.3840  124.2380   58.3960 C   0  0  0  0  0  0  0  0  0  0  0  0
  125.1210  123.8930   57.0740 C   0  0  0  0  0  0  0  0  0  0  0  0
  126.1170  123.3370   56.2760 C   0  0  0  0  0  0  0  0  0  0  0  0
  127.3880  123.1280   56.8040 C   0  0  0  0  0  0  0  0  0  0  0  0
  130.1930  123.9290   58.2750 C   0  0  0  0  0  0  0  0  0  0  0  0
  130.1360  124.9070   57.1840 C   0  0  0  0  0  0  0  0  0  0  0  0
  130.0900  125.6800   56.3240 N   0  0  0  0  0  0  0  0  0  0  0  0
  131.4080  123.6560   58.9420 C   0  0  0  0  0  0  0  0  0  0  0  0
  132.9120  124.5460   58.6020 S   0  0  0  0  0  0  0  0  0  0  0  0
  134.1590  123.7890   59.6920 C   0  0  0  0  0  0  0  0  0  0  0  0
  133.6620  123.6770   61.1370 C   0  0  0  0  0  0  0  0  0  0  0  0
  133.6960  122.5850   61.7080 O   0  0  0  0  0  0  0  0  0  0  0  0
  133.2480  124.8340   61.6980 N   0  0  0  0  0  0  0  0  0  0  0  0
  132.8820  125.0280   63.0200 C   0  0  0  0  0  0  0  0  0  0  0  0
  133.6570  125.0200   64.0820 N   0  0  0  0  0  0  0  0  0  0  0  0
  132.9740  125.2720   65.1810 C   0  0  0  0  0  0  0  0  0  0  0  0
  131.6090  125.4910   65.0210 C   0  0  0  0  0  0  0  0  0  0  0  0
  131.2080  125.3570   63.3340 S   0  0  0  0  0  0  0  0  0  0  0  0
  131.5030  122.7580   59.9540 N   0  0  0  0  0  0  0  0  0  0  0  0
  1  2  1  0
  2  3  2  0
  3  4  1  0
  4  5  1  0
  5  6  2  0
  6  7  1  0
  7  8  2  0
  8  9  1  0
  9 10  2  0
  4 11  2  0
 11 12  1  0
 12 13  3  0
 11 14  1  0
 14 15  1  0
 15 16  1  0
 16 17  1  0
 17 18  2  0
 17 19  1  0
 19 20  1  0
 20 21  2  0
 21 22  1  0
 22 23  2  0
 23 24  1  0
 14 25  2  0
 25  2  1  0
 10  5  1  0
 24 20  1  0
M  END
>  <Binding energies>  (24) 
[-8.03]

>  <Ligand effiencies>  (24) 
[-0.3088461538461538]

>  <Interactions>  (24) 
["V-A:HIS:456:CE1:4068, H-A:GLY:454:N:4048, V-A:ARG:545:CZ:4924, V-A:ARG:545:CG:4920, H-A:TYR:484:OH:4346, V-A:ARG:545:CD:4921, H-A:ARG:545:NH1:4925, H-A:ARG:545:NE:4922, V-B:TYR:539:CZ:9849, V-A:ILE:369:CD1:3237, V-A:LEU:475:CD2:4257, V-B:PRO:540:CA:9855, V-B:TYR:539:C:9839, V-A:ASP:366:CG:3211, V-B:PRO:540:CD:9859, V-B:ALA:541:CB:9864, V-B:TYR:539:CD2:9846, V-B:TYR:539:CE2:9848, V-A:ILE:369:CG2:3235, V-B:PRO:540:N:9856, V-B:PRO:540:CB:9857, V-A:ASP:366:CA:3208, V-A:ILE:369:CB:3234, H-A:ARG:545:NH2:4926, H-A:ASP:366:OD2:3213, H-A:ASP:366:OD1:3212"]

$$$$
4ba_Grossjean_2025
     RDKit          3D

 28 30  0  0  0  0  0  0  0  0999 V2000
  130.1530  127.3600   72.5910 C   0  0  0  0  0  0  0  0  0  0  0  0
  129.4530  128.4940   71.8200 C   0  0  0  0  0  0  0  0  0  0  0  0
  128.5070  128.0330   70.6920 C   0  0  0  0  0  0  0  0  0  0  0  0
  127.2900  128.0090   70.8910 O   0  0  0  0  0  0  0  0  0  0  0  0
  129.1250  127.6330   69.3830 C   0  0  0  0  0  0  0  0  0  0  0  0
  128.2970  127.2500   68.3200 C   0  0  0  0  0  0  0  0  0  0  0  0
  128.8430  126.8730   67.0970 C   0  0  0  0  0  0  0  0  0  0  0  0
  130.2250  126.8760   66.9080 C   0  0  0  0  0  0  0  0  0  0  0  0
  130.6700  126.4690   65.6350 N   0  0  0  0  0  0  0  0  0  0  0  0
  131.7990  125.8110   65.2750 C   0  0  0  0  0  0  0  0  0  0  0  0
  132.6890  125.4830   66.0610 O   0  0  0  0  0  0  0  0  0  0  0  0
  131.9230  125.5200   63.8450 C   0  0  0  0  0  0  0  0  0  0  0  0
  133.3250  124.6400   63.2390 S   0  0  0  0  0  0  0  0  0  0  0  0
  132.7510  124.7680   61.5930 C   0  0  0  0  0  0  0  0  0  0  0  0
  133.4390  124.2520   60.5760 N   0  0  0  0  0  0  0  0  0  0  0  0
  132.8960  124.4140   59.3480 C   0  0  0  0  0  0  0  0  0  0  0  0
  133.7000  123.8260   58.2020 C   0  0  0  0  0  0  0  0  0  0  0  0
  131.6900  125.0710   59.1150 C   0  0  0  0  0  0  0  0  0  0  0  0
  130.9600  125.6170   60.1830 C   0  0  0  0  0  0  0  0  0  0  0  0
  129.6380  126.3280   59.8780 C   0  0  0  0  0  0  0  0  0  0  0  0
  129.6320  127.6070   60.2600 F   0  0  0  0  0  0  0  0  0  0  0  0
  129.4010  126.3020   58.5660 F   0  0  0  0  0  0  0  0  0  0  0  0
  128.6400  125.7170   60.5180 F   0  0  0  0  0  0  0  0  0  0  0  0
  131.5090  125.4680   61.4920 C   0  0  0  0  0  0  0  0  0  0  0  0
  131.0660  125.8930   62.7970 C   0  0  0  0  0  0  0  0  0  0  0  0
  129.9060  126.6000   62.9900 N   0  0  0  0  0  0  0  0  0  0  0  0
  131.0620  127.2520   67.9700 C   0  0  0  0  0  0  0  0  0  0  0  0
  130.5140  127.6280   69.1930 C   0  0  0  0  0  0  0  0  0  0  0  0
  1  2  1  0
  2  3  1  0
  3  4  2  0
  3  5  1  0
  5  6  2  0
  6  7  1  0
  7  8  2  0
  8  9  1  0
  9 10  1  0
 10 11  2  0
 10 12  1  0
 12 13  1  0
 13 14  1  0
 14 15  2  0
 15 16  1  0
 16 17  1  0
 16 18  2  0
 18 19  1  0
 19 20  1  0
 20 21  1  0
 20 22  1  0
 20 23  1  0
 19 24  2  0
 24 25  1  0
 25 26  1  0
  8 27  1  0
 27 28  2  0
 28  5  1  0
 25 12  2  0
 24 14  1  0
M  END
>  <Binding energies>  (25) 
[-7.12]

>  <Ligand effiencies>  (25) 
[-0.2296774193548387]

>  <Interactions>  (25) 
["V-B:GLU:543:CB:9878, V-A:HIS:456:CE1:4068, V-B:GLU:543:CD:9880, V-A:GLU:543:CD:4906, V-B:HIS:456:CE1:9042, V-A:GLY:544:CA:4912, V-A:GLY:544:C:4910, V-B:HIS:456:CD2:9040, V-B:GLU:543:CG:9879, V-A:GLU:543:CG:4905, V-B:GLU:543:C:9874, V-A:ARG:545:CZ:4924, V-A:ARG:545:CG:4920, V-A:LYS:547:CE:4948, H-A:TYR:484:OH:4346, V-A:ARG:545:CD:4921, H-B:GLU:543:OE1:9881, H-A:ARG:545:NE:4922, V-A:GLU:543:C:4900, V-B:TYR:539:CZ:9849, V-A:ASP:366:CG:3211, V-B:TYR:539:CE2:9848, V-A:ILE:369:CG2:3235, V-A:ASP:366:CA:3208, V-A:ASP:366:CB:3210, V-A:ILE:369:CB:3234, H-A:GLU:543:OE2:4908, H-A:GLU:543:OE1:4907, H-B:HIS:456:ND1:9039, H-B:GLU:543:OE2:9882, H-A:HIS:456:ND1:4065"]

$$$$
4bb_Grossjean_2025
     RDKit          3D

 27 29  0  0  0  0  0  0  0  0999 V2000
  129.4110  128.4920   71.8210 C   0  0  0  0  0  0  0  0  0  0  0  0
  128.4780  128.0110   70.7070 C   0  0  0  0  0  0  0  0  0  0  0  0
  127.2690  127.9700   70.9390 O   0  0  0  0  0  0  0  0  0  0  0  0
  129.0860  127.6060   69.3970 C   0  0  0  0  0  0  0  0  0  0  0  0
  128.2500  127.2100   68.3450 C   0  0  0  0  0  0  0  0  0  0  0  0
  128.7890  126.8290   67.1200 C   0  0  0  0  0  0  0  0  0  0  0  0
  130.1700  126.8430   66.9190 C   0  0  0  0  0  0  0  0  0  0  0  0
  130.6070  126.4360   65.6430 N   0  0  0  0  0  0  0  0  0  0  0  0
  131.7070  125.7310   65.2830 C   0  0  0  0  0  0  0  0  0  0  0  0
  132.5650  125.3360   66.0720 O   0  0  0  0  0  0  0  0  0  0  0  0
  131.8440  125.4780   63.8460 C   0  0  0  0  0  0  0  0  0  0  0  0
  133.2390  124.5960   63.2290 S   0  0  0  0  0  0  0  0  0  0  0  0
  132.6810  124.7710   61.5810 C   0  0  0  0  0  0  0  0  0  0  0  0
  133.3650  124.2650   60.5580 N   0  0  0  0  0  0  0  0  0  0  0  0
  132.8330  124.4650   59.3300 C   0  0  0  0  0  0  0  0  0  0  0  0
  133.6290  123.8790   58.1780 C   0  0  0  0  0  0  0  0  0  0  0  0
  131.6450  125.1540   59.1040 C   0  0  0  0  0  0  0  0  0  0  0  0
  130.9190  125.6890   60.1790 C   0  0  0  0  0  0  0  0  0  0  0  0
  129.6160  126.4390   59.8800 C   0  0  0  0  0  0  0  0  0  0  0  0
  129.6260  127.6990   60.3220 F   0  0  0  0  0  0  0  0  0  0  0  0
  129.4100  126.4790   58.5640 F   0  0  0  0  0  0  0  0  0  0  0  0
  128.5930  125.8180   60.4670 F   0  0  0  0  0  0  0  0  0  0  0  0
  131.4520  125.4960   61.4890 C   0  0  0  0  0  0  0  0  0  0  0  0
  131.0020  125.8910   62.8000 C   0  0  0  0  0  0  0  0  0  0  0  0
  129.8460  126.6010   63.0030 N   0  0  0  0  0  0  0  0  0  0  0  0
  131.0140  127.2320   67.9710 C   0  0  0  0  0  0  0  0  0  0  0  0
  130.4730  127.6120   69.1970 C   0  0  0  0  0  0  0  0  0  0  0  0
  1  2  1  0
  2  3  2  0
  2  4  1  0
  4  5  2  0
  5  6  1  0
  6  7  2  0
  7  8  1  0
  8  9  1  0
  9 10  2  0
  9 11  1  0
 11 12  1  0
 12 13  1  0
 13 14  2  0
 14 15  1  0
 15 16  1  0
 15 17  2  0
 17 18  1  0
 18 19  1  0
 19 20  1  0
 19 21  1  0
 19 22  1  0
 18 23  2  0
 23 24  1  0
 24 25  1  0
  7 26  1  0
 26 27  2  0
 27  4  1  0
 24 11  2  0
 23 13  1  0
M  END
>  <Binding energies>  (26) 
[-6.89]

>  <Ligand effiencies>  (26) 
[-0.22966666666666666]

>  <Interactions>  (26) 
["V-B:GLU:543:CB:9878, V-A:HIS:456:CE1:4068, V-B:GLU:543:CD:9880, V-A:GLU:543:CD:4906, V-B:HIS:456:CE1:9042, V-A:GLY:544:CA:4912, V-A:GLY:544:C:4910, V-B:HIS:456:CD2:9040, V-B:GLU:543:CG:9879, V-A:GLU:543:CG:4905, V-B:GLU:543:C:9874, V-A:ARG:545:CZ:4924, V-A:ARG:545:CG:4920, V-A:LYS:547:CE:4948, H-A:TYR:484:OH:4346, H-B:GLU:543:OE1:9881, H-A:ARG:545:NE:4922, V-A:GLU:543:C:4900, V-B:TYR:539:CZ:9849, V-A:ASP:366:CG:3211, V-B:TYR:539:CE2:9848, V-A:ILE:369:CG2:3235, V-A:ASP:366:CA:3208, V-A:ASP:366:CB:3210, V-A:ILE:369:CB:3234, H-A:GLU:543:OE2:4908, H-A:GLU:543:OE1:4907, H-B:HIS:456:ND1:9039, H-B:GLU:543:OE2:9882, H-A:HIS:456:ND1:4065"]

$$$$
4bd_Grossjean_2025
     RDKit          3D

 24 26  0  0  0  0  0  0  0  0999 V2000
  133.7480  123.8410   58.8350 C   0  0  0  0  0  0  0  0  0  0  0  0
  132.8480  124.4670   59.8850 C   0  0  0  0  0  0  0  0  0  0  0  0
  131.9270  125.4540   59.5460 C   0  0  0  0  0  0  0  0  0  0  0  0
  131.1030  126.0260   60.5270 C   0  0  0  0  0  0  0  0  0  0  0  0
  130.1070  127.1120   60.1060 C   0  0  0  0  0  0  0  0  0  0  0  0
  128.8400  126.7910   60.3750 F   0  0  0  0  0  0  0  0  0  0  0  0
  130.3760  128.2470   60.7510 F   0  0  0  0  0  0  0  0  0  0  0  0
  130.1950  127.3200   58.7930 F   0  0  0  0  0  0  0  0  0  0  0  0
  131.2540  125.5510   61.8640 C   0  0  0  0  0  0  0  0  0  0  0  0
  130.6010  125.8890   63.1060 C   0  0  0  0  0  0  0  0  0  0  0  0
  129.6110  126.8330   63.1870 N   0  0  0  0  0  0  0  0  0  0  0  0
  131.0710  125.1670   64.2160 C   0  0  0  0  0  0  0  0  0  0  0  0
  130.6480  125.2680   65.6160 C   0  0  0  0  0  0  0  0  0  0  0  0
  130.6800  124.2820   66.3540 O   0  0  0  0  0  0  0  0  0  0  0  0
  130.2460  126.5000   66.0140 N   0  0  0  0  0  0  0  0  0  0  0  0
  129.7480  126.9180   67.2620 C   0  0  0  0  0  0  0  0  0  0  0  0
  128.3560  126.9850   67.3750 C   0  0  0  0  0  0  0  0  0  0  0  0
  127.7660  127.3790   68.5720 C   0  0  0  0  0  0  0  0  0  0  0  0
  128.5680  127.6980   69.6650 C   0  0  0  0  0  0  0  0  0  0  0  0
  129.9550  127.6230   69.5700 C   0  0  0  0  0  0  0  0  0  0  0  0
  130.5490  127.2300   68.3730 C   0  0  0  0  0  0  0  0  0  0  0  0
  132.3390  124.0350   63.7510 S   0  0  0  0  0  0  0  0  0  0  0  0
  132.2360  124.5350   62.0790 C   0  0  0  0  0  0  0  0  0  0  0  0
  133.0150  123.9960   61.1430 N   0  0  0  0  0  0  0  0  0  0  0  0
  1  2  1  0
  2  3  2  0
  3  4  1  0
  4  5  1  0
  5  6  1  0
  5  7  1  0
  5  8  1  0
  4  9  2  0
  9 10  1  0
 10 11  1  0
 10 12  2  0
 12 13  1  0
 13 14  2  0
 13 15  1  0
 15 16  1  0
 16 17  2  0
 17 18  1  0
 18 19  2  0
 19 20  1  0
 20 21  2  0
 12 22  1  0
 22 23  1  0
 23 24  2  0
 24  2  1  0
 23  9  1  0
 21 16  1  0
M  END
>  <Binding energies>  (27) 
[-6.26]

>  <Ligand effiencies>  (27) 
[-0.23185185185185184]

>  <Interactions>  (27) 
["V-B:GLU:543:CB:9878, V-A:HIS:456:CE1:4068, V-B:GLU:543:CD:9880, V-A:GLU:543:CD:4906, V-B:HIS:456:CE1:9042, V-A:GLY:544:C:4910, V-B:GLU:543:CG:9879, V-A:GLU:543:CG:4905, V-B:GLU:543:C:9874, V-A:ARG:545:CG:4920, H-A:TYR:484:OH:4346, H-B:GLU:543:OE1:9881, V-A:GLU:543:C:4900, V-A:ILE:369:CD1:3237, V-A:ASP:366:CG:3211, V-B:TYR:539:CE2:9848, V-A:ILE:369:CG2:3235, V-A:ASP:366:CA:3208, V-A:ASP:366:CB:3210, V-A:ILE:369:CB:3234, H-A:GLU:543:OE2:4908, H-A:GLU:543:OE1:4907, H-B:GLU:543:OE2:9882"]

$$$$
4be_Grossjean_2025
     RDKit          3D

 25 27  0  0  0  0  0  0  0  0999 V2000
  130.6280  127.2580   70.6240 C   0  0  0  0  0  0  0  0  0  0  0  0
  129.7190  127.2650   69.4100 C   0  0  0  0  0  0  0  0  0  0  0  0
  128.3840  127.6690   69.4980 C   0  0  0  0  0  0  0  0  0  0  0  0
  127.6060  127.6470   68.3410 C   0  0  0  0  0  0  0  0  0  0  0  0
  128.1740  127.2280   67.1350 C   0  0  0  0  0  0  0  0  0  0  0  0
  129.5190  126.8430   67.1160 C   0  0  0  0  0  0  0  0  0  0  0  0
  130.0280  126.4240   65.8730 N   0  0  0  0  0  0  0  0  0  0  0  0
  130.5580  125.2230   65.5300 C   0  0  0  0  0  0  0  0  0  0  0  0
  130.6670  124.2740   66.3090 O   0  0  0  0  0  0  0  0  0  0  0  0
  131.0310  125.1160   64.1470 C   0  0  0  0  0  0  0  0  0  0  0  0
  132.3390  124.0060   63.7430 S   0  0  0  0  0  0  0  0  0  0  0  0
  132.2940  124.4930   62.0640 C   0  0  0  0  0  0  0  0  0  0  0  0
  133.1190  123.9610   61.1640 N   0  0  0  0  0  0  0  0  0  0  0  0
  132.9880  124.4160   59.8960 C   0  0  0  0  0  0  0  0  0  0  0  0
  133.9380  123.7990   58.8870 C   0  0  0  0  0  0  0  0  0  0  0  0
  132.0600  125.3800   59.5120 C   0  0  0  0  0  0  0  0  0  0  0  0
  131.1870  125.9440   60.4560 C   0  0  0  0  0  0  0  0  0  0  0  0
  130.1800  126.9990   59.9850 C   0  0  0  0  0  0  0  0  0  0  0  0
  128.9120  126.6450   60.2070 F   0  0  0  0  0  0  0  0  0  0  0  0
  130.3920  128.1450   60.6310 F   0  0  0  0  0  0  0  0  0  0  0  0
  130.3160  127.1990   58.6750 F   0  0  0  0  0  0  0  0  0  0  0  0
  131.3020  125.4890   61.8040 C   0  0  0  0  0  0  0  0  0  0  0  0
  130.6030  125.8320   63.0180 C   0  0  0  0  0  0  0  0  0  0  0  0
  129.6050  126.7710   63.0580 N   0  0  0  0  0  0  0  0  0  0  0  0
  130.2850  126.8560   68.2460 N   0  0  0  0  0  0  0  0  0  0  0  0
  1  2  1  0
  2  3  2  0
  3  4  1  0
  4  5  2  0
  5  6  1  0
  6  7  1  0
  7  8  1  0
  8  9  2  0
  8 10  1  0
 10 11  1  0
 11 12  1  0
 12 13  2  0
 13 14  1  0
 14 15  1  0
 14 16  2  0
 16 17  1  0
 17 18  1  0
 18 19  1  0
 18 20  1  0
 18 21  1  0
 17 22  2  0
 22 23  1  0
 23 24  1  0
  6 25  2  0
 25  2  1  0
 23 10  2  0
 22 12  1  0
M  END
>  <Binding energies>  (28) 
[-6.34]

>  <Ligand effiencies>  (28) 
[-0.22642857142857142]

>  <Interactions>  (28) 
["V-B:GLU:543:CB:9878, V-A:HIS:456:CE1:4068, V-A:HIS:456:CD2:4066, V-B:GLU:543:CD:9880, V-A:GLU:543:CD:4906, V-B:HIS:456:CE1:9042, V-A:GLY:544:CA:4912, V-A:GLY:544:C:4910, V-B:GLU:543:CG:9879, H-A:TYR:484:OH:4346, H-B:GLU:543:OE1:9881, V-A:ILE:369:CD1:3237, V-A:ASP:366:CG:3211, V-B:TYR:539:CE2:9848, V-A:ILE:369:CG2:3235, V-A:ASP:366:CA:3208, V-A:ASP:366:CB:3210, V-A:ILE:369:CB:3234, H-A:GLU:543:OE2:4908, H-A:GLU:543:OE1:4907, H-B:GLU:543:OE2:9882"]

$$$$
4bg_Grossjean_2025
     RDKit          3D

 25 27  0  0  0  0  0  0  0  0999 V2000
  134.0360  123.5960   59.1990 C   0  0  0  0  0  0  0  0  0  0  0  0
  133.0680  124.2250   60.1850 C   0  0  0  0  0  0  0  0  0  0  0  0
  131.9250  124.8870   59.7460 C   0  0  0  0  0  0  0  0  0  0  0  0
  131.0410  125.4700   60.6690 C   0  0  0  0  0  0  0  0  0  0  0  0
  129.7970  126.1880   60.1380 C   0  0  0  0  0  0  0  0  0  0  0  0
  128.6580  125.6780   60.6110 F   0  0  0  0  0  0  0  0  0  0  0  0
  129.8350  127.4740   60.4890 F   0  0  0  0  0  0  0  0  0  0  0  0
  129.7540  126.0960   58.8090 F   0  0  0  0  0  0  0  0  0  0  0  0
  131.3690  125.3470   62.0510 C   0  0  0  0  0  0  0  0  0  0  0  0
  130.7250  125.8070   63.2570 C   0  0  0  0  0  0  0  0  0  0  0  0
  129.5610  126.5330   63.2480 N   0  0  0  0  0  0  0  0  0  0  0  0
  131.3910  125.4400   64.4370 C   0  0  0  0  0  0  0  0  0  0  0  0
  131.0400  125.7610   65.8200 C   0  0  0  0  0  0  0  0  0  0  0  0
  130.3630  124.9930   66.5060 O   0  0  0  0  0  0  0  0  0  0  0  0
  131.5330  126.9210   66.3010 N   0  0  0  0  0  0  0  0  0  0  0  0
  131.3000  127.4500   67.6450 C   0  0  0  0  0  0  0  0  0  0  0  0
  129.8380  127.4140   68.0700 C   0  0  0  0  0  0  0  0  0  0  0  0
  128.8270  127.4080   67.1040 C   0  0  0  0  0  0  0  0  0  0  0  0
  127.4930  127.3360   67.4950 C   0  0  0  0  0  0  0  0  0  0  0  0
  127.1730  127.2560   68.8490 C   0  0  0  0  0  0  0  0  0  0  0  0
  128.1760  127.2450   69.8150 C   0  0  0  0  0  0  0  0  0  0  0  0
  129.5110  127.3180   69.4250 C   0  0  0  0  0  0  0  0  0  0  0  0
  132.8650  124.5410   64.0880 S   0  0  0  0  0  0  0  0  0  0  0  0
  132.5680  124.6360   62.3690 C   0  0  0  0  0  0  0  0  0  0  0  0
  133.4040  124.0880   61.4880 N   0  0  0  0  0  0  0  0  0  0  0  0
  1  2  1  0
  2  3  2  0
  3  4  1  0
  4  5  1  0
  5  6  1  0
  5  7  1  0
  5  8  1  0
  4  9  2  0
  9 10  1  0
 10 11  1  0
 10 12  2  0
 12 13  1  0
 13 14  2  0
 13 15  1  0
 15 16  1  0
 16 17  1  0
 17 18  2  0
 18 19  1  0
 19 20  2  0
 20 21  1  0
 21 22  2  0
 12 23  1  0
 23 24  1  0
 24 25  2  0
 25  2  1  0
 24  9  1  0
 22 17  1  0
M  END
>  <Binding energies>  (29) 
[-6.57]

>  <Ligand effiencies>  (29) 
[-0.23464285714285715]

>  <Interactions>  (29) 
["V-A:HIS:456:CE1:4068, V-B:GLU:543:CD:9880, V-A:GLU:543:CD:4906, V-B:HIS:456:CE1:9042, V-B:GLY:544:C:9884, V-B:GLU:543:CG:9879, V-A:GLU:543:CG:4905, V-B:GLU:543:C:9874, V-A:ARG:545:CZ:4924, V-A:ARG:545:CG:4920, H-A:TYR:484:OH:4346, V-A:ARG:545:CD:4921, H-B:GLU:543:OE1:9881, V-A:ILE:369:CD1:3237, V-A:ASP:366:CG:3211, V-A:ILE:369:CG2:3235, V-A:ASP:366:CA:3208, V-A:ILE:369:CB:3234, H-A:GLU:543:OE2:4908, H-A:GLU:543:OE1:4907, H-B:GLU:543:OE2:9882, V-B:ARG:545:CG:9894"]

$$$$
4ca_Grossjean_2025
     RDKit          3D

 34 37  0  0  0  0  0  0  0  0999 V2000
  125.6090  128.6100   73.9500 C   0  0  0  0  0  0  0  0  0  0  0  0
  126.8510  127.9470   74.5530 C   0  0  0  0  0  0  0  0  0  0  0  0
  127.7490  127.5890   73.5100 O   0  0  0  0  0  0  0  0  0  0  0  0
  128.3430  128.5380   72.7400 C   0  0  0  0  0  0  0  0  0  0  0  0
  128.4960  129.7090   73.1010 O   0  0  0  0  0  0  0  0  0  0  0  0
  128.7980  128.0190   71.4070 C   0  0  0  0  0  0  0  0  0  0  0  0
  127.8530  127.8180   70.3920 C   0  0  0  0  0  0  0  0  0  0  0  0
  128.2450  127.3420   69.1440 C   0  0  0  0  0  0  0  0  0  0  0  0
  129.5850  127.0500   68.8870 C   0  0  0  0  0  0  0  0  0  0  0  0
  129.8710  126.5830   67.5890 N   0  0  0  0  0  0  0  0  0  0  0  0
  129.4200  127.0170   66.3860 C   0  0  0  0  0  0  0  0  0  0  0  0
  128.6740  127.9840   66.2360 O   0  0  0  0  0  0  0  0  0  0  0  0
  129.8980  126.2580   65.2280 C   0  0  0  0  0  0  0  0  0  0  0  0
  130.8620  124.8010   65.4610 S   0  0  0  0  0  0  0  0  0  0  0  0
  130.9530  124.5320   63.7360 C   0  0  0  0  0  0  0  0  0  0  0  0
  131.6050  123.4880   63.2300 N   0  0  0  0  0  0  0  0  0  0  0  0
  131.6090  123.3530   61.8790 C   0  0  0  0  0  0  0  0  0  0  0  0
  132.3440  122.1610   61.3400 C   0  0  0  0  0  0  0  0  0  0  0  0
  133.6950  121.9440   61.6580 C   0  0  0  0  0  0  0  0  0  0  0  0
  134.3840  120.8430   61.1570 C   0  0  0  0  0  0  0  0  0  0  0  0
  133.7300  119.9400   60.3250 C   0  0  0  0  0  0  0  0  0  0  0  0
  132.3940  120.1310   59.9920 C   0  0  0  0  0  0  0  0  0  0  0  0
  131.7080  121.2340   60.4950 C   0  0  0  0  0  0  0  0  0  0  0  0
  130.9770  124.2800   61.0420 C   0  0  0  0  0  0  0  0  0  0  0  0
  130.2910  125.3860   61.5650 C   0  0  0  0  0  0  0  0  0  0  0  0
  129.6180  126.3600   60.5910 C   0  0  0  0  0  0  0  0  0  0  0  0
  128.3050  126.4790   60.7930 F   0  0  0  0  0  0  0  0  0  0  0  0
  130.1540  127.5730   60.7230 F   0  0  0  0  0  0  0  0  0  0  0  0
  129.7910  125.9360   59.3390 F   0  0  0  0  0  0  0  0  0  0  0  0
  130.2650  125.5280   62.9820 C   0  0  0  0  0  0  0  0  0  0  0  0
  129.6690  126.5020   63.8640 C   0  0  0  0  0  0  0  0  0  0  0  0
  128.9460  127.5720   63.4030 N   0  0  0  0  0  0  0  0  0  0  0  0
  130.5390  127.2530   69.8940 C   0  0  0  0  0  0  0  0  0  0  0  0
  130.1460  127.7310   71.1420 C   0  0  0  0  0  0  0  0  0  0  0  0
  1  2  1  0
  2  3  1  0
  3  4  1  0
  4  5  2  0
  4  6  1  0
  6  7  2  0
  7  8  1  0
  8  9  2  0
  9 10  1  0
 10 11  1  0
 11 12  2  0
 11 13  1  0
 13 14  1  0
 14 15  1  0
 15 16  2  0
 16 17  1  0
 17 18  1  0
 18 19  2  0
 19 20  1  0
 20 21  2  0
 21 22  1  0
 22 23  2  0
 17 24  2  0
 24 25  1  0
 25 26  1  0
 26 27  1  0
 26 28  1  0
 26 29  1  0
 25 30  2  0
 30 31  1  0
 31 32  1  0
  9 33  1  0
 33 34  2  0
 34  6  1  0
 31 13  2  0
 30 15  1  0
 23 18  1  0
M  END
>  <Binding energies>  (30) 
[-4.95]

>  <Ligand effiencies>  (30) 
[-0.13378378378378378]

>  <Interactions>  (30) 
["V-B:GLU:543:CB:9878, V-A:HIS:456:CE1:4068, V-A:HIS:456:CD2:4066, V-B:GLU:543:CD:9880, H-A:HIS:456:NE2:4069, V-A:GLU:543:CD:4906, V-B:HIS:456:CE1:9042, V-A:GLY:544:CA:4912, H-A:LYS:547:NZ:4949, V-B:GLY:544:C:9884, V-A:GLY:544:C:4910, H-B:GLU:543:O:9875, V-B:HIS:456:CD2:9040, V-B:GLU:543:CG:9879, V-A:GLU:543:CG:4905, H-B:LYS:547:NZ:9923, V-B:GLU:543:C:9874, V-A:LYS:547:CE:4948, H-A:TYR:484:OH:4346, V-A:TYR:484:CZ:4345, V-B:LYS:547:CE:9922, H-B:GLU:543:OE1:9881, V-A:GLU:543:C:4900, V-A:TRP:381:CZ2:3368, V-A:ILE:369:CD1:3237, V-A:LEU:475:CD2:4257, V-A:TRP:381:CH2:3370, V-A:GLY:454:CA:4047, V-B:TYR:539:CD2:9846, V-B:TYR:539:CE2:9848, V-A:ILE:369:CG2:3235, V-A:ILE:369:CG1:3236, V-A:TRP:381:CZ3:3369, H-A:GLU:543:OE2:4908, H-A:GLU:543:OE1:4907, V-B:HIS:456:CG:9038, V-B:LYS:547:CD:9921, V-A:TYR:484:CE1:4343, H-B:GLU:543:OE2:9882, V-A:SER:385:CA:3405, V-B:HIS:456:CB:9037, V-A:SER:385:C:3403"]

$$$$
4cb_Grossjean_2025
     RDKit          3D

 33 36  0  0  0  0  0  0  0  0999 V2000
  129.1390  130.3770   72.0270 C   0  0  0  0  0  0  0  0  0  0  0  0
  129.2520  129.0780   72.5900 O   0  0  0  0  0  0  0  0  0  0  0  0
  128.4470  128.0650   72.1770 C   0  0  0  0  0  0  0  0  0  0  0  0
  127.5970  127.5340   72.8980 O   0  0  0  0  0  0  0  0  0  0  0  0
  128.6940  127.6540   70.7530 C   0  0  0  0  0  0  0  0  0  0  0  0
  129.9840  127.2660   70.3670 C   0  0  0  0  0  0  0  0  0  0  0  0
  130.2420  126.8720   69.0570 C   0  0  0  0  0  0  0  0  0  0  0  0
  129.2210  126.8640   68.1060 C   0  0  0  0  0  0  0  0  0  0  0  0
  129.5900  126.4340   66.8170 N   0  0  0  0  0  0  0  0  0  0  0  0
  130.7570  126.5910   66.1460 C   0  0  0  0  0  0  0  0  0  0  0  0
  131.7580  127.1340   66.6160 O   0  0  0  0  0  0  0  0  0  0  0  0
  130.7750  126.0450   64.7860 C   0  0  0  0  0  0  0  0  0  0  0  0
  129.5350  126.5150   63.6250 S   0  0  0  0  0  0  0  0  0  0  0  0
  130.2690  125.5370   62.3760 C   0  0  0  0  0  0  0  0  0  0  0  0
  129.7520  125.4700   61.1520 N   0  0  0  0  0  0  0  0  0  0  0  0
  130.3990  124.6920   60.2450 C   0  0  0  0  0  0  0  0  0  0  0  0
  129.7940  124.6410   58.8720 C   0  0  0  0  0  0  0  0  0  0  0  0
  129.8680  125.7490   58.0130 C   0  0  0  0  0  0  0  0  0  0  0  0
  129.3060  125.7100   56.7400 C   0  0  0  0  0  0  0  0  0  0  0  0
  128.6600  124.5570   56.3050 C   0  0  0  0  0  0  0  0  0  0  0  0
  128.5700  123.4450   57.1370 C   0  0  0  0  0  0  0  0  0  0  0  0
  129.1320  123.4900   58.4100 C   0  0  0  0  0  0  0  0  0  0  0  0
  131.5490  123.9690   60.5790 C   0  0  0  0  0  0  0  0  0  0  0  0
  132.1010  124.0310   61.8680 C   0  0  0  0  0  0  0  0  0  0  0  0
  133.3650  123.2140   62.1660 C   0  0  0  0  0  0  0  0  0  0  0  0
  133.2020  122.3450   63.1660 F   0  0  0  0  0  0  0  0  0  0  0  0
  133.7150  122.5170   61.0850 F   0  0  0  0  0  0  0  0  0  0  0  0
  134.3610  124.0320   62.5050 F   0  0  0  0  0  0  0  0  0  0  0  0
  131.4390  124.8570   62.8220 C   0  0  0  0  0  0  0  0  0  0  0  0
  131.7080  125.1700   64.2050 C   0  0  0  0  0  0  0  0  0  0  0  0
  132.7810  124.6550   64.8860 N   0  0  0  0  0  0  0  0  0  0  0  0
  127.9260  127.2480   68.4850 C   0  0  0  0  0  0  0  0  0  0  0  0
  127.6690  127.6400   69.7960 C   0  0  0  0  0  0  0  0  0  0  0  0
  1  2  1  0
  2  3  1  0
  3  4  2  0
  3  5  1  0
  5  6  2  0
  6  7  1  0
  7  8  2  0
  8  9  1  0
  9 10  1  0
 10 11  2  0
 10 12  1  0
 12 13  1  0
 13 14  1  0
 14 15  2  0
 15 16  1  0
 16 17  1  0
 17 18  2  0
 18 19  1  0
 19 20  2  0
 20 21  1  0
 21 22  2  0
 16 23  2  0
 23 24  1  0
 24 25  1  0
 25 26  1  0
 25 27  1  0
 25 28  1  0
 24 29  2  0
 29 30  1  0
 30 31  1  0
  8 32  1  0
 32 33  2  0
 33  5  1  0
 30 12  2  0
 29 14  1  0
 22 17  1  0
M  END
>  <Binding energies>  (31) 
[-4.61]

>  <Ligand effiencies>  (31) 
[-0.12805555555555556]

>  <Interactions>  (31) 
["V-B:GLU:543:CB:9878, V-A:HIS:456:CE1:4068, V-A:HIS:456:CD2:4066, V-B:GLU:543:CD:9880, V-A:GLU:543:CD:4906, V-B:HIS:456:CE1:9042, V-A:GLY:544:CA:4912, H-A:LYS:547:NZ:4949, V-B:GLY:544:C:9884, V-A:GLY:544:C:4910, H-B:GLU:543:O:9875, V-B:HIS:456:CD2:9040, V-B:GLU:543:CG:9879, V-A:GLU:543:CG:4905, H-B:LYS:547:NZ:9923, V-B:GLU:543:C:9874, V-A:ARG:545:CZ:4924, V-A:ARG:545:CG:4920, V-A:LYS:547:CE:4948, H-A:TYR:484:OH:4346, V-A:TYR:484:CZ:4345, H-B:GLU:543:OE1:9881, H-A:ARG:545:NE:4922, V-A:GLU:543:C:4900, V-B:TYR:539:CZ:9849, V-A:GLY:453:C:4040, V-B:TYR:539:CG:9844, V-A:ILE:369:CD1:3237, V-A:LEU:475:CD2:4257, V-A:GLY:453:CA:4042, V-A:GLY:454:CA:4047, V-B:TYR:539:CD2:9846, V-B:TYR:539:CE2:9848, H-B:GLU:543:OE2:9882"]

$$$$
4cc_Grossjean_2025
     RDKit          3D

 31 34  0  0  0  0  0  0  0  0999 V2000
  133.9100  119.9330   60.3770 C   0  0  0  0  0  0  0  0  0  0  0  0
  134.3380  121.0240   61.1850 O   0  0  0  0  0  0  0  0  0  0  0  0
  133.6920  122.2400   61.0730 C   0  0  0  0  0  0  0  0  0  0  0  0
  132.7050  122.3320   60.0920 C   0  0  0  0  0  0  0  0  0  0  0  0
  131.9990  123.5180   59.9050 C   0  0  0  0  0  0  0  0  0  0  0  0
  132.2790  124.6340   60.6950 C   0  0  0  0  0  0  0  0  0  0  0  0
  131.5040  125.7820   60.4450 N   0  0  0  0  0  0  0  0  0  0  0  0
  131.3380  126.4690   59.2890 C   0  0  0  0  0  0  0  0  0  0  0  0
  131.8460  126.1420   58.2150 O   0  0  0  0  0  0  0  0  0  0  0  0
  130.4920  127.6630   59.3820 C   0  0  0  0  0  0  0  0  0  0  0  0
  129.1770  127.7300   60.5530 S   0  0  0  0  0  0  0  0  0  0  0  0
  128.7420  129.3430   60.0400 C   0  0  0  0  0  0  0  0  0  0  0  0
  127.7300  130.0010   60.6000 N   0  0  0  0  0  0  0  0  0  0  0  0
  127.4740  131.2540   60.1410 C   0  0  0  0  0  0  0  0  0  0  0  0
  126.3250  131.9710   60.7900 C   0  0  0  0  0  0  0  0  0  0  0  0
  125.2560  132.4580   60.0200 C   0  0  0  0  0  0  0  0  0  0  0  0
  124.1880  133.1260   60.6150 C   0  0  0  0  0  0  0  0  0  0  0  0
  124.1750  133.3170   61.9920 C   0  0  0  0  0  0  0  0  0  0  0  0
  125.2220  132.8470   62.7770 C   0  0  0  0  0  0  0  0  0  0  0  0
  126.2890  132.1810   62.1790 C   0  0  0  0  0  0  0  0  0  0  0  0
  128.2240  131.8320   59.1120 C   0  0  0  0  0  0  0  0  0  0  0  0
  129.2920  131.1460   58.5130 C   0  0  0  0  0  0  0  0  0  0  0  0
  130.0750  131.8420   57.3940 C   0  0  0  0  0  0  0  0  0  0  0  0
  130.2160  131.0850   56.3030 F   0  0  0  0  0  0  0  0  0  0  0  0
  129.4430  132.9560   57.0270 F   0  0  0  0  0  0  0  0  0  0  0  0
  131.2970  132.1520   57.8250 F   0  0  0  0  0  0  0  0  0  0  0  0
  129.5760  129.8350   58.9920 C   0  0  0  0  0  0  0  0  0  0  0  0
  130.5660  128.8490   58.6340 C   0  0  0  0  0  0  0  0  0  0  0  0
  131.4970  129.0590   57.6490 N   0  0  0  0  0  0  0  0  0  0  0  0
  133.2620  124.5460   61.6920 C   0  0  0  0  0  0  0  0  0  0  0  0
  133.9650  123.3580   61.8750 C   0  0  0  0  0  0  0  0  0  0  0  0
  1  2  1  0
  2  3  1  0
  3  4  2  0
  4  5  1  0
  5  6  2  0
  6  7  1  0
  7  8  1  0
  8  9  2  0
  8 10  1  0
 10 11  1  0
 11 12  1  0
 12 13  2  0
 13 14  1  0
 14 15  1  0
 15 16  2  0
 16 17  1  0
 17 18  2  0
 18 19  1  0
 19 20  2  0
 14 21  2  0
 21 22  1  0
 22 23  1  0
 23 24  1  0
 23 25  1  0
 23 26  1  0
 22 27  2  0
 27 28  1  0
 28 29  1  0
  6 30  1  0
 30 31  2  0
 31  3  1  0
 28 10  2  0
 27 12  1  0
 20 15  1  0
M  END
>  <Binding energies>  (32) 
[-5.27]

>  <Ligand effiencies>  (32) 
[-0.155]

>  <Interactions>  (32) 
["V-A:GLY:453:C:4040, V-A:TRP:381:CZ2:3368, V-A:ILE:369:CD1:3237, V-A:LEU:475:CD2:4257, V-A:TRP:381:CH2:3370, V-A:ASP:366:CG:3211, V-A:GLY:454:CA:4047, V-B:TYR:539:CE2:9848, V-A:ILE:369:CG2:3235, H-A:TYR:531:OH:4793, V-B:LEU:475:CD2:9231, V-A:PRO:540:CA:4881, V-A:PRO:540:N:4882, V-B:ILE:369:CD1:8211, V-A:PRO:540:CB:4883, V-A:PRO:540:CD:4885, V-A:TYR:539:C:4865, V-A:TYR:539:CE2:4874, V-B:ILE:369:CG2:8209, V-B:GLY:454:CA:9021, V-A:TYR:539:CD2:4872, V-A:TYR:539:CD1:4871, V-A:TYR:539:CG:4870, V-A:TYR:539:CA:4867, V-A:SER:385:CA:3405, H-A:ASP:366:OD2:3213, V-A:SER:385:C:3403, V-A:TYR:539:CB:4869"]

$$$$
4ce_Grossjean_2025
     RDKit          3D

 30 33  0  0  0  0  0  0  0  0999 V2000
  124.3180  133.1300   60.1260 C   0  0  0  0  0  0  0  0  0  0  0  0
  124.7020  132.2580   61.3060 C   0  0  0  0  0  0  0  0  0  0  0  0
  124.3430  132.5980   62.6130 C   0  0  0  0  0  0  0  0  0  0  0  0
  124.7240  131.7440   63.6490 C   0  0  0  0  0  0  0  0  0  0  0  0
  125.4450  130.5850   63.3580 C   0  0  0  0  0  0  0  0  0  0  0  0
  125.7760  130.3070   62.0270 C   0  0  0  0  0  0  0  0  0  0  0  0
  126.4820  129.1120   61.7950 N   0  0  0  0  0  0  0  0  0  0  0  0
  127.2960  128.4300   62.6390 C   0  0  0  0  0  0  0  0  0  0  0  0
  127.5270  128.7780   63.7980 O   0  0  0  0  0  0  0  0  0  0  0  0
  127.9040  127.2180   62.0840 C   0  0  0  0  0  0  0  0  0  0  0  0
  129.5100  126.7140   62.6040 S   0  0  0  0  0  0  0  0  0  0  0  0
  129.4440  125.2970   61.5840 C   0  0  0  0  0  0  0  0  0  0  0  0
  130.4530  124.4300   61.5350 N   0  0  0  0  0  0  0  0  0  0  0  0
  130.3040  123.3490   60.7250 C   0  0  0  0  0  0  0  0  0  0  0  0
  131.4560  122.3890   60.6960 C   0  0  0  0  0  0  0  0  0  0  0  0
  132.7610  122.8280   60.9710 C   0  0  0  0  0  0  0  0  0  0  0  0
  133.8370  121.9440   60.9400 C   0  0  0  0  0  0  0  0  0  0  0  0
  133.6200  120.6050   60.6330 C   0  0  0  0  0  0  0  0  0  0  0  0
  132.3380  120.1440   60.3560 C   0  0  0  0  0  0  0  0  0  0  0  0
  131.2650  121.0320   60.3860 C   0  0  0  0  0  0  0  0  0  0  0  0
  129.1540  123.1560   59.9530 C   0  0  0  0  0  0  0  0  0  0  0  0
  128.0860  124.0670   59.9930 C   0  0  0  0  0  0  0  0  0  0  0  0
  126.8550  123.7940   59.1240 C   0  0  0  0  0  0  0  0  0  0  0  0
  126.5250  124.8250   58.3430 F   0  0  0  0  0  0  0  0  0  0  0  0
  127.0880  122.7490   58.3270 F   0  0  0  0  0  0  0  0  0  0  0  0
  125.8050  123.5280   59.9000 F   0  0  0  0  0  0  0  0  0  0  0  0
  128.2250  125.1960   60.8520 C   0  0  0  0  0  0  0  0  0  0  0  0
  127.3630  126.3110   61.1570 C   0  0  0  0  0  0  0  0  0  0  0  0
  126.1240  126.4680   60.5910 N   0  0  0  0  0  0  0  0  0  0  0  0
  125.4040  131.1340   61.0070 N   0  0  0  0  0  0  0  0  0  0  0  0
  1  2  1  0
  2  3  2  0
  3  4  1  0
  4  5  2  0
  5  6  1  0
  6  7  1  0
  7  8  1  0
  8  9  2  0
  8 10  1  0
 10 11  1  0
 11 12  1  0
 12 13  2  0
 13 14  1  0
 14 15  1  0
 15 16  2  0
 16 17  1  0
 17 18  2  0
 18 19  1  0
 19 20  2  0
 14 21  2  0
 21 22  1  0
 22 23  1  0
 23 24  1  0
 23 25  1  0
 23 26  1  0
 22 27  2  0
 27 28  1  0
 28 29  1  0
  6 30  2  0
 30  2  1  0
 28 10  2  0
 27 12  1  0
 20 15  1  0
M  END
>  <Binding energies>  (33) 
[-5.82]

>  <Ligand effiencies>  (33) 
[-0.17636363636363636]

>  <Interactions>  (33) 
["V-B:GLU:543:CD:9880, V-A:GLU:543:CD:4906, V-B:PRO:540:C:9853, V-A:TRP:381:CZ2:3368, V-A:ILE:369:CD1:3237, V-A:LEU:475:CD2:4257, V-A:TRP:381:CH2:3370, V-B:PRO:540:CA:9855, V-B:TYR:539:C:9839, V-B:PRO:540:CD:9859, V-B:TYR:539:CD2:9846, V-B:TYR:539:CE2:9848, V-A:ILE:369:CG2:3235, V-B:PRO:540:N:9856, V-B:PRO:540:CB:9857, V-B:LEU:475:CD2:9231, V-B:ASP:366:CG:8185, V-B:ILE:369:CD1:8211, V-A:TYR:539:CE2:4874, V-B:ILE:369:CG2:8209, V-B:GLY:454:CA:9021, V-A:TYR:539:CD2:4872, H-B:ASP:366:OD2:8187, H-B:ASP:366:OD1:8186"]

$$$$
4cf_Grossjean_2025
     RDKit          3D

 29 32  0  0  0  0  0  0  0  0999 V2000
  126.1520  126.2550   60.3430 N   0  0  0  0  0  0  0  0  0  0  0  0
  127.3760  126.1900   60.9580 C   0  0  0  0  0  0  0  0  0  0  0  0
  127.8310  127.1570   61.8690 C   0  0  0  0  0  0  0  0  0  0  0  0
  127.1630  128.3860   62.3080 C   0  0  0  0  0  0  0  0  0  0  0  0
  127.5300  128.9680   63.3290 O   0  0  0  0  0  0  0  0  0  0  0  0
  126.1530  128.8130   61.5120 N   0  0  0  0  0  0  0  0  0  0  0  0
  125.2880  129.9130   61.6710 C   0  0  0  0  0  0  0  0  0  0  0  0
  124.9620  130.8470   60.6690 C   0  0  0  0  0  0  0  0  0  0  0  0
  124.0980  131.9040   60.9660 C   0  0  0  0  0  0  0  0  0  0  0  0
  123.5820  132.0030   62.2580 C   0  0  0  0  0  0  0  0  0  0  0  0
  123.8850  131.1200   63.2430 N   0  0  0  0  0  0  0  0  0  0  0  0
  124.7280  130.0990   62.9400 C   0  0  0  0  0  0  0  0  0  0  0  0
  129.4390  126.7580   62.4690 S   0  0  0  0  0  0  0  0  0  0  0  0
  129.4930  125.3090   61.4920 C   0  0  0  0  0  0  0  0  0  0  0  0
  130.5540  124.5040   61.5010 N   0  0  0  0  0  0  0  0  0  0  0  0
  130.5090  123.4110   60.6960 C   0  0  0  0  0  0  0  0  0  0  0  0
  131.7210  122.5260   60.7210 C   0  0  0  0  0  0  0  0  0  0  0  0
  131.7460  121.3210   60.0010 C   0  0  0  0  0  0  0  0  0  0  0  0
  132.8660  120.4950   60.0180 C   0  0  0  0  0  0  0  0  0  0  0  0
  133.9850  120.8670   60.7570 C   0  0  0  0  0  0  0  0  0  0  0  0
  133.9900  122.0570   61.4770 C   0  0  0  0  0  0  0  0  0  0  0  0
  132.8670  122.8790   61.4570 C   0  0  0  0  0  0  0  0  0  0  0  0
  129.3930  123.1180   59.9070 C   0  0  0  0  0  0  0  0  0  0  0  0
  128.2680  123.9580   59.8940 C   0  0  0  0  0  0  0  0  0  0  0  0
  127.0800  123.5800   59.0010 C   0  0  0  0  0  0  0  0  0  0  0  0
  126.8340  124.4810   58.0470 F   0  0  0  0  0  0  0  0  0  0  0  0
  127.3220  122.4160   58.3980 F   0  0  0  0  0  0  0  0  0  0  0  0
  125.9760  123.4710   59.7400 F   0  0  0  0  0  0  0  0  0  0  0  0
  128.3100  125.1180   60.7200 C   0  0  0  0  0  0  0  0  0  0  0  0
  1  2  1  0
  2  3  2  0
  3  4  1  0
  4  5  2  0
  4  6  1  0
  6  7  1  0
  7  8  2  0
  8  9  1  0
  9 10  2  0
 10 11  1  0
 11 12  2  0
  3 13  1  0
 13 14  1  0
 14 15  2  0
 15 16  1  0
 16 17  1  0
 17 18  2  0
 18 19  1  0
 19 20  2  0
 20 21  1  0
 21 22  2  0
 16 23  2  0
 23 24  1  0
 24 25  1  0
 25 26  1  0
 25 27  1  0
 25 28  1  0
 24 29  2  0
 29  2  1  0
 12  7  1  0
 29 14  1  0
 22 17  1  0
M  END
>  <Binding energies>  (34) 
[-5.78]

>  <Ligand effiencies>  (34) 
[-0.180625]

>  <Interactions>  (34) 
["V-B:ARG:545:CZ:9898, V-B:GLU:543:CD:9880, H-B:GLY:454:N:9022, V-B:GLY:453:C:9014, V-B:PRO:540:C:9853, V-A:TRP:381:CZ2:3368, V-A:ILE:369:CD1:3237, V-A:LEU:475:CD2:4257, V-A:TRP:381:CH2:3370, V-B:PRO:540:CA:9855, V-B:TYR:539:C:9839, V-B:TYR:539:CA:9841, V-A:GLY:454:CA:4047, V-B:PRO:540:CD:9859, V-B:TYR:539:CD2:9846, V-B:TYR:539:CE2:9848, V-A:ILE:369:CG2:3235, V-B:PRO:540:N:9856, V-B:PRO:540:CB:9857, V-B:ASP:366:CG:8185, V-B:ILE:369:CD1:8211, V-B:GLY:454:CA:9021, H-B:ASP:366:OD2:8187, H-B:ASP:366:OD1:8186"]

$$$$
4ci_Grossjean_2025
     RDKit          3D

 28 31  0  0  0  0  0  0  0  0999 V2000
  126.2110  126.4170   60.4070 N   0  0  0  0  0  0  0  0  0  0  0  0
  127.4860  126.4330   60.9100 C   0  0  0  0  0  0  0  0  0  0  0  0
  128.0300  127.5340   61.5910 C   0  0  0  0  0  0  0  0  0  0  0  0
  127.3970  128.8180   61.9060 C   0  0  0  0  0  0  0  0  0  0  0  0
  127.6900  129.8360   61.2750 O   0  0  0  0  0  0  0  0  0  0  0  0
  126.5010  128.7920   62.9240 N   0  0  0  0  0  0  0  0  0  0  0  0
  125.7630  129.8560   63.4290 C   0  0  0  0  0  0  0  0  0  0  0  0
  126.0090  131.1850   63.0870 C   0  0  0  0  0  0  0  0  0  0  0  0
  125.0790  131.9140   63.7900 C   0  0  0  0  0  0  0  0  0  0  0  0
  124.3110  131.0670   64.5180 O   0  0  0  0  0  0  0  0  0  0  0  0
  124.7550  129.7660   64.2810 N   0  0  0  0  0  0  0  0  0  0  0  0
  129.6830  127.2100   62.1070 S   0  0  0  0  0  0  0  0  0  0  0  0
  129.6380  125.6110   61.4020 C   0  0  0  0  0  0  0  0  0  0  0  0
  130.6860  124.7930   61.4660 N   0  0  0  0  0  0  0  0  0  0  0  0
  130.5550  123.5690   60.8920 C   0  0  0  0  0  0  0  0  0  0  0  0
  131.7560  122.6700   60.9760 C   0  0  0  0  0  0  0  0  0  0  0  0
  131.7930  121.4510   60.2780 C   0  0  0  0  0  0  0  0  0  0  0  0
  132.9040  120.6140   60.3510 C   0  0  0  0  0  0  0  0  0  0  0  0
  133.9970  120.9860   61.1270 C   0  0  0  0  0  0  0  0  0  0  0  0
  133.9850  122.1840   61.8310 C   0  0  0  0  0  0  0  0  0  0  0  0
  132.8720  123.0170   61.7570 C   0  0  0  0  0  0  0  0  0  0  0  0
  129.3790  123.1800   60.2420 C   0  0  0  0  0  0  0  0  0  0  0  0
  128.2670  124.0350   60.1700 C   0  0  0  0  0  0  0  0  0  0  0  0
  127.0100  123.5440   59.4430 C   0  0  0  0  0  0  0  0  0  0  0  0
  126.5220  124.4360   58.5790 F   0  0  0  0  0  0  0  0  0  0  0  0
  127.2930  122.4370   58.7560 F   0  0  0  0  0  0  0  0  0  0  0  0
  126.0510  123.2780   60.3290 F   0  0  0  0  0  0  0  0  0  0  0  0
  128.3900  125.3160   60.7790 C   0  0  0  0  0  0  0  0  0  0  0  0
  1  2  1  0
  2  3  2  0
  3  4  1  0
  4  5  2  0
  4  6  1  0
  6  7  1  0
  7  8  1  0
  8  9  2  0
  9 10  1  0
 10 11  1  0
  3 12  1  0
 12 13  1  0
 13 14  2  0
 14 15  1  0
 15 16  1  0
 16 17  2  0
 17 18  1  0
 18 19  2  0
 19 20  1  0
 20 21  2  0
 15 22  2  0
 22 23  1  0
 23 24  1  0
 24 25  1  0
 24 26  1  0
 24 27  1  0
 23 28  2  0
 28  2  1  0
 11  7  2  0
 28 13  1  0
 21 16  1  0
M  END
>  <Binding energies>  (35) 
[-6.28]

>  <Ligand effiencies>  (35) 
[-0.20258064516129032]

>  <Interactions>  (35) 
["V-B:ARG:545:CZ:9898, H-B:TYR:484:OH:9320, V-A:GLU:543:CD:4906, H-B:GLY:454:N:9022, H-B:ARG:545:NE:9896, V-B:PRO:540:C:9853, V-A:ILE:369:CD1:3237, V-A:LEU:475:CD2:4257, V-A:TRP:381:CH2:3370, V-B:PRO:540:CA:9855, V-B:TYR:539:C:9839, V-B:TYR:539:CA:9841, V-A:GLY:454:CA:4047, V-B:TYR:539:CD2:9846, V-B:TYR:539:CE2:9848, V-A:ILE:369:CG2:3235, V-B:PRO:540:N:9856, V-B:PRO:540:CB:9857, V-B:LEU:475:CD2:9231, V-B:ASP:366:CG:8185, H-B:ARG:545:NH2:9900, V-B:GLY:454:CA:9021, H-B:GLU:543:OE2:9882, H-B:ASP:366:OD2:8187, H-B:ASP:366:OD1:8186"]

$$$$
8a_Ghoteimi_2023
     RDKit          3D

 40 44  0  0  0  0  0  0  0  0999 V2000
  130.2100  124.2040   56.2940 C   0  0  0  0  0  0  0  0  0  0  0  0
  130.9850  125.5240   56.3450 C   0  0  0  0  0  0  0  0  0  0  0  0
  132.3800  125.2560   56.2780 O   0  0  0  0  0  0  0  0  0  0  0  0
  133.0400  124.7130   57.3350 C   0  0  0  0  0  0  0  0  0  0  0  0
  134.0190  123.9700   57.2150 O   0  0  0  0  0  0  0  0  0  0  0  0
  132.4580  125.1020   58.6630 C   0  0  0  0  0  0  0  0  0  0  0  0
  132.9620  124.5130   59.8290 C   0  0  0  0  0  0  0  0  0  0  0  0
  132.4420  124.8520   61.0750 C   0  0  0  0  0  0  0  0  0  0  0  0
  131.4080  125.7840   61.1820 C   0  0  0  0  0  0  0  0  0  0  0  0
  130.9590  126.0440   62.4920 N   0  0  0  0  0  0  0  0  0  0  0  0
  131.2400  125.4110   63.6580 C   0  0  0  0  0  0  0  0  0  0  0  0
  131.9860  124.4370   63.7560 O   0  0  0  0  0  0  0  0  0  0  0  0
  130.5900  125.9730   64.8460 C   0  0  0  0  0  0  0  0  0  0  0  0
  131.1790  125.5710   66.4580 S   0  0  0  0  0  0  0  0  0  0  0  0
  129.9450  126.5580   67.2070 C   0  0  0  0  0  0  0  0  0  0  0  0
  129.8360  126.6580   68.5310 N   0  0  0  0  0  0  0  0  0  0  0  0
  128.8380  127.4470   69.0100 C   0  0  0  0  0  0  0  0  0  0  0  0
  128.7220  127.5290   70.4990 C   0  0  0  0  0  0  0  0  0  0  0  0
  128.7180  128.7660   71.1570 C   0  0  0  0  0  0  0  0  0  0  0  0
  128.6210  128.8350   72.5440 C   0  0  0  0  0  0  0  0  0  0  0  0
  128.5240  127.6730   73.3060 C   0  0  0  0  0  0  0  0  0  0  0  0
  128.4340  127.8380   74.6750 O   0  0  0  0  0  0  0  0  0  0  0  0
  127.1540  128.0300   75.2680 C   0  0  0  0  0  0  0  0  0  0  0  0
  128.5210  126.4300   72.6570 C   0  0  0  0  0  0  0  0  0  0  0  0
  128.6210  126.3640   71.2690 C   0  0  0  0  0  0  0  0  0  0  0  0
  127.9620  128.1350   68.1680 C   0  0  0  0  0  0  0  0  0  0  0  0
  128.0830  128.0460   66.7770 C   0  0  0  0  0  0  0  0  0  0  0  0
  127.1450  128.8250   65.9280 C   0  0  0  0  0  0  0  0  0  0  0  0
  127.6340  129.6250   64.8930 C   0  0  0  0  0  0  0  0  0  0  0  0
  126.7570  130.3400   64.0820 C   0  0  0  0  0  0  0  0  0  0  0  0
  125.3790  130.2640   64.2870 C   0  0  0  0  0  0  0  0  0  0  0  0
  124.5860  131.0070   63.4330 O   0  0  0  0  0  0  0  0  0  0  0  0
  124.5240  132.4180   63.5970 C   0  0  0  0  0  0  0  0  0  0  0  0
  124.8860  129.4530   65.3210 C   0  0  0  0  0  0  0  0  0  0  0  0
  125.7650  128.7380   66.1300 C   0  0  0  0  0  0  0  0  0  0  0  0
  129.1070  127.2080   66.2530 C   0  0  0  0  0  0  0  0  0  0  0  0
  129.4880  126.8400   64.9110 C   0  0  0  0  0  0  0  0  0  0  0  0
  128.8130  127.2910   63.8050 N   0  0  0  0  0  0  0  0  0  0  0  0
  130.9000  126.3820   60.0190 C   0  0  0  0  0  0  0  0  0  0  0  0
  131.4220  126.0420   58.7740 C   0  0  0  0  0  0  0  0  0  0  0  0
  1  2  1  0
  2  3  1  0
  3  4  1  0
  4  5  2  0
  4  6  1  0
  6  7  2  0
  7  8  1  0
  8  9  2  0
  9 10  1  0
 10 11  1  0
 11 12  2  0
 11 13  1  0
 13 14  1  0
 14 15  1  0
 15 16  2  0
 16 17  1  0
 17 18  1  0
 18 19  2  0
 19 20  1  0
 20 21  2  0
 21 22  1  0
 22 23  1  0
 21 24  1  0
 24 25  2  0
 17 26  2  0
 26 27  1  0
 27 28  1  0
 28 29  2  0
 29 30  1  0
 30 31  2  0
 31 32  1  0
 32 33  1  0
 31 34  1  0
 34 35  2  0
 27 36  2  0
 36 37  1  0
 37 38  1  0
  9 39  1  0
 39 40  2  0
 40  6  1  0
 37 13  2  0
 36 15  1  0
 25 18  1  0
 35 28  1  0
M  END
>  <Binding energies>  (36) 
[-0.65]

>  <Ligand effiencies>  (36) 
[-0.015116279069767442]

>  <Interactions>  (36) 
["V-B:ARG:545:CZ:9898, V-B:GLU:543:CB:9878, V-A:HIS:456:CE1:4068, V-B:GLU:543:CD:9880, H-B:TYR:484:OH:9320, V-A:GLU:543:CD:4906, H-B:GLY:454:N:9022, V-B:HIS:456:CE1:9042, V-A:GLY:544:CA:4912, H-A:LYS:547:NZ:4949, V-B:GLY:544:C:9884, V-B:HIS:456:CD2:9040, V-A:GLU:543:CB:4904, V-B:GLU:543:CG:9879, V-A:GLU:543:CG:4905, H-B:LYS:547:NZ:9923, V-B:GLU:543:C:9874, V-A:LYS:547:CE:4948, H-A:TYR:484:OH:4346, V-B:LYS:547:CE:9922, H-B:GLU:543:OE1:9881, V-B:GLY:544:CA:9886, V-A:GLU:543:C:4900, V-B:TYR:539:CZ:9849, V-A:ASP:366:CG:3211, V-B:TYR:539:CD2:9846, V-B:TYR:539:CE1:9847, V-B:TYR:539:CE2:9848, V-A:ASP:366:CA:3208, V-A:ASP:366:CB:3210, H-A:TYR:531:OH:4793, V-B:LEU:475:CD2:9231, V-B:GLY:454:CA:9021, H-A:GLU:543:OE2:4908, H-A:GLU:543:OE1:4907, H-B:TYR:539:OH:9850, V-B:LYS:547:CD:9921, H-B:GLU:543:OE2:9882, V-B:ARG:545:CG:9894, V-B:ARG:545:CD:9895"]

$$$$
8c_Ghoteimi_2023
     RDKit          3D

 34 38  0  0  0  0  0  0  0  0999 V2000
  123.5010  129.9930   66.9200 C   0  0  0  0  0  0  0  0  0  0  0  0
  123.8820  130.6520   65.7170 O   0  0  0  0  0  0  0  0  0  0  0  0
  124.8900  130.1110   64.9420 C   0  0  0  0  0  0  0  0  0  0  0  0
  124.6320  129.9950   63.5770 C   0  0  0  0  0  0  0  0  0  0  0  0
  125.5880  129.4580   62.7200 C   0  0  0  0  0  0  0  0  0  0  0  0
  126.8290  129.0230   63.2070 C   0  0  0  0  0  0  0  0  0  0  0  0
  127.8600  128.4420   62.2910 C   0  0  0  0  0  0  0  0  0  0  0  0
  128.6020  129.2390   61.4160 C   0  0  0  0  0  0  0  0  0  0  0  0
  129.5620  128.6710   60.5710 C   0  0  0  0  0  0  0  0  0  0  0  0
  130.3250  129.5430   59.6500 C   0  0  0  0  0  0  0  0  0  0  0  0
  131.4140  130.2810   60.1190 C   0  0  0  0  0  0  0  0  0  0  0  0
  132.1350  131.0930   59.2490 C   0  0  0  0  0  0  0  0  0  0  0  0
  131.7800  131.1820   57.9020 C   0  0  0  0  0  0  0  0  0  0  0  0
  132.5550  132.0100   57.1130 O   0  0  0  0  0  0  0  0  0  0  0  0
  133.8130  131.5420   56.6410 C   0  0  0  0  0  0  0  0  0  0  0  0
  130.6830  130.4420   57.4330 C   0  0  0  0  0  0  0  0  0  0  0  0
  129.9620  129.6300   58.3040 C   0  0  0  0  0  0  0  0  0  0  0  0
  129.7610  127.2660   60.6370 C   0  0  0  0  0  0  0  0  0  0  0  0
  130.6430  126.3720   59.9350 C   0  0  0  0  0  0  0  0  0  0  0  0
  131.5290  126.8100   58.9820 N   0  0  0  0  0  0  0  0  0  0  0  0
  130.5110  125.0270   60.3150 C   0  0  0  0  0  0  0  0  0  0  0  0
  131.2440  123.8610   59.8160 C   0  0  0  0  0  0  0  0  0  0  0  0
  131.2560  123.5920   58.6130 O   0  0  0  0  0  0  0  0  0  0  0  0
  131.8840  123.1290   60.7610 N   0  0  0  0  0  0  0  0  0  0  0  0
  132.6460  121.9880   60.5570 C   0  0  0  0  0  0  0  0  0  0  0  0
  132.4660  121.0460   59.6560 N   0  0  0  0  0  0  0  0  0  0  0  0
  133.3850  120.1060   59.7470 C   0  0  0  0  0  0  0  0  0  0  0  0
  134.3410  120.2740   60.7430 C   0  0  0  0  0  0  0  0  0  0  0  0
  134.0080  121.7480   61.6030 S   0  0  0  0  0  0  0  0  0  0  0  0
  129.2810  124.8370   61.5660 S   0  0  0  0  0  0  0  0  0  0  0  0
  128.9520  126.5540   61.5700 C   0  0  0  0  0  0  0  0  0  0  0  0
  128.0360  127.0950   62.3730 N   0  0  0  0  0  0  0  0  0  0  0  0
  127.0820  129.1450   64.5800 C   0  0  0  0  0  0  0  0  0  0  0  0
  126.1280  129.6800   65.4400 C   0  0  0  0  0  0  0  0  0  0  0  0
  1  2  1  0
  2  3  1  0
  3  4  2  0
  4  5  1  0
  5  6  2  0
  6  7  1  0
  7  8  2  0
  8  9  1  0
  9 10  1  0
 10 11  2  0
 11 12  1  0
 12 13  2  0
 13 14  1  0
 14 15  1  0
 13 16  1  0
 16 17  2  0
  9 18  2  0
 18 19  1  0
 19 20  1  0
 19 21  2  0
 21 22  1  0
 22 23  2  0
 22 24  1  0
 24 25  1  0
 25 26  2  0
 26 27  1  0
 27 28  2  0
 28 29  1  0
 21 30  1  0
 30 31  1  0
 31 32  2  0
  6 33  1  0
 33 34  2  0
 34  3  1  0
 32  7  1  0
 17 10  1  0
 31 18  1  0
 29 25  1  0
M  END
>  <Binding energies>  (37) 
[-5.31]

>  <Ligand effiencies>  (37) 
[-0.1435135135135135]

>  <Interactions>  (37) 
["V-B:ARG:545:CZ:9898, V-B:GLU:543:CD:9880, H-B:TYR:484:OH:9320, V-A:GLU:543:CD:4906, H-B:GLY:454:N:9022, V-B:HIS:456:CE1:9042, V-B:GLY:453:C:9014, V-A:TRP:381:CZ2:3368, V-A:ILE:369:CD1:3237, V-A:LEU:475:CD2:4257, V-A:TRP:381:CH2:3370, V-A:ASP:366:CG:3211, V-A:GLY:454:CA:4047, V-B:TYR:539:CD2:9846, V-B:TYR:539:CE2:9848, V-A:ILE:369:CG2:3235, V-A:ASP:366:CB:3210, V-A:ILE:369:CG1:3236, V-A:PRO:540:CA:4881, V-A:PRO:540:N:4882, V-A:TYR:531:CZ:4792, H-B:ARG:545:NH2:9900, V-A:PRO:540:CB:4883, V-A:TYR:531:CE2:4791, V-A:LEU:363:CA:3183, V-B:GLY:454:CA:9021, V-B:TYR:484:CZ:9319, V-B:ARG:545:CG:9894, V-B:ARG:545:CD:9895, V-A:SER:385:CA:3405, H-A:ASP:366:OD2:3213, H-A:ASP:366:OD1:3212, V-A:LEU:363:CD1:3187, V-A:LEU:363:CB:3185, V-B:ARG:545:CB:9893, V-A:SER:385:C:3403, V-B:ILE:455:C:9024, H-B:ILE:455:N:9027, V-B:GLY:454:C:9019"]

$$$$
8d_Ghoteimi_2023
     RDKit          3D

 30 33  0  0  0  0  0  0  0  0999 V2000
  123.7610  124.3970   57.3350 C   0  0  0  0  0  0  0  0  0  0  0  0
  124.8880  124.2770   56.4770 O   0  0  0  0  0  0  0  0  0  0  0  0
  125.9370  123.4820   56.8130 C   0  0  0  0  0  0  0  0  0  0  0  0
  126.1480  122.3730   56.3160 O   0  0  0  0  0  0  0  0  0  0  0  0
  126.8090  124.0840   57.8450 C   0  0  0  0  0  0  0  0  0  0  0  0
  128.1670  123.1640   58.4950 S   0  0  0  0  0  0  0  0  0  0  0  0
  128.6110  124.4880   59.5470 C   0  0  0  0  0  0  0  0  0  0  0  0
  129.6550  124.4110   60.3730 N   0  0  0  0  0  0  0  0  0  0  0  0
  129.9140  125.4990   61.1470 C   0  0  0  0  0  0  0  0  0  0  0  0
  131.0870  125.3850   62.0680 C   0  0  0  0  0  0  0  0  0  0  0  0
  130.9530  125.6130   63.4450 C   0  0  0  0  0  0  0  0  0  0  0  0
  132.0480  125.5060   64.2970 C   0  0  0  0  0  0  0  0  0  0  0  0
  133.3050  125.1690   63.7970 C   0  0  0  0  0  0  0  0  0  0  0  0
  134.3330  125.0850   64.7150 O   0  0  0  0  0  0  0  0  0  0  0  0
  134.0220  125.0420   66.1040 C   0  0  0  0  0  0  0  0  0  0  0  0
  133.4500  124.9360   62.4220 C   0  0  0  0  0  0  0  0  0  0  0  0
  132.3520  125.0440   61.5730 C   0  0  0  0  0  0  0  0  0  0  0  0
  129.1270  126.6530   61.0980 C   0  0  0  0  0  0  0  0  0  0  0  0
  128.0340  126.7350   60.2290 C   0  0  0  0  0  0  0  0  0  0  0  0
  127.2250  127.9760   60.1940 C   0  0  0  0  0  0  0  0  0  0  0  0
  126.5370  128.3970   61.3340 C   0  0  0  0  0  0  0  0  0  0  0  0
  125.7690  129.5580   61.2990 C   0  0  0  0  0  0  0  0  0  0  0  0
  125.6810  130.3150   60.1300 C   0  0  0  0  0  0  0  0  0  0  0  0
  124.8960  131.4490   60.1870 O   0  0  0  0  0  0  0  0  0  0  0  0
  123.7850  131.5710   59.3060 C   0  0  0  0  0  0  0  0  0  0  0  0
  126.3770  129.8900   58.9860 C   0  0  0  0  0  0  0  0  0  0  0  0
  127.1440  128.7290   59.0230 C   0  0  0  0  0  0  0  0  0  0  0  0
  127.7470  125.6120   59.4100 C   0  0  0  0  0  0  0  0  0  0  0  0
  126.7280  125.3520   58.4310 C   0  0  0  0  0  0  0  0  0  0  0  0
  125.7600  126.2710   58.1110 N   0  0  0  0  0  0  0  0  0  0  0  0
  1  2  1  0
  2  3  1  0
  3  4  2  0
  3  5  1  0
  5  6  1  0
  6  7  1  0
  7  8  2  0
  8  9  1  0
  9 10  1  0
 10 11  2  0
 11 12  1  0
 12 13  2  0
 13 14  1  0
 14 15  1  0
 13 16  1  0
 16 17  2  0
  9 18  2  0
 18 19  1  0
 19 20  1  0
 20 21  2  0
 21 22  1  0
 22 23  2  0
 23 24  1  0
 24 25  1  0
 23 26  1  0
 26 27  2  0
 19 28  2  0
 28 29  1  0
 29 30  1  0
 29  5  2  0
 28  7  1  0
 17 10  1  0
 27 20  1  0
M  END
>  <Binding energies>  (38) 
[-6.33]

>  <Ligand effiencies>  (38) 
[-0.1978125]

>  <Interactions>  (38) 
["V-A:HIS:456:CE1:4068, V-B:GLU:543:CD:9880, H-A:GLY:454:N:4048, V-A:ARG:545:CZ:4924, V-A:ARG:545:CG:4920, H-A:TYR:484:OH:4346, V-A:ARG:545:CD:4921, V-A:TYR:484:CZ:4345, H-A:ARG:545:NH1:4925, H-A:ARG:545:NE:4922, V-B:PRO:540:CA:9855, V-B:TYR:539:C:9839, V-A:GLY:454:CA:4047, V-B:PRO:540:CD:9859, V-B:PRO:540:N:9856, V-B:PRO:540:CB:9857, V-B:ASP:366:CG:8185, V-B:ILE:369:CD1:8211, V-A:TYR:539:CE2:4874, V-B:LEU:363:CA:8157, V-B:ILE:369:CG2:8209, V-B:ASP:366:CB:8184, H-B:TYR:531:OH:9767, H-B:ASP:366:OD2:8187, V-B:TYR:531:CZ:9766, V-B:TYR:531:CE2:9765, H-B:TYR:539:N:9842, H-B:ASP:366:OD1:8186, V-B:ILE:369:CB:8208, V-B:LEU:363:CD1:8161"]

$$$$
9a_Ghoteimi_2023
     RDKit          3D

 48 54  0  0  0  0  0  0  0  0999 V2000
  125.1240  129.7880   75.0030 C   0  0  0  0  0  0  0  0  0  0  0  0
  125.3100  128.3060   74.6580 C   0  0  0  0  0  0  0  0  0  0  0  0
  126.6550  128.0800   74.2540 O   0  0  0  0  0  0  0  0  0  0  0  0
  127.3210  128.9870   73.4950 C   0  0  0  0  0  0  0  0  0  0  0  0
  127.5710  130.1370   73.8720 O   0  0  0  0  0  0  0  0  0  0  0  0
  127.7190  128.4580   72.1480 C   0  0  0  0  0  0  0  0  0  0  0  0
  129.0780  128.3320   71.8350 C   0  0  0  0  0  0  0  0  0  0  0  0
  129.4790  127.8460   70.5940 C   0  0  0  0  0  0  0  0  0  0  0  0
  128.5310  127.4740   69.6400 C   0  0  0  0  0  0  0  0  0  0  0  0
  129.0510  126.9970   68.4220 N   0  0  0  0  0  0  0  0  0  0  0  0
  130.3200  127.0100   67.9420 C   0  0  0  0  0  0  0  0  0  0  0  0
  131.2840  127.4760   68.5490 O   0  0  0  0  0  0  0  0  0  0  0  0
  130.4940  126.4100   66.6160 C   0  0  0  0  0  0  0  0  0  0  0  0
  131.6500  125.1000   66.3750 S   0  0  0  0  0  0  0  0  0  0  0  0
  131.2400  124.9880   64.6800 C   0  0  0  0  0  0  0  0  0  0  0  0
  131.8110  124.0880   63.8810 N   0  0  0  0  0  0  0  0  0  0  0  0
  131.4130  124.0760   62.5810 C   0  0  0  0  0  0  0  0  0  0  0  0
  132.0590  123.0510   61.7060 C   0  0  0  0  0  0  0  0  0  0  0  0
  133.4240  123.1280   61.4080 C   0  0  0  0  0  0  0  0  0  0  0  0
  134.0340  122.1770   60.5950 C   0  0  0  0  0  0  0  0  0  0  0  0
  133.3040  121.1050   60.0590 C   0  0  0  0  0  0  0  0  0  0  0  0
  133.8990  120.1530   59.2250 N   0  0  0  0  0  0  0  0  0  0  0  0
  134.6350  118.9970   59.7750 C   0  0  0  0  0  0  0  0  0  0  0  0
  135.5160  118.2690   58.7380 C   0  0  0  0  0  0  0  0  0  0  0  0
  134.7350  117.8880   57.6180 O   0  0  0  0  0  0  0  0  0  0  0  0
  134.1540  119.0160   56.9810 C   0  0  0  0  0  0  0  0  0  0  0  0
  133.2300  119.7590   57.9670 C   0  0  0  0  0  0  0  0  0  0  0  0
  131.9330  121.0410   60.3480 C   0  0  0  0  0  0  0  0  0  0  0  0
  131.3230  121.9940   61.1590 C   0  0  0  0  0  0  0  0  0  0  0  0
  130.4710  124.9780   62.0810 C   0  0  0  0  0  0  0  0  0  0  0  0
  129.8840  125.9380   62.9130 C   0  0  0  0  0  0  0  0  0  0  0  0
  128.9150  126.8970   62.3220 C   0  0  0  0  0  0  0  0  0  0  0  0
  129.1550  128.2720   62.3710 C   0  0  0  0  0  0  0  0  0  0  0  0
  128.2530  129.1680   61.8050 C   0  0  0  0  0  0  0  0  0  0  0  0
  127.0940  128.7110   61.1580 C   0  0  0  0  0  0  0  0  0  0  0  0
  126.1680  129.5920   60.5920 N   0  0  0  0  0  0  0  0  0  0  0  0
  125.0170  130.0420   61.4000 C   0  0  0  0  0  0  0  0  0  0  0  0
  124.3030  131.2770   60.8100 C   0  0  0  0  0  0  0  0  0  0  0  0
  123.9120  131.0190   59.4710 O   0  0  0  0  0  0  0  0  0  0  0  0
  125.0280  130.7250   58.6460 C   0  0  0  0  0  0  0  0  0  0  0  0
  125.7620  129.4750   59.1780 C   0  0  0  0  0  0  0  0  0  0  0  0
  126.8640  127.3280   61.1120 C   0  0  0  0  0  0  0  0  0  0  0  0
  127.7640  126.4330   61.6820 C   0  0  0  0  0  0  0  0  0  0  0  0
  130.2590  125.9450   64.2860 C   0  0  0  0  0  0  0  0  0  0  0  0
  129.8330  126.7290   65.4190 C   0  0  0  0  0  0  0  0  0  0  0  0
  128.8570  127.6880   65.3280 N   0  0  0  0  0  0  0  0  0  0  0  0
  127.1660  127.5930   69.9460 C   0  0  0  0  0  0  0  0  0  0  0  0
  126.7670  128.0800   71.1870 C   0  0  0  0  0  0  0  0  0  0  0  0
  1  2  1  0
  2  3  1  0
  3  4  1  0
  4  5  2  0
  4  6  1  0
  6  7  2  0
  7  8  1  0
  8  9  2  0
  9 10  1  0
 10 11  1  0
 11 12  2  0
 11 13  1  0
 13 14  1  0
 14 15  1  0
 15 16  2  0
 16 17  1  0
 17 18  1  0
 18 19  2  0
 19 20  1  0
 20 21  2  0
 21 22  1  0
 22 23  1  0
 23 24  1  0
 24 25  1  0
 25 26  1  0
 26 27  1  0
 21 28  1  0
 28 29  2  0
 17 30  2  0
 30 31  1  0
 31 32  1  0
 32 33  2  0
 33 34  1  0
 34 35  2  0
 35 36  1  0
 36 37  1  0
 37 38  1  0
 38 39  1  0
 39 40  1  0
 40 41  1  0
 35 42  1  0
 42 43  2  0
 31 44  2  0
 44 45  1  0
 45 46  1  0
  9 47  1  0
 47 48  2  0
 48  6  1  0
 45 13  2  0
 44 15  1  0
 29 18  1  0
 43 32  1  0
 27 22  1  0
 41 36  1  0
M  END
>  <Binding energies>  (39) 
[8.34]

>  <Ligand effiencies>  (39) 
[0.16352941176470587]

>  <Interactions>  (39) 
["V-B:GLU:543:CB:9878, V-A:HIS:456:CE1:4068, V-B:GLU:543:CD:9880, V-A:GLU:543:CD:4906, V-B:HIS:456:CE1:9042, V-A:GLY:544:CA:4912, H-A:LYS:547:NZ:4949, V-B:GLY:544:C:9884, V-A:GLY:544:C:4910, H-B:GLU:543:O:9875, V-B:HIS:456:CD2:9040, V-B:GLU:543:CG:9879, V-A:GLU:543:CG:4905, V-B:GLU:543:C:9874, H-A:TYR:484:OH:4346, V-A:TYR:484:CZ:4345, V-B:GLY:544:CA:9886, V-A:GLU:543:C:4900, V-B:TYR:539:CZ:9849, V-B:TYR:539:CG:9844, V-A:TRP:381:CZ2:3368, V-A:ILE:369:CD1:3237, V-A:LEU:475:CD2:4257, V-A:TRP:381:CH2:3370, V-B:TYR:539:CD2:9846, V-B:TYR:539:CE2:9848, V-A:ILE:369:CG2:3235, V-A:ILE:369:CG1:3236, V-A:ILE:369:CB:3234, V-B:ASP:366:CG:8185, V-A:TYR:539:CE2:4874, V-B:ASP:366:CB:8184, V-A:TRP:381:CZ3:3369, V-A:TYR:539:CZ:4875, H-A:GLU:543:OE2:4908, H-A:GLU:543:OE1:4907, V-B:HIS:456:CG:9038, V-B:LYS:547:CD:9921, H-B:GLU:543:OE2:9882, V-A:SER:385:CA:3405, V-B:ARG:545:CA:9891, H-A:HIS:456:ND1:4065, H-A:ARG:545:N:4918, V-B:HIS:456:CB:9037, V-A:SER:385:C:3403, V-A:SER:385:CB:3407, V-B:VAL:458:CG2:9059, V-B:HIS:456:C:9033, V-B:HIS:456:CA:9035, V-A:LEU:373:CD2:3279, H-A:ASN:382:ND2:3379, V-A:VAL:384:C:3395, V-A:LEU:373:CG:3277"]

$$$$
9b_Ghoteimi_2023
     RDKit          3D

 42 48  0  0  0  0  0  0  0  0999 V2000
  131.0080  125.0180   60.3400 N   0  0  0  0  0  0  0  0  0  0  0  0
  131.4380  124.7830   61.6210 C   0  0  0  0  0  0  0  0  0  0  0  0
  132.4420  123.8560   61.9420 C   0  0  0  0  0  0  0  0  0  0  0  0
  133.2230  123.0050   61.0410 C   0  0  0  0  0  0  0  0  0  0  0  0
  134.1560  123.4740   60.3850 O   0  0  0  0  0  0  0  0  0  0  0  0
  132.8390  121.7050   60.9880 N   0  0  0  0  0  0  0  0  0  0  0  0
  133.3910  120.6900   60.2160 C   0  0  0  0  0  0  0  0  0  0  0  0
  134.3140  119.7720   60.7140 C   0  0  0  0  0  0  0  0  0  0  0  0
  134.6040  118.9460   59.6530 C   0  0  0  0  0  0  0  0  0  0  0  0
  133.8930  119.3470   58.5720 O   0  0  0  0  0  0  0  0  0  0  0  0
  133.1280  120.4530   58.9420 N   0  0  0  0  0  0  0  0  0  0  0  0
  132.7160  123.7910   63.6830 S   0  0  0  0  0  0  0  0  0  0  0  0
  131.4760  124.9880   63.9690 C   0  0  0  0  0  0  0  0  0  0  0  0
  131.1590  125.3840   65.2010 N   0  0  0  0  0  0  0  0  0  0  0  0
  130.1680  126.3070   65.3160 C   0  0  0  0  0  0  0  0  0  0  0  0
  129.8180  126.7180   66.7090 C   0  0  0  0  0  0  0  0  0  0  0  0
  128.4830  126.8620   67.1070 C   0  0  0  0  0  0  0  0  0  0  0  0
  128.1630  127.2590   68.4020 C   0  0  0  0  0  0  0  0  0  0  0  0
  129.1660  127.5420   69.3420 C   0  0  0  0  0  0  0  0  0  0  0  0
  128.8590  127.9400   70.6480 N   0  0  0  0  0  0  0  0  0  0  0  0
  129.7280  127.5780   71.7860 C   0  0  0  0  0  0  0  0  0  0  0  0
  129.4350  128.3770   73.0730 C   0  0  0  0  0  0  0  0  0  0  0  0
  128.0660  128.2530   73.4200 O   0  0  0  0  0  0  0  0  0  0  0  0
  127.2220  128.7570   72.3980 C   0  0  0  0  0  0  0  0  0  0  0  0
  127.4480  127.9730   71.0870 C   0  0  0  0  0  0  0  0  0  0  0  0
  130.5000  127.3780   68.9430 C   0  0  0  0  0  0  0  0  0  0  0  0
  130.8200  126.9760   67.6500 C   0  0  0  0  0  0  0  0  0  0  0  0
  129.5190  126.8490   64.2030 C   0  0  0  0  0  0  0  0  0  0  0  0
  129.8640  126.4500   62.9060 C   0  0  0  0  0  0  0  0  0  0  0  0
  129.1650  127.0780   61.7560 C   0  0  0  0  0  0  0  0  0  0  0  0
  127.7980  126.8740   61.5650 C   0  0  0  0  0  0  0  0  0  0  0  0
  127.1370  127.4760   60.5000 C   0  0  0  0  0  0  0  0  0  0  0  0
  127.8250  128.2990   59.5940 C   0  0  0  0  0  0  0  0  0  0  0  0
  127.1780  128.9260   58.5260 N   0  0  0  0  0  0  0  0  0  0  0  0
  125.7220  129.1560   58.5990 C   0  0  0  0  0  0  0  0  0  0  0  0
  125.0880  129.4760   57.2280 C   0  0  0  0  0  0  0  0  0  0  0  0
  125.7430  130.5880   56.6380 O   0  0  0  0  0  0  0  0  0  0  0  0
  127.1260  130.3370   56.4350 C   0  0  0  0  0  0  0  0  0  0  0  0
  127.8120  130.0340   57.7840 C   0  0  0  0  0  0  0  0  0  0  0  0
  129.1950  128.5110   59.8060 C   0  0  0  0  0  0  0  0  0  0  0  0
  129.8570  127.9080   60.8730 C   0  0  0  0  0  0  0  0  0  0  0  0
  130.8750  125.4590   62.7640 C   0  0  0  0  0  0  0  0  0  0  0  0
  1  2  1  0
  2  3  2  0
  3  4  1  0
  4  5  2  0
  4  6  1  0
  6  7  1  0
  7  8  1  0
  8  9  2  0
  9 10  1  0
 10 11  1  0
  3 12  1  0
 12 13  1  0
 13 14  2  0
 14 15  1  0
 15 16  1  0
 16 17  2  0
 17 18  1  0
 18 19  2  0
 19 20  1  0
 20 21  1  0
 21 22  1  0
 22 23  1  0
 23 24  1  0
 24 25  1  0
 19 26  1  0
 26 27  2  0
 15 28  2  0
 28 29  1  0
 29 30  1  0
 30 31  2  0
 31 32  1  0
 32 33  2  0
 33 34  1  0
 34 35  1  0
 35 36  1  0
 36 37  1  0
 37 38  1  0
 38 39  1  0
 33 40  1  0
 40 41  2  0
 29 42  2  0
 42  2  1  0
 11  7  2  0
 42 13  1  0
 27 16  1  0
 41 30  1  0
 25 20  1  0
 39 34  1  0
M  END
>  <Binding energies>  (40) 
[0.6]

>  <Ligand effiencies>  (40) 
[0.013333333333333332]

>  <Interactions>  (40) 
["V-B:GLU:543:CB:9878, V-A:HIS:456:CE1:4068, V-B:GLU:543:CD:9880, V-A:GLU:543:CD:4906, V-B:HIS:456:CE1:9042, V-A:GLY:544:CA:4912, H-A:LYS:547:NZ:4949, V-B:GLY:544:C:9884, V-A:GLY:544:C:4910, V-B:HIS:456:CD2:9040, V-B:GLU:543:CG:9879, V-A:GLU:543:CG:4905, V-B:GLU:543:C:9874, V-A:ARG:545:CG:4920, V-A:LYS:547:CE:4948, H-A:TYR:484:OH:4346, V-A:GLU:543:C:4900, V-A:TRP:381:CZ2:3368, V-A:ILE:369:CD1:3237, V-A:LEU:475:CD2:4257, V-A:TRP:381:CH2:3370, V-A:GLY:454:CA:4047, V-B:TYR:539:CE2:9848, V-A:ILE:369:CG2:3235, V-B:ASP:366:CG:8185, V-A:TYR:539:CE2:4874, V-B:ASP:366:CB:8184, V-A:TRP:381:CZ3:3369, V-A:TYR:539:CZ:4875, V-B:HIS:456:CG:9038, H-A:TYR:539:OH:4876, V-A:SER:385:CA:3405, H-A:ASP:366:OD1:3212, V-B:HIS:456:CB:9037, V-A:SER:385:C:3403, V-A:SER:385:CB:3407"]

$$$$
9c_Ghoteimi_2023
     RDKit          3D

 42 48  0  0  0  0  0  0  0  0999 V2000
  129.4740  126.8610   60.5790 N   0  0  0  0  0  0  0  0  0  0  0  0
  128.8800  127.5980   61.5710 C   0  0  0  0  0  0  0  0  0  0  0  0
  128.0620  128.7110   61.3220 C   0  0  0  0  0  0  0  0  0  0  0  0
  127.6680  129.2850   60.0320 C   0  0  0  0  0  0  0  0  0  0  0  0
  126.5780  129.0110   59.5250 O   0  0  0  0  0  0  0  0  0  0  0  0
  128.5780  130.1120   59.4610 N   0  0  0  0  0  0  0  0  0  0  0  0
  128.4620  130.7690   58.2440 C   0  0  0  0  0  0  0  0  0  0  0  0
  127.5900  130.5450   57.2850 N   0  0  0  0  0  0  0  0  0  0  0  0
  127.7750  131.3580   56.2630 C   0  0  0  0  0  0  0  0  0  0  0  0
  128.8200  132.2700   56.3820 C   0  0  0  0  0  0  0  0  0  0  0  0
  129.5950  132.0410   57.9210 S   0  0  0  0  0  0  0  0  0  0  0  0
  127.4930  129.4330   62.8270 S   0  0  0  0  0  0  0  0  0  0  0  0
  128.3670  128.2550   63.7760 C   0  0  0  0  0  0  0  0  0  0  0  0
  128.3560  128.2850   65.1080 N   0  0  0  0  0  0  0  0  0  0  0  0
  129.0830  127.3340   65.7510 C   0  0  0  0  0  0  0  0  0  0  0  0
  129.0710  127.4040   67.2440 C   0  0  0  0  0  0  0  0  0  0  0  0
  130.2380  127.1930   67.9880 C   0  0  0  0  0  0  0  0  0  0  0  0
  130.2200  127.2500   69.3780 C   0  0  0  0  0  0  0  0  0  0  0  0
  129.0290  127.5070   70.0770 C   0  0  0  0  0  0  0  0  0  0  0  0
  128.9960  127.5750   71.4750 N   0  0  0  0  0  0  0  0  0  0  0  0
  129.8940  126.7470   72.3060 C   0  0  0  0  0  0  0  0  0  0  0  0
  129.9700  127.1980   73.7800 C   0  0  0  0  0  0  0  0  0  0  0  0
  128.6660  127.2490   74.3380 O   0  0  0  0  0  0  0  0  0  0  0  0
  127.8420  128.1730   73.6470 C   0  0  0  0  0  0  0  0  0  0  0  0
  127.7030  127.7570   72.1660 C   0  0  0  0  0  0  0  0  0  0  0  0
  127.8680  127.7370   69.3260 C   0  0  0  0  0  0  0  0  0  0  0  0
  127.8880  127.6830   67.9350 C   0  0  0  0  0  0  0  0  0  0  0  0
  129.7900  126.3430   65.0650 C   0  0  0  0  0  0  0  0  0  0  0  0
  129.7850  126.2950   63.6670 C   0  0  0  0  0  0  0  0  0  0  0  0
  130.5270  125.2050   62.9850 C   0  0  0  0  0  0  0  0  0  0  0  0
  131.7860  124.8150   63.4450 C   0  0  0  0  0  0  0  0  0  0  0  0
  132.4780  123.7820   62.8190 C   0  0  0  0  0  0  0  0  0  0  0  0
  131.9280  123.1110   61.7150 C   0  0  0  0  0  0  0  0  0  0  0  0
  132.5990  122.0630   61.0780 N   0  0  0  0  0  0  0  0  0  0  0  0
  133.8000  121.4850   61.7140 C   0  0  0  0  0  0  0  0  0  0  0  0
  134.6500  120.6330   60.7470 C   0  0  0  0  0  0  0  0  0  0  0  0
  133.8510  119.6150   60.1650 O   0  0  0  0  0  0  0  0  0  0  0  0
  132.7630  120.1570   59.4320 C   0  0  0  0  0  0  0  0  0  0  0  0
  131.8660  121.0010   60.3630 C   0  0  0  0  0  0  0  0  0  0  0  0
  130.6530  123.4980   61.2750 C   0  0  0  0  0  0  0  0  0  0  0  0
  129.9620  124.5310   61.9010 C   0  0  0  0  0  0  0  0  0  0  0  0
  129.0600  127.3040   62.9700 C   0  0  0  0  0  0  0  0  0  0  0  0
  1  2  1  0
  2  3  2  0
  3  4  1  0
  4  5  2  0
  4  6  1  0
  6  7  1  0
  7  8  2  0
  8  9  1  0
  9 10  2  0
 10 11  1  0
  3 12  1  0
 12 13  1  0
 13 14  2  0
 14 15  1  0
 15 16  1  0
 16 17  2  0
 17 18  1  0
 18 19  2  0
 19 20  1  0
 20 21  1  0
 21 22  1  0
 22 23  1  0
 23 24  1  0
 24 25  1  0
 19 26  1  0
 26 27  2  0
 15 28  2  0
 28 29  1  0
 29 30  1  0
 30 31  2  0
 31 32  1  0
 32 33  2  0
 33 34  1  0
 34 35  1  0
 35 36  1  0
 36 37  1  0
 37 38  1  0
 38 39  1  0
 33 40  1  0
 40 41  2  0
 29 42  2  0
 42  2  1  0
 11  7  1  0
 42 13  1  0
 27 16  1  0
 41 30  1  0
 25 20  1  0
 39 34  1  0
M  END
>  <Binding energies>  (41) 
[1.31]

>  <Ligand effiencies>  (41) 
[0.029111111111111112]

>  <Interactions>  (41) 
["V-B:GLU:543:CB:9878, V-A:HIS:456:CE1:4068, V-B:GLU:543:CD:9880, V-A:GLU:543:CD:4906, V-B:HIS:456:CE1:9042, H-A:LYS:547:NZ:4949, V-B:GLY:544:C:9884, V-A:GLY:544:C:4910, V-B:HIS:456:CD2:9040, V-B:GLU:543:CG:9879, V-A:GLU:543:CG:4905, H-B:LYS:547:NZ:9923, V-A:LYS:547:CE:4948, V-B:LYS:547:CE:9922, V-A:GLU:543:C:4900, V-A:TRP:381:CZ2:3368, V-A:ILE:369:CD1:3237, V-A:LEU:475:CD2:4257, V-A:TRP:381:CH2:3370, V-A:GLY:454:CA:4047, V-B:TYR:539:CD2:9846, V-B:TYR:539:CE2:9848, V-A:ILE:369:CG2:3235, V-A:ILE:369:CG1:3236, V-A:ILE:369:CB:3234, V-A:PRO:540:CA:4881, V-A:PRO:540:N:4882, V-A:TYR:539:C:4865, V-A:TYR:539:CE2:4874, V-A:TYR:539:CD2:4872, V-A:TRP:381:CZ3:3369, V-A:TYR:539:CE1:4873, V-A:TYR:539:CZ:4875, V-A:TYR:539:CD1:4871, V-A:TYR:539:CG:4870, V-A:SER:385:CA:3405, V-A:SER:385:C:3403"]

$$$$
RR11_Rahimova_2017
     RDKit          3D

 33 38  0  0  0  0  0  0  0  0999 V2000
  134.2420  123.7290   57.4070 N   0  0  0  0  0  0  0  0  0  0  0  0
  133.2340  124.6230   57.7630 C   0  0  0  0  0  0  0  0  0  0  0  0
  132.7450  124.6330   59.0680 C   0  0  0  0  0  0  0  0  0  0  0  0
  131.7400  125.5290   59.4230 C   0  0  0  0  0  0  0  0  0  0  0  0
  131.2160  126.4220   58.4790 C   0  0  0  0  0  0  0  0  0  0  0  0
  130.1380  127.3910   58.8650 C   0  0  0  0  0  0  0  0  0  0  0  0
  129.1800  127.1310   59.7290 N   0  0  0  0  0  0  0  0  0  0  0  0
  128.4320  128.2770   59.7940 C   0  0  0  0  0  0  0  0  0  0  0  0
  127.2950  128.5500   60.5680 C   0  0  0  0  0  0  0  0  0  0  0  0
  126.7120  129.8190   60.4710 C   0  0  0  0  0  0  0  0  0  0  0  0
  125.4730  130.1420   61.2940 C   0  0  0  0  0  0  0  0  0  0  0  0
  125.6340  129.7990   62.7680 C   0  0  0  0  0  0  0  0  0  0  0  0
  124.5350  129.9190   63.6270 C   0  0  0  0  0  0  0  0  0  0  0  0
  124.6310  129.6080   64.9850 C   0  0  0  0  0  0  0  0  0  0  0  0
  125.8650  129.1610   65.4750 C   0  0  0  0  0  0  0  0  0  0  0  0
  126.2150  128.8040   66.7510 N   0  0  0  0  0  0  0  0  0  0  0  0
  127.4850  128.4660   66.6820 C   0  0  0  0  0  0  0  0  0  0  0  0
  128.3090  128.0160   67.8540 C   0  0  0  0  0  0  0  0  0  0  0  0
  127.6910  127.6300   69.0500 C   0  0  0  0  0  0  0  0  0  0  0  0
  128.4550  127.2220   70.1410 C   0  0  0  0  0  0  0  0  0  0  0  0
  129.8450  127.1980   70.0420 C   0  0  0  0  0  0  0  0  0  0  0  0
  130.6110  126.7940   71.1350 N   0  0  0  0  0  0  0  0  0  0  0  0
  130.4720  127.5750   68.8570 C   0  0  0  0  0  0  0  0  0  0  0  0
  129.7070  127.9820   67.7680 C   0  0  0  0  0  0  0  0  0  0  0  0
  127.9800  128.5830   65.4010 N   0  0  0  0  0  0  0  0  0  0  0  0
  126.9640  129.0330   64.5920 C   0  0  0  0  0  0  0  0  0  0  0  0
  126.8730  129.3370   63.2320 C   0  0  0  0  0  0  0  0  0  0  0  0
  127.2400  130.7810   59.6020 C   0  0  0  0  0  0  0  0  0  0  0  0
  128.3680  130.5390   58.8150 C   0  0  0  0  0  0  0  0  0  0  0  0
  128.9490  129.2740   58.9340 C   0  0  0  0  0  0  0  0  0  0  0  0
  130.0390  128.6680   58.3540 N   0  0  0  0  0  0  0  0  0  0  0  0
  131.7170  126.4000   57.1710 C   0  0  0  0  0  0  0  0  0  0  0  0
  132.7220  125.5050   56.8130 C   0  0  0  0  0  0  0  0  0  0  0  0
  1  2  1  0
  2  3  2  0
  3  4  1  0
  4  5  2  0
  5  6  1  0
  6  7  2  0
  7  8  1  0
  8  9  2  0
  9 10  1  0
 10 11  1  0
 11 12  1  0
 12 13  2  0
 13 14  1  0
 14 15  2  0
 15 16  1  0
 16 17  2  0
 17 18  1  0
 18 19  2  0
 19 20  1  0
 20 21  2  0
 21 22  1  0
 21 23  1  0
 23 24  2  0
 17 25  1  0
 25 26  1  0
 26 27  2  0
 10 28  2  0
 28 29  1  0
 29 30  2  0
 30 31  1  0
  5 32  1  0
 32 33  2  0
 33  2  1  0
 31  6  1  0
 30  8  1  0
 27 12  1  0
 26 15  1  0
 24 18  1  0
M  END
>  <Binding energies>  (42) 
[-6.04]

>  <Ligand effiencies>  (42) 
[-0.15487179487179487]

>  <Interactions>  (42) 
["V-B:ARG:545:CZ:9898, V-A:HIS:456:CE1:4068, V-A:HIS:456:CD2:4066, V-B:GLU:543:CD:9880, H-B:TYR:484:OH:9320, H-A:HIS:456:NE2:4069, V-A:GLU:543:CD:4906, V-B:HIS:456:CE1:9042, V-B:GLY:544:C:9884, V-A:GLY:544:C:4910, H-B:GLU:543:O:9875, H-B:ARG:545:NE:9896, V-A:GLU:543:CB:4904, V-A:GLU:543:CG:4905, V-B:GLU:543:C:9874, V-A:HIS:456:CG:4064, V-A:GLU:543:C:4900, V-B:TYR:539:CZ:9849, V-A:ASP:366:CG:3211, V-B:TYR:539:CE2:9848, V-A:ILE:369:CG2:3235, V-A:ASP:366:CA:3208, V-A:ASP:366:CB:3210, V-A:ASP:366:C:3206, V-A:ILE:369:CB:3234, H-A:TYR:531:OH:4793, V-B:ASP:366:CG:8185, H-A:GLU:543:OE2:4908, H-A:GLU:543:OE1:4907, H-B:TYR:539:OH:9850, H-B:HIS:456:ND1:9039, H-A:GLY:544:O:4911, H-B:GLU:543:OE2:9882, V-A:TYR:531:CE1:4790, V-B:ARG:545:CG:9894, V-B:ARG:545:CD:9895, H-A:ASP:366:O:3207, H-A:GLU:543:O:4901, H-A:ASP:366:OD2:3213"]

$$$$
RR16_Rahimova_2017
     RDKit          3D

 44 49  0  0  0  0  0  0  0  0999 V2000
  126.9600  133.3030   63.3990 O   0  0  0  0  0  0  0  0  0  0  0  0
  126.3180  132.8150   62.1730 S   0  0  0  0  0  0  0  0  0  0  0  0
  125.2440  133.5810   61.5300 O   0  0  0  0  0  0  0  0  0  0  0  0
  125.7120  131.1900   62.5000 N   0  0  0  0  0  0  0  0  0  0  0  0
  125.0030  130.4170   61.4530 C   0  0  0  0  0  0  0  0  0  0  0  0
  124.8080  131.3130   60.2020 C   0  0  0  0  0  0  0  0  0  0  0  0
  124.3200  130.6290   58.9110 C   0  0  0  0  0  0  0  0  0  0  0  0
  125.3160  129.6090   58.3300 C   0  0  0  0  0  0  0  0  0  0  0  0
  126.7590  129.7030   58.8640 C   0  0  0  0  0  0  0  0  0  0  0  0
  127.0090  129.2210   60.3070 C   0  0  0  0  0  0  0  0  0  0  0  0
  125.7710  129.0950   61.2160 C   0  0  0  0  0  0  0  0  0  0  0  0
  127.6180  132.5720   60.9680 C   0  0  0  0  0  0  0  0  0  0  0  0
  127.3800  132.8190   59.6140 C   0  0  0  0  0  0  0  0  0  0  0  0
  128.3590  132.5090   58.6750 C   0  0  0  0  0  0  0  0  0  0  0  0
  129.5710  131.9550   59.0930 C   0  0  0  0  0  0  0  0  0  0  0  0
  130.7750  131.4260   57.8770 S   0  0  0  0  0  0  0  0  0  0  0  0
  132.0380  132.1120   58.1820 O   0  0  0  0  0  0  0  0  0  0  0  0
  130.1560  131.5670   56.5540 O   0  0  0  0  0  0  0  0  0  0  0  0
  130.9900  129.6950   58.2040 N   0  0  0  0  0  0  0  0  0  0  0  0
  130.4700  129.2490   59.5230 C   0  0  0  0  0  0  0  0  0  0  0  0
  130.9720  127.8270   59.8480 C   0  0  0  0  0  0  0  0  0  0  0  0
  130.6580  126.8310   58.7050 C   0  0  0  0  0  0  0  0  0  0  0  0
  131.1900  125.4240   58.9890 C   0  0  0  0  0  0  0  0  0  0  0  0
  132.5400  125.1290   58.7490 C   0  0  0  0  0  0  0  0  0  0  0  0
  133.0690  123.8620   59.0010 C   0  0  0  0  0  0  0  0  0  0  0  0
  134.3920  123.5930   58.7650 O   0  0  0  0  0  0  0  0  0  0  0  0
  132.2110  122.8740   59.5080 C   0  0  0  0  0  0  0  0  0  0  0  0
  132.4460  121.5770   59.8600 N   0  0  0  0  0  0  0  0  0  0  0  0
  131.2620  121.0540   60.3310 N   0  0  0  0  0  0  0  0  0  0  0  0
  130.3080  122.0000   60.2290 N   0  0  0  0  0  0  0  0  0  0  0  0
  128.9660  121.7460   60.7380 C   0  0  0  0  0  0  0  0  0  0  0  0
  127.9400  122.7360   60.2060 C   0  0  0  0  0  0  0  0  0  0  0  0
  127.2710  123.5950   61.0860 C   0  0  0  0  0  0  0  0  0  0  0  0
  126.3460  124.5180   60.5980 C   0  0  0  0  0  0  0  0  0  0  0  0
  126.0850  124.5890   59.2290 C   0  0  0  0  0  0  0  0  0  0  0  0
  126.7490  123.7370   58.3470 C   0  0  0  0  0  0  0  0  0  0  0  0
  126.4370  123.8300   56.6520 Cl  0  0  0  0  0  0  0  0  0  0  0  0
  127.6730  122.8100   58.8350 C   0  0  0  0  0  0  0  0  0  0  0  0
  130.8480  123.1780   59.7390 C   0  0  0  0  0  0  0  0  0  0  0  0
  130.3150  124.4450   59.4840 C   0  0  0  0  0  0  0  0  0  0  0  0
  131.0950  127.3700   57.3180 C   0  0  0  0  0  0  0  0  0  0  0  0
  130.5980  128.8090   57.0770 C   0  0  0  0  0  0  0  0  0  0  0  0
  129.8230  131.7480   60.4510 C   0  0  0  0  0  0  0  0  0  0  0  0
  128.8430  132.0540   61.3890 C   0  0  0  0  0  0  0  0  0  0  0  0
  1  2  2  0
  2  3  2  0
  2  4  1  0
  4  5  1  0
  5  6  1  0
  6  7  1  0
  7  8  1  0
  8  9  1  0
  9 10  1  0
 10 11  1  0
  2 12  1  0
 12 13  2  0
 13 14  1  0
 14 15  2  0
 15 16  1  0
 16 17  2  0
 16 18  2  0
 16 19  1  0
 19 20  1  0
 20 21  1  0
 21 22  1  0
 22 23  1  0
 23 24  2  0
 24 25  1  0
 25 26  1  0
 25 27  2  0
 27 28  1  0
 28 29  2  0
 29 30  1  0
 30 31  1  0
 31 32  1  0
 32 33  2  0
 33 34  1  0
 34 35  2  0
 35 36  1  0
 36 37  1  0
 36 38  2  0
 30 39  1  0
 39 40  2  0
 22 41  1  0
 41 42  1  0
 15 43  1  0
 43 44  2  0
 11  5  1  0
 44 12  1  0
 42 19  1  0
 40 23  1  0
 39 27  1  0
 38 32  1  0
M  END
>  <Binding energies>  (43) 
[-7.45]

>  <Ligand effiencies>  (43) 
[-0.15520833333333334]

>  <Interactions>  (43) 
["V-B:PRO:540:C:9853, V-B:PRO:540:CA:9855, V-B:TYR:539:C:9839, V-B:ALA:541:CA:9862, V-A:ASP:366:CG:3211, V-B:ALA:541:CB:9864, V-B:TYR:539:CD2:9846, V-B:TYR:539:CE2:9848, V-B:PRO:540:N:9856, V-A:ASP:366:CB:3210, H-A:TYR:531:OH:4793, V-B:LEU:475:CD2:9231, V-A:PRO:540:CA:4881, V-A:PRO:540:N:4882, V-B:ASP:366:CG:8185, V-A:TYR:539:C:4865, V-A:TYR:539:CE2:4874, V-A:ALA:541:CB:4890, V-B:ASP:366:CB:8184, V-A:TYR:539:CD2:4872, H-A:GLU:543:OE1:4907, V-A:TYR:539:CG:4870, V-B:ASP:366:CA:8182, H-A:ASP:366:O:3207, H-A:ASP:366:OD1:3212"]

$$$$
RR18_Rahimova_2017
     RDKit          3D

 36 41  0  0  0  0  0  0  0  0999 V2000
  133.5450  131.3660   60.5580 C   0  0  0  0  0  0  0  0  0  0  0  0
  132.0870  131.0160   60.7130 C   0  0  0  0  0  0  0  0  0  0  0  0
  131.0990  131.3740   61.6160 C   0  0  0  0  0  0  0  0  0  0  0  0
  129.9360  130.7100   61.2260 C   0  0  0  0  0  0  0  0  0  0  0  0
  130.2550  129.9710   60.0980 C   0  0  0  0  0  0  0  0  0  0  0  0
  129.4620  129.0440   59.1820 C   0  0  1  0  0  0  0  0  0  0  0  0
  128.8730  129.8120   57.9610 C   0  0  0  0  0  0  0  0  0  0  0  0
  127.8640  130.8490   58.1570 C   0  0  0  0  0  0  0  0  0  0  0  0
  127.6850  131.7460   57.3310 O   0  0  0  0  0  0  0  0  0  0  0  0
  127.1520  130.7200   59.3000 N   0  0  0  0  0  0  0  0  0  0  0  0
  126.1240  131.5280   59.8310 C   0  0  0  0  0  0  0  0  0  0  0  0
  124.7640  131.1670   59.8100 C   0  0  0  0  0  0  0  0  0  0  0  0
  123.7970  132.0150   60.3460 C   0  0  0  0  0  0  0  0  0  0  0  0
  124.1680  133.2350   60.9030 C   0  0  0  0  0  0  0  0  0  0  0  0
  125.5090  133.6110   60.9200 C   0  0  0  0  0  0  0  0  0  0  0  0
  126.4920  132.7710   60.3870 C   0  0  0  0  0  0  0  0  0  0  0  0
  127.9460  133.2310   60.4270 C   0  0  0  0  0  0  0  0  0  0  0  0
  129.3940  129.5670   56.7300 C   0  0  0  0  0  0  0  0  0  0  0  0
  130.3200  128.6070   56.4550 N   0  0  0  0  0  0  0  0  0  0  0  0
  130.6930  127.8060   57.3840 C   0  0  0  0  0  0  0  0  0  0  0  0
  131.7540  126.4370   57.1470 S   0  0  0  0  0  0  0  0  0  0  0  0
  131.6360  125.9810   58.8760 C   0  0  0  0  0  0  0  0  0  0  0  0
  132.2480  124.9140   59.4990 C   0  0  0  0  0  0  0  0  0  0  0  0
  133.0410  123.9540   58.7170 C   0  0  0  0  0  0  0  0  0  0  0  0
  133.3020  123.9350   57.5150 O   0  0  0  0  0  0  0  0  0  0  0  0
  133.4640  123.0070   59.5610 N   0  0  0  0  0  0  0  0  0  0  0  0
  133.0770  123.2300   60.8480 C   0  0  0  0  0  0  0  0  0  0  0  0
  133.3570  122.4540   61.9710 C   0  0  0  0  0  0  0  0  0  0  0  0
  132.8910  122.8750   63.2130 C   0  0  0  0  0  0  0  0  0  0  0  0
  132.1670  124.0620   63.3110 C   0  0  0  0  0  0  0  0  0  0  0  0
  131.8980  124.8230   62.1700 C   0  0  0  0  0  0  0  0  0  0  0  0
  132.3410  124.4010   60.9020 C   0  0  0  0  0  0  0  0  0  0  0  0
  130.7510  126.9390   59.5370 C   0  0  0  0  0  0  0  0  0  0  0  0
  130.3940  126.9140   60.7110 O   0  0  0  0  0  0  0  0  0  0  0  0
  130.3130  127.9050   58.6840 N   0  0  0  0  0  0  0  0  0  0  0  0
  131.5670  130.1620   59.7930 O   0  0  0  0  0  0  0  0  0  0  0  0
  1  2  1  0
  2  3  2  0
  3  4  1  0
  4  5  2  0
  6  5  1  1
  6  7  1  0
  7  8  1  0
  8  9  2  0
  8 10  1  0
 10 11  1  0
 11 12  2  0
 12 13  1  0
 13 14  2  0
 14 15  1  0
 15 16  2  0
 16 17  1  0
  7 18  2  0
 18 19  1  0
 19 20  2  0
 20 21  1  0
 21 22  1  0
 22 23  2  0
 23 24  1  0
 24 25  2  0
 24 26  1  0
 26 27  1  0
 27 28  2  0
 28 29  1  0
 29 30  2  0
 30 31  1  0
 31 32  2  0
 22 33  1  0
 33 34  2  0
 33 35  1  0
  5 36  1  0
 36  2  1  0
 35  6  1  0
 16 11  1  0
 35 20  1  0
 32 23  1  0
 32 27  1  0
M  END
>  <Binding energies>  (44) 
[-8.22]

>  <Ligand effiencies>  (44) 
[-0.21631578947368424]

>  <Interactions>  (44) 
["V-A:GLU:543:CD:4906, V-A:ILE:369:CD1:3237, V-A:LEU:475:CD2:4257, V-A:ASP:366:CG:3211, V-A:GLY:454:CA:4047, V-B:TYR:539:CE2:9848, V-A:ILE:369:CG2:3235, V-A:ASP:366:CB:3210, V-A:ILE:369:CB:3234, H-A:TYR:531:OH:4793, V-B:LEU:475:CD2:9231, V-A:ASN:362:CB:3174, V-A:PRO:540:CA:4881, V-B:ASP:366:CG:8185, V-B:ILE:369:CD1:8211, V-A:PRO:540:CB:4883, V-A:ASN:362:C:3170, V-A:TYR:539:C:4865, V-A:TYR:539:CE2:4874, V-B:ILE:369:CG2:8209, V-A:ALA:541:CB:4890, H-A:ARG:545:NH2:4926, V-A:TYR:539:CD2:4872, H-B:TYR:539:OH:9850, H-A:TYR:539:OH:4876, V-B:ILE:369:CB:8208, V-A:ALA:541:CA:4888"]

$$$$
RR20_Rahimova_2017
     RDKit          3D

 38 43  0  0  0  0  0  0  0  0999 V2000
  125.5770  129.4000   65.9980 C   0  0  0  0  0  0  0  0  0  0  0  0
  125.4490  129.9070   64.5730 C   0  0  0  0  0  0  0  0  0  0  0  0
  126.5780  130.3720   63.8980 C   0  0  0  0  0  0  0  0  0  0  0  0
  126.4650  130.8300   62.5880 C   0  0  0  0  0  0  0  0  0  0  0  0
  125.2210  130.8390   61.9470 C   0  0  0  0  0  0  0  0  0  0  0  0
  125.1230  131.3210   60.5170 C   0  0  0  0  0  0  0  0  0  0  0  0
  125.0980  132.5390   60.3250 O   0  0  0  0  0  0  0  0  0  0  0  0
  125.0800  130.4060   59.5040 N   0  0  0  0  0  0  0  0  0  0  0  0
  124.7840  130.8030   58.1180 C   0  0  0  0  0  0  0  0  0  0  0  0
  124.9760  129.5600   57.2660 C   0  0  0  0  0  0  0  0  0  0  0  0
  125.7330  128.6440   58.1790 C   0  0  0  0  0  0  0  0  0  0  0  0
  126.2670  127.3820   57.9140 C   0  0  0  0  0  0  0  0  0  0  0  0
  126.8020  126.6020   58.9460 C   0  0  0  0  0  0  0  0  0  0  0  0
  127.3850  125.2460   58.6600 C   0  0  0  0  0  0  0  0  0  0  0  0
  128.4100  124.8360   59.3890 N   0  0  0  0  0  0  0  0  0  0  0  0
  128.8230  123.6360   59.0670 C   0  0  0  0  0  0  0  0  0  0  0  0
  129.8620  122.9110   59.6300 N   0  0  0  0  0  0  0  0  0  0  0  0
  129.7570  121.8140   60.4190 C   0  0  0  0  0  0  0  0  0  0  0  0
  128.6850  121.2900   60.7310 O   0  0  0  0  0  0  0  0  0  0  0  0
  131.0610  121.1640   60.9380 C   0  0  0  0  0  0  0  0  0  0  0  0
  131.7950  122.0230   61.8860 N   0  0  0  0  0  0  0  0  0  0  0  0
  132.8030  122.8610   61.2190 C   0  0  0  0  0  0  0  0  0  0  0  0
  133.7160  123.5340   62.2690 C   0  0  0  0  0  0  0  0  0  0  0  0
  132.9360  124.1470   63.4330 C   0  0  0  0  0  0  0  0  0  0  0  0
  133.5540  125.0220   64.3330 C   0  0  0  0  0  0  0  0  0  0  0  0
  132.8540  125.5500   65.4150 C   0  0  0  0  0  0  0  0  0  0  0  0
  131.5180  125.2090   65.6080 C   0  0  0  0  0  0  0  0  0  0  0  0
  130.8880  124.3460   64.7140 C   0  0  0  0  0  0  0  0  0  0  0  0
  131.5810  123.8070   63.6240 C   0  0  0  0  0  0  0  0  0  0  0  0
  130.8740  122.9070   62.6100 C   0  0  0  0  0  0  0  0  0  0  0  0
  127.9460  122.9040   57.7810 S   0  0  0  0  0  0  0  0  0  0  0  0
  126.9540  124.3380   57.6700 C   0  0  0  0  0  0  0  0  0  0  0  0
  125.8740  124.4420   56.6150 C   0  0  0  0  0  0  0  0  0  0  0  0
  126.7380  127.0950   60.2590 C   0  0  0  0  0  0  0  0  0  0  0  0
  126.1880  128.3480   60.5300 C   0  0  0  0  0  0  0  0  0  0  0  0
  125.7340  129.1530   59.4770 C   0  0  0  0  0  0  0  0  0  0  0  0
  124.0970  130.3440   62.6210 C   0  0  0  0  0  0  0  0  0  0  0  0
  124.2100  129.8850   63.9320 C   0  0  0  0  0  0  0  0  0  0  0  0
  1  2  1  0
  2  3  2  0
  3  4  1  0
  4  5  2  0
  5  6  1  0
  6  7  2  0
  6  8  1  0
  8  9  1  0
  9 10  1  0
 10 11  1  0
 11 12  2  0
 12 13  1  0
 13 14  1  0
 14 15  1  0
 15 16  2  0
 16 17  1  0
 17 18  1  0
 18 19  2  0
 18 20  1  0
 20 21  1  0
 21 22  1  0
 22 23  1  0
 23 24  1  0
 24 25  2  0
 25 26  1  0
 26 27  2  0
 27 28  1  0
 28 29  2  0
 29 30  1  0
 16 31  1  0
 31 32  1  0
 32 33  1  0
 13 34  2  0
 34 35  1  0
 35 36  2  0
  5 37  1  0
 37 38  2  0
 38  2  1  0
 36  8  1  0
 36 11  1  0
 32 14  2  0
 30 21  1  0
 29 24  1  0
M  END
>  <Binding energies>  (45) 
[-8.66]

>  <Ligand effiencies>  (45) 
[-0.22205128205128205]

>  <Interactions>  (45) 
["V-B:ARG:545:CZ:9898, V-B:GLU:543:CB:9878, V-B:GLY:453:CA:9016, V-A:HIS:456:CE1:4068, V-B:GLU:543:CD:9880, V-A:GLU:543:CD:4906, V-B:HIS:456:CE1:9042, V-A:ARG:545:CZ:4924, V-A:ARG:545:CG:4920, V-A:ARG:545:CD:4921, V-A:TYR:484:CZ:4345, V-A:GLY:453:C:4040, V-B:TYR:539:CG:9844, V-A:ILE:369:CD1:3237, V-A:LEU:475:CD2:4257, V-B:PRO:540:CA:9855, V-A:GLY:453:CA:4042, V-B:TYR:539:C:9839, V-A:GLY:454:CA:4047, V-B:ALA:541:CB:9864, V-B:TYR:539:CD2:9846, V-B:TYR:539:CE2:9848, V-B:PRO:540:N:9856, V-B:ASP:366:CG:8185, H-B:ALA:541:N:9863, V-A:TYR:539:CE2:4874, V-B:ASP:366:CB:8184, V-A:TYR:539:CZ:4875, V-B:ARG:545:CG:9894, V-B:ARG:545:CD:9895"]

$$$$
RR21_Rahimova_2017
     RDKit          3D

 40 45  0  0  0  0  0  0  0  0999 V2000
  124.2590  130.9750   63.1040 C   0  0  0  0  0  0  0  0  0  0  0  0
  124.2470  131.0040   64.5280 O   0  0  0  0  0  0  0  0  0  0  0  0
  125.1490  130.2250   65.2280 C   0  0  0  0  0  0  0  0  0  0  0  0
  124.7870  129.1690   66.0810 C   0  0  0  0  0  0  0  0  0  0  0  0
  125.7610  128.4290   66.7490 C   0  0  0  0  0  0  0  0  0  0  0  0
  127.1200  128.7210   66.5800 C   0  0  0  0  0  0  0  0  0  0  0  0
  128.1660  127.9210   67.2950 C   0  0  0  0  0  0  0  0  0  0  0  0
  128.1830  127.8950   68.6140 N   0  0  0  0  0  0  0  0  0  0  0  0
  129.2120  127.1100   68.9700 N   0  0  0  0  0  0  0  0  0  0  0  0
  129.5060  126.8480   70.3330 C   0  0  0  0  0  0  0  0  0  0  0  0
  128.4770  126.7110   71.2760 C   0  0  0  0  0  0  0  0  0  0  0  0
  128.7780  126.4490   72.6100 C   0  0  0  0  0  0  0  0  0  0  0  0
  130.1080  126.3230   73.0050 C   0  0  0  0  0  0  0  0  0  0  0  0
  131.1390  126.4590   72.0790 C   0  0  0  0  0  0  0  0  0  0  0  0
  130.8410  126.7220   70.7450 C   0  0  0  0  0  0  0  0  0  0  0  0
  129.8420  126.6200   67.8540 C   0  0  0  0  0  0  0  0  0  0  0  0
  129.2010  127.1360   66.7380 C   0  0  0  0  0  0  0  0  0  0  0  0
  129.4800  126.8670   65.3350 C   0  0  0  0  0  0  0  0  0  0  0  0
  130.4010  126.0250   64.8120 C   0  0  0  0  0  0  0  0  0  0  0  0
  131.5610  124.9970   65.6830 S   0  0  0  0  0  0  0  0  0  0  0  0
  132.1550  124.3880   64.1440 C   0  0  0  0  0  0  0  0  0  0  0  0
  133.0810  123.5030   63.9430 N   0  0  0  0  0  0  0  0  0  0  0  0
  133.4610  123.0870   62.6380 C   0  0  0  0  0  0  0  0  0  0  0  0
  134.3130  122.2410   62.3640 O   0  0  0  0  0  0  0  0  0  0  0  0
  132.7060  123.7780   61.5360 C   0  0  0  0  0  0  0  0  0  0  0  0
  133.0450  123.4240   60.0820 C   0  0  0  0  0  0  0  0  0  0  0  0
  131.8860  123.6050   59.1040 C   0  0  0  0  0  0  0  0  0  0  0  0
  132.0550  124.3830   57.9550 C   0  0  0  0  0  0  0  0  0  0  0  0
  131.0030  124.5340   57.0550 C   0  0  0  0  0  0  0  0  0  0  0  0
  129.7800  123.9060   57.3000 C   0  0  0  0  0  0  0  0  0  0  0  0
  128.6410  124.0640   56.3090 C   0  0  0  0  0  0  0  0  0  0  0  0
  129.6130  123.1190   58.4420 C   0  0  0  0  0  0  0  0  0  0  0  0
  130.6640  122.9680   59.3420 C   0  0  0  0  0  0  0  0  0  0  0  0
  131.7880  124.6630   61.7510 N   0  0  0  0  0  0  0  0  0  0  0  0
  131.5060  124.9710   63.0880 N   0  0  0  0  0  0  0  0  0  0  0  0
  130.5390  125.8790   63.3690 C   0  0  0  0  0  0  0  0  0  0  0  0
  129.8730  126.4840   62.5220 O   0  0  0  0  0  0  0  0  0  0  0  0
  127.4810  129.7760   65.7360 C   0  0  0  0  0  0  0  0  0  0  0  0
  126.5080  130.5180   65.0670 C   0  0  0  0  0  0  0  0  0  0  0  0
  126.8910  131.5320   64.2570 F   0  0  0  0  0  0  0  0  0  0  0  0
  1  2  1  0
  2  3  1  0
  3  4  2  0
  4  5  1  0
  5  6  2  0
  6  7  1  0
  7  8  2  0
  8  9  1  0
  9 10  1  0
 10 11  2  0
 11 12  1  0
 12 13  2  0
 13 14  1  0
 14 15  2  0
  9 16  1  0
 16 17  2  0
 17 18  1  0
 18 19  2  0
 19 20  1  0
 20 21  1  0
 21 22  2  0
 22 23  1  0
 23 24  2  0
 23 25  1  0
 25 26  1  0
 26 27  1  0
 27 28  2  0
 28 29  1  0
 29 30  2  0
 30 31  1  0
 30 32  1  0
 32 33  2  0
 25 34  2  0
 34 35  1  0
 35 36  1  0
 36 37  2  0
  6 38  1  0
 38 39  2  0
 39 40  1  0
 39  3  1  0
 17  7  1  0
 36 19  1  0
 15 10  1  0
 35 21  1  0
 33 27  1  0
M  END
>  <Binding energies>  (46) 
[-4.84]

>  <Ligand effiencies>  (46) 
[-0.121]

>  <Interactions>  (46) 
["V-B:ARG:545:CZ:9898, V-B:GLU:543:CB:9878, V-A:HIS:456:CE1:4068, V-A:HIS:456:CD2:4066, V-B:GLU:543:CD:9880, H-B:TYR:484:OH:9320, V-A:GLU:543:CD:4906, H-B:GLY:454:N:9022, V-B:HIS:456:CE1:9042, V-B:GLY:544:C:9884, V-A:GLY:544:C:4910, V-A:GLU:543:CB:4904, V-B:GLU:543:CG:9879, V-A:GLU:543:CG:4905, H-A:GLY:454:N:4048, V-B:GLU:543:C:9874, H-A:TYR:484:OH:4346, V-A:HIS:456:CG:4064, V-A:TYR:484:CZ:4345, V-B:LYS:547:CE:9922, V-B:GLY:544:CA:9886, V-B:TYR:539:CZ:9849, V-A:GLY:453:C:4040, V-A:GLY:454:CA:4047, V-B:TYR:539:CD2:9846, V-B:TYR:539:CE1:9847, V-B:TYR:539:CE2:9848, V-B:GLY:454:CA:9021, V-B:TYR:484:CZ:9319, V-B:ARG:545:CG:9894, V-B:ARG:545:CD:9895, V-B:TYR:484:CE1:9317"]

$$$$
RR23_Rahimova_2017
     RDKit          3D

 39 44  0  0  0  0  0  0  0  0999 V2000
  126.9010  128.0800   67.0420 C   0  0  0  0  0  0  0  0  0  0  0  0
  126.3490  129.0640   66.0260 C   0  0  0  0  0  0  0  0  0  0  0  0
  127.2130  129.7160   65.1460 C   0  0  0  0  0  0  0  0  0  0  0  0
  126.7040  130.6120   64.2080 C   0  0  0  0  0  0  0  0  0  0  0  0
  125.3300  130.8710   64.1520 C   0  0  0  0  0  0  0  0  0  0  0  0
  124.7960  131.8310   63.1130 C   0  0  0  0  0  0  0  0  0  0  0  0
  124.3120  132.8930   63.5110 O   0  0  0  0  0  0  0  0  0  0  0  0
  124.8800  131.5020   61.7890 N   0  0  0  0  0  0  0  0  0  0  0  0
  123.7520  131.7190   60.8680 C   0  0  0  0  0  0  0  0  0  0  0  0
  124.2630  131.3760   59.4780 C   0  0  0  0  0  0  0  0  0  0  0  0
  125.7500  131.3520   59.6660 C   0  0  0  0  0  0  0  0  0  0  0  0
  126.7530  131.1780   58.7130 C   0  0  0  0  0  0  0  0  0  0  0  0
  128.0900  131.0240   59.1100 C   0  0  0  0  0  0  0  0  0  0  0  0
  129.2260  130.8300   58.0930 C   0  0  2  0  0  0  0  0  0  0  0  0
  129.5220  129.4310   57.8670 N   0  0  0  0  0  0  0  0  0  0  0  0
  130.7540  129.2440   57.6070 C   0  0  0  0  0  0  0  0  0  0  0  0
  131.3910  128.0660   57.3680 N   0  0  0  0  0  0  0  0  0  0  0  0
  130.9050  126.8070   57.4860 C   0  0  0  0  0  0  0  0  0  0  0  0
  129.7500  126.5110   57.8030 O   0  0  0  0  0  0  0  0  0  0  0  0
  131.9100  125.6800   57.1980 C   0  0  0  0  0  0  0  0  0  0  0  0
  131.8560  124.6900   58.2980 N   0  0  0  0  0  0  0  0  0  0  0  0
  132.9900  124.6240   59.0970 N   0  0  0  0  0  0  0  0  0  0  0  0
  133.0700  123.7980   60.0910 N   0  0  0  0  0  0  0  0  0  0  0  0
  131.9970  122.9520   60.3780 C   0  0  0  0  0  0  0  0  0  0  0  0
  132.1160  122.0720   61.4570 C   0  0  0  0  0  0  0  0  0  0  0  0
  131.0610  121.2130   61.7680 C   0  0  0  0  0  0  0  0  0  0  0  0
  129.8910  121.2310   61.0060 C   0  0  0  0  0  0  0  0  0  0  0  0
  129.7700  122.1100   59.9270 C   0  0  0  0  0  0  0  0  0  0  0  0
  130.8280  122.9720   59.6160 C   0  0  0  0  0  0  0  0  0  0  0  0
  130.7190  123.9280   58.4500 C   0  0  0  0  0  0  0  0  0  0  0  0
  129.7290  124.0040   57.7150 O   0  0  0  0  0  0  0  0  0  0  0  0
  131.8010  130.6920   57.5580 S   0  0  0  0  0  0  0  0  0  0  0  0
  130.5170  131.6140   58.4230 C   0  0  2  0  0  0  0  0  0  0  0  0
  130.8970  131.7250   59.9150 C   0  0  0  0  0  0  0  0  0  0  0  0
  128.3900  131.0010   60.4770 C   0  0  0  0  0  0  0  0  0  0  0  0
  127.3840  131.1540   61.4320 C   0  0  0  0  0  0  0  0  0  0  0  0
  126.0640  131.3880   61.0260 C   0  0  0  0  0  0  0  0  0  0  0  0
  124.4660  130.1910   65.0200 C   0  0  0  0  0  0  0  0  0  0  0  0
  124.9740  129.2950   65.9570 C   0  0  0  0  0  0  0  0  0  0  0  0
  1  2  1  0
  2  3  2  0
  3  4  1  0
  4  5  2  0
  5  6  1  0
  6  7  2  0
  6  8  1  0
  8  9  1  0
  9 10  1  0
 10 11  1  0
 11 12  2  0
 12 13  1  0
 14 13  1  1
 14 15  1  0
 15 16  2  0
 16 17  1  0
 17 18  1  0
 18 19  2  0
 18 20  1  0
 20 21  1  0
 21 22  1  0
 22 23  2  0
 23 24  1  0
 24 25  2  0
 25 26  1  0
 26 27  2  0
 27 28  1  0
 28 29  2  0
 29 30  1  0
 30 31  2  0
 16 32  1  0
 32 33  1  0
 33 34  1  1
 13 35  2  0
 35 36  1  0
 36 37  2  0
  5 38  1  0
 38 39  2  0
 39  2  1  0
 37  8  1  0
 37 11  1  0
 33 14  1  0
 30 21  1  0
 29 24  1  0
M  END
>  <Binding energies>  (47) 
[-8.75]

>  <Ligand effiencies>  (47) 
[-0.21875]

>  <Interactions>  (47) 
["V-B:ARG:545:CZ:9898, V-B:GLU:543:CD:9880, H-B:TYR:484:OH:9320, V-A:GLU:543:CD:4906, H-B:GLY:454:N:9022, V-B:HIS:456:CE1:9042, V-A:GLU:543:CB:4904, V-B:GLU:543:CG:9879, V-A:GLU:543:CG:4905, V-B:TYR:539:CZ:9849, V-A:LEU:475:CD2:4257, V-A:ASP:366:CG:3211, V-B:ALA:541:CB:9864, V-B:TYR:539:CD2:9846, V-B:TYR:539:CE2:9848, V-A:ASP:366:CB:3210, H-A:TYR:531:OH:4793, V-A:PRO:540:CA:4881, V-A:PRO:540:N:4882, V-B:ASP:366:CG:8185, V-B:ILE:369:CD1:8211, V-A:TYR:531:CZ:4792, V-A:PRO:540:CB:4883, V-A:TYR:539:C:4865, V-A:PRO:540:C:4879, V-A:TYR:539:CE2:4874, V-B:ILE:369:CG2:8209, V-B:GLY:454:CA:9021, V-A:TYR:539:CD2:4872, V-A:TYR:539:CZ:4875, V-B:ARG:545:CG:9894, V-B:ARG:545:CD:9895, H-A:ASP:366:OD2:3213"]

$$$$
RR26_Rahimova_2017
     RDKit          3D

 38 44  0  0  0  0  0  0  0  0999 V2000
  125.1270  131.3440   64.1210 C   0  0  0  0  0  0  0  0  0  0  0  0
  124.8280  131.9010   62.7350 C   0  0  0  0  0  0  0  0  0  0  0  0
  123.8150  132.8580   62.6100 C   0  0  0  0  0  0  0  0  0  0  0  0
  123.5260  133.4310   61.3730 C   0  0  0  0  0  0  0  0  0  0  0  0
  124.2550  133.0560   60.2490 C   0  0  0  0  0  0  0  0  0  0  0  0
  125.2670  132.1040   60.3610 C   0  0  0  0  0  0  0  0  0  0  0  0
  125.5660  131.5100   61.5960 C   0  0  0  0  0  0  0  0  0  0  0  0
  126.6600  130.4830   61.6260 C   0  0  0  0  0  0  0  0  0  0  0  0
  126.4480  129.2280   62.0160 N   0  0  0  0  0  0  0  0  0  0  0  0
  127.6330  128.6980   61.8770 C   0  0  0  0  0  0  0  0  0  0  0  0
  128.3310  127.1430   62.1390 S   0  0  0  0  0  0  0  0  0  0  0  0
  129.9180  127.7850   61.5720 C   0  0  0  0  0  0  0  0  0  0  0  0
  131.0930  127.1220   61.4760 C   0  0  0  0  0  0  0  0  0  0  0  0
  131.3660  125.7310   61.7990 C   0  0  0  0  0  0  0  0  0  0  0  0
  131.6720  124.6940   60.9310 C   0  0  0  0  0  0  0  0  0  0  0  0
  131.8930  123.5670   61.6810 N   0  0  0  0  0  0  0  0  0  0  0  0
  132.2410  122.2670   61.2300 C   0  0  0  0  0  0  0  0  0  0  0  0
  131.2520  121.3590   60.8240 C   0  0  0  0  0  0  0  0  0  0  0  0
  131.6070  120.0860   60.3870 C   0  0  0  0  0  0  0  0  0  0  0  0
  132.9490  119.7170   60.3510 C   0  0  0  0  0  0  0  0  0  0  0  0
  133.9410  120.6110   60.7490 C   0  0  0  0  0  0  0  0  0  0  0  0
  133.5890  121.8830   61.1890 C   0  0  0  0  0  0  0  0  0  0  0  0
  131.7680  123.8450   62.9870 N   0  0  0  0  0  0  0  0  0  0  0  0
  131.4510  125.1220   63.0720 C   0  0  0  0  0  0  0  0  0  0  0  0
  131.2290  125.7480   64.4140 C   0  0  0  0  0  0  0  0  0  0  0  0
  132.3080  125.9610   65.2860 C   0  0  0  0  0  0  0  0  0  0  0  0
  132.1110  126.5410   66.5400 C   0  0  0  0  0  0  0  0  0  0  0  0
  130.8280  126.9120   66.9350 C   0  0  0  0  0  0  0  0  0  0  0  0
  129.7430  126.7210   66.0660 C   0  0  0  0  0  0  0  0  0  0  0  0
  129.9420  126.1370   64.8160 C   0  0  0  0  0  0  0  0  0  0  0  0
  128.4480  127.0330   66.4310 O   0  0  0  0  0  0  0  0  0  0  0  0
  128.3540  127.9420   67.5330 C   0  0  0  0  0  0  0  0  0  0  0  0
  129.3400  127.5380   68.6560 C   0  0  0  0  0  0  0  0  0  0  0  0
  130.6850  127.5250   68.1630 O   0  0  0  0  0  0  0  0  0  0  0  0
  129.8470  129.1960   61.2040 C   0  0  0  0  0  0  0  0  0  0  0  0
  130.7390  129.9360   60.7860 O   0  0  0  0  0  0  0  0  0  0  0  0
  128.5190  129.5990   61.4140 N   0  0  0  0  0  0  0  0  0  0  0  0
  127.8950  130.7670   61.2420 N   0  0  0  0  0  0  0  0  0  0  0  0
  1  2  1  0
  2  3  2  0
  3  4  1  0
  4  5  2  0
  5  6  1  0
  6  7  2  0
  7  8  1  0
  8  9  1  0
  9 10  2  0
 10 11  1  0
 11 12  1  0
 12 13  2  0
 13 14  1  0
 14 15  2  0
 15 16  1  0
 16 17  1  0
 17 18  2  0
 18 19  1  0
 19 20  2  0
 20 21  1  0
 21 22  2  0
 16 23  1  0
 23 24  2  0
 24 25  1  0
 25 26  2  0
 26 27  1  0
 27 28  2  0
 28 29  1  0
 29 30  2  0
 29 31  1  0
 31 32  1  0
 32 33  1  0
 33 34  1  0
 12 35  1  0
 35 36  2  0
 35 37  1  0
 37 38  1  0
  7  2  1  0
 38  8  2  0
 37 10  1  0
 24 14  1  0
 30 25  1  0
 22 17  1  0
 34 28  1  0
M  END
>  <Binding energies>  (48) 
[-4.61]

>  <Ligand effiencies>  (48) 
[-0.12131578947368422]

>  <Interactions>  (48) 
["V-B:GLU:543:CB:9878, V-A:HIS:456:CE1:4068, V-B:GLU:543:CD:9880, V-A:GLU:543:CD:4906, V-B:HIS:456:CE1:9042, V-B:GLU:543:CG:9879, V-A:GLU:543:CG:4905, V-A:ARG:545:CZ:4924, V-A:ARG:545:CG:4920, H-A:TYR:484:OH:4346, V-A:ARG:545:CD:4921, V-A:TRP:381:CZ2:3368, V-A:ILE:369:CD1:3237, V-A:LEU:475:CD2:4257, V-A:TRP:381:CH2:3370, V-B:TYR:539:CD2:9846, V-B:TYR:539:CE2:9848, V-A:ILE:369:CG2:3235, V-B:LEU:475:CD2:9231, V-B:ILE:369:CD1:8211, H-B:ARG:545:NH2:9900, V-A:TYR:539:CE2:4874, V-B:ILE:369:CG2:8209, V-B:GLY:454:CA:9021, H-A:ARG:545:NH2:4926, V-A:TRP:381:CZ3:3369, V-A:SER:385:C:3403, V-B:ILE:369:CG1:8210"]

$$$$
RR2_Rahimova_2017
     RDKit          3D

 46 50  0  0  0  0  0  0  0  0999 V2000
  126.3650  130.3310   64.1560 C   0  0  0  0  0  0  0  0  0  0  0  0
  125.7630  129.8630   62.9540 O   0  0  0  0  0  0  0  0  0  0  0  0
  126.4990  129.0680   62.0960 C   0  0  0  0  0  0  0  0  0  0  0  0
  127.6890  128.4160   62.4470 C   0  0  0  0  0  0  0  0  0  0  0  0
  128.3660  127.6370   61.5130 C   0  0  0  0  0  0  0  0  0  0  0  0
  127.8740  127.4930   60.2090 C   0  0  0  0  0  0  0  0  0  0  0  0
  128.6340  126.6450   59.2080 C   0  0  0  0  0  0  0  0  0  0  0  0
  128.0240  126.0050   58.3440 O   0  0  0  0  0  0  0  0  0  0  0  0
  129.9800  126.6360   59.3440 N   0  0  0  0  0  0  0  0  0  0  0  0
  130.7180  125.8010   58.5110 N   0  0  0  0  0  0  0  0  0  0  0  0
  131.9090  125.3500   58.9540 C   0  0  0  0  0  0  0  0  0  0  0  0
  132.4860  125.7580   59.9670 O   0  0  0  0  0  0  0  0  0  0  0  0
  132.5460  124.2330   58.1170 C   0  0  0  0  0  0  0  0  0  0  0  0
  133.0790  122.7610   59.0660 S   0  0  0  0  0  0  0  0  0  0  0  0
  133.1660  123.4390   60.6960 C   0  0  0  0  0  0  0  0  0  0  0  0
  134.2980  123.7020   61.2990 N   0  0  0  0  0  0  0  0  0  0  0  0
  133.9950  124.1500   62.5780 N   0  0  0  0  0  0  0  0  0  0  0  0
  132.6870  124.1690   62.6890 C   0  0  0  0  0  0  0  0  0  0  0  0
  131.9740  124.6130   63.9250 C   0  0  0  0  0  0  0  0  0  0  0  0
  130.9670  123.8120   64.4710 C   0  0  0  0  0  0  0  0  0  0  0  0
  130.2920  124.2210   65.6170 C   0  0  0  0  0  0  0  0  0  0  0  0
  130.6300  125.4280   66.2390 C   0  0  0  0  0  0  0  0  0  0  0  0
  129.9770  125.8940   67.3900 N   0  0  0  0  0  0  0  0  0  0  0  0
  129.9100  127.5970   67.8950 S   0  0  0  0  0  0  0  0  0  0  0  0
  128.8220  128.2060   67.1210 O   0  0  0  0  0  0  0  0  0  0  0  0
  131.2710  128.1430   67.8380 O   0  0  0  0  0  0  0  0  0  0  0  0
  129.3690  127.5580   69.6030 C   0  0  0  0  0  0  0  0  0  0  0  0
  128.0250  127.7580   69.9280 C   0  0  0  0  0  0  0  0  0  0  0  0
  127.6280  127.7390   71.2620 C   0  0  0  0  0  0  0  0  0  0  0  0
  128.5710  127.5150   72.2680 C   0  0  0  0  0  0  0  0  0  0  0  0
  128.1390  127.5100   73.7230 C   0  0  0  0  0  0  0  0  0  0  0  0
  129.9150  127.3200   71.9400 C   0  0  0  0  0  0  0  0  0  0  0  0
  130.3130  127.3400   70.6070 C   0  0  0  0  0  0  0  0  0  0  0  0
  131.6370  126.2250   65.6940 C   0  0  0  0  0  0  0  0  0  0  0  0
  132.3090  125.8200   64.5440 C   0  0  0  0  0  0  0  0  0  0  0  0
  132.0930  123.7220   61.5200 N   0  0  0  0  0  0  0  0  0  0  0  0
  130.7200  123.5490   61.2450 C   0  0  0  0  0  0  0  0  0  0  0  0
  129.8120  124.5560   61.5720 C   0  0  0  0  0  0  0  0  0  0  0  0
  128.4600  124.3810   61.2940 C   0  0  0  0  0  0  0  0  0  0  0  0
  128.0040  123.2070   60.6930 C   0  0  0  0  0  0  0  0  0  0  0  0
  126.6450  123.1240   60.4570 O   0  0  0  0  0  0  0  0  0  0  0  0
  125.7910  124.1520   60.9490 C   0  0  0  0  0  0  0  0  0  0  0  0
  128.9260  122.1980   60.3670 C   0  0  0  0  0  0  0  0  0  0  0  0
  130.2790  122.3690   60.6420 C   0  0  0  0  0  0  0  0  0  0  0  0
  126.6780  128.1440   59.8660 C   0  0  0  0  0  0  0  0  0  0  0  0
  126.0030  128.9220   60.8030 C   0  0  0  0  0  0  0  0  0  0  0  0
  1  2  1  0
  2  3  1  0
  3  4  2  0
  4  5  1  0
  5  6  2  0
  6  7  1  0
  7  8  2  0
  7  9  1  0
  9 10  1  0
 10 11  1  0
 11 12  2  0
 11 13  1  0
 13 14  1  0
 14 15  1  0
 15 16  2  0
 16 17  1  0
 17 18  2  0
 18 19  1  0
 19 20  2  0
 20 21  1  0
 21 22  2  0
 22 23  1  0
 23 24  1  0
 24 25  2  0
 24 26  2  0
 24 27  1  0
 27 28  2  0
 28 29  1  0
 29 30  2  0
 30 31  1  0
 30 32  1  0
 32 33  2  0
 22 34  1  0
 34 35  2  0
 18 36  1  0
 36 37  1  0
 37 38  2  0
 38 39  1  0
 39 40  2  0
 40 41  1  0
 41 42  1  0
 40 43  1  0
 43 44  2  0
  6 45  1  0
 45 46  2  0
 46  3  1  0
 36 15  1  0
 44 37  1  0
 35 19  1  0
 33 27  1  0
M  END
>  <Binding energies>  (49) 
[-8.15]

>  <Ligand effiencies>  (49) 
[-0.1663265306122449]

>  <Interactions>  (49) 
["V-B:GLU:543:CB:9878, V-A:HIS:456:CE1:4068, V-A:HIS:456:CD2:4066, V-B:GLU:543:CD:9880, H-A:HIS:456:NE2:4069, V-A:GLU:543:CD:4906, V-B:HIS:456:CE1:9042, V-A:GLY:544:CA:4912, V-B:GLY:544:C:9884, V-A:GLY:544:C:4910, H-B:GLU:543:O:9875, V-B:HIS:456:CD2:9040, V-B:GLU:543:CG:9879, V-A:GLU:543:CG:4905, H-A:GLY:454:N:4048, V-A:ARG:545:CZ:4924, V-A:ARG:545:CG:4920, V-A:ARG:545:CD:4921, V-A:TYR:484:CZ:4345, V-B:LYS:547:CE:9922, V-B:GLY:544:CA:9886, V-A:GLU:543:C:4900, V-B:TYR:539:CZ:9849, V-A:ILE:369:CD1:3237, V-B:PRO:540:CA:9855, V-B:TYR:539:C:9839, V-A:ASP:366:CG:3211, V-B:ALA:541:CB:9864, V-B:TYR:539:CE2:9848, V-A:ASP:366:CB:3210, V-B:ASP:366:CG:8185, H-B:ARG:545:NH2:9900, H-B:ALA:541:N:9863, V-B:HIS:456:CG:9038, V-A:TYR:484:CE1:4343, H-A:ARG:545:N:4918"]

$$$$
RR33_Rahimova_2017
     RDKit          3D

 18 19  0  0  0  0  0  0  0  0999 V2000
  131.9580  124.9700   75.7210 C   0  0  0  0  0  0  0  0  0  0  0  0
  131.8870  126.4980   75.6490 C   0  0  0  0  0  0  0  0  0  0  0  0
  130.5730  126.8770   75.2470 O   0  0  0  0  0  0  0  0  0  0  0  0
  130.2650  126.9310   73.9010 C   0  0  0  0  0  0  0  0  0  0  0  0
  129.0950  127.6060   73.5570 C   0  0  0  0  0  0  0  0  0  0  0  0
  128.7020  127.7100   72.2260 C   0  0  0  0  0  0  0  0  0  0  0  0
  129.4770  127.1360   71.2140 C   0  0  0  0  0  0  0  0  0  0  0  0
  129.0530  127.2460   69.7850 C   0  0  0  0  0  0  0  0  0  0  0  0
  127.8980  127.6670   69.3200 N   0  0  0  0  0  0  0  0  0  0  0  0
  127.9990  127.5840   68.0030 C   0  0  0  0  0  0  0  0  0  0  0  0
  126.8530  128.0000   67.1070 C   0  0  0  0  0  0  0  0  0  0  0  0
  127.3410  128.7630   65.9680 N   0  0  0  0  0  0  0  0  0  0  0  0
  126.4240  129.8430   65.6420 C   0  0  0  0  0  0  0  0  0  0  0  0
  129.2550  127.0970   67.6610 C   0  0  0  0  0  0  0  0  0  0  0  0
  129.9710  126.7880   66.3690 C   0  0  0  0  0  0  0  0  0  0  0  0
  129.9300  126.8800   68.8130 O   0  0  0  0  0  0  0  0  0  0  0  0
  130.6540  126.4600   71.5540 C   0  0  0  0  0  0  0  0  0  0  0  0
  131.0470  126.3560   72.8860 C   0  0  0  0  0  0  0  0  0  0  0  0
  1  2  1  0
  2  3  1  0
  3  4  1  0
  4  5  2  0
  5  6  1  0
  6  7  2  0
  7  8  1  0
  8  9  2  0
  9 10  1  0
 10 11  1  0
 11 12  1  0
 12 13  1  0
 10 14  2  0
 14 15  1  0
 14 16  1  0
  7 17  1  0
 17 18  2  0
 18  4  1  0
 16  8  1  0
M  END
>  <Binding energies>  (50) 
[-5.47]

>  <Ligand effiencies>  (50) 
[-0.28789473684210526]

>  <Interactions>  (50) 
["V-B:GLU:543:CB:9878, V-A:HIS:456:CE1:4068, V-A:HIS:456:CD2:4066, V-B:GLU:543:CD:9880, V-A:GLU:543:CD:4906, V-B:HIS:456:CE1:9042, H-A:LYS:547:NZ:4949, V-A:GLY:544:C:4910, V-B:GLU:543:CG:9879, V-A:GLU:543:CG:4905, H-B:LYS:547:NZ:9923, V-A:LYS:547:CE:4948, V-A:HIS:456:CG:4064, V-B:LYS:547:CE:9922, V-A:LYS:547:CD:4947, V-A:LYS:471:CE:4218, V-B:TYR:484:CZ:9319, H-A:GLU:543:OE2:4908, H-A:GLU:543:OE1:4907, V-A:VAL:458:CG2:4085, H-B:GLU:543:OE2:9882, V-B:ARG:545:CG:9894"]

$$$$
RR3_Rahimova_2017
     RDKit          3D

 38 44  0  0  0  0  0  0  0  0999 V2000
  123.9390  131.5820   62.0470 C   0  0  0  0  0  0  0  0  0  0  0  0
  123.5160  130.3720   62.5870 C   0  0  0  0  0  0  0  0  0  0  0  0
  124.2410  129.7870   63.6210 C   0  0  0  0  0  0  0  0  0  0  0  0
  125.3950  130.4020   64.1290 C   0  0  0  0  0  0  0  0  0  0  0  0
  126.1740  129.7720   65.2420 C   0  0  0  0  0  0  0  0  0  0  0  0
  127.2880  130.4160   65.7960 C   0  0  0  0  0  0  0  0  0  0  0  0
  128.0140  129.8290   66.8280 C   0  0  0  0  0  0  0  0  0  0  0  0
  127.6450  128.5760   67.3260 C   0  0  0  0  0  0  0  0  0  0  0  0
  128.4240  127.9370   68.4330 C   0  0  0  0  0  0  0  0  0  0  0  0
  128.1230  128.2050   69.6980 N   0  0  0  0  0  0  0  0  0  0  0  0
  128.9280  127.4790   70.4370 C   0  0  0  0  0  0  0  0  0  0  0  0
  128.9440  127.4620   71.8970 C   0  0  0  0  0  0  0  0  0  0  0  0
  129.9960  127.0360   72.6900 C   0  0  0  0  0  0  0  0  0  0  0  0
  129.6710  127.1660   74.0160 N   0  0  0  0  0  0  0  0  0  0  0  0
  128.3980  127.6770   74.1390 C   0  0  0  0  0  0  0  0  0  0  0  0
  127.6420  127.9800   75.2760 C   0  0  0  0  0  0  0  0  0  0  0  0
  126.3620  128.4940   75.0660 C   0  0  0  0  0  0  0  0  0  0  0  0
  125.8530  128.6980   73.7880 C   0  0  0  0  0  0  0  0  0  0  0  0
  126.6070  128.3970   72.6550 C   0  0  0  0  0  0  0  0  0  0  0  0
  127.9050  127.8760   72.8100 C   0  0  0  0  0  0  0  0  0  0  0  0
  129.7690  126.7340   69.6570 N   0  0  0  0  0  0  0  0  0  0  0  0
  129.4870  127.0220   68.3460 C   0  0  0  0  0  0  0  0  0  0  0  0
  130.2510  126.4350   67.2050 C   0  0  0  0  0  0  0  0  0  0  0  0
  129.8540  125.2190   66.6470 C   0  0  0  0  0  0  0  0  0  0  0  0
  130.5710  124.6630   65.5920 C   0  0  0  0  0  0  0  0  0  0  0  0
  131.6990  125.3110   65.0670 C   0  0  0  0  0  0  0  0  0  0  0  0
  132.4790  124.7000   63.9460 C   0  0  0  0  0  0  0  0  0  0  0  0
  132.1330  123.4420   63.4300 C   0  0  0  0  0  0  0  0  0  0  0  0
  132.8570  122.8760   62.3830 C   0  0  0  0  0  0  0  0  0  0  0  0
  133.9370  123.5650   61.8400 C   0  0  0  0  0  0  0  0  0  0  0  0
  134.2970  124.8130   62.3360 C   0  0  0  0  0  0  0  0  0  0  0  0
  133.5730  125.3750   63.3830 C   0  0  0  0  0  0  0  0  0  0  0  0
  132.0780  126.5400   65.6250 C   0  0  0  0  0  0  0  0  0  0  0  0
  131.3630  127.0990   66.6800 C   0  0  0  0  0  0  0  0  0  0  0  0
  126.5280  127.9330   66.7900 C   0  0  0  0  0  0  0  0  0  0  0  0
  125.8040  128.5220   65.7570 C   0  0  0  0  0  0  0  0  0  0  0  0
  125.8030  131.6210   63.5680 C   0  0  0  0  0  0  0  0  0  0  0  0
  125.0800  132.2100   62.5340 C   0  0  0  0  0  0  0  0  0  0  0  0
  1  2  2  0
  2  3  1  0
  3  4  2  0
  4  5  1  0
  5  6  2  0
  6  7  1  0
  7  8  2  0
  8  9  1  0
  9 10  1  0
 10 11  2  0
 11 12  1  0
 12 13  2  0
 13 14  1  0
 14 15  1  0
 15 16  2  0
 16 17  1  0
 17 18  2  0
 18 19  1  0
 19 20  2  0
 11 21  1  0
 21 22  1  0
 22 23  1  0
 23 24  2  0
 24 25  1  0
 25 26  2  0
 26 27  1  0
 27 28  2  0
 28 29  1  0
 29 30  2  0
 30 31  1  0
 31 32  2  0
 26 33  1  0
 33 34  2  0
  8 35  1  0
 35 36  2  0
  4 37  1  0
 37 38  2  0
 38  1  1  0
 36  5  1  0
 22  9  2  0
 34 23  1  0
 20 12  1  0
 32 27  1  0
 20 15  1  0
M  END
>  <Binding energies>  (51) 
[-5.89]

>  <Ligand effiencies>  (51) 
[-0.14725]

>  <Interactions>  (51) 
["V-B:ARG:545:CZ:9898, V-B:GLU:543:CB:9878, V-B:GLY:453:CA:9016, V-A:HIS:456:CE1:4068, V-A:HIS:456:CD2:4066, V-B:GLU:543:CD:9880, H-A:HIS:456:NE2:4069, V-A:GLU:543:CD:4906, V-B:HIS:456:CE1:9042, V-B:GLY:544:C:9884, H-B:GLU:543:O:9875, V-B:HIS:456:CD2:9040, V-A:GLU:543:CB:4904, V-B:GLY:453:C:9014, V-B:GLU:543:CG:9879, V-A:GLU:543:CG:4905, V-A:ARG:545:CZ:4924, V-A:ARG:545:CG:4920, V-A:LYS:547:CE:4948, V-A:ARG:545:CD:4921, V-A:TYR:484:CZ:4345, V-B:LYS:547:CE:9922, V-B:GLU:543:CA:9876, V-A:GLY:453:C:4040, V-A:ILE:369:CD1:3237, V-A:LEU:475:CD2:4257, V-A:GLY:453:CA:4042, V-A:GLY:454:CA:4047, V-B:LEU:475:CD2:9231, V-B:ILE:369:CD1:8211, V-B:TYR:484:CZ:9319, V-B:HIS:456:CG:9038, V-B:LYS:547:CD:9921, V-A:TYR:484:CE1:4343, V-B:ARG:545:CG:9894, V-B:ARG:545:CD:9895, V-B:TYR:484:CE1:9317, V-B:HIS:456:CB:9037, V-B:VAL:458:CG2:9059, V-A:GLU:543:CA:4902"]

$$$$
RR4_Rahimova_2017
     RDKit          3D

 40 44  0  0  0  0  0  0  0  0999 V2000
  124.2670  129.8040   66.6100 C   0  0  0  0  0  0  0  0  0  0  0  0
  124.1130  130.6140   65.4510 O   0  0  0  0  0  0  0  0  0  0  0  0
  124.6960  130.2110   64.2640 C   0  0  0  0  0  0  0  0  0  0  0  0
  125.9160  129.5460   64.3620 C   0  0  0  0  0  0  0  0  0  0  0  0
  126.5750  129.1020   63.2200 C   0  0  0  0  0  0  0  0  0  0  0  0
  126.0340  129.3140   61.9430 C   0  0  0  0  0  0  0  0  0  0  0  0
  126.7490  128.8350   60.7120 C   0  0  0  0  0  0  0  0  0  0  0  0
  127.7970  129.5470   60.1190 C   0  0  0  0  0  0  0  0  0  0  0  0
  128.4360  129.0560   58.9730 C   0  0  0  0  0  0  0  0  0  0  0  0
  129.5650  129.8570   58.4120 C   0  0  0  0  0  0  0  0  0  0  0  0
  129.3800  131.2060   58.0940 C   0  0  0  0  0  0  0  0  0  0  0  0
  130.4300  131.9620   57.5820 C   0  0  0  0  0  0  0  0  0  0  0  0
  131.6860  131.3890   57.3840 C   0  0  0  0  0  0  0  0  0  0  0  0
  132.6670  132.2160   56.8720 O   0  0  0  0  0  0  0  0  0  0  0  0
  133.9990  131.7250   56.7560 C   0  0  0  0  0  0  0  0  0  0  0  0
  131.8780  130.0370   57.7060 C   0  0  0  0  0  0  0  0  0  0  0  0
  130.8260  129.2820   58.2190 C   0  0  0  0  0  0  0  0  0  0  0  0
  127.9760  127.8380   58.4140 C   0  0  0  0  0  0  0  0  0  0  0  0
  128.6090  127.2780   57.2160 C   0  0  0  0  0  0  0  0  0  0  0  0
  129.1090  126.8370   56.2700 N   0  0  0  0  0  0  0  0  0  0  0  0
  126.8930  127.1860   59.0480 C   0  0  0  0  0  0  0  0  0  0  0  0
  126.1800  125.6580   58.4790 S   0  0  0  0  0  0  0  0  0  0  0  0
  125.8280  124.6290   59.9430 C   0  0  0  0  0  0  0  0  0  0  0  0
  127.0740  124.0740   60.6460 C   0  0  0  0  0  0  0  0  0  0  0  0
  126.9750  123.4900   61.7280 O   0  0  0  0  0  0  0  0  0  0  0  0
  128.2380  124.2960   59.9940 N   0  0  0  0  0  0  0  0  0  0  0  0
  129.5300  123.9180   60.3690 C   0  0  0  0  0  0  0  0  0  0  0  0
  130.1750  122.3250   60.0770 S   0  0  0  0  0  0  0  0  0  0  0  0
  131.6890  122.7400   60.8190 C   0  0  0  0  0  0  0  0  0  0  0  0
  131.6910  124.0660   61.2790 C   0  0  0  0  0  0  0  0  0  0  0  0
  130.4730  124.7360   61.0100 C   0  0  0  0  0  0  0  0  0  0  0  0
  130.2250  126.1290   61.3700 C   0  0  0  0  0  0  0  0  0  0  0  0
  130.0290  127.2330   61.6560 N   0  0  0  0  0  0  0  0  0  0  0  0
  132.9300  124.6840   61.9390 C   0  0  0  0  0  0  0  0  0  0  0  0
  134.1850  123.8310   61.6490 C   0  0  0  0  0  0  0  0  0  0  0  0
  133.9270  122.3290   61.8590 C   0  0  0  0  0  0  0  0  0  0  0  0
  132.8700  121.7800   60.8780 C   0  0  0  0  0  0  0  0  0  0  0  0
  126.3150  127.6670   60.1730 N   0  0  0  0  0  0  0  0  0  0  0  0
  124.8030  129.9830   61.8550 C   0  0  0  0  0  0  0  0  0  0  0  0
  124.1410  130.4280   62.9960 C   0  0  0  0  0  0  0  0  0  0  0  0
  1  2  1  0
  2  3  1  0
  3  4  2  0
  4  5  1  0
  5  6  2  0
  6  7  1  0
  7  8  2  0
  8  9  1  0
  9 10  1  0
 10 11  2  0
 11 12  1  0
 12 13  2  0
 13 14  1  0
 14 15  1  0
 13 16  1  0
 16 17  2  0
  9 18  2  0
 18 19  1  0
 19 20  3  0
 18 21  1  0
 21 22  1  0
 22 23  1  0
 23 24  1  0
 24 25  2  0
 24 26  1  0
 26 27  1  0
 27 28  1  0
 28 29  1  0
 29 30  2  0
 30 31  1  0
 31 32  1  0
 32 33  3  0
 30 34  1  0
 34 35  1  0
 35 36  1  0
 36 37  1  0
 21 38  2  0
  6 39  1  0
 39 40  2  0
 40  3  1  0
 38  7  1  0
 17 10  1  0
 31 27  2  0
 37 29  1  0
M  END
>  <Binding energies>  (52) 
[-7.95]

>  <Ligand effiencies>  (52) 
[-0.19390243902439025]

>  <Interactions>  (52) 
["V-B:ARG:545:CZ:9898, V-B:GLY:453:CA:9016, H-B:TYR:484:OH:9320, H-B:GLY:454:N:9022, V-B:HIS:456:CE1:9042, V-A:GLY:453:C:4040, V-A:ILE:369:CD1:3237, V-A:LEU:475:CD2:4257, V-B:PRO:540:CA:9855, V-A:GLY:453:CA:4042, V-A:ASP:366:CG:3211, V-A:GLY:454:CA:4047, V-B:TYR:539:CD2:9846, V-B:TYR:539:CE2:9848, V-A:PRO:540:CG:4884, V-A:PRO:540:CA:4881, V-A:PRO:540:N:4882, V-B:ASP:366:CG:8185, H-B:ARG:545:NH2:9900, H-B:ALA:541:N:9863, V-A:PRO:540:CB:4883, V-A:PRO:540:CD:4885, V-A:TYR:539:C:4865, V-A:TYR:531:CE2:4791, V-A:LEU:363:CA:3183, H-B:TYR:531:OH:9767, H-A:ARG:545:NH2:4926, V-B:TYR:484:CZ:9319, V-B:ARG:545:CG:9894, V-B:ARG:545:CD:9895, V-A:LEU:363:CD1:3187, V-A:LEU:363:CB:3185, V-A:LEU:363:CG:3186"]

$$$$
RR6_Rahimova_2017
     RDKit          3D

 38 41  0  0  0  0  0  0  0  0999 V2000
  131.2170  124.8590   64.4360 C   0  0  0  0  0  0  0  0  0  0  0  0
  131.6460  124.5460   63.1180 O   0  0  0  0  0  0  0  0  0  0  0  0
  131.3640  123.3420   62.5580 C   0  0  0  0  0  0  0  0  0  0  0  0
  132.0940  122.3520   62.6700 O   0  0  0  0  0  0  0  0  0  0  0  0
  130.0740  123.3330   61.7890 C   0  0  0  0  0  0  0  0  0  0  0  0
  129.5650  122.1630   61.2060 C   0  0  0  0  0  0  0  0  0  0  0  0
  128.3690  122.1890   60.4920 C   0  0  0  0  0  0  0  0  0  0  0  0
  127.6620  123.3920   60.3460 C   0  0  0  0  0  0  0  0  0  0  0  0
  126.4630  123.5350   59.6240 N   0  0  0  0  0  0  0  0  0  0  0  0
  125.2390  123.9040   60.0610 C   0  0  0  0  0  0  0  0  0  0  0  0
  124.9550  124.2010   61.2220 O   0  0  0  0  0  0  0  0  0  0  0  0
  124.1250  123.8790   59.0090 C   0  0  0  0  0  0  0  0  0  0  0  0
  124.6300  124.5500   57.3900 S   0  0  0  0  0  0  0  0  0  0  0  0
  126.0750  125.5500   57.6770 C   0  0  0  0  0  0  0  0  0  0  0  0
  125.8080  126.8020   58.1220 N   0  0  0  0  0  0  0  0  0  0  0  0
  126.8300  127.6490   58.4040 C   0  0  0  0  0  0  0  0  0  0  0  0
  126.4500  128.9940   58.9490 C   0  0  0  0  0  0  0  0  0  0  0  0
  125.3800  129.7200   58.4020 C   0  0  0  0  0  0  0  0  0  0  0  0
  125.0360  130.9740   58.8990 C   0  0  0  0  0  0  0  0  0  0  0  0
  125.7540  131.5250   59.9590 C   0  0  0  0  0  0  0  0  0  0  0  0
  125.3820  132.8960   60.4920 C   0  0  0  0  0  0  0  0  0  0  0  0
  126.8180  130.8200   60.5180 C   0  0  0  0  0  0  0  0  0  0  0  0
  127.1570  129.5670   60.0180 C   0  0  0  0  0  0  0  0  0  0  0  0
  128.1580  127.2490   58.2290 C   0  0  0  0  0  0  0  0  0  0  0  0
  128.4610  125.9610   57.7660 C   0  0  0  0  0  0  0  0  0  0  0  0
  129.9010  125.5940   57.6210 C   0  0  0  0  0  0  0  0  0  0  0  0
  130.5030  124.7300   58.5410 C   0  0  0  0  0  0  0  0  0  0  0  0
  131.8410  124.3700   58.4030 C   0  0  0  0  0  0  0  0  0  0  0  0
  132.6010  124.8610   57.3430 C   0  0  0  0  0  0  0  0  0  0  0  0
  133.9180  124.4490   57.2850 O   0  0  0  0  0  0  0  0  0  0  0  0
  134.5150  123.8680   58.4400 C   0  0  0  0  0  0  0  0  0  0  0  0
  132.0000  125.7240   56.4130 C   0  0  0  0  0  0  0  0  0  0  0  0
  130.6620  126.0810   56.5540 C   0  0  0  0  0  0  0  0  0  0  0  0
  127.3890  125.0820   57.4740 C   0  0  0  0  0  0  0  0  0  0  0  0
  127.6340  123.7310   56.9590 C   0  0  0  0  0  0  0  0  0  0  0  0
  127.8280  122.6640   56.5550 N   0  0  0  0  0  0  0  0  0  0  0  0
  128.1570  124.5530   60.9390 C   0  0  0  0  0  0  0  0  0  0  0  0
  129.3540  124.5260   61.6500 C   0  0  0  0  0  0  0  0  0  0  0  0
  1  2  1  0
  2  3  1  0
  3  4  2  0
  3  5  1  0
  5  6  2  0
  6  7  1  0
  7  8  2  0
  8  9  1  0
  9 10  1  0
 10 11  2  0
 10 12  1  0
 12 13  1  0
 13 14  1  0
 14 15  2  0
 15 16  1  0
 16 17  1  0
 17 18  2  0
 18 19  1  0
 19 20  2  0
 20 21  1  0
 20 22  1  0
 22 23  2  0
 16 24  2  0
 24 25  1  0
 25 26  1  0
 26 27  2  0
 27 28  1  0
 28 29  2  0
 29 30  1  0
 30 31  1  0
 29 32  1  0
 32 33  2  0
 25 34  2  0
 34 35  1  0
 35 36  3  0
  8 37  1  0
 37 38  2  0
 38  5  1  0
 34 14  1  0
 23 17  1  0
 33 26  1  0
M  END
>  <Binding energies>  (53) 
[-7.04]

>  <Ligand effiencies>  (53) 
[-0.18051282051282053]

>  <Interactions>  (53) 
["V-B:GLU:543:CD:9880, H-A:TYR:484:OH:4346, V-B:TYR:539:CZ:9849, V-B:PRO:540:C:9853, V-A:ILE:369:CD1:3237, V-B:PRO:540:CA:9855, V-B:TYR:539:C:9839, V-B:ALA:541:CA:9862, V-A:ASP:366:CG:3211, V-B:ALA:541:CB:9864, V-B:TYR:539:CE2:9848, V-A:ILE:369:CG2:3235, V-B:PRO:540:N:9856, V-B:PRO:540:CB:9857, V-A:ASP:366:CA:3208, V-A:ASP:366:CB:3210, V-A:ASP:366:C:3206, V-A:ILE:369:CG1:3236, V-A:ILE:369:CB:3234, V-B:ASP:366:CG:8185, V-A:TYR:531:CZ:4792, H-B:ARG:545:NH2:9900, V-A:TYR:539:CE2:4874, V-B:LEU:363:CA:8157, V-B:ASP:366:CB:8184, H-B:TYR:531:OH:9767, V-A:TYR:539:CD2:4872, V-A:TYR:539:CZ:4875, H-B:TYR:539:OH:9850, V-A:TYR:531:CE1:4790, H-B:TYR:539:N:9842, H-B:TYR:539:O:9840"]

$$$$
RR7_Rahimova_2017
     RDKit          3D

 47 53  0  0  0  0  0  0  0  0999 V2000
  133.1680  131.4370   61.7530 C   0  0  0  0  0  0  0  0  0  0  0  0
  131.7680  131.6960   61.7440 O   0  0  0  0  0  0  0  0  0  0  0  0
  130.9350  130.8640   61.0200 C   0  0  0  0  0  0  0  0  0  0  0  0
  131.5310  130.1130   60.0090 C   0  0  0  0  0  0  0  0  0  0  0  0
  130.7730  129.2430   59.2310 C   0  0  0  0  0  0  0  0  0  0  0  0
  129.3920  129.1130   59.4390 C   0  0  0  0  0  0  0  0  0  0  0  0
  128.5230  128.1210   58.6040 C   0  0  0  0  0  0  0  0  0  0  0  0
  129.4310  127.4410   57.7080 O   0  0  0  0  0  0  0  0  0  0  0  0
  129.7650  126.0670   57.9340 C   0  0  0  0  0  0  0  0  0  0  0  0
  131.2600  125.9660   58.2790 C   0  0  1  0  0  0  0  0  0  0  0  0
  131.4130  126.4770   59.6010 O   0  0  0  0  0  0  0  0  0  0  0  0
  131.9650  125.5290   60.4680 C   0  0  1  0  0  0  0  0  0  0  0  0
  131.4320  125.7050   61.8060 N   0  0  0  0  0  0  0  0  0  0  0  0
  130.2090  126.2390   62.1720 C   0  0  0  0  0  0  0  0  0  0  0  0
  129.9990  126.3250   63.4630 N   0  0  0  0  0  0  0  0  0  0  0  0
  131.1630  125.8650   64.0150 C   0  0  0  0  0  0  0  0  0  0  0  0
  131.5790  125.7170   65.3520 C   0  0  0  0  0  0  0  0  0  0  0  0
  130.6860  126.0750   66.3800 N   0  0  0  0  0  0  0  0  0  0  0  0
  130.7540  127.1130   67.2460 C   0  0  0  0  0  0  0  0  0  0  0  0
  131.6730  127.9360   67.2730 O   0  0  0  0  0  0  0  0  0  0  0  0
  129.6210  127.2090   68.2460 C   0  0  0  0  0  0  0  0  0  0  0  0
  128.2950  127.2440   67.7890 C   0  0  0  0  0  0  0  0  0  0  0  0
  127.2380  127.3260   68.6910 C   0  0  0  0  0  0  0  0  0  0  0  0
  127.4980  127.3690   70.0570 C   0  0  0  0  0  0  0  0  0  0  0  0
  128.8060  127.3310   70.5300 C   0  0  0  0  0  0  0  0  0  0  0  0
  129.8650  127.2500   69.6290 C   0  0  0  0  0  0  0  0  0  0  0  0
  132.8320  125.2370   65.6130 N   0  0  0  0  0  0  0  0  0  0  0  0
  133.6240  124.9240   64.5550 C   0  0  0  0  0  0  0  0  0  0  0  0
  133.3250  125.0240   63.2320 N   0  0  0  0  0  0  0  0  0  0  0  0
  132.0890  125.4890   63.0070 C   0  0  0  0  0  0  0  0  0  0  0  0
  131.6640  124.1780   59.8290 C   0  0  0  0  0  0  0  0  0  0  0  0
  131.8120  124.5350   58.3600 C   0  0  2  0  0  0  0  0  0  0  0  0
  133.1580  124.4490   57.9240 O   0  0  0  0  0  0  0  0  0  0  0  0
  127.8560  127.0330   59.4860 C   0  0  0  0  0  0  0  0  0  0  0  0
  127.8280  127.1730   60.8830 C   0  0  0  0  0  0  0  0  0  0  0  0
  127.2460  126.1970   61.6850 C   0  0  0  0  0  0  0  0  0  0  0  0
  126.6840  125.0670   61.0970 C   0  0  0  0  0  0  0  0  0  0  0  0
  126.7010  124.9070   59.7150 C   0  0  0  0  0  0  0  0  0  0  0  0
  127.2860  125.8840   58.9130 C   0  0  0  0  0  0  0  0  0  0  0  0
  127.3670  128.7600   57.7830 C   0  0  0  0  0  0  0  0  0  0  0  0
  126.0890  128.1780   57.7850 C   0  0  0  0  0  0  0  0  0  0  0  0
  125.0510  128.7370   57.0460 C   0  0  0  0  0  0  0  0  0  0  0  0
  125.2820  129.8820   56.2890 C   0  0  0  0  0  0  0  0  0  0  0  0
  126.5440  130.4680   56.2630 C   0  0  0  0  0  0  0  0  0  0  0  0
  127.5810  129.9080   57.0020 C   0  0  0  0  0  0  0  0  0  0  0  0
  128.8000  129.8600   60.4680 C   0  0  0  0  0  0  0  0  0  0  0  0
  129.5580  130.7300   61.2470 C   0  0  0  0  0  0  0  0  0  0  0  0
  1  2  1  0
  2  3  1  0
  3  4  2  0
  4  5  1  0
  5  6  2  0
  6  7  1  0
  7  8  1  0
  8  9  1  0
 10  9  1  1
 10 11  1  0
 11 12  1  0
 12 13  1  1
 13 14  1  0
 14 15  2  0
 15 16  1  0
 16 17  2  0
 17 18  1  0
 18 19  1  0
 19 20  2  0
 19 21  1  0
 21 22  2  0
 22 23  1  0
 23 24  2  0
 24 25  1  0
 25 26  2  0
 17 27  1  0
 27 28  2  0
 28 29  1  0
 29 30  2  0
 12 31  1  0
 31 32  1  0
 32 33  1  1
  7 34  1  0
 34 35  2  0
 35 36  1  0
 36 37  2  0
 37 38  1  0
 38 39  2  0
  7 40  1  0
 40 41  2  0
 41 42  1  0
 42 43  2  0
 43 44  1  0
 44 45  2  0
  6 46  1  0
 46 47  2  0
 47  3  1  0
 32 10  1  0
 39 34  1  0
 45 40  1  0
 30 13  1  0
 30 16  1  0
 26 21  1  0
M  END
>  <Binding energies>  (54) 
[-7.82]

>  <Ligand effiencies>  (54) 
[-0.15959183673469388]

>  <Interactions>  (54) 
["V-B:GLU:543:CB:9878, V-A:HIS:456:CE1:4068, V-B:GLU:543:CD:9880, H-A:HIS:456:NE2:4069, V-A:GLU:543:CD:4906, V-B:HIS:456:CE1:9042, V-B:GLY:544:C:9884, H-B:GLU:543:O:9875, V-B:HIS:456:CD2:9040, V-B:GLU:543:CG:9879, V-A:GLU:543:CG:4905, H-A:GLY:454:N:4048, V-B:GLU:543:C:9874, V-A:ARG:545:CZ:4924, V-A:ARG:545:CG:4920, H-A:TYR:484:OH:4346, V-A:ARG:545:CD:4921, H-A:ARG:545:NH1:4925, H-B:GLU:543:OE1:9881, V-B:GLY:544:CA:9886, H-A:ARG:545:NE:4922, V-B:TYR:539:CZ:9849, V-A:GLY:453:C:4040, V-A:GLY:453:CA:4042, V-A:ASP:366:CG:3211, V-A:GLY:454:CA:4047, V-B:TYR:539:CE2:9848, V-A:ASN:362:CB:3174, V-A:PRO:540:CA:4881, V-B:ASP:366:CG:8185, V-A:PRO:540:CB:4883, V-A:TYR:539:CE2:4874, H-A:ALA:541:N:4889, V-B:ASP:366:CB:8184, H-A:ARG:545:NH2:4926, V-A:TYR:539:CE1:4873, V-A:TYR:539:CZ:4875, H-B:TYR:539:OH:9850, H-B:GLU:543:OE2:9882, V-B:ARG:545:CG:9894, V-B:TYR:531:CZ:9766, H-A:ASP:366:O:3207, H-A:ASP:366:OD2:3213, H-A:ASP:366:OD1:3212, H-A:ARG:545:N:4918, V-B:TYR:531:CE1:9764, V-A:ASN:362:CG:3175"]

$$$$
RR8_A_Rahimova_2017
     RDKit          3D

 42 46  0  0  0  0  0  0  0  0999 V2000
  127.8530  128.5510   56.9470 O   0  0  0  0  0  0  0  0  0  0  0  0
  128.4850  128.0760   57.8970 C   0  0  0  0  0  0  0  0  0  0  0  0
  128.3540  126.7890   58.3460 O   0  0  0  0  0  0  0  0  0  0  0  0
  129.2470  125.8340   57.8440 C   0  0  1  0  0  0  0  0  0  0  0  0
  130.5770  126.2250   58.0260 O   0  0  0  0  0  0  0  0  0  0  0  0
  131.4120  125.1220   58.3670 C   0  0  2  0  0  0  0  0  0  0  0  0
  132.5670  125.0490   57.3530 C   0  0  0  0  0  0  0  0  0  0  0  0
  133.3310  123.8790   57.6120 O   0  0  0  0  0  0  0  0  0  0  0  0
  134.3360  124.0530   58.6020 C   0  0  0  0  0  0  0  0  0  0  0  0
  133.9300  123.3350   59.8800 C   0  0  0  0  0  0  0  0  0  0  0  0
  133.5050  122.0050   59.8280 C   0  0  0  0  0  0  0  0  0  0  0  0
  133.1390  121.3430   60.9980 C   0  0  0  0  0  0  0  0  0  0  0  0
  133.2030  122.0120   62.2180 C   0  0  0  0  0  0  0  0  0  0  0  0
  133.6310  123.3370   62.2800 C   0  0  0  0  0  0  0  0  0  0  0  0
  133.9990  123.9980   61.1110 C   0  0  0  0  0  0  0  0  0  0  0  0
  130.4530  123.9240   58.3640 C   0  0  1  0  0  0  0  0  0  0  0  0
  130.7200  122.9890   59.4070 O   0  0  0  0  0  0  0  0  0  0  0  0
  129.7070  122.8650   60.3990 C   0  0  0  0  0  0  0  0  0  0  0  0
  130.1780  123.4920   61.7040 C   0  0  0  0  0  0  0  0  0  0  0  0
  130.2180  122.7200   62.8690 C   0  0  0  0  0  0  0  0  0  0  0  0
  130.6380  123.2880   64.0680 C   0  0  0  0  0  0  0  0  0  0  0  0
  131.0160  124.6290   64.1010 C   0  0  0  0  0  0  0  0  0  0  0  0
  130.9730  125.4070   62.9470 C   0  0  0  0  0  0  0  0  0  0  0  0
  130.5510  124.8400   61.7480 C   0  0  0  0  0  0  0  0  0  0  0  0
  129.1040  124.5550   58.6570 C   0  0  2  0  0  0  0  0  0  0  0  0
  128.0470  123.7080   58.2120 O   0  0  0  0  0  0  0  0  0  0  0  0
  126.7640  124.3170   58.1280 C   0  0  0  0  0  0  0  0  0  0  0  0
  126.0220  124.1470   59.4450 C   0  0  0  0  0  0  0  0  0  0  0  0
  126.7270  124.1350   60.6530 C   0  0  0  0  0  0  0  0  0  0  0  0
  126.0430  123.9890   61.8570 C   0  0  0  0  0  0  0  0  0  0  0  0
  124.6560  123.8590   61.8520 C   0  0  0  0  0  0  0  0  0  0  0  0
  123.9460  123.8760   60.6540 C   0  0  0  0  0  0  0  0  0  0  0  0
  124.6300  124.0230   59.4480 C   0  0  0  0  0  0  0  0  0  0  0  0
  129.4970  128.8620   58.6790 C   0  0  0  0  0  0  0  0  0  0  0  0
  130.3020  129.8420   58.0770 C   0  0  0  0  0  0  0  0  0  0  0  0
  131.2330  130.5530   58.8290 C   0  0  0  0  0  0  0  0  0  0  0  0
  131.3850  130.3030   60.1990 C   0  0  0  0  0  0  0  0  0  0  0  0
  132.3750  131.0630   61.0000 N   0  0  0  0  0  0  0  0  0  0  0  0
  131.9850  131.6870   61.9820 O   0  0  0  0  0  0  0  0  0  0  0  0
  133.5530  131.0410   60.6530 O   0  0  0  0  0  0  0  0  0  0  0  0
  130.5830  129.3240   60.7980 C   0  0  0  0  0  0  0  0  0  0  0  0
  129.6520  128.6120   60.0490 C   0  0  0  0  0  0  0  0  0  0  0  0
  1  2  2  0
  2  3  1  0
  4  3  1  1
  4  5  1  0
  5  6  1  0
  6  7  1  6
  7  8  1  0
  8  9  1  0
  9 10  1  0
 10 11  2  0
 11 12  1  0
 12 13  2  0
 13 14  1  0
 14 15  2  0
  6 16  1  0
 16 17  1  1
 17 18  1  0
 18 19  1  0
 19 20  2  0
 20 21  1  0
 21 22  2  0
 22 23  1  0
 23 24  2  0
 16 25  1  0
 25 26  1  6
 26 27  1  0
 27 28  1  0
 28 29  2  0
 29 30  1  0
 30 31  2  0
 31 32  1  0
 32 33  2  0
  2 34  1  0
 34 35  2  0
 35 36  1  0
 36 37  2  0
 37 38  1  0
 38 39  2  0
 38 40  1  0
 37 41  1  0
 41 42  2  0
 25  4  1  0
 33 28  1  0
 42 34  1  0
 15 10  1  0
 24 19  1  0
M  CHG  2  38   1  40  -1
M  END
>  <Binding energies>  (55) 
[-8.26]

>  <Ligand effiencies>  (55) 
[-0.19666666666666666]

>  <Interactions>  (55) 
["V-B:ARG:545:CZ:9898, V-B:GLU:543:CB:9878, V-B:GLU:543:CD:9880, V-A:TYR:484:CZ:4345, V-B:TYR:539:CZ:9849, V-A:GLY:453:C:4040, V-A:ILE:369:CD1:3237, V-A:LEU:475:CD2:4257, V-B:PRO:540:CA:9855, V-A:ASP:366:CG:3211, V-A:GLY:454:CA:4047, V-B:ALA:541:CB:9864, V-B:TYR:539:CD2:9846, V-B:TYR:539:CE2:9848, V-A:ILE:369:CG2:3235, V-B:PRO:540:CB:9857, V-A:ASP:366:CA:3208, V-A:ASP:366:CB:3210, V-A:ASP:366:C:3206, V-A:ILE:369:CB:3234, V-A:PRO:540:CA:4881, V-A:PRO:540:CB:4883, V-B:ASN:362:C:8144, V-B:ASN:362:CB:8148, H-A:ALA:541:N:4889, H-A:ARG:545:NH2:4926, H-B:TYR:539:OH:9850, V-A:TYR:484:CE1:4343"]

$$$$
RR8_B_Rahimova_2017
     RDKit          3D

 42 46  0  0  0  0  0  0  0  0999 V2000
  130.9790  126.6210   56.3180 O   0  0  0  0  0  0  0  0  0  0  0  0
  130.5600  126.6910   57.4780 C   0  0  0  0  0  0  0  0  0  0  0  0
  129.8740  125.6930   58.1130 O   0  0  0  0  0  0  0  0  0  0  0  0
  130.4370  124.4040   58.1270 C   0  0  2  0  0  0  0  0  0  0  0  0
  129.5790  123.4540   57.5600 O   0  0  0  0  0  0  0  0  0  0  0  0
  128.7440  122.8510   58.5480 C   0  0  2  0  0  0  0  0  0  0  0  0
  127.2670  123.0770   58.1790 C   0  0  0  0  0  0  0  0  0  0  0  0
  127.1240  124.3630   57.5890 O   0  0  0  0  0  0  0  0  0  0  0  0
  126.0620  125.1470   58.1130 C   0  0  0  0  0  0  0  0  0  0  0  0
  125.7660  124.7010   59.5370 C   0  0  0  0  0  0  0  0  0  0  0  0
  126.6530  125.0310   60.5660 C   0  0  0  0  0  0  0  0  0  0  0  0
  126.4010  124.6060   61.8680 C   0  0  0  0  0  0  0  0  0  0  0  0
  125.2600  123.8520   62.1360 C   0  0  0  0  0  0  0  0  0  0  0  0
  124.3680  123.5250   61.1180 C   0  0  0  0  0  0  0  0  0  0  0  0
  124.6220  123.9480   59.8150 C   0  0  0  0  0  0  0  0  0  0  0  0
  129.1990  123.4840   59.8680 C   0  0  1  0  0  0  0  0  0  0  0  0
  129.1220  122.5190   60.9210 O   0  0  0  0  0  0  0  0  0  0  0  0
  129.7280  121.2460   60.6820 C   0  0  0  0  0  0  0  0  0  0  0  0
  131.2360  121.2730   60.9070 C   0  0  0  0  0  0  0  0  0  0  0  0
  131.7740  122.0030   61.9710 C   0  0  0  0  0  0  0  0  0  0  0  0
  133.1480  122.0000   62.1930 C   0  0  0  0  0  0  0  0  0  0  0  0
  133.9810  121.2700   61.3470 C   0  0  0  0  0  0  0  0  0  0  0  0
  133.4530  120.5440   60.2810 C   0  0  0  0  0  0  0  0  0  0  0  0
  132.0770  120.5440   60.0620 C   0  0  0  0  0  0  0  0  0  0  0  0
  130.6220  123.9440   59.5720 C   0  0  2  0  0  0  0  0  0  0  0  0
  131.0020  124.9890   60.4640 O   0  0  0  0  0  0  0  0  0  0  0  0
  130.2160  125.1080   61.6400 C   0  0  0  0  0  0  0  0  0  0  0  0
  131.1530  125.1670   62.8340 C   0  0  0  0  0  0  0  0  0  0  0  0
  130.6470  125.3860   64.1180 C   0  0  0  0  0  0  0  0  0  0  0  0
  131.5170  125.4570   65.2030 C   0  0  0  0  0  0  0  0  0  0  0  0
  132.8880  125.3100   65.0000 C   0  0  0  0  0  0  0  0  0  0  0  0
  133.3990  125.0910   63.7220 C   0  0  0  0  0  0  0  0  0  0  0  0
  132.5290  125.0190   62.6380 C   0  0  0  0  0  0  0  0  0  0  0  0
  130.7210  127.9120   58.3370 C   0  0  0  0  0  0  0  0  0  0  0  0
  131.0990  129.1510   57.7980 C   0  0  0  0  0  0  0  0  0  0  0  0
  131.2490  130.2630   58.6190 C   0  0  0  0  0  0  0  0  0  0  0  0
  131.0370  130.1640   59.9990 C   0  0  0  0  0  0  0  0  0  0  0  0
  131.2240  131.3460   60.8770 N   0  0  0  0  0  0  0  0  0  0  0  0
  132.3540  131.6070   61.2800 O   0  0  0  0  0  0  0  0  0  0  0  0
  130.2420  132.0250   61.1670 O   0  0  0  0  0  0  0  0  0  0  0  0
  130.6540  128.9280   60.5370 C   0  0  0  0  0  0  0  0  0  0  0  0
  130.4960  127.8170   59.7150 C   0  0  0  0  0  0  0  0  0  0  0  0
  1  2  2  0
  2  3  1  0
  4  3  1  1
  4  5  1  0
  5  6  1  0
  6  7  1  6
  7  8  1  0
  8  9  1  0
  9 10  1  0
 10 11  2  0
 11 12  1  0
 12 13  2  0
 13 14  1  0
 14 15  2  0
  6 16  1  0
 16 17  1  1
 17 18  1  0
 18 19  1  0
 19 20  2  0
 20 21  1  0
 21 22  2  0
 22 23  1  0
 23 24  2  0
 16 25  1  0
 25 26  1  1
 26 27  1  0
 27 28  1  0
 28 29  2  0
 29 30  1  0
 30 31  2  0
 31 32  1  0
 32 33  2  0
  2 34  1  0
 34 35  2  0
 35 36  1  0
 36 37  2  0
 37 38  1  0
 38 39  2  0
 38 40  1  0
 37 41  1  0
 41 42  2  0
 25  4  1  0
 33 28  1  0
 42 34  1  0
 15 10  1  0
 24 19  1  0
M  CHG  2  38   1  40  -1
M  END
>  <Binding energies>  (56) 
[-8.9]

>  <Ligand effiencies>  (56) 
[-0.2119047619047619]

>  <Interactions>  (56) 
["V-B:ARG:545:CZ:9898, V-A:HIS:456:CE1:4068, V-B:GLU:543:CD:9880, V-A:ARG:545:CZ:4924, V-A:ARG:545:CG:4920, V-A:ARG:545:CD:4921, V-B:TYR:539:CZ:9849, V-B:PRO:540:C:9853, V-A:TRP:381:CZ2:3368, V-A:ILE:369:CD1:3237, V-A:LEU:475:CD2:4257, V-A:TRP:381:CH2:3370, V-B:PRO:540:CA:9855, V-A:GLY:453:CA:4042, V-B:TYR:539:C:9839, V-A:ASP:366:CG:3211, V-A:GLY:454:CA:4047, V-B:ALA:541:CB:9864, V-B:TYR:539:CD2:9846, V-B:TYR:539:CE2:9848, V-A:ILE:369:CG2:3235, V-B:PRO:540:N:9856, V-B:PRO:540:CB:9857, H-A:TYR:531:OH:4793, V-A:PRO:540:CA:4881, H-B:ALA:541:N:9863, V-B:ASN:362:CB:8148, V-A:PRO:540:C:4879, H-A:ALA:541:N:4889, H-A:ARG:545:NH2:4926, V-B:ALA:541:C:9860"]

$$$$
RR9_Rahimova_2017
     RDKit          3D

 36 40  0  0  0  0  0  0  0  0999 V2000
  126.8190  128.7480   73.1370 C   0  0  0  0  0  0  0  0  0  0  0  0
  127.9310  128.3970   72.1440 C   0  0  0  0  0  0  0  0  0  0  0  0
  127.3370  128.0370   70.9000 O   0  0  0  0  0  0  0  0  0  0  0  0
  128.1470  127.6720   69.8430 C   0  0  0  0  0  0  0  0  0  0  0  0
  127.5060  127.3430   68.6500 C   0  0  0  0  0  0  0  0  0  0  0  0
  128.2400  126.9600   67.5320 C   0  0  0  0  0  0  0  0  0  0  0  0
  129.6400  126.8960   67.5750 C   0  0  0  0  0  0  0  0  0  0  0  0
  130.4370  126.4800   66.3740 C   0  0  0  0  0  0  0  0  0  0  0  0
  129.8790  126.4780   65.0860 C   0  0  0  0  0  0  0  0  0  0  0  0
  130.6340  126.1000   63.9610 C   0  0  0  0  0  0  0  0  0  0  0  0
  130.0110  126.2160   62.5960 C   0  0  0  0  0  0  0  0  0  0  0  0
  129.9630  127.3050   62.0250 O   0  0  0  0  0  0  0  0  0  0  0  0
  129.5070  125.0760   62.0840 N   0  0  0  0  0  0  0  0  0  0  0  0
  128.7400  124.9580   60.8390 C   0  0  0  0  0  0  0  0  0  0  0  0
  127.4430  124.1330   61.0020 C   0  0  0  0  0  0  0  0  0  0  0  0
  126.6450  123.9400   59.7180 C   0  0  0  0  0  0  0  0  0  0  0  0
  125.2810  124.2480   59.6870 C   0  0  0  0  0  0  0  0  0  0  0  0
  124.5620  124.1040   58.5030 C   0  0  0  0  0  0  0  0  0  0  0  0
  125.2080  123.6480   57.3560 C   0  0  0  0  0  0  0  0  0  0  0  0
  126.5660  123.3350   57.3800 C   0  0  0  0  0  0  0  0  0  0  0  0
  127.2850  123.4800   58.5640 C   0  0  0  0  0  0  0  0  0  0  0  0
  131.9680  125.6920   64.2090 C   0  0  0  0  0  0  0  0  0  0  0  0
  133.1070  125.1960   63.4730 C   0  0  0  0  0  0  0  0  0  0  0  0
  133.2230  124.8460   62.0270 C   0  0  0  0  0  0  0  0  0  0  0  0
  134.2270  123.9750   61.5920 C   0  0  0  0  0  0  0  0  0  0  0  0
  134.3430  123.6610   60.2400 C   0  0  0  0  0  0  0  0  0  0  0  0
  133.4530  124.2150   59.3180 C   0  0  0  0  0  0  0  0  0  0  0  0
  133.5910  123.8880   57.8420 C   0  0  0  0  0  0  0  0  0  0  0  0
  132.4510  125.0860   59.7480 C   0  0  0  0  0  0  0  0  0  0  0  0
  132.3350  125.3960   61.1000 C   0  0  0  0  0  0  0  0  0  0  0  0
  134.1390  125.0400   64.2720 N   0  0  0  0  0  0  0  0  0  0  0  0
  133.7470  125.3470   65.5190 N   0  0  0  0  0  0  0  0  0  0  0  0
  132.4300  125.7400   65.5460 C   0  0  0  0  0  0  0  0  0  0  0  0
  131.7250  126.1070   66.6150 N   0  0  0  0  0  0  0  0  0  0  0  0
  130.2790  127.2270   68.7780 C   0  0  0  0  0  0  0  0  0  0  0  0
  129.5460  127.6110   69.8990 C   0  0  0  0  0  0  0  0  0  0  0  0
  1  2  1  0
  2  3  1  0
  3  4  1  0
  4  5  2  0
  5  6  1  0
  6  7  2  0
  7  8  1  0
  8  9  2  0
  9 10  1  0
 10 11  1  0
 11 12  2  0
 11 13  1  0
 13 14  1  0
 14 15  1  0
 15 16  1  0
 16 17  2  0
 17 18  1  0
 18 19  2  0
 19 20  1  0
 20 21  2  0
 10 22  2  0
 22 23  1  0
 23 24  1  0
 24 25  2  0
 25 26  1  0
 26 27  2  0
 27 28  1  0
 27 29  1  0
 29 30  2  0
 23 31  2  0
 31 32  1  0
 32 33  1  0
 33 34  2  0
  7 35  1  0
 35 36  2  0
 36  4  1  0
 34  8  1  0
 21 16  1  0
 33 22  1  0
 30 24  1  0
M  END
>  <Binding energies>  (57) 
[-7.73]

>  <Ligand effiencies>  (57) 
[-0.20342105263157895]

>  <Interactions>  (57) 
["V-B:GLU:543:CB:9878, V-A:HIS:456:CE1:4068, V-B:GLU:543:CD:9880, V-A:GLU:543:CD:4906, V-B:HIS:456:CE1:9042, V-B:GLY:544:C:9884, V-B:HIS:456:CD2:9040, V-B:GLU:543:CG:9879, H-A:GLY:454:N:4048, V-B:GLU:543:C:9874, V-A:ARG:545:CZ:4924, V-A:ARG:545:CG:4920, H-A:TYR:484:OH:4346, V-A:ARG:545:CD:4921, H-A:ARG:545:NH1:4925, H-B:GLU:543:OE1:9881, H-A:ARG:545:NE:4922, V-A:GLU:543:C:4900, V-B:TYR:539:CZ:9849, V-A:GLY:453:C:4040, V-A:ILE:369:CD1:3237, V-B:PRO:540:CA:9855, V-A:GLY:453:CA:4042, V-B:TYR:539:C:9839, V-A:ASP:366:CG:3211, V-B:PRO:540:CD:9859, V-B:TYR:539:CE2:9848, V-A:ILE:369:CG2:3235, V-B:PRO:540:N:9856, V-B:PRO:540:CB:9857, V-A:ASP:366:CA:3208, V-A:ASP:366:CB:3210, V-A:ILE:369:CG1:3236, V-A:ILE:369:CB:3234, H-A:ARG:545:NH2:4926, H-B:HIS:456:ND1:9039, V-B:HIS:456:CG:9038, V-B:ARG:545:CG:9894, H-A:HIS:456:ND1:4065, V-B:HIS:456:CB:9037, H-A:ILE:455:O:4051"]

$$$$
