1a_Grossjean_2025
     RDKit          3D

 26 27  0  0  0  0  0  0  0  0999 V2000
  130.8790  126.1260   72.9000 C   0  0  0  0  0  0  0  0  0  0  0  0
  129.5000  125.7430   72.3550 C   0  0  0  0  0  0  0  0  0  0  0  0
  128.6010  126.8300   72.5330 O   0  0  0  0  0  0  0  0  0  0  0  0
  128.6800  127.9400   71.7530 C   0  0  0  0  0  0  0  0  0  0  0  0
  128.4720  129.0820   72.1730 O   0  0  0  0  0  0  0  0  0  0  0  0
  129.0300  127.6370   70.3240 C   0  0  0  0  0  0  0  0  0  0  0  0
  130.3780  127.5440   69.9560 C   0  0  0  0  0  0  0  0  0  0  0  0
  130.7340  127.2690   68.6390 C   0  0  0  0  0  0  0  0  0  0  0  0
  129.7540  127.0850   67.6630 C   0  0  0  0  0  0  0  0  0  0  0  0
  130.2270  126.8150   66.3640 N   0  0  0  0  0  0  0  0  0  0  0  0
  130.6270  125.6510   65.8110 C   0  0  0  0  0  0  0  0  0  0  0  0
  130.6470  124.5580   66.3780 O   0  0  0  0  0  0  0  0  0  0  0  0
  131.0870  125.7420   64.3540 C   0  0  0  0  0  0  0  0  0  0  0  0
  132.6930  124.9320   64.0910 S   0  0  0  0  0  0  0  0  0  0  0  0
  132.5380  123.8930   62.6550 C   0  0  0  0  0  0  0  0  0  0  0  0
  133.4090  124.2000   61.6610 N   0  0  0  0  0  0  0  0  0  0  0  0
  133.3740  123.4740   60.5180 C   0  0  0  0  0  0  0  0  0  0  0  0
  134.3670  123.8830   59.4460 C   0  0  0  0  0  0  0  0  0  0  0  0
  132.4870  122.4170   60.3250 C   0  0  0  0  0  0  0  0  0  0  0  0
  131.5990  122.0790   61.3530 C   0  0  0  0  0  0  0  0  0  0  0  0
  130.6470  120.9070   61.1250 C   0  0  0  0  0  0  0  0  0  0  0  0
  131.6200  122.8210   62.5560 C   0  0  0  0  0  0  0  0  0  0  0  0
  130.7330  122.4540   63.6640 C   0  0  0  0  0  0  0  0  0  0  0  0
  130.0330  122.1620   64.5380 N   0  0  0  0  0  0  0  0  0  0  0  0
  128.4000  127.1690   68.0250 C   0  0  0  0  0  0  0  0  0  0  0  0
  128.0450  127.4440   69.3430 C   0  0  0  0  0  0  0  0  0  0  0  0
  1  2  1  0
  2  3  1  0
  3  4  1  0
  4  5  2  0
  4  6  1  0
  6  7  2  0
  7  8  1  0
  8  9  2  0
  9 10  1  0
 10 11  1  0
 11 12  2  0
 11 13  1  0
 13 14  1  0
 14 15  1  0
 15 16  2  0
 16 17  1  0
 17 18  1  0
 17 19  2  0
 19 20  1  0
 20 21  1  0
 20 22  2  0
 22 23  1  0
 23 24  3  0
  9 25  1  0
 25 26  2  0
 26  6  1  0
 22 15  1  0
M  END
>  <Binding energies>  (1) 
[-7.82]

>  <Ligand effiencies>  (1) 
[-0.2896296296296296]

>  <Interactions>  (1) 
["V-B:GLU:543:CB:9878, V-A:HIS:456:CE1:4068, V-A:HIS:456:CD2:4066, V-B:GLU:543:CD:9880, V-A:GLU:543:CD:4906, V-B:HIS:456:CE1:9042, V-A:GLY:544:CA:4912, H-A:LYS:547:NZ:4949, V-B:GLY:544:C:9884, V-A:GLY:544:C:4910, V-B:HIS:456:CD2:9040, V-B:GLU:543:CG:9879, V-A:GLU:543:CG:4905, H-B:LYS:547:NZ:9923, V-B:GLU:543:C:9874, V-A:ARG:545:CG:4920, H-A:TYR:484:OH:4346, V-A:HIS:456:CG:4064, V-A:TYR:484:CZ:4345, V-B:LYS:547:CE:9922, V-B:GLY:544:CA:9886, H-A:ARG:545:NE:4922, V-A:GLU:543:C:4900, V-A:ILE:369:CD1:3237, V-A:LEU:475:CD2:4257, V-A:ASP:366:CG:3211, V-B:ALA:541:CB:9864, V-B:TYR:539:CE2:9848, V-A:ILE:369:CG2:3235, V-A:ASP:366:CA:3208, V-A:ASP:366:CB:3210, V-A:ILE:369:CG1:3236, V-A:ILE:369:CB:3234, H-A:GLU:543:OE2:4908, H-A:GLU:543:OE1:4907, V-A:TYR:484:CE1:4343, H-B:GLU:543:OE2:9882"]

$$$$
1aa_Ghoteimi_2023
     RDKit          3D

 40 43  0  0  0  0  0  0  0  0999 V2000
  127.7930  128.2640   72.4860 C   0  0  0  0  0  0  0  0  0  0  0  0
  129.0950  128.8930   71.9840 C   0  0  0  0  0  0  0  0  0  0  0  0
  129.9700  127.8700   71.5250 O   0  0  0  0  0  0  0  0  0  0  0  0
  129.5090  126.8400   70.7710 C   0  0  0  0  0  0  0  0  0  0  0  0
  129.4400  125.6760   71.1780 O   0  0  0  0  0  0  0  0  0  0  0  0
  129.0890  127.2560   69.3900 C   0  0  0  0  0  0  0  0  0  0  0  0
  130.0260  127.5590   68.3900 C   0  0  0  0  0  0  0  0  0  0  0  0
  129.6070  127.9420   67.1170 C   0  0  0  0  0  0  0  0  0  0  0  0
  128.2380  128.0240   66.8220 C   0  0  0  0  0  0  0  0  0  0  0  0
  127.7000  128.3990   65.5770 N   0  0  0  0  0  0  0  0  0  0  0  0
  126.8360  129.3900   65.2580 C   0  0  0  0  0  0  0  0  0  0  0  0
  126.3500  130.1860   66.0620 O   0  0  0  0  0  0  0  0  0  0  0  0
  126.4380  129.5290   63.7800 C   0  0  0  0  0  0  0  0  0  0  0  0
  127.5990  129.4810   62.9410 O   0  0  0  0  0  0  0  0  0  0  0  0
  128.0480  128.2710   62.4310 C   0  0  0  0  0  0  0  0  0  0  0  0
  129.1200  127.6810   63.0290 N   0  0  0  0  0  0  0  0  0  0  0  0
  129.5970  126.5030   62.5500 C   0  0  0  0  0  0  0  0  0  0  0  0
  130.7800  125.9170   63.2670 C   0  0  0  0  0  0  0  0  0  0  0  0
  130.8070  125.8320   64.6660 C   0  0  0  0  0  0  0  0  0  0  0  0
  131.9030  125.2910   65.3330 C   0  0  0  0  0  0  0  0  0  0  0  0
  133.0040  124.8180   64.6230 C   0  0  0  0  0  0  0  0  0  0  0  0
  134.0460  124.3000   65.3680 O   0  0  0  0  0  0  0  0  0  0  0  0
  134.4520  124.9730   66.5550 C   0  0  0  0  0  0  0  0  0  0  0  0
  132.9900  124.8920   63.2230 C   0  0  0  0  0  0  0  0  0  0  0  0
  131.8930  125.4320   62.5600 C   0  0  0  0  0  0  0  0  0  0  0  0
  128.9850  125.8760   61.4580 C   0  0  0  0  0  0  0  0  0  0  0  0
  127.8740  126.4560   60.8310 C   0  0  0  0  0  0  0  0  0  0  0  0
  127.2600  125.7320   59.6780 C   0  0  0  0  0  0  0  0  0  0  0  0
  127.7870  125.8840   58.3920 C   0  0  0  0  0  0  0  0  0  0  0  0
  127.2270  125.2060   57.3130 C   0  0  0  0  0  0  0  0  0  0  0  0
  126.1340  124.3590   57.4970 C   0  0  0  0  0  0  0  0  0  0  0  0
  125.6440  123.7280   56.3700 O   0  0  0  0  0  0  0  0  0  0  0  0
  124.2780  123.3330   56.3340 C   0  0  0  0  0  0  0  0  0  0  0  0
  125.6070  124.1980   58.7870 C   0  0  0  0  0  0  0  0  0  0  0  0
  126.1680  124.8780   59.8650 C   0  0  0  0  0  0  0  0  0  0  0  0
  127.3990  127.6920   61.3270 C   0  0  0  0  0  0  0  0  0  0  0  0
  126.2720  128.3940   60.7110 C   0  0  0  0  0  0  0  0  0  0  0  0
  125.3810  128.9510   60.2240 N   0  0  0  0  0  0  0  0  0  0  0  0
  127.3050  127.7250   67.8160 C   0  0  0  0  0  0  0  0  0  0  0  0
  127.7250  127.3440   69.0860 C   0  0  0  0  0  0  0  0  0  0  0  0
  1  2  1  0
  2  3  1  0
  3  4  1  0
  4  5  2  0
  4  6  1  0
  6  7  2  0
  7  8  1  0
  8  9  2  0
  9 10  1  0
 10 11  1  0
 11 12  2  0
 11 13  1  0
 13 14  1  0
 14 15  1  0
 15 16  2  0
 16 17  1  0
 17 18  1  0
 18 19  2  0
 19 20  1  0
 20 21  2  0
 21 22  1  0
 22 23  1  0
 21 24  1  0
 24 25  2  0
 17 26  2  0
 26 27  1  0
 27 28  1  0
 28 29  2  0
 29 30  1  0
 30 31  2  0
 31 32  1  0
 32 33  1  0
 31 34  1  0
 34 35  2  0
 27 36  2  0
 36 37  1  0
 37 38  3  0
  9 39  1  0
 39 40  2  0
 40  6  1  0
 36 15  1  0
 25 18  1  0
 35 28  1  0
M  END
>  <Binding energies>  (2) 
[-6.73]

>  <Ligand effiencies>  (2) 
[-0.16414634146341464]

>  <Interactions>  (2) 
["V-B:ARG:545:CZ:9898, V-A:HIS:456:CE1:4068, V-A:HIS:456:CD2:4066, V-B:GLU:543:CD:9880, H-B:TYR:484:OH:9320, V-A:GLU:543:CD:4906, V-B:HIS:456:CE1:9042, V-A:GLY:544:CA:4912, V-B:GLY:544:C:9884, V-B:HIS:456:CD2:9040, V-A:GLU:543:CB:4904, V-B:GLU:543:CG:9879, V-A:GLU:543:CG:4905, H-A:GLY:454:N:4048, V-B:GLU:543:C:9874, V-A:ARG:545:CZ:4924, V-A:ARG:545:CG:4920, V-A:LYS:547:CE:4948, H-A:TYR:484:OH:4346, V-A:ARG:545:CD:4921, V-A:TYR:484:CZ:4345, H-B:GLU:543:OE1:9881, V-A:GLU:543:C:4900, V-B:PRO:540:CA:9855, V-A:GLY:454:CA:4047, V-B:PRO:540:CD:9859, V-B:PRO:540:N:9856, V-B:PRO:540:CB:9857, V-B:ASP:366:CG:8185, H-B:ARG:545:NH2:9900, H-B:TYR:531:OH:9767, H-A:GLU:543:OE2:4908, H-A:GLU:543:OE1:4907, V-B:HIS:456:CG:9038, H-B:GLU:543:OE2:9882, V-B:ILE:538:CB:9834, V-B:ARG:545:CG:9894, V-B:TYR:531:CE2:9765, V-A:ARG:545:CB:4919, V-A:ILE:455:C:4050, V-B:LEU:363:CD1:8161, V-B:ILE:538:CG2:9835, H-A:ILE:455:N:4053"]

$$$$
1b_Grossjean_2025
     RDKit          3D

 25 26  0  0  0  0  0  0  0  0999 V2000
  129.1570  125.6120   72.2810 C   0  0  0  0  0  0  0  0  0  0  0  0
  128.6090  126.8580   72.6920 O   0  0  0  0  0  0  0  0  0  0  0  0
  128.7790  127.9770   71.9410 C   0  0  0  0  0  0  0  0  0  0  0  0
  128.6220  129.1210   72.3790 O   0  0  0  0  0  0  0  0  0  0  0  0
  129.1860  127.6850   70.5250 C   0  0  0  0  0  0  0  0  0  0  0  0
  130.5330  127.6030   70.1410 C   0  0  0  0  0  0  0  0  0  0  0  0
  130.8760  127.3320   68.8200 C   0  0  0  0  0  0  0  0  0  0  0  0
  129.8860  127.1370   67.8570 C   0  0  0  0  0  0  0  0  0  0  0  0
  130.3480  126.8710   66.5540 N   0  0  0  0  0  0  0  0  0  0  0  0
  130.6210  125.6930   65.9500 C   0  0  0  0  0  0  0  0  0  0  0  0
  130.5010  124.5820   66.4640 O   0  0  0  0  0  0  0  0  0  0  0  0
  131.1080  125.7960   64.5040 C   0  0  0  0  0  0  0  0  0  0  0  0
  132.6930  124.9410   64.2520 S   0  0  0  0  0  0  0  0  0  0  0  0
  132.5090  123.8920   62.8260 C   0  0  0  0  0  0  0  0  0  0  0  0
  133.3480  124.2030   61.8060 N   0  0  0  0  0  0  0  0  0  0  0  0
  133.2940  123.4670   60.6720 C   0  0  0  0  0  0  0  0  0  0  0  0
  134.2710  123.8630   59.5800 C   0  0  0  0  0  0  0  0  0  0  0  0
  132.4030  122.4090   60.5050 C   0  0  0  0  0  0  0  0  0  0  0  0
  131.5190  122.0940   61.5420 C   0  0  0  0  0  0  0  0  0  0  0  0
  130.5410  120.9400   61.3290 C   0  0  0  0  0  0  0  0  0  0  0  0
  131.5580  122.8490   62.7360 C   0  0  0  0  0  0  0  0  0  0  0  0
  130.6120  122.5670   63.8180 C   0  0  0  0  0  0  0  0  0  0  0  0
  129.8640  122.3410   64.6710 N   0  0  0  0  0  0  0  0  0  0  0  0
  128.5370  127.2160   68.2320 C   0  0  0  0  0  0  0  0  0  0  0  0
  128.1950  127.4870   69.5540 C   0  0  0  0  0  0  0  0  0  0  0  0
  1  2  1  0
  2  3  1  0
  3  4  2  0
  3  5  1  0
  5  6  2  0
  6  7  1  0
  7  8  2  0
  8  9  1  0
  9 10  1  0
 10 11  2  0
 10 12  1  0
 12 13  1  0
 13 14  1  0
 14 15  2  0
 15 16  1  0
 16 17  1  0
 16 18  2  0
 18 19  1  0
 19 20  1  0
 19 21  2  0
 21 22  1  0
 22 23  3  0
  8 24  1  0
 24 25  2  0
 25  5  1  0
 21 14  1  0
M  END
>  <Binding energies>  (3) 
[-7.56]

>  <Ligand effiencies>  (3) 
[-0.2907692307692308]

>  <Interactions>  (3) 
["V-B:GLU:543:CB:9878, V-A:HIS:456:CE1:4068, V-A:HIS:456:CD2:4066, V-B:GLU:543:CD:9880, V-A:GLU:543:CD:4906, V-B:HIS:456:CE1:9042, V-A:GLY:544:CA:4912, H-A:LYS:547:NZ:4949, V-B:GLY:544:C:9884, V-A:GLY:544:C:4910, V-B:HIS:456:CD2:9040, V-B:GLU:543:CG:9879, V-A:GLU:543:CG:4905, H-B:LYS:547:NZ:9923, V-B:GLU:543:C:9874, V-A:ARG:545:CG:4920, H-A:TYR:484:OH:4346, V-A:TYR:484:CZ:4345, V-B:LYS:547:CE:9922, V-B:GLY:544:CA:9886, H-A:ARG:545:NE:4922, V-A:GLU:543:C:4900, V-A:ILE:369:CD1:3237, V-A:LEU:475:CD2:4257, V-A:ASP:366:CG:3211, V-B:ALA:541:CB:9864, V-B:TYR:539:CE2:9848, V-A:ILE:369:CG2:3235, V-A:ASP:366:CA:3208, V-A:ASP:366:CB:3210, V-A:ILE:369:CB:3234, H-A:GLU:543:OE2:4908, H-A:GLU:543:OE1:4907, V-A:TYR:484:CE1:4343"]

$$$$
1c_Grossjean_2025
     RDKit          3D

 23 24  0  0  0  0  0  0  0  0999 V2000
  127.1070  128.2860   74.7000 C   0  0  0  0  0  0  0  0  0  0  0  0
  128.4170  127.9460   74.2600 O   0  0  0  0  0  0  0  0  0  0  0  0
  128.6280  127.6680   72.9230 C   0  0  0  0  0  0  0  0  0  0  0  0
  127.6300  128.0760   72.0380 C   0  0  0  0  0  0  0  0  0  0  0  0
  127.7520  127.8420   70.6710 C   0  0  0  0  0  0  0  0  0  0  0  0
  128.8910  127.1940   70.1700 C   0  0  0  0  0  0  0  0  0  0  0  0
  129.1100  126.8980   68.8100 N   0  0  0  0  0  0  0  0  0  0  0  0
  128.9640  127.6900   67.7260 C   0  0  0  0  0  0  0  0  0  0  0  0
  128.6130  128.8690   67.7450 O   0  0  0  0  0  0  0  0  0  0  0  0
  129.2790  127.0270   66.3830 C   0  0  0  0  0  0  0  0  0  0  0  0
  130.9560  126.3290   66.3500 S   0  0  0  0  0  0  0  0  0  0  0  0
  131.3410  125.8720   64.6720 C   0  0  0  0  0  0  0  0  0  0  0  0
  130.3160  126.0790   63.8070 N   0  0  0  0  0  0  0  0  0  0  0  0
  130.4910  125.7680   62.5020 C   0  0  0  0  0  0  0  0  0  0  0  0
  129.3050  126.0370   61.5950 C   0  0  0  0  0  0  0  0  0  0  0  0
  131.6790  125.2320   62.0100 C   0  0  0  0  0  0  0  0  0  0  0  0
  132.7340  124.9910   62.8960 C   0  0  0  0  0  0  0  0  0  0  0  0
  134.0200  124.3870   62.3360 C   0  0  0  0  0  0  0  0  0  0  0  0
  132.5730  125.3060   64.2650 C   0  0  0  0  0  0  0  0  0  0  0  0
  133.6460  125.0100   65.2170 C   0  0  0  0  0  0  0  0  0  0  0  0
  134.4940  124.7760   65.9680 N   0  0  0  0  0  0  0  0  0  0  0  0
  129.8860  126.7740   71.0540 C   0  0  0  0  0  0  0  0  0  0  0  0
  129.7600  127.0100   72.4200 C   0  0  0  0  0  0  0  0  0  0  0  0
  1  2  1  0
  2  3  1  0
  3  4  2  0
  4  5  1  0
  5  6  2  0
  6  7  1  0
  7  8  1  0
  8  9  2  0
  8 10  1  0
 10 11  1  0
 11 12  1  0
 12 13  2  0
 13 14  1  0
 14 15  1  0
 14 16  2  0
 16 17  1  0
 17 18  1  0
 17 19  2  0
 19 20  1  0
 20 21  3  0
  6 22  1  0
 22 23  2  0
 23  3  1  0
 19 12  1  0
M  END
>  <Binding energies>  (4) 
[-7.03]

>  <Ligand effiencies>  (4) 
[-0.29291666666666666]

>  <Interactions>  (4) 
["V-B:GLU:543:CB:9878, V-A:HIS:456:CE1:4068, V-A:HIS:456:CD2:4066, V-B:GLU:543:CD:9880, H-A:HIS:456:NE2:4069, V-A:GLU:543:CD:4906, V-B:HIS:456:CE1:9042, H-A:LYS:547:NZ:4949, V-B:GLY:544:C:9884, H-B:GLU:543:O:9875, V-B:HIS:456:CD2:9040, V-B:GLU:543:CG:9879, V-A:GLU:543:CG:4905, H-A:GLY:454:N:4048, H-B:LYS:547:NZ:9923, V-B:GLU:543:C:9874, V-A:ARG:545:CZ:4924, V-A:ARG:545:CG:4920, V-A:LYS:547:CE:4948, H-A:TYR:484:OH:4346, V-A:ARG:545:CD:4921, V-B:LYS:547:CE:9922, H-A:ARG:545:NE:4922, V-A:GLY:453:C:4040, V-A:GLY:453:CA:4042, V-A:GLY:454:CA:4047, V-B:HIS:456:CG:9038, V-B:LYS:547:CD:9921, H-A:ILE:455:N:4053"]

$$$$
1d_Grossjean_2025
     RDKit          3D

 21 22  0  0  0  0  0  0  0  0999 V2000
  128.9550  132.4610   73.5630 C   0  0  0  0  0  0  0  0  0  0  0  0
  127.9040  131.4110   73.8660 C   0  0  0  0  0  0  0  0  0  0  0  0
  126.7900  131.6990   74.6510 C   0  0  0  0  0  0  0  0  0  0  0  0
  125.8470  130.6930   74.8900 C   0  0  0  0  0  0  0  0  0  0  0  0
  124.6260  131.0370   75.7400 C   0  0  0  0  0  0  0  0  0  0  0  0
  126.0520  129.4080   74.3360 C   0  0  0  0  0  0  0  0  0  0  0  0
  125.0550  128.3530   74.5320 C   0  0  0  0  0  0  0  0  0  0  0  0
  124.2650  127.5220   74.6890 N   0  0  0  0  0  0  0  0  0  0  0  0
  127.2250  129.1990   73.5720 C   0  0  0  0  0  0  0  0  0  0  0  0
  127.6420  127.6490   72.8040 S   0  0  0  0  0  0  0  0  0  0  0  0
  129.4060  127.7180   72.3670 C   0  0  0  0  0  0  0  0  0  0  0  0
  130.1770  126.5040   72.8910 C   0  0  0  0  0  0  0  0  0  0  0  0
  129.6870  125.3820   72.7650 O   0  0  0  0  0  0  0  0  0  0  0  0
  131.3790  126.7770   73.4420 N   0  0  0  0  0  0  0  0  0  0  0  0
  132.3210  125.9100   74.0260 C   0  0  0  0  0  0  0  0  0  0  0  0
  131.7970  124.7620   74.6270 C   0  0  0  0  0  0  0  0  0  0  0  0
  132.6420  123.8350   75.2300 C   0  0  0  0  0  0  0  0  0  0  0  0
  134.0180  124.0510   75.2260 C   0  0  0  0  0  0  0  0  0  0  0  0
  134.5550  125.1870   74.6230 C   0  0  0  0  0  0  0  0  0  0  0  0
  133.7110  126.1160   74.0210 C   0  0  0  0  0  0  0  0  0  0  0  0
  128.1220  130.1880   73.3290 N   0  0  0  0  0  0  0  0  0  0  0  0
  1  2  1  0
  2  3  2  0
  3  4  1  0
  4  5  1  0
  4  6  2  0
  6  7  1  0
  7  8  3  0
  6  9  1  0
  9 10  1  0
 10 11  1  0
 11 12  1  0
 12 13  2  0
 12 14  1  0
 14 15  1  0
 15 16  2  0
 16 17  1  0
 17 18  2  0
 18 19  1  0
 19 20  2  0
  9 21  2  0
 21  2  1  0
 20 15  1  0
M  END
>  <Binding energies>  (5) 
[-8.4]

>  <Ligand effiencies>  (5) 
[-0.38181818181818183]

>  <Interactions>  (5) 
["H-A:LYS:547:NZ:4949, V-A:GLY:544:C:4910, V-B:HIS:456:CD2:9040, H-B:LYS:547:NZ:9923, V-A:LYS:547:CE:4948, V-A:HIS:456:CG:4064, V-A:HIS:456:CB:4063, V-B:LYS:547:CE:9922, V-A:HIS:456:C:4059, V-A:LYS:471:CE:4218, V-A:HIS:456:CA:4061, V-B:HIS:456:CG:9038, H-A:GLY:544:O:4911, V-A:VAL:457:C:4071, V-A:VAL:458:CG2:4085, V-B:HIS:456:CB:9037, V-A:LYS:471:CD:4217, V-A:LYS:471:CG:4216, V-B:VAL:458:CG2:9059, V-B:HIS:456:C:9033, V-B:LYS:471:CE:9192, V-A:VAL:457:CA:4073, V-B:LYS:471:CG:9190, V-B:LYS:471:CD:9191, V-B:ASP:473:CG:9212"]

$$$$
1e_Grossjean_2025
     RDKit          3D

 22 23  0  0  0  0  0  0  0  0999 V2000
  134.4630  125.0060   66.3760 C   0  0  0  0  0  0  0  0  0  0  0  0
  133.4000  125.0980   65.2980 C   0  0  0  0  0  0  0  0  0  0  0  0
  132.0740  125.4150   65.6040 C   0  0  0  0  0  0  0  0  0  0  0  0
  131.1500  125.4790   64.5600 C   0  0  0  0  0  0  0  0  0  0  0  0
  131.5670  125.2270   63.2510 C   0  0  0  0  0  0  0  0  0  0  0  0
  132.9130  124.9200   63.0140 C   0  0  0  0  0  0  0  0  0  0  0  0
  133.2710  124.6650   61.6790 N   0  0  0  0  0  0  0  0  0  0  0  0
  133.7100  123.5100   61.1320 C   0  0  0  0  0  0  0  0  0  0  0  0
  133.8820  122.4570   61.7480 O   0  0  0  0  0  0  0  0  0  0  0  0
  134.0340  123.5620   59.6380 C   0  0  0  0  0  0  0  0  0  0  0  0
  132.5710  123.9700   58.6380 S   0  0  0  0  0  0  0  0  0  0  0  0
  131.1230  123.3350   59.4600 C   0  0  0  0  0  0  0  0  0  0  0  0
  131.2280  122.0250   59.8000 N   0  0  0  0  0  0  0  0  0  0  0  0
  130.1870  121.4290   60.4290 C   0  0  0  0  0  0  0  0  0  0  0  0
  130.3800  119.9680   60.7850 C   0  0  0  0  0  0  0  0  0  0  0  0
  129.0060  122.1040   60.7300 C   0  0  0  0  0  0  0  0  0  0  0  0
  128.8780  123.4470   60.3620 C   0  0  0  0  0  0  0  0  0  0  0  0
  127.5650  124.1580   60.6870 C   0  0  0  0  0  0  0  0  0  0  0  0
  129.9500  124.0890   59.7010 C   0  0  0  0  0  0  0  0  0  0  0  0
  129.8090  125.4770   59.2570 C   0  0  0  0  0  0  0  0  0  0  0  0
  129.6960  126.5750   58.9060 N   0  0  0  0  0  0  0  0  0  0  0  0
  133.8210  124.8510   64.0320 N   0  0  0  0  0  0  0  0  0  0  0  0
  1  2  1  0
  2  3  2  0
  3  4  1  0
  4  5  2  0
  5  6  1  0
  6  7  1  0
  7  8  1  0
  8  9  2  0
  8 10  1  0
 10 11  1  0
 11 12  1  0
 12 13  2  0
 13 14  1  0
 14 15  1  0
 14 16  2  0
 16 17  1  0
 17 18  1  0
 17 19  2  0
 19 20  1  0
 20 21  3  0
  6 22  2  0
 22  2  1  0
 19 12  1  0
M  END
>  <Binding energies>  (6) 
[-6.9]

>  <Ligand effiencies>  (6) 
[-0.3]

>  <Interactions>  (6) 
["V-A:HIS:456:CE1:4068, V-B:GLU:543:CD:9880, H-A:GLY:454:N:4048, V-A:ARG:545:CZ:4924, V-A:ARG:545:CG:4920, H-A:TYR:484:OH:4346, V-A:ARG:545:CD:4921, H-A:ARG:545:NH1:4925, H-A:ARG:545:NE:4922, V-A:GLY:453:C:4040, V-A:ILE:369:CD1:3237, V-A:LEU:475:CD2:4257, V-A:TRP:381:CH2:3370, V-A:GLY:453:CA:4042, V-B:ALA:541:CA:9862, V-A:ASP:366:CG:3211, V-A:GLY:454:CA:4047, V-B:ALA:541:CB:9864, V-B:TYR:539:CD2:9846, V-B:TYR:539:CE2:9848, V-A:ILE:369:CG2:3235, V-A:ILE:369:CB:3234, H-B:TYR:539:OH:9850, V-A:ARG:545:CB:4919, V-A:ILE:455:C:4050, H-A:ASP:366:OD2:3213, H-A:ASP:366:OD1:3212"]

$$$$
1f_Grossjean_2025
     RDKit          3D

 21 22  0  0  0  0  0  0  0  0999 V2000
  129.6030  122.0800   73.5850 C   0  0  0  0  0  0  0  0  0  0  0  0
  130.6260  123.1910   73.7370 C   0  0  0  0  0  0  0  0  0  0  0  0
  131.8080  123.0020   74.4480 C   0  0  0  0  0  0  0  0  0  0  0  0
  132.7070  124.0670   74.5650 C   0  0  0  0  0  0  0  0  0  0  0  0
  133.9890  123.8410   75.3660 C   0  0  0  0  0  0  0  0  0  0  0  0
  132.4000  125.3030   73.9520 C   0  0  0  0  0  0  0  0  0  0  0  0
  133.3030  126.4460   74.1100 C   0  0  0  0  0  0  0  0  0  0  0  0
  134.0170  127.3470   74.2360 N   0  0  0  0  0  0  0  0  0  0  0  0
  131.1890  125.3960   73.2250 C   0  0  0  0  0  0  0  0  0  0  0  0
  130.6350  126.8680   72.3880 S   0  0  0  0  0  0  0  0  0  0  0  0
  128.8100  126.8720   72.3770 C   0  0  0  0  0  0  0  0  0  0  0  0
  128.1580  127.6280   73.5450 C   0  0  0  0  0  0  0  0  0  0  0  0
  128.6800  127.6240   74.6600 O   0  0  0  0  0  0  0  0  0  0  0  0
  126.9960  128.2420   73.2360 N   0  0  0  0  0  0  0  0  0  0  0  0
  126.1470  129.0190   74.0480 C   0  0  0  0  0  0  0  0  0  0  0  0
  126.4800  130.2540   74.6360 C   0  0  0  0  0  0  0  0  0  0  0  0
  125.5350  130.9230   75.4190 C   0  0  0  0  0  0  0  0  0  0  0  0
  124.2790  130.3420   75.5930 C   0  0  0  0  0  0  0  0  0  0  0  0
  123.9320  129.1560   75.0330 N   0  0  0  0  0  0  0  0  0  0  0  0
  124.8600  128.5180   74.2750 C   0  0  0  0  0  0  0  0  0  0  0  0
  130.3130  124.3640   73.1390 N   0  0  0  0  0  0  0  0  0  0  0  0
  1  2  1  0
  2  3  2  0
  3  4  1  0
  4  5  1  0
  4  6  2  0
  6  7  1  0
  7  8  3  0
  6  9  1  0
  9 10  1  0
 10 11  1  0
 11 12  1  0
 12 13  2  0
 12 14  1  0
 14 15  1  0
 15 16  2  0
 16 17  1  0
 17 18  2  0
 18 19  1  0
 19 20  2  0
  9 21  2  0
 21  2  1  0
 20 15  1  0
M  END
>  <Binding energies>  (7) 
[-7.52]

>  <Ligand effiencies>  (7) 
[-0.3418181818181818]

>  <Interactions>  (7) 
["H-B:GLY:544:O:9885, V-A:HIS:456:CD2:4066, H-A:LYS:547:NZ:4949, V-B:GLY:544:C:9884, V-B:HIS:456:CD2:9040, H-B:LYS:547:NZ:9923, V-A:HIS:456:CG:4064, V-A:HIS:456:CB:4063, V-B:LYS:547:CE:9922, V-B:GLY:544:CA:9886, V-A:LYS:547:CD:4947, V-A:HIS:456:C:4059, V-A:LYS:547:CG:4946, V-A:LYS:471:CE:4218, V-A:ASP:473:CG:4238, V-B:HIS:456:CG:9038, H-B:HIS:456:NE2:9043, V-A:VAL:458:CG2:4085, V-B:HIS:456:CB:9037, V-A:LYS:471:CD:4217, V-A:LYS:471:CG:4216, V-B:VAL:458:CG2:9059, V-B:HIS:456:C:9033, V-B:HIS:456:CA:9035, V-B:VAL:457:C:9045, V-B:LYS:471:CE:9192, V-B:LYS:471:CD:9191, H-B:VAL:457:N:9048, H-B:VAL:458:N:9056"]

$$$$
1g_Grossjean_2025
     RDKit          3D

 22 23  0  0  0  0  0  0  0  0999 V2000
  129.9520  126.1070   62.4040 C   0  0  0  0  0  0  0  0  0  0  0  0
  130.8630  125.5200   61.3420 C   0  0  0  0  0  0  0  0  0  0  0  0
  131.8690  124.6110   61.6640 C   0  0  0  0  0  0  0  0  0  0  0  0
  132.6880  124.1160   60.6440 C   0  0  0  0  0  0  0  0  0  0  0  0
  133.7940  123.1320   61.0230 C   0  0  0  0  0  0  0  0  0  0  0  0
  132.4710  124.5410   59.3140 C   0  0  0  0  0  0  0  0  0  0  0  0
  133.3500  124.0760   58.2380 C   0  0  0  0  0  0  0  0  0  0  0  0
  134.0470  123.7080   57.3900 N   0  0  0  0  0  0  0  0  0  0  0  0
  131.4110  125.4470   59.0760 C   0  0  0  0  0  0  0  0  0  0  0  0
  130.9920  126.0760   57.4650 S   0  0  0  0  0  0  0  0  0  0  0  0
  130.4680  124.6610   56.4520 C   0  0  0  0  0  0  0  0  0  0  0  0
  129.3060  123.8990   57.0900 C   0  0  0  0  0  0  0  0  0  0  0  0
  128.9220  122.8360   56.5990 O   0  0  0  0  0  0  0  0  0  0  0  0
  128.7540  124.4580   58.1810 N   0  0  0  0  0  0  0  0  0  0  0  0
  127.6760  123.8760   58.9800 C   0  0  0  0  0  0  0  0  0  0  0  0
  126.3210  123.8450   58.2790 C   0  0  0  0  0  0  0  0  0  0  0  0
  125.1550  124.1130   59.0030 C   0  0  0  0  0  0  0  0  0  0  0  0
  123.9180  124.0850   58.3640 C   0  0  0  0  0  0  0  0  0  0  0  0
  123.8520  123.7960   57.0020 C   0  0  0  0  0  0  0  0  0  0  0  0
  125.0110  123.5330   56.2750 C   0  0  0  0  0  0  0  0  0  0  0  0
  126.2480  123.5590   56.9130 C   0  0  0  0  0  0  0  0  0  0  0  0
  130.6350  125.9400   60.0750 N   0  0  0  0  0  0  0  0  0  0  0  0
  1  2  1  0
  2  3  2  0
  3  4  1  0
  4  5  1  0
  4  6  2  0
  6  7  1  0
  7  8  3  0
  6  9  1  0
  9 10  1  0
 10 11  1  0
 11 12  1  0
 12 13  2  0
 12 14  1  0
 14 15  1  0
 15 16  1  0
 16 17  2  0
 17 18  1  0
 18 19  2  0
 19 20  1  0
 20 21  2  0
  9 22  2  0
 22  2  1  0
 21 16  1  0
M  END
>  <Binding energies>  (8) 
[-6.2]

>  <Ligand effiencies>  (8) 
[-0.26956521739130435]

>  <Interactions>  (8) 
["V-B:GLU:543:CD:9880, V-B:TYR:539:CZ:9849, V-A:ILE:369:CD1:3237, V-B:PRO:540:CA:9855, V-B:TYR:539:C:9839, V-A:ASP:366:CG:3211, V-B:PRO:540:CD:9859, V-B:TYR:539:CD2:9846, V-B:TYR:539:CE1:9847, V-B:TYR:539:CE2:9848, V-A:ILE:369:CG2:3235, V-B:PRO:540:N:9856, V-B:PRO:540:CB:9857, V-A:ASP:366:CA:3208, V-A:ASP:366:CB:3210, V-B:ASP:366:CG:8185, V-B:LEU:363:CA:8157, H-B:TYR:539:OH:9850, V-B:ILE:538:CB:9834, V-B:TYR:531:CZ:9766, V-B:TYR:531:CE2:9765, V-B:LEU:363:CD1:8161"]

$$$$
1h_Grossjean_2025
     RDKit          3D

 28 29  0  0  0  0  0  0  0  0999 V2000
  132.3220  131.1570   61.7790 C   0  0  0  0  0  0  0  0  0  0  0  0
  131.0630  131.4500   61.1840 O   0  0  0  0  0  0  0  0  0  0  0  0
  130.6120  130.6720   60.1340 C   0  0  0  0  0  0  0  0  0  0  0  0
  130.9970  129.3380   59.9240 C   0  0  0  0  0  0  0  0  0  0  0  0
  130.5110  128.6170   58.8330 C   0  0  0  0  0  0  0  0  0  0  0  0
  130.9190  127.1610   58.6300 C   0  0  0  0  0  0  0  0  0  0  0  0
  129.9820  126.3880   57.8150 N   0  0  0  0  0  0  0  0  0  0  0  0
  130.3020  125.3150   57.0690 C   0  0  0  0  0  0  0  0  0  0  0  0
  131.4350  124.8390   57.0090 O   0  0  0  0  0  0  0  0  0  0  0  0
  129.1670  124.6840   56.2620 C   0  0  0  0  0  0  0  0  0  0  0  0
  128.6010  123.1180   56.9930 S   0  0  0  0  0  0  0  0  0  0  0  0
  127.1260  123.4520   57.9430 C   0  0  0  0  0  0  0  0  0  0  0  0
  125.9830  123.6040   57.2230 N   0  0  0  0  0  0  0  0  0  0  0  0
  124.8270  123.8550   57.8810 C   0  0  0  0  0  0  0  0  0  0  0  0
  123.5940  124.0080   57.0100 C   0  0  0  0  0  0  0  0  0  0  0  0
  124.7600  123.9670   59.2680 C   0  0  0  0  0  0  0  0  0  0  0  0
  125.9300  123.8160   60.0200 C   0  0  0  0  0  0  0  0  0  0  0  0
  125.8330  123.9400   61.5380 C   0  0  0  0  0  0  0  0  0  0  0  0
  127.1480  123.5520   59.3530 C   0  0  0  0  0  0  0  0  0  0  0  0
  128.3900  123.3910   60.1140 C   0  0  0  0  0  0  0  0  0  0  0  0
  129.3710  123.2640   60.7160 N   0  0  0  0  0  0  0  0  0  0  0  0
  129.6020  129.2170   57.9600 C   0  0  0  0  0  0  0  0  0  0  0  0
  129.1950  130.5470   58.1480 C   0  0  0  0  0  0  0  0  0  0  0  0
  128.3020  131.2060   57.3230 O   0  0  0  0  0  0  0  0  0  0  0  0
  127.5590  130.4620   56.3630 C   0  0  0  0  0  0  0  0  0  0  0  0
  129.7160  131.2680   59.2330 C   0  0  0  0  0  0  0  0  0  0  0  0
  129.3220  132.5680   59.4340 O   0  0  0  0  0  0  0  0  0  0  0  0
  128.3060  132.7200   60.4150 C   0  0  0  0  0  0  0  0  0  0  0  0
  1  2  1  0
  2  3  1  0
  3  4  2  0
  4  5  1  0
  5  6  1  0
  6  7  1  0
  7  8  1  0
  8  9  2  0
  8 10  1  0
 10 11  1  0
 11 12  1  0
 12 13  2  0
 13 14  1  0
 14 15  1  0
 14 16  2  0
 16 17  1  0
 17 18  1  0
 17 19  2  0
 19 20  1  0
 20 21  3  0
  5 22  2  0
 22 23  1  0
 23 24  1  0
 24 25  1  0
 23 26  2  0
 26 27  1  0
 27 28  1  0
 26  3  1  0
 19 12  1  0
M  END
>  <Binding energies>  (9) 
[-5.53]

>  <Ligand effiencies>  (9) 
[-0.1906896551724138]

>  <Interactions>  (9) 
["V-B:GLU:543:CD:9880, V-A:GLU:543:CD:4906, V-A:ARG:545:CZ:4924, V-B:TYR:539:CZ:9849, V-B:PRO:540:C:9853, V-B:PRO:540:CA:9855, V-B:TYR:539:C:9839, V-A:ASP:366:CG:3211, V-B:PRO:540:N:9856, V-B:PRO:540:CB:9857, V-A:ASN:362:CB:3174, V-A:PRO:540:CA:4881, V-B:LEU:363:CA:8157, V-A:ALA:541:CB:4890, H-A:ALA:541:N:4889, V-A:TYR:539:CZ:4875, H-B:TYR:539:OH:9850, V-B:TYR:531:CZ:9766, V-B:TYR:531:CE2:9765, V-B:LEU:363:CD1:8161"]

$$$$
1i_Grossjean_2025
     RDKit          3D

 20 21  0  0  0  0  0  0  0  0999 V2000
  129.4800  122.3010   73.1410 C   0  0  0  0  0  0  0  0  0  0  0  0
  130.5120  123.3520   73.5030 C   0  0  0  0  0  0  0  0  0  0  0  0
  131.6640  123.0280   74.2160 C   0  0  0  0  0  0  0  0  0  0  0  0
  132.5860  124.0380   74.5140 C   0  0  0  0  0  0  0  0  0  0  0  0
  133.8490  123.6540   75.2820 C   0  0  0  0  0  0  0  0  0  0  0  0
  132.3240  125.3610   74.0890 C   0  0  0  0  0  0  0  0  0  0  0  0
  133.3000  126.4230   74.3460 C   0  0  0  0  0  0  0  0  0  0  0  0
  134.0730  127.2600   74.5480 N   0  0  0  0  0  0  0  0  0  0  0  0
  131.1170  125.6020   73.3920 C   0  0  0  0  0  0  0  0  0  0  0  0
  130.6270  127.2020   72.7870 S   0  0  0  0  0  0  0  0  0  0  0  0
  128.8580  127.1180   72.3770 C   0  0  0  0  0  0  0  0  0  0  0  0
  128.0580  128.2360   73.0500 C   0  0  0  0  0  0  0  0  0  0  0  0
  128.5230  129.3760   73.0840 O   0  0  0  0  0  0  0  0  0  0  0  0
  126.8650  127.8680   73.5670 N   0  0  0  0  0  0  0  0  0  0  0  0
  125.9500  128.6740   74.2290 C   0  0  0  0  0  0  0  0  0  0  0  0
  126.3120  129.8380   74.9050 C   0  0  0  0  0  0  0  0  0  0  0  0
  125.1350  130.3360   75.4160 C   0  0  0  0  0  0  0  0  0  0  0  0
  124.1180  129.5140   75.0660 O   0  0  0  0  0  0  0  0  0  0  0  0
  124.6470  128.4630   74.3150 N   0  0  0  0  0  0  0  0  0  0  0  0
  130.2380  124.6130   73.0910 N   0  0  0  0  0  0  0  0  0  0  0  0
  1  2  1  0
  2  3  2  0
  3  4  1  0
  4  5  1  0
  4  6  2  0
  6  7  1  0
  7  8  3  0
  6  9  1  0
  9 10  1  0
 10 11  1  0
 11 12  1  0
 12 13  2  0
 12 14  1  0
 14 15  1  0
 15 16  1  0
 16 17  2  0
 17 18  1  0
 18 19  1  0
  9 20  2  0
 20  2  1  0
 19 15  2  0
M  END
>  <Binding energies>  (10) 
[-7.67]

>  <Ligand effiencies>  (10) 
[-0.36523809523809525]

>  <Interactions>  (10) 
["H-B:GLY:544:O:9885, V-A:HIS:456:CD2:4066, H-A:LYS:547:NZ:4949, V-B:GLY:544:C:9884, V-B:HIS:456:CD2:9040, H-B:LYS:547:NZ:9923, V-A:HIS:456:CG:4064, V-A:HIS:456:CB:4063, V-B:LYS:547:CE:9922, V-A:LYS:547:CD:4947, V-A:HIS:456:C:4059, V-A:LYS:547:CG:4946, V-A:LYS:471:CE:4218, V-A:ASP:473:CG:4238, V-B:HIS:456:CG:9038, V-B:LYS:547:CD:9921, V-A:VAL:458:CG2:4085, V-B:HIS:456:CB:9037, V-A:LYS:471:CD:4217, V-A:LYS:471:CG:4216, V-B:VAL:458:CG2:9059, V-B:HIS:456:C:9033, H-B:VAL:457:N:9048"]

$$$$
1k_Grossjean_2025
     RDKit          3D

 25 25  0  0  0  0  0  0  0  0999 V2000
  126.4900  132.5300   63.7330 C   0  0  0  0  0  0  0  0  0  0  0  0
  125.0810  132.3680   63.7670 O   0  0  0  0  0  0  0  0  0  0  0  0
  124.6150  131.2940   62.9600 C   0  0  0  0  0  0  0  0  0  0  0  0
  124.9410  129.9600   63.6460 C   0  0  0  0  0  0  0  0  0  0  0  0
  124.2000  129.8560   64.8540 O   0  0  0  0  0  0  0  0  0  0  0  0
  124.9940  129.5240   65.9850 C   0  0  0  0  0  0  0  0  0  0  0  0
  126.4510  129.3300   65.5450 C   0  0  0  0  0  0  0  0  0  0  0  0
  127.2830  129.2220   66.6940 O   0  0  0  0  0  0  0  0  0  0  0  0
  127.5810  127.8810   67.0590 C   0  0  0  0  0  0  0  0  0  0  0  0
  128.9360  127.8340   67.7890 C   0  0  0  0  0  0  0  0  0  0  0  0
  128.8730  127.2360   69.1230 N   0  0  0  0  0  0  0  0  0  0  0  0
  129.8940  127.1820   69.9970 C   0  0  0  0  0  0  0  0  0  0  0  0
  131.0090  127.6470   69.7580 O   0  0  0  0  0  0  0  0  0  0  0  0
  129.5850  126.4890   71.3340 C   0  0  0  0  0  0  0  0  0  0  0  0
  130.7540  126.8400   72.6940 S   0  0  0  0  0  0  0  0  0  0  0  0
  131.2760  125.2980   73.4310 C   0  0  0  0  0  0  0  0  0  0  0  0
  130.4220  124.2520   73.2860 N   0  0  0  0  0  0  0  0  0  0  0  0
  130.7520  123.0580   73.8290 C   0  0  0  0  0  0  0  0  0  0  0  0
  129.7440  121.9420   73.6310 C   0  0  0  0  0  0  0  0  0  0  0  0
  131.9400  122.8530   74.5270 C   0  0  0  0  0  0  0  0  0  0  0  0
  132.8320  123.9200   74.6780 C   0  0  0  0  0  0  0  0  0  0  0  0
  134.1280  123.6740   75.4470 C   0  0  0  0  0  0  0  0  0  0  0  0
  132.5040  125.1770   74.1220 C   0  0  0  0  0  0  0  0  0  0  0  0
  133.4180  126.3130   74.2680 C   0  0  0  0  0  0  0  0  0  0  0  0
  134.1400  127.2110   74.3840 N   0  0  0  0  0  0  0  0  0  0  0  0
  1  2  1  0
  2  3  1  0
  3  4  1  0
  4  5  1  0
  5  6  1  0
  6  7  1  0
  7  8  1  0
  8  9  1  0
  9 10  1  0
 10 11  1  0
 11 12  1  0
 12 13  2  0
 12 14  1  0
 14 15  1  0
 15 16  1  0
 16 17  2  0
 17 18  1  0
 18 19  1  0
 18 20  2  0
 20 21  1  0
 21 22  1  0
 21 23  2  0
 23 24  1  0
 24 25  3  0
 23 16  1  0
M  END
>  <Binding energies>  (11) 
[-7.17]

>  <Ligand effiencies>  (11) 
[-0.27576923076923077]

>  <Interactions>  (11) 
["V-B:ARG:545:CZ:9898, V-A:HIS:456:CE1:4068, V-A:HIS:456:CD2:4066, V-B:GLU:543:CD:9880, H-B:TYR:484:OH:9320, V-A:GLU:543:CD:4906, H-B:GLY:454:N:9022, V-B:HIS:456:CE1:9042, V-A:GLY:544:C:4910, H-B:GLU:543:O:9875, H-B:ARG:545:NE:9896, V-A:GLU:543:CB:4904, V-B:GLU:543:CG:9879, V-A:GLU:543:CG:4905, H-B:LYS:547:NZ:9923, V-B:GLU:543:C:9874, V-A:HIS:456:CG:4064, V-A:HIS:456:CB:4063, V-B:LYS:547:CE:9922, V-A:LYS:547:CD:4947, V-A:HIS:456:C:4059, V-A:LYS:471:CE:4218, V-A:ASP:473:CG:4238, V-B:LEU:475:CD2:9231, H-B:ARG:545:NH2:9900, V-A:ALA:541:CB:4890, V-A:VAL:458:CG2:4085, V-B:ARG:545:CG:9894, V-B:ARG:545:CD:9895, H-B:ARG:545:NH1:9899, H-A:ARG:545:N:4918, V-A:LYS:471:CD:4217, V-A:LYS:471:CG:4216"]

$$$$
1l_Grossjean_2025
     RDKit          3D

 17 17  0  0  0  0  0  0  0  0999 V2000
  124.7230  128.3560   74.2460 C   0  0  0  0  0  0  0  0  0  0  0  0
  126.0320  128.9020   74.1640 O   0  0  0  0  0  0  0  0  0  0  0  0
  126.9260  127.9280   73.7200 N   0  0  0  0  0  0  0  0  0  0  0  0
  128.0510  128.3140   73.0890 C   0  0  0  0  0  0  0  0  0  0  0  0
  128.4630  129.4770   73.0740 O   0  0  0  0  0  0  0  0  0  0  0  0
  128.8220  127.1880   72.3850 C   0  0  0  0  0  0  0  0  0  0  0  0
  130.6210  127.1720   72.6960 S   0  0  0  0  0  0  0  0  0  0  0  0
  131.0640  125.5570   73.3110 C   0  0  0  0  0  0  0  0  0  0  0  0
  130.1690  124.5650   73.0650 N   0  0  0  0  0  0  0  0  0  0  0  0
  130.4420  123.3140   73.5050 C   0  0  0  0  0  0  0  0  0  0  0  0
  129.3960  122.2620   73.1910 C   0  0  0  0  0  0  0  0  0  0  0  0
  131.6070  123.0000   74.2010 C   0  0  0  0  0  0  0  0  0  0  0  0
  132.5370  124.0120   74.4600 C   0  0  0  0  0  0  0  0  0  0  0  0
  133.8080  123.6440   75.2240 C   0  0  0  0  0  0  0  0  0  0  0  0
  132.2720  125.3240   74.0100 C   0  0  0  0  0  0  0  0  0  0  0  0
  133.2290  126.4050   74.2680 C   0  0  0  0  0  0  0  0  0  0  0  0
  133.9850  127.2560   74.4710 N   0  0  0  0  0  0  0  0  0  0  0  0
  1  2  1  0
  2  3  1  0
  3  4  1  0
  4  5  2  0
  4  6  1  0
  6  7  1  0
  7  8  1  0
  8  9  2  0
  9 10  1  0
 10 11  1  0
 10 12  2  0
 12 13  1  0
 13 14  1  0
 13 15  2  0
 15 16  1  0
 16 17  3  0
 15  8  1  0
M  END
>  <Binding energies>  (12) 
[-6.8]

>  <Ligand effiencies>  (12) 
[-0.37777777777777777]

>  <Interactions>  (12) 
["H-B:GLY:544:O:9885, V-A:HIS:456:CD2:4066, H-A:LYS:547:NZ:4949, V-B:GLY:544:C:9884, V-B:HIS:456:CD2:9040, H-B:LYS:547:NZ:9923, V-A:LYS:547:CE:4948, V-A:HIS:456:CG:4064, V-A:HIS:456:CB:4063, V-B:LYS:547:CE:9922, V-A:LYS:547:CD:4947, V-A:HIS:456:C:4059, V-A:LYS:471:CE:4218, V-A:ASP:473:CG:4238, V-B:LYS:547:CD:9921, V-A:VAL:458:CG2:4085, V-B:HIS:456:CB:9037, V-A:LYS:471:CD:4217, V-A:LYS:471:CG:4216, V-B:VAL:458:CG2:9059, V-B:HIS:456:C:9033, V-B:HIS:456:CA:9035"]

$$$$
1m_Grossjean_2025
     RDKit          3D

 20 20  0  0  0  0  0  0  0  0999 V2000
  126.3830  129.1290   65.4130 C   0  0  0  0  0  0  0  0  0  0  0  0
  127.4280  129.0650   66.3730 O   0  0  0  0  0  0  0  0  0  0  0  0
  127.5170  128.0190   67.2200 C   0  0  0  0  0  0  0  0  0  0  0  0
  126.6050  127.2300   67.4850 O   0  0  0  0  0  0  0  0  0  0  0  0
  128.9290  127.9050   67.8320 C   0  0  0  0  0  0  0  0  0  0  0  0
  128.9360  127.1980   69.1210 N   0  0  0  0  0  0  0  0  0  0  0  0
  129.9840  127.1110   69.9630 C   0  0  0  0  0  0  0  0  0  0  0  0
  131.0820  127.6170   69.7240 O   0  0  0  0  0  0  0  0  0  0  0  0
  129.7290  126.3240   71.2560 C   0  0  0  0  0  0  0  0  0  0  0  0
  130.7520  126.8400   72.6770 S   0  0  0  0  0  0  0  0  0  0  0  0
  131.3790  125.3730   73.4660 C   0  0  0  0  0  0  0  0  0  0  0  0
  130.5140  124.3270   73.4310 N   0  0  0  0  0  0  0  0  0  0  0  0
  130.8870  123.1550   73.9960 C   0  0  0  0  0  0  0  0  0  0  0  0
  129.8770  122.0270   73.9020 C   0  0  0  0  0  0  0  0  0  0  0  0
  132.1190  122.9800   74.6230 C   0  0  0  0  0  0  0  0  0  0  0  0
  133.0070  124.0590   74.6870 C   0  0  0  0  0  0  0  0  0  0  0  0
  134.3450  123.8480   75.3930 C   0  0  0  0  0  0  0  0  0  0  0  0
  132.6400  125.2930   74.1050 C   0  0  0  0  0  0  0  0  0  0  0  0
  133.5340  126.4490   74.2050 C   0  0  0  0  0  0  0  0  0  0  0  0
  134.2410  127.3620   74.2830 N   0  0  0  0  0  0  0  0  0  0  0  0
  1  2  1  0
  2  3  1  0
  3  4  2  0
  3  5  1  0
  5  6  1  0
  6  7  1  0
  7  8  2  0
  7  9  1  0
  9 10  1  0
 10 11  1  0
 11 12  2  0
 12 13  1  0
 13 14  1  0
 13 15  2  0
 15 16  1  0
 16 17  1  0
 16 18  2  0
 18 19  1  0
 19 20  3  0
 18 11  1  0
M  END
>  <Binding energies>  (13) 
[-6.52]

>  <Ligand effiencies>  (13) 
[-0.31047619047619046]

>  <Interactions>  (13) 
["V-B:ARG:545:CZ:9898, V-A:HIS:456:CE1:4068, V-A:HIS:456:CD2:4066, V-B:GLU:543:CD:9880, V-A:GLU:543:CD:4906, V-B:HIS:456:CE1:9042, V-A:GLY:544:C:4910, H-B:GLU:543:O:9875, H-B:ARG:545:NE:9896, V-A:GLU:543:CB:4904, V-B:GLU:543:CG:9879, V-A:GLU:543:CG:4905, H-B:LYS:547:NZ:9923, V-B:GLU:543:C:9874, V-A:HIS:456:CG:4064, V-A:HIS:456:CB:4063, V-B:LYS:547:CE:9922, V-A:LYS:547:CD:4947, V-A:HIS:456:C:4059, V-A:LYS:547:CG:4946, V-A:LYS:471:CE:4218, V-A:ASP:473:CG:4238, V-A:VAL:457:C:4071, V-A:VAL:458:CG2:4085, V-B:ARG:545:CG:9894, H-A:HIS:456:ND1:4065, H-A:ARG:545:N:4918, V-A:LYS:471:CD:4217, V-A:LYS:471:CG:4216"]

$$$$
1n_Grossjean_2025
     RDKit          3D

 27 28  0  0  0  0  0  0  0  0999 V2000
  130.9790  125.9350   72.9130 C   0  0  0  0  0  0  0  0  0  0  0  0
  129.5390  125.8040   72.4070 C   0  0  0  0  0  0  0  0  0  0  0  0
  128.8100  126.9770   72.7500 O   0  0  0  0  0  0  0  0  0  0  0  0
  128.8250  128.0720   71.9470 C   0  0  0  0  0  0  0  0  0  0  0  0
  128.6430  129.2210   72.3600 O   0  0  0  0  0  0  0  0  0  0  0  0
  129.0990  127.7470   70.5060 C   0  0  0  0  0  0  0  0  0  0  0  0
  130.4040  127.5930   70.0150 C   0  0  0  0  0  0  0  0  0  0  0  0
  130.6230  127.2950   68.6730 C   0  0  0  0  0  0  0  0  0  0  0  0
  129.5480  127.1520   67.7950 C   0  0  0  0  0  0  0  0  0  0  0  0
  129.8840  126.8550   66.4600 N   0  0  0  0  0  0  0  0  0  0  0  0
  130.3570  125.7100   65.9220 C   0  0  0  0  0  0  0  0  0  0  0  0
  130.5800  124.6700   66.5410 O   0  0  0  0  0  0  0  0  0  0  0  0
  130.6210  125.7470   64.4110 C   0  0  0  0  0  0  0  0  0  0  0  0
  132.0890  126.0710   64.0610 C   0  0  0  0  0  0  0  0  0  0  0  0
  133.1890  124.6240   64.0120 S   0  0  0  0  0  0  0  0  0  0  0  0
  132.8100  123.7080   62.5340 C   0  0  0  0  0  0  0  0  0  0  0  0
  133.5710  124.0590   61.4670 N   0  0  0  0  0  0  0  0  0  0  0  0
  133.3810  123.4150   60.2920 C   0  0  0  0  0  0  0  0  0  0  0  0
  134.2750  123.8520   59.1480 C   0  0  0  0  0  0  0  0  0  0  0  0
  132.4300  122.4090   60.1310 C   0  0  0  0  0  0  0  0  0  0  0  0
  131.6260  122.0540   61.2200 C   0  0  0  0  0  0  0  0  0  0  0  0
  130.5810  120.9590   61.0160 C   0  0  0  0  0  0  0  0  0  0  0  0
  131.8030  122.7170   62.4560 C   0  0  0  0  0  0  0  0  0  0  0  0
  130.9380  122.3980   63.5930 C   0  0  0  0  0  0  0  0  0  0  0  0
  130.2530  122.1440   64.4900 N   0  0  0  0  0  0  0  0  0  0  0  0
  128.2400  127.2930   68.2810 C   0  0  0  0  0  0  0  0  0  0  0  0
  128.0230  127.5880   69.6240 C   0  0  0  0  0  0  0  0  0  0  0  0
  1  2  1  0
  2  3  1  0
  3  4  1  0
  4  5  2  0
  4  6  1  0
  6  7  2  0
  7  8  1  0
  8  9  2  0
  9 10  1  0
 10 11  1  0
 11 12  2  0
 11 13  1  0
 13 14  1  0
 14 15  1  0
 15 16  1  0
 16 17  2  0
 17 18  1  0
 18 19  1  0
 18 20  2  0
 20 21  1  0
 21 22  1  0
 21 23  2  0
 23 24  1  0
 24 25  3  0
  9 26  1  0
 26 27  2  0
 27  6  1  0
 23 16  1  0
M  END
>  <Binding energies>  (14) 
[-7.68]

>  <Ligand effiencies>  (14) 
[-0.2742857142857143]

>  <Interactions>  (14) 
["V-B:GLU:543:CB:9878, V-A:HIS:456:CE1:4068, V-A:HIS:456:CD2:4066, V-B:GLU:543:CD:9880, V-A:GLU:543:CD:4906, V-B:HIS:456:CE1:9042, V-A:GLY:544:CA:4912, H-A:LYS:547:NZ:4949, V-B:GLY:544:C:9884, V-A:GLY:544:C:4910, V-B:HIS:456:CD2:9040, V-B:GLU:543:CG:9879, V-A:GLU:543:CG:4905, H-A:GLY:454:N:4048, H-B:LYS:547:NZ:9923, V-B:GLU:543:C:9874, V-A:ARG:545:CZ:4924, V-A:ARG:545:CG:4920, H-A:TYR:484:OH:4346, V-A:ARG:545:CD:4921, V-A:HIS:456:CG:4064, V-A:TYR:484:CZ:4345, V-B:LYS:547:CE:9922, V-B:GLY:544:CA:9886, V-A:GLU:543:C:4900, V-A:ILE:369:CD1:3237, V-A:LEU:475:CD2:4257, V-A:ASP:366:CG:3211, V-B:ALA:541:CB:9864, V-B:TYR:539:CD2:9846, V-B:TYR:539:CE2:9848, V-A:ILE:369:CG2:3235, V-A:ASP:366:CA:3208, V-A:ASP:366:CB:3210, V-A:ILE:369:CG1:3236, V-A:ILE:369:CB:3234, H-A:GLU:543:OE2:4908, H-A:GLU:543:OE1:4907, V-A:TYR:484:CE1:4343, H-B:GLU:543:OE2:9882"]

$$$$
1q_Grossjean_2025
     RDKit          3D

 21 21  0  0  0  0  0  0  0  0999 V2000
  130.4240  125.9510   65.9620 C   0  0  0  0  0  0  0  0  0  0  0  0
  131.3260  126.8830   66.5400 O   0  0  0  0  0  0  0  0  0  0  0  0
  130.9930  127.5550   67.6680 C   0  0  0  0  0  0  0  0  0  0  0  0
  131.7410  128.2960   68.3080 O   0  0  0  0  0  0  0  0  0  0  0  0
  129.5480  127.3000   68.1480 C   0  0  0  0  0  0  0  0  0  0  0  0
  129.3300  127.6930   69.5490 N   0  0  0  0  0  0  0  0  0  0  0  0
  128.1760  127.5700   70.2320 C   0  0  0  0  0  0  0  0  0  0  0  0
  127.1490  127.0970   69.7420 O   0  0  0  0  0  0  0  0  0  0  0  0
  128.2070  128.0420   71.6930 C   0  0  0  0  0  0  0  0  0  0  0  0
  128.8530  127.0400   72.6700 C   0  0  0  0  0  0  0  0  0  0  0  0
  130.6540  126.8930   72.4760 S   0  0  0  0  0  0  0  0  0  0  0  0
  131.1950  125.4100   73.3020 C   0  0  0  0  0  0  0  0  0  0  0  0
  130.3370  124.3680   73.1550 N   0  0  0  0  0  0  0  0  0  0  0  0
  130.6390  123.1860   73.7410 C   0  0  0  0  0  0  0  0  0  0  0  0
  129.6240  122.0750   73.5460 C   0  0  0  0  0  0  0  0  0  0  0  0
  131.8030  122.9900   74.4820 C   0  0  0  0  0  0  0  0  0  0  0  0
  132.7060  124.0490   74.6180 C   0  0  0  0  0  0  0  0  0  0  0  0
  133.9840  123.8030   75.4200 C   0  0  0  0  0  0  0  0  0  0  0  0
  132.4140  125.2920   74.0140 C   0  0  0  0  0  0  0  0  0  0  0  0
  133.3750  126.3930   74.0990 C   0  0  0  0  0  0  0  0  0  0  0  0
  134.1370  127.2610   74.1680 N   0  0  0  0  0  0  0  0  0  0  0  0
  1  2  1  0
  2  3  1  0
  3  4  2  0
  3  5  1  0
  5  6  1  0
  6  7  1  0
  7  8  2  0
  7  9  1  0
  9 10  1  0
 10 11  1  0
 11 12  1  0
 12 13  2  0
 13 14  1  0
 14 15  1  0
 14 16  2  0
 16 17  1  0
 17 18  1  0
 17 19  2  0
 19 20  1  0
 20 21  3  0
 19 12  1  0
M  END
>  <Binding energies>  (15) 
[-6.65]

>  <Ligand effiencies>  (15) 
[-0.3022727272727273]

>  <Interactions>  (15) 
["V-B:GLU:543:CB:9878, V-A:HIS:456:CE1:4068, V-A:HIS:456:CD2:4066, V-B:GLU:543:CD:9880, V-A:GLU:543:CD:4906, V-B:HIS:456:CE1:9042, V-B:GLY:544:C:9884, V-B:HIS:456:CD2:9040, V-B:GLU:543:CG:9879, V-A:GLU:543:CG:4905, H-B:LYS:547:NZ:9923, V-A:ARG:545:CG:4920, V-A:HIS:456:CG:4064, V-A:HIS:456:CB:4063, V-B:LYS:547:CE:9922, H-A:ARG:545:NE:4922, V-A:GLU:543:C:4900, V-A:LYS:547:CD:4947, V-A:HIS:456:C:4059, V-A:LYS:471:CE:4218, V-A:ASP:473:CG:4238, H-A:GLY:544:O:4911, V-A:VAL:458:CG2:4085, H-A:GLU:543:O:4901, H-B:ARG:545:N:9892, H-A:ARG:545:N:4918, H-A:GLY:544:N:4913, V-A:LYS:471:CD:4217, V-A:LYS:471:CG:4216"]

$$$$
2a_Grossjean_2025
     RDKit          3D

 29 30  0  0  0  0  0  0  0  0999 V2000
  130.7670  126.1190   72.8550 C   0  0  0  0  0  0  0  0  0  0  0  0
  129.3710  125.7620   72.3370 C   0  0  0  0  0  0  0  0  0  0  0  0
  128.5050  126.8770   72.5130 O   0  0  0  0  0  0  0  0  0  0  0  0
  128.6160  127.9810   71.7290 C   0  0  0  0  0  0  0  0  0  0  0  0
  128.4100  129.1280   72.1360 O   0  0  0  0  0  0  0  0  0  0  0  0
  129.0360  127.6660   70.3220 C   0  0  0  0  0  0  0  0  0  0  0  0
  130.3870  127.6080   69.9470 C   0  0  0  0  0  0  0  0  0  0  0  0
  130.7430  127.3150   68.6340 C   0  0  0  0  0  0  0  0  0  0  0  0
  129.7620  127.0820   67.6690 C   0  0  0  0  0  0  0  0  0  0  0  0
  130.2360  126.8100   66.3730 N   0  0  0  0  0  0  0  0  0  0  0  0
  130.6120  125.6390   65.8140 C   0  0  0  0  0  0  0  0  0  0  0  0
  130.6290  124.5480   66.3840 O   0  0  0  0  0  0  0  0  0  0  0  0
  131.0500  125.7180   64.3470 C   0  0  0  0  0  0  0  0  0  0  0  0
  132.6560  124.9150   64.0300 S   0  0  0  0  0  0  0  0  0  0  0  0
  132.5390  123.8850   62.5710 C   0  0  0  0  0  0  0  0  0  0  0  0
  133.4010  124.1870   61.5670 N   0  0  0  0  0  0  0  0  0  0  0  0
  133.3600  123.4580   60.4290 C   0  0  0  0  0  0  0  0  0  0  0  0
  134.3350  123.8720   59.3430 C   0  0  0  0  0  0  0  0  0  0  0  0
  132.4730  122.4010   60.2460 C   0  0  0  0  0  0  0  0  0  0  0  0
  131.5790  122.0650   61.2750 C   0  0  0  0  0  0  0  0  0  0  0  0
  130.6050  120.8920   61.0570 C   0  0  0  0  0  0  0  0  0  0  0  0
  131.0360  120.1170   60.0620 F   0  0  0  0  0  0  0  0  0  0  0  0
  130.5160  120.1620   62.1690 F   0  0  0  0  0  0  0  0  0  0  0  0
  129.3710  121.2980   60.7440 F   0  0  0  0  0  0  0  0  0  0  0  0
  131.6090  122.8250   62.4720 C   0  0  0  0  0  0  0  0  0  0  0  0
  130.6940  122.5200   63.5770 C   0  0  0  0  0  0  0  0  0  0  0  0
  129.9730  122.2790   64.4490 N   0  0  0  0  0  0  0  0  0  0  0  0
  128.4100  127.1300   68.0380 C   0  0  0  0  0  0  0  0  0  0  0  0
  128.0550  127.4190   69.3530 C   0  0  0  0  0  0  0  0  0  0  0  0
  1  2  1  0
  2  3  1  0
  3  4  1  0
  4  5  2  0
  4  6  1  0
  6  7  2  0
  7  8  1  0
  8  9  2  0
  9 10  1  0
 10 11  1  0
 11 12  2  0
 11 13  1  0
 13 14  1  0
 14 15  1  0
 15 16  2  0
 16 17  1  0
 17 18  1  0
 17 19  2  0
 19 20  1  0
 20 21  1  0
 21 22  1  0
 21 23  1  0
 21 24  1  0
 20 25  2  0
 25 26  1  0
 26 27  3  0
  9 28  1  0
 28 29  2  0
 29  6  1  0
 25 15  1  0
M  END
>  <Binding energies>  (16) 
[-7.45]

>  <Ligand effiencies>  (16) 
[-0.24833333333333335]

>  <Interactions>  (16) 
["V-B:GLU:543:CB:9878, V-A:HIS:456:CE1:4068, V-A:HIS:456:CD2:4066, V-B:GLU:543:CD:9880, V-A:GLU:543:CD:4906, V-B:HIS:456:CE1:9042, V-A:GLY:544:CA:4912, H-A:LYS:547:NZ:4949, V-B:GLY:544:C:9884, V-A:GLY:544:C:4910, V-B:HIS:456:CD2:9040, V-B:GLU:543:CG:9879, V-A:GLU:543:CG:4905, H-B:LYS:547:NZ:9923, V-B:GLU:543:C:9874, V-A:ARG:545:CG:4920, H-A:TYR:484:OH:4346, V-A:HIS:456:CG:4064, V-B:LYS:547:CE:9922, V-B:GLY:544:CA:9886, H-A:ARG:545:NE:4922, V-A:GLU:543:C:4900, V-A:TRP:381:CZ2:3368, V-A:ILE:369:CD1:3237, V-A:LEU:475:CD2:4257, V-A:TRP:381:CH2:3370, V-B:TYR:539:C:9839, V-B:ALA:541:CA:9862, V-A:ASP:366:CG:3211, V-B:ALA:541:CB:9864, V-B:TYR:539:CD2:9846, V-B:TYR:539:CE2:9848, V-A:ILE:369:CG2:3235, V-A:ASP:366:CA:3208, V-A:ASP:366:CB:3210, V-A:ILE:369:CG1:3236, V-A:ILE:369:CB:3234, V-A:TRP:381:CZ3:3369, V-A:PRO:482:CB:4324, H-A:GLU:543:OE2:4908, H-A:GLU:543:OE1:4907, V-A:TYR:484:CE1:4343, H-B:GLU:543:OE2:9882, V-A:LEU:475:CD1:4256, V-A:LEU:475:CG:4255"]

$$$$
2b_Grossjean_2025
     RDKit          3D

 28 29  0  0  0  0  0  0  0  0999 V2000
  126.4490  128.4060   73.9780 C   0  0  0  0  0  0  0  0  0  0  0  0
  127.8080  128.2000   73.6170 O   0  0  0  0  0  0  0  0  0  0  0  0
  128.4200  129.0040   72.7100 C   0  0  0  0  0  0  0  0  0  0  0  0
  128.6570  130.1990   72.9110 O   0  0  0  0  0  0  0  0  0  0  0  0
  128.7760  128.2950   71.4360 C   0  0  0  0  0  0  0  0  0  0  0  0
  127.8140  127.9930   70.4610 C   0  0  0  0  0  0  0  0  0  0  0  0
  128.1770  127.3330   69.2900 C   0  0  0  0  0  0  0  0  0  0  0  0
  129.5050  126.9690   69.0660 C   0  0  0  0  0  0  0  0  0  0  0  0
  129.7610  126.3010   67.8530 N   0  0  0  0  0  0  0  0  0  0  0  0
  130.6060  126.6260   66.8520 C   0  0  0  0  0  0  0  0  0  0  0  0
  131.3170  127.6320   66.8180 O   0  0  0  0  0  0  0  0  0  0  0  0
  130.6350  125.6440   65.6770 C   0  0  0  0  0  0  0  0  0  0  0  0
  132.2870  125.4730   64.9260 S   0  0  0  0  0  0  0  0  0  0  0  0
  132.1610  124.6170   63.3610 C   0  0  0  0  0  0  0  0  0  0  0  0
  133.0300  123.5910   63.1790 N   0  0  0  0  0  0  0  0  0  0  0  0
  132.9940  122.9030   62.0160 C   0  0  0  0  0  0  0  0  0  0  0  0
  134.0060  121.7800   61.8860 C   0  0  0  0  0  0  0  0  0  0  0  0
  132.0940  123.1970   60.9960 C   0  0  0  0  0  0  0  0  0  0  0  0
  131.1810  124.2500   61.1650 C   0  0  0  0  0  0  0  0  0  0  0  0
  130.1890  124.5600   60.0290 C   0  0  0  0  0  0  0  0  0  0  0  0
  130.3770  123.7140   59.0150 F   0  0  0  0  0  0  0  0  0  0  0  0
  128.9350  124.4350   60.4680 F   0  0  0  0  0  0  0  0  0  0  0  0
  130.3230  125.7980   59.5490 F   0  0  0  0  0  0  0  0  0  0  0  0
  131.2120  124.9850   62.3780 C   0  0  0  0  0  0  0  0  0  0  0  0
  130.2850  126.0980   62.6060 C   0  0  0  0  0  0  0  0  0  0  0  0
  129.5530  126.9760   62.7860 N   0  0  0  0  0  0  0  0  0  0  0  0
  130.4720  127.2610   70.0390 C   0  0  0  0  0  0  0  0  0  0  0  0
  130.1070  127.9190   71.2100 C   0  0  0  0  0  0  0  0  0  0  0  0
  1  2  1  0
  2  3  1  0
  3  4  2  0
  3  5  1  0
  5  6  2  0
  6  7  1  0
  7  8  2  0
  8  9  1  0
  9 10  1  0
 10 11  2  0
 10 12  1  0
 12 13  1  0
 13 14  1  0
 14 15  2  0
 15 16  1  0
 16 17  1  0
 16 18  2  0
 18 19  1  0
 19 20  1  0
 20 21  1  0
 20 22  1  0
 20 23  1  0
 19 24  2  0
 24 25  1  0
 25 26  3  0
  8 27  1  0
 27 28  2  0
 28  5  1  0
 24 14  1  0
M  END
>  <Binding energies>  (17) 
[-6.89]

>  <Ligand effiencies>  (17) 
[-0.23758620689655172]

>  <Interactions>  (17) 
["V-B:GLU:543:CB:9878, V-A:HIS:456:CE1:4068, V-A:HIS:456:CD2:4066, V-B:GLU:543:CD:9880, H-A:HIS:456:NE2:4069, V-A:GLU:543:CD:4906, V-B:HIS:456:CE1:9042, V-A:GLY:544:CA:4912, H-A:LYS:547:NZ:4949, V-B:GLY:544:C:9884, V-A:GLY:544:C:4910, H-B:GLU:543:O:9875, V-B:HIS:456:CD2:9040, V-B:GLU:543:CG:9879, V-A:GLU:543:CG:4905, H-A:GLY:454:N:4048, V-B:GLU:543:C:9874, V-A:ARG:545:CG:4920, V-A:LYS:547:CE:4948, H-A:TYR:484:OH:4346, V-B:LYS:547:CE:9922, H-A:ARG:545:NE:4922, V-A:GLU:543:C:4900, V-A:ILE:369:CD1:3237, V-A:LEU:475:CD2:4257, V-A:GLY:454:CA:4047, V-B:TYR:539:CD2:9846, V-B:TYR:539:CE2:9848, V-B:HIS:456:CG:9038, V-B:HIS:456:CB:9037"]

$$$$
2c_Grossjean_2025
     RDKit          3D

 26 27  0  0  0  0  0  0  0  0999 V2000
  128.4310  128.3560   72.3110 C   0  0  0  0  0  0  0  0  0  0  0  0
  127.7160  127.7250   71.2540 O   0  0  0  0  0  0  0  0  0  0  0  0
  128.3510  127.5070   70.0470 C   0  0  0  0  0  0  0  0  0  0  0  0
  129.7450  127.4720   70.0740 C   0  0  0  0  0  0  0  0  0  0  0  0
  130.4750  127.2590   68.9080 C   0  0  0  0  0  0  0  0  0  0  0  0
  129.8070  127.0870   67.6870 C   0  0  0  0  0  0  0  0  0  0  0  0
  130.4560  126.8490   66.4610 N   0  0  0  0  0  0  0  0  0  0  0  0
  130.7350  125.6660   65.8720 C   0  0  0  0  0  0  0  0  0  0  0  0
  130.4980  124.5630   66.3670 O   0  0  0  0  0  0  0  0  0  0  0  0
  131.4290  125.7730   64.5060 C   0  0  0  0  0  0  0  0  0  0  0  0
  132.8450  124.6460   64.2550 S   0  0  0  0  0  0  0  0  0  0  0  0
  132.6280  123.7500   62.7220 C   0  0  0  0  0  0  0  0  0  0  0  0
  133.4920  124.0720   61.7250 N   0  0  0  0  0  0  0  0  0  0  0  0
  133.3810  123.4410   60.5360 C   0  0  0  0  0  0  0  0  0  0  0  0
  134.3710  123.8680   59.4700 C   0  0  0  0  0  0  0  0  0  0  0  0
  132.4180  122.4640   60.2900 C   0  0  0  0  0  0  0  0  0  0  0  0
  131.5200  122.1100   61.3070 C   0  0  0  0  0  0  0  0  0  0  0  0
  130.4630  121.0260   61.0210 C   0  0  0  0  0  0  0  0  0  0  0  0
  130.8280  120.3010   59.9630 F   0  0  0  0  0  0  0  0  0  0  0  0
  130.3350  120.2210   62.0760 F   0  0  0  0  0  0  0  0  0  0  0  0
  129.2580  121.5390   60.7590 F   0  0  0  0  0  0  0  0  0  0  0  0
  131.6220  122.7680   62.5590 C   0  0  0  0  0  0  0  0  0  0  0  0
  130.7080  122.4390   63.6580 C   0  0  0  0  0  0  0  0  0  0  0  0
  129.9860  122.1790   64.5250 N   0  0  0  0  0  0  0  0  0  0  0  0
  128.4110  127.1050   67.6560 C   0  0  0  0  0  0  0  0  0  0  0  0
  127.6860  127.3170   68.8250 C   0  0  0  0  0  0  0  0  0  0  0  0
  1  2  1  0
  2  3  1  0
  3  4  2  0
  4  5  1  0
  5  6  2  0
  6  7  1  0
  7  8  1  0
  8  9  2  0
  8 10  1  0
 10 11  1  0
 11 12  1  0
 12 13  2  0
 13 14  1  0
 14 15  1  0
 14 16  2  0
 16 17  1  0
 17 18  1  0
 18 19  1  0
 18 20  1  0
 18 21  1  0
 17 22  2  0
 22 23  1  0
 23 24  3  0
  6 25  1  0
 25 26  2  0
 26  3  1  0
 22 12  1  0
M  END
>  <Binding energies>  (18) 
[-6.85]

>  <Ligand effiencies>  (18) 
[-0.2537037037037037]

>  <Interactions>  (18) 
["V-B:GLU:543:CB:9878, V-A:HIS:456:CE1:4068, V-B:GLU:543:CD:9880, V-A:GLU:543:CD:4906, V-B:HIS:456:CE1:9042, V-B:GLY:544:C:9884, V-A:GLY:544:C:4910, V-B:HIS:456:CD2:9040, V-B:GLU:543:CG:9879, V-A:GLU:543:CG:4905, H-A:GLY:454:N:4048, V-B:GLU:543:C:9874, V-A:ARG:545:CZ:4924, H-A:TYR:484:OH:4346, V-A:TYR:484:CZ:4345, V-A:GLU:543:C:4900, V-B:PRO:540:C:9853, V-A:ILE:369:CD1:3237, V-A:LEU:475:CD2:4257, V-A:TRP:381:CH2:3370, V-B:ALA:541:CA:9862, V-A:ASP:366:CG:3211, V-B:ALA:541:CB:9864, V-B:TYR:539:CD2:9846, V-B:TYR:539:CE2:9848, V-A:ILE:369:CG2:3235, V-A:ASP:366:CA:3208, V-A:ASP:366:CB:3210, V-A:ILE:369:CG1:3236, V-A:ILE:369:CB:3234, V-A:PRO:482:CB:4324, H-A:GLU:543:OE2:4908, H-A:GLU:543:OE1:4907, V-A:TYR:484:CE1:4343, V-A:LEU:475:CD1:4256, V-A:LEU:475:CG:4255"]

$$$$
2d_Ghoteimi_2023
     RDKit          3D

 38 42  0  0  0  0  0  0  0  0999 V2000
  128.1230  132.7190   61.0450 C   0  0  0  0  0  0  0  0  0  0  0  0
  127.2330  133.6070   61.7060 O   0  0  0  0  0  0  0  0  0  0  0  0
  126.6640  133.2600   62.8780 C   0  0  0  0  0  0  0  0  0  0  0  0
  127.2480  133.1790   63.9630 O   0  0  0  0  0  0  0  0  0  0  0  0
  125.1640  132.9760   62.7080 C   0  0  0  0  0  0  0  0  0  0  0  0
  124.6290  131.5880   63.7660 S   0  0  0  0  0  0  0  0  0  0  0  0
  125.8970  130.3380   63.7340 C   0  0  0  0  0  0  0  0  0  0  0  0
  126.2260  129.8770   64.9660 N   0  0  0  0  0  0  0  0  0  0  0  0
  127.1840  128.9250   65.0920 C   0  0  0  0  0  0  0  0  0  0  0  0
  127.5050  128.4790   66.4820 C   0  0  0  0  0  0  0  0  0  0  0  0
  126.5560  127.7920   67.2470 C   0  0  0  0  0  0  0  0  0  0  0  0
  126.8480  127.3740   68.5420 C   0  0  0  0  0  0  0  0  0  0  0  0
  128.1050  127.6180   69.1160 C   0  0  0  0  0  0  0  0  0  0  0  0
  128.4080  127.2210   70.4230 N   0  0  0  0  0  0  0  0  0  0  0  0
  129.7120  126.6170   70.7640 C   0  0  0  0  0  0  0  0  0  0  0  0
  129.7270  125.9120   72.1360 C   0  0  0  0  0  0  0  0  0  0  0  0
  129.3090  126.8130   73.1480 O   0  0  0  0  0  0  0  0  0  0  0  0
  127.9910  127.2830   72.9160 C   0  0  0  0  0  0  0  0  0  0  0  0
  127.9220  128.0230   71.5640 C   0  0  0  0  0  0  0  0  0  0  0  0
  129.0480  128.3190   68.3510 C   0  0  0  0  0  0  0  0  0  0  0  0
  128.7550  128.7400   67.0570 C   0  0  0  0  0  0  0  0  0  0  0  0
  127.8380  128.4070   63.9710 C   0  0  0  0  0  0  0  0  0  0  0  0
  127.4940  128.8420   62.6850 C   0  0  0  0  0  0  0  0  0  0  0  0
  128.2140  128.2230   61.5320 C   0  0  0  0  0  0  0  0  0  0  0  0
  129.4960  128.6570   61.1910 C   0  0  0  0  0  0  0  0  0  0  0  0
  130.1810  128.0790   60.1260 C   0  0  0  0  0  0  0  0  0  0  0  0
  129.6000  127.0500   59.3680 C   0  0  0  0  0  0  0  0  0  0  0  0
  130.2740  126.4460   58.3030 N   0  0  0  0  0  0  0  0  0  0  0  0
  129.8060  125.1750   57.7170 C   0  0  0  0  0  0  0  0  0  0  0  0
  130.4450  124.8560   56.3480 C   0  0  0  0  0  0  0  0  0  0  0  0
  131.8600  124.8730   56.4570 O   0  0  0  0  0  0  0  0  0  0  0  0
  132.3370  126.1400   56.8820 C   0  0  0  0  0  0  0  0  0  0  0  0
  131.7490  126.4900   58.2660 C   0  0  0  0  0  0  0  0  0  0  0  0
  128.3190  126.6090   59.7290 C   0  0  0  0  0  0  0  0  0  0  0  0
  127.6350  127.1860   60.7940 C   0  0  0  0  0  0  0  0  0  0  0  0
  126.4900  129.8330   62.5540 C   0  0  0  0  0  0  0  0  0  0  0  0
  126.0810  130.3070   61.2280 C   0  0  0  0  0  0  0  0  0  0  0  0
  125.7610  130.6780   60.1780 N   0  0  0  0  0  0  0  0  0  0  0  0
  1  2  1  0
  2  3  1  0
  3  4  2  0
  3  5  1  0
  5  6  1  0
  6  7  1  0
  7  8  2  0
  8  9  1  0
  9 10  1  0
 10 11  2  0
 11 12  1  0
 12 13  2  0
 13 14  1  0
 14 15  1  0
 15 16  1  0
 16 17  1  0
 17 18  1  0
 18 19  1  0
 13 20  1  0
 20 21  2  0
  9 22  2  0
 22 23  1  0
 23 24  1  0
 24 25  2  0
 25 26  1  0
 26 27  2  0
 27 28  1  0
 28 29  1  0
 29 30  1  0
 30 31  1  0
 31 32  1  0
 32 33  1  0
 27 34  1  0
 34 35  2  0
 23 36  2  0
 36 37  1  0
 37 38  3  0
 36  7  1  0
 21 10  1  0
 35 24  1  0
 19 14  1  0
 33 28  1  0
M  END
>  <Binding energies>  (19) 
[-3.94]

>  <Ligand effiencies>  (19) 
[-0.10368421052631578]

>  <Interactions>  (19) 
["V-A:HIS:456:CE1:4068, V-A:HIS:456:CD2:4066, V-B:GLU:543:CD:9880, H-B:TYR:484:OH:9320, V-A:GLU:543:CD:4906, H-B:GLY:454:N:9022, V-B:HIS:456:CE1:9042, H-A:LYS:547:NZ:4949, V-B:GLY:544:C:9884, V-B:HIS:456:CD2:9040, V-A:GLU:543:CB:4904, V-B:GLU:543:CG:9879, V-A:GLU:543:CG:4905, H-B:LYS:547:NZ:9923, V-B:GLU:543:C:9874, V-B:LYS:547:CE:9922, V-B:GLY:544:CA:9886, V-A:GLU:543:C:4900, V-B:TYR:539:CZ:9849, V-A:ASP:366:CG:3211, V-B:TYR:539:CE1:9847, V-B:TYR:539:CE2:9848, V-A:ASP:366:CB:3210, V-B:LEU:475:CD2:9231, V-A:TYR:531:CZ:4792, V-A:ALA:541:CB:4890, H-B:TYR:539:OH:9850, V-B:HIS:456:CG:9038, V-A:TYR:531:CE1:4790, V-B:ARG:545:CG:9894, V-B:ARG:545:CD:9895, V-B:ARG:545:CA:9891"]

$$$$
2d_Grossjean_2025
     RDKit          3D

 24 25  0  0  0  0  0  0  0  0999 V2000
  129.2290  126.4850   62.1400 C   0  0  0  0  0  0  0  0  0  0  0  0
  130.2570  125.8400   61.2290 C   0  0  0  0  0  0  0  0  0  0  0  0
  131.4170  125.2590   61.7360 C   0  0  0  0  0  0  0  0  0  0  0  0
  132.3350  124.6710   60.8530 C   0  0  0  0  0  0  0  0  0  0  0  0
  133.6080  124.0230   61.4330 C   0  0  0  0  0  0  0  0  0  0  0  0
  133.4340  122.7070   61.5570 F   0  0  0  0  0  0  0  0  0  0  0  0
  134.6440  124.2470   60.6220 F   0  0  0  0  0  0  0  0  0  0  0  0
  133.9300  124.5020   62.6360 F   0  0  0  0  0  0  0  0  0  0  0  0
  132.0520  124.6950   59.4640 C   0  0  0  0  0  0  0  0  0  0  0  0
  132.9560  124.0540   58.5050 C   0  0  0  0  0  0  0  0  0  0  0  0
  133.6690  123.5460   57.7490 N   0  0  0  0  0  0  0  0  0  0  0  0
  130.8610  125.3300   59.0390 C   0  0  0  0  0  0  0  0  0  0  0  0
  130.3660  125.4790   57.3330 S   0  0  0  0  0  0  0  0  0  0  0  0
  129.6950  123.8780   56.7750 C   0  0  0  0  0  0  0  0  0  0  0  0
  128.3210  123.5630   57.3740 C   0  0  0  0  0  0  0  0  0  0  0  0
  127.5430  122.8470   56.7430 O   0  0  0  0  0  0  0  0  0  0  0  0
  128.0580  124.1390   58.5660 N   0  0  0  0  0  0  0  0  0  0  0  0
  126.9020  124.0420   59.3640 C   0  0  0  0  0  0  0  0  0  0  0  0
  125.6850  124.0180   58.6800 C   0  0  0  0  0  0  0  0  0  0  0  0
  124.4860  123.9300   59.3820 C   0  0  0  0  0  0  0  0  0  0  0  0
  124.5050  123.8750   60.7740 C   0  0  0  0  0  0  0  0  0  0  0  0
  125.7110  123.9120   61.4680 C   0  0  0  0  0  0  0  0  0  0  0  0
  126.9110  123.9990   60.7690 C   0  0  0  0  0  0  0  0  0  0  0  0
  129.9740  125.8750   59.9070 N   0  0  0  0  0  0  0  0  0  0  0  0
  1  2  1  0
  2  3  2  0
  3  4  1  0
  4  5  1  0
  5  6  1  0
  5  7  1  0
  5  8  1  0
  4  9  2  0
  9 10  1  0
 10 11  3  0
  9 12  1  0
 12 13  1  0
 13 14  1  0
 14 15  1  0
 15 16  2  0
 15 17  1  0
 17 18  1  0
 18 19  2  0
 19 20  1  0
 20 21  2  0
 21 22  1  0
 22 23  2  0
 12 24  2  0
 24  2  1  0
 23 18  1  0
M  END
>  <Binding energies>  (20) 
[-5.66]

>  <Ligand effiencies>  (20) 
[-0.22640000000000002]

>  <Interactions>  (20) 
["V-B:GLU:543:CD:9880, V-A:ARG:545:CZ:4924, V-B:TYR:539:CZ:9849, V-A:GLY:453:C:4040, V-A:ILE:369:CD1:3237, V-B:PRO:540:CA:9855, V-A:GLY:453:CA:4042, V-A:ASP:366:CG:3211, V-A:GLY:454:CA:4047, V-B:TYR:539:CD2:9846, V-B:TYR:539:CE1:9847, V-B:TYR:539:CE2:9848, V-B:PRO:540:N:9856, V-B:PRO:540:CB:9857, V-A:ASP:366:CA:3208, V-A:ASP:366:CB:3210, V-B:ASN:362:CB:8148, H-B:TYR:539:OH:9850, H-B:TYR:539:N:9842"]

$$$$
2e_Grossjean_2025
     RDKit          3D

 25 26  0  0  0  0  0  0  0  0999 V2000
  129.9790  127.5880   71.4620 C   0  0  0  0  0  0  0  0  0  0  0  0
  129.3950  127.4520   70.0690 C   0  0  0  0  0  0  0  0  0  0  0  0
  128.0210  127.5550   69.8390 C   0  0  0  0  0  0  0  0  0  0  0  0
  127.5560  127.4310   68.5280 C   0  0  0  0  0  0  0  0  0  0  0  0
  128.4660  127.2100   67.4910 C   0  0  0  0  0  0  0  0  0  0  0  0
  129.8290  127.1080   67.7940 C   0  0  0  0  0  0  0  0  0  0  0  0
  130.7030  126.9290   66.7090 N   0  0  0  0  0  0  0  0  0  0  0  0
  131.0050  125.7810   66.0620 C   0  0  0  0  0  0  0  0  0  0  0  0
  130.4860  124.6860   66.2860 O   0  0  0  0  0  0  0  0  0  0  0  0
  132.1120  125.8820   65.0080 C   0  0  0  0  0  0  0  0  0  0  0  0
  132.3030  124.3330   64.0670 S   0  0  0  0  0  0  0  0  0  0  0  0
  132.1930  124.8010   62.3540 C   0  0  0  0  0  0  0  0  0  0  0  0
  131.3770  125.8560   62.1080 N   0  0  0  0  0  0  0  0  0  0  0  0
  131.2000  126.2490   60.8260 C   0  0  0  0  0  0  0  0  0  0  0  0
  130.2760  127.4340   60.6220 C   0  0  0  0  0  0  0  0  0  0  0  0
  131.8170  125.6120   59.7510 C   0  0  0  0  0  0  0  0  0  0  0  0
  132.6570  124.5130   59.9890 C   0  0  0  0  0  0  0  0  0  0  0  0
  133.3140  123.8060   58.7890 C   0  0  0  0  0  0  0  0  0  0  0  0
  133.1430  122.4870   58.8840 F   0  0  0  0  0  0  0  0  0  0  0  0
  132.7640  124.2330   57.6520 F   0  0  0  0  0  0  0  0  0  0  0  0
  134.6270  124.0360   58.7120 F   0  0  0  0  0  0  0  0  0  0  0  0
  132.8560  124.0920   61.3270 C   0  0  0  0  0  0  0  0  0  0  0  0
  133.6980  122.9330   61.6390 C   0  0  0  0  0  0  0  0  0  0  0  0
  134.3620  122.0170   61.8840 N   0  0  0  0  0  0  0  0  0  0  0  0
  130.2910  127.2360   69.0720 N   0  0  0  0  0  0  0  0  0  0  0  0
  1  2  1  0
  2  3  2  0
  3  4  1  0
  4  5  2  0
  5  6  1  0
  6  7  1  0
  7  8  1  0
  8  9  2  0
  8 10  1  0
 10 11  1  0
 11 12  1  0
 12 13  2  0
 13 14  1  0
 14 15  1  0
 14 16  2  0
 16 17  1  0
 17 18  1  0
 18 19  1  0
 18 20  1  0
 18 21  1  0
 17 22  2  0
 22 23  1  0
 23 24  3  0
  6 25  2  0
 25  2  1  0
 22 12  1  0
M  END
>  <Binding energies>  (21) 
[-6.55]

>  <Ligand effiencies>  (21) 
[-0.2519230769230769]

>  <Interactions>  (21) 
["V-B:GLU:543:CB:9878, V-A:HIS:456:CE1:4068, V-B:GLU:543:CD:9880, V-A:GLU:543:CD:4906, V-B:HIS:456:CE1:9042, V-A:GLY:544:CA:4912, V-B:GLY:544:C:9884, V-A:GLY:544:C:4910, V-B:HIS:456:CD2:9040, V-B:GLU:543:CG:9879, V-A:GLU:543:CG:4905, H-A:GLY:454:N:4048, V-B:GLU:543:C:9874, V-A:ARG:545:CZ:4924, V-A:ARG:545:CG:4920, H-A:TYR:484:OH:4346, V-A:ARG:545:CD:4921, V-B:TYR:539:CZ:9849, V-A:ILE:369:CD1:3237, V-A:ASP:366:CG:3211, V-A:GLY:454:CA:4047, V-B:TYR:539:CD2:9846, V-B:TYR:539:CE2:9848, V-A:ILE:369:CG2:3235, V-A:ASP:366:CA:3208, V-A:ASP:366:CB:3210, V-A:ASP:366:C:3206, V-A:ILE:369:CG1:3236, V-A:ILE:369:CB:3234, H-A:ARG:545:NH2:4926, H-A:GLU:543:OE2:4908, V-B:ARG:545:CG:9894"]

$$$$
2f_Grossjean_2025
     RDKit          3D

 24 25  0  0  0  0  0  0  0  0999 V2000
  129.4410  126.4740   62.2940 C   0  0  0  0  0  0  0  0  0  0  0  0
  130.4030  125.7730   61.3530 C   0  0  0  0  0  0  0  0  0  0  0  0
  131.5090  125.0730   61.8290 C   0  0  0  0  0  0  0  0  0  0  0  0
  132.3750  124.4480   60.9190 C   0  0  0  0  0  0  0  0  0  0  0  0
  133.5990  123.6880   61.4650 C   0  0  0  0  0  0  0  0  0  0  0  0
  134.7230  124.2370   61.0000 F   0  0  0  0  0  0  0  0  0  0  0  0
  133.6100  123.7410   62.7970 F   0  0  0  0  0  0  0  0  0  0  0  0
  133.6080  122.4010   61.1130 F   0  0  0  0  0  0  0  0  0  0  0  0
  132.0870  124.5460   59.5330 C   0  0  0  0  0  0  0  0  0  0  0  0
  132.9910  123.9590   58.5410 C   0  0  0  0  0  0  0  0  0  0  0  0
  133.7050  123.4940   57.7570 N   0  0  0  0  0  0  0  0  0  0  0  0
  130.9260  125.2560   59.1430 C   0  0  0  0  0  0  0  0  0  0  0  0
  130.4070  125.4690   57.4520 S   0  0  0  0  0  0  0  0  0  0  0  0
  129.7300  123.8790   56.8630 C   0  0  0  0  0  0  0  0  0  0  0  0
  128.3570  123.5030   57.4380 C   0  0  0  0  0  0  0  0  0  0  0  0
  127.6000  122.7540   56.8190 O   0  0  0  0  0  0  0  0  0  0  0  0
  128.0750  124.0710   58.6300 N   0  0  0  0  0  0  0  0  0  0  0  0
  126.9270  123.9380   59.4350 C   0  0  0  0  0  0  0  0  0  0  0  0
  125.5980  124.0480   58.9870 C   0  0  0  0  0  0  0  0  0  0  0  0
  124.5470  123.8890   59.8920 C   0  0  0  0  0  0  0  0  0  0  0  0
  124.8520  123.6190   61.2270 C   0  0  0  0  0  0  0  0  0  0  0  0
  126.1240  123.5010   61.6840 N   0  0  0  0  0  0  0  0  0  0  0  0
  127.1350  123.6570   60.7910 C   0  0  0  0  0  0  0  0  0  0  0  0
  130.1140  125.8720   60.0360 N   0  0  0  0  0  0  0  0  0  0  0  0
  1  2  1  0
  2  3  2  0
  3  4  1  0
  4  5  1  0
  5  6  1  0
  5  7  1  0
  5  8  1  0
  4  9  2  0
  9 10  1  0
 10 11  3  0
  9 12  1  0
 12 13  1  0
 13 14  1  0
 14 15  1  0
 15 16  2  0
 15 17  1  0
 17 18  1  0
 18 19  2  0
 19 20  1  0
 20 21  2  0
 21 22  1  0
 22 23  2  0
 12 24  2  0
 24  2  1  0
 23 18  1  0
M  END
>  <Binding energies>  (22) 
[-5.89]

>  <Ligand effiencies>  (22) 
[-0.23559999999999998]

>  <Interactions>  (22) 
["V-B:GLU:543:CD:9880, V-B:TYR:539:CZ:9849, V-B:PRO:540:C:9853, V-A:GLY:453:C:4040, V-A:ILE:369:CD1:3237, V-B:PRO:540:CA:9855, V-A:GLY:453:CA:4042, V-A:ASP:366:CG:3211, V-A:GLY:454:CA:4047, V-B:TYR:539:CD2:9846, V-B:TYR:539:CE1:9847, V-B:TYR:539:CE2:9848, V-B:PRO:540:CB:9857, H-B:ALA:541:N:9863, V-B:ASN:362:CB:8148, H-B:TYR:539:OH:9850, H-B:TYR:539:N:9842"]

$$$$
2g_Grossjean_2025
     RDKit          3D

 25 26  0  0  0  0  0  0  0  0999 V2000
  128.8660  122.9210   60.1070 C   0  0  0  0  0  0  0  0  0  0  0  0
  130.0420  123.3510   60.9640 C   0  0  0  0  0  0  0  0  0  0  0  0
  131.2940  122.7540   60.8370 C   0  0  0  0  0  0  0  0  0  0  0  0
  132.3480  123.1820   61.6580 C   0  0  0  0  0  0  0  0  0  0  0  0
  133.7250  122.5040   61.5090 C   0  0  0  0  0  0  0  0  0  0  0  0
  133.7900  121.8410   60.3530 F   0  0  0  0  0  0  0  0  0  0  0  0
  134.6880  123.4260   61.5340 F   0  0  0  0  0  0  0  0  0  0  0  0
  133.9780  121.6300   62.4850 F   0  0  0  0  0  0  0  0  0  0  0  0
  132.1030  124.2220   62.5910 C   0  0  0  0  0  0  0  0  0  0  0  0
  133.1530  124.6670   63.5110 C   0  0  0  0  0  0  0  0  0  0  0  0
  133.9840  125.0180   64.2360 N   0  0  0  0  0  0  0  0  0  0  0  0
  130.8060  124.7900   62.6280 C   0  0  0  0  0  0  0  0  0  0  0  0
  130.3340  126.1160   63.7180 S   0  0  0  0  0  0  0  0  0  0  0  0
  130.6350  125.5530   65.4280 C   0  0  0  0  0  0  0  0  0  0  0  0
  130.5010  126.6480   66.4960 C   0  0  0  0  0  0  0  0  0  0  0  0
  131.4930  127.1560   67.0220 O   0  0  0  0  0  0  0  0  0  0  0  0
  129.2410  126.9970   66.8110 N   0  0  0  0  0  0  0  0  0  0  0  0
  128.8610  128.0170   67.7900 C   0  0  0  0  0  0  0  0  0  0  0  0
  129.0210  127.5850   69.2430 C   0  0  0  0  0  0  0  0  0  0  0  0
  130.2860  127.2470   69.7330 C   0  0  0  0  0  0  0  0  0  0  0  0
  130.4410  126.8890   71.0700 C   0  0  0  0  0  0  0  0  0  0  0  0
  129.3340  126.8780   71.9140 C   0  0  0  0  0  0  0  0  0  0  0  0
  128.0720  127.2260   71.4350 C   0  0  0  0  0  0  0  0  0  0  0  0
  127.9170  127.5850   70.0990 C   0  0  0  0  0  0  0  0  0  0  0  0
  129.7930  124.3480   61.8430 N   0  0  0  0  0  0  0  0  0  0  0  0
  1  2  1  0
  2  3  2  0
  3  4  1  0
  4  5  1  0
  5  6  1  0
  5  7  1  0
  5  8  1  0
  4  9  2  0
  9 10  1  0
 10 11  3  0
  9 12  1  0
 12 13  1  0
 13 14  1  0
 14 15  1  0
 15 16  2  0
 15 17  1  0
 17 18  1  0
 18 19  1  0
 19 20  2  0
 20 21  1  0
 21 22  2  0
 22 23  1  0
 23 24  2  0
 12 25  2  0
 25  2  1  0
 24 19  1  0
M  END
>  <Binding energies>  (23) 
[-6.39]

>  <Ligand effiencies>  (23) 
[-0.24576923076923077]

>  <Interactions>  (23) 
["V-B:GLU:543:CB:9878, V-A:HIS:456:CE1:4068, V-A:HIS:456:CD2:4066, V-B:GLU:543:CD:9880, V-A:GLU:543:CD:4906, V-B:HIS:456:CE1:9042, V-B:GLY:544:C:9884, V-A:GLY:544:C:4910, H-B:GLU:543:O:9875, V-B:HIS:456:CD2:9040, V-A:GLU:543:CB:4904, V-B:GLU:543:CG:9879, V-A:GLU:543:CG:4905, H-A:GLY:454:N:4048, V-A:ARG:545:CZ:4924, H-A:TYR:484:OH:4346, V-A:HIS:456:CG:4064, H-A:ARG:545:NH1:4925, H-B:GLU:543:OE1:9881, V-B:GLY:544:CA:9886, H-A:ARG:545:NE:4922, V-A:GLY:453:C:4040, V-A:ILE:369:CD1:3237, V-A:LEU:475:CD2:4257, V-A:GLY:453:CA:4042, V-A:GLY:454:CA:4047, V-A:ILE:369:CG2:3235, V-A:ILE:369:CB:3234, H-A:GLU:543:OE2:4908, H-B:GLU:543:OE2:9882"]

$$$$
2h_Grossjean_2025
     RDKit          3D

 31 32  0  0  0  0  0  0  0  0999 V2000
  131.5150  126.1670   73.9280 C   0  0  0  0  0  0  0  0  0  0  0  0
  130.1930  126.4440   73.4800 O   0  0  0  0  0  0  0  0  0  0  0  0
  129.9830  126.7870   72.1570 C   0  0  0  0  0  0  0  0  0  0  0  0
  131.0050  126.8730   71.1980 C   0  0  0  0  0  0  0  0  0  0  0  0
  130.7150  127.2180   69.8800 C   0  0  0  0  0  0  0  0  0  0  0  0
  129.4010  127.4840   69.4900 C   0  0  0  0  0  0  0  0  0  0  0  0
  129.1050  127.8400   68.0340 C   0  0  0  0  0  0  0  0  0  0  0  0
  129.3840  126.7530   67.0950 N   0  0  0  0  0  0  0  0  0  0  0  0
  130.5860  126.4950   66.5500 C   0  0  0  0  0  0  0  0  0  0  0  0
  131.5740  127.2110   66.7250 O   0  0  0  0  0  0  0  0  0  0  0  0
  130.6640  125.2290   65.6860 C   0  0  0  0  0  0  0  0  0  0  0  0
  132.2040  125.0450   64.7250 S   0  0  0  0  0  0  0  0  0  0  0  0
  131.8010  125.4170   63.0320 C   0  0  0  0  0  0  0  0  0  0  0  0
  130.9850  126.4900   62.8880 N   0  0  0  0  0  0  0  0  0  0  0  0
  130.6000  126.8500   61.6440 C   0  0  0  0  0  0  0  0  0  0  0  0
  129.6810  128.0540   61.5600 C   0  0  0  0  0  0  0  0  0  0  0  0
  131.0130  126.1660   60.5020 C   0  0  0  0  0  0  0  0  0  0  0  0
  131.8750  125.0660   60.6290 C   0  0  0  0  0  0  0  0  0  0  0  0
  132.3280  124.3290   59.3540 C   0  0  0  0  0  0  0  0  0  0  0  0
  131.8830  124.9720   58.2740 F   0  0  0  0  0  0  0  0  0  0  0  0
  133.6560  124.2440   59.2510 F   0  0  0  0  0  0  0  0  0  0  0  0
  131.8440  123.0860   59.3460 F   0  0  0  0  0  0  0  0  0  0  0  0
  132.2930  124.6800   61.9280 C   0  0  0  0  0  0  0  0  0  0  0  0
  133.2390  123.5760   62.1100 C   0  0  0  0  0  0  0  0  0  0  0  0
  133.9870  122.7050   62.2510 N   0  0  0  0  0  0  0  0  0  0  0  0
  128.3730  127.4250   70.4430 C   0  0  0  0  0  0  0  0  0  0  0  0
  127.0770  127.6900   70.0670 O   0  0  0  0  0  0  0  0  0  0  0  0
  126.6000  126.8810   68.9990 C   0  0  0  0  0  0  0  0  0  0  0  0
  128.6650  127.0590   71.7670 C   0  0  0  0  0  0  0  0  0  0  0  0
  127.6570  126.9820   72.6990 O   0  0  0  0  0  0  0  0  0  0  0  0
  127.2180  128.2440   73.1840 C   0  0  0  0  0  0  0  0  0  0  0  0
  1  2  1  0
  2  3  1  0
  3  4  2  0
  4  5  1  0
  5  6  2  0
  6  7  1  0
  7  8  1  0
  8  9  1  0
  9 10  2  0
  9 11  1  0
 11 12  1  0
 12 13  1  0
 13 14  2  0
 14 15  1  0
 15 16  1  0
 15 17  2  0
 17 18  1  0
 18 19  1  0
 19 20  1  0
 19 21  1  0
 19 22  1  0
 18 23  2  0
 23 24  1  0
 24 25  3  0
  6 26  1  0
 26 27  1  0
 27 28  1  0
 26 29  2  0
 29 30  1  0
 30 31  1  0
 29  3  1  0
 23 13  1  0
M  END
>  <Binding energies>  (24) 
[-5.64]

>  <Ligand effiencies>  (24) 
[-0.17625]

>  <Interactions>  (24) 
["V-B:GLU:543:CB:9878, V-A:HIS:456:CE1:4068, V-A:HIS:456:CD2:4066, V-B:GLU:543:CD:9880, V-A:GLU:543:CD:4906, V-B:HIS:456:CE1:9042, V-A:GLY:544:CA:4912, H-A:LYS:547:NZ:4949, V-B:GLY:544:C:9884, V-A:GLY:544:C:4910, H-B:GLU:543:O:9875, V-B:HIS:456:CD2:9040, V-A:GLU:543:CB:4904, V-B:GLU:543:CG:9879, V-A:GLU:543:CG:4905, H-A:GLY:454:N:4048, H-B:LYS:547:NZ:9923, V-B:GLU:543:C:9874, V-A:ARG:545:CZ:4924, V-A:LYS:547:CE:4948, H-A:TYR:484:OH:4346, V-A:HIS:456:CG:4064, V-B:LYS:547:CE:9922, H-B:GLU:543:OE1:9881, V-B:GLY:544:CA:9886, H-A:ARG:545:NE:4922, V-A:GLU:543:C:4900, V-A:ILE:369:CD1:3237, V-A:ASP:366:CG:3211, V-B:TYR:539:CD2:9846, V-B:TYR:539:CE2:9848, V-A:ASP:366:CA:3208, V-A:ASP:366:CB:3210, H-A:ARG:545:NH2:4926, H-B:HIS:456:ND1:9039, V-B:HIS:456:CG:9038, H-B:GLU:543:OE2:9882, V-B:ARG:545:CG:9894, H-B:ARG:545:N:9892, V-B:ARG:545:CA:9891, V-B:ARG:545:CB:9893"]

$$$$
2i_Grossjean_2025
     RDKit          3D

 23 24  0  0  0  0  0  0  0  0999 V2000
  127.8060  124.2480   60.5570 C   0  0  0  0  0  0  0  0  0  0  0  0
  128.9930  123.3150   60.4060 C   0  0  0  0  0  0  0  0  0  0  0  0
  128.8880  121.9520   60.6710 C   0  0  0  0  0  0  0  0  0  0  0  0
  130.0140  121.1300   60.5150 C   0  0  0  0  0  0  0  0  0  0  0  0
  129.8800  119.6250   60.8130 C   0  0  0  0  0  0  0  0  0  0  0  0
  128.6110  119.3260   61.0930 F   0  0  0  0  0  0  0  0  0  0  0  0
  130.2690  118.9120   59.7550 F   0  0  0  0  0  0  0  0  0  0  0  0
  130.6230  119.2360   61.8520 F   0  0  0  0  0  0  0  0  0  0  0  0
  131.2300  121.7220   60.0880 C   0  0  0  0  0  0  0  0  0  0  0  0
  132.4370  120.9100   59.9060 C   0  0  0  0  0  0  0  0  0  0  0  0
  133.3910  120.2700   59.7630 N   0  0  0  0  0  0  0  0  0  0  0  0
  131.2480  123.1150   59.8430 C   0  0  0  0  0  0  0  0  0  0  0  0
  132.7220  123.9700   59.3110 S   0  0  0  0  0  0  0  0  0  0  0  0
  134.0580  123.5740   60.4800 C   0  0  0  0  0  0  0  0  0  0  0  0
  133.5850  123.6080   61.9340 C   0  0  0  0  0  0  0  0  0  0  0  0
  133.3470  122.5460   62.5120 O   0  0  0  0  0  0  0  0  0  0  0  0
  133.4350  124.8360   62.4760 N   0  0  0  0  0  0  0  0  0  0  0  0
  133.0060  125.1270   63.7600 C   0  0  0  0  0  0  0  0  0  0  0  0
  131.7500  125.5520   64.2170 C   0  0  0  0  0  0  0  0  0  0  0  0
  131.8990  125.6810   65.5790 C   0  0  0  0  0  0  0  0  0  0  0  0
  133.1660  125.3460   65.9200 O   0  0  0  0  0  0  0  0  0  0  0  0
  133.8530  124.9920   64.7560 N   0  0  0  0  0  0  0  0  0  0  0  0
  130.1460  123.8920   60.0000 N   0  0  0  0  0  0  0  0  0  0  0  0
  1  2  1  0
  2  3  2  0
  3  4  1  0
  4  5  1  0
  5  6  1  0
  5  7  1  0
  5  8  1  0
  4  9  2  0
  9 10  1  0
 10 11  3  0
  9 12  1  0
 12 13  1  0
 13 14  1  0
 14 15  1  0
 15 16  2  0
 15 17  1  0
 17 18  1  0
 18 19  1  0
 19 20  2  0
 20 21  1  0
 21 22  1  0
 12 23  2  0
 23  2  1  0
 22 18  2  0
M  END
>  <Binding energies>  (25) 
[-6.06]

>  <Ligand effiencies>  (25) 
[-0.2525]

>  <Interactions>  (25) 
["V-A:HIS:456:CE1:4068, H-A:GLY:454:N:4048, V-A:ARG:545:CZ:4924, V-A:ARG:545:CG:4920, H-A:TYR:484:OH:4346, V-A:ARG:545:CD:4921, H-A:ARG:545:NE:4922, V-B:PRO:540:C:9853, V-B:TYR:539:CG:9844, V-A:TRP:381:CZ2:3368, V-A:ILE:369:CD1:3237, V-A:LEU:475:CD2:4257, V-A:TRP:381:CH2:3370, V-B:PRO:540:CA:9855, V-B:TYR:539:C:9839, V-B:ALA:541:CA:9862, V-A:GLY:454:CA:4047, V-B:TYR:539:CB:9843, V-B:ALA:541:CB:9864, V-B:TYR:539:CD2:9846, V-B:TYR:539:CE2:9848, V-A:ILE:369:CG2:3235, V-A:TRP:381:CZ3:3369, V-A:TRP:381:CE2:3365, V-A:PRO:482:CG:4325, V-A:PRO:482:CB:4324, H-A:ASP:366:OD1:3212, H-A:HIS:456:ND1:4065, V-A:LEU:475:CD1:4256, V-A:LEU:475:CG:4255, V-A:TRP:381:CE3:3366"]

$$$$
2k_Grossjean_2025
     RDKit          3D

 28 28  0  0  0  0  0  0  0  0999 V2000
  127.3020  128.4230   72.7430 C   0  0  0  0  0  0  0  0  0  0  0  0
  128.6710  128.5930   73.0770 O   0  0  0  0  0  0  0  0  0  0  0  0
  129.5480  128.4420   71.9680 C   0  0  0  0  0  0  0  0  0  0  0  0
  128.8630  127.6100   70.8760 C   0  0  0  0  0  0  0  0  0  0  0  0
  129.8150  127.2920   69.8710 O   0  0  0  0  0  0  0  0  0  0  0  0
  129.2770  127.2290   68.5550 C   0  0  0  0  0  0  0  0  0  0  0  0
  130.4360  127.3140   67.5530 C   0  0  0  0  0  0  0  0  0  0  0  0
  130.1930  126.3660   66.5260 O   0  0  0  0  0  0  0  0  0  0  0  0
  131.3530  125.8630   65.8810 C   0  0  0  0  0  0  0  0  0  0  0  0
  130.9450  124.7060   64.9500 C   0  0  0  0  0  0  0  0  0  0  0  0
  131.5330  124.8150   63.6120 N   0  0  0  0  0  0  0  0  0  0  0  0
  132.8430  124.9800   63.3430 C   0  0  0  0  0  0  0  0  0  0  0  0
  133.7130  125.0310   64.2150 O   0  0  0  0  0  0  0  0  0  0  0  0
  133.2040  125.1280   61.8580 C   0  0  0  0  0  0  0  0  0  0  0  0
  133.3030  123.5650   60.9170 S   0  0  0  0  0  0  0  0  0  0  0  0
  131.6940  122.7850   60.8900 C   0  0  0  0  0  0  0  0  0  0  0  0
  130.6320  123.6220   61.0110 N   0  0  0  0  0  0  0  0  0  0  0  0
  129.3850  123.1010   61.0030 C   0  0  0  0  0  0  0  0  0  0  0  0
  128.2540  124.0990   61.1560 C   0  0  0  0  0  0  0  0  0  0  0  0
  129.1420  121.7370   60.8620 C   0  0  0  0  0  0  0  0  0  0  0  0
  130.2240  120.8540   60.7260 C   0  0  0  0  0  0  0  0  0  0  0  0
  129.9370  119.3490   60.5660 C   0  0  0  0  0  0  0  0  0  0  0  0
  130.6420  118.5960   61.4120 F   0  0  0  0  0  0  0  0  0  0  0  0
  128.6450  119.1040   60.7910 F   0  0  0  0  0  0  0  0  0  0  0  0
  130.2420  118.9550   59.3290 F   0  0  0  0  0  0  0  0  0  0  0  0
  131.5390  121.3870   60.7410 C   0  0  0  0  0  0  0  0  0  0  0  0
  132.7060  120.5100   60.6070 C   0  0  0  0  0  0  0  0  0  0  0  0
  133.6280  119.8170   60.5000 N   0  0  0  0  0  0  0  0  0  0  0  0
  1  2  1  0
  2  3  1  0
  3  4  1  0
  4  5  1  0
  5  6  1  0
  6  7  1  0
  7  8  1  0
  8  9  1  0
  9 10  1  0
 10 11  1  0
 11 12  1  0
 12 13  2  0
 12 14  1  0
 14 15  1  0
 15 16  1  0
 16 17  2  0
 17 18  1  0
 18 19  1  0
 18 20  2  0
 20 21  1  0
 21 22  1  0
 22 23  1  0
 22 24  1  0
 22 25  1  0
 21 26  2  0
 26 27  1  0
 27 28  3  0
 26 16  1  0
M  END
>  <Binding energies>  (26) 
[-5.64]

>  <Ligand effiencies>  (26) 
[-0.19448275862068964]

>  <Interactions>  (26) 
["V-B:GLU:543:CB:9878, V-A:HIS:456:CE1:4068, V-B:GLU:543:CD:9880, V-A:GLU:543:CD:4906, V-A:GLY:544:CA:4912, H-A:LYS:547:NZ:4949, V-B:GLY:544:C:9884, V-A:GLY:544:C:4910, V-B:HIS:456:CD2:9040, V-A:GLU:543:CG:4905, H-A:GLY:454:N:4048, V-A:ARG:545:CZ:4924, V-A:ARG:545:CG:4920, V-A:LYS:547:CE:4948, H-A:TYR:484:OH:4346, V-A:TYR:484:CZ:4345, H-A:ARG:545:NH1:4925, H-B:GLU:543:OE1:9881, H-A:ARG:545:NE:4922, V-B:PRO:540:C:9853, V-B:TYR:539:CG:9844, V-A:TRP:381:CZ2:3368, V-A:LEU:475:CD2:4257, V-A:TRP:381:CH2:3370, V-B:PRO:540:CA:9855, V-B:TYR:539:C:9839, V-B:ALA:541:CA:9862, V-A:ASP:366:CG:3211, V-B:TYR:539:CB:9843, V-B:ALA:541:CB:9864, V-B:TYR:539:CD2:9846, V-B:TYR:539:CE2:9848, V-A:ILE:369:CG2:3235, H-A:ARG:545:NH2:4926, V-A:TRP:381:CZ3:3369, V-A:TRP:381:CE2:3365, V-A:PRO:482:CG:4325, V-A:PRO:482:CB:4324, V-B:HIS:456:CG:9038, V-A:LEU:475:CD1:4256, V-A:LEU:475:CG:4255, V-A:TRP:381:CE3:3366, V-A:PRO:482:CD:4326"]

$$$$
3aa_Grossjean_2025
     RDKit          3D

 34 36  0  0  0  0  0  0  0  0999 V2000
  131.3840  126.1510   73.0900 C   0  0  0  0  0  0  0  0  0  0  0  0
  130.0630  126.2060   72.3180 C   0  0  0  0  0  0  0  0  0  0  0  0
  129.7440  127.5600   72.0200 O   0  0  0  0  0  0  0  0  0  0  0  0
  128.7410  127.8680   71.1590 C   0  0  0  0  0  0  0  0  0  0  0  0
  127.6700  128.3710   71.5130 O   0  0  0  0  0  0  0  0  0  0  0  0
  129.0560  127.5200   69.7320 C   0  0  0  0  0  0  0  0  0  0  0  0
  130.3740  127.4620   69.2550 C   0  0  0  0  0  0  0  0  0  0  0  0
  130.6310  127.1320   67.9260 C   0  0  0  0  0  0  0  0  0  0  0  0
  129.5800  126.8480   67.0520 C   0  0  0  0  0  0  0  0  0  0  0  0
  129.9500  126.5220   65.7320 N   0  0  0  0  0  0  0  0  0  0  0  0
  130.9150  125.6870   65.2890 C   0  0  0  0  0  0  0  0  0  0  0  0
  131.6930  125.0520   66.0030 O   0  0  0  0  0  0  0  0  0  0  0  0
  131.0280  125.5550   63.7700 C   0  0  0  0  0  0  0  0  0  0  0  0
  130.9620  123.8180   63.2360 S   0  0  0  0  0  0  0  0  0  0  0  0
  131.0560  123.8160   61.4590 C   0  0  0  0  0  0  0  0  0  0  0  0
  129.8490  123.7320   60.8520 N   0  0  0  0  0  0  0  0  0  0  0  0
  129.7770  123.7180   59.4950 C   0  0  0  0  0  0  0  0  0  0  0  0
  128.4050  123.6380   58.8980 C   0  0  0  0  0  0  0  0  0  0  0  0
  127.2730  123.9600   59.6640 C   0  0  0  0  0  0  0  0  0  0  0  0
  125.9940  123.8890   59.1160 C   0  0  0  0  0  0  0  0  0  0  0  0
  125.8310  123.4950   57.7920 C   0  0  0  0  0  0  0  0  0  0  0  0
  126.9370  123.1730   57.0120 C   0  0  0  0  0  0  0  0  0  0  0  0
  128.2140  123.2470   57.5620 C   0  0  0  0  0  0  0  0  0  0  0  0
  130.9340  123.7980   58.7140 C   0  0  0  0  0  0  0  0  0  0  0  0
  132.1980  123.8670   59.3210 C   0  0  0  0  0  0  0  0  0  0  0  0
  133.4490  123.9420   58.4260 C   0  0  0  0  0  0  0  0  0  0  0  0
  133.3430  124.8600   57.4630 F   0  0  0  0  0  0  0  0  0  0  0  0
  134.5200  124.2550   59.1570 F   0  0  0  0  0  0  0  0  0  0  0  0
  133.6580  122.7640   57.8380 F   0  0  0  0  0  0  0  0  0  0  0  0
  132.2680  123.8650   60.7360 C   0  0  0  0  0  0  0  0  0  0  0  0
  133.5620  123.8780   61.4240 C   0  0  0  0  0  0  0  0  0  0  0  0
  134.5850  123.8870   61.9670 N   0  0  0  0  0  0  0  0  0  0  0  0
  128.2590  126.9180   67.5190 C   0  0  0  0  0  0  0  0  0  0  0  0
  128.0050  127.2500   68.8460 C   0  0  0  0  0  0  0  0  0  0  0  0
  1  2  1  0
  2  3  1  0
  3  4  1  0
  4  5  2  0
  4  6  1  0
  6  7  2  0
  7  8  1  0
  8  9  2  0
  9 10  1  0
 10 11  1  0
 11 12  2  0
 11 13  1  0
 13 14  1  0
 14 15  1  0
 15 16  2  0
 16 17  1  0
 17 18  1  0
 18 19  2  0
 19 20  1  0
 20 21  2  0
 21 22  1  0
 22 23  2  0
 17 24  2  0
 24 25  1  0
 25 26  1  0
 26 27  1  0
 26 28  1  0
 26 29  1  0
 25 30  2  0
 30 31  1  0
 31 32  3  0
  9 33  1  0
 33 34  2  0
 34  6  1  0
 30 15  1  0
 23 18  1  0
M  END
>  <Binding energies>  (27) 
[-7.86]

>  <Ligand effiencies>  (27) 
[-0.2245714285714286]

>  <Interactions>  (27) 
["V-B:GLU:543:CB:9878, V-A:HIS:456:CE1:4068, V-A:HIS:456:CD2:4066, V-B:GLU:543:CD:9880, V-A:GLU:543:CD:4906, V-B:HIS:456:CE1:9042, V-A:GLY:544:C:4910, V-B:HIS:456:CD2:9040, V-B:GLU:543:CG:9879, V-A:GLU:543:CG:4905, H-A:GLY:454:N:4048, V-B:GLU:543:C:9874, V-A:ARG:545:CG:4920, H-A:TYR:484:OH:4346, V-A:HIS:456:CG:4064, V-A:HIS:456:CB:4063, H-B:GLU:543:OE1:9881, V-A:GLU:543:C:4900, V-B:TYR:539:CZ:9849, V-A:ILE:369:CD1:3237, V-B:PRO:540:CA:9855, V-B:TYR:539:C:9839, V-A:ASP:366:CG:3211, V-B:PRO:540:CD:9859, V-B:TYR:539:CD2:9846, V-B:TYR:539:CE2:9848, V-A:ILE:369:CG2:3235, V-B:PRO:540:N:9856, V-B:PRO:540:CB:9857, V-A:ASP:366:CA:3208, V-A:ASP:366:CB:3210, V-A:ASP:366:C:3206, V-A:ILE:369:CB:3234, H-A:GLU:543:OE2:4908, H-A:GLU:543:OE1:4907, H-B:HIS:456:ND1:9039, H-B:GLU:543:OE2:9882"]

$$$$
3ad_Grossjean_2025
     RDKit          3D

 29 31  0  0  0  0  0  0  0  0999 V2000
  134.1180  122.8300   75.7180 N   0  0  0  0  0  0  0  0  0  0  0  0
  133.3900  123.4690   75.0860 C   0  0  0  0  0  0  0  0  0  0  0  0
  132.4710  124.2820   74.2840 C   0  0  0  0  0  0  0  0  0  0  0  0
  132.8220  125.5960   73.8890 C   0  0  0  0  0  0  0  0  0  0  0  0
  134.1840  126.2310   74.2290 C   0  0  0  0  0  0  0  0  0  0  0  0
  135.0390  125.3630   74.7720 F   0  0  0  0  0  0  0  0  0  0  0  0
  134.7490  126.7140   73.1210 F   0  0  0  0  0  0  0  0  0  0  0  0
  134.0200  127.2280   75.1000 F   0  0  0  0  0  0  0  0  0  0  0  0
  131.8870  126.3500   73.1620 C   0  0  0  0  0  0  0  0  0  0  0  0
  130.6380  125.8090   72.8420 C   0  0  0  0  0  0  0  0  0  0  0  0
  129.5970  126.5750   72.0810 C   0  0  0  0  0  0  0  0  0  0  0  0
  129.6050  126.5960   70.6770 C   0  0  0  0  0  0  0  0  0  0  0  0
  128.6410  127.3040   69.9650 C   0  0  0  0  0  0  0  0  0  0  0  0
  127.6520  128.0040   70.6500 C   0  0  0  0  0  0  0  0  0  0  0  0
  127.6210  127.9970   72.0400 C   0  0  0  0  0  0  0  0  0  0  0  0
  128.5860  127.2860   72.7490 C   0  0  0  0  0  0  0  0  0  0  0  0
  130.3040  124.5510   73.2280 N   0  0  0  0  0  0  0  0  0  0  0  0
  131.1960  123.7980   73.9120 C   0  0  0  0  0  0  0  0  0  0  0  0
  130.5940  122.1750   74.3230 S   0  0  0  0  0  0  0  0  0  0  0  0
  130.4020  121.2600   72.7650 C   0  0  0  0  0  0  0  0  0  0  0  0
  128.9740  121.3380   72.2200 C   0  0  0  0  0  0  0  0  0  0  0  0
  128.7930  121.7420   71.0710 O   0  0  0  0  0  0  0  0  0  0  0  0
  128.0050  120.9460   73.0750 N   0  0  0  0  0  0  0  0  0  0  0  0
  126.6120  120.8820   72.8910 C   0  0  0  0  0  0  0  0  0  0  0  0
  125.8370  121.2210   74.0050 C   0  0  0  0  0  0  0  0  0  0  0  0
  124.4470  121.1870   73.9310 C   0  0  0  0  0  0  0  0  0  0  0  0
  123.8280  120.8100   72.7430 C   0  0  0  0  0  0  0  0  0  0  0  0
  124.5870  120.4630   71.6280 C   0  0  0  0  0  0  0  0  0  0  0  0
  125.9780  120.4950   71.6970 C   0  0  0  0  0  0  0  0  0  0  0  0
  1  2  3  0
  2  3  1  0
  3  4  2  0
  4  5  1  0
  5  6  1  0
  5  7  1  0
  5  8  1  0
  4  9  1  0
  9 10  2  0
 10 11  1  0
 11 12  2  0
 12 13  1  0
 13 14  2  0
 14 15  1  0
 15 16  2  0
 10 17  1  0
 17 18  2  0
 18 19  1  0
 19 20  1  0
 20 21  1  0
 21 22  2  0
 21 23  1  0
 23 24  1  0
 24 25  2  0
 25 26  1  0
 26 27  2  0
 27 28  1  0
 28 29  2  0
 18  3  1  0
 29 24  1  0
 16 11  1  0
M  END
>  <Binding energies>  (28) 
[-7.78]

>  <Ligand effiencies>  (28) 
[-0.25933333333333336]

>  <Interactions>  (28) 
["V-A:HIS:456:CE1:4068, V-A:HIS:456:CD2:4066, V-B:HIS:456:CE1:9042, V-B:GLY:544:C:9884, V-A:GLY:544:C:4910, V-B:HIS:456:CD2:9040, H-B:LYS:547:NZ:9923, V-B:GLU:543:C:9874, V-A:LYS:547:CE:4948, V-A:HIS:456:CG:4064, V-A:HIS:456:CB:4063, V-B:LYS:547:CE:9922, V-B:GLY:544:CA:9886, V-A:LYS:547:CD:4947, V-A:HIS:456:C:4059, V-A:TYR:484:CG:4340, V-A:LYS:547:CG:4946, V-A:LYS:471:CE:4218, V-A:TYR:484:CB:4339, V-A:ASP:473:CB:4237, V-A:HIS:456:CA:4061, V-A:ASP:473:CG:4238, V-A:ARG:545:CA:4917, V-B:HIS:456:CG:9038, V-A:VAL:457:C:4071, V-A:VAL:458:CG2:4085, H-B:GLY:544:N:9887, V-B:VAL:542:CG1:9871, V-A:LYS:547:CB:4945, V-A:LYS:471:CD:4217, V-A:LYS:471:CG:4216, V-B:LYS:547:CG:9920, V-B:LYS:547:CA:9917, V-A:ARG:545:C:4915, V-A:VAL:457:CA:4073, V-B:ILE:546:C:9906, V-A:VAL:458:CB:4083, V-A:VAL:458:CA:4081"]

$$$$
3ai_Grossjean_2025
     RDKit          3D

 28 30  0  0  0  0  0  0  0  0999 V2000
  133.9860  123.4610   58.1370 N   0  0  0  0  0  0  0  0  0  0  0  0
  132.8920  123.5110   58.5130 C   0  0  0  0  0  0  0  0  0  0  0  0
  131.5080  123.5750   58.9900 C   0  0  0  0  0  0  0  0  0  0  0  0
  131.0710  122.7520   60.0560 C   0  0  0  0  0  0  0  0  0  0  0  0
  132.0130  121.7880   60.8020 C   0  0  0  0  0  0  0  0  0  0  0  0
  133.1050  122.3930   61.2740 F   0  0  0  0  0  0  0  0  0  0  0  0
  131.3770  121.2410   61.8390 F   0  0  0  0  0  0  0  0  0  0  0  0
  132.4190  120.8170   59.9830 F   0  0  0  0  0  0  0  0  0  0  0  0
  129.7240  122.8150   60.4440 C   0  0  0  0  0  0  0  0  0  0  0  0
  128.8370  123.6730   59.7850 C   0  0  0  0  0  0  0  0  0  0  0  0
  127.3870  123.7730   60.1500 C   0  0  0  0  0  0  0  0  0  0  0  0
  126.9870  123.7950   61.4960 C   0  0  0  0  0  0  0  0  0  0  0  0
  125.6420  123.8930   61.8420 C   0  0  0  0  0  0  0  0  0  0  0  0
  124.6760  123.9710   60.8440 C   0  0  0  0  0  0  0  0  0  0  0  0
  125.0460  123.9540   59.5030 C   0  0  0  0  0  0  0  0  0  0  0  0
  126.3920  123.8570   59.1610 C   0  0  0  0  0  0  0  0  0  0  0  0
  129.2580  124.4540   58.7570 N   0  0  0  0  0  0  0  0  0  0  0  0
  130.5590  124.4280   58.3800 C   0  0  0  0  0  0  0  0  0  0  0  0
  130.9300  125.5330   57.0340 S   0  0  0  0  0  0  0  0  0  0  0  0
  131.4530  127.1290   57.7480 C   0  0  0  0  0  0  0  0  0  0  0  0
  130.6840  128.3540   57.2310 C   0  0  0  0  0  0  0  0  0  0  0  0
  129.6310  128.2190   56.6030 O   0  0  0  0  0  0  0  0  0  0  0  0
  131.2570  129.5440   57.5220 N   0  0  0  0  0  0  0  0  0  0  0  0
  130.7860  130.8080   57.1910 C   0  0  0  0  0  0  0  0  0  0  0  0
  129.5040  131.2530   57.5120 C   0  0  0  0  0  0  0  0  0  0  0  0
  129.4330  132.5320   57.0140 C   0  0  0  0  0  0  0  0  0  0  0  0
  130.6110  132.8440   56.4220 O   0  0  0  0  0  0  0  0  0  0  0  0
  131.4610  131.7430   56.5420 N   0  0  0  0  0  0  0  0  0  0  0  0
  1  2  3  0
  2  3  1  0
  3  4  2  0
  4  5  1  0
  5  6  1  0
  5  7  1  0
  5  8  1  0
  4  9  1  0
  9 10  2  0
 10 11  1  0
 11 12  2  0
 12 13  1  0
 13 14  2  0
 14 15  1  0
 15 16  2  0
 10 17  1  0
 17 18  2  0
 18 19  1  0
 19 20  1  0
 20 21  1  0
 21 22  2  0
 21 23  1  0
 23 24  1  0
 24 25  1  0
 25 26  2  0
 26 27  1  0
 27 28  1  0
 18  3  1  0
 28 24  2  0
 16 11  1  0
M  END
>  <Binding energies>  (29) 
[-7.17]

>  <Ligand effiencies>  (29) 
[-0.24724137931034482]

>  <Interactions>  (29) 
["V-B:GLU:543:CD:9880, V-B:TYR:539:CZ:9849, V-A:ILE:369:CD1:3237, V-A:LEU:475:CD2:4257, V-A:TRP:381:CH2:3370, V-B:PRO:540:CA:9855, V-A:ASP:366:CG:3211, V-B:ALA:541:CB:9864, V-B:TYR:539:CD2:9846, V-B:TYR:539:CE2:9848, V-A:ILE:369:CG2:3235, V-B:PRO:540:N:9856, V-B:PRO:540:CB:9857, V-A:ASP:366:CB:3210, H-A:TYR:531:OH:4793, V-A:PRO:540:N:4882, V-B:ASN:362:CB:8148, V-A:TYR:539:C:4865, V-A:TYR:539:CD2:4872, H-A:TYR:539:N:4868, V-A:TYR:539:CD1:4871, V-A:TYR:539:CG:4870, H-B:TYR:539:OH:9850, V-A:TYR:539:CA:4867, H-A:ASP:366:OD2:3213"]

$$$$
3aj_Grossjean_2025
     RDKit          3D

 28 30  0  0  0  0  0  0  0  0999 V2000
  134.0360  122.7170   75.7370 N   0  0  0  0  0  0  0  0  0  0  0  0
  133.3270  123.3740   75.1000 C   0  0  0  0  0  0  0  0  0  0  0  0
  132.4320  124.2070   74.2920 C   0  0  0  0  0  0  0  0  0  0  0  0
  132.8390  125.4900   73.8510 C   0  0  0  0  0  0  0  0  0  0  0  0
  134.2370  126.0660   74.1460 C   0  0  0  0  0  0  0  0  0  0  0  0
  134.8530  126.5150   73.0500 F   0  0  0  0  0  0  0  0  0  0  0  0
  134.1400  127.0850   75.0000 F   0  0  0  0  0  0  0  0  0  0  0  0
  135.0150  125.1250   74.6830 F   0  0  0  0  0  0  0  0  0  0  0  0
  131.9270  126.2680   73.1210 C   0  0  0  0  0  0  0  0  0  0  0  0
  130.6450  125.7810   72.8430 C   0  0  0  0  0  0  0  0  0  0  0  0
  129.6300  126.5740   72.0770 C   0  0  0  0  0  0  0  0  0  0  0  0
  129.6830  126.6410   70.6770 C   0  0  0  0  0  0  0  0  0  0  0  0
  128.7410  127.3730   69.9580 C   0  0  0  0  0  0  0  0  0  0  0  0
  127.7300  128.0490   70.6340 C   0  0  0  0  0  0  0  0  0  0  0  0
  127.6550  127.9970   72.0220 C   0  0  0  0  0  0  0  0  0  0  0  0
  128.5980  127.2630   72.7360 C   0  0  0  0  0  0  0  0  0  0  0  0
  130.2570  124.5540   73.2750 N   0  0  0  0  0  0  0  0  0  0  0  0
  131.1270  123.7750   73.9610 C   0  0  0  0  0  0  0  0  0  0  0  0
  130.4520  122.1940   74.4240 S   0  0  0  0  0  0  0  0  0  0  0  0
  130.2510  121.2050   72.9030 C   0  0  0  0  0  0  0  0  0  0  0  0
  128.8510  120.6090   72.6970 C   0  0  0  0  0  0  0  0  0  0  0  0
  128.7080  119.4190   72.4060 O   0  0  0  0  0  0  0  0  0  0  0  0
  127.8350  121.4850   72.8610 N   0  0  0  0  0  0  0  0  0  0  0  0
  126.4780  121.2130   72.7410 C   0  0  0  0  0  0  0  0  0  0  0  0
  125.5300  121.4300   73.6260 N   0  0  0  0  0  0  0  0  0  0  0  0
  124.3490  121.0520   73.1760 C   0  0  0  0  0  0  0  0  0  0  0  0
  124.3250  120.5120   71.8930 C   0  0  0  0  0  0  0  0  0  0  0  0
  125.9400  120.5010   71.2530 S   0  0  0  0  0  0  0  0  0  0  0  0
  1  2  3  0
  2  3  1  0
  3  4  2  0
  4  5  1  0
  5  6  1  0
  5  7  1  0
  5  8  1  0
  4  9  1  0
  9 10  2  0
 10 11  1  0
 11 12  2  0
 12 13  1  0
 13 14  2  0
 14 15  1  0
 15 16  2  0
 10 17  1  0
 17 18  2  0
 18 19  1  0
 19 20  1  0
 20 21  1  0
 21 22  2  0
 21 23  1  0
 23 24  1  0
 24 25  2  0
 25 26  1  0
 26 27  2  0
 27 28  1  0
 18  3  1  0
 28 24  1  0
 16 11  1  0
M  END
>  <Binding energies>  (30) 
[-6.99]

>  <Ligand effiencies>  (30) 
[-0.2410344827586207]

>  <Interactions>  (30) 
["V-A:HIS:456:CE1:4068, V-A:HIS:456:CD2:4066, V-B:HIS:456:CE1:9042, V-B:GLY:544:C:9884, V-A:GLY:544:C:4910, V-B:HIS:456:CD2:9040, H-B:LYS:547:NZ:9923, V-B:GLU:543:C:9874, V-A:LYS:547:CE:4948, V-A:HIS:456:CG:4064, V-A:HIS:456:CB:4063, V-B:LYS:547:CE:9922, V-B:GLY:544:CA:9886, V-A:LYS:547:CD:4947, V-A:HIS:456:C:4059, V-A:TYR:484:CG:4340, V-A:LYS:547:CG:4946, V-A:LYS:471:CE:4218, V-A:TYR:484:CB:4339, V-A:HIS:456:CA:4061, V-A:ASP:473:CG:4238, V-A:ARG:545:CA:4917, V-B:HIS:456:CG:9038, V-A:VAL:457:C:4071, V-A:VAL:458:CG2:4085, V-B:VAL:542:CG1:9871, V-B:VAL:542:C:9866, V-A:LYS:547:CB:4945, V-A:LYS:471:CD:4217, V-A:LYS:471:CG:4216, V-A:ARG:545:C:4915, V-A:VAL:457:CA:4073"]

$$$$
3ak_Grossjean_2025
     RDKit          3D

 33 34  0  0  0  0  0  0  0  0999 V2000
  126.8690  128.7260   73.3270 C   0  0  0  0  0  0  0  0  0  0  0  0
  128.2510  129.0430   73.2800 O   0  0  0  0  0  0  0  0  0  0  0  0
  128.8430  128.8010   72.0120 C   0  0  0  0  0  0  0  0  0  0  0  0
  128.0280  127.7300   71.2760 C   0  0  0  0  0  0  0  0  0  0  0  0
  128.5840  127.5350   69.9790 O   0  0  0  0  0  0  0  0  0  0  0  0
  129.9810  127.2560   69.9450 C   0  0  0  0  0  0  0  0  0  0  0  0
  130.6530  127.6220   68.6090 C   0  0  0  0  0  0  0  0  0  0  0  0
  129.6720  128.1300   67.7160 O   0  0  0  0  0  0  0  0  0  0  0  0
  129.1440  127.1560   66.8250 C   0  0  0  0  0  0  0  0  0  0  0  0
  129.8800  125.8160   67.0060 C   0  0  0  0  0  0  0  0  0  0  0  0
  130.4220  125.2720   65.7590 N   0  0  0  0  0  0  0  0  0  0  0  0
  131.7050  125.3470   65.3570 C   0  0  0  0  0  0  0  0  0  0  0  0
  132.5850  125.8850   66.0300 O   0  0  0  0  0  0  0  0  0  0  0  0
  132.0930  124.7360   64.0000 C   0  0  0  0  0  0  0  0  0  0  0  0
  131.0810  123.3250   63.4190 S   0  0  0  0  0  0  0  0  0  0  0  0
  130.4750  123.6900   61.7790 C   0  0  0  0  0  0  0  0  0  0  0  0
  129.1260  123.6910   61.6400 N   0  0  0  0  0  0  0  0  0  0  0  0
  128.5700  123.9510   60.4290 C   0  0  0  0  0  0  0  0  0  0  0  0
  127.0710  123.9320   60.3660 C   0  0  0  0  0  0  0  0  0  0  0  0
  126.3040  123.8860   61.5400 C   0  0  0  0  0  0  0  0  0  0  0  0
  124.9120  123.8720   61.4870 C   0  0  0  0  0  0  0  0  0  0  0  0
  124.2680  123.9060   60.2550 C   0  0  0  0  0  0  0  0  0  0  0  0
  125.0050  123.9560   59.0770 C   0  0  0  0  0  0  0  0  0  0  0  0
  126.3960  123.9700   59.1330 C   0  0  0  0  0  0  0  0  0  0  0  0
  129.3710  124.2370   59.3190 C   0  0  0  0  0  0  0  0  0  0  0  0
  130.7680  124.2450   59.4360 C   0  0  0  0  0  0  0  0  0  0  0  0
  131.6170  124.5620   58.1890 C   0  0  0  0  0  0  0  0  0  0  0  0
  132.6690  123.7450   58.1330 F   0  0  0  0  0  0  0  0  0  0  0  0
  130.8860  124.4020   57.0850 F   0  0  0  0  0  0  0  0  0  0  0  0
  132.0810  125.8140   58.1840 F   0  0  0  0  0  0  0  0  0  0  0  0
  131.3420  123.9620   60.6990 C   0  0  0  0  0  0  0  0  0  0  0  0
  132.7970  123.9560   60.8810 C   0  0  0  0  0  0  0  0  0  0  0  0
  133.9460  123.9490   61.0240 N   0  0  0  0  0  0  0  0  0  0  0  0
  1  2  1  0
  2  3  1  0
  3  4  1  0
  4  5  1  0
  5  6  1  0
  6  7  1  0
  7  8  1  0
  8  9  1  0
  9 10  1  0
 10 11  1  0
 11 12  1  0
 12 13  2  0
 12 14  1  0
 14 15  1  0
 15 16  1  0
 16 17  2  0
 17 18  1  0
 18 19  1  0
 19 20  2  0
 20 21  1  0
 21 22  2  0
 22 23  1  0
 23 24  2  0
 18 25  2  0
 25 26  1  0
 26 27  1  0
 27 28  1  0
 27 29  1  0
 27 30  1  0
 26 31  2  0
 31 32  1  0
 32 33  3  0
 31 16  1  0
 24 19  1  0
M  END
>  <Binding energies>  (31) 
[-6.09]

>  <Ligand effiencies>  (31) 
[-0.17911764705882352]

>  <Interactions>  (31) 
["V-B:GLU:543:CB:9878, V-A:HIS:456:CE1:4068, V-B:GLU:543:CD:9880, V-A:GLU:543:CD:4906, V-B:HIS:456:CE1:9042, V-A:GLY:544:CA:4912, H-A:LYS:547:NZ:4949, V-B:GLY:544:C:9884, V-A:GLY:544:C:4910, V-B:HIS:456:CD2:9040, V-B:GLU:543:CG:9879, V-A:GLU:543:CG:4905, V-A:ARG:545:CG:4920, V-A:LYS:547:CE:4948, H-A:TYR:484:OH:4346, H-B:GLU:543:OE1:9881, H-A:ARG:545:NE:4922, V-A:GLU:543:C:4900, V-B:TYR:539:CZ:9849, V-B:PRO:540:CA:9855, V-A:ASP:366:CG:3211, V-B:TYR:539:CE1:9847, V-B:TYR:539:CE2:9848, V-B:PRO:540:N:9856, V-B:PRO:540:CB:9857, V-A:ASP:366:CB:3210, V-B:ASN:362:C:8144, V-B:ASN:362:CB:8148, V-B:HIS:456:CG:9038, H-B:GLU:543:OE2:9882, V-B:HIS:456:CB:9037"]

$$$$
3bk_Grossjean_2025
     RDKit          3D

 30 31  0  0  0  0  0  0  0  0999 V2000
  133.4850  124.6170   62.6130 C   0  0  0  0  0  0  0  0  0  0  0  0
  133.3310  124.6190   64.0240 O   0  0  0  0  0  0  0  0  0  0  0  0
  132.0260  124.9840   64.4510 C   0  0  0  0  0  0  0  0  0  0  0  0
  132.1110  125.7410   65.7840 C   0  0  0  0  0  0  0  0  0  0  0  0
  130.8080  125.8790   66.3320 O   0  0  0  0  0  0  0  0  0  0  0  0
  130.6280  127.0650   67.0940 C   0  0  0  0  0  0  0  0  0  0  0  0
  129.1930  127.5740   66.9070 C   0  0  0  0  0  0  0  0  0  0  0  0
  128.2860  126.6600   67.5100 O   0  0  0  0  0  0  0  0  0  0  0  0
  127.1230  127.2750   68.0480 C   0  0  0  0  0  0  0  0  0  0  0  0
  127.1940  127.2490   69.5820 C   0  0  0  0  0  0  0  0  0  0  0  0
  128.5390  126.9390   70.0720 N   0  0  0  0  0  0  0  0  0  0  0  0
  129.1700  127.5760   71.0730 C   0  0  0  0  0  0  0  0  0  0  0  0
  128.6720  128.5000   71.7170 O   0  0  0  0  0  0  0  0  0  0  0  0
  130.5750  127.0780   71.4190 C   0  0  0  0  0  0  0  0  0  0  0  0
  130.8630  127.0440   73.2160 S   0  0  0  0  0  0  0  0  0  0  0  0
  131.3960  125.4070   73.6890 C   0  0  0  0  0  0  0  0  0  0  0  0
  130.5450  124.3950   73.3820 N   0  0  0  0  0  0  0  0  0  0  0  0
  130.8670  123.1140   73.7070 C   0  0  0  0  0  0  0  0  0  0  0  0
  129.8820  122.0550   73.3130 C   0  0  0  0  0  0  0  0  0  0  0  0
  129.5180  121.0420   74.2140 C   0  0  0  0  0  0  0  0  0  0  0  0
  128.6080  120.0520   73.8510 C   0  0  0  0  0  0  0  0  0  0  0  0
  128.0460  120.0630   72.5790 C   0  0  0  0  0  0  0  0  0  0  0  0
  128.3860  121.0590   71.6680 C   0  0  0  0  0  0  0  0  0  0  0  0
  129.2960  122.0470   72.0350 C   0  0  0  0  0  0  0  0  0  0  0  0
  132.0730  122.8190   74.3520 C   0  0  0  0  0  0  0  0  0  0  0  0
  132.9610  123.8510   74.6770 C   0  0  0  0  0  0  0  0  0  0  0  0
  134.2660  123.4850   75.3820 C   0  0  0  0  0  0  0  0  0  0  0  0
  132.6260  125.1800   74.3430 C   0  0  0  0  0  0  0  0  0  0  0  0
  133.5370  126.2800   74.6690 C   0  0  0  0  0  0  0  0  0  0  0  0
  134.2570  127.1490   74.9270 N   0  0  0  0  0  0  0  0  0  0  0  0
  1  2  1  0
  2  3  1  0
  3  4  1  0
  4  5  1  0
  5  6  1  0
  6  7  1  0
  7  8  1  0
  8  9  1  0
  9 10  1  0
 10 11  1  0
 11 12  1  0
 12 13  2  0
 12 14  1  0
 14 15  1  0
 15 16  1  0
 16 17  2  0
 17 18  1  0
 18 19  1  0
 19 20  2  0
 20 21  1  0
 21 22  2  0
 22 23  1  0
 23 24  2  0
 18 25  2  0
 25 26  1  0
 26 27  1  0
 26 28  2  0
 28 29  1  0
 29 30  3  0
 28 16  1  0
 24 19  1  0
M  END
>  <Binding energies>  (32) 
[-8.1]

>  <Ligand effiencies>  (32) 
[-0.26129032258064516]

>  <Interactions>  (32) 
["V-A:HIS:456:CE1:4068, V-A:HIS:456:CD2:4066, V-B:GLU:543:CD:9880, H-A:HIS:456:NE2:4069, V-A:GLU:543:CD:4906, V-B:HIS:456:CE1:9042, V-A:GLY:544:CA:4912, H-A:LYS:547:NZ:4949, V-B:GLY:544:C:9884, V-A:GLY:544:C:4910, H-B:GLU:543:O:9875, V-B:GLU:543:CG:9879, V-A:GLU:543:CG:4905, H-A:GLY:454:N:4048, H-B:LYS:547:NZ:9923, V-B:GLU:543:C:9874, V-A:ARG:545:CZ:4924, V-A:ARG:545:CG:4920, H-A:TYR:484:OH:4346, V-A:ARG:545:CD:4921, V-A:HIS:456:CG:4064, V-A:HIS:456:CB:4063, V-B:GLY:544:CA:9886, V-A:LYS:547:CD:4947, V-A:HIS:456:C:4059, V-A:TYR:484:CG:4340, V-A:LYS:471:CE:4218, V-A:TYR:484:CB:4339, V-A:ASP:473:CB:4237, V-A:ASP:473:CG:4238, V-A:GLY:453:CA:4042, V-A:VAL:458:CG2:4085, V-B:ARG:545:CG:9894, V-B:ARG:545:CA:9891, V-A:LYS:471:CD:4217, V-A:LYS:471:CG:4216"]

$$$$
3cb_Grossjean_2025
     RDKit          3D

 30 32  0  0  0  0  0  0  0  0999 V2000
  126.6840  128.4030   73.9340 C   0  0  0  0  0  0  0  0  0  0  0  0
  128.0330  128.2220   73.5300 O   0  0  0  0  0  0  0  0  0  0  0  0
  128.5910  129.0140   72.5780 C   0  0  0  0  0  0  0  0  0  0  0  0
  128.8430  130.2100   72.7510 O   0  0  0  0  0  0  0  0  0  0  0  0
  128.8670  128.2900   71.2910 C   0  0  0  0  0  0  0  0  0  0  0  0
  130.1650  127.9080   70.9160 C   0  0  0  0  0  0  0  0  0  0  0  0
  130.3860  127.2370   69.7180 C   0  0  0  0  0  0  0  0  0  0  0  0
  129.3220  126.9370   68.8670 C   0  0  0  0  0  0  0  0  0  0  0  0
  129.6600  126.2520   67.6820 N   0  0  0  0  0  0  0  0  0  0  0  0
  130.5890  126.5430   66.7460 C   0  0  0  0  0  0  0  0  0  0  0  0
  131.3550  127.5080   66.7880 O   0  0  0  0  0  0  0  0  0  0  0  0
  130.6530  125.5450   65.5800 C   0  0  0  0  0  0  0  0  0  0  0  0
  132.1260  125.7020   64.5130 S   0  0  0  0  0  0  0  0  0  0  0  0
  131.9330  124.5720   63.1500 C   0  0  0  0  0  0  0  0  0  0  0  0
  132.9170  123.6420   63.0770 N   0  0  0  0  0  0  0  0  0  0  0  0
  132.8740  122.7300   62.0800 C   0  0  0  0  0  0  0  0  0  0  0  0
  134.0000  121.7130   62.0680 C   0  0  0  0  0  0  0  0  0  0  0  0
  131.8630  122.7110   61.1240 C   0  0  0  0  0  0  0  0  0  0  0  0
  130.8450  123.6720   61.1700 C   0  0  0  0  0  0  0  0  0  0  0  0
  129.7850  123.6130   60.1170 C   0  0  0  0  0  0  0  0  0  0  0  0
  130.0890  123.9520   58.7930 C   0  0  0  0  0  0  0  0  0  0  0  0
  129.1120  123.8890   57.8020 C   0  0  0  0  0  0  0  0  0  0  0  0
  127.8220  123.4830   58.1340 C   0  0  0  0  0  0  0  0  0  0  0  0
  127.5040  123.1350   59.4430 C   0  0  0  0  0  0  0  0  0  0  0  0
  128.4840  123.1970   60.4310 C   0  0  0  0  0  0  0  0  0  0  0  0
  130.8830  124.6450   62.2020 C   0  0  0  0  0  0  0  0  0  0  0  0
  129.8960  125.7290   62.2440 C   0  0  0  0  0  0  0  0  0  0  0  0
  129.1180  126.5840   62.2780 N   0  0  0  0  0  0  0  0  0  0  0  0
  128.0210  127.3110   69.2350 C   0  0  0  0  0  0  0  0  0  0  0  0
  127.8000  127.9830   70.4350 C   0  0  0  0  0  0  0  0  0  0  0  0
  1  2  1  0
  2  3  1  0
  3  4  2  0
  3  5  1  0
  5  6  2  0
  6  7  1  0
  7  8  2  0
  8  9  1  0
  9 10  1  0
 10 11  2  0
 10 12  1  0
 12 13  1  0
 13 14  1  0
 14 15  2  0
 15 16  1  0
 16 17  1  0
 16 18  2  0
 18 19  1  0
 19 20  1  0
 20 21  2  0
 21 22  1  0
 22 23  2  0
 23 24  1  0
 24 25  2  0
 19 26  2  0
 26 27  1  0
 27 28  3  0
  8 29  1  0
 29 30  2  0
 30  5  1  0
 26 14  1  0
 25 20  1  0
M  END
>  <Binding energies>  (33) 
[-8.28]

>  <Ligand effiencies>  (33) 
[-0.2670967741935484]

>  <Interactions>  (33) 
["V-B:GLU:543:CB:9878, V-A:HIS:456:CE1:4068, V-A:HIS:456:CD2:4066, V-B:GLU:543:CD:9880, H-A:HIS:456:NE2:4069, V-A:GLU:543:CD:4906, V-B:HIS:456:CE1:9042, V-A:GLY:544:CA:4912, H-A:LYS:547:NZ:4949, V-B:GLY:544:C:9884, V-A:GLY:544:C:4910, H-B:GLU:543:O:9875, V-B:HIS:456:CD2:9040, V-B:GLU:543:CG:9879, V-A:GLU:543:CG:4905, H-A:GLY:454:N:4048, V-B:GLU:543:C:9874, V-A:LYS:547:CE:4948, H-A:TYR:484:OH:4346, V-B:LYS:547:CE:9922, H-A:ARG:545:NE:4922, V-A:GLU:543:C:4900, V-B:TYR:539:CZ:9849, V-B:PRO:540:C:9853, V-A:ILE:369:CD1:3237, V-A:LEU:475:CD2:4257, V-B:PRO:540:CA:9855, V-B:TYR:539:C:9839, V-A:GLY:454:CA:4047, V-B:TYR:539:CD2:9846, V-B:TYR:539:CE2:9848, V-B:PRO:540:N:9856, H-A:ARG:545:NH2:4926, V-B:HIS:456:CG:9038, H-B:GLU:543:OE2:9882, V-B:HIS:456:CB:9037"]

$$$$
3ch_Grossjean_2025
     RDKit          3D

 32 34  0  0  0  0  0  0  0  0999 V2000
  134.3690  123.8740   60.5940 C   0  0  0  0  0  0  0  0  0  0  0  0
  134.1540  124.2070   61.9610 O   0  0  0  0  0  0  0  0  0  0  0  0
  132.9820  124.8400   62.3340 C   0  0  0  0  0  0  0  0  0  0  0  0
  132.1050  125.4620   61.4310 C   0  0  0  0  0  0  0  0  0  0  0  0
  130.9280  126.0780   61.8800 C   0  0  0  0  0  0  0  0  0  0  0  0
  129.9870  126.7200   61.0530 N   0  0  0  0  0  0  0  0  0  0  0  0
  130.1350  127.2250   59.8090 C   0  0  0  0  0  0  0  0  0  0  0  0
  131.1710  127.1960   59.1450 O   0  0  0  0  0  0  0  0  0  0  0  0
  128.8780  127.8380   59.1920 C   0  0  0  0  0  0  0  0  0  0  0  0
  127.7830  126.5790   58.4720 S   0  0  0  0  0  0  0  0  0  0  0  0
  127.9340  125.1410   59.5100 C   0  0  0  0  0  0  0  0  0  0  0  0
  126.9270  125.0030   60.4080 N   0  0  0  0  0  0  0  0  0  0  0  0
  126.9530  123.9450   61.2490 C   0  0  0  0  0  0  0  0  0  0  0  0
  125.8000  123.8540   62.2310 C   0  0  0  0  0  0  0  0  0  0  0  0
  127.9710  122.9950   61.2310 C   0  0  0  0  0  0  0  0  0  0  0  0
  129.0170  123.1170   60.3050 C   0  0  0  0  0  0  0  0  0  0  0  0
  130.0940  122.0800   60.3290 C   0  0  0  0  0  0  0  0  0  0  0  0
  131.4200  122.4370   60.0600 C   0  0  0  0  0  0  0  0  0  0  0  0
  132.4270  121.4760   60.0720 C   0  0  0  0  0  0  0  0  0  0  0  0
  132.1090  120.1480   60.3500 C   0  0  0  0  0  0  0  0  0  0  0  0
  130.7940  119.7760   60.6130 C   0  0  0  0  0  0  0  0  0  0  0  0
  129.7900  120.7410   60.5990 C   0  0  0  0  0  0  0  0  0  0  0  0
  128.9940  124.2110   59.4020 C   0  0  0  0  0  0  0  0  0  0  0  0
  130.0100  124.3360   58.3530 C   0  0  0  0  0  0  0  0  0  0  0  0
  130.8120  124.4360   57.5250 N   0  0  0  0  0  0  0  0  0  0  0  0
  130.6430  126.0840   63.2470 C   0  0  0  0  0  0  0  0  0  0  0  0
  131.5060  125.4700   64.1690 C   0  0  0  0  0  0  0  0  0  0  0  0
  131.2780  125.4340   65.5340 O   0  0  0  0  0  0  0  0  0  0  0  0
  130.1910  126.1710   66.0830 C   0  0  0  0  0  0  0  0  0  0  0  0
  132.6730  124.8540   63.7000 C   0  0  0  0  0  0  0  0  0  0  0  0
  133.5170  124.2350   64.5910 O   0  0  0  0  0  0  0  0  0  0  0  0
  134.0080  125.0900   65.6140 C   0  0  0  0  0  0  0  0  0  0  0  0
  1  2  1  0
  2  3  1  0
  3  4  2  0
  4  5  1  0
  5  6  1  0
  6  7  1  0
  7  8  2  0
  7  9  1  0
  9 10  1  0
 10 11  1  0
 11 12  2  0
 12 13  1  0
 13 14  1  0
 13 15  2  0
 15 16  1  0
 16 17  1  0
 17 18  2  0
 18 19  1  0
 19 20  2  0
 20 21  1  0
 21 22  2  0
 16 23  2  0
 23 24  1  0
 24 25  3  0
  5 26  2  0
 26 27  1  0
 27 28  1  0
 28 29  1  0
 27 30  2  0
 30 31  1  0
 31 32  1  0
 30  3  1  0
 23 11  1  0
 22 17  1  0
M  END
>  <Binding energies>  (34) 
[-5.72]

>  <Ligand effiencies>  (34) 
[-0.17333333333333334]

>  <Interactions>  (34) 
["V-B:GLU:543:CB:9878, V-A:HIS:456:CE1:4068, V-B:GLU:543:CD:9880, V-A:GLU:543:CD:4906, V-B:GLU:543:CG:9879, H-A:GLY:454:N:4048, V-A:ARG:545:CZ:4924, V-A:ARG:545:CG:4920, H-A:TYR:484:OH:4346, V-A:ARG:545:CD:4921, H-B:GLU:543:OE1:9881, V-B:PRO:540:C:9853, V-A:GLY:453:C:4040, V-A:TRP:381:CZ2:3368, V-A:ILE:369:CD1:3237, V-A:LEU:475:CD2:4257, V-A:TRP:381:CH2:3370, V-B:PRO:540:CA:9855, V-A:GLY:453:CA:4042, V-B:TYR:539:C:9839, V-B:ALA:541:CA:9862, V-A:ASP:366:CG:3211, V-A:GLY:454:CA:4047, V-B:ALA:541:CB:9864, V-B:TYR:539:CD2:9846, V-B:TYR:539:CE2:9848, V-A:ILE:369:CG2:3235, H-B:TYR:539:OH:9850, V-B:ALA:541:C:9860"]

$$$$
3ci_Grossjean_2025
     RDKit          3D

 25 27  0  0  0  0  0  0  0  0999 V2000
  130.6220  121.1490   61.5000 C   0  0  0  0  0  0  0  0  0  0  0  0
  130.4350  122.1220   60.3510 C   0  0  0  0  0  0  0  0  0  0  0  0
  129.1850  122.3550   59.7860 C   0  0  0  0  0  0  0  0  0  0  0  0
  129.0590  123.2750   58.7370 C   0  0  0  0  0  0  0  0  0  0  0  0
  127.6950  123.5050   58.1720 C   0  0  0  0  0  0  0  0  0  0  0  0
  126.6760  124.0520   58.9620 C   0  0  0  0  0  0  0  0  0  0  0  0
  125.4040  124.2560   58.4330 C   0  0  0  0  0  0  0  0  0  0  0  0
  125.1440  123.9060   57.1110 C   0  0  0  0  0  0  0  0  0  0  0  0
  126.1440  123.3520   56.3150 C   0  0  0  0  0  0  0  0  0  0  0  0
  127.4140  123.1510   56.8470 C   0  0  0  0  0  0  0  0  0  0  0  0
  130.2270  123.9350   58.2760 C   0  0  0  0  0  0  0  0  0  0  0  0
  130.1650  124.8760   57.1520 C   0  0  0  0  0  0  0  0  0  0  0  0
  130.1130  125.6200   56.2660 N   0  0  0  0  0  0  0  0  0  0  0  0
  131.4590  123.6430   58.9100 C   0  0  0  0  0  0  0  0  0  0  0  0
  132.9890  124.4320   58.4240 S   0  0  0  0  0  0  0  0  0  0  0  0
  134.3470  123.8260   59.4780 C   0  0  0  0  0  0  0  0  0  0  0  0
  133.9420  123.6430   60.9460 C   0  0  0  0  0  0  0  0  0  0  0  0
  133.9470  122.5120   61.4350 O   0  0  0  0  0  0  0  0  0  0  0  0
  133.5880  124.7710   61.6010 N   0  0  0  0  0  0  0  0  0  0  0  0
  133.2110  124.8870   62.9320 C   0  0  0  0  0  0  0  0  0  0  0  0
  131.8800  124.8780   63.3490 C   0  0  0  0  0  0  0  0  0  0  0  0
  131.9330  125.0170   64.7170 C   0  0  0  0  0  0  0  0  0  0  0  0
  133.2290  125.1030   65.1030 O   0  0  0  0  0  0  0  0  0  0  0  0
  134.0290  125.0200   63.9630 N   0  0  0  0  0  0  0  0  0  0  0  0
  131.5550  122.7460   59.9240 N   0  0  0  0  0  0  0  0  0  0  0  0
  1  2  1  0
  2  3  2  0
  3  4  1  0
  4  5  1  0
  5  6  2  0
  6  7  1  0
  7  8  2  0
  8  9  1  0
  9 10  2  0
  4 11  2  0
 11 12  1  0
 12 13  3  0
 11 14  1  0
 14 15  1  0
 15 16  1  0
 16 17  1  0
 17 18  2  0
 17 19  1  0
 19 20  1  0
 20 21  1  0
 21 22  2  0
 22 23  1  0
 23 24  1  0
 14 25  2  0
 25  2  1  0
 10  5  1  0
 24 20  2  0
M  END
>  <Binding energies>  (35) 
[-8.29]

>  <Ligand effiencies>  (35) 
[-0.31884615384615383]

>  <Interactions>  (35) 
["H-A:GLY:454:N:4048, V-A:ARG:545:CZ:4924, H-A:TYR:484:OH:4346, H-A:ARG:545:NH1:4925, H-A:ARG:545:NE:4922, V-B:TYR:539:CZ:9849, V-A:ILE:369:CD1:3237, V-A:LEU:475:CD2:4257, V-B:PRO:540:CA:9855, V-B:TYR:539:C:9839, V-A:ASP:366:CG:3211, V-B:PRO:540:CD:9859, V-B:ALA:541:CB:9864, V-B:TYR:539:CD2:9846, V-B:TYR:539:CE2:9848, V-A:ILE:369:CG2:3235, V-B:PRO:540:N:9856, V-B:PRO:540:CB:9857, V-A:ASP:366:CA:3208, V-A:ASP:366:CB:3210, V-A:ILE:369:CG1:3236, V-A:ILE:369:CB:3234, H-A:ARG:545:NH2:4926, H-B:TYR:539:OH:9850, H-A:ASP:366:OD2:3213, H-A:ASP:366:OD1:3212"]

$$$$
3ck_Grossjean_2025
     RDKit          3D

 30 31  0  0  0  0  0  0  0  0999 V2000
  127.3500  128.3860   72.8240 C   0  0  0  0  0  0  0  0  0  0  0  0
  128.7280  128.7150   72.7460 O   0  0  0  0  0  0  0  0  0  0  0  0
  129.3730  128.1810   71.5980 C   0  0  0  0  0  0  0  0  0  0  0  0
  128.3190  127.6640   70.6100 C   0  0  0  0  0  0  0  0  0  0  0  0
  128.8590  127.6810   69.2950 O   0  0  0  0  0  0  0  0  0  0  0  0
  127.9370  127.2840   68.2880 C   0  0  0  0  0  0  0  0  0  0  0  0
  127.9980  128.2870   67.1290 C   0  0  0  0  0  0  0  0  0  0  0  0
  126.7670  128.2310   66.4240 O   0  0  0  0  0  0  0  0  0  0  0  0
  126.3160  129.4760   65.9140 C   0  0  0  0  0  0  0  0  0  0  0  0
  126.0700  129.3540   64.3980 C   0  0  0  0  0  0  0  0  0  0  0  0
  127.2010  128.7810   63.6620 N   0  0  0  0  0  0  0  0  0  0  0  0
  127.6670  129.2170   62.4780 C   0  0  0  0  0  0  0  0  0  0  0  0
  127.1970  130.1880   61.8820 O   0  0  0  0  0  0  0  0  0  0  0  0
  128.8490  128.4220   61.8990 C   0  0  0  0  0  0  0  0  0  0  0  0
  128.4940  126.6800   61.4840 S   0  0  0  0  0  0  0  0  0  0  0  0
  129.7820  125.6430   62.1610 C   0  0  0  0  0  0  0  0  0  0  0  0
  130.2670  126.0240   63.3690 N   0  0  0  0  0  0  0  0  0  0  0  0
  131.2470  125.2870   63.9380 C   0  0  0  0  0  0  0  0  0  0  0  0
  131.7400  125.7760   65.2860 C   0  0  0  0  0  0  0  0  0  0  0  0
  131.7790  124.1520   63.3340 C   0  0  0  0  0  0  0  0  0  0  0  0
  131.2980  123.7420   62.0830 C   0  0  0  0  0  0  0  0  0  0  0  0
  131.9140  122.5320   61.4620 C   0  0  0  0  0  0  0  0  0  0  0  0
  133.3060  122.4330   61.3470 C   0  0  0  0  0  0  0  0  0  0  0  0
  133.8880  121.3110   60.7590 C   0  0  0  0  0  0  0  0  0  0  0  0
  133.0780  120.2870   60.2790 C   0  0  0  0  0  0  0  0  0  0  0  0
  131.6910  120.3750   60.3790 C   0  0  0  0  0  0  0  0  0  0  0  0
  131.1130  121.4960   60.9660 C   0  0  0  0  0  0  0  0  0  0  0  0
  130.2610  124.5000   61.4800 C   0  0  0  0  0  0  0  0  0  0  0  0
  129.6890  124.0950   60.1910 C   0  0  0  0  0  0  0  0  0  0  0  0
  129.2380  123.7740   59.1740 N   0  0  0  0  0  0  0  0  0  0  0  0
  1  2  1  0
  2  3  1  0
  3  4  1  0
  4  5  1  0
  5  6  1  0
  6  7  1  0
  7  8  1  0
  8  9  1  0
  9 10  1  0
 10 11  1  0
 11 12  1  0
 12 13  2  0
 12 14  1  0
 14 15  1  0
 15 16  1  0
 16 17  2  0
 17 18  1  0
 18 19  1  0
 18 20  2  0
 20 21  1  0
 21 22  1  0
 22 23  2  0
 23 24  1  0
 24 25  2  0
 25 26  1  0
 26 27  2  0
 21 28  2  0
 28 29  1  0
 29 30  3  0
 28 16  1  0
 27 22  1  0
M  END
>  <Binding energies>  (36) 
[-6.0]

>  <Ligand effiencies>  (36) 
[-0.1935483870967742]

>  <Interactions>  (36) 
["V-B:ARG:545:CZ:9898, V-A:HIS:456:CE1:4068, V-B:GLU:543:CD:9880, V-A:GLU:543:CD:4906, V-B:HIS:456:CE1:9042, V-A:GLY:544:CA:4912, H-A:LYS:547:NZ:4949, V-B:GLY:544:C:9884, V-A:GLY:544:C:4910, H-B:ARG:545:NE:9896, V-B:HIS:456:CD2:9040, V-A:GLU:543:CB:4904, V-B:GLU:543:CG:9879, V-A:GLU:543:CG:4905, V-B:GLU:543:C:9874, V-A:ARG:545:CZ:4924, V-A:ARG:545:CG:4920, V-A:ARG:545:CD:4921, H-B:GLU:543:OE1:9881, V-A:TRP:381:CZ2:3368, V-A:ILE:369:CD1:3237, V-A:LEU:475:CD2:4257, V-A:TRP:381:CH2:3370, V-B:TYR:539:CD2:9846, V-B:TYR:539:CE2:9848, V-A:ILE:369:CG2:3235, H-A:GLU:543:OE2:4908, H-A:GLU:543:OE1:4907, V-B:HIS:456:CG:9038, H-B:GLU:543:OE2:9882"]

$$$$
4aa_Grossjean_2025
     RDKit          3D

 26 28  0  0  0  0  0  0  0  0999 V2000
  129.4890  126.1570   72.1650 C   0  0  0  0  0  0  0  0  0  0  0  0
  129.8960  127.5980   72.4860 C   0  0  0  0  0  0  0  0  0  0  0  0
  129.3130  128.4770   71.5320 O   0  0  0  0  0  0  0  0  0  0  0  0
  128.4140  128.0250   70.6190 C   0  0  0  0  0  0  0  0  0  0  0  0
  127.2020  127.9440   70.8410 O   0  0  0  0  0  0  0  0  0  0  0  0
  129.0420  127.6300   69.3140 C   0  0  0  0  0  0  0  0  0  0  0  0
  128.2190  127.2470   68.2470 C   0  0  0  0  0  0  0  0  0  0  0  0
  128.7710  126.8700   67.0260 C   0  0  0  0  0  0  0  0  0  0  0  0
  130.1540  126.8760   66.8430 C   0  0  0  0  0  0  0  0  0  0  0  0
  130.6050  126.4690   65.5730 N   0  0  0  0  0  0  0  0  0  0  0  0
  131.7310  125.8040   65.2170 C   0  0  0  0  0  0  0  0  0  0  0  0
  132.6140  125.4670   66.0060 O   0  0  0  0  0  0  0  0  0  0  0  0
  131.8600  125.5160   63.7870 C   0  0  0  0  0  0  0  0  0  0  0  0
  133.2580  124.6210   63.1830 S   0  0  0  0  0  0  0  0  0  0  0  0
  132.6890  124.7560   61.5340 C   0  0  0  0  0  0  0  0  0  0  0  0
  133.3650  124.2330   60.5100 N   0  0  0  0  0  0  0  0  0  0  0  0
  132.8170  124.4120   59.2830 C   0  0  0  0  0  0  0  0  0  0  0  0
  133.6040  123.8140   58.1310 C   0  0  0  0  0  0  0  0  0  0  0  0
  131.6210  125.0900   59.0590 C   0  0  0  0  0  0  0  0  0  0  0  0
  130.9140  125.6350   60.1370 C   0  0  0  0  0  0  0  0  0  0  0  0
  129.6120  126.3670   59.8420 C   0  0  0  0  0  0  0  0  0  0  0  0
  131.4580  125.4730   61.4390 C   0  0  0  0  0  0  0  0  0  0  0  0
  131.0110  125.8980   62.7380 C   0  0  0  0  0  0  0  0  0  0  0  0
  129.8510  126.6110   62.9140 N   0  0  0  0  0  0  0  0  0  0  0  0
  130.9870  127.2520   67.9070 C   0  0  0  0  0  0  0  0  0  0  0  0
  130.4330  127.6260   69.1290 C   0  0  0  0  0  0  0  0  0  0  0  0
  1  2  1  0
  2  3  1  0
  3  4  1  0
  4  5  2  0
  4  6  1  0
  6  7  2  0
  7  8  1  0
  8  9  2  0
  9 10  1  0
 10 11  1  0
 11 12  2  0
 11 13  1  0
 13 14  1  0
 14 15  1  0
 15 16  2  0
 16 17  1  0
 17 18  1  0
 17 19  2  0
 19 20  1  0
 20 21  1  0
 20 22  2  0
 22 23  1  0
 23 24  1  0
  9 25  1  0
 25 26  2  0
 26  6  1  0
 23 13  2  0
 22 15  1  0
M  END
>  <Binding energies>  (37) 
[-7.21]

>  <Ligand effiencies>  (37) 
[-0.24862068965517242]

>  <Interactions>  (37) 
["V-B:GLU:543:CB:9878, V-A:HIS:456:CE1:4068, V-A:HIS:456:CD2:4066, V-B:GLU:543:CD:9880, V-A:GLU:543:CD:4906, V-B:HIS:456:CE1:9042, V-A:GLY:544:C:4910, V-B:HIS:456:CD2:9040, V-B:GLU:543:CG:9879, V-A:GLU:543:CG:4905, V-B:GLU:543:C:9874, V-A:ARG:545:CZ:4924, V-A:ARG:545:CG:4920, V-A:LYS:547:CE:4948, H-A:TYR:484:OH:4346, V-A:ARG:545:CD:4921, V-B:LYS:547:CE:9922, H-B:GLU:543:OE1:9881, H-A:ARG:545:NE:4922, V-A:GLU:543:C:4900, V-B:TYR:539:CZ:9849, V-A:ASP:366:CG:3211, V-B:TYR:539:CE2:9848, V-A:ILE:369:CG2:3235, V-A:ASP:366:CA:3208, V-A:ASP:366:CB:3210, V-A:ILE:369:CB:3234, H-A:GLU:543:OE2:4908, H-A:GLU:543:OE1:4907, H-B:HIS:456:ND1:9039, H-B:GLU:543:OE2:9882, H-B:ARG:545:N:9892, H-A:HIS:456:ND1:4065"]

$$$$
4ab_Grossjean_2025
     RDKit          3D

 25 27  0  0  0  0  0  0  0  0999 V2000
  130.0710  127.1660   72.5260 C   0  0  0  0  0  0  0  0  0  0  0  0
  129.4320  128.2880   71.9330 O   0  0  0  0  0  0  0  0  0  0  0  0
  128.3880  128.1270   71.0800 C   0  0  0  0  0  0  0  0  0  0  0  0
  127.2120  128.3290   71.3970 O   0  0  0  0  0  0  0  0  0  0  0  0
  128.8070  127.6720   69.7110 C   0  0  0  0  0  0  0  0  0  0  0  0
  130.1710  127.6270   69.3930 C   0  0  0  0  0  0  0  0  0  0  0  0
  130.5900  127.2120   68.1320 C   0  0  0  0  0  0  0  0  0  0  0  0
  129.6590  126.8250   67.1690 C   0  0  0  0  0  0  0  0  0  0  0  0
  130.1930  126.4300   65.9270 N   0  0  0  0  0  0  0  0  0  0  0  0
  131.4580  126.0750   65.5940 C   0  0  0  0  0  0  0  0  0  0  0  0
  132.4090  126.0830   66.3760 O   0  0  0  0  0  0  0  0  0  0  0  0
  131.6490  125.6890   64.1950 C   0  0  0  0  0  0  0  0  0  0  0  0
  133.0950  124.8020   63.7050 S   0  0  0  0  0  0  0  0  0  0  0  0
  132.5830  124.7960   62.0330 C   0  0  0  0  0  0  0  0  0  0  0  0
  133.3130  124.2260   61.0730 N   0  0  0  0  0  0  0  0  0  0  0  0
  132.8040  124.2930   59.8190 C   0  0  0  0  0  0  0  0  0  0  0  0
  133.6520  123.6430   58.7410 C   0  0  0  0  0  0  0  0  0  0  0  0
  131.5940  124.9080   59.5050 C   0  0  0  0  0  0  0  0  0  0  0  0
  130.8310  125.5060   60.5150 C   0  0  0  0  0  0  0  0  0  0  0  0
  129.5180  126.1660   60.1220 C   0  0  0  0  0  0  0  0  0  0  0  0
  131.3340  125.4590   61.8440 C   0  0  0  0  0  0  0  0  0  0  0  0
  130.8270  125.9640   63.0910 C   0  0  0  0  0  0  0  0  0  0  0  0
  129.6400  126.6480   63.1750 N   0  0  0  0  0  0  0  0  0  0  0  0
  128.2910  126.8710   67.4760 C   0  0  0  0  0  0  0  0  0  0  0  0
  127.8730  127.2900   68.7370 C   0  0  0  0  0  0  0  0  0  0  0  0
  1  2  1  0
  2  3  1  0
  3  4  2  0
  3  5  1  0
  5  6  2  0
  6  7  1  0
  7  8  2  0
  8  9  1  0
  9 10  1  0
 10 11  2  0
 10 12  1  0
 12 13  1  0
 13 14  1  0
 14 15  2  0
 15 16  1  0
 16 17  1  0
 16 18  2  0
 18 19  1  0
 19 20  1  0
 19 21  2  0
 21 22  1  0
 22 23  1  0
  8 24  1  0
 24 25  2  0
 25  5  1  0
 22 12  2  0
 21 14  1  0
M  END
>  <Binding energies>  (38) 
[-6.92]

>  <Ligand effiencies>  (38) 
[-0.24714285714285714]

>  <Interactions>  (38) 
["V-B:GLU:543:CB:9878, V-A:HIS:456:CE1:4068, V-B:GLU:543:CD:9880, V-A:GLU:543:CD:4906, V-B:HIS:456:CE1:9042, V-A:GLY:544:C:4910, V-B:HIS:456:CD2:9040, V-B:GLU:543:CG:9879, V-A:GLU:543:CG:4905, V-B:GLU:543:C:9874, V-A:ARG:545:CZ:4924, V-A:ARG:545:CG:4920, V-A:LYS:547:CE:4948, H-A:TYR:484:OH:4346, H-B:GLU:543:OE1:9881, H-A:ARG:545:NE:4922, V-A:GLU:543:C:4900, V-A:ILE:369:CD1:3237, V-A:ASP:366:CG:3211, V-B:TYR:539:CE2:9848, V-A:ILE:369:CG2:3235, V-A:ASP:366:CA:3208, V-A:ILE:369:CB:3234, H-A:GLU:543:OE2:4908, H-A:GLU:543:OE1:4907, H-B:HIS:456:ND1:9039, H-B:GLU:543:OE2:9882, H-A:HIS:456:ND1:4065"]

$$$$
4ac_Grossjean_2025
     RDKit          3D

 23 25  0  0  0  0  0  0  0  0999 V2000
  128.6130  127.8390   72.1540 C   0  0  0  0  0  0  0  0  0  0  0  0
  127.9650  128.0370   70.9010 O   0  0  0  0  0  0  0  0  0  0  0  0
  128.6160  127.6690   69.7400 C   0  0  0  0  0  0  0  0  0  0  0  0
  127.8090  127.3200   68.6580 C   0  0  0  0  0  0  0  0  0  0  0  0
  128.3760  126.9360   67.4450 C   0  0  0  0  0  0  0  0  0  0  0  0
  129.7630  126.9050   67.2970 C   0  0  0  0  0  0  0  0  0  0  0  0
  130.2450  126.4920   66.0410 N   0  0  0  0  0  0  0  0  0  0  0  0
  130.6390  125.2600   65.6370 C   0  0  0  0  0  0  0  0  0  0  0  0
  130.6630  124.2700   66.3700 O   0  0  0  0  0  0  0  0  0  0  0  0
  131.0570  125.1630   64.2360 C   0  0  0  0  0  0  0  0  0  0  0  0
  132.3070  124.0150   63.7560 S   0  0  0  0  0  0  0  0  0  0  0  0
  132.1970  124.5200   62.0850 C   0  0  0  0  0  0  0  0  0  0  0  0
  132.9560  123.9780   61.1320 N   0  0  0  0  0  0  0  0  0  0  0  0
  132.7720  124.4600   59.8790 C   0  0  0  0  0  0  0  0  0  0  0  0
  133.6440  123.8300   58.8090 C   0  0  0  0  0  0  0  0  0  0  0  0
  131.8580  125.4630   59.5600 C   0  0  0  0  0  0  0  0  0  0  0  0
  131.0640  126.0300   60.5630 C   0  0  0  0  0  0  0  0  0  0  0  0
  130.0810  127.1210   60.1660 C   0  0  0  0  0  0  0  0  0  0  0  0
  131.2270  125.5480   61.8900 C   0  0  0  0  0  0  0  0  0  0  0  0
  130.5900  125.8950   63.1320 C   0  0  0  0  0  0  0  0  0  0  0  0
  129.6160  126.8580   63.2110 N   0  0  0  0  0  0  0  0  0  0  0  0
  130.5820  127.2420   68.3840 C   0  0  0  0  0  0  0  0  0  0  0  0
  130.0120  127.6250   69.5960 C   0  0  0  0  0  0  0  0  0  0  0  0
  1  2  1  0
  2  3  1  0
  3  4  2  0
  4  5  1  0
  5  6  2  0
  6  7  1  0
  7  8  1  0
  8  9  2  0
  8 10  1  0
 10 11  1  0
 11 12  1  0
 12 13  2  0
 13 14  1  0
 14 15  1  0
 14 16  2  0
 16 17  1  0
 17 18  1  0
 17 19  2  0
 19 20  1  0
 20 21  1  0
  6 22  1  0
 22 23  2  0
 23  3  1  0
 20 10  2  0
 19 12  1  0
M  END
>  <Binding energies>  (39) 
[-6.63]

>  <Ligand effiencies>  (39) 
[-0.255]

>  <Interactions>  (39) 
["V-B:GLU:543:CB:9878, V-A:HIS:456:CE1:4068, V-B:GLU:543:CD:9880, V-A:GLU:543:CD:4906, V-B:HIS:456:CE1:9042, V-A:GLY:544:C:4910, V-B:GLU:543:CG:9879, V-A:GLU:543:CG:4905, V-B:GLU:543:C:9874, V-A:ARG:545:CG:4920, H-A:TYR:484:OH:4346, H-B:GLU:543:OE1:9881, V-A:GLU:543:C:4900, V-A:ILE:369:CD1:3237, V-A:ASP:366:CG:3211, V-B:TYR:539:CE2:9848, V-A:ILE:369:CG2:3235, V-A:ASP:366:CA:3208, V-A:ASP:366:CB:3210, V-A:ILE:369:CB:3234, H-A:GLU:543:OE2:4908, H-A:GLU:543:OE1:4907, H-B:GLU:543:OE2:9882"]

$$$$
4ad_Grossjean_2025
     RDKit          3D

 21 23  0  0  0  0  0  0  0  0999 V2000
  125.8390  116.8520   70.5190 C   0  0  0  0  0  0  0  0  0  0  0  0
  126.6740  117.7120   71.4480 C   0  0  0  0  0  0  0  0  0  0  0  0
  127.0020  117.2760   72.7300 C   0  0  0  0  0  0  0  0  0  0  0  0
  127.7720  118.0890   73.5710 C   0  0  0  0  0  0  0  0  0  0  0  0
  128.1010  117.5700   74.9630 C   0  0  0  0  0  0  0  0  0  0  0  0
  128.1940  119.3490   73.0700 C   0  0  0  0  0  0  0  0  0  0  0  0
  128.9770  120.4100   73.6460 C   0  0  0  0  0  0  0  0  0  0  0  0
  129.4890  120.3330   74.9170 N   0  0  0  0  0  0  0  0  0  0  0  0
  129.1620  121.5100   72.7940 C   0  0  0  0  0  0  0  0  0  0  0  0
  129.8840  122.7560   73.0590 C   0  0  0  0  0  0  0  0  0  0  0  0
  129.3920  123.8440   72.7540 O   0  0  0  0  0  0  0  0  0  0  0  0
  131.0920  122.6120   73.6580 N   0  0  0  0  0  0  0  0  0  0  0  0
  132.0420  123.5920   74.0060 C   0  0  0  0  0  0  0  0  0  0  0  0
  131.7330  124.9030   73.6300 C   0  0  0  0  0  0  0  0  0  0  0  0
  132.6040  125.9440   73.9380 C   0  0  0  0  0  0  0  0  0  0  0  0
  133.7830  125.6770   74.6290 C   0  0  0  0  0  0  0  0  0  0  0  0
  134.0950  124.3770   75.0210 C   0  0  0  0  0  0  0  0  0  0  0  0
  133.2270  123.3330   74.7140 C   0  0  0  0  0  0  0  0  0  0  0  0
  128.3670  121.2530   71.2400 S   0  0  0  0  0  0  0  0  0  0  0  0
  127.7920  119.6800   71.7400 C   0  0  0  0  0  0  0  0  0  0  0  0
  127.0590  118.9070   70.9370 N   0  0  0  0  0  0  0  0  0  0  0  0
  1  2  1  0
  2  3  2  0
  3  4  1  0
  4  5  1  0
  4  6  2  0
  6  7  1  0
  7  8  1  0
  7  9  2  0
  9 10  1  0
 10 11  2  0
 10 12  1  0
 12 13  1  0
 13 14  2  0
 14 15  1  0
 15 16  2  0
 16 17  1  0
 17 18  2  0
  9 19  1  0
 19 20  1  0
 20 21  2  0
 21  2  1  0
 20  6  1  0
 18 13  1  0
M  END
>  <Binding energies>  (40) 
[-7.13]

>  <Ligand effiencies>  (40) 
[-0.2970833333333333]

>  <Interactions>  (40) 
["V-A:HIS:456:CD2:4066, H-B:LYS:547:NZ:9923, V-B:GLU:543:C:9874, V-A:HIS:456:CG:4064, V-A:HIS:456:CB:4063, V-B:LYS:547:CE:9922, V-B:GLY:544:CA:9886, V-A:HIS:456:C:4059, V-A:TYR:484:CG:4340, V-A:LYS:471:CE:4218, V-A:TYR:484:CB:4339, V-A:HIS:456:CA:4061, V-B:GLU:543:CA:9876, V-A:ASP:473:CG:4238, V-A:TYR:484:CD1:4341, V-A:VAL:457:C:4071, V-A:VAL:458:CG2:4085, H-A:ASP:473:OD2:4240, V-B:VAL:542:CG1:9871, H-A:TYR:484:N:4338, V-A:SER:483:CB:4331, V-A:SER:483:CA:4329"]

$$$$
4ae_Grossjean_2025
     RDKit          3D

 22 24  0  0  0  0  0  0  0  0999 V2000
  130.6100  127.2570   70.6430 C   0  0  0  0  0  0  0  0  0  0  0  0
  129.7070  127.2660   69.4250 C   0  0  0  0  0  0  0  0  0  0  0  0
  128.3670  127.6500   69.5110 C   0  0  0  0  0  0  0  0  0  0  0  0
  127.5940  127.6260   68.3500 C   0  0  0  0  0  0  0  0  0  0  0  0
  128.1720  127.2220   67.1450 C   0  0  0  0  0  0  0  0  0  0  0  0
  129.5220  126.8570   67.1270 C   0  0  0  0  0  0  0  0  0  0  0  0
  130.0420  126.4400   65.8890 N   0  0  0  0  0  0  0  0  0  0  0  0
  130.5450  125.2290   65.5450 C   0  0  0  0  0  0  0  0  0  0  0  0
  130.6260  124.2740   66.3200 O   0  0  0  0  0  0  0  0  0  0  0  0
  131.0060  125.1110   64.1600 C   0  0  0  0  0  0  0  0  0  0  0  0
  132.2910  123.9760   63.7420 S   0  0  0  0  0  0  0  0  0  0  0  0
  132.2480  124.4700   62.0660 C   0  0  0  0  0  0  0  0  0  0  0  0
  133.0580  123.9350   61.1520 N   0  0  0  0  0  0  0  0  0  0  0  0
  132.9270  124.4100   59.8900 C   0  0  0  0  0  0  0  0  0  0  0  0
  133.8640  123.7930   58.8670 C   0  0  0  0  0  0  0  0  0  0  0  0
  132.0120  125.3950   59.5230 C   0  0  0  0  0  0  0  0  0  0  0  0
  131.1620  125.9540   60.4850 C   0  0  0  0  0  0  0  0  0  0  0  0
  130.1830  127.0280   60.0370 C   0  0  0  0  0  0  0  0  0  0  0  0
  131.2720  125.4820   61.8210 C   0  0  0  0  0  0  0  0  0  0  0  0
  130.5760  125.8290   63.0320 C   0  0  0  0  0  0  0  0  0  0  0  0
  129.5860  126.7780   63.0630 N   0  0  0  0  0  0  0  0  0  0  0  0
  130.2830  126.8720   68.2600 N   0  0  0  0  0  0  0  0  0  0  0  0
  1  2  1  0
  2  3  2  0
  3  4  1  0
  4  5  2  0
  5  6  1  0
  6  7  1  0
  7  8  1  0
  8  9  2  0
  8 10  1  0
 10 11  1  0
 11 12  1  0
 12 13  2  0
 13 14  1  0
 14 15  1  0
 14 16  2  0
 16 17  1  0
 17 18  1  0
 17 19  2  0
 19 20  1  0
 20 21  1  0
  6 22  2  0
 22  2  1  0
 20 10  2  0
 19 12  1  0
M  END
>  <Binding energies>  (41) 
[-6.82]

>  <Ligand effiencies>  (41) 
[-0.2728]

>  <Interactions>  (41) 
["V-B:GLU:543:CB:9878, V-A:HIS:456:CE1:4068, V-A:HIS:456:CD2:4066, V-B:GLU:543:CD:9880, V-A:GLU:543:CD:4906, V-B:HIS:456:CE1:9042, V-A:GLY:544:CA:4912, V-A:GLY:544:C:4910, V-B:GLU:543:CG:9879, H-A:TYR:484:OH:4346, H-B:GLU:543:OE1:9881, V-A:ILE:369:CD1:3237, V-A:ASP:366:CG:3211, V-B:TYR:539:CE2:9848, V-A:ILE:369:CG2:3235, V-A:ASP:366:CA:3208, V-A:ASP:366:CB:3210, V-A:ILE:369:CB:3234, H-A:GLU:543:OE2:4908, H-A:GLU:543:OE1:4907, H-B:GLU:543:OE2:9882"]

$$$$
4af_Grossjean_2025
     RDKit          3D

 21 23  0  0  0  0  0  0  0  0999 V2000
  125.8100  116.8640   70.5070 C   0  0  0  0  0  0  0  0  0  0  0  0
  126.6560  117.7170   71.4350 C   0  0  0  0  0  0  0  0  0  0  0  0
  126.9940  117.2700   72.7100 C   0  0  0  0  0  0  0  0  0  0  0  0
  127.7730  118.0750   73.5510 C   0  0  0  0  0  0  0  0  0  0  0  0
  128.1150  117.5450   74.9340 C   0  0  0  0  0  0  0  0  0  0  0  0
  128.1930  119.3390   73.0550 C   0  0  0  0  0  0  0  0  0  0  0  0
  128.9810  120.3940   73.6340 C   0  0  0  0  0  0  0  0  0  0  0  0
  129.4990  120.3090   74.9020 N   0  0  0  0  0  0  0  0  0  0  0  0
  129.1640  121.4990   72.7880 C   0  0  0  0  0  0  0  0  0  0  0  0
  129.8780  122.7480   73.0620 C   0  0  0  0  0  0  0  0  0  0  0  0
  129.3880  123.8330   72.7470 O   0  0  0  0  0  0  0  0  0  0  0  0
  131.0740  122.6080   73.6850 N   0  0  0  0  0  0  0  0  0  0  0  0
  132.0180  123.5890   74.0420 C   0  0  0  0  0  0  0  0  0  0  0  0
  133.2330  123.3480   74.7090 C   0  0  0  0  0  0  0  0  0  0  0  0
  134.0730  124.4170   75.0220 C   0  0  0  0  0  0  0  0  0  0  0  0
  133.6780  125.7070   74.6630 C   0  0  0  0  0  0  0  0  0  0  0  0
  132.5080  125.9670   74.0260 N   0  0  0  0  0  0  0  0  0  0  0  0
  131.7010  124.9170   73.7300 C   0  0  0  0  0  0  0  0  0  0  0  0
  128.3540  121.2560   71.2390 S   0  0  0  0  0  0  0  0  0  0  0  0
  127.7810  119.6790   71.7320 C   0  0  0  0  0  0  0  0  0  0  0  0
  127.0390  118.9150   70.9290 N   0  0  0  0  0  0  0  0  0  0  0  0
  1  2  1  0
  2  3  2  0
  3  4  1  0
  4  5  1  0
  4  6  2  0
  6  7  1  0
  7  8  1  0
  7  9  2  0
  9 10  1  0
 10 11  2  0
 10 12  1  0
 12 13  1  0
 13 14  2  0
 14 15  1  0
 15 16  2  0
 16 17  1  0
 17 18  2  0
  9 19  1  0
 19 20  1  0
 20 21  2  0
 21  2  1  0
 20  6  1  0
 18 13  1  0
M  END
>  <Binding energies>  (42) 
[-6.75]

>  <Ligand effiencies>  (42) 
[-0.28125]

>  <Interactions>  (42) 
["V-A:HIS:456:CD2:4066, H-B:LYS:547:NZ:9923, V-B:GLU:543:C:9874, V-A:HIS:456:CG:4064, V-A:HIS:456:CB:4063, V-B:LYS:547:CE:9922, V-B:GLY:544:CA:9886, V-A:HIS:456:C:4059, V-A:TYR:484:CG:4340, V-A:LYS:471:CE:4218, V-A:TYR:484:CB:4339, V-A:HIS:456:CA:4061, V-B:GLU:543:CA:9876, V-A:ASP:473:CG:4238, V-A:TYR:484:CD1:4341, V-A:VAL:457:C:4071, V-A:VAL:458:CG2:4085, H-A:ASP:473:OD2:4240, V-B:VAL:542:CG1:9871, H-A:TYR:484:N:4338, V-A:SER:483:CB:4331, V-B:VAL:542:CB:9870, V-A:SER:483:CA:4329"]

$$$$
4ag_Grossjean_2025
     RDKit          3D

 22 24  0  0  0  0  0  0  0  0999 V2000
  134.0380  123.6180   59.2740 C   0  0  0  0  0  0  0  0  0  0  0  0
  133.0790  124.2510   60.2650 C   0  0  0  0  0  0  0  0  0  0  0  0
  131.9360  124.9200   59.8300 C   0  0  0  0  0  0  0  0  0  0  0  0
  131.0640  125.4950   60.7600 C   0  0  0  0  0  0  0  0  0  0  0  0
  129.8300  126.2140   60.2360 C   0  0  0  0  0  0  0  0  0  0  0  0
  131.3880  125.3700   62.1380 C   0  0  0  0  0  0  0  0  0  0  0  0
  130.7320  125.8280   63.3330 C   0  0  0  0  0  0  0  0  0  0  0  0
  129.5570  126.5360   63.3000 N   0  0  0  0  0  0  0  0  0  0  0  0
  131.4040  125.4880   64.5160 C   0  0  0  0  0  0  0  0  0  0  0  0
  131.0180  125.7810   65.8960 C   0  0  0  0  0  0  0  0  0  0  0  0
  130.3830  124.9690   66.5720 O   0  0  0  0  0  0  0  0  0  0  0  0
  131.3820  126.9920   66.3710 N   0  0  0  0  0  0  0  0  0  0  0  0
  131.1270  127.4840   67.7240 C   0  0  0  0  0  0  0  0  0  0  0  0
  129.6680  127.3790   68.1550 C   0  0  0  0  0  0  0  0  0  0  0  0
  129.3460  127.3360   69.5150 C   0  0  0  0  0  0  0  0  0  0  0  0
  128.0130  127.2660   69.9120 C   0  0  0  0  0  0  0  0  0  0  0  0
  127.0060  127.2500   68.9490 C   0  0  0  0  0  0  0  0  0  0  0  0
  127.3190  127.3090   67.5930 C   0  0  0  0  0  0  0  0  0  0  0  0
  128.6520  127.3800   67.1950 C   0  0  0  0  0  0  0  0  0  0  0  0
  132.8740  124.5740   64.1780 S   0  0  0  0  0  0  0  0  0  0  0  0
  132.5860  124.6610   62.4540 C   0  0  0  0  0  0  0  0  0  0  0  0
  133.4180  124.1110   61.5700 N   0  0  0  0  0  0  0  0  0  0  0  0
  1  2  1  0
  2  3  2  0
  3  4  1  0
  4  5  1  0
  4  6  2  0
  6  7  1  0
  7  8  1  0
  7  9  2  0
  9 10  1  0
 10 11  2  0
 10 12  1  0
 12 13  1  0
 13 14  1  0
 14 15  2  0
 15 16  1  0
 16 17  2  0
 17 18  1  0
 18 19  2  0
  9 20  1  0
 20 21  1  0
 21 22  2  0
 22  2  1  0
 21  6  1  0
 19 14  1  0
M  END
>  <Binding energies>  (43) 
[-7.04]

>  <Ligand effiencies>  (43) 
[-0.2816]

>  <Interactions>  (43) 
["V-A:HIS:456:CE1:4068, V-B:GLU:543:CD:9880, V-A:GLU:543:CD:4906, V-B:HIS:456:CE1:9042, V-B:GLY:544:C:9884, V-B:GLU:543:CG:9879, V-A:GLU:543:CG:4905, V-B:GLU:543:C:9874, V-A:ARG:545:CZ:4924, V-A:ARG:545:CG:4920, H-A:TYR:484:OH:4346, V-A:ARG:545:CD:4921, H-B:GLU:543:OE1:9881, V-B:GLY:544:CA:9886, V-A:GLU:543:C:4900, V-A:ILE:369:CD1:3237, V-A:ASP:366:CG:3211, V-A:ILE:369:CG2:3235, V-A:ASP:366:CA:3208, V-A:ILE:369:CB:3234, H-A:GLU:543:OE2:4908, H-A:GLU:543:OE1:4907, H-B:GLU:543:OE2:9882, V-B:ARG:545:CG:9894, V-B:ARG:545:CA:9891"]

$$$$
4ah_Grossjean_2025
     RDKit          3D

 28 30  0  0  0  0  0  0  0  0999 V2000
  132.5500  131.3450   61.4240 C   0  0  0  0  0  0  0  0  0  0  0  0
  131.4530  131.7560   60.6160 O   0  0  0  0  0  0  0  0  0  0  0  0
  130.3190  130.9650   60.5580 C   0  0  0  0  0  0  0  0  0  0  0  0
  130.0140  129.9620   61.4910 C   0  0  0  0  0  0  0  0  0  0  0  0
  128.8510  129.2010   61.3680 C   0  0  0  0  0  0  0  0  0  0  0  0
  128.5120  128.1480   62.4180 C   0  0  0  0  0  0  0  0  0  0  0  0
  128.9550  126.8010   62.0580 N   0  0  0  0  0  0  0  0  0  0  0  0
  130.1520  126.4890   61.5180 C   0  0  0  0  0  0  0  0  0  0  0  0
  130.9950  127.3420   61.2340 O   0  0  0  0  0  0  0  0  0  0  0  0
  130.3820  125.0710   61.2450 C   0  0  0  0  0  0  0  0  0  0  0  0
  129.0300  123.9380   61.2420 S   0  0  0  0  0  0  0  0  0  0  0  0
  130.0990  122.5940   60.9100 C   0  0  0  0  0  0  0  0  0  0  0  0
  129.6450  121.3480   60.7740 N   0  0  0  0  0  0  0  0  0  0  0  0
  130.5780  120.3990   60.5170 C   0  0  0  0  0  0  0  0  0  0  0  0
  130.0400  118.9880   60.3690 C   0  0  0  0  0  0  0  0  0  0  0  0
  131.9390  120.6650   60.3920 C   0  0  0  0  0  0  0  0  0  0  0  0
  132.4140  121.9740   60.5370 C   0  0  0  0  0  0  0  0  0  0  0  0
  133.9090  122.2140   60.3930 C   0  0  0  0  0  0  0  0  0  0  0  0
  131.4650  122.9960   60.8100 C   0  0  0  0  0  0  0  0  0  0  0  0
  131.6000  124.4130   61.0180 C   0  0  0  0  0  0  0  0  0  0  0  0
  132.8150  125.0480   60.9830 N   0  0  0  0  0  0  0  0  0  0  0  0
  127.9660  129.4600   60.3200 C   0  0  0  0  0  0  0  0  0  0  0  0
  128.2480  130.4530   59.3690 C   0  0  0  0  0  0  0  0  0  0  0  0
  127.4250  130.7520   58.2980 O   0  0  0  0  0  0  0  0  0  0  0  0
  126.0790  130.2890   58.3020 C   0  0  0  0  0  0  0  0  0  0  0  0
  129.4310  131.1940   59.4960 C   0  0  0  0  0  0  0  0  0  0  0  0
  129.7110  132.1820   58.5820 O   0  0  0  0  0  0  0  0  0  0  0  0
  130.4710  131.7390   57.4660 C   0  0  0  0  0  0  0  0  0  0  0  0
  1  2  1  0
  2  3  1  0
  3  4  2  0
  4  5  1  0
  5  6  1  0
  6  7  1  0
  7  8  1  0
  8  9  2  0
  8 10  1  0
 10 11  1  0
 11 12  1  0
 12 13  2  0
 13 14  1  0
 14 15  1  0
 14 16  2  0
 16 17  1  0
 17 18  1  0
 17 19  2  0
 19 20  1  0
 20 21  1  0
  5 22  2  0
 22 23  1  0
 23 24  1  0
 24 25  1  0
 23 26  2  0
 26 27  1  0
 27 28  1  0
 26  3  1  0
 20 10  2  0
 19 12  1  0
M  END
>  <Binding energies>  (44) 
[-5.63]

>  <Ligand effiencies>  (44) 
[-0.18161290322580645]

>  <Interactions>  (44) 
["V-B:GLU:543:CD:9880, V-A:GLU:543:CD:4906, H-B:GLU:543:OE1:9881, V-A:TRP:381:CZ2:3368, V-A:ILE:369:CD1:3237, V-A:LEU:475:CD2:4257, V-A:TRP:381:CH2:3370, V-B:TYR:539:C:9839, V-A:ASP:366:CG:3211, V-B:ALA:541:CB:9864, V-B:TYR:539:CD2:9846, V-B:TYR:539:CE2:9848, V-A:ILE:369:CG2:3235, V-A:ILE:369:CG1:3236, V-A:ILE:369:CB:3234, V-A:ASN:362:CB:3174, V-A:PRO:540:CA:4881, V-A:PRO:540:N:4882, V-A:PRO:540:CB:4883, V-A:TYR:539:C:4865, V-A:PRO:540:C:4879, V-A:TYR:539:CE2:4874, H-A:ALA:541:N:4889, H-A:ARG:545:NH2:4926, V-A:TRP:381:CZ3:3369, V-A:TYR:539:CZ:4875, V-A:PRO:482:CG:4325, V-A:PRO:482:CB:4324, H-B:GLU:543:OE2:9882, H-A:ASP:366:OD2:3213, H-A:ASP:366:OD1:3212"]

$$$$
4ai_Grossjean_2025
     RDKit          3D

 20 22  0  0  0  0  0  0  0  0999 V2000
  130.3190  119.2800   60.2420 C   0  0  0  0  0  0  0  0  0  0  0  0
  130.9730  120.5520   60.7500 C   0  0  0  0  0  0  0  0  0  0  0  0
  131.9570  121.1990   60.0040 C   0  0  0  0  0  0  0  0  0  0  0  0
  132.5420  122.3740   60.4890 C   0  0  0  0  0  0  0  0  0  0  0  0
  133.6090  123.0450   59.6380 C   0  0  0  0  0  0  0  0  0  0  0  0
  132.0990  122.8660   61.7470 C   0  0  0  0  0  0  0  0  0  0  0  0
  132.4740  124.0160   62.5240 C   0  0  0  0  0  0  0  0  0  0  0  0
  133.4360  124.9010   62.1050 N   0  0  0  0  0  0  0  0  0  0  0  0
  131.7670  124.1450   63.7300 C   0  0  0  0  0  0  0  0  0  0  0  0
  131.9000  125.1800   64.7580 C   0  0  0  0  0  0  0  0  0  0  0  0
  132.9790  125.7440   64.9470 O   0  0  0  0  0  0  0  0  0  0  0  0
  130.7660  125.4640   65.4460 N   0  0  0  0  0  0  0  0  0  0  0  0
  130.6050  126.4000   66.4590 C   0  0  0  0  0  0  0  0  0  0  0  0
  129.4120  126.5620   67.1650 C   0  0  0  0  0  0  0  0  0  0  0  0
  129.6610  127.5750   68.0620 C   0  0  0  0  0  0  0  0  0  0  0  0
  130.9380  128.0010   67.9060 O   0  0  0  0  0  0  0  0  0  0  0  0
  131.5260  127.2480   66.8890 N   0  0  0  0  0  0  0  0  0  0  0  0
  130.6260  122.8160   63.9440 S   0  0  0  0  0  0  0  0  0  0  0  0
  131.0870  122.1100   62.4110 C   0  0  0  0  0  0  0  0  0  0  0  0
  130.5280  120.9900   61.9530 N   0  0  0  0  0  0  0  0  0  0  0  0
  1  2  1  0
  2  3  2  0
  3  4  1  0
  4  5  1  0
  4  6  2  0
  6  7  1  0
  7  8  1  0
  7  9  2  0
  9 10  1  0
 10 11  2  0
 10 12  1  0
 12 13  1  0
 13 14  1  0
 14 15  2  0
 15 16  1  0
 16 17  1  0
  9 18  1  0
 18 19  1  0
 19 20  2  0
 20  2  1  0
 19  6  1  0
 17 13  2  0
M  END
>  <Binding energies>  (45) 
[-6.53]

>  <Ligand effiencies>  (45) 
[-0.2839130434782609]

>  <Interactions>  (45) 
["V-B:GLU:543:CB:9878, V-A:HIS:456:CE1:4068, V-B:GLU:543:CD:9880, V-A:GLU:543:CD:4906, V-B:GLU:543:CG:9879, V-A:GLU:543:CG:4905, V-A:ARG:545:CZ:4924, H-A:TYR:484:OH:4346, V-A:TYR:484:CZ:4345, H-B:GLU:543:OE1:9881, H-A:ARG:545:NE:4922, V-A:GLU:543:C:4900, V-A:TRP:381:CZ2:3368, V-A:ILE:369:CD1:3237, V-A:LEU:475:CD2:4257, V-A:TRP:381:CH2:3370, V-B:ALA:541:CB:9864, V-B:TYR:539:CD2:9846, V-B:TYR:539:CE2:9848, V-A:ILE:369:CG2:3235, V-A:ILE:369:CB:3234, H-A:ARG:545:NH2:4926, V-A:TRP:381:CZ3:3369, V-A:PRO:482:CG:4325, V-A:PRO:482:CB:4324, V-A:TYR:484:CE1:4343, H-B:GLU:543:OE2:9882, H-A:ASP:366:OD1:3212"]

$$$$
4aj_Grossjean_2025
     RDKit          3D

 20 22  0  0  0  0  0  0  0  0999 V2000
  125.7480  116.7570   70.5000 C   0  0  0  0  0  0  0  0  0  0  0  0
  126.5790  117.6180   71.4330 C   0  0  0  0  0  0  0  0  0  0  0  0
  126.9340  117.1650   72.7010 C   0  0  0  0  0  0  0  0  0  0  0  0
  127.6970  117.9770   73.5480 C   0  0  0  0  0  0  0  0  0  0  0  0
  128.0580  117.4370   74.9230 C   0  0  0  0  0  0  0  0  0  0  0  0
  128.0860  119.2560   73.0660 C   0  0  0  0  0  0  0  0  0  0  0  0
  128.8520  120.3220   73.6550 C   0  0  0  0  0  0  0  0  0  0  0  0
  129.3720  120.2370   74.9210 N   0  0  0  0  0  0  0  0  0  0  0  0
  129.0150  121.4360   72.8160 C   0  0  0  0  0  0  0  0  0  0  0  0
  129.7210  122.6890   73.0940 C   0  0  0  0  0  0  0  0  0  0  0  0
  129.2520  123.7690   72.7300 O   0  0  0  0  0  0  0  0  0  0  0  0
  130.8870  122.5610   73.7740 N   0  0  0  0  0  0  0  0  0  0  0  0
  131.7370  123.5850   74.1700 C   0  0  0  0  0  0  0  0  0  0  0  0
  131.5050  124.8800   74.1500 N   0  0  0  0  0  0  0  0  0  0  0  0
  132.5370  125.5640   74.6050 C   0  0  0  0  0  0  0  0  0  0  0  0
  133.6420  124.8180   75.0070 C   0  0  0  0  0  0  0  0  0  0  0  0
  133.2980  123.1300   74.7720 S   0  0  0  0  0  0  0  0  0  0  0  0
  128.2030  121.1940   71.2690 S   0  0  0  0  0  0  0  0  0  0  0  0
  127.6610  119.6010   71.7480 C   0  0  0  0  0  0  0  0  0  0  0  0
  126.9340  118.8300   70.9390 N   0  0  0  0  0  0  0  0  0  0  0  0
  1  2  1  0
  2  3  2  0
  3  4  1  0
  4  5  1  0
  4  6  2  0
  6  7  1  0
  7  8  1  0
  7  9  2  0
  9 10  1  0
 10 11  2  0
 10 12  1  0
 12 13  1  0
 13 14  2  0
 14 15  1  0
 15 16  2  0
 16 17  1  0
  9 18  1  0
 18 19  1  0
 19 20  2  0
 20  2  1  0
 19  6  1  0
 17 13  1  0
M  END
>  <Binding energies>  (46) 
[-6.73]

>  <Ligand effiencies>  (46) 
[-0.29260869565217396]

>  <Interactions>  (46) 
["V-A:HIS:456:CD2:4066, H-B:LYS:547:NZ:9923, V-B:GLU:543:C:9874, V-A:HIS:456:CG:4064, V-A:HIS:456:CB:4063, V-B:LYS:547:CE:9922, V-B:GLY:544:CA:9886, V-A:HIS:456:C:4059, V-A:TYR:484:CG:4340, V-A:LYS:471:CE:4218, V-A:TYR:484:CB:4339, V-A:ASP:473:CB:4237, V-B:GLU:543:CA:9876, V-A:ASP:473:CG:4238, V-A:TYR:484:CD1:4341, V-A:VAL:458:CG2:4085, H-A:ASP:473:OD2:4240, V-B:VAL:542:CG1:9871, H-A:TYR:484:N:4338, V-A:SER:483:CB:4331, V-A:SER:483:CA:4329"]

$$$$
4ak_Grossjean_2025
     RDKit          3D

 25 26  0  0  0  0  0  0  0  0999 V2000
  131.6060  125.9680   73.1850 C   0  0  0  0  0  0  0  0  0  0  0  0
  130.3520  125.3080   73.1130 O   0  0  0  0  0  0  0  0  0  0  0  0
  129.4930  125.8330   72.1080 C   0  0  0  0  0  0  0  0  0  0  0  0
  130.2510  126.8810   71.2840 C   0  0  0  0  0  0  0  0  0  0  0  0
  129.3870  127.9750   71.0030 O   0  0  0  0  0  0  0  0  0  0  0  0
  128.1680  127.5980   70.3770 C   0  0  0  0  0  0  0  0  0  0  0  0
  128.2890  127.8100   68.8630 C   0  0  0  0  0  0  0  0  0  0  0  0
  129.5660  127.3640   68.4270 O   0  0  0  0  0  0  0  0  0  0  0  0
  129.5120  126.3940   67.3890 C   0  0  0  0  0  0  0  0  0  0  0  0
  130.7520  126.5440   66.4880 C   0  0  0  0  0  0  0  0  0  0  0  0
  130.8420  125.5270   65.4410 N   0  0  0  0  0  0  0  0  0  0  0  0
  131.9660  125.1870   64.7780 C   0  0  0  0  0  0  0  0  0  0  0  0
  133.0570  125.7060   65.0190 O   0  0  0  0  0  0  0  0  0  0  0  0
  131.8210  124.1540   63.7540 C   0  0  0  0  0  0  0  0  0  0  0  0
  130.6360  122.8640   63.9530 S   0  0  0  0  0  0  0  0  0  0  0  0
  131.0820  122.1550   62.4170 C   0  0  0  0  0  0  0  0  0  0  0  0
  130.4970  121.0490   61.9540 N   0  0  0  0  0  0  0  0  0  0  0  0
  130.9370  120.6020   60.7520 C   0  0  0  0  0  0  0  0  0  0  0  0
  130.2590  119.3440   60.2420 C   0  0  0  0  0  0  0  0  0  0  0  0
  131.9360  121.2290   60.0110 C   0  0  0  0  0  0  0  0  0  0  0  0
  132.5470  122.3900   60.4990 C   0  0  0  0  0  0  0  0  0  0  0  0
  133.6350  123.0360   59.6560 C   0  0  0  0  0  0  0  0  0  0  0  0
  132.1130  122.8880   61.7570 C   0  0  0  0  0  0  0  0  0  0  0  0
  132.5120  124.0270   62.5390 C   0  0  0  0  0  0  0  0  0  0  0  0
  133.4850  124.8990   62.1210 N   0  0  0  0  0  0  0  0  0  0  0  0
  1  2  1  0
  2  3  1  0
  3  4  1  0
  4  5  1  0
  5  6  1  0
  6  7  1  0
  7  8  1  0
  8  9  1  0
  9 10  1  0
 10 11  1  0
 11 12  1  0
 12 13  2  0
 12 14  1  0
 14 15  1  0
 15 16  1  0
 16 17  2  0
 17 18  1  0
 18 19  1  0
 18 20  2  0
 20 21  1  0
 21 22  1  0
 21 23  2  0
 23 24  1  0
 24 25  1  0
 24 14  2  0
 23 16  1  0
M  END
>  <Binding energies>  (47) 
[-6.47]

>  <Ligand effiencies>  (47) 
[-0.23107142857142857]

>  <Interactions>  (47) 
["V-B:GLU:543:CB:9878, V-A:HIS:456:CE1:4068, V-A:HIS:456:CD2:4066, V-B:GLU:543:CD:9880, V-A:GLU:543:CD:4906, V-B:HIS:456:CE1:9042, V-B:GLY:544:C:9884, V-A:GLY:544:C:4910, V-B:HIS:456:CD2:9040, V-B:GLU:543:CG:9879, V-A:GLU:543:CG:4905, H-B:LYS:547:NZ:9923, V-A:ARG:545:CZ:4924, V-A:ARG:545:CG:4920, H-A:TYR:484:OH:4346, V-A:HIS:456:CG:4064, V-A:HIS:456:CB:4063, V-A:TYR:484:CZ:4345, V-B:LYS:547:CE:9922, H-B:GLU:543:OE1:9881, V-B:GLY:544:CA:9886, H-A:ARG:545:NE:4922, V-A:TRP:381:CZ2:3368, V-A:ILE:369:CD1:3237, V-A:LEU:475:CD2:4257, V-A:TRP:381:CH2:3370, V-B:ALA:541:CB:9864, V-B:TYR:539:CD2:9846, V-B:TYR:539:CE2:9848, V-A:ILE:369:CG2:3235, V-A:ILE:369:CB:3234, H-A:ARG:545:NH2:4926, V-A:TRP:381:CZ3:3369, V-A:PRO:482:CG:4325, V-A:PRO:482:CB:4324, V-A:TYR:484:CE1:4343, H-B:GLU:543:OE2:9882, H-A:ASP:366:OD1:3212"]

$$$$
4al_Grossjean_2025
     RDKit          3D

 16 17  0  0  0  0  0  0  0  0999 V2000
  131.0230  126.0140   65.9810 C   0  0  0  0  0  0  0  0  0  0  0  0
  132.0740  126.3380   65.0830 O   0  0  0  0  0  0  0  0  0  0  0  0
  132.8840  125.3710   64.5800 C   0  0  0  0  0  0  0  0  0  0  0  0
  134.0870  125.2780   64.8340 O   0  0  0  0  0  0  0  0  0  0  0  0
  132.1730  124.4320   63.6860 C   0  0  0  0  0  0  0  0  0  0  0  0
  132.8460  122.8300   63.3750 S   0  0  0  0  0  0  0  0  0  0  0  0
  131.5070  122.4250   62.3260 C   0  0  0  0  0  0  0  0  0  0  0  0
  131.4190  121.2410   61.7200 N   0  0  0  0  0  0  0  0  0  0  0  0
  130.3300  121.0540   60.9330 C   0  0  0  0  0  0  0  0  0  0  0  0
  130.2500  119.6990   60.2530 C   0  0  0  0  0  0  0  0  0  0  0  0
  129.3390  122.0130   60.7410 C   0  0  0  0  0  0  0  0  0  0  0  0
  129.4340  123.2550   61.3780 C   0  0  0  0  0  0  0  0  0  0  0  0
  128.3280  124.2700   61.1380 C   0  0  0  0  0  0  0  0  0  0  0  0
  130.5610  123.4880   62.2110 C   0  0  0  0  0  0  0  0  0  0  0  0
  130.9680  124.6190   62.9980 C   0  0  0  0  0  0  0  0  0  0  0  0
  130.2340  125.7750   63.0630 N   0  0  0  0  0  0  0  0  0  0  0  0
  1  2  1  0
  2  3  1  0
  3  4  2  0
  3  5  1  0
  5  6  1  0
  6  7  1  0
  7  8  2  0
  8  9  1  0
  9 10  1  0
  9 11  2  0
 11 12  1  0
 12 13  1  0
 12 14  2  0
 14 15  1  0
 15 16  1  0
 15  5  2  0
 14  7  1  0
M  END
>  <Binding energies>  (48) 
[-5.15]

>  <Ligand effiencies>  (48) 
[-0.28611111111111115]

>  <Interactions>  (48) 
["V-A:HIS:456:CE1:4068, V-B:GLU:543:CD:9880, H-A:GLY:454:N:4048, V-A:ARG:545:CZ:4924, H-A:TYR:484:OH:4346, V-A:ARG:545:CD:4921, H-A:ARG:545:NH1:4925, H-B:GLU:543:OE1:9881, H-A:ARG:545:NE:4922, V-A:TRP:381:CZ2:3368, V-A:LEU:475:CD2:4257, V-A:TRP:381:CH2:3370, V-B:TYR:539:C:9839, V-A:GLY:454:CA:4047, V-B:ALA:541:CB:9864, V-B:TYR:539:CD2:9846, H-A:ARG:545:NH2:4926, H-A:GLU:543:OE2:4908, H-B:GLU:543:OE2:9882"]

$$$$
4bc_Grossjean_2025
     RDKit          3D

 26 28  0  0  0  0  0  0  0  0999 V2000
  128.7640  128.3440   72.0170 C   0  0  0  0  0  0  0  0  0  0  0  0
  128.0000  128.0410   70.8540 O   0  0  0  0  0  0  0  0  0  0  0  0
  128.6560  127.6740   69.6950 C   0  0  0  0  0  0  0  0  0  0  0  0
  127.8530  127.3310   68.6080 C   0  0  0  0  0  0  0  0  0  0  0  0
  128.4230  126.9460   67.3970 C   0  0  0  0  0  0  0  0  0  0  0  0
  129.8120  126.9080   67.2550 C   0  0  0  0  0  0  0  0  0  0  0  0
  130.2970  126.4940   66.0020 N   0  0  0  0  0  0  0  0  0  0  0  0
  130.6620  125.2550   65.5910 C   0  0  0  0  0  0  0  0  0  0  0  0
  130.6510  124.2590   66.3160 O   0  0  0  0  0  0  0  0  0  0  0  0
  131.0930  125.1560   64.1930 C   0  0  0  0  0  0  0  0  0  0  0  0
  132.3680  124.0300   63.7350 S   0  0  0  0  0  0  0  0  0  0  0  0
  132.2610  124.5180   62.0600 C   0  0  0  0  0  0  0  0  0  0  0  0
  133.0410  123.9750   61.1260 N   0  0  0  0  0  0  0  0  0  0  0  0
  132.8680  124.4350   59.8660 C   0  0  0  0  0  0  0  0  0  0  0  0
  133.7630  123.8000   58.8170 C   0  0  0  0  0  0  0  0  0  0  0  0
  131.9420  125.4170   59.5200 C   0  0  0  0  0  0  0  0  0  0  0  0
  131.1180  125.9930   60.5000 C   0  0  0  0  0  0  0  0  0  0  0  0
  130.1160  127.0710   60.0710 C   0  0  0  0  0  0  0  0  0  0  0  0
  128.8500  126.7380   60.3280 F   0  0  0  0  0  0  0  0  0  0  0  0
  130.3720  128.2060   60.7210 F   0  0  0  0  0  0  0  0  0  0  0  0
  130.2150  127.2830   58.7590 F   0  0  0  0  0  0  0  0  0  0  0  0
  131.2740  125.5280   61.8400 C   0  0  0  0  0  0  0  0  0  0  0  0
  130.6210  125.8700   63.0800 C   0  0  0  0  0  0  0  0  0  0  0  0
  129.6260  126.8110   63.1570 N   0  0  0  0  0  0  0  0  0  0  0  0
  130.6270  127.2390   68.3490 C   0  0  0  0  0  0  0  0  0  0  0  0
  130.0530  127.6220   69.5570 C   0  0  0  0  0  0  0  0  0  0  0  0
  1  2  1  0
  2  3  1  0
  3  4  2  0
  4  5  1  0
  5  6  2  0
  6  7  1  0
  7  8  1  0
  8  9  2  0
  8 10  1  0
 10 11  1  0
 11 12  1  0
 12 13  2  0
 13 14  1  0
 14 15  1  0
 14 16  2  0
 16 17  1  0
 17 18  1  0
 18 19  1  0
 18 20  1  0
 18 21  1  0
 17 22  2  0
 22 23  1  0
 23 24  1  0
  6 25  1  0
 25 26  2  0
 26  3  1  0
 23 10  2  0
 22 12  1  0
M  END
>  <Binding energies>  (49) 
[-6.24]

>  <Ligand effiencies>  (49) 
[-0.21517241379310345]

>  <Interactions>  (49) 
["V-B:GLU:543:CB:9878, V-A:HIS:456:CE1:4068, V-B:GLU:543:CD:9880, V-A:GLU:543:CD:4906, V-B:HIS:456:CE1:9042, V-A:GLY:544:C:4910, V-B:HIS:456:CD2:9040, V-B:GLU:543:CG:9879, V-A:GLU:543:CG:4905, V-B:GLU:543:C:9874, V-A:ARG:545:CG:4920, H-A:TYR:484:OH:4346, H-B:GLU:543:OE1:9881, V-A:GLU:543:C:4900, V-A:ILE:369:CD1:3237, V-A:ASP:366:CG:3211, V-B:TYR:539:CE2:9848, V-A:ILE:369:CG2:3235, V-A:ASP:366:CA:3208, V-A:ASP:366:CB:3210, V-A:ILE:369:CB:3234, H-A:GLU:543:OE2:4908, H-A:GLU:543:OE1:4907, H-B:GLU:543:OE2:9882"]

$$$$
4bf_Grossjean_2025
     RDKit          3D

 24 26  0  0  0  0  0  0  0  0999 V2000
  133.7820  123.8500   58.8610 C   0  0  0  0  0  0  0  0  0  0  0  0
  132.8730  124.4770   59.9040 C   0  0  0  0  0  0  0  0  0  0  0  0
  131.9720  125.4800   59.5600 C   0  0  0  0  0  0  0  0  0  0  0  0
  131.1400  126.0530   60.5350 C   0  0  0  0  0  0  0  0  0  0  0  0
  130.1650  127.1560   60.1100 C   0  0  0  0  0  0  0  0  0  0  0  0
  128.8880  126.8420   60.3400 F   0  0  0  0  0  0  0  0  0  0  0  0
  130.4280  128.2760   60.7840 F   0  0  0  0  0  0  0  0  0  0  0  0
  130.2890  127.3890   58.8030 F   0  0  0  0  0  0  0  0  0  0  0  0
  131.2650  125.5620   61.8690 C   0  0  0  0  0  0  0  0  0  0  0  0
  130.6000  125.8980   63.1040 C   0  0  0  0  0  0  0  0  0  0  0  0
  129.6230  126.8580   63.1810 N   0  0  0  0  0  0  0  0  0  0  0  0
  131.0380  125.1550   64.2130 C   0  0  0  0  0  0  0  0  0  0  0  0
  130.6050  125.2570   65.6100 C   0  0  0  0  0  0  0  0  0  0  0  0
  130.6560  124.2790   66.3550 O   0  0  0  0  0  0  0  0  0  0  0  0
  130.1760  126.4840   65.9960 N   0  0  0  0  0  0  0  0  0  0  0  0
  129.6560  126.9020   67.2360 C   0  0  0  0  0  0  0  0  0  0  0  0
  128.2910  127.0650   67.5330 C   0  0  0  0  0  0  0  0  0  0  0  0
  127.9080  127.5020   68.8040 C   0  0  0  0  0  0  0  0  0  0  0  0
  128.9020  127.7710   69.7450 C   0  0  0  0  0  0  0  0  0  0  0  0
  130.2250  127.6290   69.4800 N   0  0  0  0  0  0  0  0  0  0  0  0
  130.5820  127.2030   68.2410 C   0  0  0  0  0  0  0  0  0  0  0  0
  132.2990  124.0120   63.7550 S   0  0  0  0  0  0  0  0  0  0  0  0
  132.2290  124.5300   62.0880 C   0  0  0  0  0  0  0  0  0  0  0  0
  133.0150  123.9890   61.1580 N   0  0  0  0  0  0  0  0  0  0  0  0
  1  2  1  0
  2  3  2  0
  3  4  1  0
  4  5  1  0
  5  6  1  0
  5  7  1  0
  5  8  1  0
  4  9  2  0
  9 10  1  0
 10 11  1  0
 10 12  2  0
 12 13  1  0
 13 14  2  0
 13 15  1  0
 15 16  1  0
 16 17  2  0
 17 18  1  0
 18 19  2  0
 19 20  1  0
 20 21  2  0
 12 22  1  0
 22 23  1  0
 23 24  2  0
 24  2  1  0
 23  9  1  0
 21 16  1  0
M  END
>  <Binding energies>  (50) 
[-5.9]

>  <Ligand effiencies>  (50) 
[-0.21851851851851853]

>  <Interactions>  (50) 
["V-B:GLU:543:CB:9878, V-A:HIS:456:CE1:4068, V-B:GLU:543:CD:9880, V-A:GLU:543:CD:4906, V-B:HIS:456:CE1:9042, V-B:GLU:543:CG:9879, V-A:GLU:543:CG:4905, V-B:GLU:543:C:9874, V-A:ARG:545:CG:4920, H-A:TYR:484:OH:4346, H-B:GLU:543:OE1:9881, V-A:GLU:543:C:4900, V-A:ILE:369:CD1:3237, V-A:ASP:366:CG:3211, V-B:TYR:539:CE2:9848, V-A:ILE:369:CG2:3235, V-A:ASP:366:CA:3208, V-A:ASP:366:CB:3210, V-A:ILE:369:CB:3234, H-A:GLU:543:OE2:4908, H-A:GLU:543:OE1:4907, H-B:GLU:543:OE2:9882"]

$$$$
4bh_Grossjean_2025
     RDKit          3D

 31 33  0  0  0  0  0  0  0  0999 V2000
  132.6490  131.1460   61.1720 C   0  0  0  0  0  0  0  0  0  0  0  0
  131.4600  131.7650   60.6940 O   0  0  0  0  0  0  0  0  0  0  0  0
  130.3000  131.0180   60.5890 C   0  0  0  0  0  0  0  0  0  0  0  0
  129.9210  130.0260   61.5060 C   0  0  0  0  0  0  0  0  0  0  0  0
  128.7360  129.3090   61.3360 C   0  0  0  0  0  0  0  0  0  0  0  0
  128.3180  128.2670   62.3670 C   0  0  0  0  0  0  0  0  0  0  0  0
  128.7810  126.9150   62.0520 N   0  0  0  0  0  0  0  0  0  0  0  0
  129.7660  126.6080   61.1830 C   0  0  0  0  0  0  0  0  0  0  0  0
  130.3580  127.4650   60.5230 O   0  0  0  0  0  0  0  0  0  0  0  0
  130.0670  125.1850   61.0290 C   0  0  0  0  0  0  0  0  0  0  0  0
  128.7620  124.0020   61.0360 S   0  0  0  0  0  0  0  0  0  0  0  0
  129.8990  122.6840   60.8660 C   0  0  0  0  0  0  0  0  0  0  0  0
  129.4900  121.4180   60.8010 N   0  0  0  0  0  0  0  0  0  0  0  0
  130.4620  120.4860   60.6680 C   0  0  0  0  0  0  0  0  0  0  0  0
  129.9740  119.0500   60.5980 C   0  0  0  0  0  0  0  0  0  0  0  0
  131.8190  120.7870   60.5960 C   0  0  0  0  0  0  0  0  0  0  0  0
  132.2560  122.1190   60.6660 C   0  0  0  0  0  0  0  0  0  0  0  0
  133.7600  122.4020   60.5800 C   0  0  0  0  0  0  0  0  0  0  0  0
  134.2180  123.1160   61.6110 F   0  0  0  0  0  0  0  0  0  0  0  0
  134.4350  121.2530   60.5600 F   0  0  0  0  0  0  0  0  0  0  0  0
  134.0260  123.0890   59.4690 F   0  0  0  0  0  0  0  0  0  0  0  0
  131.2570  123.1270   60.8100 C   0  0  0  0  0  0  0  0  0  0  0  0
  131.3200  124.5630   60.9190 C   0  0  0  0  0  0  0  0  0  0  0  0
  132.5030  125.2580   60.9080 N   0  0  0  0  0  0  0  0  0  0  0  0
  127.9040  129.6020   60.2540 C   0  0  0  0  0  0  0  0  0  0  0  0
  128.2620  130.5840   59.3160 C   0  0  0  0  0  0  0  0  0  0  0  0
  127.4940  130.9160   58.2150 O   0  0  0  0  0  0  0  0  0  0  0  0
  126.2000  130.3400   58.0670 C   0  0  0  0  0  0  0  0  0  0  0  0
  129.4660  131.2800   59.4920 C   0  0  0  0  0  0  0  0  0  0  0  0
  129.8200  132.2570   58.5910 O   0  0  0  0  0  0  0  0  0  0  0  0
  130.5180  131.7680   57.4550 C   0  0  0  0  0  0  0  0  0  0  0  0
  1  2  1  0
  2  3  1  0
  3  4  2  0
  4  5  1  0
  5  6  1  0
  6  7  1  0
  7  8  1  0
  8  9  2  0
  8 10  1  0
 10 11  1  0
 11 12  1  0
 12 13  2  0
 13 14  1  0
 14 15  1  0
 14 16  2  0
 16 17  1  0
 17 18  1  0
 18 19  1  0
 18 20  1  0
 18 21  1  0
 17 22  2  0
 22 23  1  0
 23 24  1  0
  5 25  2  0
 25 26  1  0
 26 27  1  0
 27 28  1  0
 26 29  2  0
 29 30  1  0
 30 31  1  0
 29  3  1  0
 23 10  2  0
 22 12  1  0
M  END
>  <Binding energies>  (51) 
[-5.38]

>  <Ligand effiencies>  (51) 
[-0.15823529411764706]

>  <Interactions>  (51) 
["V-B:GLU:543:CD:9880, V-A:GLU:543:CD:4906, H-B:GLU:543:OE1:9881, V-A:GLY:453:C:4040, V-A:TRP:381:CZ2:3368, V-A:ILE:369:CD1:3237, V-A:LEU:475:CD2:4257, V-A:TRP:381:CH2:3370, V-A:ASP:366:CG:3211, V-A:GLY:454:CA:4047, V-B:ALA:541:CB:9864, V-B:TYR:539:CD2:9846, V-B:TYR:539:CE2:9848, V-A:ILE:369:CG2:3235, V-A:ILE:369:CG1:3236, V-A:ILE:369:CB:3234, V-A:ASN:362:CB:3174, V-A:PRO:540:CA:4881, V-A:PRO:540:N:4882, H-B:ALA:541:N:9863, V-A:PRO:540:CB:4883, V-A:TYR:539:C:4865, V-A:TYR:539:CE2:4874, H-A:ALA:541:N:4889, H-A:ARG:545:NH2:4926, V-A:TRP:381:CZ3:3369, V-A:TYR:539:CZ:4875, V-A:PRO:482:CG:4325, V-A:PRO:482:CB:4324, H-B:GLU:543:OE2:9882, H-A:ASP:366:OD2:3213, H-A:ASP:366:OD1:3212"]

$$$$
4bi_Grossjean_2025
     RDKit          3D

 23 25  0  0  0  0  0  0  0  0999 V2000
  130.3360  119.4090   60.2630 C   0  0  0  0  0  0  0  0  0  0  0  0
  130.9230  120.7100   60.7800 C   0  0  0  0  0  0  0  0  0  0  0  0
  131.7870  121.4700   59.9950 C   0  0  0  0  0  0  0  0  0  0  0  0
  132.3190  122.6740   60.4850 C   0  0  0  0  0  0  0  0  0  0  0  0
  133.2590  123.4790   59.5820 C   0  0  0  0  0  0  0  0  0  0  0  0
  134.3980  123.8220   60.1870 F   0  0  0  0  0  0  0  0  0  0  0  0
  133.5790  122.7590   58.5070 F   0  0  0  0  0  0  0  0  0  0  0  0
  132.6580  124.6050   59.1950 F   0  0  0  0  0  0  0  0  0  0  0  0
  131.9390  123.0660   61.8030 C   0  0  0  0  0  0  0  0  0  0  0  0
  132.2760  124.2040   62.6230 C   0  0  0  0  0  0  0  0  0  0  0  0
  133.1250  125.1960   62.2030 N   0  0  0  0  0  0  0  0  0  0  0  0
  131.6540  124.2080   63.8830 C   0  0  0  0  0  0  0  0  0  0  0  0
  131.7810  125.1930   64.9610 C   0  0  0  0  0  0  0  0  0  0  0  0
  132.8770  125.6790   65.2440 O   0  0  0  0  0  0  0  0  0  0  0  0
  130.6230  125.5250   65.5850 N   0  0  0  0  0  0  0  0  0  0  0  0
  130.4520  126.4320   66.6230 C   0  0  0  0  0  0  0  0  0  0  0  0
  129.2440  126.5950   67.3000 C   0  0  0  0  0  0  0  0  0  0  0  0
  129.4890  127.5720   68.2380 C   0  0  0  0  0  0  0  0  0  0  0  0
  130.7770  127.9750   68.1320 O   0  0  0  0  0  0  0  0  0  0  0  0
  131.3770  127.2450   67.1040 N   0  0  0  0  0  0  0  0  0  0  0  0
  130.6450  122.7800   64.1000 S   0  0  0  0  0  0  0  0  0  0  0  0
  131.0460  122.1970   62.5020 C   0  0  0  0  0  0  0  0  0  0  0  0
  130.5430  121.0560   62.0310 N   0  0  0  0  0  0  0  0  0  0  0  0
  1  2  1  0
  2  3  2  0
  3  4  1  0
  4  5  1  0
  5  6  1  0
  5  7  1  0
  5  8  1  0
  4  9  2  0
  9 10  1  0
 10 11  1  0
 10 12  2  0
 12 13  1  0
 13 14  2  0
 13 15  1  0
 15 16  1  0
 16 17  1  0
 17 18  2  0
 18 19  1  0
 19 20  1  0
 12 21  1  0
 21 22  1  0
 22 23  2  0
 23  2  1  0
 22  9  1  0
 20 16  2  0
M  END
>  <Binding energies>  (52) 
[-6.18]

>  <Ligand effiencies>  (52) 
[-0.23769230769230767]

>  <Interactions>  (52) 
["V-B:GLU:543:CB:9878, V-A:HIS:456:CE1:4068, V-B:GLU:543:CD:9880, V-A:GLU:543:CD:4906, V-B:GLU:543:CG:9879, V-A:GLU:543:CG:4905, V-A:ARG:545:CZ:4924, H-A:TYR:484:OH:4346, V-A:TYR:484:CZ:4345, H-B:GLU:543:OE1:9881, H-A:ARG:545:NE:4922, V-B:TYR:539:CZ:9849, V-A:TRP:381:CZ2:3368, V-A:ILE:369:CD1:3237, V-A:LEU:475:CD2:4257, V-A:TRP:381:CH2:3370, V-A:ASP:366:CG:3211, V-B:ALA:541:CB:9864, V-B:TYR:539:CD2:9846, V-B:TYR:539:CE2:9848, V-A:ILE:369:CG2:3235, V-A:ASP:366:CB:3210, V-A:ILE:369:CG1:3236, V-A:ILE:369:CB:3234, V-A:TRP:381:CZ3:3369, V-A:PRO:482:CG:4325, V-A:PRO:482:CB:4324, V-A:TYR:484:CE1:4343, H-B:GLU:543:OE2:9882, H-A:ASP:366:OD2:3213, H-A:ASP:366:OD1:3212"]

$$$$
4bj_Grossjean_2025
     RDKit          3D

 23 25  0  0  0  0  0  0  0  0999 V2000
  134.1130  123.6590   58.8790 C   0  0  0  0  0  0  0  0  0  0  0  0
  133.1420  124.2570   59.8810 C   0  0  0  0  0  0  0  0  0  0  0  0
  132.1210  125.1100   59.4680 C   0  0  0  0  0  0  0  0  0  0  0  0
  131.2340  125.6620   60.4060 C   0  0  0  0  0  0  0  0  0  0  0  0
  130.1280  126.5980   59.9050 C   0  0  0  0  0  0  0  0  0  0  0  0
  130.1420  126.7600   58.5810 F   0  0  0  0  0  0  0  0  0  0  0  0
  128.9350  126.1030   60.2340 F   0  0  0  0  0  0  0  0  0  0  0  0
  130.2730  127.8020   60.4570 F   0  0  0  0  0  0  0  0  0  0  0  0
  131.4270  125.3070   61.7740 C   0  0  0  0  0  0  0  0  0  0  0  0
  130.7380  125.6690   62.9890 C   0  0  0  0  0  0  0  0  0  0  0  0
  129.6610  126.5190   63.0050 N   0  0  0  0  0  0  0  0  0  0  0  0
  131.2620  125.0710   64.1460 C   0  0  0  0  0  0  0  0  0  0  0  0
  130.8180  125.2230   65.5340 C   0  0  0  0  0  0  0  0  0  0  0  0
  130.6340  124.2360   66.2490 O   0  0  0  0  0  0  0  0  0  0  0  0
  130.6470  126.5010   65.9540 N   0  0  0  0  0  0  0  0  0  0  0  0
  130.2470  126.9170   67.2160 C   0  0  0  0  0  0  0  0  0  0  0  0
  131.0070  127.2610   68.2330 N   0  0  0  0  0  0  0  0  0  0  0  0
  130.2880  127.6100   69.2810 C   0  0  0  0  0  0  0  0  0  0  0  0
  128.9070  127.5510   69.1260 C   0  0  0  0  0  0  0  0  0  0  0  0
  128.5410  127.0050   67.5160 S   0  0  0  0  0  0  0  0  0  0  0  0
  132.6490  124.0520   63.7660 S   0  0  0  0  0  0  0  0  0  0  0  0
  132.5090  124.4200   62.0630 C   0  0  0  0  0  0  0  0  0  0  0  0
  133.3510  123.9010   61.1690 N   0  0  0  0  0  0  0  0  0  0  0  0
  1  2  1  0
  2  3  2  0
  3  4  1  0
  4  5  1  0
  5  6  1  0
  5  7  1  0
  5  8  1  0
  4  9  2  0
  9 10  1  0
 10 11  1  0
 10 12  2  0
 12 13  1  0
 13 14  2  0
 13 15  1  0
 15 16  1  0
 16 17  2  0
 17 18  1  0
 18 19  2  0
 19 20  1  0
 12 21  1  0
 21 22  1  0
 22 23  2  0
 23  2  1  0
 22  9  1  0
 20 16  1  0
M  END
>  <Binding energies>  (53) 
[-5.84]

>  <Ligand effiencies>  (53) 
[-0.2246153846153846]

>  <Interactions>  (53) 
["V-B:GLU:543:CB:9878, V-A:HIS:456:CE1:4068, V-B:GLU:543:CD:9880, V-A:GLU:543:CD:4906, V-B:HIS:456:CE1:9042, V-A:GLY:544:C:4910, V-B:GLU:543:CG:9879, V-A:GLU:543:CG:4905, V-B:GLU:543:C:9874, H-A:TYR:484:OH:4346, H-B:GLU:543:OE1:9881, V-A:GLU:543:C:4900, V-A:ILE:369:CD1:3237, V-A:ASP:366:CG:3211, V-A:GLY:454:CA:4047, V-B:TYR:539:CE2:9848, V-A:ILE:369:CG2:3235, V-A:ASP:366:CA:3208, V-A:ASP:366:CB:3210, V-A:ILE:369:CB:3234, H-A:GLU:543:OE2:4908, H-A:GLU:543:OE1:4907, H-B:GLU:543:OE2:9882, H-A:HIS:456:ND1:4065"]

$$$$
4bk_Grossjean_2025
     RDKit          3D

 28 29  0  0  0  0  0  0  0  0999 V2000
  131.8770  126.0630   73.5090 C   0  0  0  0  0  0  0  0  0  0  0  0
  130.4930  125.7530   73.4570 O   0  0  0  0  0  0  0  0  0  0  0  0
  129.9640  125.7440   72.1380 C   0  0  0  0  0  0  0  0  0  0  0  0
  130.2310  127.0990   71.4690 C   0  0  0  0  0  0  0  0  0  0  0  0
  129.0210  127.8400   71.4060 O   0  0  0  0  0  0  0  0  0  0  0  0
  128.2770  127.6260   70.2140 C   0  0  0  0  0  0  0  0  0  0  0  0
  129.2320  127.2220   69.0830 C   0  0  0  0  0  0  0  0  0  0  0  0
  128.9300  127.9810   67.9200 O   0  0  0  0  0  0  0  0  0  0  0  0
  129.1350  127.2740   66.7030 C   0  0  0  0  0  0  0  0  0  0  0  0
  130.4250  126.4420   66.8070 C   0  0  0  0  0  0  0  0  0  0  0  0
  130.5900  125.4750   65.7210 N   0  0  0  0  0  0  0  0  0  0  0  0
  131.6900  125.3480   64.9510 C   0  0  0  0  0  0  0  0  0  0  0  0
  132.6930  126.0450   65.1120 O   0  0  0  0  0  0  0  0  0  0  0  0
  131.6320  124.3220   63.9090 C   0  0  0  0  0  0  0  0  0  0  0  0
  130.6350  122.8870   64.1360 S   0  0  0  0  0  0  0  0  0  0  0  0
  131.0810  122.2740   62.5610 C   0  0  0  0  0  0  0  0  0  0  0  0
  130.6090  121.1140   62.1080 N   0  0  0  0  0  0  0  0  0  0  0  0
  131.0240  120.7450   60.8740 C   0  0  0  0  0  0  0  0  0  0  0  0
  130.4730  119.4200   60.3760 C   0  0  0  0  0  0  0  0  0  0  0  0
  131.8910  121.5020   60.0900 C   0  0  0  0  0  0  0  0  0  0  0  0
  132.3930  122.7250   60.5620 C   0  0  0  0  0  0  0  0  0  0  0  0
  133.3470  123.5200   59.6660 C   0  0  0  0  0  0  0  0  0  0  0  0
  132.8320  124.6820   59.2560 F   0  0  0  0  0  0  0  0  0  0  0  0
  134.4690  123.7930   60.3310 F   0  0  0  0  0  0  0  0  0  0  0  0
  133.6420  122.8100   58.5780 F   0  0  0  0  0  0  0  0  0  0  0  0
  131.9740  123.1440   61.8610 C   0  0  0  0  0  0  0  0  0  0  0  0
  132.2660  124.3090   62.6570 C   0  0  0  0  0  0  0  0  0  0  0  0
  133.0950  125.3130   62.2270 N   0  0  0  0  0  0  0  0  0  0  0  0
  1  2  1  0
  2  3  1  0
  3  4  1  0
  4  5  1  0
  5  6  1  0
  6  7  1  0
  7  8  1  0
  8  9  1  0
  9 10  1  0
 10 11  1  0
 11 12  1  0
 12 13  2  0
 12 14  1  0
 14 15  1  0
 15 16  1  0
 16 17  2  0
 17 18  1  0
 18 19  1  0
 18 20  2  0
 20 21  1  0
 21 22  1  0
 22 23  1  0
 22 24  1  0
 22 25  1  0
 21 26  2  0
 26 27  1  0
 27 28  1  0
 27 14  2  0
 26 16  1  0
M  END
>  <Binding energies>  (54) 
[-5.98]

>  <Ligand effiencies>  (54) 
[-0.19290322580645164]

>  <Interactions>  (54) 
["V-B:GLU:543:CB:9878, V-A:HIS:456:CE1:4068, V-A:HIS:456:CD2:4066, V-B:GLU:543:CD:9880, V-A:GLU:543:CD:4906, V-B:HIS:456:CE1:9042, V-B:GLY:544:C:9884, V-A:GLY:544:C:4910, V-B:HIS:456:CD2:9040, V-B:GLU:543:CG:9879, V-A:GLU:543:CG:4905, H-B:LYS:547:NZ:9923, V-A:ARG:545:CZ:4924, H-A:TYR:484:OH:4346, V-A:HIS:456:CG:4064, V-A:HIS:456:CB:4063, V-A:TYR:484:CZ:4345, V-B:LYS:547:CE:9922, H-B:GLU:543:OE1:9881, H-A:ARG:545:NE:4922, V-B:TYR:539:CZ:9849, V-A:TRP:381:CZ2:3368, V-A:ILE:369:CD1:3237, V-A:LEU:475:CD2:4257, V-A:TRP:381:CH2:3370, V-A:ASP:366:CG:3211, V-B:ALA:541:CB:9864, V-B:TYR:539:CD2:9846, V-B:TYR:539:CE2:9848, V-A:ILE:369:CG2:3235, V-A:ASP:366:CB:3210, V-A:ILE:369:CG1:3236, V-A:ILE:369:CB:3234, H-A:ARG:545:NH2:4926, V-A:TRP:381:CZ3:3369, V-A:PRO:482:CG:4325, V-A:PRO:482:CB:4324, V-A:TYR:484:CE1:4343, H-B:GLU:543:OE2:9882, H-A:ASP:366:OD2:3213, H-A:ASP:366:OD1:3212"]

$$$$
4cd_Grossjean_2025
     RDKit          3D

 29 32  0  0  0  0  0  0  0  0999 V2000
  126.1250  126.4780   60.3820 N   0  0  0  0  0  0  0  0  0  0  0  0
  127.3460  126.3860   61.0000 C   0  0  0  0  0  0  0  0  0  0  0  0
  127.8150  127.3360   61.9220 C   0  0  0  0  0  0  0  0  0  0  0  0
  127.1590  128.5630   62.3840 C   0  0  0  0  0  0  0  0  0  0  0  0
  127.3820  129.0090   63.5090 O   0  0  0  0  0  0  0  0  0  0  0  0
  126.3220  129.1450   61.4900 N   0  0  0  0  0  0  0  0  0  0  0  0
  125.5110  130.2860   61.6330 C   0  0  0  0  0  0  0  0  0  0  0  0
  125.0950  130.8940   60.4460 C   0  0  0  0  0  0  0  0  0  0  0  0
  124.2780  132.0210   60.4830 C   0  0  0  0  0  0  0  0  0  0  0  0
  123.8690  132.5360   61.7100 C   0  0  0  0  0  0  0  0  0  0  0  0
  124.2650  131.9330   62.9000 C   0  0  0  0  0  0  0  0  0  0  0  0
  125.0830  130.8050   62.8670 C   0  0  0  0  0  0  0  0  0  0  0  0
  129.4120  126.9000   62.5270 S   0  0  0  0  0  0  0  0  0  0  0  0
  129.4440  125.4600   61.5370 C   0  0  0  0  0  0  0  0  0  0  0  0
  130.4870  124.6330   61.5470 N   0  0  0  0  0  0  0  0  0  0  0  0
  130.4250  123.5460   60.7330 C   0  0  0  0  0  0  0  0  0  0  0  0
  131.6160  122.6340   60.7640 C   0  0  0  0  0  0  0  0  0  0  0  0
  131.5880  121.3920   60.1070 C   0  0  0  0  0  0  0  0  0  0  0  0
  132.6890  120.5410   60.1310 C   0  0  0  0  0  0  0  0  0  0  0  0
  133.8400  120.9220   60.8130 C   0  0  0  0  0  0  0  0  0  0  0  0
  133.8960  122.1470   61.4690 C   0  0  0  0  0  0  0  0  0  0  0  0
  132.7940  122.9950   61.4410 C   0  0  0  0  0  0  0  0  0  0  0  0
  129.3100  123.2860   59.9310 C   0  0  0  0  0  0  0  0  0  0  0  0
  128.2030  124.1500   59.9160 C   0  0  0  0  0  0  0  0  0  0  0  0
  127.0160  123.8060   59.0100 C   0  0  0  0  0  0  0  0  0  0  0  0
  126.6970  124.7920   58.1670 F   0  0  0  0  0  0  0  0  0  0  0  0
  127.3050  122.7320   58.2750 F   0  0  0  0  0  0  0  0  0  0  0  0
  125.9390  123.5540   59.7540 F   0  0  0  0  0  0  0  0  0  0  0  0
  128.2620  125.2990   60.7560 C   0  0  0  0  0  0  0  0  0  0  0  0
  1  2  1  0
  2  3  2  0
  3  4  1  0
  4  5  2  0
  4  6  1  0
  6  7  1  0
  7  8  2  0
  8  9  1  0
  9 10  2  0
 10 11  1  0
 11 12  2  0
  3 13  1  0
 13 14  1  0
 14 15  2  0
 15 16  1  0
 16 17  1  0
 17 18  2  0
 18 19  1  0
 19 20  2  0
 20 21  1  0
 21 22  2  0
 16 23  2  0
 23 24  1  0
 24 25  1  0
 25 26  1  0
 25 27  1  0
 25 28  1  0
 24 29  2  0
 29  2  1  0
 12  7  1  0
 29 14  1  0
 22 17  1  0
M  END
>  <Binding energies>  (55) 
[-5.84]

>  <Ligand effiencies>  (55) 
[-0.1825]

>  <Interactions>  (55) 
["V-B:GLU:543:CD:9880, V-A:GLU:543:CD:4906, V-B:PRO:540:C:9853, V-A:TRP:381:CZ2:3368, V-A:ILE:369:CD1:3237, V-A:LEU:475:CD2:4257, V-A:TRP:381:CH2:3370, V-B:PRO:540:CA:9855, V-B:TYR:539:C:9839, V-B:TYR:539:CA:9841, V-A:GLY:454:CA:4047, V-B:TYR:539:CD2:9846, V-B:TYR:539:CE2:9848, V-A:ILE:369:CG2:3235, V-B:PRO:540:N:9856, V-B:PRO:540:CB:9857, V-B:ASP:366:CG:8185, V-B:ILE:369:CD1:8211, V-A:TYR:539:CE2:4874, V-B:ILE:369:CG2:8209, V-B:GLY:454:CA:9021, H-B:ASP:366:OD2:8187, H-B:ASP:366:OD1:8186"]

$$$$
4cg_Grossjean_2025
     RDKit          3D

 30 33  0  0  0  0  0  0  0  0999 V2000
  126.1450  126.6220   60.5800 N   0  0  0  0  0  0  0  0  0  0  0  0
  127.4180  126.5240   61.0810 C   0  0  0  0  0  0  0  0  0  0  0  0
  128.0140  127.5240   61.8630 C   0  0  0  0  0  0  0  0  0  0  0  0
  127.4350  128.7840   62.3290 C   0  0  0  0  0  0  0  0  0  0  0  0
  127.2480  129.7290   61.5600 O   0  0  0  0  0  0  0  0  0  0  0  0
  127.1600  128.8560   63.6490 N   0  0  0  0  0  0  0  0  0  0  0  0
  126.5600  130.0030   64.3280 C   0  0  0  0  0  0  0  0  0  0  0  0
  125.6200  130.8100   63.4390 C   0  0  0  0  0  0  0  0  0  0  0  0
  126.0130  132.0710   62.9790 C   0  0  0  0  0  0  0  0  0  0  0  0
  125.1710  132.7980   62.1410 C   0  0  0  0  0  0  0  0  0  0  0  0
  123.9450  132.2590   61.7590 C   0  0  0  0  0  0  0  0  0  0  0  0
  123.5550  130.9960   62.2010 C   0  0  0  0  0  0  0  0  0  0  0  0
  124.3970  130.2680   63.0370 C   0  0  0  0  0  0  0  0  0  0  0  0
  129.6420  127.0690   62.3560 S   0  0  0  0  0  0  0  0  0  0  0  0
  129.5240  125.5530   61.4930 C   0  0  0  0  0  0  0  0  0  0  0  0
  130.5290  124.6820   61.4800 N   0  0  0  0  0  0  0  0  0  0  0  0
  130.3440  123.5290   60.7860 C   0  0  0  0  0  0  0  0  0  0  0  0
  131.4990  122.5670   60.7890 C   0  0  0  0  0  0  0  0  0  0  0  0
  132.7860  122.9860   61.1640 C   0  0  0  0  0  0  0  0  0  0  0  0
  133.8580  122.0990   61.1660 C   0  0  0  0  0  0  0  0  0  0  0  0
  133.6600  120.7740   60.7900 C   0  0  0  0  0  0  0  0  0  0  0  0
  132.3970  120.3330   60.4120 C   0  0  0  0  0  0  0  0  0  0  0  0
  131.3270  121.2230   60.4100 C   0  0  0  0  0  0  0  0  0  0  0  0
  129.1560  123.2650   60.0950 C   0  0  0  0  0  0  0  0  0  0  0  0
  128.0900  124.1780   60.1020 C   0  0  0  0  0  0  0  0  0  0  0  0
  126.8170  123.8260   59.3230 C   0  0  0  0  0  0  0  0  0  0  0  0
  125.7730  123.5720   60.1130 F   0  0  0  0  0  0  0  0  0  0  0  0
  126.4790  124.8440   58.5290 F   0  0  0  0  0  0  0  0  0  0  0  0
  127.0290  122.7410   58.5800 F   0  0  0  0  0  0  0  0  0  0  0  0
  128.2680  125.3840   60.8390 C   0  0  0  0  0  0  0  0  0  0  0  0
  1  2  1  0
  2  3  2  0
  3  4  1  0
  4  5  2  0
  4  6  1  0
  6  7  1  0
  7  8  1  0
  8  9  2  0
  9 10  1  0
 10 11  2  0
 11 12  1  0
 12 13  2  0
  3 14  1  0
 14 15  1  0
 15 16  2  0
 16 17  1  0
 17 18  1  0
 18 19  2  0
 19 20  1  0
 20 21  2  0
 21 22  1  0
 22 23  2  0
 17 24  2  0
 24 25  1  0
 25 26  1  0
 26 27  1  0
 26 28  1  0
 26 29  1  0
 25 30  2  0
 30  2  1  0
 13  8  1  0
 30 15  1  0
 23 18  1  0
M  END
>  <Binding energies>  (56) 
[-6.84]

>  <Ligand effiencies>  (56) 
[-0.20727272727272728]

>  <Interactions>  (56) 
["V-B:ARG:545:CZ:9898, V-B:GLY:453:CA:9016, V-B:GLU:543:CD:9880, V-A:GLU:543:CD:4906, V-B:GLY:453:C:9014, H-B:GLU:543:OE1:9881, V-B:PRO:540:C:9853, V-A:TRP:381:CZ2:3368, V-A:ILE:369:CD1:3237, V-A:LEU:475:CD2:4257, V-A:TRP:381:CH2:3370, V-B:PRO:540:CA:9855, V-B:TYR:539:C:9839, V-A:GLY:454:CA:4047, V-B:TYR:539:CD2:9846, V-B:TYR:539:CE2:9848, V-A:ILE:369:CG2:3235, V-B:PRO:540:N:9856, V-B:PRO:540:CB:9857, V-B:LEU:475:CD2:9231, V-B:ASP:366:CG:8185, V-B:ILE:369:CD1:8211, H-A:GLU:543:OE2:4908, H-A:GLU:543:OE1:4907, H-B:GLU:543:OE2:9882, H-B:ASP:366:OD2:8187, H-B:ASP:366:OD1:8186"]

$$$$
4ch_Grossjean_2025
     RDKit          3D

 36 39  0  0  0  0  0  0  0  0999 V2000
  126.5590  128.1800   66.6910 C   0  0  0  0  0  0  0  0  0  0  0  0
  126.9980  127.6270   67.9270 O   0  0  0  0  0  0  0  0  0  0  0  0
  128.3540  127.5110   68.1740 C   0  0  0  0  0  0  0  0  0  0  0  0
  129.3140  127.2700   67.1790 C   0  0  0  0  0  0  0  0  0  0  0  0
  130.6680  127.1660   67.5010 C   0  0  0  0  0  0  0  0  0  0  0  0
  131.6930  126.8760   66.4110 C   0  0  0  0  0  0  0  0  0  0  0  0
  131.1480  126.1870   65.2410 N   0  0  0  0  0  0  0  0  0  0  0  0
  131.8220  125.3230   64.4540 C   0  0  0  0  0  0  0  0  0  0  0  0
  132.9930  125.0040   64.6720 O   0  0  0  0  0  0  0  0  0  0  0  0
  131.0700  124.7510   63.3370 C   0  0  0  0  0  0  0  0  0  0  0  0
  129.9060  125.7380   62.4590 S   0  0  0  0  0  0  0  0  0  0  0  0
  129.5290  124.4150   61.3830 C   0  0  0  0  0  0  0  0  0  0  0  0
  128.6300  124.5440   60.4110 N   0  0  0  0  0  0  0  0  0  0  0  0
  128.4070  123.4620   59.6200 C   0  0  0  0  0  0  0  0  0  0  0  0
  127.3820  123.6390   58.5370 C   0  0  0  0  0  0  0  0  0  0  0  0
  127.5210  122.9860   57.3020 C   0  0  0  0  0  0  0  0  0  0  0  0
  126.5740  123.1470   56.2930 C   0  0  0  0  0  0  0  0  0  0  0  0
  125.4710  123.9660   56.5060 C   0  0  0  0  0  0  0  0  0  0  0  0
  125.3110  124.6280   57.7190 C   0  0  0  0  0  0  0  0  0  0  0  0
  126.2610  124.4660   58.7240 C   0  0  0  0  0  0  0  0  0  0  0  0
  129.0770  122.2510   59.8210 C   0  0  0  0  0  0  0  0  0  0  0  0
  130.0280  122.1020   60.8440 C   0  0  0  0  0  0  0  0  0  0  0  0
  130.7250  120.7470   61.0080 C   0  0  0  0  0  0  0  0  0  0  0  0
  130.5680  120.2210   62.2250 F   0  0  0  0  0  0  0  0  0  0  0  0
  130.2300  119.8760   60.1300 F   0  0  0  0  0  0  0  0  0  0  0  0
  132.0340  120.8860   60.8000 F   0  0  0  0  0  0  0  0  0  0  0  0
  130.2780  123.2350   61.6700 C   0  0  0  0  0  0  0  0  0  0  0  0
  131.1610  123.4620   62.7890 C   0  0  0  0  0  0  0  0  0  0  0  0
  132.0060  122.4970   63.2760 N   0  0  0  0  0  0  0  0  0  0  0  0
  131.0700  127.2860   68.8320 C   0  0  0  0  0  0  0  0  0  0  0  0
  130.1310  127.5260   69.8480 C   0  0  0  0  0  0  0  0  0  0  0  0
  130.4590  127.6570   71.1850 O   0  0  0  0  0  0  0  0  0  0  0  0
  130.9880  126.5390   71.8890 C   0  0  0  0  0  0  0  0  0  0  0  0
  128.7770  127.6420   69.5050 C   0  0  0  0  0  0  0  0  0  0  0  0
  127.8460  127.8620   70.4910 O   0  0  0  0  0  0  0  0  0  0  0  0
  127.9890  127.0120   71.6210 C   0  0  0  0  0  0  0  0  0  0  0  0
  1  2  1  0
  2  3  1  0
  3  4  2  0
  4  5  1  0
  5  6  1  0
  6  7  1  0
  7  8  1  0
  8  9  2  0
  8 10  1  0
 10 11  1  0
 11 12  1  0
 12 13  2  0
 13 14  1  0
 14 15  1  0
 15 16  2  0
 16 17  1  0
 17 18  2  0
 18 19  1  0
 19 20  2  0
 14 21  2  0
 21 22  1  0
 22 23  1  0
 23 24  1  0
 23 25  1  0
 23 26  1  0
 22 27  2  0
 27 28  1  0
 28 29  1  0
  5 30  2  0
 30 31  1  0
 31 32  1  0
 32 33  1  0
 31 34  2  0
 34 35  1  0
 35 36  1  0
 34  3  1  0
 28 10  2  0
 27 12  1  0
 20 15  1  0
M  END
>  <Binding energies>  (57) 
[-6.98]

>  <Ligand effiencies>  (57) 
[-0.17897435897435898]

>  <Interactions>  (57) 
["V-A:HIS:456:CE1:4068, V-A:HIS:456:CD2:4066, V-B:GLU:543:CD:9880, V-A:GLU:543:CD:4906, V-B:HIS:456:CE1:9042, V-B:GLY:544:C:9884, V-A:GLY:544:C:4910, V-B:GLU:543:CG:9879, V-A:GLU:543:CG:4905, H-A:GLY:454:N:4048, V-A:ARG:545:CZ:4924, V-A:ARG:545:CG:4920, H-A:TYR:484:OH:4346, V-A:ARG:545:CD:4921, V-A:HIS:456:CG:4064, V-A:TYR:484:CZ:4345, H-B:GLU:543:OE1:9881, V-B:GLY:544:CA:9886, H-A:ARG:545:NE:4922, V-A:GLU:543:C:4900, V-A:ARG:545:CA:4917, V-A:TRP:381:CZ2:3368, V-A:LEU:475:CD2:4257, V-A:TRP:381:CH2:3370, V-B:PRO:540:CA:9855, V-B:TYR:539:C:9839, V-B:TYR:539:CA:9841, V-A:GLY:454:CA:4047, V-B:ALA:541:CB:9864, V-B:TYR:539:CD2:9846, V-B:TYR:539:CE2:9848, V-B:PRO:540:N:9856, V-A:PRO:482:CB:4324, H-A:GLU:543:OE2:4908, H-B:GLU:543:OE2:9882, V-B:ARG:545:CG:9894, V-B:ARG:545:CD:9895, V-A:LEU:475:CD1:4256, V-A:LEU:475:CG:4255"]

$$$$
4cj_Grossjean_2025
     RDKit          3D

 28 31  0  0  0  0  0  0  0  0999 V2000
  126.3380  125.9440   59.0240 N   0  0  0  0  0  0  0  0  0  0  0  0
  127.3990  125.8760   59.8900 C   0  0  0  0  0  0  0  0  0  0  0  0
  127.6060  126.8010   60.9270 C   0  0  0  0  0  0  0  0  0  0  0  0
  126.7880  127.9590   61.2950 C   0  0  0  0  0  0  0  0  0  0  0  0
  126.0570  128.5040   60.4650 O   0  0  0  0  0  0  0  0  0  0  0  0
  126.9090  128.3710   62.5810 N   0  0  0  0  0  0  0  0  0  0  0  0
  126.2490  129.4360   63.1810 C   0  0  0  0  0  0  0  0  0  0  0  0
  125.3980  129.3960   64.1840 N   0  0  0  0  0  0  0  0  0  0  0  0
  124.9650  130.6010   64.4990 C   0  0  0  0  0  0  0  0  0  0  0  0
  125.4700  131.6550   63.7430 C   0  0  0  0  0  0  0  0  0  0  0  0
  126.5720  131.0210   62.5560 S   0  0  0  0  0  0  0  0  0  0  0  0
  129.0540  126.4070   61.8510 S   0  0  0  0  0  0  0  0  0  0  0  0
  129.3710  125.0140   60.8440 C   0  0  0  0  0  0  0  0  0  0  0  0
  130.4220  124.2270   61.0600 N   0  0  0  0  0  0  0  0  0  0  0  0
  130.5830  123.1630   60.2320 C   0  0  0  0  0  0  0  0  0  0  0  0
  131.7710  122.2880   60.5110 C   0  0  0  0  0  0  0  0  0  0  0  0
  132.8530  122.7650   61.2680 C   0  0  0  0  0  0  0  0  0  0  0  0
  133.9600  121.9600   61.5260 C   0  0  0  0  0  0  0  0  0  0  0  0
  134.0030  120.6630   61.0250 C   0  0  0  0  0  0  0  0  0  0  0  0
  132.9460  120.1670   60.2690 C   0  0  0  0  0  0  0  0  0  0  0  0
  131.8410  120.9740   60.0160 C   0  0  0  0  0  0  0  0  0  0  0  0
  129.7020  122.9090   59.1750 C   0  0  0  0  0  0  0  0  0  0  0  0
  128.5910  123.7340   58.9370 C   0  0  0  0  0  0  0  0  0  0  0  0
  127.6640  123.3970   57.7640 C   0  0  0  0  0  0  0  0  0  0  0  0
  126.4220  123.0940   58.1480 F   0  0  0  0  0  0  0  0  0  0  0  0
  127.5840  124.4410   56.9400 F   0  0  0  0  0  0  0  0  0  0  0  0
  128.1420  122.3460   57.0980 F   0  0  0  0  0  0  0  0  0  0  0  0
  128.4020  124.8420   59.8130 C   0  0  0  0  0  0  0  0  0  0  0  0
  1  2  1  0
  2  3  2  0
  3  4  1  0
  4  5  2  0
  4  6  1  0
  6  7  1  0
  7  8  2  0
  8  9  1  0
  9 10  2  0
 10 11  1  0
  3 12  1  0
 12 13  1  0
 13 14  2  0
 14 15  1  0
 15 16  1  0
 16 17  2  0
 17 18  1  0
 18 19  2  0
 19 20  1  0
 20 21  2  0
 15 22  2  0
 22 23  1  0
 23 24  1  0
 24 25  1  0
 24 26  1  0
 24 27  1  0
 23 28  2  0
 28  2  1  0
 11  7  1  0
 28 13  1  0
 21 16  1  0
M  END
>  <Binding energies>  (58) 
[-5.32]

>  <Ligand effiencies>  (58) 
[-0.17161290322580647]

>  <Interactions>  (58) 
["V-B:ARG:545:CZ:9898, V-B:GLU:543:CD:9880, H-B:ARG:545:NE:9896, H-B:GLU:543:OE1:9881, V-B:TYR:539:CZ:9849, V-B:TYR:539:CG:9844, V-A:TRP:381:CZ2:3368, V-B:TYR:539:CD1:9845, V-A:ILE:369:CD1:3237, V-A:LEU:475:CD2:4257, V-A:TRP:381:CH2:3370, V-B:PRO:540:CA:9855, V-B:TYR:539:C:9839, V-B:TYR:539:CA:9841, V-A:GLY:454:CA:4047, V-B:PRO:540:CD:9859, V-B:TYR:539:CB:9843, V-B:TYR:539:CD2:9846, V-B:TYR:539:CE1:9847, V-B:TYR:539:CE2:9848, V-A:ILE:369:CG2:3235, V-B:PRO:540:N:9856, V-B:PRO:540:CB:9857, V-B:ASP:366:CG:8185, H-B:ARG:545:NH2:9900, V-B:GLY:454:CA:9021, H-B:TYR:531:OH:9767, H-A:GLU:543:OE2:4908, H-A:GLU:543:OE1:4907, H-B:GLU:543:OE2:9882, H-B:ASP:366:OD2:8187, V-A:SER:385:C:3403"]

$$$$
4ck_Grossjean_2025
     RDKit          3D

 33 35  0  0  0  0  0  0  0  0999 V2000
  127.8740  127.9140   71.2860 C   0  0  0  0  0  0  0  0  0  0  0  0
  129.1140  127.2420   71.4420 O   0  0  0  0  0  0  0  0  0  0  0  0
  130.0810  127.6080   70.4670 C   0  0  0  0  0  0  0  0  0  0  0  0
  129.7020  126.9740   69.1230 C   0  0  0  0  0  0  0  0  0  0  0  0
  129.3360  128.0020   68.2120 O   0  0  0  0  0  0  0  0  0  0  0  0
  127.9910  127.9110   67.7630 C   0  0  0  0  0  0  0  0  0  0  0  0
  127.8700  128.5940   66.3950 C   0  0  0  0  0  0  0  0  0  0  0  0
  126.5090  128.5640   65.9880 O   0  0  0  0  0  0  0  0  0  0  0  0
  125.9860  129.8380   65.6350 C   0  0  0  0  0  0  0  0  0  0  0  0
  126.0920  130.0370   64.1150 C   0  0  0  0  0  0  0  0  0  0  0  0
  126.7560  128.9100   63.4590 N   0  0  0  0  0  0  0  0  0  0  0  0
  127.4350  128.9630   62.2940 C   0  0  0  0  0  0  0  0  0  0  0  0
  127.5910  130.0090   61.6620 O   0  0  0  0  0  0  0  0  0  0  0  0
  127.9930  127.6950   61.8220 C   0  0  0  0  0  0  0  0  0  0  0  0
  129.6330  127.2310   62.2700 S   0  0  0  0  0  0  0  0  0  0  0  0
  129.4800  125.7110   61.4200 C   0  0  0  0  0  0  0  0  0  0  0  0
  130.4770  124.8310   61.3850 N   0  0  0  0  0  0  0  0  0  0  0  0
  130.2660  123.6780   60.6980 C   0  0  0  0  0  0  0  0  0  0  0  0
  131.4040  122.6980   60.6930 C   0  0  0  0  0  0  0  0  0  0  0  0
  131.1880  121.3470   60.3800 C   0  0  0  0  0  0  0  0  0  0  0  0
  132.2390  120.4320   60.3760 C   0  0  0  0  0  0  0  0  0  0  0  0
  133.5260  120.8590   60.6860 C   0  0  0  0  0  0  0  0  0  0  0  0
  133.7690  122.1930   60.9950 C   0  0  0  0  0  0  0  0  0  0  0  0
  132.7150  123.1040   60.9970 C   0  0  0  0  0  0  0  0  0  0  0  0
  129.0510  123.4110   60.0580 C   0  0  0  0  0  0  0  0  0  0  0  0
  127.9930  124.3320   60.0870 C   0  0  0  0  0  0  0  0  0  0  0  0
  126.6900  123.9770   59.3610 C   0  0  0  0  0  0  0  0  0  0  0  0
  125.6750  123.7390   60.1920 F   0  0  0  0  0  0  0  0  0  0  0  0
  126.3290  124.9840   58.5660 F   0  0  0  0  0  0  0  0  0  0  0  0
  126.8700  122.8790   58.6260 F   0  0  0  0  0  0  0  0  0  0  0  0
  128.2050  125.5460   60.8030 C   0  0  0  0  0  0  0  0  0  0  0  0
  127.3710  126.6970   61.0570 C   0  0  0  0  0  0  0  0  0  0  0  0
  126.0870  126.8020   60.5870 N   0  0  0  0  0  0  0  0  0  0  0  0
  1  2  1  0
  2  3  1  0
  3  4  1  0
  4  5  1  0
  5  6  1  0
  6  7  1  0
  7  8  1  0
  8  9  1  0
  9 10  1  0
 10 11  1  0
 11 12  1  0
 12 13  2  0
 12 14  1  0
 14 15  1  0
 15 16  1  0
 16 17  2  0
 17 18  1  0
 18 19  1  0
 19 20  2  0
 20 21  1  0
 21 22  2  0
 22 23  1  0
 23 24  2  0
 18 25  2  0
 25 26  1  0
 26 27  1  0
 27 28  1  0
 27 29  1  0
 27 30  1  0
 26 31  2  0
 31 32  1  0
 32 33  1  0
 32 14  2  0
 31 16  1  0
 24 19  1  0
M  END
>  <Binding energies>  (59) 
[-5.53]

>  <Ligand effiencies>  (59) 
[-0.15361111111111111]

>  <Interactions>  (59) 
["V-B:ARG:545:CZ:9898, V-A:HIS:456:CE1:4068, V-B:GLU:543:CD:9880, V-A:GLU:543:CD:4906, V-B:HIS:456:CE1:9042, V-A:GLY:544:CA:4912, V-B:GLY:544:C:9884, V-A:GLY:544:C:4910, H-B:ARG:545:NE:9896, V-B:HIS:456:CD2:9040, V-A:GLU:543:CB:4904, V-B:GLU:543:CG:9879, V-A:GLU:543:CG:4905, V-A:GLU:543:C:4900, V-B:PRO:540:C:9853, V-A:TRP:381:CZ2:3368, V-A:ILE:369:CD1:3237, V-A:LEU:475:CD2:4257, V-A:TRP:381:CH2:3370, V-B:PRO:540:CA:9855, V-B:TYR:539:C:9839, V-B:TYR:539:CD2:9846, V-B:TYR:539:CE2:9848, V-A:ILE:369:CG2:3235, V-B:PRO:540:N:9856, V-B:PRO:540:CB:9857, V-B:ASP:366:CG:8185, V-B:TYR:484:CZ:9319, V-B:HIS:456:CG:9038, H-B:GLU:543:OE2:9882, H-B:ASP:366:OD2:8187, H-B:ASP:366:OD1:8186"]

$$$$
4dd_Grossjean_2025
     RDKit          3D

 26 29  0  0  0  0  0  0  0  0999 V2000
  126.4560  123.1370   57.1410 C   0  0  0  0  0  0  0  0  0  0  0  0
  127.4690  123.6540   58.1510 C   0  0  0  0  0  0  0  0  0  0  0  0
  128.5230  122.8090   58.5200 C   0  0  0  0  0  0  0  0  0  0  0  0
  129.4890  123.2260   59.4440 C   0  0  0  0  0  0  0  0  0  0  0  0
  130.6260  122.3410   59.8620 C   0  0  0  0  0  0  0  0  0  0  0  0
  130.3870  121.0470   60.3550 C   0  0  0  0  0  0  0  0  0  0  0  0
  131.4380  120.2190   60.7420 C   0  0  0  0  0  0  0  0  0  0  0  0
  132.7470  120.6750   60.6430 C   0  0  0  0  0  0  0  0  0  0  0  0
  133.0130  121.9510   60.1570 C   0  0  0  0  0  0  0  0  0  0  0  0
  131.9600  122.7750   59.7690 C   0  0  0  0  0  0  0  0  0  0  0  0
  129.4420  124.4540   60.0290 N   0  0  0  0  0  0  0  0  0  0  0  0
  128.4430  125.2610   59.6740 C   0  0  0  0  0  0  0  0  0  0  0  0
  128.2720  126.8720   60.3340 S   0  0  0  0  0  0  0  0  0  0  0  0
  126.8180  127.1610   59.3760 C   0  0  0  0  0  0  0  0  0  0  0  0
  126.1210  128.4460   59.4560 C   0  0  0  0  0  0  0  0  0  0  0  0
  125.7970  129.0490   58.4320 O   0  0  0  0  0  0  0  0  0  0  0  0
  125.8670  128.8920   60.7110 N   0  0  0  0  0  0  0  0  0  0  0  0
  125.2720  130.0950   61.1310 C   0  0  0  0  0  0  0  0  0  0  0  0
  125.1600  130.2700   62.5140 C   0  0  0  0  0  0  0  0  0  0  0  0
  124.5970  131.4350   63.0300 C   0  0  0  0  0  0  0  0  0  0  0  0
  124.1530  132.4290   62.1640 C   0  0  0  0  0  0  0  0  0  0  0  0
  124.2700  132.2730   60.7850 C   0  0  0  0  0  0  0  0  0  0  0  0
  124.8320  131.1100   60.2650 C   0  0  0  0  0  0  0  0  0  0  0  0
  126.4990  126.0410   58.5920 C   0  0  0  0  0  0  0  0  0  0  0  0
  125.4150  125.9820   57.7510 N   0  0  0  0  0  0  0  0  0  0  0  0
  127.4150  124.9420   58.7430 C   0  0  0  0  0  0  0  0  0  0  0  0
  1  2  1  0
  2  3  2  0
  3  4  1  0
  4  5  1  0
  5  6  2  0
  6  7  1  0
  7  8  2  0
  8  9  1  0
  9 10  2  0
  4 11  2  0
 11 12  1  0
 12 13  1  0
 13 14  1  0
 14 15  1  0
 15 16  2  0
 15 17  1  0
 17 18  1  0
 18 19  2  0
 19 20  1  0
 20 21  2  0
 21 22  1  0
 22 23  2  0
 14 24  2  0
 24 25  1  0
 24 26  1  0
 26  2  1  0
 10  5  1  0
 26 12  2  0
 23 18  1  0
M  END
>  <Binding energies>  (60) 
[-6.23]

>  <Ligand effiencies>  (60) 
[-0.21482758620689657]

>  <Interactions>  (60) 
["V-A:TRP:381:CZ2:3368, V-A:LEU:475:CD2:4257, V-A:TRP:381:CH2:3370, V-B:PRO:540:CA:9855, V-B:TYR:539:C:9839, V-B:PRO:540:CD:9859, V-B:ALA:541:CB:9864, V-B:TYR:539:CD2:9846, V-B:TYR:539:CE2:9848, V-A:ILE:369:CG2:3235, V-B:PRO:540:N:9856, V-B:ASP:366:CG:8185, V-B:ILE:369:CD1:8211, V-B:ILE:369:CG2:8209, V-B:GLY:454:CA:9021, V-B:ASP:366:CB:8184, H-B:TYR:531:OH:9767, H-B:ASP:366:OD2:8187, V-B:TYR:531:CZ:9766, H-B:ASP:366:OD1:8186"]

$$$$
4dg_Grossjean_2025
     RDKit          3D

 27 30  0  0  0  0  0  0  0  0999 V2000
  126.5970  123.9060   59.5040 C   0  0  0  0  0  0  0  0  0  0  0  0
  127.9300  124.2060   60.1740 C   0  0  0  0  0  0  0  0  0  0  0  0
  128.9420  123.2420   60.0900 C   0  0  0  0  0  0  0  0  0  0  0  0
  130.1910  123.4570   60.6850 C   0  0  0  0  0  0  0  0  0  0  0  0
  131.2970  122.4420   60.6100 C   0  0  0  0  0  0  0  0  0  0  0  0
  132.6400  122.8280   60.7500 C   0  0  0  0  0  0  0  0  0  0  0  0
  133.6700  121.8920   60.6780 C   0  0  0  0  0  0  0  0  0  0  0  0
  133.3690  120.5520   60.4640 C   0  0  0  0  0  0  0  0  0  0  0  0
  132.0480  120.1410   60.3180 C   0  0  0  0  0  0  0  0  0  0  0  0
  131.0230  121.0800   60.3900 C   0  0  0  0  0  0  0  0  0  0  0  0
  130.4820  124.6090   61.3490 N   0  0  0  0  0  0  0  0  0  0  0  0
  129.5190  125.5260   61.4300 C   0  0  0  0  0  0  0  0  0  0  0  0
  129.7570  127.0460   62.2600 S   0  0  0  0  0  0  0  0  0  0  0  0
  128.1140  127.5610   61.8810 C   0  0  0  0  0  0  0  0  0  0  0  0
  127.6160  128.8470   62.3670 C   0  0  0  0  0  0  0  0  0  0  0  0
  127.5660  129.8350   61.6320 O   0  0  0  0  0  0  0  0  0  0  0  0
  127.2570  128.8860   63.6670 N   0  0  0  0  0  0  0  0  0  0  0  0
  126.7130  130.0530   64.3600 C   0  0  0  0  0  0  0  0  0  0  0  0
  125.6570  130.7990   63.5520 C   0  0  0  0  0  0  0  0  0  0  0  0
  124.5930  130.0950   62.9810 C   0  0  0  0  0  0  0  0  0  0  0  0
  123.6100  130.7770   62.2700 C   0  0  0  0  0  0  0  0  0  0  0  0
  123.6880  132.1620   62.1400 C   0  0  0  0  0  0  0  0  0  0  0  0
  124.7360  132.8720   62.7200 C   0  0  0  0  0  0  0  0  0  0  0  0
  125.7190  132.1910   63.4340 C   0  0  0  0  0  0  0  0  0  0  0  0
  127.4260  126.5760   61.1570 C   0  0  0  0  0  0  0  0  0  0  0  0
  126.1250  126.7040   60.7410 N   0  0  0  0  0  0  0  0  0  0  0  0
  128.2130  125.4060   60.8760 C   0  0  0  0  0  0  0  0  0  0  0  0
  1  2  1  0
  2  3  2  0
  3  4  1  0
  4  5  1  0
  5  6  2  0
  6  7  1  0
  7  8  2  0
  8  9  1  0
  9 10  2  0
  4 11  2  0
 11 12  1  0
 12 13  1  0
 13 14  1  0
 14 15  1  0
 15 16  2  0
 15 17  1  0
 17 18  1  0
 18 19  1  0
 19 20  2  0
 20 21  1  0
 21 22  2  0
 22 23  1  0
 23 24  2  0
 14 25  2  0
 25 26  1  0
 25 27  1  0
 27  2  1  0
 10  5  1  0
 27 12  2  0
 24 19  1  0
M  END
>  <Binding energies>  (61) 
[-7.17]

>  <Ligand effiencies>  (61) 
[-0.239]

>  <Interactions>  (61) 
["V-B:ARG:545:CZ:9898, V-B:GLY:453:CA:9016, V-B:GLU:543:CD:9880, V-A:GLU:543:CD:4906, H-B:GLU:543:OE1:9881, V-A:TRP:381:CZ2:3368, V-A:ILE:369:CD1:3237, V-A:LEU:475:CD2:4257, V-A:TRP:381:CH2:3370, V-B:PRO:540:CA:9855, V-B:TYR:539:CD2:9846, V-B:TYR:539:CE2:9848, V-A:ILE:369:CG2:3235, V-B:LEU:475:CD2:9231, V-B:ASP:366:CG:8185, V-B:ILE:369:CD1:8211, V-B:GLY:454:CA:9021, H-A:GLU:543:OE2:4908, H-A:GLU:543:OE1:4907, H-B:GLU:543:OE2:9882, H-B:ASP:366:OD2:8187, H-B:ASP:366:OD1:8186"]

$$$$
4dj_Grossjean_2025
     RDKit          3D

 25 28  0  0  0  0  0  0  0  0999 V2000
  126.9920  123.1630   59.4070 C   0  0  0  0  0  0  0  0  0  0  0  0
  128.2450  123.7170   60.0680 C   0  0  0  0  0  0  0  0  0  0  0  0
  129.3610  122.8790   60.1730 C   0  0  0  0  0  0  0  0  0  0  0  0
  130.5440  123.3270   60.7730 C   0  0  0  0  0  0  0  0  0  0  0  0
  131.7590  122.4520   60.8950 C   0  0  0  0  0  0  0  0  0  0  0  0
  131.8360  121.2270   60.2130 C   0  0  0  0  0  0  0  0  0  0  0  0
  132.9590  120.4110   60.3220 C   0  0  0  0  0  0  0  0  0  0  0  0
  134.0250  120.8090   61.1220 C   0  0  0  0  0  0  0  0  0  0  0  0
  133.9750  122.0150   61.8120 C   0  0  0  0  0  0  0  0  0  0  0  0
  132.8510  122.8280   61.6990 C   0  0  0  0  0  0  0  0  0  0  0  0
  130.6680  124.5920   61.2600 N   0  0  0  0  0  0  0  0  0  0  0  0
  129.6060  125.3910   61.1610 C   0  0  0  0  0  0  0  0  0  0  0  0
  129.6250  127.0370   61.7530 S   0  0  0  0  0  0  0  0  0  0  0  0
  127.9560  127.2910   61.2380 C   0  0  0  0  0  0  0  0  0  0  0  0
  127.2980  128.5780   61.4680 C   0  0  0  0  0  0  0  0  0  0  0  0
  127.2220  129.4170   60.5660 O   0  0  0  0  0  0  0  0  0  0  0  0
  126.8050  128.7660   62.7170 N   0  0  0  0  0  0  0  0  0  0  0  0
  126.1440  129.8900   63.1920 C   0  0  0  0  0  0  0  0  0  0  0  0
  125.0020  129.9400   63.8440 N   0  0  0  0  0  0  0  0  0  0  0  0
  124.6690  131.1800   64.1450 C   0  0  0  0  0  0  0  0  0  0  0  0
  125.5550  132.1720   63.7350 C   0  0  0  0  0  0  0  0  0  0  0  0
  126.8930  131.4290   62.9110 S   0  0  0  0  0  0  0  0  0  0  0  0
  127.4300  126.1350   60.6400 C   0  0  0  0  0  0  0  0  0  0  0  0
  126.1520  126.0440   60.1490 N   0  0  0  0  0  0  0  0  0  0  0  0
  128.3550  125.0350   60.5820 C   0  0  0  0  0  0  0  0  0  0  0  0
  1  2  1  0
  2  3  2  0
  3  4  1  0
  4  5  1  0
  5  6  2  0
  6  7  1  0
  7  8  2  0
  8  9  1  0
  9 10  2  0
  4 11  2  0
 11 12  1  0
 12 13  1  0
 13 14  1  0
 14 15  1  0
 15 16  2  0
 15 17  1  0
 17 18  1  0
 18 19  2  0
 19 20  1  0
 20 21  2  0
 21 22  1  0
 14 23  2  0
 23 24  1  0
 23 25  1  0
 25  2  1  0
 10  5  1  0
 25 12  2  0
 22 18  1  0
M  END
>  <Binding energies>  (62) 
[-5.91]

>  <Ligand effiencies>  (62) 
[-0.21107142857142858]

>  <Interactions>  (62) 
["V-B:ARG:545:CZ:9898, H-B:ARG:545:NE:9896, V-B:PRO:540:C:9853, V-A:TRP:381:CZ2:3368, V-A:ILE:369:CD1:3237, V-A:LEU:475:CD2:4257, V-A:TRP:381:CH2:3370, V-B:PRO:540:CA:9855, V-B:TYR:539:C:9839, V-A:GLY:454:CA:4047, V-B:TYR:539:CD2:9846, V-B:TYR:539:CE2:9848, V-A:ILE:369:CG2:3235, V-B:PRO:540:N:9856, V-B:PRO:540:CB:9857, V-B:LEU:475:CD2:9231, V-B:ASP:366:CG:8185, H-B:ARG:545:NH2:9900, V-B:GLY:454:CA:9021, H-B:GLU:543:OE2:9882, H-B:ASP:366:OD2:8187, V-A:SER:385:C:3403"]

$$$$
4ea_Grossjean_2025
     RDKit          3D

 31 34  0  0  0  0  0  0  0  0999 V2000
  130.8080  126.2080   72.6350 C   0  0  0  0  0  0  0  0  0  0  0  0
  129.4730  125.8100   71.9990 C   0  0  0  0  0  0  0  0  0  0  0  0
  128.6190  126.9460   71.9430 O   0  0  0  0  0  0  0  0  0  0  0  0
  128.9070  128.0010   71.1370 C   0  0  0  0  0  0  0  0  0  0  0  0
  128.9920  129.1630   71.5440 O   0  0  0  0  0  0  0  0  0  0  0  0
  129.1100  127.6120   69.7010 C   0  0  0  0  0  0  0  0  0  0  0  0
  130.4100  127.5700   69.1820 C   0  0  0  0  0  0  0  0  0  0  0  0
  130.6320  127.2140   67.8550 C   0  0  0  0  0  0  0  0  0  0  0  0
  129.5620  126.8920   67.0200 C   0  0  0  0  0  0  0  0  0  0  0  0
  129.9060  126.5470   65.6990 N   0  0  0  0  0  0  0  0  0  0  0  0
  130.6300  125.5040   65.2230 C   0  0  0  0  0  0  0  0  0  0  0  0
  131.1370  124.6320   65.9300 O   0  0  0  0  0  0  0  0  0  0  0  0
  130.7860  125.4650   63.7670 C   0  0  0  0  0  0  0  0  0  0  0  0
  130.2380  126.8170   62.7730 S   0  0  0  0  0  0  0  0  0  0  0  0
  130.7570  126.0150   61.3090 C   0  0  0  0  0  0  0  0  0  0  0  0
  130.6050  126.5740   60.1070 N   0  0  0  0  0  0  0  0  0  0  0  0
  131.0490  125.8470   59.0520 C   0  0  0  0  0  0  0  0  0  0  0  0
  130.8670  126.5010   57.6950 C   0  0  0  0  0  0  0  0  0  0  0  0
  131.6350  124.5890   59.1690 C   0  0  0  0  0  0  0  0  0  0  0  0
  131.7930  124.0070   60.4310 C   0  0  0  0  0  0  0  0  0  0  0  0
  132.4170  122.6690   60.5390 C   0  0  0  0  0  0  0  0  0  0  0  0
  131.7140  121.5300   60.1320 C   0  0  0  0  0  0  0  0  0  0  0  0
  132.3020  120.2720   60.2310 C   0  0  0  0  0  0  0  0  0  0  0  0
  133.5920  120.1520   60.7420 C   0  0  0  0  0  0  0  0  0  0  0  0
  134.3000  121.2790   61.1540 C   0  0  0  0  0  0  0  0  0  0  0  0
  133.7110  122.5360   61.0540 C   0  0  0  0  0  0  0  0  0  0  0  0
  131.3390  124.7360   61.5640 C   0  0  0  0  0  0  0  0  0  0  0  0
  131.3430  124.4480   62.9750 C   0  0  0  0  0  0  0  0  0  0  0  0
  131.8510  123.2780   63.4810 N   0  0  0  0  0  0  0  0  0  0  0  0
  128.2550  126.9310   67.5320 C   0  0  0  0  0  0  0  0  0  0  0  0
  128.0350  127.2870   68.8590 C   0  0  0  0  0  0  0  0  0  0  0  0
  1  2  1  0
  2  3  1  0
  3  4  1  0
  4  5  2  0
  4  6  1  0
  6  7  2  0
  7  8  1  0
  8  9  2  0
  9 10  1  0
 10 11  1  0
 11 12  2  0
 11 13  1  0
 13 14  1  0
 14 15  1  0
 15 16  2  0
 16 17  1  0
 17 18  1  0
 17 19  2  0
 19 20  1  0
 20 21  1  0
 21 22  2  0
 22 23  1  0
 23 24  2  0
 24 25  1  0
 25 26  2  0
 20 27  2  0
 27 28  1  0
 28 29  1  0
  9 30  1  0
 30 31  2  0
 31  6  1  0
 28 13  2  0
 27 15  1  0
 26 21  1  0
M  END
>  <Binding energies>  (63) 
[-7.3]

>  <Ligand effiencies>  (63) 
[-0.21470588235294116]

>  <Interactions>  (63) 
["V-B:GLU:543:CB:9878, V-A:HIS:456:CE1:4068, V-A:HIS:456:CD2:4066, V-B:GLU:543:CD:9880, V-A:GLU:543:CD:4906, V-B:HIS:456:CE1:9042, V-A:GLY:544:C:4910, V-B:HIS:456:CD2:9040, V-B:GLU:543:CG:9879, V-A:GLU:543:CG:4905, V-B:GLU:543:C:9874, V-A:ARG:545:CG:4920, H-A:TYR:484:OH:4346, V-A:HIS:456:CG:4064, V-B:LYS:547:CE:9922, H-B:GLU:543:OE1:9881, V-B:GLY:544:CA:9886, V-A:GLU:543:C:4900, V-A:TRP:381:CZ2:3368, V-A:ILE:369:CD1:3237, V-A:LEU:475:CD2:4257, V-A:TRP:381:CH2:3370, V-A:ASP:366:CG:3211, V-A:GLY:454:CA:4047, V-B:TYR:539:CD2:9846, V-B:TYR:539:CE2:9848, V-A:ILE:369:CG2:3235, V-A:ILE:369:CG1:3236, H-A:GLU:543:OE2:4908, H-A:GLU:543:OE1:4907, H-B:GLU:543:OE2:9882"]

$$$$
4eb_Grossjean_2025
     RDKit          3D

 30 33  0  0  0  0  0  0  0  0999 V2000
  130.1750  126.2160   72.1430 C   0  0  0  0  0  0  0  0  0  0  0  0
  128.9700  126.9440   71.9570 O   0  0  0  0  0  0  0  0  0  0  0  0
  128.9140  127.9960   71.0980 C   0  0  0  0  0  0  0  0  0  0  0  0
  128.7190  129.1590   71.4610 O   0  0  0  0  0  0  0  0  0  0  0  0
  129.1140  127.6010   69.6630 C   0  0  0  0  0  0  0  0  0  0  0  0
  130.4130  127.5530   69.1420 C   0  0  0  0  0  0  0  0  0  0  0  0
  130.6310  127.1910   67.8160 C   0  0  0  0  0  0  0  0  0  0  0  0
  129.5570  126.8690   66.9840 C   0  0  0  0  0  0  0  0  0  0  0  0
  129.8970  126.5180   65.6630 N   0  0  0  0  0  0  0  0  0  0  0  0
  130.6410  125.4870   65.1920 C   0  0  0  0  0  0  0  0  0  0  0  0
  131.1740  124.6350   65.9040 O   0  0  0  0  0  0  0  0  0  0  0  0
  130.7850  125.4340   63.7350 C   0  0  0  0  0  0  0  0  0  0  0  0
  130.2180  126.7730   62.7340 S   0  0  0  0  0  0  0  0  0  0  0  0
  130.7300  125.9600   61.2720 C   0  0  0  0  0  0  0  0  0  0  0  0
  130.5640  126.5060   60.0670 N   0  0  0  0  0  0  0  0  0  0  0  0
  131.0040  125.7730   59.0150 C   0  0  0  0  0  0  0  0  0  0  0  0
  130.8040  126.4130   57.6530 C   0  0  0  0  0  0  0  0  0  0  0  0
  131.6000  124.5210   59.1380 C   0  0  0  0  0  0  0  0  0  0  0  0
  131.7730  123.9520   60.4060 C   0  0  0  0  0  0  0  0  0  0  0  0
  132.4090  122.6190   60.5210 C   0  0  0  0  0  0  0  0  0  0  0  0
  131.7110  121.4720   60.1320 C   0  0  0  0  0  0  0  0  0  0  0  0
  132.3090  120.2180   60.2390 C   0  0  0  0  0  0  0  0  0  0  0  0
  133.6050  120.1130   60.7370 C   0  0  0  0  0  0  0  0  0  0  0  0
  134.3080  121.2500   61.1300 C   0  0  0  0  0  0  0  0  0  0  0  0
  133.7090  122.5020   61.0230 C   0  0  0  0  0  0  0  0  0  0  0  0
  131.3240  124.6890   61.5350 C   0  0  0  0  0  0  0  0  0  0  0  0
  131.3420  124.4150   62.9480 C   0  0  0  0  0  0  0  0  0  0  0  0
  131.8630  123.2540   63.4620 N   0  0  0  0  0  0  0  0  0  0  0  0
  128.2520  126.9140   67.4980 C   0  0  0  0  0  0  0  0  0  0  0  0
  128.0360  127.2770   68.8240 C   0  0  0  0  0  0  0  0  0  0  0  0
  1  2  1  0
  2  3  1  0
  3  4  2  0
  3  5  1  0
  5  6  2  0
  6  7  1  0
  7  8  2  0
  8  9  1  0
  9 10  1  0
 10 11  2  0
 10 12  1  0
 12 13  1  0
 13 14  1  0
 14 15  2  0
 15 16  1  0
 16 17  1  0
 16 18  2  0
 18 19  1  0
 19 20  1  0
 20 21  2  0
 21 22  1  0
 22 23  2  0
 23 24  1  0
 24 25  2  0
 19 26  2  0
 26 27  1  0
 27 28  1  0
  8 29  1  0
 29 30  2  0
 30  5  1  0
 27 12  2  0
 26 14  1  0
 25 20  1  0
M  END
>  <Binding energies>  (64) 
[-7.11]

>  <Ligand effiencies>  (64) 
[-0.21545454545454545]

>  <Interactions>  (64) 
["V-B:GLU:543:CB:9878, V-A:HIS:456:CE1:4068, V-A:HIS:456:CD2:4066, V-B:GLU:543:CD:9880, V-A:GLU:543:CD:4906, V-B:HIS:456:CE1:9042, V-A:GLY:544:C:4910, V-B:HIS:456:CD2:9040, V-B:GLU:543:CG:9879, V-A:GLU:543:CG:4905, V-B:GLU:543:C:9874, V-A:ARG:545:CG:4920, H-A:TYR:484:OH:4346, V-A:HIS:456:CG:4064, H-B:GLU:543:OE1:9881, V-A:GLU:543:C:4900, V-A:TRP:381:CZ2:3368, V-A:ILE:369:CD1:3237, V-A:LEU:475:CD2:4257, V-A:TRP:381:CH2:3370, V-A:ASP:366:CG:3211, V-A:GLY:454:CA:4047, V-B:TYR:539:CD2:9846, V-B:TYR:539:CE2:9848, V-A:ILE:369:CG2:3235, V-A:ILE:369:CG1:3236, H-A:GLU:543:OE2:4908, H-A:GLU:543:OE1:4907, H-B:GLU:543:OE2:9882, V-A:SER:385:C:3403"]

$$$$
8b_Ghoteimi_2023
     RDKit          3D

 34 38  0  0  0  0  0  0  0  0999 V2000
  127.3080  128.0590   75.1470 C   0  0  0  0  0  0  0  0  0  0  0  0
  128.5570  127.6300   74.6150 O   0  0  0  0  0  0  0  0  0  0  0  0
  128.7060  127.5280   73.2450 C   0  0  0  0  0  0  0  0  0  0  0  0
  127.6630  128.0240   72.4660 C   0  0  0  0  0  0  0  0  0  0  0  0
  127.7250  127.9630   71.0770 C   0  0  0  0  0  0  0  0  0  0  0  0
  128.8360  127.4020   70.4300 C   0  0  0  0  0  0  0  0  0  0  0  0
  128.9080  127.3320   68.9380 C   0  0  0  0  0  0  0  0  0  0  0  0
  128.0170  128.0390   68.1230 C   0  0  0  0  0  0  0  0  0  0  0  0
  128.1060  127.9570   66.7300 C   0  0  0  0  0  0  0  0  0  0  0  0
  127.1410  128.7110   65.8970 C   0  0  0  0  0  0  0  0  0  0  0  0
  125.7930  128.7640   66.2550 C   0  0  0  0  0  0  0  0  0  0  0  0
  124.8900  129.4810   65.4760 C   0  0  0  0  0  0  0  0  0  0  0  0
  125.3170  130.1510   64.3290 C   0  0  0  0  0  0  0  0  0  0  0  0
  124.3510  130.8370   63.6180 O   0  0  0  0  0  0  0  0  0  0  0  0
  124.1520  130.5310   62.2420 C   0  0  0  0  0  0  0  0  0  0  0  0
  126.6720  130.0920   63.9680 C   0  0  0  0  0  0  0  0  0  0  0  0
  127.5760  129.3760   64.7490 C   0  0  0  0  0  0  0  0  0  0  0  0
  129.1290  127.1440   66.1720 C   0  0  0  0  0  0  0  0  0  0  0  0
  129.5050  126.8430   64.8160 C   0  0  0  0  0  0  0  0  0  0  0  0
  128.8420  127.3680   63.7360 N   0  0  0  0  0  0  0  0  0  0  0  0
  130.6020  125.9730   64.7100 C   0  0  0  0  0  0  0  0  0  0  0  0
  131.2480  125.4640   63.4980 C   0  0  0  0  0  0  0  0  0  0  0  0
  131.0750  126.0210   62.4120 O   0  0  0  0  0  0  0  0  0  0  0  0
  132.0230  124.3640   63.6710 N   0  0  0  0  0  0  0  0  0  0  0  0
  132.7480  123.6810   62.7040 C   0  0  0  0  0  0  0  0  0  0  0  0
  132.2030  122.6670   61.9170 C   0  0  0  0  0  0  0  0  0  0  0  0
  133.2310  122.2530   61.1020 C   0  0  0  0  0  0  0  0  0  0  0  0
  134.3380  122.9810   61.3810 O   0  0  0  0  0  0  0  0  0  0  0  0
  134.0200  123.8850   62.3970 N   0  0  0  0  0  0  0  0  0  0  0  0
  131.2000  125.5060   66.3030 S   0  0  0  0  0  0  0  0  0  0  0  0
  129.9810  126.4750   67.0970 C   0  0  0  0  0  0  0  0  0  0  0  0
  129.8950  126.5500   68.4250 N   0  0  0  0  0  0  0  0  0  0  0  0
  129.8830  126.9080   71.2190 C   0  0  0  0  0  0  0  0  0  0  0  0
  129.8230  126.9670   72.6090 C   0  0  0  0  0  0  0  0  0  0  0  0
  1  2  1  0
  2  3  1  0
  3  4  2  0
  4  5  1  0
  5  6  2  0
  6  7  1  0
  7  8  2  0
  8  9  1  0
  9 10  1  0
 10 11  2  0
 11 12  1  0
 12 13  2  0
 13 14  1  0
 14 15  1  0
 13 16  1  0
 16 17  2  0
  9 18  2  0
 18 19  1  0
 19 20  1  0
 19 21  2  0
 21 22  1  0
 22 23  2  0
 22 24  1  0
 24 25  1  0
 25 26  1  0
 26 27  2  0
 27 28  1  0
 28 29  1  0
 21 30  1  0
 30 31  1  0
 31 32  2  0
  6 33  1  0
 33 34  2  0
 34  3  1  0
 32  7  1  0
 17 10  1  0
 31 18  1  0
 29 25  2  0
M  END
>  <Binding energies>  (65) 
[-3.84]

>  <Ligand effiencies>  (65) 
[-0.10378378378378378]

>  <Interactions>  (65) 
["V-B:ARG:545:CZ:9898, V-B:GLU:543:CB:9878, V-A:HIS:456:CE1:4068, V-A:HIS:456:CD2:4066, V-B:GLU:543:CD:9880, H-B:TYR:484:OH:9320, V-A:GLU:543:CD:4906, H-B:GLY:454:N:9022, V-B:HIS:456:CE1:9042, H-A:LYS:547:NZ:4949, V-B:GLY:544:C:9884, V-A:GLY:544:C:4910, V-B:HIS:456:CD2:9040, V-A:GLU:543:CB:4904, V-B:GLU:543:CG:9879, V-A:GLU:543:CG:4905, H-A:GLY:454:N:4048, H-B:LYS:547:NZ:9923, V-A:LYS:547:CE:4948, H-A:TYR:484:OH:4346, V-B:LYS:547:CE:9922, H-B:GLU:543:OE1:9881, V-A:ILE:369:CD1:3237, V-A:LEU:475:CD2:4257, H-A:ARG:545:NH2:4926, H-A:GLU:543:OE2:4908, H-A:GLU:543:OE1:4907, V-B:HIS:456:CG:9038, V-B:LYS:547:CD:9921, H-B:GLU:543:OE2:9882, V-B:ARG:545:CG:9894, V-B:ARG:545:CD:9895"]

$$$$
9d_Ghoteimi_2023
     RDKit          3D

 38 43  0  0  0  0  0  0  0  0999 V2000
  133.8840  123.7360   58.3830 C   0  0  0  0  0  0  0  0  0  0  0  0
  133.0090  122.8560   59.0740 O   0  0  0  0  0  0  0  0  0  0  0  0
  133.2460  122.5120   60.3660 C   0  0  0  0  0  0  0  0  0  0  0  0
  133.9800  121.5800   60.7080 O   0  0  0  0  0  0  0  0  0  0  0  0
  132.5270  123.3710   61.3330 C   0  0  0  0  0  0  0  0  0  0  0  0
  132.8290  123.1910   63.0610 S   0  0  0  0  0  0  0  0  0  0  0  0
  131.7070  124.4790   63.4310 C   0  0  0  0  0  0  0  0  0  0  0  0
  131.4950  124.8810   64.6840 N   0  0  0  0  0  0  0  0  0  0  0  0
  130.6160  125.9010   64.8640 C   0  0  0  0  0  0  0  0  0  0  0  0
  130.4140  126.3530   66.2750 C   0  0  0  0  0  0  0  0  0  0  0  0
  129.1930  126.1330   66.9220 C   0  0  0  0  0  0  0  0  0  0  0  0
  128.9940  126.5510   68.2350 C   0  0  0  0  0  0  0  0  0  0  0  0
  130.0130  127.1950   68.9540 C   0  0  0  0  0  0  0  0  0  0  0  0
  129.8220  127.6370   70.2680 N   0  0  0  0  0  0  0  0  0  0  0  0
  128.5680  128.3000   70.6800 C   0  0  0  0  0  0  0  0  0  0  0  0
  128.6620  129.0210   72.0410 C   0  0  0  0  0  0  0  0  0  0  0  0
  129.1130  128.1200   73.0380 O   0  0  0  0  0  0  0  0  0  0  0  0
  130.3990  127.6070   72.7320 C   0  0  0  0  0  0  0  0  0  0  0  0
  130.3610  126.8420   71.3910 C   0  0  0  0  0  0  0  0  0  0  0  0
  131.2300  127.4260   68.2950 C   0  0  0  0  0  0  0  0  0  0  0  0
  131.4280  127.0100   66.9810 C   0  0  0  0  0  0  0  0  0  0  0  0
  129.9310  126.4920   63.7990 C   0  0  0  0  0  0  0  0  0  0  0  0
  130.1350  126.0600   62.4840 C   0  0  0  0  0  0  0  0  0  0  0  0
  129.3590  126.7040   61.3920 C   0  0  0  0  0  0  0  0  0  0  0  0
  127.9630  126.7140   61.4190 C   0  0  0  0  0  0  0  0  0  0  0  0
  127.2410  127.3350   60.4030 C   0  0  0  0  0  0  0  0  0  0  0  0
  127.8980  127.9770   59.3410 C   0  0  0  0  0  0  0  0  0  0  0  0
  127.1960  128.5980   58.3050 N   0  0  0  0  0  0  0  0  0  0  0  0
  127.8200  129.7320   57.5950 C   0  0  0  0  0  0  0  0  0  0  0  0
  127.1320  130.0630   56.2540 C   0  0  0  0  0  0  0  0  0  0  0  0
  125.7470  130.2960   56.4620 O   0  0  0  0  0  0  0  0  0  0  0  0
  125.1020  129.1600   57.0190 C   0  0  0  0  0  0  0  0  0  0  0  0
  125.7380  128.8100   58.3810 C   0  0  0  0  0  0  0  0  0  0  0  0
  129.3000  127.9590   59.3240 C   0  0  0  0  0  0  0  0  0  0  0  0
  130.0210  127.3370   60.3380 C   0  0  0  0  0  0  0  0  0  0  0  0
  131.0830  125.0200   62.2690 C   0  0  0  0  0  0  0  0  0  0  0  0
  131.5880  124.3780   61.0830 C   0  0  0  0  0  0  0  0  0  0  0  0
  131.1990  124.7390   59.8180 N   0  0  0  0  0  0  0  0  0  0  0  0
  1  2  1  0
  2  3  1  0
  3  4  2  0
  3  5  1  0
  5  6  1  0
  6  7  1  0
  7  8  2  0
  8  9  1  0
  9 10  1  0
 10 11  2  0
 11 12  1  0
 12 13  2  0
 13 14  1  0
 14 15  1  0
 15 16  1  0
 16 17  1  0
 17 18  1  0
 18 19  1  0
 13 20  1  0
 20 21  2  0
  9 22  2  0
 22 23  1  0
 23 24  1  0
 24 25  2  0
 25 26  1  0
 26 27  2  0
 27 28  1  0
 28 29  1  0
 29 30  1  0
 30 31  1  0
 31 32  1  0
 32 33  1  0
 27 34  1  0
 34 35  2  0
 23 36  2  0
 36 37  1  0
 37 38  1  0
 37  5  2  0
 36  7  1  0
 21 10  1  0
 35 24  1  0
 19 14  1  0
 33 28  1  0
M  END
>  <Binding energies>  (66) 
[-4.53]

>  <Ligand effiencies>  (66) 
[-0.11325]

>  <Interactions>  (66) 
["V-B:GLU:543:CB:9878, V-A:HIS:456:CE1:4068, V-A:HIS:456:CD2:4066, V-B:GLU:543:CD:9880, V-A:GLU:543:CD:4906, V-B:HIS:456:CE1:9042, V-A:GLY:544:CA:4912, H-A:LYS:547:NZ:4949, V-A:GLY:544:C:4910, V-B:HIS:456:CD2:9040, V-B:GLU:543:CG:9879, V-A:GLU:543:CG:4905, V-B:GLU:543:C:9874, V-A:ARG:545:CG:4920, V-A:LYS:547:CE:4948, H-A:TYR:484:OH:4346, V-A:ARG:545:CD:4921, V-A:HIS:456:CG:4064, V-A:GLU:543:C:4900, V-A:ARG:545:CA:4917, V-A:ILE:369:CD1:3237, V-A:ASP:366:CG:3211, V-A:GLY:454:CA:4047, V-B:TYR:539:CE2:9848, V-A:ILE:369:CG2:3235, V-A:ASP:366:CA:3208, V-A:ASP:366:CB:3210, V-A:ILE:369:CB:3234, V-B:ASP:366:CG:8185, V-B:ASP:366:CB:8184, V-A:TYR:539:CZ:4875, V-B:HIS:456:CG:9038, H-A:TYR:539:OH:4876, V-B:TYR:531:CZ:9766, V-B:TYR:531:CE1:9764"]

$$$$
RR10_Rahimova_2017
     RDKit          3D

 34 38  0  0  0  0  0  0  0  0999 V2000
  134.3190  124.9730   62.5690 C   0  0  0  0  0  0  0  0  0  0  0  0
  134.2100  123.7950   61.5840 C   0  0  1  0  0  0  0  0  0  0  0  0
  133.3580  122.6400   62.1590 C   0  0  0  0  0  0  0  0  0  0  0  0
  133.2910  121.4550   61.1690 C   0  0  0  0  0  0  0  0  0  0  0  0
  132.7140  121.8760   59.7920 C   0  0  1  0  0  0  0  0  0  0  0  0
  131.2910  122.2220   59.9080 N   0  0  0  0  0  0  0  0  0  0  0  0
  130.3270  121.4090   60.3780 C   0  0  0  0  0  0  0  0  0  0  0  0
  130.5510  120.2680   60.7890 O   0  0  0  0  0  0  0  0  0  0  0  0
  128.8870  121.9630   60.3700 C   0  0  1  0  0  0  0  0  0  0  0  0
  128.6990  122.9250   61.5720 C   0  0  0  0  0  0  0  0  0  0  0  0
  127.2870  123.5550   61.5150 C   0  0  0  0  0  0  0  0  0  0  0  0
  126.9790  124.1970   60.1430 C   0  0  0  0  0  0  0  0  0  0  0  0
  127.2450  123.2330   59.0400 N   0  0  0  0  0  0  0  0  0  0  0  0
  126.6490  123.7500   57.4540 S   0  0  0  0  0  0  0  0  0  0  0  0
  125.2100  123.4640   57.3920 O   0  0  0  0  0  0  0  0  0  0  0  0
  127.5550  123.2080   56.4330 O   0  0  0  0  0  0  0  0  0  0  0  0
  126.8200  125.5350   57.4510 C   0  0  0  0  0  0  0  0  0  0  0  0
  127.6330  126.1430   56.4890 C   0  0  0  0  0  0  0  0  0  0  0  0
  127.8100  127.5290   56.4340 C   0  0  0  0  0  0  0  0  0  0  0  0
  127.1290  128.2830   57.3930 C   0  0  0  0  0  0  0  0  0  0  0  0
  127.0510  129.6280   57.6670 N   0  0  0  0  0  0  0  0  0  0  0  0
  126.2140  129.7930   58.7510 C   0  0  0  0  0  0  0  0  0  0  0  0
  125.8890  131.1290   59.3530 C   0  0  0  0  0  0  0  0  0  0  0  0
  124.5550  131.5020   59.5740 C   0  0  0  0  0  0  0  0  0  0  0  0
  124.2520  132.7390   60.1360 C   0  0  0  0  0  0  0  0  0  0  0  0
  125.2810  133.6120   60.4800 C   0  0  0  0  0  0  0  0  0  0  0  0
  126.6100  133.2570   60.2680 C   0  0  0  0  0  0  0  0  0  0  0  0
  126.9120  132.0190   59.7060 C   0  0  0  0  0  0  0  0  0  0  0  0
  125.7440  128.6460   59.1890 N   0  0  0  0  0  0  0  0  0  0  0  0
  126.2940  127.6930   58.3720 C   0  0  0  0  0  0  0  0  0  0  0  0
  126.1330  126.3010   58.4000 C   0  0  0  0  0  0  0  0  0  0  0  0
  128.6340  122.7080   59.0350 C   0  0  0  0  0  0  0  0  0  0  0  0
  133.5680  123.0470   59.2360 C   0  0  0  0  0  0  0  0  0  0  0  0
  133.6310  124.2370   60.2200 C   0  0  0  0  0  0  0  0  0  0  0  0
  2  1  1  1
  2  3  1  0
  3  4  1  0
  4  5  1  0
  5  6  1  1
  6  7  1  0
  7  8  2  0
  9  7  1  6
  9 10  1  0
 10 11  1  0
 11 12  1  0
 12 13  1  0
 13 14  1  0
 14 15  2  0
 14 16  2  0
 14 17  1  0
 17 18  2  0
 18 19  1  0
 19 20  2  0
 20 21  1  0
 21 22  1  0
 22 23  1  0
 23 24  2  0
 24 25  1  0
 25 26  2  0
 26 27  1  0
 27 28  2  0
 22 29  2  0
 29 30  1  0
 30 31  2  0
 13 32  1  0
  5 33  1  0
 33 34  1  0
 34  2  1  0
 32  9  1  0
 31 17  1  0
 30 20  1  0
 28 23  1  0
M  END
>  <Binding energies>  (67) 
[-8.36]

>  <Ligand effiencies>  (67) 
[-0.23222222222222222]

>  <Interactions>  (67) 
["V-B:GLU:543:CD:9880, V-A:ARG:545:CZ:4924, V-B:PRO:540:C:9853, V-A:GLY:453:C:4040, V-A:ILE:369:CD1:3237, V-A:LEU:475:CD2:4257, V-B:PRO:540:CA:9855, V-A:GLY:453:CA:4042, V-B:TYR:539:C:9839, V-B:ALA:541:CA:9862, V-A:ASP:366:CG:3211, V-A:GLY:454:CA:4047, V-B:ALA:541:CB:9864, V-B:TYR:539:CD2:9846, V-B:TYR:539:CE2:9848, V-A:ILE:369:CG2:3235, V-B:PRO:540:N:9856, V-A:ILE:369:CB:3234, V-B:ASP:366:CG:8185, V-B:ILE:369:CD1:8211, V-A:TYR:539:CE2:4874, V-B:ILE:369:CG2:8209, V-A:TYR:539:CD2:4872, H-B:TYR:539:N:9842"]

$$$$
RR12_Rahimova_2017
     RDKit          3D

 26 28  0  0  0  0  0  0  0  0999 V2000
  126.7500  129.1480   65.9780 C   0  0  0  0  0  0  0  0  0  0  0  0
  128.0020  128.8200   66.8010 C   0  0  0  0  0  0  0  0  0  0  0  0
  127.8270  127.5590   67.6680 C   0  0  0  0  0  0  0  0  0  0  0  0
  128.8860  127.4680   68.6700 N   0  0  0  0  0  0  0  0  0  0  0  0
  130.2490  127.3410   68.4490 C   0  0  0  0  0  0  0  0  0  0  0  0
  130.8760  127.2250   67.0700 C   0  0  0  0  0  0  0  0  0  0  0  0
  130.2550  126.0900   66.2360 C   0  0  0  0  0  0  0  0  0  0  0  0
  131.2940  125.0450   65.7850 C   0  0  0  0  0  0  0  0  0  0  0  0
  131.3830  124.8900   64.3340 N   0  0  0  0  0  0  0  0  0  0  0  0
  132.5290  124.8760   63.6280 C   0  0  0  0  0  0  0  0  0  0  0  0
  133.6420  124.9980   64.1440 O   0  0  0  0  0  0  0  0  0  0  0  0
  132.3730  124.6890   62.1130 C   0  0  0  0  0  0  0  0  0  0  0  0
  131.1510  124.0010   61.8410 O   0  0  0  0  0  0  0  0  0  0  0  0
  131.1970  122.7070   61.3570 C   0  0  0  0  0  0  0  0  0  0  0  0
  132.4520  122.2360   60.9640 C   0  0  0  0  0  0  0  0  0  0  0  0
  132.5980  120.9430   60.4670 C   0  0  0  0  0  0  0  0  0  0  0  0
  131.4850  120.1150   60.3630 C   0  0  0  0  0  0  0  0  0  0  0  0
  130.2260  120.5690   60.7490 C   0  0  0  0  0  0  0  0  0  0  0  0
  130.0800  121.8620   61.2450 C   0  0  0  0  0  0  0  0  0  0  0  0
  130.9530  127.3110   69.5530 N   0  0  0  0  0  0  0  0  0  0  0  0
  130.0370  127.4490   70.5580 C   0  0  0  0  0  0  0  0  0  0  0  0
  130.2490  127.4960   71.9440 C   0  0  0  0  0  0  0  0  0  0  0  0
  129.1370  127.6520   72.7730 C   0  0  0  0  0  0  0  0  0  0  0  0
  127.8500  127.7590   72.2470 C   0  0  0  0  0  0  0  0  0  0  0  0
  127.6070  127.7150   70.8720 C   0  0  0  0  0  0  0  0  0  0  0  0
  128.7220  127.5570   70.0400 C   0  0  0  0  0  0  0  0  0  0  0  0
  1  2  1  0
  2  3  1  0
  3  4  1  0
  4  5  1  0
  5  6  1  0
  6  7  1  0
  7  8  1  0
  8  9  1  0
  9 10  1  0
 10 11  2  0
 10 12  1  0
 12 13  1  0
 13 14  1  0
 14 15  2  0
 15 16  1  0
 16 17  2  0
 17 18  1  0
 18 19  2  0
  5 20  2  0
 20 21  1  0
 21 22  2  0
 22 23  1  0
 23 24  2  0
 24 25  1  0
 25 26  2  0
 26  4  1  0
 19 14  1  0
 26 21  1  0
M  END
>  <Binding energies>  (68) 
[-7.78]

>  <Ligand effiencies>  (68) 
[-0.28814814814814815]

>  <Interactions>  (68) 
["V-B:GLU:543:CB:9878, V-A:HIS:456:CE1:4068, V-B:GLU:543:CD:9880, V-A:GLU:543:CD:4906, V-B:HIS:456:CE1:9042, V-A:GLY:544:CA:4912, V-B:GLY:544:C:9884, V-A:GLY:544:C:4910, V-B:HIS:456:CD2:9040, V-A:GLU:543:CB:4904, V-B:GLU:543:CG:9879, V-A:GLU:543:CG:4905, H-A:GLY:454:N:4048, V-A:ARG:545:CZ:4924, V-A:ARG:545:CG:4920, V-A:LYS:547:CE:4948, H-A:TYR:484:OH:4346, V-A:TYR:484:CZ:4345, H-A:ARG:545:NH1:4925, H-B:GLU:543:OE1:9881, V-B:GLY:544:CA:9886, H-A:ARG:545:NE:4922, V-A:GLU:543:C:4900, V-A:TRP:381:CZ2:3368, V-A:LEU:475:CD2:4257, V-A:TRP:381:CH2:3370, V-B:ALA:541:CB:9864, V-B:TYR:539:CD2:9846, V-B:TYR:539:CE2:9848, V-A:ILE:369:CG2:3235, H-A:ARG:545:NH2:4926, V-B:HIS:456:CG:9038, H-A:HIS:456:ND1:4065, H-A:ARG:545:N:4918"]

$$$$
RR13_Rahimova_2017
     RDKit          3D

 48 54  0  0  0  0  0  0  0  0999 V2000
  131.9640  131.0600   61.0740 Cl  0  0  0  0  0  0  0  0  0  0  0  0
  131.5470  130.8730   59.4040 C   0  0  0  0  0  0  0  0  0  0  0  0
  132.4490  131.3520   58.4510 C   0  0  0  0  0  0  0  0  0  0  0  0
  132.1620  131.2510   57.0920 C   0  0  0  0  0  0  0  0  0  0  0  0
  130.9670  130.6710   56.6770 C   0  0  0  0  0  0  0  0  0  0  0  0
  130.0620  130.1900   57.6210 C   0  0  0  0  0  0  0  0  0  0  0  0
  130.3390  130.2730   58.9960 C   0  0  0  0  0  0  0  0  0  0  0  0
  129.3080  129.7550   60.0230 C   0  0  1  0  0  0  0  0  0  0  0  0
  127.8790  129.8520   59.4680 C   0  0  0  0  0  0  0  0  0  0  0  0
  127.1420  128.8600   59.0200 N   0  0  0  0  0  0  0  0  0  0  0  0
  125.9450  129.4340   58.6020 N   0  0  0  0  0  0  0  0  0  0  0  0
  125.9830  130.8010   58.7910 N   0  0  0  0  0  0  0  0  0  0  0  0
  127.1950  131.0380   59.3030 N   0  0  0  0  0  0  0  0  0  0  0  0
  127.5880  132.3920   59.6740 C   0  0  0  0  0  0  0  0  0  0  0  0
  127.6870  132.5180   61.2060 C   0  0  0  0  0  0  0  0  0  0  0  0
  126.5740  131.7650   61.9180 C   0  0  0  0  0  0  0  0  0  0  0  0
  125.2480  132.1790   61.7720 C   0  0  0  0  0  0  0  0  0  0  0  0
  124.2300  131.4940   62.4310 C   0  0  0  0  0  0  0  0  0  0  0  0
  124.5430  130.3970   63.2320 C   0  0  0  0  0  0  0  0  0  0  0  0
  125.8630  129.9800   63.3820 C   0  0  0  0  0  0  0  0  0  0  0  0
  126.8820  130.6660   62.7240 C   0  0  0  0  0  0  0  0  0  0  0  0
  129.6210  128.4030   60.5440 N   0  0  0  0  0  0  0  0  0  0  0  0
  129.4980  128.3720   62.0130 C   0  0  0  0  0  0  0  0  0  0  0  0
  129.6920  126.9360   62.5510 C   0  0  0  0  0  0  0  0  0  0  0  0
  131.0340  126.4320   62.2140 N   0  0  0  0  0  0  0  0  0  0  0  0
  131.2940  125.0890   62.7810 C   0  0  1  0  0  0  0  0  0  0  0  0
  131.7100  124.0050   61.7620 C   0  0  0  0  0  0  0  0  0  0  0  0
  133.0570  123.9720   61.3760 C   0  0  0  0  0  0  0  0  0  0  0  0
  133.5250  123.0170   60.4740 C   0  0  0  0  0  0  0  0  0  0  0  0
  132.6460  122.0800   59.9370 C   0  0  0  0  0  0  0  0  0  0  0  0
  131.3020  122.1060   60.2950 C   0  0  0  0  0  0  0  0  0  0  0  0
  130.8220  123.0610   61.1950 C   0  0  0  0  0  0  0  0  0  0  0  0
  129.1210  123.0540   61.5220 Cl  0  0  0  0  0  0  0  0  0  0  0  0
  132.2770  125.1110   63.9540 C   0  0  0  0  0  0  0  0  0  0  0  0
  133.5540  124.8150   63.8840 N   0  0  0  0  0  0  0  0  0  0  0  0
  134.0570  124.9850   65.1700 N   0  0  0  0  0  0  0  0  0  0  0  0
  133.0540  125.4060   66.0180 N   0  0  0  0  0  0  0  0  0  0  0  0
  131.9680  125.4980   65.2410 N   0  0  0  0  0  0  0  0  0  0  0  0
  130.6900  125.9030   65.8170 C   0  0  0  0  0  0  0  0  0  0  0  0
  130.8900  127.0710   66.8000 C   0  0  0  0  0  0  0  0  0  0  0  0
  129.7610  127.1670   67.8150 C   0  0  0  0  0  0  0  0  0  0  0  0
  130.0540  127.2500   69.1780 C   0  0  0  0  0  0  0  0  0  0  0  0
  129.0210  127.3450   70.1070 C   0  0  0  0  0  0  0  0  0  0  0  0
  127.6980  127.3540   69.6680 C   0  0  0  0  0  0  0  0  0  0  0  0
  127.4000  127.2720   68.3090 C   0  0  0  0  0  0  0  0  0  0  0  0
  128.4320  127.1780   67.3800 C   0  0  0  0  0  0  0  0  0  0  0  0
  131.1520  126.4590   60.7450 C   0  0  0  0  0  0  0  0  0  0  0  0
  130.9660  127.9000   60.2140 C   0  0  0  0  0  0  0  0  0  0  0  0
  1  2  1  0
  2  3  2  0
  3  4  1  0
  4  5  2  0
  5  6  1  0
  6  7  2  0
  7  8  1  0
  8  9  1  0
  9 10  2  0
 10 11  1  0
 11 12  2  0
 12 13  1  0
 13 14  1  0
 14 15  1  0
 15 16  1  0
 16 17  2  0
 17 18  1  0
 18 19  2  0
 19 20  1  0
 20 21  2  0
  8 22  1  6
 22 23  1  0
 23 24  1  0
 24 25  1  0
 26 25  1  6
 26 27  1  0
 27 28  2  0
 28 29  1  0
 29 30  2  0
 30 31  1  0
 31 32  2  0
 32 33  1  0
 26 34  1  0
 34 35  2  0
 35 36  1  0
 36 37  2  0
 37 38  1  0
 38 39  1  0
 39 40  1  0
 40 41  1  0
 41 42  2  0
 42 43  1  0
 43 44  2  0
 44 45  1  0
 45 46  2  0
 25 47  1  0
 47 48  1  0
  7  2  1  0
 13  9  1  0
 21 16  1  0
 48 22  1  0
 32 27  1  0
 38 34  1  0
 46 41  1  0
M  END
>  <Binding energies>  (69) 
[-12.95]

>  <Ligand effiencies>  (69) 
[-0.26979166666666665]

>  <Interactions>  (69) 
["V-B:ARG:545:CZ:9898, V-B:GLU:543:CB:9878, V-A:HIS:456:CE1:4068, V-B:GLU:543:CD:9880, V-A:GLU:543:CD:4906, V-B:HIS:456:CE1:9042, V-B:GLY:544:C:9884, V-B:GLU:543:CG:9879, V-A:GLU:543:CG:4905, H-A:GLY:454:N:4048, V-B:GLU:543:C:9874, V-A:ARG:545:CZ:4924, V-A:ARG:545:CG:4920, H-A:TYR:484:OH:4346, V-A:ARG:545:CD:4921, H-A:ARG:545:NE:4922, V-A:ILE:369:CD1:3237, V-A:ASP:366:CG:3211, V-B:ALA:541:CB:9864, V-B:TYR:539:CD2:9846, V-B:TYR:539:CE2:9848, V-A:ILE:369:CG2:3235, V-A:PRO:540:CA:4881, V-A:PRO:540:N:4882, V-A:PRO:540:CB:4883, V-A:TYR:539:CE2:4874, V-A:ALA:541:CB:4890, H-A:ARG:545:NH2:4926, V-A:TYR:539:CD2:4872, V-B:ARG:545:CG:9894, H-A:HIS:456:ND1:4065"]

$$$$
RR14_Rahimova_2017
     RDKit          3D

 39 43  0  0  0  0  0  0  0  0999 V2000
  132.8520  125.2970   64.9380 C   0  0  0  0  0  0  0  0  0  0  0  0
  133.2530  124.6350   63.7440 O   0  0  0  0  0  0  0  0  0  0  0  0
  132.2930  124.2830   62.8150 C   0  0  0  0  0  0  0  0  0  0  0  0
  131.2130  125.1540   62.6750 C   0  0  0  0  0  0  0  0  0  0  0  0
  130.1850  124.8700   61.7810 C   0  0  0  0  0  0  0  0  0  0  0  0
  130.2260  123.7000   61.0190 C   0  0  0  0  0  0  0  0  0  0  0  0
  129.0700  123.3520   60.0890 C   0  0  0  0  0  0  0  0  0  0  0  0
  127.7580  123.6590   60.6560 N   0  0  0  0  0  0  0  0  0  0  0  0
  127.3890  123.1350   61.8310 N   0  0  0  0  0  0  0  0  0  0  0  0
  126.1070  123.6040   62.0380 N   0  0  0  0  0  0  0  0  0  0  0  0
  125.7130  124.4070   60.9720 N   0  0  0  0  0  0  0  0  0  0  0  0
  126.7300  124.4200   60.1420 C   0  0  0  0  0  0  0  0  0  0  0  0
  126.7620  125.1510   58.8070 C   0  0  0  0  0  0  0  0  0  0  0  0
  127.4610  126.4440   58.8910 N   0  0  0  0  0  0  0  0  0  0  0  0
  127.3610  127.0360   60.2310 C   0  0  0  0  0  0  0  0  0  0  0  0
  126.6610  128.4120   60.2440 C   0  0  0  0  0  0  0  0  0  0  0  0
  127.0410  129.2900   61.4550 C   0  0  0  0  0  0  0  0  0  0  0  0
  126.0170  129.3040   62.5050 N   0  0  0  0  0  0  0  0  0  0  0  0
  124.9150  130.2000   62.1330 C   0  0  0  0  0  0  0  0  0  0  0  0
  123.8450  130.2780   63.2420 C   0  0  0  0  0  0  0  0  0  0  0  0
  124.4470  130.6470   64.4780 O   0  0  0  0  0  0  0  0  0  0  0  0
  125.4370  129.7150   64.8950 C   0  0  0  0  0  0  0  0  0  0  0  0
  126.5570  129.6220   63.8360 C   0  0  0  0  0  0  0  0  0  0  0  0
  128.8690  126.2850   58.5020 C   0  0  0  0  0  0  0  0  0  0  0  0
  129.6250  127.5710   58.1760 C   0  0  0  0  0  0  0  0  0  0  0  0
  128.9630  128.7250   57.9160 C   0  0  0  0  0  0  0  0  0  0  0  0
  129.6680  129.9730   57.5590 C   0  0  0  0  0  0  0  0  0  0  0  0
  129.0150  131.1900   57.3030 C   0  0  0  0  0  0  0  0  0  0  0  0
  127.4990  131.3140   57.3760 C   0  0  0  0  0  0  0  0  0  0  0  0
  129.7770  132.3150   56.9760 C   0  0  0  0  0  0  0  0  0  0  0  0
  131.1670  132.2360   56.9030 C   0  0  0  0  0  0  0  0  0  0  0  0
  131.8260  131.0300   57.1590 C   0  0  0  0  0  0  0  0  0  0  0  0
  133.3460  130.9770   57.0740 C   0  0  0  0  0  0  0  0  0  0  0  0
  131.0710  129.8940   57.4890 C   0  0  0  0  0  0  0  0  0  0  0  0
  131.6920  128.6550   57.7520 N   0  0  0  0  0  0  0  0  0  0  0  0
  131.0860  127.4870   58.0820 C   0  0  0  0  0  0  0  0  0  0  0  0
  131.7530  126.4700   58.2710 O   0  0  0  0  0  0  0  0  0  0  0  0
  131.3170  122.8360   61.1310 C   0  0  0  0  0  0  0  0  0  0  0  0
  132.3440  123.1220   62.0260 C   0  0  0  0  0  0  0  0  0  0  0  0
  1  2  1  0
  2  3  1  0
  3  4  2  0
  4  5  1  0
  5  6  2  0
  6  7  1  0
  7  8  1  0
  8  9  1  0
  9 10  2  0
 10 11  1  0
 11 12  2  0
 12 13  1  0
 13 14  1  0
 14 15  1  0
 15 16  1  0
 16 17  1  0
 17 18  1  0
 18 19  1  0
 19 20  1  0
 20 21  1  0
 21 22  1  0
 22 23  1  0
 14 24  1  0
 24 25  1  0
 25 26  2  0
 26 27  1  0
 27 28  2  0
 28 29  1  0
 28 30  1  0
 30 31  2  0
 31 32  1  0
 32 33  1  0
 32 34  2  0
 34 35  1  0
 35 36  1  0
 36 37  2  0
  6 38  1  0
 38 39  2  0
 39  3  1  0
 12  8  1  0
 23 18  1  0
 36 25  1  0
 34 27  1  0
M  END
>  <Binding energies>  (70) 
[-9.15]

>  <Ligand effiencies>  (70) 
[-0.22875]

>  <Interactions>  (70) 
["V-B:ARG:545:CZ:9898, V-B:GLY:453:CA:9016, V-A:HIS:456:CE1:4068, H-B:TYR:484:OH:9320, V-A:GLU:543:CD:4906, H-B:GLY:454:N:9022, V-B:GLY:453:C:9014, H-A:GLY:454:N:4048, V-A:ARG:545:CZ:4924, V-A:ARG:545:CG:4920, H-A:TYR:484:OH:4346, V-A:ARG:545:CD:4921, V-B:PRO:540:CA:9855, V-A:ASP:366:CG:3211, V-A:ASP:366:CB:3210, H-A:TYR:531:OH:4793, V-A:PRO:540:CA:4881, V-A:PRO:540:N:4882, V-B:ASP:366:CG:8185, V-A:TYR:531:CZ:4792, H-B:ARG:545:NH2:9900, H-B:ALA:541:N:9863, V-A:PRO:540:CB:4883, V-A:PRO:540:CD:4885, V-A:TYR:539:C:4865, V-A:TYR:539:CE2:4874, V-A:TYR:531:CE2:4791, V-A:LEU:363:CA:3183, V-A:TYR:539:CD2:4872, V-A:TYR:539:CE1:4873, V-A:TYR:539:CZ:4875, V-A:TYR:539:CA:4867, H-A:ASP:366:OD2:3213, H-A:ASP:366:OD1:3212"]

$$$$
RR15_Rahimova_2017
     RDKit          3D

 45 49  0  0  0  0  0  0  0  0999 V2000
  126.9110  128.0240   74.6500 C   0  0  0  0  0  0  0  0  0  0  0  0
  128.2340  127.5910   74.3460 O   0  0  0  0  0  0  0  0  0  0  0  0
  128.6470  127.5380   73.0260 C   0  0  0  0  0  0  0  0  0  0  0  0
  127.9330  128.1160   71.9640 C   0  0  0  0  0  0  0  0  0  0  0  0
  128.4040  128.0240   70.6570 C   0  0  0  0  0  0  0  0  0  0  0  0
  129.5970  127.3520   70.3710 C   0  0  0  0  0  0  0  0  0  0  0  0
  130.1030  127.2470   68.9590 C   0  0  0  0  0  0  0  0  0  0  0  0
  131.2410  127.7950   68.5580 N   0  0  0  0  0  0  0  0  0  0  0  0
  131.3580  127.4950   67.2160 N   0  0  0  0  0  0  0  0  0  0  0  0
  130.2790  126.7530   66.9650 N   0  0  0  0  0  0  0  0  0  0  0  0
  129.9160  126.3490   65.6080 C   0  0  0  0  0  0  0  0  0  0  0  0
  130.7040  125.1340   65.0600 C   0  0  0  0  0  0  0  0  0  0  0  0
  130.5450  124.0410   65.6080 O   0  0  0  0  0  0  0  0  0  0  0  0
  131.5240  125.2920   63.9750 N   0  0  0  0  0  0  0  0  0  0  0  0
  132.9940  125.2940   64.1180 C   0  0  0  0  0  0  0  0  0  0  0  0
  133.7450  125.3530   62.7700 C   0  0  0  0  0  0  0  0  0  0  0  0
  134.2510  123.9880   62.2480 C   0  0  0  0  0  0  0  0  0  0  0  0
  133.4810  123.4670   61.1140 N   0  0  0  0  0  0  0  0  0  0  0  0
  133.6420  124.2540   59.8830 C   0  0  0  0  0  0  0  0  0  0  0  0
  132.8820  123.6160   58.7010 C   0  0  0  0  0  0  0  0  0  0  0  0
  133.2850  122.2620   58.5310 O   0  0  0  0  0  0  0  0  0  0  0  0
  133.0330  121.4720   59.6880 C   0  0  0  0  0  0  0  0  0  0  0  0
  133.8010  122.0490   60.8970 C   0  0  0  0  0  0  0  0  0  0  0  0
  131.0320  125.2780   62.5630 C   0  0  2  0  0  0  0  0  0  0  0  0
  129.9540  126.3640   62.2550 C   0  0  0  0  0  0  0  0  0  0  0  0
  130.2390  127.5620   62.2570 O   0  0  0  0  0  0  0  0  0  0  0  0
  128.7290  125.8990   61.9540 N   0  0  0  0  0  0  0  0  0  0  0  0
  127.5950  126.7150   61.5340 C   0  0  0  0  0  0  0  0  0  0  0  0
  126.7510  125.9900   60.4700 C   0  0  2  0  0  0  0  0  0  0  0  0
  125.7480  124.9580   61.0140 C   0  0  0  0  0  0  0  0  0  0  0  0
  126.4140  123.6230   60.7820 C   0  0  0  0  0  0  0  0  0  0  0  0
  127.1750  123.8890   59.4940 C   0  0  0  0  0  0  0  0  0  0  0  0
  127.6700  125.2080   59.6960 O   0  0  0  0  0  0  0  0  0  0  0  0
  130.7420  123.8530   62.1080 C   0  0  0  0  0  0  0  0  0  0  0  0
  130.2370  123.6630   60.8160 C   0  0  0  0  0  0  0  0  0  0  0  0
  129.9540  122.3840   60.3460 C   0  0  0  0  0  0  0  0  0  0  0  0
  130.1750  121.2820   61.1670 C   0  0  0  0  0  0  0  0  0  0  0  0
  129.9010  120.0390   60.7110 F   0  0  0  0  0  0  0  0  0  0  0  0
  130.6780  121.4510   62.4550 C   0  0  0  0  0  0  0  0  0  0  0  0
  130.9600  122.7310   62.9240 C   0  0  0  0  0  0  0  0  0  0  0  0
  129.4510  126.6060   68.0060 N   0  0  0  0  0  0  0  0  0  0  0  0
  130.3090  126.7780   71.4340 C   0  0  0  0  0  0  0  0  0  0  0  0
  129.8480  126.8660   72.7590 C   0  0  0  0  0  0  0  0  0  0  0  0
  130.5160  126.3190   73.8410 O   0  0  0  0  0  0  0  0  0  0  0  0
  131.9110  126.0530   73.7450 C   0  0  0  0  0  0  0  0  0  0  0  0
  1  2  1  0
  2  3  1  0
  3  4  2  0
  4  5  1  0
  5  6  2  0
  6  7  1  0
  7  8  1  0
  8  9  2  0
  9 10  1  0
 10 11  1  0
 11 12  1  0
 12 13  2  0
 12 14  1  0
 14 15  1  0
 15 16  1  0
 16 17  1  0
 17 18  1  0
 18 19  1  0
 19 20  1  0
 20 21  1  0
 21 22  1  0
 22 23  1  0
 24 14  1  1
 24 25  1  0
 25 26  2  0
 25 27  1  0
 27 28  1  0
 29 28  1  1
 29 30  1  0
 30 31  1  0
 31 32  1  0
 32 33  1  0
 24 34  1  0
 34 35  2  0
 35 36  1  0
 36 37  2  0
 37 38  1  0
 37 39  1  0
 39 40  2  0
 10 41  1  0
  6 42  1  0
 42 43  2  0
 43 44  1  0
 44 45  1  0
 43  3  1  0
 41  7  2  0
 23 18  1  0
 33 29  1  0
 40 34  1  0
M  END
>  <Binding energies>  (71) 
[-8.76]

>  <Ligand effiencies>  (71) 
[-0.19043478260869565]

>  <Interactions>  (71) 
["V-B:GLU:543:CB:9878, V-A:HIS:456:CE1:4068, V-A:HIS:456:CD2:4066, V-B:GLU:543:CD:9880, V-A:GLU:543:CD:4906, V-B:HIS:456:CE1:9042, H-A:LYS:547:NZ:4949, V-B:GLY:544:C:9884, V-A:GLY:544:C:4910, V-B:HIS:456:CD2:9040, V-B:GLU:543:CG:9879, V-A:GLU:543:CG:4905, H-B:LYS:547:NZ:9923, V-A:ARG:545:CZ:4924, V-A:LYS:547:CE:4948, H-A:TYR:484:OH:4346, V-A:ARG:545:CD:4921, V-A:HIS:456:CG:4064, V-A:HIS:456:CB:4063, V-B:LYS:547:CE:9922, H-B:GLU:543:OE1:9881, H-A:ARG:545:NE:4922, V-B:TYR:539:CZ:9849, V-B:PRO:540:C:9853, V-A:GLY:453:C:4040, V-A:ILE:369:CD1:3237, V-A:LEU:475:CD2:4257, V-B:PRO:540:CA:9855, V-A:GLY:453:CA:4042, V-A:ASP:366:CG:3211, V-A:GLY:454:CA:4047, V-B:ALA:541:CB:9864, V-B:TYR:539:CD2:9846, V-B:TYR:539:CE2:9848, V-A:ILE:369:CG2:3235, V-A:ASP:366:CB:3210, H-A:ARG:545:NH2:4926, V-A:PRO:482:CB:4324, H-B:TYR:539:OH:9850, V-B:HIS:456:CG:9038, V-B:LYS:547:CD:9921, H-B:GLU:543:OE2:9882, H-A:ARG:545:N:4918"]

$$$$
RR17_Rahimova_2017
     RDKit          3D

 38 41  0  0  0  0  0  0  0  0999 V2000
  130.9790  127.0930   58.7450 C   0  0  0  0  0  0  0  0  0  0  0  0
  131.1380  127.0490   57.2220 C   0  0  0  0  0  0  0  0  0  0  0  0
  131.3480  125.6970   56.8230 O   0  0  0  0  0  0  0  0  0  0  0  0
  131.8720  124.7970   57.7320 C   0  0  0  0  0  0  0  0  0  0  0  0
  130.9550  124.0720   58.4900 C   0  0  0  0  0  0  0  0  0  0  0  0
  131.3880  123.1430   59.4310 C   0  0  0  0  0  0  0  0  0  0  0  0
  132.7580  122.9200   59.6340 C   0  0  0  0  0  0  0  0  0  0  0  0
  133.1960  121.9110   60.6550 C   0  0  0  0  0  0  0  0  0  0  0  0
  133.2100  120.6980   60.4230 O   0  0  0  0  0  0  0  0  0  0  0  0
  133.6210  122.4520   62.0390 C   0  0  0  0  0  0  0  0  0  0  0  0
  133.9720  124.2460   61.9990 S   0  0  0  0  0  0  0  0  0  0  0  0
  133.2870  124.7250   63.5600 C   0  0  0  0  0  0  0  0  0  0  0  0
  133.9790  125.0260   64.6330 N   0  0  0  0  0  0  0  0  0  0  0  0
  133.0810  125.3550   65.6410 N   0  0  0  0  0  0  0  0  0  0  0  0
  131.8780  125.2440   65.1370 C   0  0  0  0  0  0  0  0  0  0  0  0
  130.5920  125.5250   65.9000 C   0  0  0  0  0  0  0  0  0  0  0  0
  130.5660  126.8320   66.5500 N   0  0  0  0  0  0  0  0  0  0  0  0
  129.8840  127.0930   67.7530 C   0  0  0  0  0  0  0  0  0  0  0  0
  130.6530  127.2540   68.9050 C   0  0  0  0  0  0  0  0  0  0  0  0
  130.0420  127.5090   70.1290 C   0  0  0  0  0  0  0  0  0  0  0  0
  128.6510  127.6100   70.2150 C   0  0  0  0  0  0  0  0  0  0  0  0
  127.9950  127.8830   71.5680 C   0  0  0  0  0  0  0  0  0  0  0  0
  128.6370  128.8280   72.2590 F   0  0  0  0  0  0  0  0  0  0  0  0
  126.7330  128.2820   71.4010 F   0  0  0  0  0  0  0  0  0  0  0  0
  127.9980  126.7620   72.2890 F   0  0  0  0  0  0  0  0  0  0  0  0
  127.8780  127.4560   69.0590 C   0  0  0  0  0  0  0  0  0  0  0  0
  128.4900  127.2030   67.8350 C   0  0  0  0  0  0  0  0  0  0  0  0
  131.9360  124.8350   63.8200 N   0  0  0  0  0  0  0  0  0  0  0  0
  130.8660  124.6140   62.9400 C   0  0  0  0  0  0  0  0  0  0  0  0
  130.4070  123.3150   62.7270 C   0  0  0  0  0  0  0  0  0  0  0  0
  129.3480  123.0960   61.8510 C   0  0  0  0  0  0  0  0  0  0  0  0
  128.7440  124.1760   61.1860 C   0  0  0  0  0  0  0  0  0  0  0  0
  127.6900  124.0540   60.3020 O   0  0  0  0  0  0  0  0  0  0  0  0
  127.7830  123.1160   59.2350 C   0  0  0  0  0  0  0  0  0  0  0  0
  129.2180  125.4700   61.4100 C   0  0  0  0  0  0  0  0  0  0  0  0
  130.2770  125.6960   62.2860 C   0  0  0  0  0  0  0  0  0  0  0  0
  133.6800  123.6490   58.8700 C   0  0  0  0  0  0  0  0  0  0  0  0
  133.2440  124.5780   57.9280 C   0  0  0  0  0  0  0  0  0  0  0  0
  1  2  1  0
  2  3  1  0
  3  4  1  0
  4  5  2  0
  5  6  1  0
  6  7  2  0
  7  8  1  0
  8  9  2  0
  8 10  1  0
 10 11  1  0
 11 12  1  0
 12 13  2  0
 13 14  1  0
 14 15  2  0
 15 16  1  0
 16 17  1  0
 17 18  1  0
 18 19  2  0
 19 20  1  0
 20 21  2  0
 21 22  1  0
 22 23  1  0
 22 24  1  0
 22 25  1  0
 21 26  1  0
 26 27  2  0
 15 28  1  0
 28 29  1  0
 29 30  2  0
 30 31  1  0
 31 32  2  0
 32 33  1  0
 33 34  1  0
 32 35  1  0
 35 36  2  0
  7 37  1  0
 37 38  2  0
 38  4  1  0
 28 12  1  0
 36 29  1  0
 27 18  1  0
M  END
>  <Binding energies>  (72) 
[-8.73]

>  <Ligand effiencies>  (72) 
[-0.22384615384615386]

>  <Interactions>  (72) 
["V-B:GLU:543:CB:9878, V-A:HIS:456:CE1:4068, V-B:GLU:543:CD:9880, V-A:GLU:543:CD:4906, V-B:HIS:456:CE1:9042, V-A:GLY:544:CA:4912, V-B:GLY:544:C:9884, V-A:GLY:544:C:4910, V-B:HIS:456:CD2:9040, V-B:GLU:543:CG:9879, V-A:GLU:543:CG:4905, H-A:GLY:454:N:4048, V-B:GLU:543:C:9874, V-A:ARG:545:CZ:4924, V-A:ARG:545:CG:4920, V-A:LYS:547:CE:4948, H-A:TYR:484:OH:4346, V-B:LYS:547:CE:9922, H-A:ARG:545:NH1:4925, V-B:GLY:544:CA:9886, H-A:ARG:545:NE:4922, V-A:GLU:543:C:4900, V-B:TYR:539:CZ:9849, V-A:ILE:369:CD1:3237, V-A:LEU:475:CD2:4257, V-B:PRO:540:CA:9855, V-B:TYR:539:C:9839, V-A:ASP:366:CG:3211, V-A:GLY:454:CA:4047, V-B:ALA:541:CB:9864, V-B:TYR:539:CD2:9846, V-B:TYR:539:CE2:9848, V-A:ILE:369:CG2:3235, V-B:PRO:540:N:9856, V-A:ASP:366:CA:3208, V-A:ASP:366:CB:3210, V-A:ILE:369:CB:3234, H-A:TYR:531:OH:4793, H-A:GLU:543:OE2:4908, H-A:GLU:543:OE1:4907, H-B:TYR:539:OH:9850, V-B:HIS:456:CG:9038, V-B:ARG:545:CA:9891, V-B:HIS:456:CB:9037"]

$$$$
RR19_Rahimova_2017
     RDKit          3D

 46 51  0  0  0  0  0  0  0  0999 V2000
  130.0050  124.7570   58.0740 O   0  0  0  0  0  0  0  0  0  0  0  0
  130.5660  125.4040   58.9630 C   0  0  0  0  0  0  0  0  0  0  0  0
  130.1320  126.5770   59.4890 N   0  0  0  0  0  0  0  0  0  0  0  0
  128.9430  127.2590   59.4010 C   0  0  0  0  0  0  0  0  0  0  0  0
  127.5060  126.6540   58.7420 S   0  0  0  0  0  0  0  0  0  0  0  0
  129.1150  128.5110   59.9370 N   0  0  0  0  0  0  0  0  0  0  0  0
  128.2530  129.5190   60.2260 C   0  0  0  0  0  0  0  0  0  0  0  0
  127.0210  129.4500   60.2270 O   0  0  0  0  0  0  0  0  0  0  0  0
  128.9470  130.8640   60.5570 C   0  0  2  0  0  0  0  0  0  0  0  0
  127.9860  132.0820   60.6790 C   0  0  0  0  0  0  0  0  0  0  0  0
  126.8280  131.8980   61.6470 C   0  0  0  0  0  0  0  0  0  0  0  0
  125.4950  132.1080   61.2310 C   0  0  0  0  0  0  0  0  0  0  0  0
  124.4470  131.8590   62.1050 C   0  0  0  0  0  0  0  0  0  0  0  0
  124.7000  131.3850   63.3870 C   0  0  0  0  0  0  0  0  0  0  0  0
  126.0050  131.1460   63.8010 C   0  0  0  0  0  0  0  0  0  0  0  0
  127.0680  131.3860   62.9400 C   0  0  0  0  0  0  0  0  0  0  0  0
  130.0640  131.1420   59.6130 N   0  0  0  0  0  0  0  0  0  0  0  0
  131.3510  130.8090   59.9200 C   0  0  0  0  0  0  0  0  0  0  0  0
  131.7600  130.2920   60.9610 O   0  0  0  0  0  0  0  0  0  0  0  0
  132.1540  131.1960   58.7340 C   0  0  0  0  0  0  0  0  0  0  0  0
  133.5230  131.0960   58.4840 C   0  0  0  0  0  0  0  0  0  0  0  0
  134.0130  131.5410   57.2520 C   0  0  0  0  0  0  0  0  0  0  0  0
  133.1390  132.0730   56.2940 C   0  0  0  0  0  0  0  0  0  0  0  0
  131.7690  132.1640   56.5640 C   0  0  0  0  0  0  0  0  0  0  0  0
  131.3000  131.7160   57.7990 C   0  0  0  0  0  0  0  0  0  0  0  0
  129.9270  131.6740   58.3620 C   0  0  0  0  0  0  0  0  0  0  0  0
  128.8870  132.0350   57.8100 O   0  0  0  0  0  0  0  0  0  0  0  0
  131.9000  124.8850   59.5620 C   0  0  2  0  0  0  0  0  0  0  0  0
  132.2810  123.4470   59.1030 C   0  0  0  0  0  0  0  0  0  0  0  0
  131.5660  122.3470   59.8660 C   0  0  0  0  0  0  0  0  0  0  0  0
  130.1890  122.4640   60.1530 C   0  0  0  0  0  0  0  0  0  0  0  0
  129.5150  121.4120   60.7610 C   0  0  0  0  0  0  0  0  0  0  0  0
  130.1830  120.2340   61.0630 C   0  0  0  0  0  0  0  0  0  0  0  0
  131.5300  120.0890   60.7510 C   0  0  0  0  0  0  0  0  0  0  0  0
  132.2220  121.1290   60.1440 C   0  0  0  0  0  0  0  0  0  0  0  0
  131.9760  125.0220   61.0440 N   0  0  0  0  0  0  0  0  0  0  0  0
  130.8670  125.2610   61.7990 C   0  0  0  0  0  0  0  0  0  0  0  0
  129.7110  125.4100   61.4020 O   0  0  0  0  0  0  0  0  0  0  0  0
  131.3480  125.3040   63.2030 C   0  0  0  0  0  0  0  0  0  0  0  0
  130.6620  125.5210   64.3990 C   0  0  0  0  0  0  0  0  0  0  0  0
  131.3830  125.5030   65.5980 C   0  0  0  0  0  0  0  0  0  0  0  0
  132.7650  125.2700   65.5870 C   0  0  0  0  0  0  0  0  0  0  0  0
  133.4350  125.0530   64.3770 C   0  0  0  0  0  0  0  0  0  0  0  0
  132.6970  125.0770   63.1920 C   0  0  0  0  0  0  0  0  0  0  0  0
  133.1160  124.8820   61.7830 C   0  0  0  0  0  0  0  0  0  0  0  0
  134.2510  124.6440   61.3680 O   0  0  0  0  0  0  0  0  0  0  0  0
  1  2  2  0
  2  3  1  0
  3  4  1  0
  4  5  2  0
  4  6  1  0
  6  7  1  0
  7  8  2  0
  7  9  1  0
  9 10  1  6
 10 11  1  0
 11 12  2  0
 12 13  1  0
 13 14  2  0
 14 15  1  0
 15 16  2  0
  9 17  1  0
 17 18  1  0
 18 19  2  0
 18 20  1  0
 20 21  2  0
 21 22  1  0
 22 23  2  0
 23 24  1  0
 24 25  2  0
 25 26  1  0
 26 27  2  0
  2 28  1  0
 28 29  1  1
 29 30  1  0
 30 31  2  0
 31 32  1  0
 32 33  2  0
 33 34  1  0
 34 35  2  0
 28 36  1  0
 36 37  1  0
 37 38  2  0
 37 39  1  0
 39 40  2  0
 40 41  1  0
 41 42  2  0
 42 43  1  0
 43 44  2  0
 44 45  1  0
 45 46  2  0
 16 11  1  0
 26 17  1  0
 35 30  1  0
 45 36  1  0
 25 20  1  0
 44 39  1  0
M  END
>  <Binding energies>  (73) 
[-10.22]

>  <Ligand effiencies>  (73) 
[-0.21291666666666667]

>  <Interactions>  (73) 
["V-A:HIS:456:CE1:4068, V-B:GLU:543:CD:9880, V-A:ARG:545:CZ:4924, V-A:ARG:545:CG:4920, V-A:ARG:545:CD:4921, V-A:TYR:484:CZ:4345, V-B:TYR:539:CZ:9849, V-A:TRP:381:CZ2:3368, V-A:LEU:475:CD2:4257, V-A:TRP:381:CH2:3370, V-A:GLY:453:CA:4042, V-A:ASP:366:CG:3211, V-B:ALA:541:CB:9864, V-B:TYR:539:CD2:9846, V-B:TYR:539:CE2:9848, V-A:PRO:540:CG:4884, V-A:PRO:540:CA:4881, V-A:PRO:540:N:4882, V-A:PRO:540:CB:4883, V-A:PRO:540:CD:4885, V-A:TYR:539:C:4865, V-A:TYR:531:CE2:4791, V-A:LEU:363:CA:3183, V-B:GLY:454:CA:9021, H-A:ARG:545:NH2:4926, H-A:ASP:366:OD2:3213, V-A:LEU:363:CD1:3187, V-A:LEU:363:CB:3185, V-A:ILE:538:CB:4860"]

$$$$
RR1_Rahimova_2017
     RDKit          3D

 41 44  0  0  0  0  0  0  0  0999 V2000
  124.1520  133.5740   60.7030 C   0  0  0  0  0  0  0  0  0  0  0  0
  123.5760  132.9030   61.8180 O   0  0  0  0  0  0  0  0  0  0  0  0
  124.3670  132.0730   62.5880 C   0  0  0  0  0  0  0  0  0  0  0  0
  125.6040  132.4450   63.1380 C   0  0  0  0  0  0  0  0  0  0  0  0
  126.3360  131.5370   63.8970 C   0  0  0  0  0  0  0  0  0  0  0  0
  125.8470  130.2500   64.1240 C   0  0  0  0  0  0  0  0  0  0  0  0
  126.6810  129.3900   64.8640 N   0  0  0  0  0  0  0  0  0  0  0  0
  127.2790  129.5970   66.0580 C   0  0  0  0  0  0  0  0  0  0  0  0
  127.2390  130.6530   66.6880 O   0  0  0  0  0  0  0  0  0  0  0  0
  128.0500  128.3850   66.6050 C   0  0  0  0  0  0  0  0  0  0  0  0
  127.2450  127.5020   67.9860 S   0  0  0  0  0  0  0  0  0  0  0  0
  128.6640  127.3150   69.0130 C   0  0  0  0  0  0  0  0  0  0  0  0
  128.6190  127.1850   70.3150 N   0  0  0  0  0  0  0  0  0  0  0  0
  129.8950  127.0620   70.6660 C   0  0  0  0  0  0  0  0  0  0  0  0
  130.3210  126.8730   72.0940 C   0  0  0  0  0  0  0  0  0  0  0  0
  131.4950  126.1770   72.4240 C   0  0  0  0  0  0  0  0  0  0  0  0
  131.8640  126.0150   73.7610 C   0  0  0  0  0  0  0  0  0  0  0  0
  131.0420  126.5570   74.7480 C   0  0  0  0  0  0  0  0  0  0  0  0
  129.9010  127.2340   74.4640 N   0  0  0  0  0  0  0  0  0  0  0  0
  129.5610  127.3830   73.1590 C   0  0  0  0  0  0  0  0  0  0  0  0
  130.7630  127.1140   69.6730 N   0  0  0  0  0  0  0  0  0  0  0  0
  129.9730  127.2780   68.6070 N   0  0  0  0  0  0  0  0  0  0  0  0
  130.5460  127.3610   67.2640 C   0  0  0  0  0  0  0  0  0  0  0  0
  130.4770  126.0590   66.4460 C   0  0  0  0  0  0  0  0  0  0  0  0
  129.8810  125.0680   66.8830 O   0  0  0  0  0  0  0  0  0  0  0  0
  131.1070  126.1010   65.2570 N   0  0  0  0  0  0  0  0  0  0  0  0
  130.9640  125.0170   64.4020 N   0  0  0  0  0  0  0  0  0  0  0  0
  132.0790  124.5150   63.8270 C   0  0  0  0  0  0  0  0  0  0  0  0
  133.2250  124.8940   64.0930 O   0  0  0  0  0  0  0  0  0  0  0  0
  131.8550  123.4050   62.8210 C   0  0  0  0  0  0  0  0  0  0  0  0
  132.9390  122.6460   62.3650 C   0  0  0  0  0  0  0  0  0  0  0  0
  132.7580  121.6300   61.4330 C   0  0  0  0  0  0  0  0  0  0  0  0
  131.4820  121.3450   60.9200 C   0  0  0  0  0  0  0  0  0  0  0  0
  131.2360  120.3590   59.9820 O   0  0  0  0  0  0  0  0  0  0  0  0
  130.3360  119.3020   60.2950 C   0  0  0  0  0  0  0  0  0  0  0  0
  130.3850  122.0980   61.3580 C   0  0  0  0  0  0  0  0  0  0  0  0
  129.1520  121.7910   60.8070 O   0  0  0  0  0  0  0  0  0  0  0  0
  128.4010  122.8060   60.1510 C   0  0  0  0  0  0  0  0  0  0  0  0
  130.5800  123.1180   62.3060 C   0  0  0  0  0  0  0  0  0  0  0  0
  124.6100  129.8740   63.5770 C   0  0  0  0  0  0  0  0  0  0  0  0
  123.8810  130.7860   62.8200 C   0  0  0  0  0  0  0  0  0  0  0  0
  1  2  1  0
  2  3  1  0
  3  4  2  0
  4  5  1  0
  5  6  2  0
  6  7  1  0
  7  8  1  0
  8  9  2  0
  8 10  1  0
 10 11  1  0
 11 12  1  0
 12 13  2  0
 13 14  1  0
 14 15  1  0
 15 16  2  0
 16 17  1  0
 17 18  2  0
 18 19  1  0
 19 20  2  0
 14 21  2  0
 21 22  1  0
 22 23  1  0
 23 24  1  0
 24 25  2  0
 24 26  1  0
 26 27  1  0
 27 28  1  0
 28 29  2  0
 28 30  1  0
 30 31  2  0
 31 32  1  0
 32 33  2  0
 33 34  1  0
 34 35  1  0
 33 36  1  0
 36 37  1  0
 37 38  1  0
 36 39  2  0
  6 40  1  0
 40 41  2  0
 41  3  1  0
 22 12  1  0
 39 30  1  0
 20 15  1  0
M  END
>  <Binding energies>  (74) 
[-10.37]

>  <Ligand effiencies>  (74) 
[-0.23568181818181816]

>  <Interactions>  (74) 
["V-B:ARG:545:CZ:9898, V-B:GLU:543:CB:9878, V-B:GLY:453:CA:9016, V-A:HIS:456:CE1:4068, V-A:HIS:456:CD2:4066, V-B:GLU:543:CD:9880, H-B:TYR:484:OH:9320, V-A:GLU:543:CD:4906, V-B:HIS:456:CE1:9042, H-A:LYS:547:NZ:4949, V-A:GLY:544:C:4910, V-A:GLU:543:CB:4904, V-B:GLY:453:C:9014, V-B:GLU:543:CG:9879, V-A:GLU:543:CG:4905, H-A:GLY:454:N:4048, H-B:LYS:547:NZ:9923, V-B:GLU:543:C:9874, V-A:ARG:545:CG:4920, V-A:LYS:547:CE:4948, H-A:TYR:484:OH:4346, V-A:HIS:456:CG:4064, V-A:HIS:456:CB:4063, V-B:LYS:547:CE:9922, H-B:GLU:543:OE1:9881, H-A:ARG:545:NE:4922, V-A:LYS:547:CD:4947, V-A:TRP:381:CZ2:3368, V-A:LEU:475:CD2:4257, V-A:TRP:381:CH2:3370, V-B:PRO:540:CA:9855, V-B:TYR:539:C:9839, V-A:GLY:454:CA:4047, V-B:ALA:541:CB:9864, V-B:TYR:539:CD2:9846, V-B:LEU:475:CD2:9231, V-B:ILE:369:CD1:8211, H-B:ALA:541:N:9863, V-A:TYR:539:CE2:4874, V-B:ILE:369:CG2:8209, V-B:GLY:454:CA:9021, V-A:TRP:381:CZ3:3369, V-A:PRO:482:CG:4325, V-A:PRO:482:CB:4324, H-A:GLU:543:OE2:4908, H-A:GLU:543:OE1:4907, H-B:GLU:543:OE2:9882, H-A:HIS:456:ND1:4065"]

$$$$
RR22_Rahimova_2017
     RDKit          3D

 31 36  0  0  0  0  0  0  0  0999 V2000
  124.4130  129.4700   56.3330 O   0  0  0  0  0  0  0  0  0  0  0  0
  125.3170  129.6340   57.1480 C   0  0  0  0  0  0  0  0  0  0  0  0
  125.2220  129.6180   58.5290 N   0  0  0  0  0  0  0  0  0  0  0  0
  126.3900  129.7670   59.3420 C   0  0  1  0  0  0  0  0  0  0  0  0
  126.1110  130.8760   60.2000 O   0  0  0  0  0  0  0  0  0  0  0  0
  126.1240  130.6660   61.5800 C   0  0  0  0  0  0  0  0  0  0  0  0
  125.5010  131.6380   62.3630 C   0  0  0  0  0  0  0  0  0  0  0  0
  125.5080  131.5180   63.7520 C   0  0  0  0  0  0  0  0  0  0  0  0
  126.1440  130.4340   64.3570 C   0  0  0  0  0  0  0  0  0  0  0  0
  126.7680  129.4610   63.5730 C   0  0  0  0  0  0  0  0  0  0  0  0
  126.7480  129.5550   62.1780 C   0  0  0  0  0  0  0  0  0  0  0  0
  127.4300  128.5810   61.2450 C   0  0  1  0  0  0  0  0  0  0  0  0
  127.5790  127.1090   61.5710 C   0  0  0  0  0  0  0  0  0  0  0  0
  127.5600  126.5230   60.1560 C   0  0  0  0  0  0  0  0  0  0  0  0
  128.0540  125.1670   59.8470 C   0  0  0  0  0  0  0  0  0  0  0  0
  128.4320  124.2930   60.8780 C   0  0  0  0  0  0  0  0  0  0  0  0
  128.8950  123.0140   60.5810 C   0  0  0  0  0  0  0  0  0  0  0  0
  128.9850  122.6010   59.2550 C   0  0  0  0  0  0  0  0  0  0  0  0
  128.6140  123.4570   58.2200 C   0  0  0  0  0  0  0  0  0  0  0  0
  128.1490  124.7350   58.5150 C   0  0  0  0  0  0  0  0  0  0  0  0
  127.0480  127.3480   59.3220 N   0  0  0  0  0  0  0  0  0  0  0  0
  126.6710  128.5000   60.0330 N   0  0  0  0  0  0  0  0  0  0  0  0
  127.5160  130.1940   58.4110 C   0  0  0  0  0  0  0  0  0  0  0  0
  128.6670  130.7530   58.8550 C   0  0  0  0  0  0  0  0  0  0  0  0
  129.8380  131.1910   58.0710 C   0  0  0  0  0  0  0  0  0  0  0  0
  131.1340  130.7060   58.2920 C   0  0  0  0  0  0  0  0  0  0  0  0
  132.1950  131.1680   57.5100 C   0  0  0  0  0  0  0  0  0  0  0  0
  131.9290  132.1160   56.5230 C   0  0  0  0  0  0  0  0  0  0  0  0
  130.6870  132.6100   56.2920 N   0  0  0  0  0  0  0  0  0  0  0  0
  129.6690  132.1480   57.0620 C   0  0  0  0  0  0  0  0  0  0  0  0
  127.0560  129.9500   56.7200 S   0  0  0  0  0  0  0  0  0  0  0  0
  1  2  2  0
  2  3  1  0
  4  3  1  6
  4  5  1  0
  5  6  1  0
  6  7  2  0
  7  8  1  0
  8  9  2  0
  9 10  1  0
 10 11  2  0
 11 12  1  0
 12 13  1  1
 13 14  1  0
 14 15  1  0
 15 16  2  0
 16 17  1  0
 17 18  2  0
 18 19  1  0
 19 20  2  0
 14 21  2  0
 21 22  1  0
  4 23  1  0
 23 24  2  0
 24 25  1  0
 25 26  2  0
 26 27  1  0
 27 28  2  0
 28 29  1  0
 29 30  2  0
 23 31  1  0
 31  2  1  0
 22  4  1  0
 30 25  1  0
 11  6  1  0
 22 12  1  0
 20 15  1  0
M  END
>  <Binding energies>  (75) 
[-8.3]

>  <Ligand effiencies>  (75) 
[-0.259375]

>  <Interactions>  (75) 
["V-B:GLU:543:CD:9880, V-A:GLU:543:CD:4906, V-B:TYR:539:C:9839, V-B:ALA:541:CB:9864, V-B:TYR:539:CD2:9846, V-B:TYR:539:CE2:9848, V-A:PRO:540:CA:4881, V-A:PRO:540:N:4882, V-B:ASP:366:CG:8185, V-A:PRO:540:CB:4883, V-A:PRO:540:CD:4885, V-A:TYR:539:C:4865, V-B:ASP:366:CB:8184, H-B:TYR:531:OH:9767, H-A:TYR:539:N:4868, H-A:TYR:539:OH:4876, H-B:ASP:366:OD2:8187, H-B:ASP:366:OD1:8186, V-A:ILE:538:CB:4860"]

$$$$
RR24_Rahimova_2017
     RDKit          3D

 43 49  0  0  0  0  0  0  0  0999 V2000
  126.6600  124.9690   59.2240 C   0  0  0  0  0  0  0  0  0  0  0  0
  127.9590  125.0120   58.4060 C   0  0  2  0  0  0  0  0  0  0  0  0
  127.7280  124.8320   56.8770 C   0  0  0  0  0  0  0  0  0  0  0  0
  127.9110  123.7510   56.3090 O   0  0  0  0  0  0  0  0  0  0  0  0
  127.3380  125.9900   56.2680 O   0  0  0  0  0  0  0  0  0  0  0  0
  127.6820  127.2000   56.8250 C   0  0  0  0  0  0  0  0  0  0  0  0
  126.6840  128.1420   57.0870 C   0  0  0  0  0  0  0  0  0  0  0  0
  127.0180  129.3650   57.6590 C   0  0  0  0  0  0  0  0  0  0  0  0
  128.3480  129.6510   57.9790 C   0  0  0  0  0  0  0  0  0  0  0  0
  128.7130  131.0090   58.5910 C   0  0  1  0  0  0  0  0  0  0  0  0
  127.7810  131.3810   59.7670 C   0  0  0  0  0  0  0  0  0  0  0  0
  128.2440  131.7680   60.9700 C   0  0  0  0  0  0  0  0  0  0  0  0
  129.5870  131.8580   61.2430 N   0  0  0  0  0  0  0  0  0  0  0  0
  130.5320  131.5530   60.2910 C   0  0  0  0  0  0  0  0  0  0  0  0
  131.8120  131.7020   60.7160 N   0  0  0  0  0  0  0  0  0  0  0  0
  132.8800  131.3730   59.9390 C   0  0  0  0  0  0  0  0  0  0  0  0
  133.9840  131.2220   60.4660 O   0  0  0  0  0  0  0  0  0  0  0  0
  132.5540  131.0770   58.6250 N   0  0  0  0  0  0  0  0  0  0  0  0
  133.6850  130.8010   57.7160 C   0  0  0  0  0  0  0  0  0  0  0  0
  131.2900  130.8990   58.0890 C   0  0  0  0  0  0  0  0  0  0  0  0
  131.0740  130.5830   56.9140 O   0  0  0  0  0  0  0  0  0  0  0  0
  130.1990  131.1440   59.0380 C   0  0  0  0  0  0  0  0  0  0  0  0
  127.1480  132.0540   61.8800 C   0  0  0  0  0  0  0  0  0  0  0  0
  127.0990  132.4740   63.2100 C   0  0  0  0  0  0  0  0  0  0  0  0
  125.8570  132.6650   63.8200 C   0  0  0  0  0  0  0  0  0  0  0  0
  124.6780  132.4390   63.1030 C   0  0  0  0  0  0  0  0  0  0  0  0
  124.7330  132.0190   61.7710 C   0  0  0  0  0  0  0  0  0  0  0  0
  125.9770  131.8280   61.1670 C   0  0  0  0  0  0  0  0  0  0  0  0
  126.3220  131.3980   59.7960 C   0  0  0  0  0  0  0  0  0  0  0  0
  125.5860  131.1080   58.8540 O   0  0  0  0  0  0  0  0  0  0  0  0
  129.3430  128.6990   57.7320 C   0  0  0  0  0  0  0  0  0  0  0  0
  129.0090  127.4740   57.1620 C   0  0  0  0  0  0  0  0  0  0  0  0
  128.9890  124.0720   58.9400 N   0  0  0  0  0  0  0  0  0  0  0  0
  130.3220  124.3260   58.8090 C   0  0  0  0  0  0  0  0  0  0  0  0
  130.8480  125.2960   58.2610 O   0  0  0  0  0  0  0  0  0  0  0  0
  131.0070  123.1850   59.4650 C   0  0  0  0  0  0  0  0  0  0  0  0
  132.3650  122.9100   59.6330 C   0  0  0  0  0  0  0  0  0  0  0  0
  132.7320  121.7390   60.3080 C   0  0  0  0  0  0  0  0  0  0  0  0
  131.7500  120.8710   60.8010 C   0  0  0  0  0  0  0  0  0  0  0  0
  130.3940  121.1660   60.6230 C   0  0  0  0  0  0  0  0  0  0  0  0
  130.0480  122.3360   59.9460 C   0  0  0  0  0  0  0  0  0  0  0  0
  128.7210  122.9110   59.6110 C   0  0  0  0  0  0  0  0  0  0  0  0
  127.6160  122.4420   59.8840 O   0  0  0  0  0  0  0  0  0  0  0  0
  2  1  1  1
  2  3  1  0
  3  4  2  0
  3  5  1  0
  5  6  1  0
  6  7  2  0
  7  8  1  0
  8  9  2  0
 10  9  1  1
 10 11  1  0
 11 12  2  0
 12 13  1  0
 13 14  1  0
 14 15  1  0
 15 16  1  0
 16 17  2  0
 16 18  1  0
 18 19  1  0
 18 20  1  0
 20 21  2  0
 20 22  1  0
 12 23  1  0
 23 24  2  0
 24 25  1  0
 25 26  2  0
 26 27  1  0
 27 28  2  0
 28 29  1  0
 29 30  2  0
  9 31  1  0
 31 32  2  0
  2 33  1  0
 33 34  1  0
 34 35  2  0
 34 36  1  0
 36 37  2  0
 37 38  1  0
 38 39  2  0
 39 40  1  0
 40 41  2  0
 41 42  1  0
 42 43  2  0
 32  6  1  0
 42 33  1  0
 22 10  1  0
 28 23  1  0
 41 36  1  0
 29 11  1  0
 22 14  2  0
M  END
>  <Binding energies>  (76) 
[-9.11]

>  <Ligand effiencies>  (76) 
[-0.20244444444444443]

>  <Interactions>  (76) 
["V-A:LEU:475:CD2:4257, V-B:TYR:539:C:9839, V-A:ASP:366:CG:3211, V-B:ALA:541:CB:9864, V-B:TYR:539:CD2:9846, V-B:TYR:539:CE2:9848, V-A:ILE:369:CG2:3235, V-A:ASP:366:CB:3210, H-A:TYR:531:OH:4793, V-B:LEU:475:CD2:9231, V-A:PRO:540:CA:4881, H-A:LEU:363:N:3184, H-B:ALA:541:N:9863, V-A:PRO:540:CB:4883, V-A:PRO:540:C:4879, V-A:TYR:539:CE2:4874, V-A:TYR:531:CE2:4791, V-A:LEU:363:CA:3183, V-B:GLY:454:CA:9021, V-A:ALA:541:CB:4890, H-B:TYR:531:OH:9767, H-A:ARG:545:NH2:4926, V-B:TYR:484:CZ:9319, H-A:GLU:543:OE1:4907, H-A:TYR:539:OH:4876, H-A:ALA:541:O:4887"]

$$$$
RR25_Rahimova_2017
     RDKit          3D

 39 44  0  0  0  0  0  0  0  0999 V2000
  127.0380  123.4080   61.6080 O   0  0  0  0  0  0  0  0  0  0  0  0
  128.0990  123.8500   61.1670 C   0  0  0  0  0  0  0  0  0  0  0  0
  129.1910  123.0240   61.2720 O   0  0  0  0  0  0  0  0  0  0  0  0
  130.3680  123.2950   60.6000 C   0  0  0  0  0  0  0  0  0  0  0  0
  131.1860  122.2060   60.3030 C   0  0  0  0  0  0  0  0  0  0  0  0
  132.3920  122.4070   59.6350 C   0  0  0  0  0  0  0  0  0  0  0  0
  132.7980  123.6960   59.2580 C   0  0  0  0  0  0  0  0  0  0  0  0
  134.0790  123.9070   58.5390 N   0  0  0  0  0  0  0  0  0  0  0  0
  134.0860  123.8230   57.3130 O   0  0  0  0  0  0  0  0  0  0  0  0
  135.0860  124.1570   59.1940 O   0  0  0  0  0  0  0  0  0  0  0  0
  131.9660  124.7810   59.5770 C   0  0  0  0  0  0  0  0  0  0  0  0
  130.7570  124.5970   60.2540 C   0  0  0  0  0  0  0  0  0  0  0  0
  129.8190  125.7350   60.6120 C   0  0  0  0  0  0  0  0  0  0  0  0
  128.3450  125.2460   60.5230 C   0  0  2  0  0  0  0  0  0  0  0  0
  127.3570  126.3580   60.9780 C   0  0  0  0  0  0  0  0  0  0  0  0
  127.0410  126.3470   62.1720 O   0  0  0  0  0  0  0  0  0  0  0  0
  126.9590  127.3650   60.1430 N   0  0  0  0  0  0  0  0  0  0  0  0
  127.0430  127.2640   58.6710 C   0  0  0  0  0  0  0  0  0  0  0  0
  127.4220  128.6440   58.0940 C   0  0  0  0  0  0  0  0  0  0  0  0
  126.4910  129.6850   58.5410 N   0  0  0  0  0  0  0  0  0  0  0  0
  126.7700  130.9720   57.8890 C   0  0  0  0  0  0  0  0  0  0  0  0
  127.6060  131.9290   58.7790 C   0  0  0  0  0  0  0  0  0  0  0  0
  129.0810  131.7060   58.7780 N   0  0  0  0  0  0  0  0  0  0  0  0
  129.6840  131.7590   57.5390 C   0  0  0  0  0  0  0  0  0  0  0  0
  129.0570  131.9410   56.4890 O   0  0  0  0  0  0  0  0  0  0  0  0
  131.1910  131.5950   57.5620 C   0  0  0  0  0  0  0  0  0  0  0  0
  131.9090  131.6580   56.3610 C   0  0  0  0  0  0  0  0  0  0  0  0
  133.2950  131.5200   56.3460 C   0  0  0  0  0  0  0  0  0  0  0  0
  134.0080  131.3180   57.5270 C   0  0  0  0  0  0  0  0  0  0  0  0
  133.3260  131.2460   58.7650 C   0  0  0  0  0  0  0  0  0  0  0  0
  133.9860  131.0450   60.0010 C   0  0  0  0  0  0  0  0  0  0  0  0
  133.2530  130.9880   61.1850 C   0  0  0  0  0  0  0  0  0  0  0  0
  131.8670  131.1260   61.1760 C   0  0  0  0  0  0  0  0  0  0  0  0
  131.1700  131.3270   59.9770 C   0  0  0  0  0  0  0  0  0  0  0  0
  131.9100  131.3870   58.7680 C   0  0  0  0  0  0  0  0  0  0  0  0
  129.6620  131.4820   60.0100 C   0  0  0  0  0  0  0  0  0  0  0  0
  129.0200  131.4260   61.0640 O   0  0  0  0  0  0  0  0  0  0  0  0
  126.5340  129.7970   60.0000 C   0  0  0  0  0  0  0  0  0  0  0  0
  126.1360  128.4690   60.6870 C   0  0  0  0  0  0  0  0  0  0  0  0
  1  2  2  0
  2  3  1  0
  3  4  1  0
  4  5  2  0
  5  6  1  0
  6  7  2  0
  7  8  1  0
  8  9  2  0
  8 10  1  0
  7 11  1  0
 11 12  2  0
 12 13  1  0
 13 14  1  0
 14 15  1  1
 15 16  2  0
 15 17  1  0
 17 18  1  0
 18 19  1  0
 19 20  1  0
 20 21  1  0
 21 22  1  0
 22 23  1  0
 23 24  1  0
 24 25  2  0
 24 26  1  0
 26 27  2  0
 27 28  1  0
 28 29  2  0
 29 30  1  0
 30 31  2  0
 31 32  1  0
 32 33  2  0
 33 34  1  0
 34 35  2  0
 34 36  1  0
 36 37  2  0
 20 38  1  0
 38 39  1  0
 14  2  1  0
 39 17  1  0
 12  4  1  0
 36 23  1  0
 35 26  1  0
 35 30  1  0
M  CHG  2   8   1  10  -1
M  END
>  <Binding energies>  (77) 
[-10.21]

>  <Ligand effiencies>  (77) 
[-0.2617948717948718]

>  <Interactions>  (77) 
["V-A:ARG:545:CZ:4924, V-A:ILE:369:CD1:3237, V-A:ASP:366:CG:3211, V-B:TYR:539:CD2:9846, V-B:TYR:539:CE2:9848, V-A:ILE:369:CG2:3235, V-A:ASP:366:CA:3208, V-A:ASP:366:CB:3210, V-A:ILE:369:CB:3234, V-A:ASN:362:CB:3174, V-A:PRO:540:CA:4881, V-A:PRO:540:N:4882, V-B:ASP:366:CG:8185, V-A:TYR:531:CZ:4792, H-B:ARG:545:NH2:9900, H-B:ALA:541:N:9863, V-A:PRO:540:CB:4883, V-A:PRO:540:CD:4885, V-A:ASN:362:C:3170, V-A:TYR:539:C:4865, V-A:TYR:539:CE2:4874, V-A:TYR:531:CE2:4791, V-A:LEU:363:CA:3183, V-A:TYR:539:CD2:4872, V-A:TYR:539:CZ:4875, H-B:TYR:539:OH:9850, V-A:LEU:363:CD1:3187, V-A:LEU:363:CB:3185, V-A:ASN:362:CA:3172"]

$$$$
RR27_Rahimova_2017
     RDKit          3D

 39 44  0  0  0  0  0  0  0  0999 V2000
  128.9730  123.1580   61.8810 O   0  0  0  0  0  0  0  0  0  0  0  0
  129.6190  123.9870   61.2330 C   0  0  0  0  0  0  0  0  0  0  0  0
  131.1630  124.0330   61.4250 C   0  0  0  0  0  0  0  0  0  0  0  0
  131.8600  122.7140   61.0420 C   0  0  0  0  0  0  0  0  0  0  0  0
  131.1340  121.5420   60.7800 C   0  0  0  0  0  0  0  0  0  0  0  0
  131.7960  120.3680   60.4330 C   0  0  0  0  0  0  0  0  0  0  0  0
  133.1850  120.3590   60.3480 C   0  0  0  0  0  0  0  0  0  0  0  0
  133.9190  121.5130   60.6070 C   0  0  0  0  0  0  0  0  0  0  0  0
  133.2570  122.6870   60.9540 C   0  0  0  0  0  0  0  0  0  0  0  0
  131.5510  124.5940   62.8070 C   0  0  0  0  0  0  0  0  0  0  0  0
  130.6270  125.2730   63.6130 C   0  0  0  0  0  0  0  0  0  0  0  0
  131.0140  125.7770   64.8520 C   0  0  0  0  0  0  0  0  0  0  0  0
  132.3250  125.6100   65.2870 C   0  0  0  0  0  0  0  0  0  0  0  0
  133.2570  124.9470   64.4920 C   0  0  0  0  0  0  0  0  0  0  0  0
  132.8700  124.4440   63.2540 C   0  0  0  0  0  0  0  0  0  0  0  0
  129.0380  124.7450   60.2600 N   0  0  0  0  0  0  0  0  0  0  0  0
  129.6890  125.9090   59.6420 C   0  0  0  0  0  0  0  0  0  0  0  0
  129.3560  127.1310   60.5270 C   0  0  0  0  0  0  0  0  0  0  0  0
  127.8200  127.3230   60.7360 C   0  0  0  0  0  0  0  0  0  0  0  0
  127.4370  128.4590   61.7020 C   0  0  0  0  0  0  0  0  0  0  0  0
  126.9530  128.0820   62.9220 N   0  0  0  0  0  0  0  0  0  0  0  0
  126.6250  129.0480   63.8240 C   0  0  0  0  0  0  0  0  0  0  0  0
  126.1350  128.7950   65.0780 O   0  0  0  0  0  0  0  0  0  0  0  0
  126.7960  130.3980   63.4600 C   0  0  0  0  0  0  0  0  0  0  0  0
  126.5790  131.5810   64.1040 N   0  0  0  0  0  0  0  0  0  0  0  0
  126.9290  132.5940   63.2320 N   0  0  0  0  0  0  0  0  0  0  0  0
  127.3610  132.0450   62.0770 N   0  0  0  0  0  0  0  0  0  0  0  0
  127.7740  132.8930   60.9610 C   0  0  0  0  0  0  0  0  0  0  0  0
  128.9100  132.3060   60.1340 C   0  0  0  0  0  0  0  0  0  0  0  0
  128.7700  132.1580   58.7510 C   0  0  0  0  0  0  0  0  0  0  0  0
  129.8150  131.6300   57.9910 C   0  0  0  0  0  0  0  0  0  0  0  0
  131.0070  131.2530   58.6090 C   0  0  0  0  0  0  0  0  0  0  0  0
  131.1570  131.4070   59.9880 C   0  0  0  0  0  0  0  0  0  0  0  0
  132.6410  130.9660   60.7520 Cl  0  0  0  0  0  0  0  0  0  0  0  0
  130.1090  131.9270   60.7490 C   0  0  0  0  0  0  0  0  0  0  0  0
  127.2940  130.6640   62.1660 C   0  0  0  0  0  0  0  0  0  0  0  0
  127.6160  129.7370   61.2610 N   0  0  0  0  0  0  0  0  0  0  0  0
  127.1020  125.9740   61.0520 C   0  0  0  0  0  0  0  0  0  0  0  0
  127.5720  124.8070   60.1480 C   0  0  0  0  0  0  0  0  0  0  0  0
  1  2  2  0
  2  3  1  0
  3  4  1  0
  4  5  2  0
  5  6  1  0
  6  7  2  0
  7  8  1  0
  8  9  2  0
  3 10  1  0
 10 11  2  0
 11 12  1  0
 12 13  2  0
 13 14  1  0
 14 15  2  0
  2 16  1  0
 16 17  1  0
 17 18  1  0
 18 19  1  0
 19 20  1  0
 20 21  2  0
 21 22  1  0
 22 23  1  0
 22 24  2  0
 24 25  1  0
 25 26  2  0
 26 27  1  0
 27 28  1  0
 28 29  1  0
 29 30  2  0
 30 31  1  0
 31 32  2  0
 32 33  1  0
 33 34  1  0
 33 35  2  0
 27 36  1  0
 36 37  2  0
 19 38  1  0
 38 39  1  0
  9  4  1  0
 15 10  1  0
 39 16  1  0
 37 20  1  0
 36 24  1  0
 35 29  1  0
M  END
>  <Binding energies>  (78) 
[-9.23]

>  <Ligand effiencies>  (78) 
[-0.23075]

>  <Interactions>  (78) 
["V-B:ARG:545:CZ:9898, V-A:HIS:456:CE1:4068, V-B:GLU:543:CD:9880, H-B:TYR:484:OH:9320, V-A:GLU:543:CD:4906, H-B:ARG:545:NE:9896, V-A:ARG:545:CZ:4924, V-A:ARG:545:CG:4920, V-A:ARG:545:CD:4921, V-A:TRP:381:CZ2:3368, V-A:ILE:369:CD1:3237, V-A:LEU:475:CD2:4257, V-A:TRP:381:CH2:3370, V-B:TYR:539:CD2:9846, V-B:TYR:539:CE2:9848, V-A:ILE:369:CG2:3235, V-A:ILE:369:CG1:3236, V-A:ASN:362:CB:3174, V-A:PRO:540:CA:4881, V-A:PRO:540:N:4882, H-B:ARG:545:NH2:9900, V-A:PRO:540:CB:4883, V-A:TYR:539:C:4865, V-A:PRO:540:C:4879, V-A:TYR:539:CE2:4874, V-A:ALA:541:CB:4890, V-A:TYR:539:CD2:4872, H-B:GLU:543:OE2:9882"]

$$$$
RR28_Rahimova_2017
     RDKit          3D

 46 49  0  0  0  0  0  0  0  0999 V2000
  133.9320  123.1400   58.6240 C   0  0  0  0  0  0  0  0  0  0  0  0
  132.7860  123.5660   59.5350 C   0  0  0  0  0  0  0  0  0  0  0  0
  133.0170  123.8480   60.7090 O   0  0  0  0  0  0  0  0  0  0  0  0
  131.5600  123.6050   58.9740 N   0  0  0  0  0  0  0  0  0  0  0  0
  130.2740  123.9700   59.6100 C   0  0  0  0  0  0  0  0  0  0  0  0
  130.5520  124.3360   61.0960 C   0  0  0  0  0  0  0  0  0  0  0  0
  130.4990  123.3310   62.0740 C   0  0  0  0  0  0  0  0  0  0  0  0
  130.7380  123.6230   63.4130 C   0  0  0  0  0  0  0  0  0  0  0  0
  131.0360  124.9290   63.8070 C   0  0  0  0  0  0  0  0  0  0  0  0
  131.2910  125.2310   65.2830 C   0  0  0  0  0  0  0  0  0  0  0  0
  132.5930  125.3070   65.5670 F   0  0  0  0  0  0  0  0  0  0  0  0
  130.7270  126.3900   65.6220 F   0  0  0  0  0  0  0  0  0  0  0  0
  130.7590  124.2610   66.0270 F   0  0  0  0  0  0  0  0  0  0  0  0
  131.0900  125.9390   62.8430 C   0  0  0  0  0  0  0  0  0  0  0  0
  130.8500  125.6460   61.5030 C   0  0  0  0  0  0  0  0  0  0  0  0
  129.2240  122.8160   59.4300 C   0  0  0  0  0  0  0  0  0  0  0  0
  128.8120  122.5870   57.9530 C   0  0  0  0  0  0  0  0  0  0  0  0
  128.2560  123.8620   57.4730 N   0  0  0  0  0  0  0  0  0  0  0  0
  126.9160  124.0940   57.5320 C   0  0  0  0  0  0  0  0  0  0  0  0
  126.1110  123.2060   57.8220 O   0  0  0  0  0  0  0  0  0  0  0  0
  126.3730  125.4650   57.0620 C   0  0  0  0  0  0  0  0  0  0  0  0
  125.7980  126.3840   58.1740 C   0  0  0  0  0  0  0  0  0  0  0  0
  126.7950  126.7590   59.2960 C   0  0  0  0  0  0  0  0  0  0  0  0
  126.4980  126.4630   60.4570 O   0  0  0  0  0  0  0  0  0  0  0  0
  128.0160  127.2720   58.9720 N   0  0  0  0  0  0  0  0  0  0  0  0
  128.3020  127.9250   57.6890 C   0  0  0  0  0  0  0  0  0  0  0  0
  127.8790  129.4030   57.8420 C   0  0  0  0  0  0  0  0  0  0  0  0
  128.5670  130.1630   59.0300 C   0  0  0  0  0  0  0  0  0  0  0  0
  127.8080  131.3970   59.3200 N   0  0  0  0  0  0  0  0  0  0  0  0
  128.0650  132.3310   60.2580 C   0  0  0  0  0  0  0  0  0  0  0  0
  127.0860  133.4980   60.3360 C   0  0  0  0  0  0  0  0  0  0  0  0
  129.0210  132.2860   61.0310 O   0  0  0  0  0  0  0  0  0  0  0  0
  129.9930  130.5880   58.5500 C   0  0  0  0  0  0  0  0  0  0  0  0
  130.2940  130.8600   57.2050 C   0  0  0  0  0  0  0  0  0  0  0  0
  131.5780  131.2360   56.8190 C   0  0  0  0  0  0  0  0  0  0  0  0
  132.5950  131.3480   57.7690 C   0  0  0  0  0  0  0  0  0  0  0  0
  134.0090  131.7650   57.3620 C   0  0  0  0  0  0  0  0  0  0  0  0
  133.9770  132.8780   56.6270 F   0  0  0  0  0  0  0  0  0  0  0  0
  134.7280  131.9990   58.4590 F   0  0  0  0  0  0  0  0  0  0  0  0
  134.6260  130.8200   56.6510 F   0  0  0  0  0  0  0  0  0  0  0  0
  132.3140  131.0730   59.1080 C   0  0  0  0  0  0  0  0  0  0  0  0
  131.0300  130.6970   59.4900 C   0  0  0  0  0  0  0  0  0  0  0  0
  128.5930  129.2220   60.2960 C   0  0  0  0  0  0  0  0  0  0  0  0
  128.9270  127.7290   60.0290 C   0  0  0  0  0  0  0  0  0  0  0  0
  129.2470  124.9470   57.4220 C   0  0  0  0  0  0  0  0  0  0  0  0
  129.6910  125.2250   58.8820 C   0  0  0  0  0  0  0  0  0  0  0  0
  1  2  1  0
  2  3  2  0
  2  4  1  0
  4  5  1  0
  5  6  1  0
  6  7  2  0
  7  8  1  0
  8  9  2  0
  9 10  1  0
 10 11  1  0
 10 12  1  0
 10 13  1  0
  9 14  1  0
 14 15  2  0
  5 16  1  0
 16 17  1  0
 17 18  1  0
 18 19  1  0
 19 20  2  0
 19 21  1  0
 21 22  1  0
 22 23  1  0
 23 24  2  0
 23 25  1  0
 25 26  1  0
 26 27  1  0
 27 28  1  0
 28 29  1  0
 29 30  1  0
 30 31  1  0
 30 32  2  0
 28 33  1  0
 33 34  2  0
 34 35  1  0
 35 36  2  0
 36 37  1  0
 37 38  1  0
 37 39  1  0
 37 40  1  0
 36 41  1  0
 41 42  2  0
 28 43  1  0
 43 44  1  0
 18 45  1  0
 45 46  1  0
 46  5  1  0
 15  6  1  0
 44 25  1  0
 42 33  1  0
M  END
>  <Binding energies>  (79) 
[-5.94]

>  <Ligand effiencies>  (79) 
[-0.12375000000000001]

>  <Interactions>  (79) 
["V-B:GLU:543:CB:9878, V-A:HIS:456:CE1:4068, V-B:GLU:543:CD:9880, V-A:GLU:543:CD:4906, V-B:GLU:543:CG:9879, V-A:ARG:545:CZ:4924, V-A:ARG:545:CG:4920, V-A:ARG:545:CD:4921, V-A:TYR:484:CZ:4345, V-B:TYR:539:CZ:9849, V-B:TYR:539:CG:9844, V-A:ILE:369:CD1:3237, V-B:TYR:539:C:9839, V-B:TYR:539:CD2:9846, V-B:TYR:539:CE2:9848, V-A:ILE:369:CG2:3235, V-B:PRO:540:N:9856, V-A:ASP:366:CB:3210, V-A:ILE:369:CB:3234, V-A:PRO:540:CG:4884, V-A:PRO:540:CA:4881, V-A:PRO:540:N:4882, V-B:ASP:366:CG:8185, V-A:TYR:531:CZ:4792, H-B:ARG:545:NH2:9900, V-A:PRO:540:CB:4883, V-A:PRO:540:CD:4885, V-A:ASN:362:C:3170, V-A:TYR:539:CE2:4874, V-A:TYR:531:CE2:4791, V-A:LEU:363:CA:3183, H-A:ALA:541:N:4889, V-B:ASP:366:CB:8184, V-A:TYR:539:CD2:4872, H-B:TYR:539:OH:9850, V-A:TYR:484:CE1:4343, V-A:LEU:363:CD1:3187, V-A:LEU:363:CB:3185, V-A:LEU:363:CG:3186, V-A:ILE:538:CB:4860, V-A:ILE:538:CD1:4863, V-A:TYR:531:CD2:4789, V-A:LEU:363:C:3181"]

$$$$
RR29_Rahimova_2017
     RDKit          3D

 18 19  0  0  0  0  0  0  0  0999 V2000
  125.0800  129.4800   65.1780 C   0  0  0  0  0  0  0  0  0  0  0  0
  126.5070  129.1480   64.7700 C   0  0  0  0  0  0  0  0  0  0  0  0
  127.4810  129.0990   65.9680 C   0  0  0  0  0  0  0  0  0  0  0  0
  127.0850  128.0040   66.9810 C   0  0  0  0  0  0  0  0  0  0  0  0
  128.1850  127.7320   67.9960 C   0  0  0  0  0  0  0  0  0  0  0  0
  129.5270  127.6530   67.5750 C   0  0  0  0  0  0  0  0  0  0  0  0
  130.5570  127.4050   68.4940 C   0  0  0  0  0  0  0  0  0  0  0  0
  130.2000  127.2290   69.8260 C   0  0  0  0  0  0  0  0  0  0  0  0
  128.9000  127.3020   70.2400 C   0  0  0  0  0  0  0  0  0  0  0  0
  127.8600  127.5580   69.3530 C   0  0  0  0  0  0  0  0  0  0  0  0
  128.8460  127.1260   71.5870 O   0  0  0  0  0  0  0  0  0  0  0  0
  130.1360  126.7280   71.9680 C   0  0  0  0  0  0  0  0  0  0  0  0
  131.0020  127.0060   70.9010 O   0  0  0  0  0  0  0  0  0  0  0  0
  126.7620  128.9580   63.5280 N   0  0  0  0  0  0  0  0  0  0  0  0
  128.0690  128.7420   63.1470 N   0  0  0  0  0  0  0  0  0  0  0  0
  128.5010  127.6190   62.5500 C   0  0  0  0  0  0  0  0  0  0  0  0
  127.7300  126.5790   62.2320 N   0  0  0  0  0  0  0  0  0  0  0  0
  129.7900  127.5360   62.2530 N   0  0  0  0  0  0  0  0  0  0  0  0
  1  2  1  0
  2  3  1  0
  3  4  1  0
  4  5  1  0
  5  6  2  0
  6  7  1  0
  7  8  2  0
  8  9  1  0
  9 10  2  0
  9 11  1  0
 11 12  1  0
 12 13  1  0
  2 14  2  0
 14 15  1  0
 15 16  1  0
 16 17  1  0
 16 18  2  0
 10  5  1  0
 13  8  1  0
M  CHG  1  18   1
M  END
>  <Binding energies>  (80) 
[-7.2]

>  <Ligand effiencies>  (80) 
[-0.3130434782608696]

>  <Interactions>  (80) 
["V-B:ARG:545:CZ:9898, V-A:HIS:456:CE1:4068, V-A:HIS:456:CD2:4066, V-B:GLU:543:CD:9880, V-A:GLU:543:CD:4906, V-B:HIS:456:CE1:9042, V-B:GLY:544:C:9884, V-A:GLY:544:C:4910, V-A:GLU:543:CB:4904, V-B:GLU:543:CG:9879, V-A:GLU:543:CG:4905, V-B:GLU:543:C:9874, V-A:ARG:545:CG:4920, H-B:GLU:543:OE1:9881, V-A:GLU:543:C:4900, H-B:ARG:545:NH2:9900, H-A:GLU:543:OE2:4908, H-A:GLU:543:OE1:4907, H-B:GLU:543:OE2:9882, V-B:ARG:545:CG:9894, V-B:ARG:545:CD:9895, H-A:HIS:456:ND1:4065, H-A:ARG:545:N:4918"]

$$$$
RR30_Rahimova_2017
     RDKit          3D

 18 19  0  0  0  0  0  0  0  0999 V2000
  125.4980  116.5020   72.4830 C   0  0  0  0  0  0  0  0  0  0  0  0
  126.8750  117.1210   72.7610 C   0  0  0  0  0  0  0  0  0  0  0  0
  127.2440  118.1790   71.7440 C   0  0  0  0  0  0  0  0  0  0  0  0
  127.0770  118.1470   70.4450 N   0  0  0  0  0  0  0  0  0  0  0  0
  127.5870  119.3510   69.9640 N   0  0  0  0  0  0  0  0  0  0  0  0
  128.0260  120.0010   71.0110 C   0  0  0  0  0  0  0  0  0  0  0  0
  128.7720  121.5990   71.0500 S   0  0  0  0  0  0  0  0  0  0  0  0
  129.0070  121.7910   72.8460 C   0  0  0  0  0  0  0  0  0  0  0  0
  129.9240  122.9690   73.1870 C   0  0  0  0  0  0  0  0  0  0  0  0
  129.5770  124.1110   72.8770 O   0  0  0  0  0  0  0  0  0  0  0  0
  131.0920  122.6540   73.7890 N   0  0  0  0  0  0  0  0  0  0  0  0
  132.0790  123.5430   74.1880 C   0  0  0  0  0  0  0  0  0  0  0  0
  133.1460  123.3010   74.9160 N   0  0  0  0  0  0  0  0  0  0  0  0
  133.9160  124.4390   75.1190 N   0  0  0  0  0  0  0  0  0  0  0  0
  133.4220  125.5120   74.5450 C   0  0  0  0  0  0  0  0  0  0  0  0
  134.0770  126.8710   74.6260 C   0  0  0  0  0  0  0  0  0  0  0  0
  131.9370  125.1990   73.6870 S   0  0  0  0  0  0  0  0  0  0  0  0
  127.8380  119.3210   72.1720 O   0  0  0  0  0  0  0  0  0  0  0  0
  1  2  1  0
  2  3  1  0
  3  4  2  0
  4  5  1  0
  5  6  2  0
  6  7  1  0
  7  8  1  0
  8  9  1  0
  9 10  2  0
  9 11  1  0
 11 12  1  0
 12 13  2  0
 13 14  1  0
 14 15  2  0
 15 16  1  0
 15 17  1  0
  6 18  1  0
 18  3  1  0
 17 12  1  0
M  END
>  <Binding energies>  (81) 
[-6.67]

>  <Ligand effiencies>  (81) 
[-0.35105263157894734]

>  <Interactions>  (81) 
["V-A:HIS:456:CD2:4066, H-B:LYS:547:NZ:9923, V-A:HIS:456:CG:4064, V-A:HIS:456:CB:4063, V-B:LYS:547:CE:9922, V-B:GLY:544:CA:9886, V-A:LYS:547:CD:4947, V-A:HIS:456:C:4059, V-A:TYR:484:CG:4340, V-A:LYS:547:CG:4946, V-A:TYR:484:CB:4339, V-A:TYR:484:CA:4337, V-A:ASP:473:CG:4238, V-A:TYR:484:CD1:4341, V-A:VAL:457:C:4071, V-A:VAL:458:CG2:4085, H-A:ASP:473:OD2:4240, H-B:GLY:544:N:9887, H-A:TYR:484:N:4338, V-A:TYR:484:C:4335, V-A:LYS:547:CB:4945, H-B:GLU:543:N:9877"]

$$$$
RR31_Rahimova_2017
     RDKit          3D

 18 19  0  0  0  0  0  0  0  0999 V2000
  125.4320  123.0560   56.3030 C   0  0  0  0  0  0  0  0  0  0  0  0
  126.5350  123.3700   57.3050 C   0  0  0  0  0  0  0  0  0  0  0  0
  127.8610  123.1050   56.9620 C   0  0  0  0  0  0  0  0  0  0  0  0
  128.8940  123.3850   57.8550 C   0  0  0  0  0  0  0  0  0  0  0  0
  128.6320  123.9460   59.1150 C   0  0  0  0  0  0  0  0  0  0  0  0
  129.6550  124.2220   60.0250 N   0  0  0  0  0  0  0  0  0  0  0  0
  130.0680  125.6030   60.3410 C   0  0  0  0  0  0  0  0  0  0  0  0
  131.4500  125.7060   61.0280 C   0  0  0  0  0  0  0  0  0  0  0  0
  131.4930  124.8910   62.2450 N   0  0  0  0  0  0  0  0  0  0  0  0
  132.7800  124.9970   62.9380 C   0  0  0  0  0  0  0  0  0  0  0  0
  132.6390  125.4460   64.4060 C   0  0  0  0  0  0  0  0  0  0  0  0
  131.1990  125.3020   64.9240 C   0  0  0  0  0  0  0  0  0  0  0  0
  130.2520  126.1700   64.0870 N   0  0  0  0  0  0  0  0  0  0  0  0
  131.2580  123.5030   61.8500 C   0  0  0  0  0  0  0  0  0  0  0  0
  129.8670  123.3460   61.1950 C   0  0  0  0  0  0  0  0  0  0  0  0
  127.2930  124.1990   59.4500 C   0  0  0  0  0  0  0  0  0  0  0  0
  126.2470  123.9220   58.5630 C   0  0  0  0  0  0  0  0  0  0  0  0
  124.8140  124.2170   58.9890 C   0  0  0  0  0  0  0  0  0  0  0  0
  1  2  1  0
  2  3  2  0
  3  4  1  0
  4  5  2  0
  5  6  1  0
  6  7  1  0
  7  8  1  0
  8  9  1  0
  9 10  1  0
 10 11  1  0
 11 12  1  0
 12 13  1  0
  9 14  1  0
 14 15  1  0
  5 16  1  0
 16 17  2  0
 17 18  1  0
 17  2  1  0
 15  6  1  0
M  CHG  1  13   1
M  END
>  <Binding energies>  (82) 
[-6.49]

>  <Ligand effiencies>  (82) 
[-0.30904761904761907]

>  <Interactions>  (82) 
["V-B:GLU:543:CD:9880, V-A:GLU:543:CD:4906, V-A:ARG:545:CZ:4924, V-A:ARG:545:CD:4921, H-B:GLU:543:OE1:9881, V-B:TYR:539:CZ:9849, V-B:TYR:539:CG:9844, V-B:PRO:540:CA:9855, V-B:TYR:539:C:9839, V-A:ASP:366:CG:3211, V-B:PRO:540:CD:9859, V-B:TYR:539:CD2:9846, V-B:TYR:539:CE2:9848, V-B:PRO:540:N:9856, V-B:PRO:540:CB:9857, V-B:ASP:366:CG:8185, H-A:GLU:543:OE2:4908, H-B:GLU:543:OE2:9882, V-B:ILE:538:CB:9834"]

$$$$
RR32_Rahimova_2017
     RDKit          3D

 18 20  0  0  0  0  0  0  0  0999 V2000
  126.0310  124.4550   61.4310 C   0  0  0  0  0  0  0  0  0  0  0  0
  126.7950  123.8710   60.2460 C   0  0  0  0  0  0  0  0  0  0  0  0
  128.0870  123.3920   60.4660 C   0  0  0  0  0  0  0  0  0  0  0  0
  128.8130  122.8500   59.4100 C   0  0  0  0  0  0  0  0  0  0  0  0
  130.0940  122.3760   59.6320 N   0  0  0  0  0  0  0  0  0  0  0  0
  131.0820  123.3270   60.1740 C   0  0  0  0  0  0  0  0  0  0  0  0
  132.5200  122.7570   60.2150 C   0  0  0  0  0  0  0  0  0  0  0  0
  132.5570  121.5370   61.0200 N   0  0  0  0  0  0  0  0  0  0  0  0
  133.9180  121.0170   61.0850 C   0  0  0  0  0  0  0  0  0  0  0  0
  131.6700  120.5570   60.3950 C   0  0  0  0  0  0  0  0  0  0  0  0
  130.2200  121.0950   60.3530 C   0  0  0  0  0  0  0  0  0  0  0  0
  128.3170  122.7640   58.1480 N   0  0  0  0  0  0  0  0  0  0  0  0
  127.0610  123.2250   57.9020 C   0  0  0  0  0  0  0  0  0  0  0  0
  126.5700  123.1250   56.5770 C   0  0  0  0  0  0  0  0  0  0  0  0
  125.2940  123.5800   56.2670 C   0  0  0  0  0  0  0  0  0  0  0  0
  124.4850  124.1370   57.2510 C   0  0  0  0  0  0  0  0  0  0  0  0
  124.9370  124.2500   58.5620 C   0  0  0  0  0  0  0  0  0  0  0  0
  126.2390  123.7980   58.9260 C   0  0  0  0  0  0  0  0  0  0  0  0
  1  2  1  0
  2  3  2  0
  3  4  1  0
  4  5  1  0
  5  6  1  0
  6  7  1  0
  7  8  1  0
  8  9  1  0
  8 10  1  0
 10 11  1  0
  4 12  2  0
 12 13  1  0
 13 14  2  0
 14 15  1  0
 15 16  2  0
 16 17  1  0
 17 18  2  0
 18  2  1  0
 11  5  1  0
 18 13  1  0
M  END
>  <Binding energies>  (83) 
[-6.47]

>  <Ligand effiencies>  (83) 
[-0.35944444444444446]

>  <Interactions>  (83) 
["V-B:GLU:543:CD:9880, V-A:ILE:369:CD1:3237, V-A:LEU:475:CD2:4257, V-A:TRP:381:CH2:3370, V-B:PRO:540:CA:9855, V-B:TYR:539:C:9839, V-B:PRO:540:CD:9859, V-B:ALA:541:CB:9864, V-B:TYR:539:CD2:9846, V-B:TYR:539:CE2:9848, V-A:ILE:369:CG2:3235, V-B:PRO:540:N:9856, V-B:PRO:540:CB:9857, V-B:ILE:538:CB:9834, V-B:TYR:531:CZ:9766, V-B:TYR:531:CE2:9765"]

$$$$
RR5_Rahimova_2017
     RDKit          3D

 45 50  0  0  0  0  0  0  0  0999 V2000
  132.9090  123.3900   61.9310 O   0  0  0  0  0  0  0  0  0  0  0  0
  131.9970  124.1930   62.1200 C   0  0  0  0  0  0  0  0  0  0  0  0
  132.0650  125.1570   63.3190 C   0  0  0  0  0  0  0  0  0  0  0  0
  130.6690  125.4750   63.9640 C   0  0  2  0  0  0  0  0  0  0  0  0
  129.8630  126.4800   63.2430 N   0  0  0  0  0  0  0  0  0  0  0  0
  130.3310  127.0970   62.0900 C   0  0  0  0  0  0  0  0  0  0  0  0
  131.3980  126.8690   61.5150 O   0  0  0  0  0  0  0  0  0  0  0  0
  129.4240  128.0090   61.7000 O   0  0  0  0  0  0  0  0  0  0  0  0
  128.0790  127.9670   62.1670 C   0  0  0  0  0  0  0  0  0  0  0  0
  127.5860  129.3810   62.5460 C   0  0  0  0  0  0  0  0  0  0  0  0
  126.5860  129.9610   61.5620 C   0  0  0  0  0  0  0  0  0  0  0  0
  126.7220  130.1940   60.1900 C   0  0  0  0  0  0  0  0  0  0  0  0
  125.6510  130.7220   59.4650 C   0  0  0  0  0  0  0  0  0  0  0  0
  124.4480  131.0180   60.1080 C   0  0  0  0  0  0  0  0  0  0  0  0
  124.3110  130.7890   61.4780 C   0  0  0  0  0  0  0  0  0  0  0  0
  125.3830  130.2620   62.2010 C   0  0  0  0  0  0  0  0  0  0  0  0
  125.5190  129.9330   63.6280 C   0  0  0  0  0  0  0  0  0  0  0  0
  124.6200  130.0570   64.6900 C   0  0  0  0  0  0  0  0  0  0  0  0
  125.0160  129.6860   65.9760 C   0  0  0  0  0  0  0  0  0  0  0  0
  126.3030  129.1910   66.1980 C   0  0  0  0  0  0  0  0  0  0  0  0
  127.1960  129.0650   65.1340 C   0  0  0  0  0  0  0  0  0  0  0  0
  126.8040  129.4320   63.8450 C   0  0  0  0  0  0  0  0  0  0  0  0
  130.8310  125.9010   65.4440 C   0  0  0  0  0  0  0  0  0  0  0  0
  130.0200  125.6790   66.3210 O   0  0  0  0  0  0  0  0  0  0  0  0
  132.0260  126.5420   65.6100 O   0  0  0  0  0  0  0  0  0  0  0  0
  130.9140  124.3330   61.3220 N   0  0  0  0  0  0  0  0  0  0  0  0
  130.4530  123.6350   60.0850 C   0  0  0  0  0  0  0  0  0  0  0  0
  128.9270  123.9870   60.0600 C   0  0  0  0  0  0  0  0  0  0  0  0
  128.1030  123.6010   58.9900 C   0  0  0  0  0  0  0  0  0  0  0  0
  126.7470  123.9180   58.9800 C   0  0  0  0  0  0  0  0  0  0  0  0
  126.1950  124.6370   60.0350 C   0  0  0  0  0  0  0  0  0  0  0  0
  126.9870  125.0300   61.1070 C   0  0  0  0  0  0  0  0  0  0  0  0
  128.3390  124.7040   61.1220 C   0  0  0  0  0  0  0  0  0  0  0  0
  131.2330  124.2580   58.8790 C   0  0  0  0  0  0  0  0  0  0  0  0
  132.6250  124.1200   58.7500 C   0  0  0  0  0  0  0  0  0  0  0  0
  133.3010  124.6990   57.6790 C   0  0  0  0  0  0  0  0  0  0  0  0
  132.5960  125.4250   56.7250 C   0  0  0  0  0  0  0  0  0  0  0  0
  131.2170  125.5720   56.8280 C   0  0  0  0  0  0  0  0  0  0  0  0
  130.5410  124.9850   57.8940 C   0  0  0  0  0  0  0  0  0  0  0  0
  130.7220  122.1110   60.3190 C   0  0  0  0  0  0  0  0  0  0  0  0
  131.9980  121.5590   60.1040 C   0  0  0  0  0  0  0  0  0  0  0  0
  132.2410  120.2030   60.3030 C   0  0  0  0  0  0  0  0  0  0  0  0
  131.2110  119.3720   60.7290 C   0  0  0  0  0  0  0  0  0  0  0  0
  129.9430  119.8900   60.9630 C   0  0  0  0  0  0  0  0  0  0  0  0
  129.7040  121.2470   60.7630 C   0  0  0  0  0  0  0  0  0  0  0  0
  1  2  2  0
  2  3  1  0
  4  3  1  6
  4  5  1  0
  5  6  1  0
  6  7  2  0
  6  8  1  0
  8  9  1  0
  9 10  1  0
 10 11  1  0
 11 12  2  0
 12 13  1  0
 13 14  2  0
 14 15  1  0
 15 16  2  0
 16 17  1  0
 17 18  2  0
 18 19  1  0
 19 20  2  0
 20 21  1  0
 21 22  2  0
  4 23  1  0
 23 24  2  0
 23 25  1  0
  2 26  1  0
 26 27  1  0
 27 28  1  0
 28 29  2  0
 29 30  1  0
 30 31  2  0
 31 32  1  0
 32 33  2  0
 27 34  1  0
 34 35  2  0
 35 36  1  0
 36 37  2  0
 37 38  1  0
 38 39  2  0
 27 40  1  0
 40 41  2  0
 41 42  1  0
 42 43  2  0
 43 44  1  0
 44 45  2  0
 22 10  1  0
 33 28  1  0
 39 34  1  0
 45 40  1  0
 16 11  1  0
 22 17  1  0
M  END
>  <Binding energies>  (84) 
[-9.41]

>  <Ligand effiencies>  (84) 
[-0.19604166666666667]

>  <Interactions>  (84) 
["V-B:ARG:545:CZ:9898, V-A:HIS:456:CE1:4068, V-B:GLU:543:CD:9880, V-A:GLU:543:CD:4906, V-B:HIS:456:CE1:9042, V-A:ARG:545:CZ:4924, H-B:GLU:543:OE1:9881, H-A:ARG:545:NE:4922, V-B:TYR:539:CZ:9849, V-A:TRP:381:CZ2:3368, V-A:LEU:475:CD2:4257, V-A:TRP:381:CH2:3370, V-B:PRO:540:CA:9855, V-A:ASP:366:CG:3211, V-B:ALA:541:CB:9864, V-B:TYR:539:CD2:9846, V-B:TYR:539:CE2:9848, V-A:ASP:366:CA:3208, V-A:ASP:366:CB:3210, V-A:ASP:366:C:3206, V-B:ASP:366:CG:8185, V-A:TYR:539:CE2:4874, H-A:ARG:545:NH2:4926, V-A:TRP:381:CZ3:3369, V-A:PRO:482:CG:4325, V-B:TYR:484:CZ:9319, V-A:PRO:482:CB:4324, H-A:GLU:543:OE2:4908, H-B:GLU:543:OE2:9882, V-A:TYR:531:CE1:4790, V-B:ARG:545:CG:9894, V-B:ARG:545:CD:9895"]

$$$$
