1a_Grossjean_2025
     RDKit          3D

 26 27  0  0  0  0  0  0  0  0999 V2000
  124.7810  127.6350   73.7810 C   0  0  0  0  0  0  0  0  0  0  0  0
  126.2390  128.1010   73.7980 C   0  0  0  0  0  0  0  0  0  0  0  0
  126.9240  127.5590   72.6770 O   0  0  0  0  0  0  0  0  0  0  0  0
  128.2810  127.5610   72.6150 C   0  0  0  0  0  0  0  0  0  0  0  0
  129.0050  127.7200   73.6030 O   0  0  0  0  0  0  0  0  0  0  0  0
  128.8120  127.3680   71.2240 C   0  0  0  0  0  0  0  0  0  0  0  0
  128.1090  126.5500   70.3310 C   0  0  0  0  0  0  0  0  0  0  0  0
  128.5780  126.3480   69.0370 C   0  0  0  0  0  0  0  0  0  0  0  0
  129.7590  126.9560   68.6080 C   0  0  0  0  0  0  0  0  0  0  0  0
  130.1410  126.6800   67.2810 N   0  0  0  0  0  0  0  0  0  0  0  0
  130.0880  125.5240   66.5850 C   0  0  0  0  0  0  0  0  0  0  0  0
  129.6700  124.4490   67.0140 O   0  0  0  0  0  0  0  0  0  0  0  0
  130.6000  125.6030   65.1450 C   0  0  0  0  0  0  0  0  0  0  0  0
  132.3330  125.0740   65.0040 S   0  0  0  0  0  0  0  0  0  0  0  0
  132.4430  123.9660   63.6170 C   0  0  0  0  0  0  0  0  0  0  0  0
  133.5540  124.1450   62.8590 N   0  0  0  0  0  0  0  0  0  0  0  0
  133.7350  123.3570   61.7740 C   0  0  0  0  0  0  0  0  0  0  0  0
  134.9920  123.6250   60.9670 C   0  0  0  0  0  0  0  0  0  0  0  0
  132.8330  122.3600   61.4080 C   0  0  0  0  0  0  0  0  0  0  0  0
  131.6950  122.1530   62.1960 C   0  0  0  0  0  0  0  0  0  0  0  0
  130.7270  121.0440   61.7850 C   0  0  0  0  0  0  0  0  0  0  0  0
  131.4860  122.9620   63.3360 C   0  0  0  0  0  0  0  0  0  0  0  0
  130.3270  122.7300   64.2030 C   0  0  0  0  0  0  0  0  0  0  0  0
  129.4110  122.5450   64.8850 N   0  0  0  0  0  0  0  0  0  0  0  0
  130.4650  127.7840   69.4930 C   0  0  0  0  0  0  0  0  0  0  0  0
  129.9950  127.9850   70.7880 C   0  0  0  0  0  0  0  0  0  0  0  0
  1  2  1  0
  2  3  1  0
  3  4  1  0
  4  5  2  0
  4  6  1  0
  6  7  2  0
  7  8  1  0
  8  9  2  0
  9 10  1  0
 10 11  1  0
 11 12  2  0
 11 13  1  0
 13 14  1  0
 14 15  1  0
 15 16  2  0
 16 17  1  0
 17 18  1  0
 17 19  2  0
 19 20  1  0
 20 21  1  0
 20 22  2  0
 22 23  1  0
 23 24  3  0
  9 25  1  0
 25 26  2  0
 26  6  1  0
 22 15  1  0
M  END
>  <Binding energies>  (1) 
[-7.97]

>  <Ligand effiencies>  (1) 
[-0.29518518518518516]

>  <Interactions>  (1) 
["V-A:LEU:475:CD1:4254, H-A:GLU:543:OE1:4906, V-A:ILE:369:CB:3232, H-A:GLY:454:N:4046, V-A:ILE:369:CG1:3234, V-A:GLY:454:CA:4045, V-B:TYR:539:CE2:9845, V-A:HIS:456:CE1:4066, V-B:GLU:543:CB:9875, V-B:HIS:456:CE1:9038, V-A:TYR:484:CE1:4341, V-B:HIS:456:CD2:9036, V-B:TYR:539:CD2:9843, V-B:ALA:541:CB:9861, V-A:ASP:366:CG:3209, H-A:TYR:484:OH:4344, V-B:LYS:547:CE:9919, V-B:HIS:456:CG:9034, V-A:GLU:543:C:4899, V-B:HIS:456:CB:9033, V-B:HIS:456:CA:9031, V-B:LYS:547:CD:9918, H-A:LYS:547:NZ:4948, V-A:GLY:453:C:4038, V-A:GLY:453:CA:4040, V-A:ASP:366:CA:3206"]

$$$$
1aa_Ghoteimi_2023
     RDKit          3D

 40 43  0  0  0  0  0  0  0  0999 V2000
  127.1460  136.3720   60.9860 C   0  0  0  0  0  0  0  0  0  0  0  0
  126.5600  135.2110   60.1780 C   0  0  0  0  0  0  0  0  0  0  0  0
  125.1710  135.4350   59.9660 O   0  0  0  0  0  0  0  0  0  0  0  0
  124.2450  134.9720   60.8440 C   0  0  0  0  0  0  0  0  0  0  0  0
  123.1350  135.4900   60.9980 O   0  0  0  0  0  0  0  0  0  0  0  0
  124.7040  133.7660   61.6110 C   0  0  0  0  0  0  0  0  0  0  0  0
  125.2890  132.6600   60.9750 C   0  0  0  0  0  0  0  0  0  0  0  0
  125.7070  131.5540   61.7130 C   0  0  0  0  0  0  0  0  0  0  0  0
  125.5470  131.5370   63.1070 C   0  0  0  0  0  0  0  0  0  0  0  0
  125.9290  130.4790   63.9520 N   0  0  0  0  0  0  0  0  0  0  0  0
  125.2650  129.8900   64.9730 C   0  0  0  0  0  0  0  0  0  0  0  0
  124.1360  130.2020   65.3520 O   0  0  0  0  0  0  0  0  0  0  0  0
  125.9790  128.7450   65.7090 C   0  0  0  0  0  0  0  0  0  0  0  0
  127.3550  128.6760   65.3150 O   0  0  0  0  0  0  0  0  0  0  0  0
  128.2210  127.7910   65.9420 C   0  0  0  0  0  0  0  0  0  0  0  0
  128.2830  127.8100   67.3020 N   0  0  0  0  0  0  0  0  0  0  0  0
  129.1290  126.9680   67.9510 C   0  0  0  0  0  0  0  0  0  0  0  0
  129.1370  127.0490   69.4510 C   0  0  0  0  0  0  0  0  0  0  0  0
  130.1410  127.7540   70.1310 C   0  0  0  0  0  0  0  0  0  0  0  0
  130.1510  127.8300   71.5210 C   0  0  0  0  0  0  0  0  0  0  0  0
  129.1600  127.2050   72.2740 C   0  0  0  0  0  0  0  0  0  0  0  0
  129.2510  127.3330   73.6460 O   0  0  0  0  0  0  0  0  0  0  0  0
  128.1540  127.8830   74.3670 C   0  0  0  0  0  0  0  0  0  0  0  0
  128.1470  126.5010   71.6090 C   0  0  0  0  0  0  0  0  0  0  0  0
  128.1380  126.4280   70.2190 C   0  0  0  0  0  0  0  0  0  0  0  0
  129.9260  126.0650   67.2370 C   0  0  0  0  0  0  0  0  0  0  0  0
  129.8720  126.0170   65.8370 C   0  0  0  0  0  0  0  0  0  0  0  0
  130.7390  125.0250   65.1340 C   0  0  0  0  0  0  0  0  0  0  0  0
  130.2000  123.8130   64.6880 C   0  0  0  0  0  0  0  0  0  0  0  0
  130.9990  122.8870   64.0230 C   0  0  0  0  0  0  0  0  0  0  0  0
  132.3470  123.1530   63.7840 C   0  0  0  0  0  0  0  0  0  0  0  0
  133.0620  122.1770   63.1180 O   0  0  0  0  0  0  0  0  0  0  0  0
  133.4280  122.3900   61.7600 C   0  0  0  0  0  0  0  0  0  0  0  0
  132.8890  124.3710   64.2230 C   0  0  0  0  0  0  0  0  0  0  0  0
  132.0890  125.2960   64.8890 C   0  0  0  0  0  0  0  0  0  0  0  0
  129.0020  126.9120   65.1720 C   0  0  0  0  0  0  0  0  0  0  0  0
  128.9110  126.9660   63.7120 C   0  0  0  0  0  0  0  0  0  0  0  0
  128.8380  127.0090   62.5580 N   0  0  0  0  0  0  0  0  0  0  0  0
  124.9640  132.6350   63.7420 C   0  0  0  0  0  0  0  0  0  0  0  0
  124.5470  133.7380   63.0030 C   0  0  0  0  0  0  0  0  0  0  0  0
  1  2  1  0
  2  3  1  0
  3  4  1  0
  4  5  2  0
  4  6  1  0
  6  7  2  0
  7  8  1  0
  8  9  2  0
  9 10  1  0
 10 11  1  0
 11 12  2  0
 11 13  1  0
 13 14  1  0
 14 15  1  0
 15 16  2  0
 16 17  1  0
 17 18  1  0
 18 19  2  0
 19 20  1  0
 20 21  2  0
 21 22  1  0
 22 23  1  0
 21 24  1  0
 24 25  2  0
 17 26  2  0
 26 27  1  0
 27 28  1  0
 28 29  2  0
 29 30  1  0
 30 31  2  0
 31 32  1  0
 32 33  1  0
 31 34  1  0
 34 35  2  0
 27 36  2  0
 36 37  1  0
 37 38  3  0
  9 39  1  0
 39 40  2  0
 40  6  1  0
 36 15  1  0
 25 18  1  0
 35 28  1  0
M  END
>  <Binding energies>  (2) 
[-9.27]

>  <Ligand effiencies>  (2) 
[-0.22609756097560973]

>  <Interactions>  (2) 
["V-A:LEU:475:CD1:4254, V-B:GLU:543:CD:9877, H-A:GLY:454:N:4046, V-A:GLY:454:CA:4045, V-A:HIS:456:CE1:4066, V-A:GLU:543:CD:4905, V-B:HIS:456:CE1:9038, V-A:TYR:484:CE1:4341, V-B:GLY:544:C:9881, V-B:HIS:456:CD2:9036, V-B:GLU:543:CG:9876, V-B:ILE:369:CG2:8205, V-B:TRP:381:CH2:8340, V-A:TYR:539:CE2:4873, V-B:GLY:454:CA:9017, H-B:TYR:484:OH:9316, V-A:TYR:539:CD2:4871, V-B:LEU:475:CD2:9227, V-B:LYS:547:CE:9919, V-A:LYS:547:CE:4947, H-A:LYS:547:NZ:4948, H-B:GLY:454:N:9018, V-B:TRP:381:CZ2:8338, V-B:PRO:482:CG:9295, V-B:PRO:482:CB:9294, V-B:TRP:381:CZ3:8339"]

$$$$
1b_Grossjean_2025
     RDKit          3D

 25 26  0  0  0  0  0  0  0  0999 V2000
  128.6140  129.4030   73.6160 C   0  0  0  0  0  0  0  0  0  0  0  0
  128.9900  128.1300   73.1080 O   0  0  0  0  0  0  0  0  0  0  0  0
  128.1410  127.4110   72.3300 C   0  0  0  0  0  0  0  0  0  0  0  0
  127.0350  127.0170   72.7140 O   0  0  0  0  0  0  0  0  0  0  0  0
  128.6760  127.1490   70.9510 C   0  0  0  0  0  0  0  0  0  0  0  0
  129.7590  127.8710   70.4260 C   0  0  0  0  0  0  0  0  0  0  0  0
  130.2300  127.6040   69.1440 C   0  0  0  0  0  0  0  0  0  0  0  0
  129.6340  126.6150   68.3620 C   0  0  0  0  0  0  0  0  0  0  0  0
  130.1920  126.4320   67.0820 N   0  0  0  0  0  0  0  0  0  0  0  0
  131.2590  127.0270   66.5040 C   0  0  0  0  0  0  0  0  0  0  0  0
  131.9740  127.8790   67.0300 O   0  0  0  0  0  0  0  0  0  0  0  0
  131.5750  126.5650   65.0810 C   0  0  0  0  0  0  0  0  0  0  0  0
  133.0370  125.4870   65.0180 S   0  0  0  0  0  0  0  0  0  0  0  0
  132.7100  124.2190   63.8130 C   0  0  0  0  0  0  0  0  0  0  0  0
  133.6870  124.0840   62.8820 N   0  0  0  0  0  0  0  0  0  0  0  0
  133.5410  123.1460   61.9170 C   0  0  0  0  0  0  0  0  0  0  0  0
  134.6810  123.0420   60.9200 C   0  0  0  0  0  0  0  0  0  0  0  0
  132.4220  122.3200   61.8350 C   0  0  0  0  0  0  0  0  0  0  0  0
  131.3990  122.4670   62.7760 C   0  0  0  0  0  0  0  0  0  0  0  0
  130.1750  121.5610   62.6560 C   0  0  0  0  0  0  0  0  0  0  0  0
  131.5290  123.4400   63.7930 C   0  0  0  0  0  0  0  0  0  0  0  0
  130.4510  123.6410   64.7640 C   0  0  0  0  0  0  0  0  0  0  0  0
  129.5980  123.7970   65.5300 N   0  0  0  0  0  0  0  0  0  0  0  0
  128.5510  125.8890   68.8800 C   0  0  0  0  0  0  0  0  0  0  0  0
  128.0810  126.1560   70.1620 C   0  0  0  0  0  0  0  0  0  0  0  0
  1  2  1  0
  2  3  1  0
  3  4  2  0
  3  5  1  0
  5  6  2  0
  6  7  1  0
  7  8  2  0
  8  9  1  0
  9 10  1  0
 10 11  2  0
 10 12  1  0
 12 13  1  0
 13 14  1  0
 14 15  2  0
 15 16  1  0
 16 17  1  0
 16 18  2  0
 18 19  1  0
 19 20  1  0
 19 21  2  0
 21 22  1  0
 22 23  3  0
  8 24  1  0
 24 25  2  0
 25  5  1  0
 21 14  1  0
M  END
>  <Binding energies>  (3) 
[-7.3]

>  <Ligand effiencies>  (3) 
[-0.28076923076923077]

>  <Interactions>  (3) 
["V-A:LEU:475:CD1:4254, V-A:ARG:545:CZ:4923, V-A:ILE:369:CB:3232, H-A:ARG:545:NH2:4925, H-A:GLY:454:N:4046, V-A:ARG:545:CG:4919, V-A:ILE:369:CG1:3234, V-A:ILE:369:CG2:3233, V-A:GLY:454:CA:4045, V-B:TYR:539:CE2:9845, V-A:HIS:456:CE1:4066, V-A:GLU:543:CD:4905, V-A:TYR:484:CZ:4343, V-B:GLU:543:C:9871, V-B:GLU:543:CB:9875, V-A:TYR:484:CE1:4341, V-B:GLY:544:C:9881, V-B:HIS:456:CD2:9036, V-A:GLU:543:CB:4903, V-B:GLU:543:CG:9876, V-B:ALA:541:CB:9861, H-A:ARG:545:NE:4921, H-A:TYR:484:OH:4344, V-B:LYS:547:CE:9919, V-A:LYS:547:CE:4947, H-A:LYS:547:NZ:4948"]

$$$$
1c_Grossjean_2025
     RDKit          3D

 23 24  0  0  0  0  0  0  0  0999 V2000
  128.1040  128.0990   73.4530 C   0  0  0  0  0  0  0  0  0  0  0  0
  129.3610  127.9010   72.8160 O   0  0  0  0  0  0  0  0  0  0  0  0
  129.3910  127.4920   71.4970 C   0  0  0  0  0  0  0  0  0  0  0  0
  130.3440  128.0980   70.6790 C   0  0  0  0  0  0  0  0  0  0  0  0
  130.4530  127.7520   69.3350 C   0  0  0  0  0  0  0  0  0  0  0  0
  129.6010  126.7800   68.7910 C   0  0  0  0  0  0  0  0  0  0  0  0
  129.6180  126.3630   67.4450 N   0  0  0  0  0  0  0  0  0  0  0  0
  130.5590  126.5620   66.4980 C   0  0  0  0  0  0  0  0  0  0  0  0
  131.6250  127.1560   66.6630 O   0  0  0  0  0  0  0  0  0  0  0  0
  130.2380  125.9770   65.1210 C   0  0  0  0  0  0  0  0  0  0  0  0
  130.1240  124.1630   65.1660 S   0  0  0  0  0  0  0  0  0  0  0  0
  130.8410  123.5180   63.6690 C   0  0  0  0  0  0  0  0  0  0  0  0
  129.9820  122.7600   62.9420 N   0  0  0  0  0  0  0  0  0  0  0  0
  130.4150  122.2140   61.7820 C   0  0  0  0  0  0  0  0  0  0  0  0
  129.3950  121.3890   61.0200 C   0  0  0  0  0  0  0  0  0  0  0  0
  131.7130  122.3900   61.3070 C   0  0  0  0  0  0  0  0  0  0  0  0
  132.6150  123.1480   62.0600 C   0  0  0  0  0  0  0  0  0  0  0  0
  134.0370  123.3120   61.5280 C   0  0  0  0  0  0  0  0  0  0  0  0
  132.1850  123.7270   63.2770 C   0  0  0  0  0  0  0  0  0  0  0  0
  133.1300  124.4790   64.1060 C   0  0  0  0  0  0  0  0  0  0  0  0
  133.8770  125.0730   64.7600 N   0  0  0  0  0  0  0  0  0  0  0  0
  128.6380  126.1790   69.6030 C   0  0  0  0  0  0  0  0  0  0  0  0
  128.5320  126.5280   70.9460 C   0  0  0  0  0  0  0  0  0  0  0  0
  1  2  1  0
  2  3  1  0
  3  4  2  0
  4  5  1  0
  5  6  2  0
  6  7  1  0
  7  8  1  0
  8  9  2  0
  8 10  1  0
 10 11  1  0
 11 12  1  0
 12 13  2  0
 13 14  1  0
 14 15  1  0
 14 16  2  0
 16 17  1  0
 17 18  1  0
 17 19  2  0
 19 20  1  0
 20 21  3  0
  6 22  1  0
 22 23  2  0
 23  3  1  0
 19 12  1  0
M  END
>  <Binding energies>  (4) 
[-7.05]

>  <Ligand effiencies>  (4) 
[-0.29375]

>  <Interactions>  (4) 
["V-A:ARG:545:CZ:4923, H-A:ARG:545:NH1:4924, H-A:GLY:454:N:4046, V-A:GLY:454:CA:4045, V-B:TYR:539:CE2:9845, V-A:HIS:456:CE1:4066, V-B:GLU:543:C:9871, V-B:HIS:456:CD2:9036, V-B:TYR:539:CD2:9843, V-B:ALA:541:CB:9861, H-A:ARG:545:NE:4921, H-A:TYR:484:OH:4344, H-B:GLU:543:OE1:9878, V-A:GLU:543:C:4899, H-A:LYS:547:NZ:4948, V-A:GLY:544:C:4909"]

$$$$
1d_Grossjean_2025
     RDKit          3D

 21 22  0  0  0  0  0  0  0  0999 V2000
  128.9980  125.7980   65.4870 C   0  0  0  0  0  0  0  0  0  0  0  0
  129.3170  126.4160   66.8340 C   0  0  0  0  0  0  0  0  0  0  0  0
  130.4870  127.1420   67.0450 C   0  0  0  0  0  0  0  0  0  0  0  0
  130.7240  127.6990   68.3060 C   0  0  0  0  0  0  0  0  0  0  0  0
  132.0070  128.5030   68.5090 C   0  0  0  0  0  0  0  0  0  0  0  0
  129.7760  127.5050   69.3370 C   0  0  0  0  0  0  0  0  0  0  0  0
  129.9800  128.1180   70.6510 C   0  0  0  0  0  0  0  0  0  0  0  0
  130.1440  128.6050   71.6880 N   0  0  0  0  0  0  0  0  0  0  0  0
  128.6280  126.7330   69.0400 C   0  0  0  0  0  0  0  0  0  0  0  0
  127.3360  126.3890   70.2140 S   0  0  0  0  0  0  0  0  0  0  0  0
  128.1360  125.9300   71.7810 C   0  0  0  0  0  0  0  0  0  0  0  0
  127.9220  126.9850   72.8680 C   0  0  0  0  0  0  0  0  0  0  0  0
  128.8870  127.3730   73.5270 O   0  0  0  0  0  0  0  0  0  0  0  0
  126.6540  127.4320   72.9980 N   0  0  0  0  0  0  0  0  0  0  0  0
  126.1180  128.3730   73.8960 C   0  0  0  0  0  0  0  0  0  0  0  0
  124.8150  128.1180   74.3340 C   0  0  0  0  0  0  0  0  0  0  0  0
  124.1910  128.9830   75.2280 C   0  0  0  0  0  0  0  0  0  0  0  0
  124.8740  130.1040   75.6930 C   0  0  0  0  0  0  0  0  0  0  0  0
  126.1760  130.3650   75.2730 C   0  0  0  0  0  0  0  0  0  0  0  0
  126.8020  129.5020   74.3770 C   0  0  0  0  0  0  0  0  0  0  0  0
  128.3970  126.2150   67.8060 N   0  0  0  0  0  0  0  0  0  0  0  0
  1  2  1  0
  2  3  2  0
  3  4  1  0
  4  5  1  0
  4  6  2  0
  6  7  1  0
  7  8  3  0
  6  9  1  0
  9 10  1  0
 10 11  1  0
 11 12  1  0
 12 13  2  0
 12 14  1  0
 14 15  1  0
 15 16  2  0
 16 17  1  0
 17 18  2  0
 18 19  1  0
 19 20  2  0
  9 21  2  0
 21  2  1  0
 20 15  1  0
M  END
>  <Binding energies>  (5) 
[-7.27]

>  <Ligand effiencies>  (5) 
[-0.33045454545454545]

>  <Interactions>  (5) 
["V-B:GLU:543:CD:9877, V-A:ARG:545:CG:4919, V-A:HIS:456:CE1:4066, V-B:GLU:543:CB:9875, V-B:HIS:456:CE1:9038, V-B:GLY:544:C:9881, V-B:HIS:456:CD2:9036, V-A:GLU:543:CB:4903, V-B:GLU:543:CG:9876, V-B:LYS:547:CE:9919, V-B:VAL:457:C:9041, V-B:HIS:456:CG:9034, V-B:HIS:456:C:9029, V-A:GLU:543:C:4899, V-B:VAL:457:CA:9043, V-B:HIS:456:CB:9033, V-B:HIS:456:CA:9031, V-B:LYS:547:CD:9918, V-B:VAL:458:CG2:9055, H-A:LYS:547:NZ:4948, V-B:LYS:471:CE:9188, V-A:GLU:543:CA:4901, V-A:GLY:544:C:4909, V-A:ARG:545:CA:4916, H-B:GLY:544:O:9882, V-A:ARG:545:CB:4918"]

$$$$
1e_Grossjean_2025
     RDKit          3D

 22 23  0  0  0  0  0  0  0  0999 V2000
  123.7430  124.1990   60.3290 C   0  0  0  0  0  0  0  0  0  0  0  0
  124.9870  123.7520   59.5850 C   0  0  0  0  0  0  0  0  0  0  0  0
  125.2170  124.1230   58.2570 C   0  0  0  0  0  0  0  0  0  0  0  0
  126.3820  123.6720   57.6360 C   0  0  0  0  0  0  0  0  0  0  0  0
  127.2780  122.8710   58.3460 C   0  0  0  0  0  0  0  0  0  0  0  0
  126.9890  122.5410   59.6750 C   0  0  0  0  0  0  0  0  0  0  0  0
  127.9220  121.7210   60.3350 N   0  0  0  0  0  0  0  0  0  0  0  0
  129.1970  122.0070   60.6770 C   0  0  0  0  0  0  0  0  0  0  0  0
  129.7700  123.0730   60.4450 O   0  0  0  0  0  0  0  0  0  0  0  0
  129.9650  120.8850   61.3800 C   0  0  0  0  0  0  0  0  0  0  0  0
  130.5090  121.3720   63.0450 S   0  0  0  0  0  0  0  0  0  0  0  0
  131.7380  122.6530   62.8920 C   0  0  0  0  0  0  0  0  0  0  0  0
  131.4080  123.7970   63.5430 N   0  0  0  0  0  0  0  0  0  0  0  0
  132.2640  124.8450   63.4970 C   0  0  0  0  0  0  0  0  0  0  0  0
  131.8320  126.0850   64.2540 C   0  0  0  0  0  0  0  0  0  0  0  0
  133.4670  124.8010   62.7960 C   0  0  0  0  0  0  0  0  0  0  0  0
  133.8060  123.6360   62.1010 C   0  0  0  0  0  0  0  0  0  0  0  0
  135.1230  123.6200   61.3250 C   0  0  0  0  0  0  0  0  0  0  0  0
  132.9260  122.5300   62.1320 C   0  0  0  0  0  0  0  0  0  0  0  0
  133.2380  121.3240   61.3620 C   0  0  0  0  0  0  0  0  0  0  0  0
  133.4870  120.3720   60.7520 N   0  0  0  0  0  0  0  0  0  0  0  0
  125.8480  122.9750   60.2880 N   0  0  0  0  0  0  0  0  0  0  0  0
  1  2  1  0
  2  3  2  0
  3  4  1  0
  4  5  2  0
  5  6  1  0
  6  7  1  0
  7  8  1  0
  8  9  2  0
  8 10  1  0
 10 11  1  0
 11 12  1  0
 12 13  2  0
 13 14  1  0
 14 15  1  0
 14 16  2  0
 16 17  1  0
 17 18  1  0
 17 19  2  0
 19 20  1  0
 20 21  3  0
  6 22  2  0
 22  2  1  0
 19 12  1  0
M  END
>  <Binding energies>  (6) 
[-6.83]

>  <Ligand effiencies>  (6) 
[-0.29695652173913045]

>  <Interactions>  (6) 
["V-A:LEU:475:CD1:4254, V-A:ARG:545:CZ:4923, V-A:ILE:369:CG1:3234, V-A:ILE:369:CG2:3233, V-A:GLY:454:CA:4045, V-B:TYR:539:CE2:9845, H-B:ALA:541:N:9860, V-B:TYR:539:CD2:9843, V-B:ALA:541:CB:9861, V-A:ASP:366:CG:3209, V-B:TYR:539:C:9836, V-B:PRO:540:N:9853, V-A:GLY:453:C:4038, V-B:PRO:540:CB:9854, V-B:LEU:363:CA:8153, V-B:PRO:540:C:9850, V-B:PRO:540:CA:9852, V-A:GLY:453:CA:4040, V-B:ASN:362:C:8140, V-B:ASN:362:CB:8144, V-B:ALA:541:CA:9859, H-B:TYR:539:O:9837, H-B:PRO:540:O:9851"]

$$$$
1f_Grossjean_2025
     RDKit          3D

 21 22  0  0  0  0  0  0  0  0999 V2000
  129.1920  125.4980   65.5320 C   0  0  0  0  0  0  0  0  0  0  0  0
  129.4550  126.2080   66.8460 C   0  0  0  0  0  0  0  0  0  0  0  0
  130.5830  127.0030   67.0320 C   0  0  0  0  0  0  0  0  0  0  0  0
  130.7790  127.6230   68.2710 C   0  0  0  0  0  0  0  0  0  0  0  0
  132.0330  128.4750   68.4570 C   0  0  0  0  0  0  0  0  0  0  0  0
  129.8260  127.4360   69.2980 C   0  0  0  0  0  0  0  0  0  0  0  0
  130.0430  128.0320   70.6190 C   0  0  0  0  0  0  0  0  0  0  0  0
  130.2150  128.5030   71.6610 N   0  0  0  0  0  0  0  0  0  0  0  0
  128.6960  126.6350   69.0110 C   0  0  0  0  0  0  0  0  0  0  0  0
  127.3940  126.2860   70.1760 S   0  0  0  0  0  0  0  0  0  0  0  0
  128.1540  125.8750   71.7840 C   0  0  0  0  0  0  0  0  0  0  0  0
  127.9280  126.9160   72.8900 C   0  0  0  0  0  0  0  0  0  0  0  0
  128.8540  127.2560   73.6270 O   0  0  0  0  0  0  0  0  0  0  0  0
  126.6610  127.3740   72.9800 N   0  0  0  0  0  0  0  0  0  0  0  0
  126.1090  128.3240   73.8600 C   0  0  0  0  0  0  0  0  0  0  0  0
  126.7430  129.5020   74.2980 C   0  0  0  0  0  0  0  0  0  0  0  0
  126.0740  130.3620   75.1730 C   0  0  0  0  0  0  0  0  0  0  0  0
  124.7860  130.0250   75.5880 C   0  0  0  0  0  0  0  0  0  0  0  0
  124.1510  128.8990   75.1770 N   0  0  0  0  0  0  0  0  0  0  0  0
  124.8130  128.0730   74.3270 C   0  0  0  0  0  0  0  0  0  0  0  0
  128.5280  126.0180   67.8140 N   0  0  0  0  0  0  0  0  0  0  0  0
  1  2  1  0
  2  3  2  0
  3  4  1  0
  4  5  1  0
  4  6  2  0
  6  7  1  0
  7  8  3  0
  6  9  1  0
  9 10  1  0
 10 11  1  0
 11 12  1  0
 12 13  2  0
 12 14  1  0
 14 15  1  0
 15 16  2  0
 16 17  1  0
 17 18  2  0
 18 19  1  0
 19 20  2  0
  9 21  2  0
 21  2  1  0
 20 15  1  0
M  END
>  <Binding energies>  (7) 
[-6.77]

>  <Ligand effiencies>  (7) 
[-0.3077272727272727]

>  <Interactions>  (7) 
["V-B:GLU:543:CD:9877, V-A:ARG:545:CG:4919, V-A:HIS:456:CE1:4066, V-B:GLU:543:CB:9875, V-B:HIS:456:CE1:9038, V-B:GLY:544:C:9881, V-B:HIS:456:CD2:9036, V-A:GLU:543:CB:4903, V-B:GLU:543:CG:9876, V-B:LYS:547:CE:9919, V-B:HIS:456:CG:9034, V-B:HIS:456:C:9029, V-A:GLU:543:C:4899, V-B:HIS:456:CB:9033, V-B:HIS:456:CA:9031, V-B:LYS:547:CD:9918, V-B:VAL:458:CG2:9055, H-A:LYS:547:NZ:4948, V-B:LYS:471:CE:9188, V-A:GLU:543:CA:4901, V-A:GLY:544:C:4909, V-A:ARG:545:CA:4916, V-B:GLY:544:CA:9883, H-B:GLY:544:O:9882, H-B:VAL:457:N:9044, V-A:ARG:545:CB:4918"]

$$$$
1g_Grossjean_2025
     RDKit          3D

 22 23  0  0  0  0  0  0  0  0999 V2000
  129.7370  119.8820   61.3920 C   0  0  0  0  0  0  0  0  0  0  0  0
  130.6680  121.0020   61.8170 C   0  0  0  0  0  0  0  0  0  0  0  0
  131.9880  121.0600   61.3760 C   0  0  0  0  0  0  0  0  0  0  0  0
  132.8050  122.1080   61.8140 C   0  0  0  0  0  0  0  0  0  0  0  0
  134.2540  122.1430   61.3290 C   0  0  0  0  0  0  0  0  0  0  0  0
  132.2700  123.0850   62.6830 C   0  0  0  0  0  0  0  0  0  0  0  0
  133.1210  124.1620   63.1960 C   0  0  0  0  0  0  0  0  0  0  0  0
  133.7960  125.0110   63.6010 N   0  0  0  0  0  0  0  0  0  0  0  0
  130.9120  122.9610   63.0600 C   0  0  0  0  0  0  0  0  0  0  0  0
  130.0770  124.1040   64.1370 S   0  0  0  0  0  0  0  0  0  0  0  0
  129.2330  125.3210   63.0840 C   0  0  0  0  0  0  0  0  0  0  0  0
  128.9020  124.7520   61.7030 C   0  0  0  0  0  0  0  0  0  0  0  0
  129.5540  125.1050   60.7180 O   0  0  0  0  0  0  0  0  0  0  0  0
  127.8840  123.8770   61.6480 N   0  0  0  0  0  0  0  0  0  0  0  0
  127.4360  123.1700   60.4480 C   0  0  0  0  0  0  0  0  0  0  0  0
  126.0310  123.5440   59.9870 C   0  0  0  0  0  0  0  0  0  0  0  0
  124.9900  123.6300   60.9170 C   0  0  0  0  0  0  0  0  0  0  0  0
  123.7080  123.9710   60.4960 C   0  0  0  0  0  0  0  0  0  0  0  0
  123.4710  124.2310   59.1470 C   0  0  0  0  0  0  0  0  0  0  0  0
  124.5040  124.1520   58.2170 C   0  0  0  0  0  0  0  0  0  0  0  0
  125.7870  123.8090   58.6360 C   0  0  0  0  0  0  0  0  0  0  0  0
  130.1340  121.9280   62.6480 N   0  0  0  0  0  0  0  0  0  0  0  0
  1  2  1  0
  2  3  2  0
  3  4  1  0
  4  5  1  0
  4  6  2  0
  6  7  1  0
  7  8  3  0
  6  9  1  0
  9 10  1  0
 10 11  1  0
 11 12  1  0
 12 13  2  0
 12 14  1  0
 14 15  1  0
 15 16  1  0
 16 17  2  0
 17 18  1  0
 18 19  2  0
 19 20  1  0
 20 21  2  0
  9 22  2  0
 22  2  1  0
 21 16  1  0
M  END
>  <Binding energies>  (8) 
[-6.79]

>  <Ligand effiencies>  (8) 
[-0.2952173913043478]

>  <Interactions>  (8) 
["V-A:LEU:475:CD1:4254, V-B:GLU:543:CD:9877, V-A:ILE:369:CB:3232, H-A:ARG:545:NH2:4925, H-A:ARG:545:NH1:4924, H-A:GLY:454:N:4046, V-A:ILE:369:CG1:3234, V-A:ILE:369:CG2:3233, V-A:GLY:454:CA:4045, V-B:TYR:539:CE2:9845, V-B:GLU:543:CG:9876, V-B:TYR:539:CD2:9843, V-B:ALA:541:CB:9861, V-B:LEU:363:CD1:8157, V-B:PRO:540:CB:9854, V-B:LEU:363:CA:8153, V-B:PRO:540:CA:9852, V-B:LEU:363:CB:8155, V-B:ASN:362:C:8140, V-B:ASN:362:CB:8144, H-B:GLU:543:OE2:9879, V-A:PRO:482:CG:4323"]

$$$$
1h_Grossjean_2025
     RDKit          3D

 28 29  0  0  0  0  0  0  0  0999 V2000
  129.7300  122.6220   71.8250 C   0  0  0  0  0  0  0  0  0  0  0  0
  129.6480  123.7990   72.6190 O   0  0  0  0  0  0  0  0  0  0  0  0
  129.3850  125.0120   72.0090 C   0  0  0  0  0  0  0  0  0  0  0  0
  129.0110  125.1470   70.6630 C   0  0  0  0  0  0  0  0  0  0  0  0
  128.7740  126.4060   70.1090 C   0  0  0  0  0  0  0  0  0  0  0  0
  128.3450  126.5380   68.6510 C   0  0  0  0  0  0  0  0  0  0  0  0
  129.3100  125.9930   67.6960 N   0  0  0  0  0  0  0  0  0  0  0  0
  129.5650  126.4970   66.4750 C   0  0  0  0  0  0  0  0  0  0  0  0
  129.0230  127.5070   66.0270 O   0  0  0  0  0  0  0  0  0  0  0  0
  130.5860  125.7410   65.6250 C   0  0  0  0  0  0  0  0  0  0  0  0
  130.1320  123.9920   65.4120 S   0  0  0  0  0  0  0  0  0  0  0  0
  130.7600  123.4460   63.8320 C   0  0  0  0  0  0  0  0  0  0  0  0
  129.8540  122.8560   63.0090 N   0  0  0  0  0  0  0  0  0  0  0  0
  130.2620  122.4220   61.7940 C   0  0  0  0  0  0  0  0  0  0  0  0
  129.1930  121.7780   60.9320 C   0  0  0  0  0  0  0  0  0  0  0  0
  131.5760  122.5540   61.3510 C   0  0  0  0  0  0  0  0  0  0  0  0
  132.5190  123.1580   62.1890 C   0  0  0  0  0  0  0  0  0  0  0  0
  133.9530  123.2950   61.6830 C   0  0  0  0  0  0  0  0  0  0  0  0
  132.1140  123.6190   63.4630 C   0  0  0  0  0  0  0  0  0  0  0  0
  133.0810  124.2540   64.3630 C   0  0  0  0  0  0  0  0  0  0  0  0
  133.8450  124.7550   65.0740 N   0  0  0  0  0  0  0  0  0  0  0  0
  128.8750  127.5420   70.9140 C   0  0  0  0  0  0  0  0  0  0  0  0
  129.2420  127.4360   72.2650 C   0  0  0  0  0  0  0  0  0  0  0  0
  129.3640  128.5170   73.1190 O   0  0  0  0  0  0  0  0  0  0  0  0
  129.4230  129.8330   72.5780 C   0  0  0  0  0  0  0  0  0  0  0  0
  129.5050  126.1660   72.7970 C   0  0  0  0  0  0  0  0  0  0  0  0
  129.8600  126.0460   74.1190 O   0  0  0  0  0  0  0  0  0  0  0  0
  131.1180  125.4190   74.3260 C   0  0  0  0  0  0  0  0  0  0  0  0
  1  2  1  0
  2  3  1  0
  3  4  2  0
  4  5  1  0
  5  6  1  0
  6  7  1  0
  7  8  1  0
  8  9  2  0
  8 10  1  0
 10 11  1  0
 11 12  1  0
 12 13  2  0
 13 14  1  0
 14 15  1  0
 14 16  2  0
 16 17  1  0
 17 18  1  0
 17 19  2  0
 19 20  1  0
 20 21  3  0
  5 22  2  0
 22 23  1  0
 23 24  1  0
 24 25  1  0
 23 26  2  0
 26 27  1  0
 27 28  1  0
 26  3  1  0
 19 12  1  0
M  END
>  <Binding energies>  (9) 
[-7.12]

>  <Ligand effiencies>  (9) 
[-0.24551724137931036]

>  <Interactions>  (9) 
["H-A:GLY:454:N:4046, V-A:GLY:454:CA:4045, V-B:TYR:539:CE2:9845, V-A:HIS:456:CE1:4066, V-B:GLU:543:C:9871, V-B:GLU:543:CB:9875, V-B:HIS:456:CE1:9038, V-A:HIS:456:CD2:4064, V-B:HIS:456:CD2:9036, V-B:TYR:539:CD2:9843, V-B:ALA:541:CB:9861, H-A:TYR:484:OH:4344, V-B:LYS:547:CE:9919, H-A:HIS:456:NE2:4067, V-A:LYS:547:CE:4947, H-B:GLU:543:O:9872, H-A:LYS:547:NZ:4948, H-B:LYS:547:NZ:9920, V-A:TYR:484:CD2:4340, V-A:TYR:484:CD1:4339, V-A:TYR:484:CG:4338, V-A:TYR:484:CB:4337"]

$$$$
1i_Grossjean_2025
     RDKit          3D

 20 21  0  0  0  0  0  0  0  0999 V2000
  129.0210  126.3090   66.2420 C   0  0  0  0  0  0  0  0  0  0  0  0
  130.1590  125.8030   65.3750 C   0  0  0  0  0  0  0  0  0  0  0  0
  131.4610  125.7100   65.8610 C   0  0  0  0  0  0  0  0  0  0  0  0
  132.4680  125.2260   65.0190 C   0  0  0  0  0  0  0  0  0  0  0  0
  133.8850  125.1170   65.5800 C   0  0  0  0  0  0  0  0  0  0  0  0
  132.1410  124.8520   63.6950 C   0  0  0  0  0  0  0  0  0  0  0  0
  133.1710  124.2960   62.8120 C   0  0  0  0  0  0  0  0  0  0  0  0
  133.9850  123.8560   62.1170 N   0  0  0  0  0  0  0  0  0  0  0  0
  130.7980  125.0040   63.2790 C   0  0  0  0  0  0  0  0  0  0  0  0
  130.2130  124.5840   61.6520 S   0  0  0  0  0  0  0  0  0  0  0  0
  129.6920  122.8420   61.6870 C   0  0  0  0  0  0  0  0  0  0  0  0
  128.3540  122.6270   60.9760 C   0  0  0  0  0  0  0  0  0  0  0  0
  128.2920  121.8360   60.0340 O   0  0  0  0  0  0  0  0  0  0  0  0
  127.3160  123.3440   61.4590 N   0  0  0  0  0  0  0  0  0  0  0  0
  126.0070  123.3410   61.0000 C   0  0  0  0  0  0  0  0  0  0  0  0
  125.6360  123.8480   59.7560 C   0  0  0  0  0  0  0  0  0  0  0  0
  124.2750  123.6610   59.6840 C   0  0  0  0  0  0  0  0  0  0  0  0
  123.8470  123.0740   60.8270 O   0  0  0  0  0  0  0  0  0  0  0  0
  124.9540  122.8780   61.6550 N   0  0  0  0  0  0  0  0  0  0  0  0
  129.8240  125.4540   64.1100 N   0  0  0  0  0  0  0  0  0  0  0  0
  1  2  1  0
  2  3  2  0
  3  4  1  0
  4  5  1  0
  4  6  2  0
  6  7  1  0
  7  8  3  0
  6  9  1  0
  9 10  1  0
 10 11  1  0
 11 12  1  0
 12 13  2  0
 12 14  1  0
 14 15  1  0
 15 16  1  0
 16 17  2  0
 17 18  1  0
 18 19  1  0
  9 20  2  0
 20  2  1  0
 19 15  2  0
M  END
>  <Binding energies>  (10) 
[-6.67]

>  <Ligand effiencies>  (10) 
[-0.31761904761904763]

>  <Interactions>  (10) 
["V-B:GLU:543:CD:9877, V-A:ARG:545:CZ:4923, H-A:GLY:454:N:4046, V-A:ARG:545:CG:4919, V-A:GLY:454:CA:4045, V-A:HIS:456:CE1:4066, V-B:GLU:543:CB:9875, V-B:GLU:543:CG:9876, H-B:ALA:541:N:9860, V-B:ALA:541:CB:9861, V-A:ARG:545:CD:4920, V-B:PRO:540:CB:9854, V-B:PRO:540:C:9850, V-B:PRO:540:CA:9852, H-B:GLU:543:OE2:9879, H-B:LEU:363:N:8154"]

$$$$
1k_Grossjean_2025
     RDKit          3D

 25 25  0  0  0  0  0  0  0  0999 V2000
  130.4730  122.4970   72.6190 C   0  0  0  0  0  0  0  0  0  0  0  0
  129.5570  123.5800   72.6080 O   0  0  0  0  0  0  0  0  0  0  0  0
  130.1370  124.8160   73.0060 C   0  0  0  0  0  0  0  0  0  0  0  0
  129.0830  125.9280   72.9160 C   0  0  0  0  0  0  0  0  0  0  0  0
  129.7290  127.1720   72.6750 O   0  0  0  0  0  0  0  0  0  0  0  0
  129.1320  127.9330   71.6330 C   0  0  0  0  0  0  0  0  0  0  0  0
  128.3110  127.0030   70.7300 C   0  0  0  0  0  0  0  0  0  0  0  0
  129.0810  126.6520   69.5870 O   0  0  0  0  0  0  0  0  0  0  0  0
  129.1150  127.6630   68.5880 C   0  0  0  0  0  0  0  0  0  0  0  0
  130.5770  128.0470   68.2910 C   0  0  0  0  0  0  0  0  0  0  0  0
  131.0590  127.5910   66.9870 N   0  0  0  0  0  0  0  0  0  0  0  0
  130.7470  126.4160   66.4130 C   0  0  0  0  0  0  0  0  0  0  0  0
  130.0010  125.5870   66.9380 O   0  0  0  0  0  0  0  0  0  0  0  0
  131.3900  126.1570   65.0410 C   0  0  0  0  0  0  0  0  0  0  0  0
  132.8600  125.0720   65.0490 S   0  0  0  0  0  0  0  0  0  0  0  0
  132.8230  124.0240   63.6020 C   0  0  0  0  0  0  0  0  0  0  0  0
  133.8680  124.1610   62.7440 N   0  0  0  0  0  0  0  0  0  0  0  0
  133.8970  123.4040   61.6230 C   0  0  0  0  0  0  0  0  0  0  0  0
  135.0900  123.6210   60.7130 C   0  0  0  0  0  0  0  0  0  0  0  0
  132.9010  122.4800   61.3140 C   0  0  0  0  0  0  0  0  0  0  0  0
  131.8240  122.3240   62.1920 C   0  0  0  0  0  0  0  0  0  0  0  0
  130.7430  121.3060   61.8350 C   0  0  0  0  0  0  0  0  0  0  0  0
  131.7720  123.1080   63.3660 C   0  0  0  0  0  0  0  0  0  0  0  0
  130.6530  122.9680   64.3030 C   0  0  0  0  0  0  0  0  0  0  0  0
  129.7690  122.8570   65.0420 N   0  0  0  0  0  0  0  0  0  0  0  0
  1  2  1  0
  2  3  1  0
  3  4  1  0
  4  5  1  0
  5  6  1  0
  6  7  1  0
  7  8  1  0
  8  9  1  0
  9 10  1  0
 10 11  1  0
 11 12  1  0
 12 13  2  0
 12 14  1  0
 14 15  1  0
 15 16  1  0
 16 17  2  0
 17 18  1  0
 18 19  1  0
 18 20  2  0
 20 21  1  0
 21 22  1  0
 21 23  2  0
 23 24  1  0
 24 25  3  0
 23 16  1  0
M  END
>  <Binding energies>  (11) 
[-6.53]

>  <Ligand effiencies>  (11) 
[-0.25115384615384617]

>  <Interactions>  (11) 
["V-A:LEU:475:CD1:4254, H-A:GLU:543:OE1:4906, V-A:ILE:369:CB:3232, H-A:GLY:454:N:4046, V-A:ARG:545:CG:4919, V-A:ILE:369:CG1:3234, V-A:GLY:454:CA:4045, V-B:TYR:539:CE2:9845, V-A:HIS:456:CE1:4066, V-A:GLU:543:CD:4905, V-A:TYR:484:CZ:4343, V-B:HIS:456:CE1:9038, V-A:TYR:484:CE1:4341, V-A:HIS:456:CD2:4064, V-B:HIS:456:CD2:9036, V-A:GLU:543:CB:4903, V-B:TYR:539:CD2:9843, V-B:ALA:541:CB:9861, V-A:ASP:366:CG:3209, H-A:TYR:484:OH:4344, V-B:LYS:547:CE:9919, V-A:GLU:543:C:4899, H-A:LYS:547:NZ:4948, H-B:LYS:547:NZ:9920, V-A:GLY:453:CA:4040, V-A:ASP:366:CA:3206, V-A:TYR:484:CD2:4340, V-A:TYR:484:CG:4338"]

$$$$
1l_Grossjean_2025
     RDKit          3D

 17 17  0  0  0  0  0  0  0  0999 V2000
  124.1860  123.9300   60.9880 C   0  0  0  0  0  0  0  0  0  0  0  0
  125.1470  122.8840   61.0080 O   0  0  0  0  0  0  0  0  0  0  0  0
  126.4330  123.4210   61.0370 N   0  0  0  0  0  0  0  0  0  0  0  0
  127.3750  122.9050   60.2240 C   0  0  0  0  0  0  0  0  0  0  0  0
  127.1260  122.1380   59.2900 O   0  0  0  0  0  0  0  0  0  0  0  0
  128.8130  123.3510   60.5270 C   0  0  0  0  0  0  0  0  0  0  0  0
  129.7900  122.1810   61.5300 S   0  0  0  0  0  0  0  0  0  0  0  0
  131.3330  122.9680   61.9570 C   0  0  0  0  0  0  0  0  0  0  0  0
  132.2660  123.0120   60.9700 N   0  0  0  0  0  0  0  0  0  0  0  0
  133.4610  123.5950   61.2270 C   0  0  0  0  0  0  0  0  0  0  0  0
  134.4500  123.6050   60.0760 C   0  0  0  0  0  0  0  0  0  0  0  0
  133.7750  124.1550   62.4630 C   0  0  0  0  0  0  0  0  0  0  0  0
  132.8220  124.1170   63.4860 C   0  0  0  0  0  0  0  0  0  0  0  0
  133.1870  124.7370   64.8340 C   0  0  0  0  0  0  0  0  0  0  0  0
  131.5690  123.5130   63.2410 C   0  0  0  0  0  0  0  0  0  0  0  0
  130.5510  123.4590   64.2950 C   0  0  0  0  0  0  0  0  0  0  0  0
  129.7500  123.4180   65.1280 N   0  0  0  0  0  0  0  0  0  0  0  0
  1  2  1  0
  2  3  1  0
  3  4  1  0
  4  5  2  0
  4  6  1  0
  6  7  1  0
  7  8  1  0
  8  9  2  0
  9 10  1  0
 10 11  1  0
 10 12  2  0
 12 13  1  0
 13 14  1  0
 13 15  2  0
 15 16  1  0
 16 17  3  0
 15  8  1  0
M  END
>  <Binding energies>  (12) 
[-5.85]

>  <Ligand effiencies>  (12) 
[-0.32499999999999996]

>  <Interactions>  (12) 
["V-B:GLU:543:CD:9877, V-A:ARG:545:CZ:4923, V-A:ILE:369:CB:3232, V-A:ILE:369:CG1:3234, V-A:ILE:369:CG2:3233, V-A:GLY:454:CA:4045, H-B:ALA:541:N:9860, V-B:ALA:541:CB:9861, V-A:ASP:366:CG:3209, V-A:ASP:366:CB:3208, H-A:TYR:484:OH:4344, V-A:GLY:453:C:4038, V-B:PRO:540:CB:9854, V-B:PRO:540:CA:9852, V-A:GLY:453:CA:4040, V-B:ASN:362:C:8140, V-B:ASN:362:CB:8144, V-A:ASP:366:CA:3206, H-B:TYR:539:OH:9847, H-B:GLU:543:OE2:9879"]

$$$$
1m_Grossjean_2025
     RDKit          3D

 20 20  0  0  0  0  0  0  0  0999 V2000
  123.5600  125.0120   59.5500 C   0  0  0  0  0  0  0  0  0  0  0  0
  123.4840  123.7930   60.2760 O   0  0  0  0  0  0  0  0  0  0  0  0
  124.5360  123.3590   60.9990 C   0  0  0  0  0  0  0  0  0  0  0  0
  124.4770  122.8800   62.1360 O   0  0  0  0  0  0  0  0  0  0  0  0
  125.8610  123.5220   60.2250 C   0  0  0  0  0  0  0  0  0  0  0  0
  127.0420  123.4690   61.0990 N   0  0  0  0  0  0  0  0  0  0  0  0
  128.2020  122.8470   60.8150 C   0  0  0  0  0  0  0  0  0  0  0  0
  128.3920  122.2250   59.7680 O   0  0  0  0  0  0  0  0  0  0  0  0
  129.2890  122.9510   61.8930 C   0  0  0  0  0  0  0  0  0  0  0  0
  130.4260  124.3650   61.6950 S   0  0  0  0  0  0  0  0  0  0  0  0
  130.9990  124.8410   63.3120 C   0  0  0  0  0  0  0  0  0  0  0  0
  130.0160  125.3180   64.1180 N   0  0  0  0  0  0  0  0  0  0  0  0
  130.3340  125.7050   65.3740 C   0  0  0  0  0  0  0  0  0  0  0  0
  129.1810  126.2080   66.2210 C   0  0  0  0  0  0  0  0  0  0  0  0
  131.6340  125.6460   65.8730 C   0  0  0  0  0  0  0  0  0  0  0  0
  132.6600  125.1810   65.0430 C   0  0  0  0  0  0  0  0  0  0  0  0
  134.0790  125.1390   65.6060 C   0  0  0  0  0  0  0  0  0  0  0  0
  132.3520  124.7710   63.7260 C   0  0  0  0  0  0  0  0  0  0  0  0
  133.4180  124.3280   62.8240 C   0  0  0  0  0  0  0  0  0  0  0  0
  134.2600  123.9780   62.1130 N   0  0  0  0  0  0  0  0  0  0  0  0
  1  2  1  0
  2  3  1  0
  3  4  2  0
  3  5  1  0
  5  6  1  0
  6  7  1  0
  7  8  2  0
  7  9  1  0
  9 10  1  0
 10 11  1  0
 11 12  2  0
 12 13  1  0
 13 14  1  0
 13 15  2  0
 15 16  1  0
 16 17  1  0
 16 18  2  0
 18 19  1  0
 19 20  3  0
 18 11  1  0
M  END
>  <Binding energies>  (13) 
[-6.18]

>  <Ligand effiencies>  (13) 
[-0.29428571428571426]

>  <Interactions>  (13) 
["V-B:GLU:543:CD:9877, V-A:ARG:545:CZ:4923, H-A:GLY:454:N:4046, V-A:ARG:545:CG:4919, V-A:GLY:454:CA:4045, V-A:HIS:456:CE1:4066, V-B:GLU:543:CB:9875, V-B:GLU:543:CG:9876, H-B:ALA:541:N:9860, V-B:ASP:366:CB:8180, V-B:ALA:541:CB:9861, V-B:ASP:366:CG:8181, V-A:ARG:545:CD:4920, V-B:PRO:540:CB:9854, V-B:LEU:363:CA:8153, V-B:PRO:540:CA:9852, V-B:ASN:362:C:8140, V-B:ASN:362:CB:8144, H-B:GLU:543:OE2:9879, H-B:LEU:363:N:8154, H-B:ASN:362:ND2:8147"]

$$$$
1n_Grossjean_2025
     RDKit          3D

 27 28  0  0  0  0  0  0  0  0999 V2000
  124.7570  127.6300   74.1080 C   0  0  0  0  0  0  0  0  0  0  0  0
  126.2240  128.0600   74.0130 C   0  0  0  0  0  0  0  0  0  0  0  0
  126.8720  127.3090   72.9930 O   0  0  0  0  0  0  0  0  0  0  0  0
  128.2090  127.4170   72.7850 C   0  0  0  0  0  0  0  0  0  0  0  0
  129.0240  127.6160   73.6910 O   0  0  0  0  0  0  0  0  0  0  0  0
  128.6000  127.2560   71.3440 C   0  0  0  0  0  0  0  0  0  0  0  0
  127.8300  126.5000   70.4460 C   0  0  0  0  0  0  0  0  0  0  0  0
  128.2220  126.3690   69.1170 C   0  0  0  0  0  0  0  0  0  0  0  0
  129.3900  126.9800   68.6600 C   0  0  0  0  0  0  0  0  0  0  0  0
  129.6940  126.7770   67.2990 N   0  0  0  0  0  0  0  0  0  0  0  0
  129.8030  125.6260   66.6010 C   0  0  0  0  0  0  0  0  0  0  0  0
  129.6390  124.4950   67.0590 O   0  0  0  0  0  0  0  0  0  0  0  0
  130.1590  125.7830   65.1170 C   0  0  0  0  0  0  0  0  0  0  0  0
  131.6300  126.1940   64.8870 C   0  0  0  0  0  0  0  0  0  0  0  0
  132.8310  124.8450   65.0940 S   0  0  0  0  0  0  0  0  0  0  0  0
  132.7730  123.8410   63.6250 C   0  0  0  0  0  0  0  0  0  0  0  0
  133.8120  124.0550   62.7800 N   0  0  0  0  0  0  0  0  0  0  0  0
  133.8800  123.3340   61.6370 C   0  0  0  0  0  0  0  0  0  0  0  0
  135.0740  123.6190   60.7460 C   0  0  0  0  0  0  0  0  0  0  0  0
  132.9220  122.3830   61.2890 C   0  0  0  0  0  0  0  0  0  0  0  0
  131.8350  122.1700   62.1440 C   0  0  0  0  0  0  0  0  0  0  0  0
  130.7910  121.1330   61.7360 C   0  0  0  0  0  0  0  0  0  0  0  0
  131.7410  122.9160   63.3410 C   0  0  0  0  0  0  0  0  0  0  0  0
  130.5860  122.7460   64.2250 C   0  0  0  0  0  0  0  0  0  0  0  0
  129.6720  122.6110   64.9220 N   0  0  0  0  0  0  0  0  0  0  0  0
  130.1590  127.7440   69.5480 C   0  0  0  0  0  0  0  0  0  0  0  0
  129.7640  127.8780   70.8770 C   0  0  0  0  0  0  0  0  0  0  0  0
  1  2  1  0
  2  3  1  0
  3  4  1  0
  4  5  2  0
  4  6  1  0
  6  7  2  0
  7  8  1  0
  8  9  2  0
  9 10  1  0
 10 11  1  0
 11 12  2  0
 11 13  1  0
 13 14  1  0
 14 15  1  0
 15 16  1  0
 16 17  2  0
 17 18  1  0
 18 19  1  0
 18 20  2  0
 20 21  1  0
 21 22  1  0
 21 23  2  0
 23 24  1  0
 24 25  3  0
  9 26  1  0
 26 27  2  0
 27  6  1  0
 23 16  1  0
M  END
>  <Binding energies>  (14) 
[-8.34]

>  <Ligand effiencies>  (14) 
[-0.2978571428571429]

>  <Interactions>  (14) 
["V-A:LEU:475:CD1:4254, H-A:GLU:543:OE1:4906, V-A:ARG:545:CZ:4923, V-A:ILE:369:CB:3232, H-A:GLY:454:N:4046, V-A:ILE:369:CG1:3234, V-A:GLY:454:CA:4045, V-B:TYR:539:CE2:9845, V-A:HIS:456:CE1:4066, V-B:GLU:543:C:9871, V-B:GLU:543:CB:9875, V-B:HIS:456:CE1:9038, V-A:TYR:484:CE1:4341, V-B:GLY:544:C:9881, V-B:HIS:456:CD2:9036, V-B:TYR:539:CD2:9843, V-B:ALA:541:CB:9861, V-A:ASP:366:CG:3209, H-A:TYR:484:OH:4344, V-B:LYS:547:CE:9919, V-B:LYS:547:CG:9917, V-B:HIS:456:CG:9034, V-B:HIS:456:CB:9033, V-B:LYS:547:CD:9918, H-A:LYS:547:NZ:4948, V-A:GLY:453:CA:4040, V-A:ASP:366:CA:3206"]

$$$$
1q_Grossjean_2025
     RDKit          3D

 21 21  0  0  0  0  0  0  0  0999 V2000
  124.4940  130.1070   63.1450 C   0  0  0  0  0  0  0  0  0  0  0  0
  123.7410  130.0090   64.3450 O   0  0  0  0  0  0  0  0  0  0  0  0
  124.3550  129.7370   65.5230 C   0  0  0  0  0  0  0  0  0  0  0  0
  123.7900  129.3870   66.5610 O   0  0  0  0  0  0  0  0  0  0  0  0
  125.8860  129.9320   65.4940 C   0  0  0  0  0  0  0  0  0  0  0  0
  126.6280  128.6900   65.7590 N   0  0  0  0  0  0  0  0  0  0  0  0
  127.8690  128.6080   66.2780 C   0  0  0  0  0  0  0  0  0  0  0  0
  128.5330  129.5960   66.5960 O   0  0  0  0  0  0  0  0  0  0  0  0
  128.4230  127.1890   66.4730 C   0  0  0  0  0  0  0  0  0  0  0  0
  129.8570  126.9910   65.9420 C   0  0  0  0  0  0  0  0  0  0  0  0
  130.5050  125.3130   66.2060 S   0  0  0  0  0  0  0  0  0  0  0  0
  130.8120  124.5670   64.6170 C   0  0  0  0  0  0  0  0  0  0  0  0
  129.6790  124.2410   63.9470 N   0  0  0  0  0  0  0  0  0  0  0  0
  129.7850  123.6650   62.7270 C   0  0  0  0  0  0  0  0  0  0  0  0
  128.4750  123.3140   62.0470 C   0  0  0  0  0  0  0  0  0  0  0  0
  131.0130  123.4020   62.1240 C   0  0  0  0  0  0  0  0  0  0  0  0
  132.1880  123.7570   62.7950 C   0  0  0  0  0  0  0  0  0  0  0  0
  133.5220  123.4740   62.1050 C   0  0  0  0  0  0  0  0  0  0  0  0
  132.1020  124.3620   64.0690 C   0  0  0  0  0  0  0  0  0  0  0  0
  133.3190  124.7920   64.7600 C   0  0  0  0  0  0  0  0  0  0  0  0
  134.2840  125.1310   65.3030 N   0  0  0  0  0  0  0  0  0  0  0  0
  1  2  1  0
  2  3  1  0
  3  4  2  0
  3  5  1  0
  5  6  1  0
  6  7  1  0
  7  8  2  0
  7  9  1  0
  9 10  1  0
 10 11  1  0
 11 12  1  0
 12 13  2  0
 13 14  1  0
 14 15  1  0
 14 16  2  0
 16 17  1  0
 17 18  1  0
 17 19  2  0
 19 20  1  0
 20 21  3  0
 19 12  1  0
M  END
>  <Binding energies>  (15) 
[-6.09]

>  <Ligand effiencies>  (15) 
[-0.2768181818181818]

>  <Interactions>  (15) 
["V-B:GLU:543:CD:9877, V-A:ARG:545:CZ:4923, H-A:ARG:545:NH1:4924, H-A:GLY:454:N:4046, V-A:GLY:454:CA:4045, V-A:GLU:543:CD:4905, V-B:GLU:543:CB:9875, V-B:HIS:456:CE1:9038, V-B:GLU:543:CG:9876, V-B:ARG:545:CZ:9895, V-B:ARG:545:CD:9892, H-B:TYR:484:OH:9316, V-B:ALA:541:CB:9861, V-B:ASP:366:CG:8181, H-A:ARG:545:NE:4921, H-B:ARG:545:NH2:9897, H-A:TYR:484:OH:4344, H-B:GLU:543:OE1:9878, H-B:GLY:454:N:9018, H-B:ARG:545:NH1:9896, H-B:ARG:545:NE:9893, H-B:GLU:543:OE2:9879, H-B:HIS:456:ND1:9035"]

$$$$
2a_Grossjean_2025
     RDKit          3D

 29 30  0  0  0  0  0  0  0  0999 V2000
  124.6880  127.6760   73.7820 C   0  0  0  0  0  0  0  0  0  0  0  0
  126.1700  128.0630   73.8000 C   0  0  0  0  0  0  0  0  0  0  0  0
  126.8510  127.3650   72.7640 O   0  0  0  0  0  0  0  0  0  0  0  0
  128.2000  127.4470   72.6320 C   0  0  0  0  0  0  0  0  0  0  0  0
  128.9620  127.6880   73.5730 O   0  0  0  0  0  0  0  0  0  0  0  0
  128.6730  127.1930   71.2290 C   0  0  0  0  0  0  0  0  0  0  0  0
  129.8410  127.7820   70.7230 C   0  0  0  0  0  0  0  0  0  0  0  0
  130.2510  127.5270   69.4170 C   0  0  0  0  0  0  0  0  0  0  0  0
  129.5040  126.6870   68.5910 C   0  0  0  0  0  0  0  0  0  0  0  0
  130.0050  126.5120   67.2880 N   0  0  0  0  0  0  0  0  0  0  0  0
  131.0760  127.0720   66.6880 C   0  0  0  0  0  0  0  0  0  0  0  0
  131.8300  127.9010   67.1980 O   0  0  0  0  0  0  0  0  0  0  0  0
  131.3410  126.6150   65.2490 C   0  0  0  0  0  0  0  0  0  0  0  0
  132.9440  125.7700   65.0440 S   0  0  0  0  0  0  0  0  0  0  0  0
  132.7890  124.4680   63.8270 C   0  0  0  0  0  0  0  0  0  0  0  0
  133.8190  124.3550   62.9500 N   0  0  0  0  0  0  0  0  0  0  0  0
  133.7630  123.4010   61.9950 C   0  0  0  0  0  0  0  0  0  0  0  0
  134.9380  123.3550   61.0350 C   0  0  0  0  0  0  0  0  0  0  0  0
  132.6930  122.5180   61.8770 C   0  0  0  0  0  0  0  0  0  0  0  0
  131.6210  122.6100   62.7780 C   0  0  0  0  0  0  0  0  0  0  0  0
  130.4460  121.6250   62.6350 C   0  0  0  0  0  0  0  0  0  0  0  0
  129.3640  122.2640   62.1890 F   0  0  0  0  0  0  0  0  0  0  0  0
  130.7640  120.6570   61.7730 F   0  0  0  0  0  0  0  0  0  0  0  0
  130.1190  121.0410   63.7910 F   0  0  0  0  0  0  0  0  0  0  0  0
  131.6660  123.6090   63.7830 C   0  0  0  0  0  0  0  0  0  0  0  0
  130.5720  123.7520   64.7490 C   0  0  0  0  0  0  0  0  0  0  0  0
  129.7080  123.8640   65.5110 N   0  0  0  0  0  0  0  0  0  0  0  0
  128.3400  126.0870   69.0940 C   0  0  0  0  0  0  0  0  0  0  0  0
  127.9330  126.3400   70.4010 C   0  0  0  0  0  0  0  0  0  0  0  0
  1  2  1  0
  2  3  1  0
  3  4  1  0
  4  5  2  0
  4  6  1  0
  6  7  2  0
  7  8  1  0
  8  9  2  0
  9 10  1  0
 10 11  1  0
 11 12  2  0
 11 13  1  0
 13 14  1  0
 14 15  1  0
 15 16  2  0
 16 17  1  0
 17 18  1  0
 17 19  2  0
 19 20  1  0
 20 21  1  0
 21 22  1  0
 21 23  1  0
 21 24  1  0
 20 25  2  0
 25 26  1  0
 26 27  3  0
  9 28  1  0
 28 29  2  0
 29  6  1  0
 25 15  1  0
M  END
>  <Binding energies>  (16) 
[-7.43]

>  <Ligand effiencies>  (16) 
[-0.24766666666666665]

>  <Interactions>  (16) 
["V-A:LEU:475:CD1:4254, V-A:ARG:545:CZ:4923, V-A:ILE:369:CB:3232, H-A:ARG:545:NH2:4925, H-A:GLY:454:N:4046, V-A:ILE:369:CG1:3234, V-A:GLY:454:CA:4045, V-B:TYR:539:CE2:9845, V-A:HIS:456:CE1:4066, V-A:GLU:543:CD:4905, V-A:TYR:484:CZ:4343, V-B:GLU:543:C:9871, V-B:GLU:543:CB:9875, V-B:HIS:456:CE1:9038, V-A:TYR:484:CE1:4341, V-B:GLY:544:C:9881, V-A:HIS:456:CD2:4064, V-B:HIS:456:CD2:9036, V-A:GLU:543:CB:4903, V-B:TYR:539:CD2:9843, V-B:ALA:541:CB:9861, H-A:ARG:545:NE:4921, H-A:TYR:484:OH:4344, V-B:LYS:547:CE:9919, V-B:HIS:456:CG:9034, V-B:HIS:456:C:9029, V-B:HIS:456:CB:9033, V-B:HIS:456:CA:9031, V-B:LYS:547:CD:9918, V-B:ARG:545:C:9886, H-A:LYS:547:NZ:4948, V-A:LEU:475:CD2:4255, V-A:GLY:453:C:4038, V-A:GLY:453:CA:4040, V-A:LEU:475:CG:4253"]

$$$$
2b_Grossjean_2025
     RDKit          3D

 28 29  0  0  0  0  0  0  0  0999 V2000
  129.2670  129.9070   73.0120 C   0  0  0  0  0  0  0  0  0  0  0  0
  129.3760  128.4930   73.0980 O   0  0  0  0  0  0  0  0  0  0  0  0
  128.4400  127.6850   72.5380 C   0  0  0  0  0  0  0  0  0  0  0  0
  127.4460  127.2730   73.1440 O   0  0  0  0  0  0  0  0  0  0  0  0
  128.7360  127.3380   71.1070 C   0  0  0  0  0  0  0  0  0  0  0  0
  127.9720  126.4000   70.3980 C   0  0  0  0  0  0  0  0  0  0  0  0
  128.2740  126.0990   69.0720 C   0  0  0  0  0  0  0  0  0  0  0  0
  129.3370  126.7310   68.4290 C   0  0  0  0  0  0  0  0  0  0  0  0
  129.5590  126.3490   67.0910 N   0  0  0  0  0  0  0  0  0  0  0  0
  130.6220  126.5820   66.2930 C   0  0  0  0  0  0  0  0  0  0  0  0
  131.6230  127.2260   66.6090 O   0  0  0  0  0  0  0  0  0  0  0  0
  130.5210  125.9920   64.8830 C   0  0  0  0  0  0  0  0  0  0  0  0
  130.1360  124.2100   64.8770 S   0  0  0  0  0  0  0  0  0  0  0  0
  130.7380  123.4620   63.3690 C   0  0  0  0  0  0  0  0  0  0  0  0
  129.8030  122.8370   62.6070 N   0  0  0  0  0  0  0  0  0  0  0  0
  130.1880  122.2440   61.4550 C   0  0  0  0  0  0  0  0  0  0  0  0
  129.0870  121.5580   60.6700 C   0  0  0  0  0  0  0  0  0  0  0  0
  131.5070  122.2540   61.0100 C   0  0  0  0  0  0  0  0  0  0  0  0
  132.4890  122.8990   61.7770 C   0  0  0  0  0  0  0  0  0  0  0  0
  133.9430  122.9050   61.2680 C   0  0  0  0  0  0  0  0  0  0  0  0
  133.9590  122.8360   59.9360 F   0  0  0  0  0  0  0  0  0  0  0  0
  134.5590  124.0240   61.6510 F   0  0  0  0  0  0  0  0  0  0  0  0
  134.6570  121.8760   61.7320 F   0  0  0  0  0  0  0  0  0  0  0  0
  132.1000  123.5200   62.9920 C   0  0  0  0  0  0  0  0  0  0  0  0
  133.0850  124.2040   63.8360 C   0  0  0  0  0  0  0  0  0  0  0  0
  133.8630  124.7440   64.5010 N   0  0  0  0  0  0  0  0  0  0  0  0
  130.1120  127.6650   69.1330 C   0  0  0  0  0  0  0  0  0  0  0  0
  129.8090  127.9630   70.4580 C   0  0  0  0  0  0  0  0  0  0  0  0
  1  2  1  0
  2  3  1  0
  3  4  2  0
  3  5  1  0
  5  6  2  0
  6  7  1  0
  7  8  2  0
  8  9  1  0
  9 10  1  0
 10 11  2  0
 10 12  1  0
 12 13  1  0
 13 14  1  0
 14 15  2  0
 15 16  1  0
 16 17  1  0
 16 18  2  0
 18 19  1  0
 19 20  1  0
 20 21  1  0
 20 22  1  0
 20 23  1  0
 19 24  2  0
 24 25  1  0
 25 26  3  0
  8 27  1  0
 27 28  2  0
 28  5  1  0
 24 14  1  0
M  END
>  <Binding energies>  (17) 
[-7.04]

>  <Ligand effiencies>  (17) 
[-0.24275862068965517]

>  <Interactions>  (17) 
["V-A:LEU:475:CD1:4254, V-A:ILE:369:CB:3232, H-A:GLY:454:N:4046, V-A:ILE:369:CG1:3234, V-A:ILE:369:CG2:3233, V-A:GLY:454:CA:4045, V-B:TYR:539:CE2:9845, V-A:HIS:456:CE1:4066, V-B:GLU:543:C:9871, V-B:GLU:543:CB:9875, V-B:HIS:456:CE1:9038, V-B:GLY:544:C:9881, V-B:HIS:456:CD2:9036, V-B:TYR:539:CZ:9846, V-B:TYR:539:CD2:9843, V-B:ALA:541:CB:9861, V-A:ASP:366:CG:3209, H-A:ARG:545:NE:4921, H-A:TYR:484:OH:4344, H-B:GLU:543:OE1:9878, V-A:LYS:547:CE:4947, H-A:LYS:547:NZ:4948, V-A:GLY:453:C:4038, V-A:GLY:453:CA:4040"]

$$$$
2c_Grossjean_2025
     RDKit          3D

 26 27  0  0  0  0  0  0  0  0999 V2000
  128.0930  128.0740   73.4500 C   0  0  0  0  0  0  0  0  0  0  0  0
  129.3540  127.8550   72.8270 O   0  0  0  0  0  0  0  0  0  0  0  0
  129.3930  127.4780   71.4990 C   0  0  0  0  0  0  0  0  0  0  0  0
  130.3720  128.0810   70.7090 C   0  0  0  0  0  0  0  0  0  0  0  0
  130.4890  127.7670   69.3580 C   0  0  0  0  0  0  0  0  0  0  0  0
  129.6090  126.8430   68.7760 C   0  0  0  0  0  0  0  0  0  0  0  0
  129.6620  126.4490   67.4260 N   0  0  0  0  0  0  0  0  0  0  0  0
  130.6280  126.6900   66.5150 C   0  0  0  0  0  0  0  0  0  0  0  0
  131.6350  127.3700   66.7240 O   0  0  0  0  0  0  0  0  0  0  0  0
  130.3780  126.0780   65.1280 C   0  0  0  0  0  0  0  0  0  0  0  0
  130.1400  124.2670   65.1010 S   0  0  0  0  0  0  0  0  0  0  0  0
  130.7360  123.6120   63.5470 C   0  0  0  0  0  0  0  0  0  0  0  0
  129.7960  123.0440   62.7490 N   0  0  0  0  0  0  0  0  0  0  0  0
  130.1760  122.5200   61.5630 C   0  0  0  0  0  0  0  0  0  0  0  0
  129.0710  121.8900   60.7380 C   0  0  0  0  0  0  0  0  0  0  0  0
  131.4960  122.5460   61.1190 C   0  0  0  0  0  0  0  0  0  0  0  0
  132.4830  123.1330   61.9230 C   0  0  0  0  0  0  0  0  0  0  0  0
  133.9380  123.1560   61.4170 C   0  0  0  0  0  0  0  0  0  0  0  0
  134.5670  122.0400   61.7880 F   0  0  0  0  0  0  0  0  0  0  0  0
  133.9590  123.2430   60.0870 F   0  0  0  0  0  0  0  0  0  0  0  0
  134.6350  124.1880   61.8980 F   0  0  0  0  0  0  0  0  0  0  0  0
  132.0990  123.6830   63.1730 C   0  0  0  0  0  0  0  0  0  0  0  0
  133.0890  124.3080   64.0560 C   0  0  0  0  0  0  0  0  0  0  0  0
  133.8710  124.8020   64.7520 N   0  0  0  0  0  0  0  0  0  0  0  0
  128.6380  126.2250   69.5650 C   0  0  0  0  0  0  0  0  0  0  0  0
  128.5250  126.5420   70.9150 C   0  0  0  0  0  0  0  0  0  0  0  0
  1  2  1  0
  2  3  1  0
  3  4  2  0
  4  5  1  0
  5  6  2  0
  6  7  1  0
  7  8  1  0
  8  9  2  0
  8 10  1  0
 10 11  1  0
 11 12  1  0
 12 13  2  0
 13 14  1  0
 14 15  1  0
 14 16  2  0
 16 17  1  0
 17 18  1  0
 18 19  1  0
 18 20  1  0
 18 21  1  0
 17 22  2  0
 22 23  1  0
 23 24  3  0
  6 25  1  0
 25 26  2  0
 26  3  1  0
 22 12  1  0
M  END
>  <Binding energies>  (18) 
[-6.85]

>  <Ligand effiencies>  (18) 
[-0.2537037037037037]

>  <Interactions>  (18) 
["V-A:LEU:475:CD1:4254, V-A:ILE:369:CB:3232, H-A:GLY:454:N:4046, V-A:ILE:369:CG1:3234, V-A:ILE:369:CG2:3233, V-A:GLY:454:CA:4045, V-B:TYR:539:CE2:9845, V-A:HIS:456:CE1:4066, V-B:HIS:456:CD2:9036, V-B:TYR:539:CD2:9843, V-B:ALA:541:CB:9861, V-A:ASP:366:CG:3209, H-A:ARG:545:NE:4921, H-A:TYR:484:OH:4344, H-B:GLU:543:OE1:9878, V-A:GLU:543:C:4899, H-A:LYS:547:NZ:4948, V-A:GLY:453:C:4038, V-A:GLY:453:CA:4040, V-A:GLY:544:C:4909, V-A:ASP:366:CA:3206"]

$$$$
2d_Ghoteimi_2023
     RDKit          3D

 38 42  0  0  0  0  0  0  0  0999 V2000
  124.6110  130.1910   62.9410 C   0  0  0  0  0  0  0  0  0  0  0  0
  123.7780  130.3790   64.0750 O   0  0  0  0  0  0  0  0  0  0  0  0
  124.0960  129.8170   65.2600 C   0  0  0  0  0  0  0  0  0  0  0  0
  123.4980  130.0020   66.3240 O   0  0  0  0  0  0  0  0  0  0  0  0
  125.3130  128.8890   65.1280 C   0  0  0  0  0  0  0  0  0  0  0  0
  126.8470  129.7350   65.6410 S   0  0  0  0  0  0  0  0  0  0  0  0
  128.0520  128.4970   66.0730 C   0  0  0  0  0  0  0  0  0  0  0  0
  128.1640  128.3020   67.4100 N   0  0  0  0  0  0  0  0  0  0  0  0
  129.0510  127.3910   67.8840 C   0  0  0  0  0  0  0  0  0  0  0  0
  129.1300  127.2440   69.3690 C   0  0  0  0  0  0  0  0  0  0  0  0
  130.2120  127.7760   70.0800 C   0  0  0  0  0  0  0  0  0  0  0  0
  130.2920  127.6430   71.4640 C   0  0  0  0  0  0  0  0  0  0  0  0
  129.2880  126.9820   72.1880 C   0  0  0  0  0  0  0  0  0  0  0  0
  129.3630  126.8240   73.5770 N   0  0  0  0  0  0  0  0  0  0  0  0
  128.2950  127.3180   74.4680 C   0  0  0  0  0  0  0  0  0  0  0  0
  128.7150  127.3940   75.9510 C   0  0  0  0  0  0  0  0  0  0  0  0
  129.1900  126.1290   76.3850 O   0  0  0  0  0  0  0  0  0  0  0  0
  130.3190  125.7120   75.6360 C   0  0  0  0  0  0  0  0  0  0  0  0
  129.9500  125.5920   74.1420 C   0  0  0  0  0  0  0  0  0  0  0  0
  128.2140  126.4390   71.4690 C   0  0  0  0  0  0  0  0  0  0  0  0
  128.1340  126.5700   70.0860 C   0  0  0  0  0  0  0  0  0  0  0  0
  129.8500  126.6440   67.0140 C   0  0  0  0  0  0  0  0  0  0  0  0
  129.7310  126.8020   65.6280 C   0  0  0  0  0  0  0  0  0  0  0  0
  130.5970  125.9500   64.7600 C   0  0  0  0  0  0  0  0  0  0  0  0
  130.0230  125.0220   63.8890 C   0  0  0  0  0  0  0  0  0  0  0  0
  130.8210  124.2320   63.0660 C   0  0  0  0  0  0  0  0  0  0  0  0
  132.2200  124.3470   63.0940 C   0  0  0  0  0  0  0  0  0  0  0  0
  133.0410  123.5730   62.2680 N   0  0  0  0  0  0  0  0  0  0  0  0
  133.3560  123.9910   60.8880 C   0  0  0  0  0  0  0  0  0  0  0  0
  134.5400  123.2190   60.2670 C   0  0  0  0  0  0  0  0  0  0  0  0
  134.2950  121.8220   60.3300 O   0  0  0  0  0  0  0  0  0  0  0  0
  134.1340  121.3790   61.6690 C   0  0  0  0  0  0  0  0  0  0  0  0
  132.9370  122.1020   62.3240 C   0  0  0  0  0  0  0  0  0  0  0  0
  132.7870  125.2930   63.9580 C   0  0  0  0  0  0  0  0  0  0  0  0
  131.9890  126.0830   64.7800 C   0  0  0  0  0  0  0  0  0  0  0  0
  128.8010  127.7510   65.1340 C   0  0  0  0  0  0  0  0  0  0  0  0
  128.6260  127.9390   63.6910 C   0  0  0  0  0  0  0  0  0  0  0  0
  128.4910  128.0840   62.5500 N   0  0  0  0  0  0  0  0  0  0  0  0
  1  2  1  0
  2  3  1  0
  3  4  2  0
  3  5  1  0
  5  6  1  0
  6  7  1  0
  7  8  2  0
  8  9  1  0
  9 10  1  0
 10 11  2  0
 11 12  1  0
 12 13  2  0
 13 14  1  0
 14 15  1  0
 15 16  1  0
 16 17  1  0
 17 18  1  0
 18 19  1  0
 13 20  1  0
 20 21  2  0
  9 22  2  0
 22 23  1  0
 23 24  1  0
 24 25  2  0
 25 26  1  0
 26 27  2  0
 27 28  1  0
 28 29  1  0
 29 30  1  0
 30 31  1  0
 31 32  1  0
 32 33  1  0
 27 34  1  0
 34 35  2  0
 23 36  2  0
 36 37  1  0
 37 38  3  0
 36  7  1  0
 21 10  1  0
 35 24  1  0
 19 14  1  0
 33 28  1  0
M  END
>  <Binding energies>  (19) 
[-9.59]

>  <Ligand effiencies>  (19) 
[-0.2523684210526316]

>  <Interactions>  (19) 
["V-A:LEU:475:CD1:4254, V-B:GLU:543:CD:9877, V-A:ARG:545:CZ:4923, V-A:ILE:369:CB:3232, V-A:ILE:369:CG1:3234, V-A:ILE:369:CG2:3233, V-A:GLY:454:CA:4045, V-A:HIS:456:CE1:4066, V-A:GLU:543:CD:4905, V-B:HIS:456:CE1:9038, V-A:HIS:456:CD2:4064, V-B:HIS:456:CD2:9036, V-B:GLU:543:CG:9876, V-B:ARG:545:CZ:9895, V-B:ARG:545:CD:9892, H-B:TYR:484:OH:9316, V-B:ASP:366:CG:8181, V-A:ASP:366:CG:3209, V-B:LYS:547:CE:9919, V-A:LYS:547:CE:4947, V-B:LYS:547:CD:9918, H-B:GLY:454:N:9018, H-B:ILE:455:N:9023, V-A:ASP:366:CA:3206, H-B:TYR:539:OH:9847, H-B:HIS:456:ND1:9035"]

$$$$
2d_Grossjean_2025
     RDKit          3D

 24 25  0  0  0  0  0  0  0  0999 V2000
  133.7210  123.6310   60.2140 C   0  0  0  0  0  0  0  0  0  0  0  0
  133.0180  123.9040   61.5300 C   0  0  0  0  0  0  0  0  0  0  0  0
  133.7130  124.3640   62.6460 C   0  0  0  0  0  0  0  0  0  0  0  0
  133.0170  124.6070   63.8390 C   0  0  0  0  0  0  0  0  0  0  0  0
  133.8000  125.1260   65.0610 C   0  0  0  0  0  0  0  0  0  0  0  0
  133.1460  126.1420   65.6240 F   0  0  0  0  0  0  0  0  0  0  0  0
  133.9420  124.1510   65.9600 F   0  0  0  0  0  0  0  0  0  0  0  0
  135.0210  125.5610   64.7450 F   0  0  0  0  0  0  0  0  0  0  0  0
  131.6190  124.3670   63.8700 C   0  0  0  0  0  0  0  0  0  0  0  0
  130.8390  124.6490   65.0780 C   0  0  0  0  0  0  0  0  0  0  0  0
  130.2240  124.8730   66.0320 N   0  0  0  0  0  0  0  0  0  0  0  0
  131.0020  123.8750   62.6950 C   0  0  0  0  0  0  0  0  0  0  0  0
  129.2670  123.4900   62.5690 S   0  0  0  0  0  0  0  0  0  0  0  0
  129.0400  122.2240   61.2760 C   0  0  0  0  0  0  0  0  0  0  0  0
  127.8670  122.5280   60.3400 C   0  0  0  0  0  0  0  0  0  0  0  0
  127.8650  122.0450   59.2070 O   0  0  0  0  0  0  0  0  0  0  0  0
  126.9180  123.3480   60.8390 N   0  0  0  0  0  0  0  0  0  0  0  0
  125.7320  123.8060   60.2360 C   0  0  0  0  0  0  0  0  0  0  0  0
  125.8410  124.2210   58.9070 C   0  0  0  0  0  0  0  0  0  0  0  0
  124.7230  124.6960   58.2260 C   0  0  0  0  0  0  0  0  0  0  0  0
  123.4950  124.7640   58.8790 C   0  0  0  0  0  0  0  0  0  0  0  0
  123.3770  124.3650   60.2080 C   0  0  0  0  0  0  0  0  0  0  0  0
  124.4910  123.8890   60.8910 C   0  0  0  0  0  0  0  0  0  0  0  0
  131.6870  123.6660   61.5440 N   0  0  0  0  0  0  0  0  0  0  0  0
  1  2  1  0
  2  3  2  0
  3  4  1  0
  4  5  1  0
  5  6  1  0
  5  7  1  0
  5  8  1  0
  4  9  2  0
  9 10  1  0
 10 11  3  0
  9 12  1  0
 12 13  1  0
 13 14  1  0
 14 15  1  0
 15 16  2  0
 15 17  1  0
 17 18  1  0
 18 19  2  0
 19 20  1  0
 20 21  2  0
 21 22  1  0
 22 23  2  0
 12 24  2  0
 24  2  1  0
 23 18  1  0
M  END
>  <Binding energies>  (20) 
[-6.53]

>  <Ligand effiencies>  (20) 
[-0.2612]

>  <Interactions>  (20) 
["V-A:ARG:545:CZ:4923, V-A:ARG:545:CG:4919, V-A:GLY:454:CA:4045, V-A:HIS:456:CE1:4066, V-A:GLY:454:C:4043, V-A:TYR:484:CZ:4343, V-B:ASP:366:CB:8180, V-B:ALA:541:CB:9861, V-A:ASP:366:CG:3209, V-A:ASP:366:CB:3208, H-A:TYR:484:OH:4344, V-A:ARG:545:CD:4920, V-A:GLY:453:C:4038, V-B:LEU:363:CD1:8157, V-B:PRO:540:CB:9854, V-B:LEU:363:CA:8153, V-B:PRO:540:CA:9852, V-A:GLY:453:CA:4040, V-B:LEU:363:CB:8155, V-B:ASN:362:C:8140, V-B:ASN:362:CB:8144, V-A:ASP:366:CA:3206, V-B:ASN:362:CA:8142, H-B:GLU:543:OE2:9879"]

$$$$
2e_Grossjean_2025
     RDKit          3D

 25 26  0  0  0  0  0  0  0  0999 V2000
  129.9410  128.1770   71.5600 C   0  0  0  0  0  0  0  0  0  0  0  0
  129.2320  127.4010   70.4670 C   0  0  0  0  0  0  0  0  0  0  0  0
  127.9100  126.9720   70.6130 C   0  0  0  0  0  0  0  0  0  0  0  0
  127.3190  126.2720   69.5600 C   0  0  0  0  0  0  0  0  0  0  0  0
  128.0550  126.0200   68.4000 C   0  0  0  0  0  0  0  0  0  0  0  0
  129.3780  126.4690   68.3230 C   0  0  0  0  0  0  0  0  0  0  0  0
  130.0570  126.2260   67.1170 N   0  0  0  0  0  0  0  0  0  0  0  0
  131.0910  126.9180   66.5890 C   0  0  0  0  0  0  0  0  0  0  0  0
  131.6640  127.8610   67.1380 O   0  0  0  0  0  0  0  0  0  0  0  0
  131.5240  126.4970   65.1810 C   0  0  0  0  0  0  0  0  0  0  0  0
  133.0450  125.4950   65.2050 S   0  0  0  0  0  0  0  0  0  0  0  0
  132.8690  124.3330   63.8690 C   0  0  0  0  0  0  0  0  0  0  0  0
  133.8800  124.3540   62.9650 N   0  0  0  0  0  0  0  0  0  0  0  0
  133.8040  123.5330   61.8930 C   0  0  0  0  0  0  0  0  0  0  0  0
  134.9680  123.6070   60.9230 C   0  0  0  0  0  0  0  0  0  0  0  0
  132.7280  122.6740   61.6780 C   0  0  0  0  0  0  0  0  0  0  0  0
  131.6700  122.6470   62.5990 C   0  0  0  0  0  0  0  0  0  0  0  0
  130.4780  121.7080   62.3360 C   0  0  0  0  0  0  0  0  0  0  0  0
  129.4090  122.4160   61.9700 F   0  0  0  0  0  0  0  0  0  0  0  0
  130.7810  120.8490   61.3620 F   0  0  0  0  0  0  0  0  0  0  0  0
  130.1380  120.9940   63.4110 F   0  0  0  0  0  0  0  0  0  0  0  0
  131.7370  123.4970   63.7300 C   0  0  0  0  0  0  0  0  0  0  0  0
  130.6500  123.5380   64.7130 C   0  0  0  0  0  0  0  0  0  0  0  0
  129.7910  123.5700   65.4890 N   0  0  0  0  0  0  0  0  0  0  0  0
  129.9600  127.1610   69.3460 N   0  0  0  0  0  0  0  0  0  0  0  0
  1  2  1  0
  2  3  2  0
  3  4  1  0
  4  5  2  0
  5  6  1  0
  6  7  1  0
  7  8  1  0
  8  9  2  0
  8 10  1  0
 10 11  1  0
 11 12  1  0
 12 13  2  0
 13 14  1  0
 14 15  1  0
 14 16  2  0
 16 17  1  0
 17 18  1  0
 18 19  1  0
 18 20  1  0
 18 21  1  0
 17 22  2  0
 22 23  1  0
 23 24  3  0
  6 25  2  0
 25  2  1  0
 22 12  1  0
M  END
>  <Binding energies>  (21) 
[-6.51]

>  <Ligand effiencies>  (21) 
[-0.25038461538461537]

>  <Interactions>  (21) 
["V-A:LEU:475:CD1:4254, V-A:ARG:545:CZ:4923, V-A:ILE:369:CB:3232, H-A:ARG:545:NH2:4925, H-A:GLY:454:N:4046, V-A:ILE:369:CG1:3234, V-A:GLY:454:CA:4045, V-B:TYR:539:CE2:9845, V-A:HIS:456:CE1:4066, V-A:GLU:543:CD:4905, V-A:TYR:484:CZ:4343, V-B:GLU:543:CA:9873, V-B:GLU:543:C:9871, V-B:GLU:543:CB:9875, V-B:HIS:456:CE1:9038, V-A:TYR:484:CE1:4341, V-B:GLY:544:C:9881, V-B:HIS:456:CD2:9036, V-B:TYR:539:CD2:9843, V-B:ALA:541:CB:9861, V-A:ASP:366:CG:3209, H-A:ARG:545:NE:4921, H-A:TYR:484:OH:4344, V-A:LEU:475:CD2:4255, V-A:GLY:453:C:4038, V-A:GLY:453:CA:4040, V-A:LEU:475:CG:4253, V-A:ASP:366:CA:3206"]

$$$$
2f_Grossjean_2025
     RDKit          3D

 24 25  0  0  0  0  0  0  0  0999 V2000
  134.6960  125.1110   65.8370 C   0  0  0  0  0  0  0  0  0  0  0  0
  133.3490  125.1170   65.1400 C   0  0  0  0  0  0  0  0  0  0  0  0
  132.3150  125.9530   65.5560 C   0  0  0  0  0  0  0  0  0  0  0  0
  131.0840  125.9160   64.8830 C   0  0  0  0  0  0  0  0  0  0  0  0
  129.9500  126.8400   65.3660 C   0  0  0  0  0  0  0  0  0  0  0  0
  129.4650  127.5450   64.3410 F   0  0  0  0  0  0  0  0  0  0  0  0
  128.9650  126.1130   65.8940 F   0  0  0  0  0  0  0  0  0  0  0  0
  130.3510  127.7100   66.2950 F   0  0  0  0  0  0  0  0  0  0  0  0
  130.9360  125.0260   63.7880 C   0  0  0  0  0  0  0  0  0  0  0  0
  129.6530  124.9100   63.0900 C   0  0  0  0  0  0  0  0  0  0  0  0
  128.6400  124.8200   62.5380 N   0  0  0  0  0  0  0  0  0  0  0  0
  132.0490  124.2330   63.4200 C   0  0  0  0  0  0  0  0  0  0  0  0
  132.0460  123.0730   62.0670 S   0  0  0  0  0  0  0  0  0  0  0  0
  130.8410  121.7570   62.4540 C   0  0  0  0  0  0  0  0  0  0  0  0
  129.8150  121.4690   61.3490 C   0  0  0  0  0  0  0  0  0  0  0  0
  129.5700  120.3120   61.0050 O   0  0  0  0  0  0  0  0  0  0  0  0
  129.2510  122.5710   60.8070 N   0  0  0  0  0  0  0  0  0  0  0  0
  128.2780  122.6720   59.7950 C   0  0  0  0  0  0  0  0  0  0  0  0
  127.0250  123.2990   59.9260 C   0  0  0  0  0  0  0  0  0  0  0  0
  126.1520  123.3340   58.8370 C   0  0  0  0  0  0  0  0  0  0  0  0
  126.5550  122.7440   57.6390 C   0  0  0  0  0  0  0  0  0  0  0  0
  127.7610  122.1400   57.4840 N   0  0  0  0  0  0  0  0  0  0  0  0
  128.5990  122.1150   58.5520 C   0  0  0  0  0  0  0  0  0  0  0  0
  133.2230  124.2660   64.0960 N   0  0  0  0  0  0  0  0  0  0  0  0
  1  2  1  0
  2  3  2  0
  3  4  1  0
  4  5  1  0
  5  6  1  0
  5  7  1  0
  5  8  1  0
  4  9  2  0
  9 10  1  0
 10 11  3  0
  9 12  1  0
 12 13  1  0
 13 14  1  0
 14 15  1  0
 15 16  2  0
 15 17  1  0
 17 18  1  0
 18 19  2  0
 19 20  1  0
 20 21  2  0
 21 22  1  0
 22 23  2  0
 12 24  2  0
 24  2  1  0
 23 18  1  0
M  END
>  <Binding energies>  (22) 
[-5.79]

>  <Ligand effiencies>  (22) 
[-0.2316]

>  <Interactions>  (22) 
["V-A:LEU:475:CD1:4254, V-B:GLU:543:CD:9877, V-A:ARG:545:CZ:4923, H-A:GLY:454:N:4046, V-A:ARG:545:CG:4919, V-A:GLY:454:CA:4045, V-B:TYR:539:CE2:9845, V-A:HIS:456:CE1:4066, V-A:GLY:454:C:4043, V-A:GLU:543:CD:4905, V-A:GLU:543:CG:4904, V-B:GLU:543:CB:9875, V-A:GLU:543:CB:4903, V-B:GLU:543:CG:9876, V-B:TYR:539:CZ:9846, V-B:TYR:539:CD2:9843, V-B:ALA:541:CB:9861, V-B:TYR:539:C:9836, H-A:TYR:484:OH:4344, V-A:ARG:545:CD:4920, V-B:PRO:540:N:9853, V-A:GLY:453:C:4038, V-B:PRO:540:CB:9854, V-B:PRO:540:CA:9852, V-A:GLY:453:CA:4040, H-B:TYR:539:N:9839, V-B:TYR:539:CD1:9842, V-B:TYR:539:CG:9841, V-B:TYR:539:CE1:9844"]

$$$$
2g_Grossjean_2025
     RDKit          3D

 25 26  0  0  0  0  0  0  0  0999 V2000
  135.0340  123.5910   60.7710 C   0  0  0  0  0  0  0  0  0  0  0  0
  133.8440  123.3060   61.6670 C   0  0  0  0  0  0  0  0  0  0  0  0
  132.8790  122.3640   61.3200 C   0  0  0  0  0  0  0  0  0  0  0  0
  131.7920  122.1410   62.1800 C   0  0  0  0  0  0  0  0  0  0  0  0
  130.7300  121.1010   61.7750 C   0  0  0  0  0  0  0  0  0  0  0  0
  129.8080  121.6620   60.9900 F   0  0  0  0  0  0  0  0  0  0  0  0
  131.3090  120.0980   61.1130 F   0  0  0  0  0  0  0  0  0  0  0  0
  130.0940  120.5770   62.8250 F   0  0  0  0  0  0  0  0  0  0  0  0
  131.7180  122.8840   63.3860 C   0  0  0  0  0  0  0  0  0  0  0  0
  130.5750  122.7320   64.2900 C   0  0  0  0  0  0  0  0  0  0  0  0
  129.6720  122.6100   65.0040 N   0  0  0  0  0  0  0  0  0  0  0  0
  132.7610  123.7990   63.6690 C   0  0  0  0  0  0  0  0  0  0  0  0
  132.8370  124.7920   65.1440 S   0  0  0  0  0  0  0  0  0  0  0  0
  131.7850  126.2580   64.8740 C   0  0  0  0  0  0  0  0  0  0  0  0
  130.4900  126.2800   65.6970 C   0  0  0  0  0  0  0  0  0  0  0  0
  129.7980  125.2690   65.8310 O   0  0  0  0  0  0  0  0  0  0  0  0
  130.1730  127.4670   66.2450 N   0  0  0  0  0  0  0  0  0  0  0  0
  128.9980  127.7330   67.0750 C   0  0  0  0  0  0  0  0  0  0  0  0
  129.1740  127.3770   68.5480 C   0  0  0  0  0  0  0  0  0  0  0  0
  130.2220  127.9450   69.2800 C   0  0  0  0  0  0  0  0  0  0  0  0
  130.3620  127.6510   70.6340 C   0  0  0  0  0  0  0  0  0  0  0  0
  129.4510  126.8000   71.2540 C   0  0  0  0  0  0  0  0  0  0  0  0
  128.3970  126.2410   70.5320 C   0  0  0  0  0  0  0  0  0  0  0  0
  128.2560  126.5350   69.1790 C   0  0  0  0  0  0  0  0  0  0  0  0
  133.7920  124.0180   62.8160 N   0  0  0  0  0  0  0  0  0  0  0  0
  1  2  1  0
  2  3  2  0
  3  4  1  0
  4  5  1  0
  5  6  1  0
  5  7  1  0
  5  8  1  0
  4  9  2  0
  9 10  1  0
 10 11  3  0
  9 12  1  0
 12 13  1  0
 13 14  1  0
 14 15  1  0
 15 16  2  0
 15 17  1  0
 17 18  1  0
 18 19  1  0
 19 20  2  0
 20 21  1  0
 21 22  2  0
 22 23  1  0
 23 24  2  0
 12 25  2  0
 25  2  1  0
 24 19  1  0
M  END
>  <Binding energies>  (23) 
[-6.87]

>  <Ligand effiencies>  (23) 
[-0.2642307692307692]

>  <Interactions>  (23) 
["V-A:LEU:475:CD1:4254, H-A:GLU:543:OE1:4906, V-A:ARG:545:CZ:4923, V-A:ILE:369:CB:3232, H-A:GLU:543:OE2:4907, H-A:GLY:454:N:4046, V-A:ILE:369:CG1:3234, V-A:GLY:454:CA:4045, V-B:TYR:539:CE2:9845, V-A:HIS:456:CE1:4066, V-A:GLU:543:CD:4905, V-A:TYR:484:CZ:4343, V-B:HIS:456:CE1:9038, V-A:TYR:484:CE1:4341, V-A:HIS:456:CD2:4064, V-A:GLU:543:CB:4903, V-B:TYR:539:CD2:9843, V-B:ALA:541:CB:9861, V-A:ASP:366:CG:3209, H-A:TYR:484:OH:4344, V-A:GLU:543:C:4899, V-A:LEU:475:CD2:4255, V-A:GLY:453:CA:4040, V-A:LEU:475:CG:4253, V-A:ASP:366:CA:3206"]

$$$$
2h_Grossjean_2025
     RDKit          3D

 31 32  0  0  0  0  0  0  0  0999 V2000
  129.5370  125.5990   72.8200 C   0  0  0  0  0  0  0  0  0  0  0  0
  128.4960  126.3440   72.1990 O   0  0  0  0  0  0  0  0  0  0  0  0
  128.5290  126.5470   70.8300 C   0  0  0  0  0  0  0  0  0  0  0  0
  127.6630  125.9160   69.9230 C   0  0  0  0  0  0  0  0  0  0  0  0
  127.7510  126.1770   68.5580 C   0  0  0  0  0  0  0  0  0  0  0  0
  128.7040  127.0720   68.0680 C   0  0  0  0  0  0  0  0  0  0  0  0
  128.7690  127.3580   66.5690 C   0  0  0  0  0  0  0  0  0  0  0  0
  130.1180  127.2620   66.0110 N   0  0  0  0  0  0  0  0  0  0  0  0
  130.8990  126.1690   66.0670 C   0  0  0  0  0  0  0  0  0  0  0  0
  130.5840  125.1440   66.6760 O   0  0  0  0  0  0  0  0  0  0  0  0
  132.2290  126.2650   65.3070 C   0  0  0  0  0  0  0  0  0  0  0  0
  133.1930  124.7180   65.2390 S   0  0  0  0  0  0  0  0  0  0  0  0
  132.8390  123.9610   63.6680 C   0  0  0  0  0  0  0  0  0  0  0  0
  133.8670  124.0300   62.7860 N   0  0  0  0  0  0  0  0  0  0  0  0
  133.6990  123.5020   61.5530 C   0  0  0  0  0  0  0  0  0  0  0  0
  134.8860  123.6220   60.6170 C   0  0  0  0  0  0  0  0  0  0  0  0
  132.5150  122.8840   61.1540 C   0  0  0  0  0  0  0  0  0  0  0  0
  131.4490  122.7840   62.0600 C   0  0  0  0  0  0  0  0  0  0  0  0
  130.1510  122.0890   61.6040 C   0  0  0  0  0  0  0  0  0  0  0  0
  130.1470  120.8200   62.0120 F   0  0  0  0  0  0  0  0  0  0  0  0
  129.0540  122.6710   62.0950 F   0  0  0  0  0  0  0  0  0  0  0  0
  130.0590  122.1170   60.2740 F   0  0  0  0  0  0  0  0  0  0  0  0
  131.6120  123.3270   63.3600 C   0  0  0  0  0  0  0  0  0  0  0  0
  130.5500  123.1970   64.3620 C   0  0  0  0  0  0  0  0  0  0  0  0
  129.7120  123.0900   65.1520 N   0  0  0  0  0  0  0  0  0  0  0  0
  129.5920  127.6920   68.9610 C   0  0  0  0  0  0  0  0  0  0  0  0
  130.5350  128.5720   68.4850 O   0  0  0  0  0  0  0  0  0  0  0  0
  131.8770  128.1200   68.6160 C   0  0  0  0  0  0  0  0  0  0  0  0
  129.4890  127.4420   70.3400 C   0  0  0  0  0  0  0  0  0  0  0  0
  130.3450  128.0620   71.2180 O   0  0  0  0  0  0  0  0  0  0  0  0
  129.7340  129.0730   72.0080 C   0  0  0  0  0  0  0  0  0  0  0  0
  1  2  1  0
  2  3  1  0
  3  4  2  0
  4  5  1  0
  5  6  2  0
  6  7  1  0
  7  8  1  0
  8  9  1  0
  9 10  2  0
  9 11  1  0
 11 12  1  0
 12 13  1  0
 13 14  2  0
 14 15  1  0
 15 16  1  0
 15 17  2  0
 17 18  1  0
 18 19  1  0
 19 20  1  0
 19 21  1  0
 19 22  1  0
 18 23  2  0
 23 24  1  0
 24 25  3  0
  6 26  1  0
 26 27  1  0
 27 28  1  0
 26 29  2  0
 29 30  1  0
 30 31  1  0
 29  3  1  0
 23 13  1  0
M  END
>  <Binding energies>  (24) 
[-5.92]

>  <Ligand effiencies>  (24) 
[-0.185]

>  <Interactions>  (24) 
["V-A:LEU:475:CD1:4254, H-A:GLU:543:OE1:4906, V-A:ARG:545:CZ:4923, V-A:ILE:369:CB:3232, H-A:GLU:543:OE2:4907, H-A:GLY:454:N:4046, V-A:ARG:545:CG:4919, V-A:ILE:369:CG1:3234, V-A:GLY:454:CA:4045, V-B:TYR:539:CE2:9845, V-A:HIS:456:CE1:4066, V-A:GLU:543:CD:4905, V-B:GLU:543:CA:9873, V-B:GLU:543:C:9871, V-B:GLU:543:CB:9875, V-B:HIS:456:CE1:9038, V-A:TYR:484:CE1:4341, V-B:GLY:544:C:9881, V-A:HIS:456:CD2:4064, V-B:HIS:456:CD2:9036, V-A:GLU:543:CB:4903, V-B:TYR:539:CZ:9846, V-B:TYR:539:CD2:9843, V-B:ALA:541:CB:9861, V-A:ASP:366:CG:3209, V-A:ASP:366:CB:3208, H-A:TYR:484:OH:4344, V-A:ARG:545:CD:4920, V-B:LYS:547:CE:9919, V-A:LYS:547:CE:4947, V-A:GLU:543:C:4899, H-A:LYS:547:NZ:4948, V-A:GLY:544:C:4909, V-A:ARG:545:CA:4916, V-B:GLY:544:CA:9883, V-A:ASP:366:CA:3206"]

$$$$
2i_Grossjean_2025
     RDKit          3D

 23 24  0  0  0  0  0  0  0  0999 V2000
  133.8170  123.6190   60.0960 C   0  0  0  0  0  0  0  0  0  0  0  0
  133.0910  123.8590   61.4060 C   0  0  0  0  0  0  0  0  0  0  0  0
  133.7540  124.3410   62.5310 C   0  0  0  0  0  0  0  0  0  0  0  0
  133.0370  124.5480   63.7190 C   0  0  0  0  0  0  0  0  0  0  0  0
  133.7870  125.0810   64.9540 C   0  0  0  0  0  0  0  0  0  0  0  0
  133.1170  126.1030   65.4890 F   0  0  0  0  0  0  0  0  0  0  0  0
  133.9080  124.1170   65.8680 F   0  0  0  0  0  0  0  0  0  0  0  0
  135.0160  125.5150   64.6650 F   0  0  0  0  0  0  0  0  0  0  0  0
  131.6490  124.2560   63.7310 C   0  0  0  0  0  0  0  0  0  0  0  0
  130.8510  124.4560   64.9450 C   0  0  0  0  0  0  0  0  0  0  0  0
  130.2200  124.6130   65.9030 N   0  0  0  0  0  0  0  0  0  0  0  0
  131.0560  123.7680   62.5440 C   0  0  0  0  0  0  0  0  0  0  0  0
  129.3210  123.3600   62.4440 S   0  0  0  0  0  0  0  0  0  0  0  0
  129.0620  122.3550   60.9510 C   0  0  0  0  0  0  0  0  0  0  0  0
  127.6790  122.5790   60.3350 C   0  0  0  0  0  0  0  0  0  0  0  0
  127.4530  122.1530   59.2010 O   0  0  0  0  0  0  0  0  0  0  0  0
  126.8010  123.2680   61.0950 N   0  0  0  0  0  0  0  0  0  0  0  0
  125.5030  123.6100   60.7540 C   0  0  0  0  0  0  0  0  0  0  0  0
  125.0300  124.5920   59.8710 C   0  0  0  0  0  0  0  0  0  0  0  0
  123.6600  124.4800   59.9260 C   0  0  0  0  0  0  0  0  0  0  0  0
  123.3300  123.4860   60.7850 O   0  0  0  0  0  0  0  0  0  0  0  0
  124.5090  122.9410   61.2970 N   0  0  0  0  0  0  0  0  0  0  0  0
  131.7690  123.5760   61.4040 N   0  0  0  0  0  0  0  0  0  0  0  0
  1  2  1  0
  2  3  2  0
  3  4  1  0
  4  5  1  0
  5  6  1  0
  5  7  1  0
  5  8  1  0
  4  9  2  0
  9 10  1  0
 10 11  3  0
  9 12  1  0
 12 13  1  0
 13 14  1  0
 14 15  1  0
 15 16  2  0
 15 17  1  0
 17 18  1  0
 18 19  1  0
 19 20  2  0
 20 21  1  0
 21 22  1  0
 12 23  2  0
 23  2  1  0
 22 18  2  0
M  END
>  <Binding energies>  (25) 
[-6.55]

>  <Ligand effiencies>  (25) 
[-0.27291666666666664]

>  <Interactions>  (25) 
["V-B:GLU:543:CD:9877, V-A:ARG:545:CZ:4923, V-A:ILE:369:CB:3232, V-A:ARG:545:CG:4919, V-A:ILE:369:CG2:3233, V-A:GLY:454:CA:4045, V-B:TYR:539:CE2:9845, V-A:HIS:456:CE1:4066, V-A:GLY:454:C:4043, V-A:TYR:484:CZ:4343, H-B:ALA:541:N:9860, V-B:ALA:541:CB:9861, V-A:ASP:366:CG:3209, V-A:ASP:366:CB:3208, H-A:TYR:484:OH:4344, V-A:ARG:545:CD:4920, V-A:GLY:453:C:4038, V-B:PRO:540:CB:9854, V-B:LEU:363:CA:8153, V-B:PRO:540:C:9850, V-B:PRO:540:CA:9852, V-A:GLY:453:CA:4040, V-B:ASN:362:C:8140, V-B:ASN:362:CB:8144, V-A:ASP:366:CA:3206, H-B:GLU:543:OE2:9879, H-B:LEU:363:N:8154"]

$$$$
2k_Grossjean_2025
     RDKit          3D

 28 28  0  0  0  0  0  0  0  0999 V2000
  123.7380  123.6290   60.6730 C   0  0  0  0  0  0  0  0  0  0  0  0
  124.9730  123.0860   61.1110 O   0  0  0  0  0  0  0  0  0  0  0  0
  126.1070  123.8060   60.6430 C   0  0  0  0  0  0  0  0  0  0  0  0
  127.3810  123.2400   61.2830 C   0  0  0  0  0  0  0  0  0  0  0  0
  127.8050  122.1040   60.5430 O   0  0  0  0  0  0  0  0  0  0  0  0
  128.9940  122.3080   59.7900 C   0  0  0  0  0  0  0  0  0  0  0  0
  130.0500  122.9340   60.7110 C   0  0  0  0  0  0  0  0  0  0  0  0
  130.6390  121.8900   61.4690 O   0  0  0  0  0  0  0  0  0  0  0  0
  131.9130  122.1890   62.0200 C   0  0  0  0  0  0  0  0  0  0  0  0
  132.1690  123.7020   61.8950 C   0  0  0  0  0  0  0  0  0  0  0  0
  132.0180  124.4150   63.1650 N   0  0  0  0  0  0  0  0  0  0  0  0
  133.0260  124.8750   63.9310 C   0  0  0  0  0  0  0  0  0  0  0  0
  134.2140  124.7690   63.6220 O   0  0  0  0  0  0  0  0  0  0  0  0
  132.6100  125.5380   65.2520 C   0  0  0  0  0  0  0  0  0  0  0  0
  130.9060  125.1820   65.8050 S   0  0  0  0  0  0  0  0  0  0  0  0
  129.7690  126.2810   64.9700 C   0  0  0  0  0  0  0  0  0  0  0  0
  129.5740  126.0340   63.6500 N   0  0  0  0  0  0  0  0  0  0  0  0
  128.7300  126.8290   62.9550 C   0  0  0  0  0  0  0  0  0  0  0  0
  128.5750  126.4960   61.4840 C   0  0  0  0  0  0  0  0  0  0  0  0
  128.0410  127.8870   63.5410 C   0  0  0  0  0  0  0  0  0  0  0  0
  128.2210  128.1550   64.9060 C   0  0  0  0  0  0  0  0  0  0  0  0
  127.4460  129.3270   65.5400 C   0  0  0  0  0  0  0  0  0  0  0  0
  128.1990  130.0590   66.3630 F   0  0  0  0  0  0  0  0  0  0  0  0
  126.9880  130.1400   64.5870 F   0  0  0  0  0  0  0  0  0  0  0  0
  126.4140  128.8630   66.2460 F   0  0  0  0  0  0  0  0  0  0  0  0
  129.1100  127.3340   65.6460 C   0  0  0  0  0  0  0  0  0  0  0  0
  129.3390  127.5720   67.0750 C   0  0  0  0  0  0  0  0  0  0  0  0
  129.5190  127.7590   68.2030 N   0  0  0  0  0  0  0  0  0  0  0  0
  1  2  1  0
  2  3  1  0
  3  4  1  0
  4  5  1  0
  5  6  1  0
  6  7  1  0
  7  8  1  0
  8  9  1  0
  9 10  1  0
 10 11  1  0
 11 12  1  0
 12 13  2  0
 12 14  1  0
 14 15  1  0
 15 16  1  0
 16 17  2  0
 17 18  1  0
 18 19  1  0
 18 20  2  0
 20 21  1  0
 21 22  1  0
 22 23  1  0
 22 24  1  0
 22 25  1  0
 21 26  2  0
 26 27  1  0
 27 28  3  0
 26 16  1  0
M  END
>  <Binding energies>  (26) 
[-4.68]

>  <Ligand effiencies>  (26) 
[-0.16137931034482758]

>  <Interactions>  (26) 
["V-A:LEU:475:CD1:4254, V-B:GLU:543:CD:9877, V-A:ARG:545:CZ:4923, H-A:ARG:545:NH2:4925, H-A:ARG:545:NH1:4924, H-A:GLY:454:N:4046, V-B:TYR:539:CE2:9845, V-A:HIS:456:CE1:4066, V-A:GLU:543:CD:4905, V-A:GLU:543:CG:4904, V-B:HIS:456:CE1:9038, V-A:GLU:543:CB:4903, V-B:TYR:539:CZ:9846, H-B:ALA:541:N:9860, V-B:TYR:539:CD2:9843, V-B:ALA:541:CB:9861, H-A:TYR:484:OH:4344, V-A:GLU:543:CA:4901, V-B:PRO:540:CB:9854, V-B:LEU:363:CA:8153, V-B:PRO:540:CA:9852, V-B:TYR:484:CE1:9313, V-B:ASN:362:C:8140, V-B:ASN:362:CB:8144"]

$$$$
3aa_Grossjean_2025
     RDKit          3D

 34 36  0  0  0  0  0  0  0  0999 V2000
  124.9930  127.7460   73.8800 C   0  0  0  0  0  0  0  0  0  0  0  0
  126.4900  128.0570   73.7870 C   0  0  0  0  0  0  0  0  0  0  0  0
  127.0880  127.2180   72.8050 O   0  0  0  0  0  0  0  0  0  0  0  0
  128.4090  127.3190   72.5110 C   0  0  0  0  0  0  0  0  0  0  0  0
  129.2810  127.5300   73.3600 O   0  0  0  0  0  0  0  0  0  0  0  0
  128.7050  127.1650   71.0470 C   0  0  0  0  0  0  0  0  0  0  0  0
  127.9070  126.3730   70.2070 C   0  0  0  0  0  0  0  0  0  0  0  0
  128.2080  126.2560   68.8520 C   0  0  0  0  0  0  0  0  0  0  0  0
  129.3030  126.9290   68.3090 C   0  0  0  0  0  0  0  0  0  0  0  0
  129.5160  126.7460   66.9280 N   0  0  0  0  0  0  0  0  0  0  0  0
  130.6410  126.9170   66.2000 C   0  0  0  0  0  0  0  0  0  0  0  0
  131.7240  127.3060   66.6400 O   0  0  0  0  0  0  0  0  0  0  0  0
  130.5160  126.6050   64.7090 C   0  0  0  0  0  0  0  0  0  0  0  0
  129.9900  124.8880   64.4210 S   0  0  0  0  0  0  0  0  0  0  0  0
  130.8340  124.3220   62.9610 C   0  0  0  0  0  0  0  0  0  0  0  0
  130.0040  124.0450   61.9270 N   0  0  0  0  0  0  0  0  0  0  0  0
  130.5190  123.6020   60.7510 C   0  0  0  0  0  0  0  0  0  0  0  0
  129.5380  123.3320   59.6500 C   0  0  0  0  0  0  0  0  0  0  0  0
  129.6170  124.0310   58.4350 C   0  0  0  0  0  0  0  0  0  0  0  0
  128.7100  123.7850   57.4070 C   0  0  0  0  0  0  0  0  0  0  0  0
  127.7090  122.8350   57.5830 C   0  0  0  0  0  0  0  0  0  0  0  0
  127.6100  122.1280   58.7760 C   0  0  0  0  0  0  0  0  0  0  0  0
  128.5200  122.3740   59.8010 C   0  0  0  0  0  0  0  0  0  0  0  0
  131.8980  123.4340   60.5880 C   0  0  0  0  0  0  0  0  0  0  0  0
  132.7760  123.6970   61.6510 C   0  0  0  0  0  0  0  0  0  0  0  0
  134.2860  123.4880   61.4350 C   0  0  0  0  0  0  0  0  0  0  0  0
  135.0320  124.3530   62.1260 F   0  0  0  0  0  0  0  0  0  0  0  0
  134.6410  122.2620   61.8200 F   0  0  0  0  0  0  0  0  0  0  0  0
  134.5860  123.6400   60.1450 F   0  0  0  0  0  0  0  0  0  0  0  0
  132.2330  124.1430   62.8800 C   0  0  0  0  0  0  0  0  0  0  0  0
  133.0960  124.3780   64.0410 C   0  0  0  0  0  0  0  0  0  0  0  0
  133.7780  124.5630   64.9590 N   0  0  0  0  0  0  0  0  0  0  0  0
  130.1130  127.7110   69.1460 C   0  0  0  0  0  0  0  0  0  0  0  0
  129.8130  127.8260   70.4990 C   0  0  0  0  0  0  0  0  0  0  0  0
  1  2  1  0
  2  3  1  0
  3  4  1  0
  4  5  2  0
  4  6  1  0
  6  7  2  0
  7  8  1  0
  8  9  2  0
  9 10  1  0
 10 11  1  0
 11 12  2  0
 11 13  1  0
 13 14  1  0
 14 15  1  0
 15 16  2  0
 16 17  1  0
 17 18  1  0
 18 19  2  0
 19 20  1  0
 20 21  2  0
 21 22  1  0
 22 23  2  0
 17 24  2  0
 24 25  1  0
 25 26  1  0
 26 27  1  0
 26 28  1  0
 26 29  1  0
 25 30  2  0
 30 31  1  0
 31 32  3  0
  9 33  1  0
 33 34  2  0
 34  6  1  0
 30 15  1  0
 23 18  1  0
M  END
>  <Binding energies>  (27) 
[-8.73]

>  <Ligand effiencies>  (27) 
[-0.24942857142857144]

>  <Interactions>  (27) 
["V-A:ILE:369:CB:3232, H-A:GLY:454:N:4046, V-A:ILE:369:CG1:3234, V-A:ILE:369:CG2:3233, V-A:GLY:454:CA:4045, V-B:TYR:539:CE2:9845, V-A:HIS:456:CE1:4066, V-A:GLU:543:CD:4905, V-B:GLU:543:C:9871, V-B:GLU:543:CB:9875, V-B:HIS:456:CE1:9038, V-B:GLY:544:C:9881, V-B:HIS:456:CD2:9036, V-B:TYR:539:CZ:9846, V-B:TYR:539:CD2:9843, V-A:ASP:366:CG:3209, V-B:TYR:539:C:9836, V-A:ASP:366:CB:3208, H-A:ARG:545:NE:4921, H-A:TYR:484:OH:4344, H-B:GLU:543:OE1:9878, V-B:LYS:547:CE:9919, V-B:HIS:456:CG:9034, V-B:HIS:456:CB:9033, V-B:LYS:547:CD:9918, H-A:LYS:547:NZ:4948, V-B:PRO:540:N:9853, V-A:GLY:453:C:4038, V-B:PRO:540:CA:9852, V-A:GLY:453:CA:4040, V-A:ASP:366:CA:3206, V-B:TYR:539:CE1:9844"]

$$$$
3ad_Grossjean_2025
     RDKit          3D

 29 31  0  0  0  0  0  0  0  0999 V2000
  128.3140  127.9980   62.4960 N   0  0  0  0  0  0  0  0  0  0  0  0
  128.4850  127.8280   63.6280 C   0  0  0  0  0  0  0  0  0  0  0  0
  128.7050  127.6100   65.0610 C   0  0  0  0  0  0  0  0  0  0  0  0
  129.3870  126.4590   65.5220 C   0  0  0  0  0  0  0  0  0  0  0  0
  129.9730  125.4010   64.5680 C   0  0  0  0  0  0  0  0  0  0  0  0
  130.9910  125.8660   63.8400 F   0  0  0  0  0  0  0  0  0  0  0  0
  130.4230  124.3570   65.2670 F   0  0  0  0  0  0  0  0  0  0  0  0
  129.0350  124.9790   63.7180 F   0  0  0  0  0  0  0  0  0  0  0  0
  129.5300  126.2740   66.9060 C   0  0  0  0  0  0  0  0  0  0  0  0
  129.0040  127.2090   67.8030 C   0  0  0  0  0  0  0  0  0  0  0  0
  129.1150  127.0530   69.2900 C   0  0  0  0  0  0  0  0  0  0  0  0
  128.2110  126.2440   69.9960 C   0  0  0  0  0  0  0  0  0  0  0  0
  128.3090  126.0940   71.3760 C   0  0  0  0  0  0  0  0  0  0  0  0
  129.3170  126.7540   72.0730 C   0  0  0  0  0  0  0  0  0  0  0  0
  130.2270  127.5590   71.3970 C   0  0  0  0  0  0  0  0  0  0  0  0
  130.1260  127.7060   70.0150 C   0  0  0  0  0  0  0  0  0  0  0  0
  128.3460  128.3080   67.3560 N   0  0  0  0  0  0  0  0  0  0  0  0
  128.2130  128.5190   66.0250 C   0  0  0  0  0  0  0  0  0  0  0  0
  127.3350  130.0130   65.6230 S   0  0  0  0  0  0  0  0  0  0  0  0
  125.6040  129.5540   65.3120 C   0  0  0  0  0  0  0  0  0  0  0  0
  124.9320  130.4850   64.3000 C   0  0  0  0  0  0  0  0  0  0  0  0
  123.7590  130.2800   63.9860 O   0  0  0  0  0  0  0  0  0  0  0  0
  125.7090  131.4810   63.8240 N   0  0  0  0  0  0  0  0  0  0  0  0
  125.4020  132.5030   62.9060 C   0  0  0  0  0  0  0  0  0  0  0  0
  126.4880  133.0230   62.1940 C   0  0  0  0  0  0  0  0  0  0  0  0
  126.2960  134.0400   61.2630 C   0  0  0  0  0  0  0  0  0  0  0  0
  125.0160  134.5430   61.0460 C   0  0  0  0  0  0  0  0  0  0  0  0
  123.9280  134.0400   61.7530 C   0  0  0  0  0  0  0  0  0  0  0  0
  124.1150  133.0220   62.6850 C   0  0  0  0  0  0  0  0  0  0  0  0
  1  2  3  0
  2  3  1  0
  3  4  2  0
  4  5  1  0
  5  6  1  0
  5  7  1  0
  5  8  1  0
  4  9  1  0
  9 10  2  0
 10 11  1  0
 11 12  2  0
 12 13  1  0
 13 14  2  0
 14 15  1  0
 15 16  2  0
 10 17  1  0
 17 18  2  0
 18 19  1  0
 19 20  1  0
 20 21  1  0
 21 22  2  0
 21 23  1  0
 23 24  1  0
 24 25  2  0
 25 26  1  0
 26 27  2  0
 27 28  1  0
 28 29  2  0
 18  3  1  0
 29 24  1  0
 16 11  1  0
M  END
>  <Binding energies>  (28) 
[-7.71]

>  <Ligand effiencies>  (28) 
[-0.257]

>  <Interactions>  (28) 
["V-B:GLU:543:CD:9877, V-A:HIS:456:CE1:4066, V-A:GLU:543:CD:4905, V-A:GLU:543:CG:4904, V-A:TYR:484:CZ:4343, V-B:GLU:543:C:9871, V-B:GLU:543:CB:9875, V-B:HIS:456:CE1:9038, V-A:TYR:484:CE1:4341, V-B:GLY:544:C:9881, V-A:HIS:456:CD2:4064, V-A:GLU:543:CB:4903, V-B:GLU:543:CG:9876, V-B:ILE:369:CD1:8207, V-B:ILE:369:CG2:8205, V-B:TRP:381:CH2:8340, V-B:GLY:454:CA:9017, H-B:TYR:484:OH:9316, V-B:LEU:475:CD2:9227, V-B:LYS:547:CE:9919, H-B:GLY:454:N:9018, H-B:ARG:545:NH1:9896"]

$$$$
3ai_Grossjean_2025
     RDKit          3D

 28 30  0  0  0  0  0  0  0  0999 V2000
  133.4810  123.0670   61.7000 N   0  0  0  0  0  0  0  0  0  0  0  0
  132.7490  123.8240   62.1790 C   0  0  0  0  0  0  0  0  0  0  0  0
  131.8230  124.7850   62.7870 C   0  0  0  0  0  0  0  0  0  0  0  0
  132.1150  125.3790   64.0390 C   0  0  0  0  0  0  0  0  0  0  0  0
  133.4200  125.0990   64.8080 C   0  0  0  0  0  0  0  0  0  0  0  0
  133.5110  125.7940   65.9440 F   0  0  0  0  0  0  0  0  0  0  0  0
  133.4930  123.8040   65.1230 F   0  0  0  0  0  0  0  0  0  0  0  0
  134.4740  125.4220   64.0580 F   0  0  0  0  0  0  0  0  0  0  0  0
  131.1740  126.2550   64.6010 C   0  0  0  0  0  0  0  0  0  0  0  0
  129.9750  126.5280   63.9350 C   0  0  0  0  0  0  0  0  0  0  0  0
  128.9300  127.4460   64.4940 C   0  0  0  0  0  0  0  0  0  0  0  0
  128.8950  127.7400   65.8660 C   0  0  0  0  0  0  0  0  0  0  0  0
  127.9300  128.5960   66.3910 C   0  0  0  0  0  0  0  0  0  0  0  0
  126.9860  129.1720   65.5480 C   0  0  0  0  0  0  0  0  0  0  0  0
  127.0000  128.8990   64.1840 C   0  0  0  0  0  0  0  0  0  0  0  0
  127.9660  128.0430   63.6630 C   0  0  0  0  0  0  0  0  0  0  0  0
  129.6950  125.9490   62.7390 N   0  0  0  0  0  0  0  0  0  0  0  0
  130.5980  125.1180   62.1650 C   0  0  0  0  0  0  0  0  0  0  0  0
  130.0690  124.4740   60.5920 S   0  0  0  0  0  0  0  0  0  0  0  0
  129.2430  122.8740   60.8920 C   0  0  0  0  0  0  0  0  0  0  0  0
  127.8120  122.7690   60.3420 C   0  0  0  0  0  0  0  0  0  0  0  0
  127.5650  122.0670   59.3580 O   0  0  0  0  0  0  0  0  0  0  0  0
  126.8940  123.4960   61.0170 N   0  0  0  0  0  0  0  0  0  0  0  0
  125.5340  123.5880   60.7520 C   0  0  0  0  0  0  0  0  0  0  0  0
  125.0030  124.4220   59.7690 C   0  0  0  0  0  0  0  0  0  0  0  0
  123.6430  124.2250   59.8260 C   0  0  0  0  0  0  0  0  0  0  0  0
  123.3680  123.3180   60.7940 O   0  0  0  0  0  0  0  0  0  0  0  0
  124.5740  122.9220   61.3730 N   0  0  0  0  0  0  0  0  0  0  0  0
  1  2  3  0
  2  3  1  0
  3  4  2  0
  4  5  1  0
  5  6  1  0
  5  7  1  0
  5  8  1  0
  4  9  1  0
  9 10  2  0
 10 11  1  0
 11 12  2  0
 12 13  1  0
 13 14  2  0
 14 15  1  0
 15 16  2  0
 10 17  1  0
 17 18  2  0
 18 19  1  0
 19 20  1  0
 20 21  1  0
 21 22  2  0
 21 23  1  0
 23 24  1  0
 24 25  1  0
 25 26  2  0
 26 27  1  0
 27 28  1  0
 18  3  1  0
 28 24  2  0
 16 11  1  0
M  END
>  <Binding energies>  (29) 
[-7.29]

>  <Ligand effiencies>  (29) 
[-0.2513793103448276]

>  <Interactions>  (29) 
["V-B:GLU:543:CD:9877, V-A:ARG:545:CZ:4923, H-A:GLY:454:N:4046, V-A:ARG:545:CG:4919, V-A:GLY:454:CA:4045, V-B:TYR:539:CE2:9845, V-A:HIS:456:CE1:4066, V-A:GLY:454:C:4043, V-A:GLU:543:CD:4905, V-A:TYR:484:CZ:4343, V-B:HIS:456:CE1:9038, H-B:ALA:541:N:9860, V-B:ALA:541:CB:9861, V-A:ARG:545:CD:4920, V-A:GLY:453:C:4038, V-B:PRO:540:CB:9854, V-B:LEU:363:CA:8153, V-B:PRO:540:CA:9852, V-A:GLY:453:CA:4040, V-B:ASN:362:C:8140, H-B:GLU:543:OE2:9879, H-B:LEU:363:N:8154"]

$$$$
3aj_Grossjean_2025
     RDKit          3D

 28 30  0  0  0  0  0  0  0  0999 V2000
  133.8680  123.0340   62.1560 N   0  0  0  0  0  0  0  0  0  0  0  0
  133.0970  123.7720   62.6010 C   0  0  0  0  0  0  0  0  0  0  0  0
  132.1220  124.7100   63.1670 C   0  0  0  0  0  0  0  0  0  0  0  0
  132.3840  125.3760   64.3890 C   0  0  0  0  0  0  0  0  0  0  0  0
  133.7020  125.1980   65.1680 C   0  0  0  0  0  0  0  0  0  0  0  0
  133.8760  123.9510   65.6130 F   0  0  0  0  0  0  0  0  0  0  0  0
  134.7390  125.4940   64.3840 F   0  0  0  0  0  0  0  0  0  0  0  0
  133.7180  126.0060   66.2290 F   0  0  0  0  0  0  0  0  0  0  0  0
  131.3990  126.2270   64.9130 C   0  0  0  0  0  0  0  0  0  0  0  0
  130.1860  126.4040   64.2390 C   0  0  0  0  0  0  0  0  0  0  0  0
  129.0970  127.2920   64.7590 C   0  0  0  0  0  0  0  0  0  0  0  0
  128.1920  127.9050   63.8790 C   0  0  0  0  0  0  0  0  0  0  0  0
  127.1740  128.7290   64.3550 C   0  0  0  0  0  0  0  0  0  0  0  0
  127.0500  128.9510   65.7230 C   0  0  0  0  0  0  0  0  0  0  0  0
  127.9340  128.3540   66.6160 C   0  0  0  0  0  0  0  0  0  0  0  0
  128.9480  127.5310   66.1350 C   0  0  0  0  0  0  0  0  0  0  0  0
  129.9370  125.7570   63.0720 N   0  0  0  0  0  0  0  0  0  0  0  0
  130.8810  124.9500   62.5340 C   0  0  0  0  0  0  0  0  0  0  0  0
  130.3870  124.2070   60.9940 S   0  0  0  0  0  0  0  0  0  0  0  0
  129.3350  122.7660   61.3790 C   0  0  0  0  0  0  0  0  0  0  0  0
  127.9820  122.7380   60.6550 C   0  0  0  0  0  0  0  0  0  0  0  0
  127.8330  122.0830   59.6200 O   0  0  0  0  0  0  0  0  0  0  0  0
  127.0110  123.4720   61.2430 N   0  0  0  0  0  0  0  0  0  0  0  0
  125.7010  123.6160   60.8070 C   0  0  0  0  0  0  0  0  0  0  0  0
  124.6290  122.9950   61.2490 N   0  0  0  0  0  0  0  0  0  0  0  0
  123.5440  123.3800   60.6070 C   0  0  0  0  0  0  0  0  0  0  0  0
  123.7250  124.3390   59.6130 C   0  0  0  0  0  0  0  0  0  0  0  0
  125.4120  124.7480   59.5250 S   0  0  0  0  0  0  0  0  0  0  0  0
  1  2  3  0
  2  3  1  0
  3  4  2  0
  4  5  1  0
  5  6  1  0
  5  7  1  0
  5  8  1  0
  4  9  1  0
  9 10  2  0
 10 11  1  0
 11 12  2  0
 12 13  1  0
 13 14  2  0
 14 15  1  0
 15 16  2  0
 10 17  1  0
 17 18  2  0
 18 19  1  0
 19 20  1  0
 20 21  1  0
 21 22  2  0
 21 23  1  0
 23 24  1  0
 24 25  2  0
 25 26  1  0
 26 27  2  0
 27 28  1  0
 18  3  1  0
 28 24  1  0
 16 11  1  0
M  END
>  <Binding energies>  (30) 
[-7.48]

>  <Ligand effiencies>  (30) 
[-0.2579310344827586]

>  <Interactions>  (30) 
["V-B:GLU:543:CD:9877, V-A:ARG:545:CZ:4923, H-A:GLY:454:N:4046, V-A:ARG:545:CG:4919, V-A:GLY:454:CA:4045, V-A:HIS:456:CE1:4066, V-A:GLY:454:C:4043, V-A:GLU:543:CD:4905, V-A:TYR:484:CZ:4343, V-B:HIS:456:CE1:9038, H-B:ALA:541:N:9860, V-B:ALA:541:CB:9861, V-A:ARG:545:CD:4920, V-A:GLY:453:C:4038, V-B:PRO:540:CB:9854, V-B:LEU:363:CA:8153, V-B:PRO:540:CA:9852, V-A:GLY:453:CA:4040, V-B:ASN:362:C:8140, V-B:ASN:362:CB:8144, V-B:ASN:362:CA:8142, H-B:GLU:543:OE2:9879"]

$$$$
3ak_Grossjean_2025
     RDKit          3D

 33 34  0  0  0  0  0  0  0  0999 V2000
  133.4290  130.8200   58.7730 C   0  0  0  0  0  0  0  0  0  0  0  0
  133.4800  131.4790   60.0290 O   0  0  0  0  0  0  0  0  0  0  0  0
  132.6850  130.8540   61.0270 C   0  0  0  0  0  0  0  0  0  0  0  0
  131.2080  130.9570   60.6260 C   0  0  0  0  0  0  0  0  0  0  0  0
  130.7140  132.2370   61.0050 O   0  0  0  0  0  0  0  0  0  0  0  0
  129.3780  132.5250   60.6000 C   0  0  0  0  0  0  0  0  0  0  0  0
  128.3240  131.6040   61.2410 C   0  0  0  0  0  0  0  0  0  0  0  0
  127.4150  132.3910   61.9990 O   0  0  0  0  0  0  0  0  0  0  0  0
  126.1360  132.5350   61.3980 C   0  0  0  0  0  0  0  0  0  0  0  0
  125.0560  131.8870   62.2830 C   0  0  0  0  0  0  0  0  0  0  0  0
  125.6020  131.0920   63.3850 N   0  0  0  0  0  0  0  0  0  0  0  0
  124.9010  130.2660   64.1860 C   0  0  0  0  0  0  0  0  0  0  0  0
  123.6910  130.0790   64.0560 O   0  0  0  0  0  0  0  0  0  0  0  0
  125.6400  129.5250   65.3130 C   0  0  0  0  0  0  0  0  0  0  0  0
  127.4150  129.9200   65.5260 S   0  0  0  0  0  0  0  0  0  0  0  0
  128.2730  128.4420   66.0440 C   0  0  0  0  0  0  0  0  0  0  0  0
  128.3830  128.2660   67.3840 N   0  0  0  0  0  0  0  0  0  0  0  0
  129.0250  127.1760   67.8750 C   0  0  0  0  0  0  0  0  0  0  0  0
  129.0990  127.0610   69.3680 C   0  0  0  0  0  0  0  0  0  0  0  0
  128.1680  126.2850   70.0760 C   0  0  0  0  0  0  0  0  0  0  0  0
  128.2340  126.1720   71.4620 C   0  0  0  0  0  0  0  0  0  0  0  0
  129.2370  126.8360   72.1610 C   0  0  0  0  0  0  0  0  0  0  0  0
  130.1730  127.6090   71.4850 C   0  0  0  0  0  0  0  0  0  0  0  0
  130.1050  127.7190   70.0990 C   0  0  0  0  0  0  0  0  0  0  0  0
  129.5640  126.2130   67.0150 C   0  0  0  0  0  0  0  0  0  0  0  0
  129.4630  126.3690   65.6250 C   0  0  0  0  0  0  0  0  0  0  0  0
  130.0720  125.2890   64.7090 C   0  0  0  0  0  0  0  0  0  0  0  0
  131.1560  125.7660   64.0980 F   0  0  0  0  0  0  0  0  0  0  0  0
  130.4170  124.2210   65.4300 F   0  0  0  0  0  0  0  0  0  0  0  0
  129.2260  124.8760   63.7620 F   0  0  0  0  0  0  0  0  0  0  0  0
  128.8020  127.5140   65.1190 C   0  0  0  0  0  0  0  0  0  0  0  0
  128.6660  127.7300   63.6750 C   0  0  0  0  0  0  0  0  0  0  0  0
  128.5600  127.9010   62.5340 N   0  0  0  0  0  0  0  0  0  0  0  0
  1  2  1  0
  2  3  1  0
  3  4  1  0
  4  5  1  0
  5  6  1  0
  6  7  1  0
  7  8  1  0
  8  9  1  0
  9 10  1  0
 10 11  1  0
 11 12  1  0
 12 13  2  0
 12 14  1  0
 14 15  1  0
 15 16  1  0
 16 17  2  0
 17 18  1  0
 18 19  1  0
 19 20  2  0
 20 21  1  0
 21 22  2  0
 22 23  1  0
 23 24  2  0
 18 25  2  0
 25 26  1  0
 26 27  1  0
 27 28  1  0
 27 29  1  0
 27 30  1  0
 26 31  2  0
 31 32  1  0
 32 33  3  0
 31 16  1  0
 24 19  1  0
M  END
>  <Binding energies>  (31) 
[-6.7]

>  <Ligand effiencies>  (31) 
[-0.19705882352941176]

>  <Interactions>  (31) 
["V-B:GLU:543:CD:9877, V-A:HIS:456:CE1:4066, V-A:GLU:543:CD:4905, V-A:GLU:543:CG:4904, V-A:TYR:484:CZ:4343, V-B:GLU:543:C:9871, V-B:GLU:543:CB:9875, V-B:HIS:456:CE1:9038, V-A:TYR:484:CE1:4341, V-B:GLY:544:C:9881, V-A:HIS:456:CD2:4064, V-A:GLU:543:CB:4903, V-B:GLU:543:CG:9876, V-A:ALA:541:CB:4889, H-B:TYR:484:OH:9316, V-A:ASP:366:CG:3209, V-A:PRO:540:CA:4880, V-A:PRO:540:CB:4882, H-A:ALA:541:N:4888, H-B:ARG:545:NH2:9897, H-A:LEU:363:N:3182, V-A:ASN:362:CB:3172, V-A:LEU:363:CA:3181, V-A:ASN:362:C:3168, V-B:LYS:547:CE:9919, H-B:GLY:454:N:9018, H-B:ARG:545:NH1:9896, V-A:PRO:540:C:4878"]

$$$$
3bk_Grossjean_2025
     RDKit          3D

 30 31  0  0  0  0  0  0  0  0999 V2000
  124.3080  130.1800   63.2290 C   0  0  0  0  0  0  0  0  0  0  0  0
  123.7660  130.1190   64.5400 O   0  0  0  0  0  0  0  0  0  0  0  0
  124.6730  129.6010   65.5030 C   0  0  0  0  0  0  0  0  0  0  0  0
  126.1090  129.9810   65.1170 C   0  0  0  0  0  0  0  0  0  0  0  0
  127.0140  129.4150   66.0530 O   0  0  0  0  0  0  0  0  0  0  0  0
  127.7970  128.3520   65.5250 C   0  0  0  0  0  0  0  0  0  0  0  0
  129.0700  128.1930   66.3670 C   0  0  0  0  0  0  0  0  0  0  0  0
  128.7230  127.7220   67.6620 O   0  0  0  0  0  0  0  0  0  0  0  0
  129.8250  127.2150   68.4040 C   0  0  0  0  0  0  0  0  0  0  0  0
  130.0860  128.1210   69.6150 C   0  0  0  0  0  0  0  0  0  0  0  0
  129.2070  127.8110   70.7440 N   0  0  0  0  0  0  0  0  0  0  0  0
  128.3510  126.7770   70.8050 C   0  0  0  0  0  0  0  0  0  0  0  0
  128.2190  125.9440   69.9070 O   0  0  0  0  0  0  0  0  0  0  0  0
  127.5310  126.6450   72.0900 C   0  0  0  0  0  0  0  0  0  0  0  0
  128.4010  127.3460   73.5280 S   0  0  0  0  0  0  0  0  0  0  0  0
  127.8520  129.0260   73.7770 C   0  0  0  0  0  0  0  0  0  0  0  0
  128.6980  129.9960   73.3470 N   0  0  0  0  0  0  0  0  0  0  0  0
  128.3640  131.3050   73.4980 C   0  0  0  0  0  0  0  0  0  0  0  0
  129.3450  132.3110   72.9760 C   0  0  0  0  0  0  0  0  0  0  0  0
  130.4840  132.6570   73.7210 C   0  0  0  0  0  0  0  0  0  0  0  0
  131.3950  133.5950   73.2430 C   0  0  0  0  0  0  0  0  0  0  0  0
  131.1800  134.2020   72.0100 C   0  0  0  0  0  0  0  0  0  0  0  0
  130.0610  133.8750   71.2510 C   0  0  0  0  0  0  0  0  0  0  0  0
  129.1530  132.9350   71.7310 C   0  0  0  0  0  0  0  0  0  0  0  0
  127.1500  131.6720   74.0900 C   0  0  0  0  0  0  0  0  0  0  0  0
  126.2670  130.6850   74.5410 C   0  0  0  0  0  0  0  0  0  0  0  0
  124.9530  131.1290   75.1820 C   0  0  0  0  0  0  0  0  0  0  0  0
  126.6150  129.3270   74.3870 C   0  0  0  0  0  0  0  0  0  0  0  0
  125.7080  128.2710   74.8470 C   0  0  0  0  0  0  0  0  0  0  0  0
  124.9930  127.4370   75.2120 N   0  0  0  0  0  0  0  0  0  0  0  0
  1  2  1  0
  2  3  1  0
  3  4  1  0
  4  5  1  0
  5  6  1  0
  6  7  1  0
  7  8  1  0
  8  9  1  0
  9 10  1  0
 10 11  1  0
 11 12  1  0
 12 13  2  0
 12 14  1  0
 14 15  1  0
 15 16  1  0
 16 17  2  0
 17 18  1  0
 18 19  1  0
 19 20  2  0
 20 21  1  0
 21 22  2  0
 22 23  1  0
 23 24  2  0
 18 25  2  0
 25 26  1  0
 26 27  1  0
 26 28  2  0
 28 29  1  0
 29 30  3  0
 28 16  1  0
 24 19  1  0
M  END
>  <Binding energies>  (32) 
[-6.31]

>  <Ligand effiencies>  (32) 
[-0.20354838709677417]

>  <Interactions>  (32) 
["V-B:GLU:543:CD:9877, V-A:HIS:456:CE1:4066, V-A:GLU:543:CD:4905, H-B:HIS:456:NE2:9039, V-A:GLU:543:CG:4904, V-B:HIS:456:CE1:9038, V-B:GLY:544:C:9881, V-B:HIS:456:CD2:9036, H-A:GLU:543:O:4900, V-A:GLU:543:CB:4903, V-B:ARG:545:CZ:9895, V-B:ARG:545:CD:9892, H-B:TYR:484:OH:9316, V-B:ASP:366:CG:8181, V-B:LYS:547:CE:9919, V-B:TYR:484:CB:9309, V-B:ASP:473:CG:9208, V-B:ASP:473:CB:9207, V-B:TYR:484:CG:9310, V-B:HIS:456:CG:9034, V-A:LYS:547:CE:4947, V-B:HIS:456:C:9029, V-A:GLU:543:C:4899, V-B:HIS:456:CB:9033, V-B:LYS:547:CD:9918, V-B:VAL:458:CG2:9055, H-A:LYS:547:NZ:4948, V-B:LYS:471:CE:9188, V-B:TYR:484:CD1:9311, V-A:GLU:543:CA:4901, H-B:GLY:454:N:9018, V-A:GLY:544:CA:4911, H-B:ARG:545:NH1:9896"]

$$$$
3cb_Grossjean_2025
     RDKit          3D

 30 32  0  0  0  0  0  0  0  0999 V2000
  123.6890  123.4080   60.6020 C   0  0  0  0  0  0  0  0  0  0  0  0
  123.3570  123.8840   59.3060 O   0  0  0  0  0  0  0  0  0  0  0  0
  124.2210  124.6600   58.6030 C   0  0  0  0  0  0  0  0  0  0  0  0
  123.8710  125.4110   57.6870 O   0  0  0  0  0  0  0  0  0  0  0  0
  125.6480  124.5130   59.0490 C   0  0  0  0  0  0  0  0  0  0  0  0
  126.4710  123.4780   58.5810 C   0  0  0  0  0  0  0  0  0  0  0  0
  127.7890  123.3720   59.0120 C   0  0  0  0  0  0  0  0  0  0  0  0
  128.3140  124.2910   59.9210 C   0  0  0  0  0  0  0  0  0  0  0  0
  129.6600  124.0920   60.2870 N   0  0  0  0  0  0  0  0  0  0  0  0
  130.3000  122.9610   60.6590 C   0  0  0  0  0  0  0  0  0  0  0  0
  129.7800  121.8460   60.7250 O   0  0  0  0  0  0  0  0  0  0  0  0
  131.7870  123.1520   60.9920 C   0  0  0  0  0  0  0  0  0  0  0  0
  132.3190  122.4270   62.5810 S   0  0  0  0  0  0  0  0  0  0  0  0
  132.2790  123.7170   63.8080 C   0  0  0  0  0  0  0  0  0  0  0  0
  133.4890  123.9730   64.3620 N   0  0  0  0  0  0  0  0  0  0  0  0
  133.5790  124.9350   65.3070 C   0  0  0  0  0  0  0  0  0  0  0  0
  134.9660  125.1760   65.8720 C   0  0  0  0  0  0  0  0  0  0  0  0
  132.4770  125.6670   65.7390 C   0  0  0  0  0  0  0  0  0  0  0  0
  131.2130  125.4080   65.1930 C   0  0  0  0  0  0  0  0  0  0  0  0
  130.0610  126.2180   65.6940 C   0  0  0  0  0  0  0  0  0  0  0  0
  129.5870  126.0360   66.9990 C   0  0  0  0  0  0  0  0  0  0  0  0
  128.5210  126.7930   67.4790 C   0  0  0  0  0  0  0  0  0  0  0  0
  127.9240  127.7410   66.6530 C   0  0  0  0  0  0  0  0  0  0  0  0
  128.3860  127.9410   65.3550 C   0  0  0  0  0  0  0  0  0  0  0  0
  129.4540  127.1840   64.8790 C   0  0  0  0  0  0  0  0  0  0  0  0
  131.0990  124.3930   64.2090 C   0  0  0  0  0  0  0  0  0  0  0  0
  129.7880  124.0160   63.6710 C   0  0  0  0  0  0  0  0  0  0  0  0
  128.7540  123.7180   63.2470 N   0  0  0  0  0  0  0  0  0  0  0  0
  127.4990  125.3330   60.3910 C   0  0  0  0  0  0  0  0  0  0  0  0
  126.1800  125.4380   59.9580 C   0  0  0  0  0  0  0  0  0  0  0  0
  1  2  1  0
  2  3  1  0
  3  4  2  0
  3  5  1  0
  5  6  2  0
  6  7  1  0
  7  8  2  0
  8  9  1  0
  9 10  1  0
 10 11  2  0
 10 12  1  0
 12 13  1  0
 13 14  1  0
 14 15  2  0
 15 16  1  0
 16 17  1  0
 16 18  2  0
 18 19  1  0
 19 20  1  0
 20 21  2  0
 21 22  1  0
 22 23  2  0
 23 24  1  0
 24 25  2  0
 19 26  2  0
 26 27  1  0
 27 28  3  0
  8 29  1  0
 29 30  2  0
 30  5  1  0
 26 14  1  0
 25 20  1  0
M  END
>  <Binding energies>  (33) 
[-8.06]

>  <Ligand effiencies>  (33) 
[-0.26]

>  <Interactions>  (33) 
["V-B:GLU:543:CD:9877, V-A:ARG:545:CZ:4923, H-A:GLY:454:N:4046, V-A:ARG:545:CG:4919, V-A:GLY:454:CA:4045, V-B:TYR:539:CE2:9845, V-A:HIS:456:CE1:4066, V-A:GLY:454:C:4043, V-A:GLU:543:CD:4905, V-B:GLU:543:CB:9875, V-B:HIS:456:CE1:9038, V-B:GLU:543:CG:9876, V-B:TYR:539:CZ:9846, H-A:TYR:484:OH:4344, V-A:ARG:545:CD:4920, V-A:GLY:453:C:4038, V-B:LEU:363:CD1:8157, V-B:PRO:540:CB:9854, V-B:LEU:363:CA:8153, V-B:PRO:540:CA:9852, V-A:GLY:453:CA:4040, V-B:ASN:362:C:8140, V-B:ASN:362:CB:8144, H-B:TYR:531:OH:9764, H-B:LEU:363:N:8154"]

$$$$
3ch_Grossjean_2025
     RDKit          3D

 32 34  0  0  0  0  0  0  0  0999 V2000
  128.1170  131.9230   62.2910 C   0  0  0  0  0  0  0  0  0  0  0  0
  126.8770  131.9480   62.9910 O   0  0  0  0  0  0  0  0  0  0  0  0
  126.5570  130.9130   63.8510 C   0  0  0  0  0  0  0  0  0  0  0  0
  127.5010  130.0360   64.4090 C   0  0  0  0  0  0  0  0  0  0  0  0
  127.1040  129.0130   65.2820 C   0  0  0  0  0  0  0  0  0  0  0  0
  127.9750  128.0910   65.8940 N   0  0  0  0  0  0  0  0  0  0  0  0
  128.7200  128.2210   67.0140 C   0  0  0  0  0  0  0  0  0  0  0  0
  128.7570  129.2170   67.7360 O   0  0  0  0  0  0  0  0  0  0  0  0
  129.5400  126.9920   67.4060 C   0  0  0  0  0  0  0  0  0  0  0  0
  131.1900  126.9970   66.6440 S   0  0  0  0  0  0  0  0  0  0  0  0
  130.9880  126.2870   65.0240 C   0  0  0  0  0  0  0  0  0  0  0  0
  129.8550  126.6770   64.3900 N   0  0  0  0  0  0  0  0  0  0  0  0
  129.6040  126.1870   63.1550 C   0  0  0  0  0  0  0  0  0  0  0  0
  128.3180  126.6590   62.5060 C   0  0  0  0  0  0  0  0  0  0  0  0
  130.4620  125.2980   62.5120 C   0  0  0  0  0  0  0  0  0  0  0  0
  131.6430  124.8890   63.1480 C   0  0  0  0  0  0  0  0  0  0  0  0
  132.5280  123.9260   62.4230 C   0  0  0  0  0  0  0  0  0  0  0  0
  132.0740  122.6340   62.1340 C   0  0  0  0  0  0  0  0  0  0  0  0
  132.8960  121.7290   61.4670 C   0  0  0  0  0  0  0  0  0  0  0  0
  134.1800  122.1140   61.0890 C   0  0  0  0  0  0  0  0  0  0  0  0
  134.6490  123.3930   61.3760 C   0  0  0  0  0  0  0  0  0  0  0  0
  133.8240  124.2950   62.0440 C   0  0  0  0  0  0  0  0  0  0  0  0
  131.9290  125.4100   64.4360 C   0  0  0  0  0  0  0  0  0  0  0  0
  133.1930  125.0910   65.1070 C   0  0  0  0  0  0  0  0  0  0  0  0
  134.1900  124.8380   65.6380 N   0  0  0  0  0  0  0  0  0  0  0  0
  125.7480  128.8600   65.5780 C   0  0  0  0  0  0  0  0  0  0  0  0
  124.7860  129.7220   65.0300 C   0  0  0  0  0  0  0  0  0  0  0  0
  123.4290  129.6290   65.2880 O   0  0  0  0  0  0  0  0  0  0  0  0
  122.9710  129.6250   66.6360 C   0  0  0  0  0  0  0  0  0  0  0  0
  125.2030  130.7430   64.1660 C   0  0  0  0  0  0  0  0  0  0  0  0
  124.2720  131.6050   63.6370 O   0  0  0  0  0  0  0  0  0  0  0  0
  123.7760  131.2120   62.3640 C   0  0  0  0  0  0  0  0  0  0  0  0
  1  2  1  0
  2  3  1  0
  3  4  2  0
  4  5  1  0
  5  6  1  0
  6  7  1  0
  7  8  2  0
  7  9  1  0
  9 10  1  0
 10 11  1  0
 11 12  2  0
 12 13  1  0
 13 14  1  0
 13 15  2  0
 15 16  1  0
 16 17  1  0
 17 18  2  0
 18 19  1  0
 19 20  2  0
 20 21  1  0
 21 22  2  0
 16 23  2  0
 23 24  1  0
 24 25  3  0
  5 26  2  0
 26 27  1  0
 27 28  1  0
 28 29  1  0
 27 30  2  0
 30 31  1  0
 31 32  1  0
 30  3  1  0
 23 11  1  0
 22 17  1  0
M  END
>  <Binding energies>  (34) 
[-7.99]

>  <Ligand effiencies>  (34) 
[-0.24212121212121213]

>  <Interactions>  (34) 
["V-A:LEU:475:CD1:4254, V-B:GLU:543:CD:9877, V-A:ARG:545:CZ:4923, V-A:ILE:369:CB:3232, H-A:GLY:454:N:4046, V-A:ILE:369:CG1:3234, V-A:ILE:369:CG2:3233, V-B:TYR:539:CE2:9845, V-A:HIS:456:CE1:4066, V-A:GLU:543:CD:4905, V-A:GLU:543:CG:4904, V-B:HIS:456:CE1:9038, V-A:GLU:543:CB:4903, V-B:ILE:369:CD1:8207, V-B:ARG:545:CZ:9895, V-A:ALA:541:CB:4889, V-B:ARG:545:CD:9892, H-B:TYR:484:OH:9316, V-B:ASP:366:CG:8181, V-A:ASP:366:CG:3209, H-A:ARG:545:NE:4921, H-A:TYR:484:OH:4344, H-B:GLU:543:OE1:9878, H-A:HIS:456:ND1:4063, H-B:GLY:454:N:9018, V-A:GLY:453:C:4038, V-B:GLY:453:CA:9012, V-B:GLY:453:C:9010, V-B:ARG:545:CG:9891, V-A:GLY:453:CA:4040, V-B:ILE:455:C:9020, H-B:ARG:545:NH1:9896, H-B:ARG:545:NE:9893, H-B:GLU:543:OE2:9879"]

$$$$
3ci_Grossjean_2025
     RDKit          3D

 25 27  0  0  0  0  0  0  0  0999 V2000
  128.6240  126.4320   62.4940 C   0  0  0  0  0  0  0  0  0  0  0  0
  129.9200  126.0190   63.1650 C   0  0  0  0  0  0  0  0  0  0  0  0
  130.8020  125.1250   62.5650 C   0  0  0  0  0  0  0  0  0  0  0  0
  131.9950  124.7860   63.2170 C   0  0  0  0  0  0  0  0  0  0  0  0
  132.9180  123.8350   62.5290 C   0  0  0  0  0  0  0  0  0  0  0  0
  134.1460  124.2720   62.0160 C   0  0  0  0  0  0  0  0  0  0  0  0
  134.9990  123.3820   61.3680 C   0  0  0  0  0  0  0  0  0  0  0  0
  134.6230  122.0500   61.2230 C   0  0  0  0  0  0  0  0  0  0  0  0
  133.4020  121.6010   61.7190 C   0  0  0  0  0  0  0  0  0  0  0  0
  132.5520  122.4930   62.3670 C   0  0  0  0  0  0  0  0  0  0  0  0
  132.2590  125.3660   64.4850 C   0  0  0  0  0  0  0  0  0  0  0  0
  133.4710  125.0160   65.2340 C   0  0  0  0  0  0  0  0  0  0  0  0
  134.4280  124.7400   65.8230 N   0  0  0  0  0  0  0  0  0  0  0  0
  131.3100  126.2700   65.0210 C   0  0  0  0  0  0  0  0  0  0  0  0
  131.5510  127.0750   66.6000 S   0  0  0  0  0  0  0  0  0  0  0  0
  129.9550  127.7180   67.2040 C   0  0  0  0  0  0  0  0  0  0  0  0
  129.5450  127.1430   68.5640 C   0  0  0  0  0  0  0  0  0  0  0  0
  129.1800  125.9680   68.6370 O   0  0  0  0  0  0  0  0  0  0  0  0
  129.6030  128.0030   69.6060 N   0  0  0  0  0  0  0  0  0  0  0  0
  129.3150  127.7330   70.9370 C   0  0  0  0  0  0  0  0  0  0  0  0
  128.2070  126.9870   71.3380 C   0  0  0  0  0  0  0  0  0  0  0  0
  128.2790  126.9520   72.7130 C   0  0  0  0  0  0  0  0  0  0  0  0
  129.3740  127.6400   73.1160 O   0  0  0  0  0  0  0  0  0  0  0  0
  130.0220  128.1310   71.9810 N   0  0  0  0  0  0  0  0  0  0  0  0
  130.1600  126.5820   64.3700 N   0  0  0  0  0  0  0  0  0  0  0  0
  1  2  1  0
  2  3  2  0
  3  4  1  0
  4  5  1  0
  5  6  2  0
  6  7  1  0
  7  8  2  0
  8  9  1  0
  9 10  2  0
  4 11  2  0
 11 12  1  0
 12 13  3  0
 11 14  1  0
 14 15  1  0
 15 16  1  0
 16 17  1  0
 17 18  2  0
 17 19  1  0
 19 20  1  0
 20 21  1  0
 21 22  2  0
 22 23  1  0
 23 24  1  0
 14 25  2  0
 25  2  1  0
 10  5  1  0
 24 20  2  0
M  END
>  <Binding energies>  (35) 
[-8.04]

>  <Ligand effiencies>  (35) 
[-0.3092307692307692]

>  <Interactions>  (35) 
["V-A:LEU:475:CD1:4254, V-B:GLU:543:CD:9877, V-A:ARG:545:CZ:4923, V-A:ILE:369:CB:3232, H-A:GLY:454:N:4046, V-A:ILE:369:CG1:3234, V-A:ILE:369:CG2:3233, V-A:GLY:454:CA:4045, V-B:TYR:539:CE2:9845, V-A:HIS:456:CE1:4066, V-A:GLU:543:CD:4905, H-B:HIS:456:NE2:9039, V-B:HIS:456:CE1:9038, V-B:HIS:456:CD2:9036, H-A:GLU:543:O:4900, V-A:GLU:543:CB:4903, V-A:ASP:366:CG:3209, H-A:TYR:484:OH:4344, V-A:ARG:545:CD:4920, V-B:LYS:547:CE:9919, H-A:LYS:547:NZ:4948, H-A:HIS:456:ND1:4063, V-A:GLY:453:C:4038, V-A:ILE:369:CD1:3235, V-A:GLY:453:CA:4040"]

$$$$
3ck_Grossjean_2025
     RDKit          3D

 30 31  0  0  0  0  0  0  0  0999 V2000
  124.1240  123.8800   61.0900 C   0  0  0  0  0  0  0  0  0  0  0  0
  125.1970  122.9520   61.0420 O   0  0  0  0  0  0  0  0  0  0  0  0
  126.3090  123.4120   60.2860 C   0  0  0  0  0  0  0  0  0  0  0  0
  127.6020  123.1710   61.0760 C   0  0  0  0  0  0  0  0  0  0  0  0
  128.4800  122.3610   60.3050 O   0  0  0  0  0  0  0  0  0  0  0  0
  129.4790  121.7020   61.0720 C   0  0  0  0  0  0  0  0  0  0  0  0
  130.7790  122.5130   61.0040 C   0  0  0  0  0  0  0  0  0  0  0  0
  131.8130  121.7520   61.6110 O   0  0  0  0  0  0  0  0  0  0  0  0
  133.1170  122.2930   61.4630 C   0  0  0  0  0  0  0  0  0  0  0  0
  133.0190  123.7340   60.9270 C   0  0  0  0  0  0  0  0  0  0  0  0
  132.3970  124.6720   61.8660 N   0  0  0  0  0  0  0  0  0  0  0  0
  132.8120  124.9150   63.1230 C   0  0  0  0  0  0  0  0  0  0  0  0
  133.8020  124.3780   63.6220 O   0  0  0  0  0  0  0  0  0  0  0  0
  131.9670  125.9250   63.9150 C   0  0  0  0  0  0  0  0  0  0  0  0
  130.7630  125.1970   65.0790 S   0  0  0  0  0  0  0  0  0  0  0  0
  129.8930  126.5110   65.9200 C   0  0  0  0  0  0  0  0  0  0  0  0
  130.2070  126.6780   67.2300 N   0  0  0  0  0  0  0  0  0  0  0  0
  129.5840  127.6520   67.9290 C   0  0  0  0  0  0  0  0  0  0  0  0
  129.9840  127.7760   69.3870 C   0  0  0  0  0  0  0  0  0  0  0  0
  128.6300  128.4920   67.3600 C   0  0  0  0  0  0  0  0  0  0  0  0
  128.2860  128.3340   66.0110 C   0  0  0  0  0  0  0  0  0  0  0  0
  127.2410  129.2420   65.4490 C   0  0  0  0  0  0  0  0  0  0  0  0
  127.6070  130.4690   64.8830 C   0  0  0  0  0  0  0  0  0  0  0  0
  126.6370  131.3260   64.3660 C   0  0  0  0  0  0  0  0  0  0  0  0
  125.2950  130.9590   64.4190 C   0  0  0  0  0  0  0  0  0  0  0  0
  124.9150  129.7460   64.9880 C   0  0  0  0  0  0  0  0  0  0  0  0
  125.8860  128.8920   65.5030 C   0  0  0  0  0  0  0  0  0  0  0  0
  128.9420  127.3240   65.2620 C   0  0  0  0  0  0  0  0  0  0  0  0
  128.6510  127.1410   63.8350 C   0  0  0  0  0  0  0  0  0  0  0  0
  128.4220  126.9970   62.7100 N   0  0  0  0  0  0  0  0  0  0  0  0
  1  2  1  0
  2  3  1  0
  3  4  1  0
  4  5  1  0
  5  6  1  0
  6  7  1  0
  7  8  1  0
  8  9  1  0
  9 10  1  0
 10 11  1  0
 11 12  1  0
 12 13  2  0
 12 14  1  0
 14 15  1  0
 15 16  1  0
 16 17  2  0
 17 18  1  0
 18 19  1  0
 18 20  2  0
 20 21  1  0
 21 22  1  0
 22 23  2  0
 23 24  1  0
 24 25  2  0
 25 26  1  0
 26 27  2  0
 21 28  2  0
 28 29  1  0
 29 30  3  0
 28 16  1  0
 27 22  1  0
M  END
>  <Binding energies>  (36) 
[-6.73]

>  <Ligand effiencies>  (36) 
[-0.2170967741935484]

>  <Interactions>  (36) 
["V-A:LEU:475:CD1:4254, V-B:GLU:543:CD:9877, V-A:ARG:545:CZ:4923, H-A:ASP:366:OD2:3211, H-A:GLY:454:N:4046, V-B:TYR:539:CE2:9845, V-A:HIS:456:CE1:4066, H-A:ASP:366:OD1:3210, V-A:GLU:543:CD:4905, V-A:GLU:543:CG:4904, V-B:HIS:456:CE1:9038, V-A:GLU:543:CB:4903, V-B:ARG:545:CZ:9895, V-B:TYR:539:CZ:9846, H-B:ALA:541:N:9860, V-B:TYR:539:CD2:9843, V-B:ALA:541:CB:9861, V-A:ASP:366:CG:3209, H-A:TYR:484:OH:4344, V-B:PRO:540:CA:9852, V-B:ASN:362:C:8140, V-B:ASN:362:CB:8144"]

$$$$
4aa_Grossjean_2025
     RDKit          3D

 26 28  0  0  0  0  0  0  0  0999 V2000
  124.7740  127.7210   73.7600 C   0  0  0  0  0  0  0  0  0  0  0  0
  126.2550  128.1070   73.8330 C   0  0  0  0  0  0  0  0  0  0  0  0
  126.9460  127.5390   72.7280 O   0  0  0  0  0  0  0  0  0  0  0  0
  128.2600  127.8060   72.5110 C   0  0  0  0  0  0  0  0  0  0  0  0
  128.9890  128.3550   73.3430 O   0  0  0  0  0  0  0  0  0  0  0  0
  128.7370  127.3700   71.1560 C   0  0  0  0  0  0  0  0  0  0  0  0
  129.9650  127.8460   70.6780 C   0  0  0  0  0  0  0  0  0  0  0  0
  130.4330  127.4640   69.4230 C   0  0  0  0  0  0  0  0  0  0  0  0
  129.6900  126.5930   68.6260 C   0  0  0  0  0  0  0  0  0  0  0  0
  130.2520  126.2800   67.3740 N   0  0  0  0  0  0  0  0  0  0  0  0
  131.2030  126.9260   66.6570 C   0  0  0  0  0  0  0  0  0  0  0  0
  131.7270  127.9860   67.0000 O   0  0  0  0  0  0  0  0  0  0  0  0
  131.5730  126.2880   65.3920 C   0  0  0  0  0  0  0  0  0  0  0  0
  132.9270  125.1570   65.3280 S   0  0  0  0  0  0  0  0  0  0  0  0
  132.7200  124.9350   63.6060 C   0  0  0  0  0  0  0  0  0  0  0  0
  133.5080  124.1220   62.8990 N   0  0  0  0  0  0  0  0  0  0  0  0
  133.2430  124.0430   61.5720 C   0  0  0  0  0  0  0  0  0  0  0  0
  134.1540  123.1170   60.7860 C   0  0  0  0  0  0  0  0  0  0  0  0
  132.2190  124.7460   60.9430 C   0  0  0  0  0  0  0  0  0  0  0  0
  131.3940  125.5970   61.6870 C   0  0  0  0  0  0  0  0  0  0  0  0
  130.2880  126.3430   60.9550 C   0  0  0  0  0  0  0  0  0  0  0  0
  131.6420  125.7090   63.0810 C   0  0  0  0  0  0  0  0  0  0  0  0
  131.0080  126.4760   64.1210 C   0  0  0  0  0  0  0  0  0  0  0  0
  129.9450  127.3070   63.8720 N   0  0  0  0  0  0  0  0  0  0  0  0
  128.4570  126.1150   69.0940 C   0  0  0  0  0  0  0  0  0  0  0  0
  127.9880  126.5010   70.3480 C   0  0  0  0  0  0  0  0  0  0  0  0
  1  2  1  0
  2  3  1  0
  3  4  1  0
  4  5  2  0
  4  6  1  0
  6  7  2  0
  7  8  1  0
  8  9  2  0
  9 10  1  0
 10 11  1  0
 11 12  2  0
 11 13  1  0
 13 14  1  0
 14 15  1  0
 15 16  2  0
 16 17  1  0
 17 18  1  0
 17 19  2  0
 19 20  1  0
 20 21  1  0
 20 22  2  0
 22 23  1  0
 23 24  1  0
  9 25  1  0
 25 26  2  0
 26  6  1  0
 23 13  2  0
 22 15  1  0
M  END
>  <Binding energies>  (37) 
[-7.22]

>  <Ligand effiencies>  (37) 
[-0.2489655172413793]

>  <Interactions>  (37) 
["H-A:GLU:543:OE1:4906, V-A:ARG:545:CZ:4923, V-A:ILE:369:CB:3232, H-A:GLU:543:OE2:4907, H-A:GLY:454:N:4046, V-A:ILE:369:CG1:3234, V-A:ILE:369:CG2:3233, V-A:HIS:456:CE1:4066, V-A:GLU:543:CD:4905, V-B:GLU:543:C:9871, V-B:GLU:543:CB:9875, V-B:HIS:456:CE1:9038, V-B:GLY:544:C:9881, V-A:HIS:456:CD2:4064, V-B:HIS:456:CD2:9036, V-A:ASP:366:CG:3209, H-A:ARG:545:NE:4921, H-A:TYR:484:OH:4344, H-B:GLU:543:OE1:9878, V-B:LYS:547:CE:9919, H-A:HIS:456:NE2:4067, V-B:HIS:456:CG:9034, V-B:HIS:456:C:9029, V-B:HIS:456:CB:9033, V-B:HIS:456:CA:9031, V-B:LYS:547:CD:9918, H-A:LYS:547:NZ:4948"]

$$$$
4ab_Grossjean_2025
     RDKit          3D

 25 27  0  0  0  0  0  0  0  0999 V2000
  128.9950  129.8450   73.0810 C   0  0  0  0  0  0  0  0  0  0  0  0
  129.0020  128.4250   73.0640 O   0  0  0  0  0  0  0  0  0  0  0  0
  128.0900  127.7300   72.3370 C   0  0  0  0  0  0  0  0  0  0  0  0
  126.9500  127.4750   72.7390 O   0  0  0  0  0  0  0  0  0  0  0  0
  128.6080  127.2950   70.9970 C   0  0  0  0  0  0  0  0  0  0  0  0
  129.8160  127.8270   70.5260 C   0  0  0  0  0  0  0  0  0  0  0  0
  130.3210  127.4450   69.2860 C   0  0  0  0  0  0  0  0  0  0  0  0
  129.6370  126.5200   68.4970 C   0  0  0  0  0  0  0  0  0  0  0  0
  130.2350  126.2120   67.2600 N   0  0  0  0  0  0  0  0  0  0  0  0
  131.2190  126.8520   66.5820 C   0  0  0  0  0  0  0  0  0  0  0  0
  131.7510  127.8980   66.9560 O   0  0  0  0  0  0  0  0  0  0  0  0
  131.6180  126.2240   65.3210 C   0  0  0  0  0  0  0  0  0  0  0  0
  132.9830  125.1050   65.2770 S   0  0  0  0  0  0  0  0  0  0  0  0
  132.8090  124.8870   63.5500 C   0  0  0  0  0  0  0  0  0  0  0  0
  133.6180  124.0870   62.8540 N   0  0  0  0  0  0  0  0  0  0  0  0
  133.3770  124.0090   61.5230 C   0  0  0  0  0  0  0  0  0  0  0  0
  134.3110  123.0970   60.7490 C   0  0  0  0  0  0  0  0  0  0  0  0
  132.3560  124.7030   60.8780 C   0  0  0  0  0  0  0  0  0  0  0  0
  131.5100  125.5430   61.6110 C   0  0  0  0  0  0  0  0  0  0  0  0
  130.4100  126.2810   60.8610 C   0  0  0  0  0  0  0  0  0  0  0  0
  131.7330  125.6540   63.0100 C   0  0  0  0  0  0  0  0  0  0  0  0
  131.0750  126.4110   64.0410 C   0  0  0  0  0  0  0  0  0  0  0  0
  130.0100  127.2350   63.7760 N   0  0  0  0  0  0  0  0  0  0  0  0
  128.4250  125.9860   68.9580 C   0  0  0  0  0  0  0  0  0  0  0  0
  127.9190  126.3710   70.1970 C   0  0  0  0  0  0  0  0  0  0  0  0
  1  2  1  0
  2  3  1  0
  3  4  2  0
  3  5  1  0
  5  6  2  0
  6  7  1  0
  7  8  2  0
  8  9  1  0
  9 10  1  0
 10 11  2  0
 10 12  1  0
 12 13  1  0
 13 14  1  0
 14 15  2  0
 15 16  1  0
 16 17  1  0
 16 18  2  0
 18 19  1  0
 19 20  1  0
 19 21  2  0
 21 22  1  0
 22 23  1  0
  8 24  1  0
 24 25  2  0
 25  5  1  0
 22 12  2  0
 21 14  1  0
M  END
>  <Binding energies>  (38) 
[-7.01]

>  <Ligand effiencies>  (38) 
[-0.25035714285714283]

>  <Interactions>  (38) 
["H-A:GLU:543:OE1:4906, V-A:ARG:545:CZ:4923, V-A:ILE:369:CB:3232, H-A:GLU:543:OE2:4907, H-A:GLY:454:N:4046, V-A:ILE:369:CG1:3234, V-A:ILE:369:CG2:3233, V-A:HIS:456:CE1:4066, V-A:GLU:543:CD:4905, V-B:GLU:543:C:9871, V-B:GLU:543:CB:9875, V-B:HIS:456:CE1:9038, V-B:GLY:544:C:9881, V-A:HIS:456:CD2:4064, V-B:HIS:456:CD2:9036, V-A:ASP:366:CG:3209, H-A:ARG:545:NE:4921, H-A:TYR:484:OH:4344, H-B:GLU:543:OE1:9878, H-A:HIS:456:NE2:4067, V-B:HIS:456:CG:9034, V-A:LYS:547:CE:4947, H-A:LYS:547:NZ:4948"]

$$$$
4ac_Grossjean_2025
     RDKit          3D

 23 25  0  0  0  0  0  0  0  0999 V2000
  128.0560  127.7350   73.1130 C   0  0  0  0  0  0  0  0  0  0  0  0
  127.4120  127.2950   71.9220 O   0  0  0  0  0  0  0  0  0  0  0  0
  128.1650  127.1010   70.7810 C   0  0  0  0  0  0  0  0  0  0  0  0
  127.6270  126.2470   69.8180 C   0  0  0  0  0  0  0  0  0  0  0  0
  128.3140  125.9910   68.6340 C   0  0  0  0  0  0  0  0  0  0  0  0
  129.5480  126.5950   68.3940 C   0  0  0  0  0  0  0  0  0  0  0  0
  130.1740  126.2670   67.1770 N   0  0  0  0  0  0  0  0  0  0  0  0
  131.2430  126.8460   66.5790 C   0  0  0  0  0  0  0  0  0  0  0  0
  131.8370  127.8280   67.0300 O   0  0  0  0  0  0  0  0  0  0  0  0
  131.6690  126.2300   65.3200 C   0  0  0  0  0  0  0  0  0  0  0  0
  133.0420  125.1220   65.2880 S   0  0  0  0  0  0  0  0  0  0  0  0
  132.8730  124.8880   63.5630 C   0  0  0  0  0  0  0  0  0  0  0  0
  133.6880  124.0860   62.8760 N   0  0  0  0  0  0  0  0  0  0  0  0
  133.4500  123.9930   61.5460 C   0  0  0  0  0  0  0  0  0  0  0  0
  134.3880  123.0760   60.7830 C   0  0  0  0  0  0  0  0  0  0  0  0
  132.4270  124.6780   60.8920 C   0  0  0  0  0  0  0  0  0  0  0  0
  131.5740  125.5190   61.6150 C   0  0  0  0  0  0  0  0  0  0  0  0
  130.4730  126.2440   60.8570 C   0  0  0  0  0  0  0  0  0  0  0  0
  131.7920  125.6400   63.0140 C   0  0  0  0  0  0  0  0  0  0  0  0
  131.1210  126.3950   64.0380 C   0  0  0  0  0  0  0  0  0  0  0  0
  130.0430  127.2000   63.7660 N   0  0  0  0  0  0  0  0  0  0  0  0
  130.1030  127.4450   69.3620 C   0  0  0  0  0  0  0  0  0  0  0  0
  129.4130  127.6980   70.5450 C   0  0  0  0  0  0  0  0  0  0  0  0
  1  2  1  0
  2  3  1  0
  3  4  2  0
  4  5  1  0
  5  6  2  0
  6  7  1  0
  7  8  1  0
  8  9  2  0
  8 10  1  0
 10 11  1  0
 11 12  1  0
 12 13  2  0
 13 14  1  0
 14 15  1  0
 14 16  2  0
 16 17  1  0
 17 18  1  0
 17 19  2  0
 19 20  1  0
 20 21  1  0
  6 22  1  0
 22 23  2  0
 23  3  1  0
 20 10  2  0
 19 12  1  0
M  END
>  <Binding energies>  (39) 
[-6.29]

>  <Ligand effiencies>  (39) 
[-0.24192307692307694]

>  <Interactions>  (39) 
["H-A:GLU:543:OE1:4906, V-A:ARG:545:CZ:4923, V-A:ILE:369:CB:3232, H-A:GLU:543:OE2:4907, H-A:GLY:454:N:4046, V-A:ILE:369:CG1:3234, V-A:ILE:369:CG2:3233, V-A:HIS:456:CE1:4066, V-A:GLU:543:CD:4905, V-B:GLU:543:C:9871, V-B:GLU:543:CB:9875, V-B:HIS:456:CE1:9038, V-B:GLY:544:C:9881, V-B:HIS:456:CD2:9036, V-A:ASP:366:CG:3209, H-A:ARG:545:NE:4921, H-B:GLU:543:OE1:9878, V-B:LYS:547:CE:9919"]

$$$$
4ad_Grossjean_2025
     RDKit          3D

 21 23  0  0  0  0  0  0  0  0999 V2000
  134.4020  123.0780   60.8060 C   0  0  0  0  0  0  0  0  0  0  0  0
  133.4550  123.9920   61.5590 C   0  0  0  0  0  0  0  0  0  0  0  0
  132.4300  124.6660   60.8980 C   0  0  0  0  0  0  0  0  0  0  0  0
  131.5690  125.5070   61.6130 C   0  0  0  0  0  0  0  0  0  0  0  0
  130.4670  126.2230   60.8470 C   0  0  0  0  0  0  0  0  0  0  0  0
  131.7820  125.6390   63.0120 C   0  0  0  0  0  0  0  0  0  0  0  0
  131.1050  126.3980   64.0290 C   0  0  0  0  0  0  0  0  0  0  0  0
  130.0220  127.1920   63.7480 N   0  0  0  0  0  0  0  0  0  0  0  0
  131.6520  126.2470   65.3130 C   0  0  0  0  0  0  0  0  0  0  0  0
  131.2270  126.8780   66.5640 C   0  0  0  0  0  0  0  0  0  0  0  0
  131.8230  127.8640   67.0040 O   0  0  0  0  0  0  0  0  0  0  0  0
  130.1540  126.3090   67.1670 N   0  0  0  0  0  0  0  0  0  0  0  0
  129.5300  126.6420   68.3850 C   0  0  0  0  0  0  0  0  0  0  0  0
  128.3220  125.9910   68.6510 C   0  0  0  0  0  0  0  0  0  0  0  0
  127.6340  126.2450   69.8340 C   0  0  0  0  0  0  0  0  0  0  0  0
  128.1580  127.1450   70.7570 C   0  0  0  0  0  0  0  0  0  0  0  0
  129.3670  127.7900   70.5110 C   0  0  0  0  0  0  0  0  0  0  0  0
  130.0570  127.5390   69.3280 C   0  0  0  0  0  0  0  0  0  0  0  0
  133.0300  125.1450   65.2920 S   0  0  0  0  0  0  0  0  0  0  0  0
  132.8670  124.8970   63.5690 C   0  0  0  0  0  0  0  0  0  0  0  0
  133.6880  124.0940   62.8900 N   0  0  0  0  0  0  0  0  0  0  0  0
  1  2  1  0
  2  3  2  0
  3  4  1  0
  4  5  1  0
  4  6  2  0
  6  7  1  0
  7  8  1  0
  7  9  2  0
  9 10  1  0
 10 11  2  0
 10 12  1  0
 12 13  1  0
 13 14  2  0
 14 15  1  0
 15 16  2  0
 16 17  1  0
 17 18  2  0
  9 19  1  0
 19 20  1  0
 20 21  2  0
 21  2  1  0
 20  6  1  0
 18 13  1  0
M  END
>  <Binding energies>  (40) 
[-6.5]

>  <Ligand effiencies>  (40) 
[-0.2708333333333333]

>  <Interactions>  (40) 
["H-A:GLU:543:OE1:4906, V-A:ARG:545:CZ:4923, V-A:ILE:369:CB:3232, H-A:GLU:543:OE2:4907, H-A:GLY:454:N:4046, V-A:ILE:369:CG1:3234, V-A:ILE:369:CG2:3233, V-A:HIS:456:CE1:4066, V-A:GLU:543:CD:4905, V-B:GLU:543:C:9871, V-B:GLU:543:CB:9875, V-B:HIS:456:CE1:9038, V-B:GLY:544:C:9881, V-B:HIS:456:CD2:9036, V-A:ASP:366:CG:3209, H-A:ARG:545:NE:4921, H-B:GLU:543:OE1:9878, H-B:GLU:543:OE2:9879"]

$$$$
4ae_Grossjean_2025
     RDKit          3D

 22 24  0  0  0  0  0  0  0  0999 V2000
  127.2940  126.2500   69.2670 C   0  0  0  0  0  0  0  0  0  0  0  0
  128.1060  126.5780   68.0300 C   0  0  0  0  0  0  0  0  0  0  0  0
  129.3020  125.9140   67.7420 C   0  0  0  0  0  0  0  0  0  0  0  0
  130.0000  126.2740   66.5890 C   0  0  0  0  0  0  0  0  0  0  0  0
  129.4930  127.2780   65.7610 C   0  0  0  0  0  0  0  0  0  0  0  0
  128.2860  127.8970   66.1040 C   0  0  0  0  0  0  0  0  0  0  0  0
  127.8380  128.9140   65.2430 N   0  0  0  0  0  0  0  0  0  0  0  0
  126.5930  129.4410   65.1290 C   0  0  0  0  0  0  0  0  0  0  0  0
  125.6280  129.0730   65.8010 O   0  0  0  0  0  0  0  0  0  0  0  0
  126.4510  130.5030   64.1300 C   0  0  0  0  0  0  0  0  0  0  0  0
  127.5020  131.9190   64.1780 S   0  0  0  0  0  0  0  0  0  0  0  0
  126.6980  132.6230   62.7950 C   0  0  0  0  0  0  0  0  0  0  0  0
  127.0600  133.8050   62.2950 N   0  0  0  0  0  0  0  0  0  0  0  0
  126.3530  134.2400   61.2250 C   0  0  0  0  0  0  0  0  0  0  0  0
  126.7760  135.5910   60.6770 C   0  0  0  0  0  0  0  0  0  0  0  0
  125.3040  133.5270   60.6470 C   0  0  0  0  0  0  0  0  0  0  0  0
  124.9280  132.2860   61.1730 C   0  0  0  0  0  0  0  0  0  0  0  0
  123.7750  131.5480   60.5100 C   0  0  0  0  0  0  0  0  0  0  0  0
  125.6460  131.7970   62.2980 C   0  0  0  0  0  0  0  0  0  0  0  0
  125.5270  130.5930   63.0760 C   0  0  0  0  0  0  0  0  0  0  0  0
  124.5880  129.6310   62.7990 N   0  0  0  0  0  0  0  0  0  0  0  0
  127.6010  127.5550   67.2340 N   0  0  0  0  0  0  0  0  0  0  0  0
  1  2  1  0
  2  3  2  0
  3  4  1  0
  4  5  2  0
  5  6  1  0
  6  7  1  0
  7  8  1  0
  8  9  2  0
  8 10  1  0
 10 11  1  0
 11 12  1  0
 12 13  2  0
 13 14  1  0
 14 15  1  0
 14 16  2  0
 16 17  1  0
 17 18  1  0
 17 19  2  0
 19 20  1  0
 20 21  1  0
  6 22  2  0
 22  2  1  0
 20 10  2  0
 19 12  1  0
M  END
>  <Binding energies>  (41) 
[-6.77]

>  <Ligand effiencies>  (41) 
[-0.2708]

>  <Interactions>  (41) 
["V-B:GLU:543:CD:9877, H-A:GLU:543:OE1:4906, H-A:GLU:543:OE2:4907, V-A:HIS:456:CE1:4066, V-A:GLU:543:CD:4905, V-A:GLU:543:CG:4904, V-B:GLU:543:C:9871, V-B:GLU:543:CB:9875, V-B:HIS:456:CE1:9038, V-B:GLY:544:C:9881, V-B:ILE:369:CD1:8207, V-B:ILE:369:CG2:8205, V-B:ARG:545:CZ:9895, V-B:TRP:381:CH2:8340, V-A:ALA:541:CB:4889, H-B:TYR:484:OH:9316, V-A:TYR:539:CD2:4871, V-B:LEU:475:CD2:9227, V-B:ASP:366:CB:8180, V-B:ASP:366:CG:8181, H-B:ASP:366:OD1:8182, H-B:ASP:366:OD2:8183, V-B:TRP:381:CZ2:8338, H-B:ARG:545:NE:9893, V-B:ILE:369:CB:8204"]

$$$$
4af_Grossjean_2025
     RDKit          3D

 21 23  0  0  0  0  0  0  0  0999 V2000
  133.2330  125.2940   65.4760 C   0  0  0  0  0  0  0  0  0  0  0  0
  132.6660  124.9260   64.1170 C   0  0  0  0  0  0  0  0  0  0  0  0
  133.5020  124.5420   63.0710 C   0  0  0  0  0  0  0  0  0  0  0  0
  132.9570  124.2100   61.8250 C   0  0  0  0  0  0  0  0  0  0  0  0
  133.9100  123.7990   60.7140 C   0  0  0  0  0  0  0  0  0  0  0  0
  131.5450  124.2820   61.6780 C   0  0  0  0  0  0  0  0  0  0  0  0
  130.6710  124.0200   60.5660 C   0  0  0  0  0  0  0  0  0  0  0  0
  131.1440  123.6120   59.3440 N   0  0  0  0  0  0  0  0  0  0  0  0
  129.3110  124.2180   60.8500 C   0  0  0  0  0  0  0  0  0  0  0  0
  128.1620  124.0750   59.9530 C   0  0  0  0  0  0  0  0  0  0  0  0
  128.2910  123.5460   58.8490 O   0  0  0  0  0  0  0  0  0  0  0  0
  126.9870  124.5450   60.4380 N   0  0  0  0  0  0  0  0  0  0  0  0
  125.7230  124.6030   59.8200 C   0  0  0  0  0  0  0  0  0  0  0  0
  124.5730  123.9160   60.2500 C   0  0  0  0  0  0  0  0  0  0  0  0
  123.3820  124.0480   59.5330 C   0  0  0  0  0  0  0  0  0  0  0  0
  123.3690  124.8610   58.3990 C   0  0  0  0  0  0  0  0  0  0  0  0
  124.4670  125.5280   57.9600 N   0  0  0  0  0  0  0  0  0  0  0  0
  125.6170  125.3900   58.6660 C   0  0  0  0  0  0  0  0  0  0  0  0
  129.0790  124.7430   62.5200 S   0  0  0  0  0  0  0  0  0  0  0  0
  130.8000  124.6890   62.8250 C   0  0  0  0  0  0  0  0  0  0  0  0
  131.3160  125.0050   64.0140 N   0  0  0  0  0  0  0  0  0  0  0  0
  1  2  1  0
  2  3  2  0
  3  4  1  0
  4  5  1  0
  4  6  2  0
  6  7  1  0
  7  8  1  0
  7  9  2  0
  9 10  1  0
 10 11  2  0
 10 12  1  0
 12 13  1  0
 13 14  2  0
 14 15  1  0
 15 16  2  0
 16 17  1  0
 17 18  2  0
  9 19  1  0
 19 20  1  0
 20 21  2  0
 21  2  1  0
 20  6  1  0
 18 13  1  0
M  END
>  <Binding energies>  (42) 
[-6.46]

>  <Ligand effiencies>  (42) 
[-0.26916666666666667]

>  <Interactions>  (42) 
["V-B:GLU:543:CD:9877, V-A:ARG:545:CZ:4923, V-A:GLY:454:CA:4045, V-B:TYR:539:CE2:9845, V-A:HIS:456:CE1:4066, V-B:GLU:543:CG:9876, V-B:TYR:539:CZ:9846, V-B:ASP:366:CB:8180, V-A:ASP:366:CG:3209, V-A:ASP:366:CB:3208, V-A:ARG:545:CD:4920, V-B:LEU:363:CD1:8157, V-B:PRO:540:CB:9854, V-B:LEU:363:CA:8153, V-B:PRO:540:CA:9852, V-B:LEU:363:CB:8155, V-B:ASN:362:C:8140, H-B:TYR:531:OH:9764, V-A:ASP:366:CA:3206, H-B:TYR:539:OH:9847, H-B:GLU:543:OE2:9879"]

$$$$
4ag_Grossjean_2025
     RDKit          3D

 22 24  0  0  0  0  0  0  0  0999 V2000
  129.0300  126.0180   65.3550 C   0  0  0  0  0  0  0  0  0  0  0  0
  129.3170  126.5310   66.7540 C   0  0  0  0  0  0  0  0  0  0  0  0
  130.4790  127.2490   67.0300 C   0  0  0  0  0  0  0  0  0  0  0  0
  130.7230  127.7140   68.3270 C   0  0  0  0  0  0  0  0  0  0  0  0
  132.0050  128.4940   68.5780 C   0  0  0  0  0  0  0  0  0  0  0  0
  129.7560  127.4280   69.3270 C   0  0  0  0  0  0  0  0  0  0  0  0
  129.6870  127.7450   70.7280 C   0  0  0  0  0  0  0  0  0  0  0  0
  130.6700  128.4580   71.3680 N   0  0  0  0  0  0  0  0  0  0  0  0
  128.5370  127.2600   71.3650 C   0  0  0  0  0  0  0  0  0  0  0  0
  128.1430  127.4070   72.7670 C   0  0  0  0  0  0  0  0  0  0  0  0
  128.9810  127.5890   73.6530 O   0  0  0  0  0  0  0  0  0  0  0  0
  126.8220  127.3130   73.0260 N   0  0  0  0  0  0  0  0  0  0  0  0
  126.2050  127.4550   74.3440 C   0  0  0  0  0  0  0  0  0  0  0  0
  125.7530  128.8740   74.6670 C   0  0  0  0  0  0  0  0  0  0  0  0
  124.5090  129.0880   75.2660 C   0  0  0  0  0  0  0  0  0  0  0  0
  124.1040  130.3820   75.5850 C   0  0  0  0  0  0  0  0  0  0  0  0
  124.9500  131.4560   75.3140 C   0  0  0  0  0  0  0  0  0  0  0  0
  126.1970  131.2480   74.7320 C   0  0  0  0  0  0  0  0  0  0  0  0
  126.6030  129.9550   74.4130 C   0  0  0  0  0  0  0  0  0  0  0  0
  127.4930  126.3990   70.2340 S   0  0  0  0  0  0  0  0  0  0  0  0
  128.6080  126.6850   68.9170 C   0  0  0  0  0  0  0  0  0  0  0  0
  128.3720  126.2410   67.6810 N   0  0  0  0  0  0  0  0  0  0  0  0
  1  2  1  0
  2  3  2  0
  3  4  1  0
  4  5  1  0
  4  6  2  0
  6  7  1  0
  7  8  1  0
  7  9  2  0
  9 10  1  0
 10 11  2  0
 10 12  1  0
 12 13  1  0
 13 14  1  0
 14 15  2  0
 15 16  1  0
 16 17  2  0
 17 18  1  0
 18 19  2  0
  9 20  1  0
 20 21  1  0
 21 22  2  0
 22  2  1  0
 21  6  1  0
 19 14  1  0
M  END
>  <Binding energies>  (43) 
[-7.81]

>  <Ligand effiencies>  (43) 
[-0.3124]

>  <Interactions>  (43) 
["V-B:GLU:543:CD:9877, V-A:ARG:545:CG:4919, V-A:HIS:456:CE1:4066, V-A:GLU:543:CD:4905, H-B:HIS:456:NE2:9039, V-B:GLU:543:C:9871, V-B:GLU:543:CB:9875, V-B:HIS:456:CE1:9038, V-B:GLY:544:C:9881, V-B:HIS:456:CD2:9036, H-A:GLU:543:O:4900, V-A:GLU:543:CB:4903, V-B:GLU:543:CG:9876, V-B:LYS:547:CE:9919, V-B:VAL:457:C:9041, V-B:ASP:473:CG:9208, H-A:HIS:456:NE2:4067, V-B:ASP:473:CB:9207, V-B:HIS:456:CG:9034, V-B:HIS:456:C:9029, V-A:GLU:543:C:4899, V-B:VAL:457:CA:9043, V-B:HIS:456:CB:9033, V-B:HIS:456:CA:9031, V-B:LYS:547:CD:9918, V-B:VAL:458:CG2:9055, H-A:LYS:547:NZ:4948, V-B:LYS:471:CE:9188, V-A:GLU:543:CA:4901, V-A:GLY:544:CA:4911, V-A:GLY:544:C:4909, V-A:ARG:545:CA:4916, H-B:GLY:544:O:9882, H-A:GLY:544:O:4910, V-B:LYS:471:CB:9185, V-A:ARG:545:CB:4918"]

$$$$
4ah_Grossjean_2025
     RDKit          3D

 28 30  0  0  0  0  0  0  0  0999 V2000
  128.0940  132.0220   62.3440 C   0  0  0  0  0  0  0  0  0  0  0  0
  126.8680  132.0600   63.0650 O   0  0  0  0  0  0  0  0  0  0  0  0
  126.5790  131.0500   63.9670 C   0  0  0  0  0  0  0  0  0  0  0  0
  127.5540  130.2940   64.6350 C   0  0  0  0  0  0  0  0  0  0  0  0
  127.1890  129.2890   65.5310 C   0  0  0  0  0  0  0  0  0  0  0  0
  128.2630  128.5090   66.2830 C   0  0  0  0  0  0  0  0  0  0  0  0
  129.1270  127.7140   65.4110 N   0  0  0  0  0  0  0  0  0  0  0  0
  130.2060  127.0090   65.8110 C   0  0  0  0  0  0  0  0  0  0  0  0
  130.5970  126.9990   66.9800 O   0  0  0  0  0  0  0  0  0  0  0  0
  130.9210  126.2800   64.7640 C   0  0  0  0  0  0  0  0  0  0  0  0
  132.2500  125.1990   65.1850 S   0  0  0  0  0  0  0  0  0  0  0  0
  132.5350  124.8220   63.5010 C   0  0  0  0  0  0  0  0  0  0  0  0
  133.4940  123.9780   63.1190 N   0  0  0  0  0  0  0  0  0  0  0  0
  133.6090  123.7710   61.7850 C   0  0  0  0  0  0  0  0  0  0  0  0
  134.7090  122.8100   61.3720 C   0  0  0  0  0  0  0  0  0  0  0  0
  132.7950  124.3800   60.8340 C   0  0  0  0  0  0  0  0  0  0  0  0
  131.7900  125.2670   61.2360 C   0  0  0  0  0  0  0  0  0  0  0  0
  130.9260  125.9080   60.1600 C   0  0  0  0  0  0  0  0  0  0  0  0
  131.6400  125.5120   62.6290 C   0  0  0  0  0  0  0  0  0  0  0  0
  130.7370  126.3460   63.3750 C   0  0  0  0  0  0  0  0  0  0  0  0
  129.7830  127.1230   62.7680 N   0  0  0  0  0  0  0  0  0  0  0  0
  125.8380  129.0520   65.7860 C   0  0  0  0  0  0  0  0  0  0  0  0
  124.8410  129.7890   65.1290 C   0  0  0  0  0  0  0  0  0  0  0  0
  123.4850  129.5970   65.3220 O   0  0  0  0  0  0  0  0  0  0  0  0
  122.9560  129.6380   66.6440 C   0  0  0  0  0  0  0  0  0  0  0  0
  125.2250  130.7810   64.2160 C   0  0  0  0  0  0  0  0  0  0  0  0
  124.2600  131.5230   63.5780 O   0  0  0  0  0  0  0  0  0  0  0  0
  124.0190  131.1270   62.2350 C   0  0  0  0  0  0  0  0  0  0  0  0
  1  2  1  0
  2  3  1  0
  3  4  2  0
  4  5  1  0
  5  6  1  0
  6  7  1  0
  7  8  1  0
  8  9  2  0
  8 10  1  0
 10 11  1  0
 11 12  1  0
 12 13  2  0
 13 14  1  0
 14 15  1  0
 14 16  2  0
 16 17  1  0
 17 18  1  0
 17 19  2  0
 19 20  1  0
 20 21  1  0
  5 22  2  0
 22 23  1  0
 23 24  1  0
 24 25  1  0
 23 26  2  0
 26 27  1  0
 27 28  1  0
 26  3  1  0
 20 10  2  0
 19 12  1  0
M  END
>  <Binding energies>  (44) 
[-6.99]

>  <Ligand effiencies>  (44) 
[-0.22548387096774195]

>  <Interactions>  (44) 
["H-A:GLU:543:OE1:4906, V-A:ARG:545:CZ:4923, V-A:ILE:369:CB:3232, H-A:GLU:543:OE2:4907, H-A:GLY:454:N:4046, V-A:ILE:369:CG1:3234, V-A:GLY:454:CA:4045, V-A:HIS:456:CE1:4066, V-A:GLU:543:CD:4905, V-A:GLU:543:CG:4904, V-B:HIS:456:CE1:9038, V-A:GLU:543:CB:4903, V-B:ILE:369:CD1:8207, V-B:ARG:545:CZ:9895, V-A:ALA:541:CB:4889, V-B:ARG:545:CD:9892, H-B:TYR:484:OH:9316, V-B:ASP:366:CG:8181, V-A:ASP:366:CG:3209, H-B:GLU:543:OE1:9878, H-B:GLY:454:N:9018, V-A:GLY:453:C:4038, V-B:GLY:453:CA:9012, V-B:GLY:453:C:9010, V-B:ARG:545:CG:9891, V-B:ILE:455:C:9020, H-B:ARG:545:NH1:9896, H-B:ARG:545:NE:9893, H-B:GLU:543:OE2:9879"]

$$$$
4ai_Grossjean_2025
     RDKit          3D

 20 22  0  0  0  0  0  0  0  0999 V2000
  133.5680  124.9670   65.3090 C   0  0  0  0  0  0  0  0  0  0  0  0
  132.8310  124.5840   64.0390 C   0  0  0  0  0  0  0  0  0  0  0  0
  133.5190  124.3850   62.8430 C   0  0  0  0  0  0  0  0  0  0  0  0
  132.8200  124.0260   61.6850 C   0  0  0  0  0  0  0  0  0  0  0  0
  133.6150  123.8170   60.4060 C   0  0  0  0  0  0  0  0  0  0  0  0
  131.4090  123.8770   61.7810 C   0  0  0  0  0  0  0  0  0  0  0  0
  130.4040  123.5250   60.8140 C   0  0  0  0  0  0  0  0  0  0  0  0
  130.7110  123.2590   59.5030 N   0  0  0  0  0  0  0  0  0  0  0  0
  129.1020  123.4770   61.3370 C   0  0  0  0  0  0  0  0  0  0  0  0
  127.8520  123.1660   60.6410 C   0  0  0  0  0  0  0  0  0  0  0  0
  127.8580  122.4970   59.6060 O   0  0  0  0  0  0  0  0  0  0  0  0
  126.7270  123.6490   61.2250 N   0  0  0  0  0  0  0  0  0  0  0  0
  125.4170  123.4970   60.7880 C   0  0  0  0  0  0  0  0  0  0  0  0
  124.9560  124.0000   59.5720 C   0  0  0  0  0  0  0  0  0  0  0  0
  123.6270  123.6460   59.5180 C   0  0  0  0  0  0  0  0  0  0  0  0
  123.3050  122.9640   60.6430 O   0  0  0  0  0  0  0  0  0  0  0  0
  124.4480  122.8740   61.4400 N   0  0  0  0  0  0  0  0  0  0  0  0
  129.0890  123.8940   63.0520 S   0  0  0  0  0  0  0  0  0  0  0  0
  130.8250  124.1100   63.0620 C   0  0  0  0  0  0  0  0  0  0  0  0
  131.4880  124.4530   64.1670 N   0  0  0  0  0  0  0  0  0  0  0  0
  1  2  1  0
  2  3  2  0
  3  4  1  0
  4  5  1  0
  4  6  2  0
  6  7  1  0
  7  8  1  0
  7  9  2  0
  9 10  1  0
 10 11  2  0
 10 12  1  0
 12 13  1  0
 13 14  1  0
 14 15  2  0
 15 16  1  0
 16 17  1  0
  9 18  1  0
 18 19  1  0
 19 20  2  0
 20  2  1  0
 19  6  1  0
 17 13  2  0
M  END
>  <Binding energies>  (45) 
[-6.71]

>  <Ligand effiencies>  (45) 
[-0.2917391304347826]

>  <Interactions>  (45) 
["V-B:GLU:543:CD:9877, V-A:ARG:545:CZ:4923, V-A:GLY:454:CA:4045, V-B:TYR:539:CE2:9845, V-A:HIS:456:CE1:4066, V-B:GLU:543:CG:9876, V-B:TYR:539:CZ:9846, H-B:ALA:541:N:9860, V-B:TYR:539:CD2:9843, V-B:ALA:541:CB:9861, V-A:ASP:366:CG:3209, V-A:ASP:366:CB:3208, H-A:TYR:484:OH:4344, V-A:ARG:545:CD:4920, V-B:LEU:363:CD1:8157, V-B:PRO:540:CB:9854, V-B:LEU:363:CA:8153, V-B:PRO:540:CA:9852, V-B:LEU:363:CB:8155, V-B:ASN:362:C:8140, V-A:ASP:366:CA:3206, H-B:TYR:539:OH:9847, H-B:GLU:543:OE2:9879, H-B:LEU:363:N:8154"]

$$$$
4aj_Grossjean_2025
     RDKit          3D

 20 22  0  0  0  0  0  0  0  0999 V2000
  133.6780  124.8980   65.2630 C   0  0  0  0  0  0  0  0  0  0  0  0
  132.9210  124.5210   64.0030 C   0  0  0  0  0  0  0  0  0  0  0  0
  133.5820  124.3700   62.7870 C   0  0  0  0  0  0  0  0  0  0  0  0
  132.8630  124.0270   61.6360 C   0  0  0  0  0  0  0  0  0  0  0  0
  133.6320  123.8750   60.3320 C   0  0  0  0  0  0  0  0  0  0  0  0
  131.4600  123.8420   61.7610 C   0  0  0  0  0  0  0  0  0  0  0  0
  130.4390  123.4970   60.8080 C   0  0  0  0  0  0  0  0  0  0  0  0
  130.7180  123.2730   59.4840 N   0  0  0  0  0  0  0  0  0  0  0  0
  129.1520  123.4070   61.3610 C   0  0  0  0  0  0  0  0  0  0  0  0
  127.8920  123.0890   60.6860 C   0  0  0  0  0  0  0  0  0  0  0  0
  127.8650  122.2990   59.7410 O   0  0  0  0  0  0  0  0  0  0  0  0
  126.7930  123.7090   61.1840 N   0  0  0  0  0  0  0  0  0  0  0  0
  125.4860  123.5740   60.7380 C   0  0  0  0  0  0  0  0  0  0  0  0
  124.5000  122.9180   61.3120 N   0  0  0  0  0  0  0  0  0  0  0  0
  123.3870  123.0050   60.6110 C   0  0  0  0  0  0  0  0  0  0  0  0
  123.4560  123.7460   59.4340 C   0  0  0  0  0  0  0  0  0  0  0  0
  125.0730  124.3580   59.2480 S   0  0  0  0  0  0  0  0  0  0  0  0
  129.1730  123.7680   63.0880 S   0  0  0  0  0  0  0  0  0  0  0  0
  130.9030  124.0240   63.0630 C   0  0  0  0  0  0  0  0  0  0  0  0
  131.5850  124.3510   64.1610 N   0  0  0  0  0  0  0  0  0  0  0  0
  1  2  1  0
  2  3  2  0
  3  4  1  0
  4  5  1  0
  4  6  2  0
  6  7  1  0
  7  8  1  0
  7  9  2  0
  9 10  1  0
 10 11  2  0
 10 12  1  0
 12 13  1  0
 13 14  2  0
 14 15  1  0
 15 16  2  0
 16 17  1  0
  9 18  1  0
 18 19  1  0
 19 20  2  0
 20  2  1  0
 19  6  1  0
 17 13  1  0
M  END
>  <Binding energies>  (46) 
[-6.58]

>  <Ligand effiencies>  (46) 
[-0.28608695652173916]

>  <Interactions>  (46) 
["V-B:GLU:543:CD:9877, V-A:ARG:545:CZ:4923, V-A:GLY:454:CA:4045, V-B:TYR:539:CE2:9845, V-A:HIS:456:CE1:4066, V-B:GLU:543:CG:9876, V-B:TYR:539:CZ:9846, H-B:ALA:541:N:9860, V-B:TYR:539:CD2:9843, V-B:ALA:541:CB:9861, V-A:ASP:366:CG:3209, V-A:ASP:366:CB:3208, H-A:TYR:484:OH:4344, V-A:ARG:545:CD:4920, V-B:LEU:363:CD1:8157, V-B:PRO:540:CB:9854, V-B:LEU:363:CA:8153, V-B:PRO:540:CA:9852, V-B:LEU:363:CB:8155, V-B:ASN:362:C:8140, V-B:ASN:362:CB:8144, V-A:ASP:366:CA:3206, V-B:ASN:362:CA:8142, H-B:TYR:539:OH:9847, H-B:GLU:543:OE2:9879"]

$$$$
4ak_Grossjean_2025
     RDKit          3D

 25 26  0  0  0  0  0  0  0  0999 V2000
  129.0520  132.1290   72.0670 C   0  0  0  0  0  0  0  0  0  0  0  0
  129.4100  130.9300   72.7380 O   0  0  0  0  0  0  0  0  0  0  0  0
  128.8440  130.8180   74.0380 C   0  0  0  0  0  0  0  0  0  0  0  0
  127.4880  131.5360   74.0690 C   0  0  0  0  0  0  0  0  0  0  0  0
  126.4480  130.5740   74.1830 O   0  0  0  0  0  0  0  0  0  0  0  0
  125.3720  130.9880   75.0140 C   0  0  0  0  0  0  0  0  0  0  0  0
  124.6620  129.7520   75.5790 C   0  0  0  0  0  0  0  0  0  0  0  0
  124.2310  128.9270   74.5050 O   0  0  0  0  0  0  0  0  0  0  0  0
  124.7580  127.6070   74.5460 C   0  0  0  0  0  0  0  0  0  0  0  0
  126.2960  127.6740   74.5560 C   0  0  0  0  0  0  0  0  0  0  0  0
  126.8990  127.5040   73.2340 N   0  0  0  0  0  0  0  0  0  0  0  0
  128.2180  127.5720   72.9630 C   0  0  0  0  0  0  0  0  0  0  0  0
  129.0630  127.7710   73.8380 O   0  0  0  0  0  0  0  0  0  0  0  0
  128.5980  127.3880   71.5630 C   0  0  0  0  0  0  0  0  0  0  0  0
  127.5400  126.5050   70.4630 S   0  0  0  0  0  0  0  0  0  0  0  0
  128.6460  126.7510   69.1300 C   0  0  0  0  0  0  0  0  0  0  0  0
  128.3960  126.2740   67.9100 N   0  0  0  0  0  0  0  0  0  0  0  0
  129.3360  126.5320   66.9670 C   0  0  0  0  0  0  0  0  0  0  0  0
  129.0340  125.9820   65.5850 C   0  0  0  0  0  0  0  0  0  0  0  0
  130.5050  127.2490   67.2130 C   0  0  0  0  0  0  0  0  0  0  0  0
  130.7630  127.7490   68.4950 C   0  0  0  0  0  0  0  0  0  0  0  0
  132.0540  128.5220   68.7160 C   0  0  0  0  0  0  0  0  0  0  0  0
  129.8020  127.4970   69.5100 C   0  0  0  0  0  0  0  0  0  0  0  0
  129.7460  127.8530   70.9030 C   0  0  0  0  0  0  0  0  0  0  0  0
  130.7360  128.5790   71.5140 N   0  0  0  0  0  0  0  0  0  0  0  0
  1  2  1  0
  2  3  1  0
  3  4  1  0
  4  5  1  0
  5  6  1  0
  6  7  1  0
  7  8  1  0
  8  9  1  0
  9 10  1  0
 10 11  1  0
 11 12  1  0
 12 13  2  0
 12 14  1  0
 14 15  1  0
 15 16  1  0
 16 17  2  0
 17 18  1  0
 18 19  1  0
 18 20  2  0
 20 21  1  0
 21 22  1  0
 21 23  2  0
 23 24  1  0
 24 25  1  0
 24 14  2  0
 23 16  1  0
M  END
>  <Binding energies>  (47) 
[-5.78]

>  <Ligand effiencies>  (47) 
[-0.20642857142857143]

>  <Interactions>  (47) 
["V-B:GLU:543:CD:9877, V-A:ARG:545:CG:4919, V-A:HIS:456:CE1:4066, V-B:GLU:543:CB:9875, V-B:HIS:456:CE1:9038, V-B:GLY:544:C:9881, V-B:HIS:456:CD2:9036, H-A:GLU:543:O:4900, V-A:GLU:543:CB:4903, V-B:GLU:543:CG:9876, V-B:LYS:547:CE:9919, V-B:LYS:547:CG:9917, V-B:ASP:473:CG:9208, V-B:ASP:473:CB:9207, V-B:HIS:456:CG:9034, V-A:LYS:547:CE:4947, V-B:HIS:456:C:9029, V-A:GLU:543:C:4899, V-B:HIS:456:CB:9033, V-B:LYS:547:CD:9918, V-B:VAL:458:CG2:9055, H-A:LYS:547:NZ:4948, V-B:LYS:471:CE:9188, V-A:GLU:543:CA:4901, V-A:GLY:544:CA:4911, V-A:GLY:544:C:4909, V-A:ARG:545:CA:4916, H-B:GLY:544:O:9882, H-A:GLY:544:O:4910, H-B:VAL:457:N:9044, V-A:ARG:545:CB:4918"]

$$$$
4al_Grossjean_2025
     RDKit          3D

 16 17  0  0  0  0  0  0  0  0999 V2000
  124.1640  131.3190   58.3010 C   0  0  0  0  0  0  0  0  0  0  0  0
  124.9750  132.1220   59.1450 O   0  0  0  0  0  0  0  0  0  0  0  0
  126.0620  131.6000   59.7690 C   0  0  0  0  0  0  0  0  0  0  0  0
  127.1800  131.5190   59.2550 O   0  0  0  0  0  0  0  0  0  0  0  0
  125.7690  131.1330   61.1420 C   0  0  0  0  0  0  0  0  0  0  0  0
  124.1390  131.2990   61.8000 S   0  0  0  0  0  0  0  0  0  0  0  0
  124.6310  130.5710   63.3120 C   0  0  0  0  0  0  0  0  0  0  0  0
  123.7770  130.3950   64.3210 N   0  0  0  0  0  0  0  0  0  0  0  0
  124.2850  129.8190   65.4380 C   0  0  0  0  0  0  0  0  0  0  0  0
  123.2970  129.6280   66.5740 C   0  0  0  0  0  0  0  0  0  0  0  0
  125.6140  129.4190   65.5680 C   0  0  0  0  0  0  0  0  0  0  0  0
  126.5080  129.6040   64.5080 C   0  0  0  0  0  0  0  0  0  0  0  0
  127.9470  129.1520   64.6960 C   0  0  0  0  0  0  0  0  0  0  0  0
  126.0100  130.2060   63.3200 C   0  0  0  0  0  0  0  0  0  0  0  0
  126.6330  130.5380   62.0690 C   0  0  0  0  0  0  0  0  0  0  0  0
  127.9580  130.2910   61.8140 N   0  0  0  0  0  0  0  0  0  0  0  0
  1  2  1  0
  2  3  1  0
  3  4  2  0
  3  5  1  0
  5  6  1  0
  6  7  1  0
  7  8  2  0
  8  9  1  0
  9 10  1  0
  9 11  2  0
 11 12  1  0
 12 13  1  0
 12 14  2  0
 14 15  1  0
 15 16  1  0
 15  5  2  0
 14  7  1  0
M  END
>  <Binding energies>  (48) 
[-4.73]

>  <Ligand effiencies>  (48) 
[-0.2627777777777778]

>  <Interactions>  (48) 
["H-A:GLU:543:OE2:4907, V-A:GLU:543:CD:4905, V-A:GLU:543:CG:4904, V-B:HIS:456:CE1:9038, V-B:ILE:369:CD1:8207, V-B:ILE:369:CG2:8205, V-B:ARG:545:CZ:9895, V-B:ARG:545:CD:9892, V-A:TYR:539:CE2:4873, H-B:TYR:484:OH:9316, V-B:ASP:366:CB:8180, V-B:ASP:366:CG:8181, H-B:GLY:454:N:9018, V-B:GLY:453:CA:9012, V-B:GLY:453:C:9010, V-B:ARG:545:CG:9891, V-B:ASP:366:CA:8178, V-B:ILE:455:C:9020"]

$$$$
4bc_Grossjean_2025
     RDKit          3D

 26 28  0  0  0  0  0  0  0  0999 V2000
  128.0420  127.7260   73.1220 C   0  0  0  0  0  0  0  0  0  0  0  0
  127.3910  127.3020   71.9290 O   0  0  0  0  0  0  0  0  0  0  0  0
  128.1400  127.1110   70.7840 C   0  0  0  0  0  0  0  0  0  0  0  0
  127.6010  126.2550   69.8240 C   0  0  0  0  0  0  0  0  0  0  0  0
  128.2840  126.0000   68.6370 C   0  0  0  0  0  0  0  0  0  0  0  0
  129.5170  126.6090   68.3920 C   0  0  0  0  0  0  0  0  0  0  0  0
  130.1400  126.2800   67.1740 N   0  0  0  0  0  0  0  0  0  0  0  0
  131.2160  126.8510   66.5800 C   0  0  0  0  0  0  0  0  0  0  0  0
  131.8170  127.8240   67.0370 O   0  0  0  0  0  0  0  0  0  0  0  0
  131.6390  126.2370   65.3180 C   0  0  0  0  0  0  0  0  0  0  0  0
  133.0120  125.1330   65.2840 S   0  0  0  0  0  0  0  0  0  0  0  0
  132.8390  124.8970   63.5610 C   0  0  0  0  0  0  0  0  0  0  0  0
  133.6580  124.0930   62.8840 N   0  0  0  0  0  0  0  0  0  0  0  0
  133.4260  123.9920   61.5550 C   0  0  0  0  0  0  0  0  0  0  0  0
  134.3660  123.0670   60.8030 C   0  0  0  0  0  0  0  0  0  0  0  0
  132.4050  124.6700   60.8930 C   0  0  0  0  0  0  0  0  0  0  0  0
  131.5400  125.5190   61.6010 C   0  0  0  0  0  0  0  0  0  0  0  0
  130.4340  126.2450   60.8280 C   0  0  0  0  0  0  0  0  0  0  0  0
  130.4840  126.0240   59.5130 F   0  0  0  0  0  0  0  0  0  0  0  0
  129.2410  125.8350   61.2570 F   0  0  0  0  0  0  0  0  0  0  0  0
  130.5410  127.5610   61.0150 F   0  0  0  0  0  0  0  0  0  0  0  0
  131.7560  125.6460   63.0050 C   0  0  0  0  0  0  0  0  0  0  0  0
  131.0870  126.4010   64.0370 C   0  0  0  0  0  0  0  0  0  0  0  0
  130.0060  127.2060   63.7820 N   0  0  0  0  0  0  0  0  0  0  0  0
  130.0720  127.4600   69.3590 C   0  0  0  0  0  0  0  0  0  0  0  0
  129.3860  127.7120   70.5440 C   0  0  0  0  0  0  0  0  0  0  0  0
  1  2  1  0
  2  3  1  0
  3  4  2  0
  4  5  1  0
  5  6  2  0
  6  7  1  0
  7  8  1  0
  8  9  2  0
  8 10  1  0
 10 11  1  0
 11 12  1  0
 12 13  2  0
 13 14  1  0
 14 15  1  0
 14 16  2  0
 16 17  1  0
 17 18  1  0
 18 19  1  0
 18 20  1  0
 18 21  1  0
 17 22  2  0
 22 23  1  0
 23 24  1  0
  6 25  1  0
 25 26  2  0
 26  3  1  0
 23 10  2  0
 22 12  1  0
M  END
>  <Binding energies>  (49) 
[-5.92]

>  <Ligand effiencies>  (49) 
[-0.20413793103448274]

>  <Interactions>  (49) 
["H-A:GLU:543:OE1:4906, V-A:ARG:545:CZ:4923, V-A:ILE:369:CB:3232, H-A:GLU:543:OE2:4907, H-A:GLY:454:N:4046, V-A:ILE:369:CG1:3234, V-A:ILE:369:CG2:3233, V-A:HIS:456:CE1:4066, V-A:GLU:543:CD:4905, V-B:GLU:543:C:9871, V-B:GLU:543:CB:9875, V-B:HIS:456:CE1:9038, V-B:GLY:544:C:9881, V-B:HIS:456:CD2:9036, V-A:ASP:366:CG:3209, H-A:ARG:545:NE:4921, H-B:GLU:543:OE1:9878, V-B:LYS:547:CE:9919"]

$$$$
4bf_Grossjean_2025
     RDKit          3D

 24 26  0  0  0  0  0  0  0  0999 V2000
  133.2140  125.4560   65.5140 C   0  0  0  0  0  0  0  0  0  0  0  0
  132.6490  125.0020   64.1800 C   0  0  0  0  0  0  0  0  0  0  0  0
  133.4830  124.5150   63.1770 C   0  0  0  0  0  0  0  0  0  0  0  0
  132.9470  124.1020   61.9470 C   0  0  0  0  0  0  0  0  0  0  0  0
  133.9040  123.5750   60.8710 C   0  0  0  0  0  0  0  0  0  0  0  0
  133.7490  124.1830   59.6920 F   0  0  0  0  0  0  0  0  0  0  0  0
  135.1650  123.7650   61.2560 F   0  0  0  0  0  0  0  0  0  0  0  0
  133.6930  122.2720   60.6780 F   0  0  0  0  0  0  0  0  0  0  0  0
  131.5340  124.2050   61.7820 C   0  0  0  0  0  0  0  0  0  0  0  0
  130.6470  123.8890   60.6900 C   0  0  0  0  0  0  0  0  0  0  0  0
  131.0950  123.3720   59.5000 N   0  0  0  0  0  0  0  0  0  0  0  0
  129.2930  124.1520   60.9540 C   0  0  0  0  0  0  0  0  0  0  0  0
  128.1390  123.9810   60.0660 C   0  0  0  0  0  0  0  0  0  0  0  0
  128.2480  123.3600   59.0080 O   0  0  0  0  0  0  0  0  0  0  0  0
  126.9810  124.5340   60.5050 N   0  0  0  0  0  0  0  0  0  0  0  0
  125.7210  124.5910   59.8800 C   0  0  0  0  0  0  0  0  0  0  0  0
  124.5670  123.9130   60.3100 C   0  0  0  0  0  0  0  0  0  0  0  0
  123.3790  124.0440   59.5860 C   0  0  0  0  0  0  0  0  0  0  0  0
  123.3770  124.8480   58.4460 C   0  0  0  0  0  0  0  0  0  0  0  0
  124.4780  125.5060   58.0060 N   0  0  0  0  0  0  0  0  0  0  0  0
  125.6260  125.3680   58.7200 C   0  0  0  0  0  0  0  0  0  0  0  0
  129.0760  124.8090   62.5740 S   0  0  0  0  0  0  0  0  0  0  0  0
  130.7930  124.7220   62.8900 C   0  0  0  0  0  0  0  0  0  0  0  0
  131.3060  125.1120   64.0560 N   0  0  0  0  0  0  0  0  0  0  0  0
  1  2  1  0
  2  3  2  0
  3  4  1  0
  4  5  1  0
  5  6  1  0
  5  7  1  0
  5  8  1  0
  4  9  2  0
  9 10  1  0
 10 11  1  0
 10 12  2  0
 12 13  1  0
 13 14  2  0
 13 15  1  0
 15 16  1  0
 16 17  2  0
 17 18  1  0
 18 19  2  0
 19 20  1  0
 20 21  2  0
 12 22  1  0
 22 23  1  0
 23 24  2  0
 24  2  1  0
 23  9  1  0
 21 16  1  0
M  END
>  <Binding energies>  (50) 
[-6.31]

>  <Ligand effiencies>  (50) 
[-0.2337037037037037]

>  <Interactions>  (50) 
["V-B:GLU:543:CD:9877, V-A:ARG:545:CZ:4923, V-A:ILE:369:CB:3232, V-A:ARG:545:CG:4919, V-A:ILE:369:CG1:3234, V-A:ILE:369:CG2:3233, V-A:GLY:454:CA:4045, V-B:TYR:539:CE2:9845, V-A:HIS:456:CE1:4066, V-B:GLU:543:CG:9876, V-B:TYR:539:CZ:9846, V-B:ASP:366:CB:8180, V-A:ASP:366:CG:3209, V-A:ASP:366:CB:3208, V-A:ARG:545:CD:4920, V-A:GLY:453:C:4038, V-B:LEU:363:CD1:8157, V-B:PRO:540:CB:9854, V-B:LEU:363:CA:8153, V-B:PRO:540:CA:9852, V-A:GLY:453:CA:4040, V-B:LEU:363:CB:8155, V-B:ASN:362:C:8140, H-B:TYR:531:OH:9764, V-A:ASP:366:CA:3206, H-B:TYR:539:OH:9847, H-B:GLU:543:OE2:9879"]

$$$$
4bh_Grossjean_2025
     RDKit          3D

 31 33  0  0  0  0  0  0  0  0999 V2000
  122.9900  129.6280   66.5830 C   0  0  0  0  0  0  0  0  0  0  0  0
  123.5740  129.6530   65.2850 O   0  0  0  0  0  0  0  0  0  0  0  0
  124.9340  129.8660   65.1560 C   0  0  0  0  0  0  0  0  0  0  0  0
  125.9110  129.1400   65.8560 C   0  0  0  0  0  0  0  0  0  0  0  0
  127.2680  129.4100   65.6780 C   0  0  0  0  0  0  0  0  0  0  0  0
  128.3160  128.5810   66.4120 C   0  0  0  0  0  0  0  0  0  0  0  0
  129.1610  127.7870   65.5200 N   0  0  0  0  0  0  0  0  0  0  0  0
  130.1890  127.0040   65.9090 C   0  0  0  0  0  0  0  0  0  0  0  0
  130.5450  126.9130   67.0860 O   0  0  0  0  0  0  0  0  0  0  0  0
  130.8950  126.2930   64.8430 C   0  0  0  0  0  0  0  0  0  0  0  0
  132.2500  125.2390   65.2330 S   0  0  0  0  0  0  0  0  0  0  0  0
  132.5090  124.8750   63.5430 C   0  0  0  0  0  0  0  0  0  0  0  0
  133.4800  124.0510   63.1500 N   0  0  0  0  0  0  0  0  0  0  0  0
  133.5800  123.8450   61.8170 C   0  0  0  0  0  0  0  0  0  0  0  0
  134.6940  122.9050   61.3910 C   0  0  0  0  0  0  0  0  0  0  0  0
  132.7410  124.4350   60.8760 C   0  0  0  0  0  0  0  0  0  0  0  0
  131.7170  125.3050   61.2830 C   0  0  0  0  0  0  0  0  0  0  0  0
  130.8170  125.9290   60.2120 C   0  0  0  0  0  0  0  0  0  0  0  0
  131.2170  125.6570   58.9680 F   0  0  0  0  0  0  0  0  0  0  0  0
  129.5740  125.4650   60.3410 F   0  0  0  0  0  0  0  0  0  0  0  0
  130.8070  127.2550   60.3470 F   0  0  0  0  0  0  0  0  0  0  0  0
  131.5860  125.5470   62.6830 C   0  0  0  0  0  0  0  0  0  0  0  0
  130.6820  126.3620   63.4570 C   0  0  0  0  0  0  0  0  0  0  0  0
  129.6990  127.1290   62.8860 N   0  0  0  0  0  0  0  0  0  0  0  0
  127.6600  130.3970   64.7710 C   0  0  0  0  0  0  0  0  0  0  0  0
  126.7050  131.1430   64.0640 C   0  0  0  0  0  0  0  0  0  0  0  0
  127.0200  132.1430   63.1610 O   0  0  0  0  0  0  0  0  0  0  0  0
  128.1230  131.9640   62.2780 C   0  0  0  0  0  0  0  0  0  0  0  0
  125.3450  130.8710   64.2700 C   0  0  0  0  0  0  0  0  0  0  0  0
  124.3990  131.5830   63.5700 O   0  0  0  0  0  0  0  0  0  0  0  0
  124.1240  131.0610   62.2770 C   0  0  0  0  0  0  0  0  0  0  0  0
  1  2  1  0
  2  3  1  0
  3  4  2  0
  4  5  1  0
  5  6  1  0
  6  7  1  0
  7  8  1  0
  8  9  2  0
  8 10  1  0
 10 11  1  0
 11 12  1  0
 12 13  2  0
 13 14  1  0
 14 15  1  0
 14 16  2  0
 16 17  1  0
 17 18  1  0
 18 19  1  0
 18 20  1  0
 18 21  1  0
 17 22  2  0
 22 23  1  0
 23 24  1  0
  5 25  2  0
 25 26  1  0
 26 27  1  0
 27 28  1  0
 26 29  2  0
 29 30  1  0
 30 31  1  0
 29  3  1  0
 23 10  2  0
 22 12  1  0
M  END
>  <Binding energies>  (51) 
[-6.55]

>  <Ligand effiencies>  (51) 
[-0.1926470588235294]

>  <Interactions>  (51) 
["H-A:GLU:543:OE1:4906, V-A:ARG:545:CZ:4923, H-A:GLU:543:OE2:4907, H-A:GLY:454:N:4046, V-A:ILE:369:CG1:3234, V-A:GLY:454:CA:4045, V-A:HIS:456:CE1:4066, V-A:GLU:543:CD:4905, V-A:GLU:543:CG:4904, V-B:HIS:456:CE1:9038, V-A:GLU:543:CB:4903, V-B:ILE:369:CD1:8207, V-B:ARG:545:CZ:9895, V-A:ALA:541:CB:4889, V-B:ARG:545:CD:9892, H-B:TYR:484:OH:9316, V-B:ASP:366:CG:8181, V-A:ASP:366:CG:3209, V-A:ASP:366:CB:3208, H-B:GLU:543:OE1:9878, H-B:GLY:454:N:9018, V-A:GLY:453:C:4038, V-B:GLY:453:CA:9012, V-B:GLY:453:C:9010, V-B:ARG:545:CG:9891, V-A:GLY:453:CA:4040, V-B:ILE:455:C:9020, H-B:ARG:545:NH1:9896, H-B:ARG:545:NE:9893, H-B:GLU:543:OE2:9879"]

$$$$
4bi_Grossjean_2025
     RDKit          3D

 23 25  0  0  0  0  0  0  0  0999 V2000
  133.4980  125.1000   65.3070 C   0  0  0  0  0  0  0  0  0  0  0  0
  132.7850  124.6860   64.0320 C   0  0  0  0  0  0  0  0  0  0  0  0
  133.4980  124.4000   62.8710 C   0  0  0  0  0  0  0  0  0  0  0  0
  132.8260  124.0140   61.7000 C   0  0  0  0  0  0  0  0  0  0  0  0
  133.6540  123.7010   60.4500 C   0  0  0  0  0  0  0  0  0  0  0  0
  134.9520  123.9730   60.6020 F   0  0  0  0  0  0  0  0  0  0  0  0
  133.5510  122.4070   60.1510 F   0  0  0  0  0  0  0  0  0  0  0  0
  133.2120  124.4270   59.4220 F   0  0  0  0  0  0  0  0  0  0  0  0
  131.4020  123.9370   61.7610 C   0  0  0  0  0  0  0  0  0  0  0  0
  130.3960  123.5900   60.7880 C   0  0  0  0  0  0  0  0  0  0  0  0
  130.7020  123.2470   59.4950 N   0  0  0  0  0  0  0  0  0  0  0  0
  129.0820  123.6270   61.2820 C   0  0  0  0  0  0  0  0  0  0  0  0
  127.8300  123.3490   60.5710 C   0  0  0  0  0  0  0  0  0  0  0  0
  127.8400  122.7790   59.4780 O   0  0  0  0  0  0  0  0  0  0  0  0
  126.6990  123.7420   61.2090 N   0  0  0  0  0  0  0  0  0  0  0  0
  125.3890  123.5930   60.7740 C   0  0  0  0  0  0  0  0  0  0  0  0
  124.8990  124.1910   59.6140 C   0  0  0  0  0  0  0  0  0  0  0  0
  123.5800  123.8040   59.5410 C   0  0  0  0  0  0  0  0  0  0  0  0
  123.2910  123.0130   60.6020 O   0  0  0  0  0  0  0  0  0  0  0  0
  124.4460  122.8880   61.3770 N   0  0  0  0  0  0  0  0  0  0  0  0
  129.0510  124.1210   62.9730 S   0  0  0  0  0  0  0  0  0  0  0  0
  130.7930  124.2560   63.0130 C   0  0  0  0  0  0  0  0  0  0  0  0
  131.4360  124.6200   64.1220 N   0  0  0  0  0  0  0  0  0  0  0  0
  1  2  1  0
  2  3  2  0
  3  4  1  0
  4  5  1  0
  5  6  1  0
  5  7  1  0
  5  8  1  0
  4  9  2  0
  9 10  1  0
 10 11  1  0
 10 12  2  0
 12 13  1  0
 13 14  2  0
 13 15  1  0
 15 16  1  0
 16 17  1  0
 17 18  2  0
 18 19  1  0
 19 20  1  0
 12 21  1  0
 21 22  1  0
 22 23  2  0
 23  2  1  0
 22  9  1  0
 20 16  2  0
M  END
>  <Binding energies>  (52) 
[-6.48]

>  <Ligand effiencies>  (52) 
[-0.24923076923076926]

>  <Interactions>  (52) 
["V-B:GLU:543:CD:9877, V-A:ARG:545:CZ:4923, V-A:ILE:369:CB:3232, V-A:ILE:369:CG1:3234, V-A:ILE:369:CG2:3233, V-A:GLY:454:CA:4045, V-B:TYR:539:CE2:9845, V-A:HIS:456:CE1:4066, V-B:GLU:543:CG:9876, V-B:TYR:539:CZ:9846, H-B:ALA:541:N:9860, V-B:TYR:539:CD2:9843, V-B:ALA:541:CB:9861, V-A:ASP:366:CG:3209, V-A:ASP:366:CB:3208, H-A:TYR:484:OH:4344, V-A:ARG:545:CD:4920, V-B:LEU:363:CD1:8157, V-B:PRO:540:CB:9854, V-B:LEU:363:CA:8153, V-B:PRO:540:CA:9852, V-B:LEU:363:CB:8155, V-B:ASN:362:C:8140, V-A:ASP:366:CA:3206, H-B:TYR:539:OH:9847, H-B:GLU:543:OE2:9879, H-B:LEU:363:N:8154"]

$$$$
4bj_Grossjean_2025
     RDKit          3D

 23 25  0  0  0  0  0  0  0  0999 V2000
  133.5870  125.0810   65.2970 C   0  0  0  0  0  0  0  0  0  0  0  0
  132.8740  124.6670   64.0230 C   0  0  0  0  0  0  0  0  0  0  0  0
  133.5880  124.3630   62.8670 C   0  0  0  0  0  0  0  0  0  0  0  0
  132.9150  123.9880   61.6940 C   0  0  0  0  0  0  0  0  0  0  0  0
  133.7440  123.6660   60.4450 C   0  0  0  0  0  0  0  0  0  0  0  0
  133.3810  124.3810   59.3790 F   0  0  0  0  0  0  0  0  0  0  0  0
  135.0310  123.9210   60.6800 F   0  0  0  0  0  0  0  0  0  0  0  0
  133.6000  122.3780   60.1300 F   0  0  0  0  0  0  0  0  0  0  0  0
  131.4900  123.9320   61.7480 C   0  0  0  0  0  0  0  0  0  0  0  0
  130.4820  123.6010   60.7700 C   0  0  0  0  0  0  0  0  0  0  0  0
  130.7890  123.2510   59.4790 N   0  0  0  0  0  0  0  0  0  0  0  0
  129.1680  123.6630   61.2580 C   0  0  0  0  0  0  0  0  0  0  0  0
  127.9160  123.4030   60.5430 C   0  0  0  0  0  0  0  0  0  0  0  0
  127.9220  122.8560   59.4380 O   0  0  0  0  0  0  0  0  0  0  0  0
  126.7860  123.7890   61.1870 N   0  0  0  0  0  0  0  0  0  0  0  0
  125.4810  123.6470   60.7370 C   0  0  0  0  0  0  0  0  0  0  0  0
  124.4770  123.0510   61.3430 N   0  0  0  0  0  0  0  0  0  0  0  0
  123.3730  123.1110   60.6260 C   0  0  0  0  0  0  0  0  0  0  0  0
  123.4670  123.7700   59.4040 C   0  0  0  0  0  0  0  0  0  0  0  0
  125.0970  124.3350   59.1910 S   0  0  0  0  0  0  0  0  0  0  0  0
  129.1370  124.1580   62.9490 S   0  0  0  0  0  0  0  0  0  0  0  0
  130.8810  124.2640   62.9970 C   0  0  0  0  0  0  0  0  0  0  0  0
  131.5240  124.6220   64.1080 N   0  0  0  0  0  0  0  0  0  0  0  0
  1  2  1  0
  2  3  2  0
  3  4  1  0
  4  5  1  0
  5  6  1  0
  5  7  1  0
  5  8  1  0
  4  9  2  0
  9 10  1  0
 10 11  1  0
 10 12  2  0
 12 13  1  0
 13 14  2  0
 13 15  1  0
 15 16  1  0
 16 17  2  0
 17 18  1  0
 18 19  2  0
 19 20  1  0
 12 21  1  0
 21 22  1  0
 22 23  2  0
 23  2  1  0
 22  9  1  0
 20 16  1  0
M  END
>  <Binding energies>  (53) 
[-6.31]

>  <Ligand effiencies>  (53) 
[-0.24269230769230768]

>  <Interactions>  (53) 
["V-B:GLU:543:CD:9877, V-A:ARG:545:CZ:4923, V-A:ILE:369:CB:3232, V-A:ILE:369:CG1:3234, V-A:ILE:369:CG2:3233, V-A:GLY:454:CA:4045, V-B:TYR:539:CE2:9845, V-A:HIS:456:CE1:4066, V-B:GLU:543:CG:9876, V-B:TYR:539:CZ:9846, H-B:ALA:541:N:9860, V-B:TYR:539:CD2:9843, V-B:ALA:541:CB:9861, V-A:ASP:366:CG:3209, V-A:ASP:366:CB:3208, H-A:TYR:484:OH:4344, V-A:ARG:545:CD:4920, V-B:LEU:363:CD1:8157, V-B:PRO:540:CB:9854, V-B:LEU:363:CA:8153, V-B:PRO:540:CA:9852, V-A:GLY:453:CA:4040, V-B:LEU:363:CB:8155, V-B:ASN:362:C:8140, V-B:ASN:362:CB:8144, V-A:ASP:366:CA:3206, V-B:ASN:362:CA:8142, H-B:TYR:539:OH:9847, H-B:GLU:543:OE2:9879"]

$$$$
4bk_Grossjean_2025
     RDKit          3D

 28 29  0  0  0  0  0  0  0  0999 V2000
  130.8570  122.4840   73.0050 C   0  0  0  0  0  0  0  0  0  0  0  0
  129.7880  123.4170   72.9860 O   0  0  0  0  0  0  0  0  0  0  0  0
  130.1870  124.7410   73.3170 C   0  0  0  0  0  0  0  0  0  0  0  0
  129.5570  125.7280   72.3250 C   0  0  0  0  0  0  0  0  0  0  0  0
  129.7240  127.0540   72.8090 O   0  0  0  0  0  0  0  0  0  0  0  0
  129.3770  128.0570   71.8640 C   0  0  0  0  0  0  0  0  0  0  0  0
  128.9690  127.3930   70.5410 C   0  0  0  0  0  0  0  0  0  0  0  0
  130.1370  127.0420   69.8130 O   0  0  0  0  0  0  0  0  0  0  0  0
  130.6500  128.0950   69.0050 C   0  0  0  0  0  0  0  0  0  0  0  0
  129.9120  128.1090   67.6560 C   0  0  0  0  0  0  0  0  0  0  0  0
  130.5300  127.2560   66.6390 N   0  0  0  0  0  0  0  0  0  0  0  0
  130.2540  125.9500   66.4450 C   0  0  0  0  0  0  0  0  0  0  0  0
  129.4160  125.3450   67.1160 O   0  0  0  0  0  0  0  0  0  0  0  0
  131.0040  125.2850   65.3780 C   0  0  0  0  0  0  0  0  0  0  0  0
  132.6080  125.8620   64.9340 S   0  0  0  0  0  0  0  0  0  0  0  0
  132.7720  124.6090   63.7270 C   0  0  0  0  0  0  0  0  0  0  0  0
  133.8680  124.5050   62.9770 N   0  0  0  0  0  0  0  0  0  0  0  0
  133.8800  123.4940   62.0780 C   0  0  0  0  0  0  0  0  0  0  0  0
  135.1400  123.3920   61.2370 C   0  0  0  0  0  0  0  0  0  0  0  0
  132.8300  122.5940   61.9120 C   0  0  0  0  0  0  0  0  0  0  0  0
  131.6710  122.6990   62.6960 C   0  0  0  0  0  0  0  0  0  0  0  0
  130.5420  121.6880   62.4750 C   0  0  0  0  0  0  0  0  0  0  0  0
  130.8920  120.6810   61.6710 F   0  0  0  0  0  0  0  0  0  0  0  0
  130.1740  121.1590   63.6410 F   0  0  0  0  0  0  0  0  0  0  0  0
  129.4950  122.2960   61.9180 F   0  0  0  0  0  0  0  0  0  0  0  0
  131.6270  123.7540   63.6560 C   0  0  0  0  0  0  0  0  0  0  0  0
  130.6350  124.1650   64.6180 C   0  0  0  0  0  0  0  0  0  0  0  0
  129.4360  123.5170   64.7700 N   0  0  0  0  0  0  0  0  0  0  0  0
  1  2  1  0
  2  3  1  0
  3  4  1  0
  4  5  1  0
  5  6  1  0
  6  7  1  0
  7  8  1  0
  8  9  1  0
  9 10  1  0
 10 11  1  0
 11 12  1  0
 12 13  2  0
 12 14  1  0
 14 15  1  0
 15 16  1  0
 16 17  2  0
 17 18  1  0
 18 19  1  0
 18 20  2  0
 20 21  1  0
 21 22  1  0
 22 23  1  0
 22 24  1  0
 22 25  1  0
 21 26  2  0
 26 27  1  0
 27 28  1  0
 27 14  2  0
 26 16  1  0
M  END
>  <Binding energies>  (54) 
[-5.75]

>  <Ligand effiencies>  (54) 
[-0.18548387096774194]

>  <Interactions>  (54) 
["V-A:LEU:475:CD1:4254, V-B:GLU:543:CD:9877, H-A:GLU:543:OE1:4906, V-A:ARG:545:CZ:4923, V-A:ILE:369:CB:3232, H-A:ARG:545:NH1:4924, H-A:GLY:454:N:4046, V-A:ILE:369:CG1:3234, V-A:GLY:454:CA:4045, V-B:TYR:539:CE2:9845, V-A:HIS:456:CE1:4066, V-A:GLU:543:CD:4905, V-B:GLU:543:CB:9875, V-B:HIS:456:CE1:9038, V-A:TYR:484:CE1:4341, V-A:HIS:456:CD2:4064, V-B:HIS:456:CD2:9036, V-A:GLU:543:CB:4903, V-B:GLU:543:CG:9876, V-B:TYR:539:CD2:9843, V-B:ALA:541:CB:9861, V-A:ARG:545:CD:4920, V-B:LYS:547:CE:9919, V-A:GLU:543:C:4899, H-A:LYS:547:NZ:4948, H-B:LYS:547:NZ:9920, V-A:LEU:475:CD2:4255, V-A:GLY:453:C:4038, V-A:GLY:453:CA:4040, V-A:LEU:475:CG:4253, V-A:TYR:484:CD2:4340, V-A:ASP:473:CB:4235, V-A:ASP:473:CG:4236"]

$$$$
4cd_Grossjean_2025
     RDKit          3D

 29 32  0  0  0  0  0  0  0  0999 V2000
  127.1330  130.2690   66.3210 N   0  0  0  0  0  0  0  0  0  0  0  0
  127.3390  129.4570   65.2340 C   0  0  0  0  0  0  0  0  0  0  0  0
  126.7040  129.6530   63.9970 C   0  0  0  0  0  0  0  0  0  0  0  0
  125.7330  130.6850   63.6210 C   0  0  0  0  0  0  0  0  0  0  0  0
  124.5720  130.6320   64.0290 O   0  0  0  0  0  0  0  0  0  0  0  0
  126.2120  131.6690   62.8220 N   0  0  0  0  0  0  0  0  0  0  0  0
  125.5390  132.7640   62.2480 C   0  0  0  0  0  0  0  0  0  0  0  0
  126.2860  133.5460   61.3620 C   0  0  0  0  0  0  0  0  0  0  0  0
  125.7060  134.6430   60.7330 C   0  0  0  0  0  0  0  0  0  0  0  0
  124.3730  134.9570   60.9840 C   0  0  0  0  0  0  0  0  0  0  0  0
  123.6130  134.1800   61.8530 C   0  0  0  0  0  0  0  0  0  0  0  0
  124.1900  133.0800   62.4850 C   0  0  0  0  0  0  0  0  0  0  0  0
  127.2060  128.4350   62.8250 S   0  0  0  0  0  0  0  0  0  0  0  0
  128.2500  127.6710   63.9990 C   0  0  0  0  0  0  0  0  0  0  0  0
  128.9680  126.5930   63.6920 N   0  0  0  0  0  0  0  0  0  0  0  0
  129.7410  126.0610   64.6750 C   0  0  0  0  0  0  0  0  0  0  0  0
  130.5370  124.8450   64.3010 C   0  0  0  0  0  0  0  0  0  0  0  0
  131.9350  124.9090   64.1820 C   0  0  0  0  0  0  0  0  0  0  0  0
  132.6790  123.7850   63.8360 C   0  0  0  0  0  0  0  0  0  0  0  0
  132.0340  122.5750   63.6020 C   0  0  0  0  0  0  0  0  0  0  0  0
  130.6510  122.4830   63.7160 C   0  0  0  0  0  0  0  0  0  0  0  0
  129.9110  123.6090   64.0650 C   0  0  0  0  0  0  0  0  0  0  0  0
  129.8040  126.6250   65.9530 C   0  0  0  0  0  0  0  0  0  0  0  0
  129.0530  127.7640   66.2860 C   0  0  0  0  0  0  0  0  0  0  0  0
  129.1660  128.3280   67.7070 C   0  0  0  0  0  0  0  0  0  0  0  0
  128.9510  129.6450   67.7670 F   0  0  0  0  0  0  0  0  0  0  0  0
  128.2690  127.7400   68.4990 F   0  0  0  0  0  0  0  0  0  0  0  0
  130.3900  128.1030   68.1850 F   0  0  0  0  0  0  0  0  0  0  0  0
  128.2300  128.3230   65.2670 C   0  0  0  0  0  0  0  0  0  0  0  0
  1  2  1  0
  2  3  2  0
  3  4  1  0
  4  5  2  0
  4  6  1  0
  6  7  1  0
  7  8  2  0
  8  9  1  0
  9 10  2  0
 10 11  1  0
 11 12  2  0
  3 13  1  0
 13 14  1  0
 14 15  2  0
 15 16  1  0
 16 17  1  0
 17 18  2  0
 18 19  1  0
 19 20  2  0
 20 21  1  0
 21 22  2  0
 16 23  2  0
 23 24  1  0
 24 25  1  0
 25 26  1  0
 25 27  1  0
 25 28  1  0
 24 29  2  0
 29  2  1  0
 12  7  1  0
 29 14  1  0
 22 17  1  0
M  END
>  <Binding energies>  (55) 
[-7.18]

>  <Ligand effiencies>  (55) 
[-0.224375]

>  <Interactions>  (55) 
["V-A:LEU:475:CD1:4254, V-B:GLU:543:CD:9877, H-A:GLU:543:OE2:4907, V-A:GLY:454:CA:4045, V-A:HIS:456:CE1:4066, V-A:GLU:543:CD:4905, H-B:HIS:456:NE2:9039, V-A:GLU:543:CG:4904, V-B:HIS:456:CE1:9038, V-B:HIS:456:CD2:9036, V-A:GLU:543:CB:4903, V-B:GLU:543:CG:9876, V-B:ILE:369:CD1:8207, V-B:ILE:369:CG2:8205, V-B:TRP:381:CH2:8340, V-B:GLY:454:CA:9017, H-B:TYR:484:OH:9316, V-A:TYR:539:CD2:4871, V-B:LEU:475:CD2:9227, V-B:ALA:541:CB:9861, V-A:GLU:543:C:4899, V-A:GLU:543:CA:4901, H-B:GLY:454:N:9018, V-B:TYR:484:CE1:9313, V-B:TYR:484:CZ:9315"]

$$$$
4cg_Grossjean_2025
     RDKit          3D

 30 33  0  0  0  0  0  0  0  0999 V2000
  126.7720  129.9400   66.2490 N   0  0  0  0  0  0  0  0  0  0  0  0
  127.0480  129.1860   65.1370 C   0  0  0  0  0  0  0  0  0  0  0  0
  126.3240  129.2890   63.9410 C   0  0  0  0  0  0  0  0  0  0  0  0
  125.2230  130.1960   63.6170 C   0  0  0  0  0  0  0  0  0  0  0  0
  124.5750  130.7610   64.5000 O   0  0  0  0  0  0  0  0  0  0  0  0
  124.9420  130.3400   62.3040 N   0  0  0  0  0  0  0  0  0  0  0  0
  123.9040  131.2070   61.7500 C   0  0  0  0  0  0  0  0  0  0  0  0
  124.4210  132.5780   61.3280 C   0  0  0  0  0  0  0  0  0  0  0  0
  123.7410  133.7300   61.7310 C   0  0  0  0  0  0  0  0  0  0  0  0
  124.2270  134.9860   61.3740 C   0  0  0  0  0  0  0  0  0  0  0  0
  125.3970  135.0840   60.6240 C   0  0  0  0  0  0  0  0  0  0  0  0
  126.0890  133.9390   60.2340 C   0  0  0  0  0  0  0  0  0  0  0  0
  125.6040  132.6840   60.5910 C   0  0  0  0  0  0  0  0  0  0  0  0
  126.9530  128.1950   62.7130 S   0  0  0  0  0  0  0  0  0  0  0  0
  128.1660  127.5890   63.8160 C   0  0  0  0  0  0  0  0  0  0  0  0
  129.0330  126.6510   63.4470 N   0  0  0  0  0  0  0  0  0  0  0  0
  129.9440  126.2450   64.3700 C   0  0  0  0  0  0  0  0  0  0  0  0
  130.9070  125.1830   63.9220 C   0  0  0  0  0  0  0  0  0  0  0  0
  130.6470  123.8240   64.1660 C   0  0  0  0  0  0  0  0  0  0  0  0
  131.5370  122.8370   63.7550 C   0  0  0  0  0  0  0  0  0  0  0  0
  132.7080  123.1950   63.0920 C   0  0  0  0  0  0  0  0  0  0  0  0
  132.9920  124.5320   62.8400 C   0  0  0  0  0  0  0  0  0  0  0  0
  132.0990  125.5160   63.2540 C   0  0  0  0  0  0  0  0  0  0  0  0
  129.9650  126.7720   65.6660 C   0  0  0  0  0  0  0  0  0  0  0  0
  129.0540  127.7620   66.0670 C   0  0  0  0  0  0  0  0  0  0  0  0
  129.1330  128.2960   67.5020 C   0  0  0  0  0  0  0  0  0  0  0  0
  128.9750  129.6180   67.5780 F   0  0  0  0  0  0  0  0  0  0  0  0
  128.1780  127.7350   68.2440 F   0  0  0  0  0  0  0  0  0  0  0  0
  130.3230  128.0060   68.0260 F   0  0  0  0  0  0  0  0  0  0  0  0
  128.1050  128.2050   65.1010 C   0  0  0  0  0  0  0  0  0  0  0  0
  1  2  1  0
  2  3  2  0
  3  4  1  0
  4  5  2  0
  4  6  1  0
  6  7  1  0
  7  8  1  0
  8  9  2  0
  9 10  1  0
 10 11  2  0
 11 12  1  0
 12 13  2  0
  3 14  1  0
 14 15  1  0
 15 16  2  0
 16 17  1  0
 17 18  1  0
 18 19  2  0
 19 20  1  0
 20 21  2  0
 21 22  1  0
 22 23  2  0
 17 24  2  0
 24 25  1  0
 25 26  1  0
 26 27  1  0
 26 28  1  0
 26 29  1  0
 25 30  2  0
 30  2  1  0
 13  8  1  0
 30 15  1  0
 23 18  1  0
M  END
>  <Binding energies>  (56) 
[-7.27]

>  <Ligand effiencies>  (56) 
[-0.22030303030303028]

>  <Interactions>  (56) 
["V-A:LEU:475:CD1:4254, V-B:GLU:543:CD:9877, V-A:ARG:545:CZ:4923, V-A:GLY:454:CA:4045, V-A:HIS:456:CE1:4066, V-A:GLU:543:CD:4905, H-B:HIS:456:NE2:9039, V-A:GLU:543:CG:4904, V-B:HIS:456:CE1:9038, V-B:HIS:456:CD2:9036, V-A:GLU:543:CB:4903, V-B:ILE:369:CD1:8207, V-B:ILE:369:CG2:8205, V-B:TRP:381:CH2:8340, V-A:TYR:539:CE2:4873, H-B:TYR:484:OH:9316, V-A:TYR:539:CD2:4871, V-B:LEU:475:CD2:9227, V-B:ASP:366:CG:8181, H-B:ASP:366:OD1:8182, H-B:ASP:366:OD2:8183, V-A:GLU:543:C:4899, V-A:GLU:543:CA:4901, H-B:GLY:454:N:9018, V-B:TYR:484:CE1:9313, V-B:TYR:484:CZ:9315, V-B:TRP:381:CZ2:8338"]

$$$$
4ch_Grossjean_2025
     RDKit          3D

 36 39  0  0  0  0  0  0  0  0999 V2000
  129.0430  129.7970   73.0120 C   0  0  0  0  0  0  0  0  0  0  0  0
  129.3500  128.5080   73.5320 O   0  0  0  0  0  0  0  0  0  0  0  0
  129.1200  127.3900   72.7510 C   0  0  0  0  0  0  0  0  0  0  0  0
  128.3400  127.3960   71.5840 C   0  0  0  0  0  0  0  0  0  0  0  0
  128.1520  126.2280   70.8420 C   0  0  0  0  0  0  0  0  0  0  0  0
  127.2790  126.2480   69.5930 C   0  0  0  0  0  0  0  0  0  0  0  0
  128.0070  125.9990   68.3480 N   0  0  0  0  0  0  0  0  0  0  0  0
  128.4720  126.9460   67.5080 C   0  0  0  0  0  0  0  0  0  0  0  0
  128.3450  128.1520   67.7330 O   0  0  0  0  0  0  0  0  0  0  0  0
  129.1740  126.4610   66.3190 C   0  0  0  0  0  0  0  0  0  0  0  0
  130.3740  125.1810   66.4650 S   0  0  0  0  0  0  0  0  0  0  0  0
  130.6620  125.1960   64.7420 C   0  0  0  0  0  0  0  0  0  0  0  0
  131.5510  124.3810   64.1790 N   0  0  0  0  0  0  0  0  0  0  0  0
  131.7030  124.4610   62.8310 C   0  0  0  0  0  0  0  0  0  0  0  0
  132.7180  123.5330   62.2280 C   0  0  0  0  0  0  0  0  0  0  0  0
  134.0060  123.9890   61.9030 C   0  0  0  0  0  0  0  0  0  0  0  0
  134.9510  123.1340   61.3420 C   0  0  0  0  0  0  0  0  0  0  0  0
  134.6210  121.8060   61.0980 C   0  0  0  0  0  0  0  0  0  0  0  0
  133.3520  121.3280   61.4070 C   0  0  0  0  0  0  0  0  0  0  0  0
  132.4090  122.1870   61.9650 C   0  0  0  0  0  0  0  0  0  0  0  0
  130.9740  125.3700   62.0580 C   0  0  0  0  0  0  0  0  0  0  0  0
  130.0340  126.2360   62.6410 C   0  0  0  0  0  0  0  0  0  0  0  0
  129.2690  127.2080   61.7360 C   0  0  0  0  0  0  0  0  0  0  0  0
  129.3760  128.4810   62.1260 F   0  0  0  0  0  0  0  0  0  0  0  0
  129.7390  127.1310   60.4920 F   0  0  0  0  0  0  0  0  0  0  0  0
  127.9730  126.8990   61.7360 F   0  0  0  0  0  0  0  0  0  0  0  0
  129.8580  126.1510   64.0520 C   0  0  0  0  0  0  0  0  0  0  0  0
  129.0060  126.8530   64.9820 C   0  0  0  0  0  0  0  0  0  0  0  0
  128.1200  127.8250   64.5910 N   0  0  0  0  0  0  0  0  0  0  0  0
  128.7320  125.0360   71.2770 C   0  0  0  0  0  0  0  0  0  0  0  0
  129.5160  125.0000   72.4420 C   0  0  0  0  0  0  0  0  0  0  0  0
  130.1220  123.8570   72.9290 O   0  0  0  0  0  0  0  0  0  0  0  0
  130.1280  122.6760   72.1340 C   0  0  0  0  0  0  0  0  0  0  0  0
  129.7070  126.1860   73.1660 C   0  0  0  0  0  0  0  0  0  0  0  0
  130.4590  126.1620   74.3160 O   0  0  0  0  0  0  0  0  0  0  0  0
  129.6900  126.1810   75.5110 C   0  0  0  0  0  0  0  0  0  0  0  0
  1  2  1  0
  2  3  1  0
  3  4  2  0
  4  5  1  0
  5  6  1  0
  6  7  1  0
  7  8  1  0
  8  9  2  0
  8 10  1  0
 10 11  1  0
 11 12  1  0
 12 13  2  0
 13 14  1  0
 14 15  1  0
 15 16  2  0
 16 17  1  0
 17 18  2  0
 18 19  1  0
 19 20  2  0
 14 21  2  0
 21 22  1  0
 22 23  1  0
 23 24  1  0
 23 25  1  0
 23 26  1  0
 22 27  2  0
 27 28  1  0
 28 29  1  0
  5 30  2  0
 30 31  1  0
 31 32  1  0
 32 33  1  0
 31 34  2  0
 34 35  1  0
 35 36  1  0
 34  3  1  0
 28 10  2  0
 27 12  1  0
 20 15  1  0
M  END
>  <Binding energies>  (57) 
[-7.29]

>  <Ligand effiencies>  (57) 
[-0.18692307692307691]

>  <Interactions>  (57) 
["V-A:LEU:475:CD1:4254, V-B:GLU:543:CD:9877, H-A:GLU:543:OE1:4906, V-A:ILE:369:CB:3232, H-A:GLU:543:OE2:4907, V-A:ILE:369:CG1:3234, V-A:ILE:369:CG2:3233, V-A:GLY:454:CA:4045, V-B:TYR:539:CE2:9845, V-A:HIS:456:CE1:4066, V-A:GLU:543:CD:4905, V-A:TYR:484:CZ:4343, V-B:GLU:543:CA:9873, V-B:GLU:543:C:9871, V-B:GLU:543:CB:9875, V-B:HIS:456:CE1:9038, V-A:TYR:484:CE1:4341, V-B:GLY:544:C:9881, V-A:HIS:456:CD2:4064, V-B:HIS:456:CD2:9036, V-B:GLU:543:CG:9876, V-A:ASP:366:CG:3209, H-A:TYR:484:OH:4344, H-B:GLU:543:OE1:9878, V-B:LYS:547:CE:9919, V-A:LYS:547:CE:4947, H-B:GLU:543:O:9872, H-A:LYS:547:NZ:4948, H-B:LYS:547:NZ:9920, V-A:GLY:453:C:4038, V-A:ILE:369:CD1:3235, V-A:GLY:453:CA:4040, V-B:GLY:544:CA:9883, V-A:TYR:484:CD2:4340, V-A:TYR:484:CD1:4339, V-A:TYR:484:CG:4338, V-A:TYR:484:CB:4337, H-B:GLU:543:OE2:9879"]

$$$$
4cj_Grossjean_2025
     RDKit          3D

 28 31  0  0  0  0  0  0  0  0999 V2000
  131.1520  124.7740   66.3020 N   0  0  0  0  0  0  0  0  0  0  0  0
  130.7540  125.5740   65.2620 C   0  0  0  0  0  0  0  0  0  0  0  0
  131.3150  125.5000   63.9760 C   0  0  0  0  0  0  0  0  0  0  0  0
  132.3710  124.6080   63.4910 C   0  0  0  0  0  0  0  0  0  0  0  0
  133.5400  124.7570   63.8570 O   0  0  0  0  0  0  0  0  0  0  0  0
  131.9680  123.6450   62.6260 N   0  0  0  0  0  0  0  0  0  0  0  0
  132.7640  122.6790   62.0230 C   0  0  0  0  0  0  0  0  0  0  0  0
  132.4280  121.4520   61.6870 N   0  0  0  0  0  0  0  0  0  0  0  0
  133.4360  120.8100   61.1300 C   0  0  0  0  0  0  0  0  0  0  0  0
  134.6260  121.5220   61.0040 C   0  0  0  0  0  0  0  0  0  0  0  0
  134.4010  123.1190   61.6530 S   0  0  0  0  0  0  0  0  0  0  0  0
  130.5610  126.6590   62.8840 S   0  0  0  0  0  0  0  0  0  0  0  0
  129.5050  127.2340   64.1530 C   0  0  0  0  0  0  0  0  0  0  0  0
  128.6140  128.1960   63.9310 N   0  0  0  0  0  0  0  0  0  0  0  0
  127.8310  128.5730   64.9750 C   0  0  0  0  0  0  0  0  0  0  0  0
  126.8270  129.6520   64.6870 C   0  0  0  0  0  0  0  0  0  0  0  0
  125.4810  129.3340   64.4450 C   0  0  0  0  0  0  0  0  0  0  0  0
  124.5460  130.3290   64.1720 C   0  0  0  0  0  0  0  0  0  0  0  0
  124.9470  131.6610   64.1340 C   0  0  0  0  0  0  0  0  0  0  0  0
  126.2740  132.0030   64.3690 C   0  0  0  0  0  0  0  0  0  0  0  0
  127.2050  131.0050   64.6430 C   0  0  0  0  0  0  0  0  0  0  0  0
  127.9660  127.9980   66.2430 C   0  0  0  0  0  0  0  0  0  0  0  0
  128.9040  126.9830   66.4900 C   0  0  0  0  0  0  0  0  0  0  0  0
  128.9960  126.3950   67.9020 C   0  0  0  0  0  0  0  0  0  0  0  0
  129.0700  125.0620   67.9110 F   0  0  0  0  0  0  0  0  0  0  0  0
  130.0860  126.8590   68.5130 F   0  0  0  0  0  0  0  0  0  0  0  0
  127.9170  126.7390   68.6060 F   0  0  0  0  0  0  0  0  0  0  0  0
  129.7170  126.5680   65.3960 C   0  0  0  0  0  0  0  0  0  0  0  0
  1  2  1  0
  2  3  2  0
  3  4  1  0
  4  5  2  0
  4  6  1  0
  6  7  1  0
  7  8  2  0
  8  9  1  0
  9 10  2  0
 10 11  1  0
  3 12  1  0
 12 13  1  0
 13 14  2  0
 14 15  1  0
 15 16  1  0
 16 17  2  0
 17 18  1  0
 18 19  2  0
 19 20  1  0
 20 21  2  0
 15 22  2  0
 22 23  1  0
 23 24  1  0
 24 25  1  0
 24 26  1  0
 24 27  1  0
 23 28  2  0
 28  2  1  0
 11  7  1  0
 28 13  1  0
 21 16  1  0
M  END
>  <Binding energies>  (58) 
[-7.0]

>  <Ligand effiencies>  (58) 
[-0.22580645161290322]

>  <Interactions>  (58) 
["V-A:LEU:475:CD1:4254, V-B:GLU:543:CD:9877, V-A:ILE:369:CB:3232, H-A:ARG:545:NH2:4925, H-A:GLY:454:N:4046, V-A:ILE:369:CG1:3234, V-A:ILE:369:CG2:3233, V-A:GLY:454:CA:4045, V-B:TYR:539:CE2:9845, V-A:HIS:456:CE1:4066, V-A:GLU:543:CD:4905, V-A:GLU:543:CG:4904, V-A:TYR:484:CZ:4343, V-B:GLU:543:CA:9873, V-B:GLU:543:C:9871, V-B:GLU:543:CB:9875, V-B:HIS:456:CE1:9038, V-A:TYR:484:CE1:4341, V-B:GLU:543:CG:9876, V-B:ARG:545:CZ:9895, V-B:GLY:454:CA:9017, H-A:TYR:484:OH:4344, H-A:HIS:456:NE2:4067, V-A:GLY:453:C:4038, V-A:ILE:369:CD1:3235, V-B:TYR:484:CZ:9315, V-A:GLY:453:CA:4040"]

$$$$
4ck_Grossjean_2025
     RDKit          3D

 33 35  0  0  0  0  0  0  0  0999 V2000
  134.8700  125.1170   66.2430 C   0  0  0  0  0  0  0  0  0  0  0  0
  133.9380  124.4920   65.3730 O   0  0  0  0  0  0  0  0  0  0  0  0
  133.0570  125.4080   64.7390 C   0  0  0  0  0  0  0  0  0  0  0  0
  133.0890  125.1670   63.2240 C   0  0  0  0  0  0  0  0  0  0  0  0
  133.8270  123.9830   62.9590 O   0  0  0  0  0  0  0  0  0  0  0  0
  133.8840  123.6470   61.5790 C   0  0  0  0  0  0  0  0  0  0  0  0
  132.7550  124.3740   60.8380 C   0  0  0  0  0  0  0  0  0  0  0  0
  131.7000  123.4530   60.5950 O   0  0  0  0  0  0  0  0  0  0  0  0
  131.9190  122.1660   61.1600 C   0  0  0  0  0  0  0  0  0  0  0  0
  130.9450  121.9430   62.3260 C   0  0  0  0  0  0  0  0  0  0  0  0
  130.4900  123.2050   62.9120 N   0  0  0  0  0  0  0  0  0  0  0  0
  130.3310  123.4530   64.2290 C   0  0  0  0  0  0  0  0  0  0  0  0
  130.5900  122.6190   65.0990 O   0  0  0  0  0  0  0  0  0  0  0  0
  129.8390  124.7870   64.5730 C   0  0  0  0  0  0  0  0  0  0  0  0
  128.9950  125.7560   63.3680 S   0  0  0  0  0  0  0  0  0  0  0  0
  128.7300  127.0400   64.5240 C   0  0  0  0  0  0  0  0  0  0  0  0
  128.0840  128.1540   64.1890 N   0  0  0  0  0  0  0  0  0  0  0  0
  127.9260  129.0970   65.1550 C   0  0  0  0  0  0  0  0  0  0  0  0
  127.1770  130.3340   64.7500 C   0  0  0  0  0  0  0  0  0  0  0  0
  127.7920  131.5950   64.7990 C   0  0  0  0  0  0  0  0  0  0  0  0
  127.1020  132.7470   64.4270 C   0  0  0  0  0  0  0  0  0  0  0  0
  125.7830  132.6520   63.9980 C   0  0  0  0  0  0  0  0  0  0  0  0
  125.1510  131.4140   63.9350 C   0  0  0  0  0  0  0  0  0  0  0  0
  125.8450  130.2660   64.3070 C   0  0  0  0  0  0  0  0  0  0  0  0
  128.4110  128.9120   66.4540 C   0  0  0  0  0  0  0  0  0  0  0  0
  129.0940  127.7410   66.8170 C   0  0  0  0  0  0  0  0  0  0  0  0
  129.6020  127.6060   68.2580 C   0  0  0  0  0  0  0  0  0  0  0  0
  129.0100  126.6180   68.9320 F   0  0  0  0  0  0  0  0  0  0  0  0
  130.9110  127.3570   68.2530 F   0  0  0  0  0  0  0  0  0  0  0  0
  129.3720  128.7370   68.9240 F   0  0  0  0  0  0  0  0  0  0  0  0
  129.2670  126.7470   65.8120 C   0  0  0  0  0  0  0  0  0  0  0  0
  129.8900  125.4450   65.8110 C   0  0  0  0  0  0  0  0  0  0  0  0
  130.4830  124.9050   66.9240 N   0  0  0  0  0  0  0  0  0  0  0  0
  1  2  1  0
  2  3  1  0
  3  4  1  0
  4  5  1  0
  5  6  1  0
  6  7  1  0
  7  8  1  0
  8  9  1  0
  9 10  1  0
 10 11  1  0
 11 12  1  0
 12 13  2  0
 12 14  1  0
 14 15  1  0
 15 16  1  0
 16 17  2  0
 17 18  1  0
 18 19  1  0
 19 20  2  0
 20 21  1  0
 21 22  2  0
 22 23  1  0
 23 24  2  0
 18 25  2  0
 25 26  1  0
 26 27  1  0
 27 28  1  0
 27 29  1  0
 27 30  1  0
 26 31  2  0
 31 32  1  0
 32 33  1  0
 32 14  2  0
 31 16  1  0
 24 19  1  0
M  END
>  <Binding energies>  (59) 
[-5.88]

>  <Ligand effiencies>  (59) 
[-0.16333333333333333]

>  <Interactions>  (59) 
["V-A:LEU:475:CD1:4254, V-B:GLU:543:CD:9877, V-A:ARG:545:CZ:4923, H-A:GLY:454:N:4046, V-A:ARG:545:CG:4919, V-A:GLY:454:CA:4045, V-B:TYR:539:CE2:9845, V-A:HIS:456:CE1:4066, V-A:GLY:454:C:4043, V-A:GLU:543:CD:4905, V-A:GLU:543:CG:4904, V-A:TYR:484:CZ:4343, V-B:GLU:543:CB:9875, V-B:HIS:456:CE1:9038, V-A:TYR:484:CE1:4341, V-B:HIS:456:CD2:9036, V-A:GLU:543:CB:4903, V-B:GLU:543:CG:9876, V-A:ALA:541:CB:4889, V-B:GLY:454:CA:9017, V-B:LEU:475:CD2:9227, V-B:TYR:539:CZ:9846, V-A:ASP:366:CG:3209, H-A:TYR:484:OH:4344, V-A:ARG:545:CD:4920, H-A:HIS:456:NE2:4067, V-A:GLU:543:C:4899, V-A:GLU:543:CA:4901, V-A:GLY:453:C:4038, V-B:TYR:484:CE1:9313, V-B:TYR:484:CZ:9315, V-A:ILE:455:C:4048, V-A:GLY:453:CA:4040, H-B:TYR:539:OH:9847"]

$$$$
4dd_Grossjean_2025
     RDKit          3D

 26 29  0  0  0  0  0  0  0  0999 V2000
  129.3270  128.5270   67.9170 C   0  0  0  0  0  0  0  0  0  0  0  0
  129.1640  127.9030   66.5390 C   0  0  0  0  0  0  0  0  0  0  0  0
  129.9120  126.7570   66.2400 C   0  0  0  0  0  0  0  0  0  0  0  0
  129.8070  126.1350   64.9900 C   0  0  0  0  0  0  0  0  0  0  0  0
  130.6000  124.9110   64.6410 C   0  0  0  0  0  0  0  0  0  0  0  0
  131.9650  125.0030   64.3260 C   0  0  0  0  0  0  0  0  0  0  0  0
  132.7080  123.8700   64.0040 C   0  0  0  0  0  0  0  0  0  0  0  0
  132.0930  122.6240   63.9900 C   0  0  0  0  0  0  0  0  0  0  0  0
  130.7420  122.5020   64.2990 C   0  0  0  0  0  0  0  0  0  0  0  0
  130.0040  123.6380   64.6230 C   0  0  0  0  0  0  0  0  0  0  0  0
  128.9900  126.6180   64.0140 N   0  0  0  0  0  0  0  0  0  0  0  0
  128.2730  127.7030   64.2990 C   0  0  0  0  0  0  0  0  0  0  0  0
  127.1710  128.4180   63.1440 S   0  0  0  0  0  0  0  0  0  0  0  0
  126.7130  129.6800   64.2900 C   0  0  0  0  0  0  0  0  0  0  0  0
  125.7210  130.6920   63.9210 C   0  0  0  0  0  0  0  0  0  0  0  0
  124.5720  130.6340   64.3610 O   0  0  0  0  0  0  0  0  0  0  0  0
  126.1670  131.6650   63.0900 N   0  0  0  0  0  0  0  0  0  0  0  0
  125.4670  132.7390   62.5110 C   0  0  0  0  0  0  0  0  0  0  0  0
  126.1830  133.5100   61.5900 C   0  0  0  0  0  0  0  0  0  0  0  0
  125.5730  134.5860   60.9510 C   0  0  0  0  0  0  0  0  0  0  0  0
  124.2430  134.8900   61.2280 C   0  0  0  0  0  0  0  0  0  0  0  0
  123.5150  134.1230   62.1340 C   0  0  0  0  0  0  0  0  0  0  0  0
  124.1210  133.0460   62.7740 C   0  0  0  0  0  0  0  0  0  0  0  0
  127.4020  129.5340   65.5040 C   0  0  0  0  0  0  0  0  0  0  0  0
  127.2470  130.3770   66.5760 N   0  0  0  0  0  0  0  0  0  0  0  0
  128.2990  128.4090   65.5350 C   0  0  0  0  0  0  0  0  0  0  0  0
  1  2  1  0
  2  3  2  0
  3  4  1  0
  4  5  1  0
  5  6  2  0
  6  7  1  0
  7  8  2  0
  8  9  1  0
  9 10  2  0
  4 11  2  0
 11 12  1  0
 12 13  1  0
 13 14  1  0
 14 15  1  0
 15 16  2  0
 15 17  1  0
 17 18  1  0
 18 19  2  0
 19 20  1  0
 20 21  2  0
 21 22  1  0
 22 23  2  0
 14 24  2  0
 24 25  1  0
 24 26  1  0
 26  2  1  0
 10  5  1  0
 26 12  2  0
 23 18  1  0
M  END
>  <Binding energies>  (60) 
[-7.6]

>  <Ligand effiencies>  (60) 
[-0.26206896551724135]

>  <Interactions>  (60) 
["V-A:LEU:475:CD1:4254, V-B:GLU:543:CD:9877, H-A:GLU:543:OE2:4907, V-A:GLY:454:CA:4045, V-A:GLU:543:CD:4905, H-B:HIS:456:NE2:9039, V-A:GLU:543:CG:4904, V-A:TYR:484:CZ:4343, V-B:HIS:456:CE1:9038, V-A:TYR:484:CE1:4341, V-A:GLU:543:CB:4903, V-B:GLU:543:CG:9876, V-B:ILE:369:CD1:8207, V-B:ILE:369:CG2:8205, V-B:TRP:381:CH2:8340, V-B:GLY:454:CA:9017, H-B:TYR:484:OH:9316, V-B:LEU:475:CD2:9227, V-A:GLU:543:C:4899, V-A:LEU:475:CD2:4255, H-B:GLY:454:N:9018, V-B:TYR:484:CE1:9313, V-B:TYR:484:CZ:9315"]

$$$$
4dg_Grossjean_2025
     RDKit          3D

 27 30  0  0  0  0  0  0  0  0999 V2000
  132.1060  128.5210   68.6890 C   0  0  0  0  0  0  0  0  0  0  0  0
  130.8660  127.6930   68.3870 C   0  0  0  0  0  0  0  0  0  0  0  0
  130.6990  127.2030   67.0860 C   0  0  0  0  0  0  0  0  0  0  0  0
  129.5800  126.4350   66.7440 C   0  0  0  0  0  0  0  0  0  0  0  0
  129.3750  125.8950   65.3570 C   0  0  0  0  0  0  0  0  0  0  0  0
  129.5820  124.5350   65.0750 C   0  0  0  0  0  0  0  0  0  0  0  0
  129.3970  124.0300   63.7900 C   0  0  0  0  0  0  0  0  0  0  0  0
  129.0000  124.8810   62.7640 C   0  0  0  0  0  0  0  0  0  0  0  0
  128.7910  126.2340   63.0140 C   0  0  0  0  0  0  0  0  0  0  0  0
  128.9780  126.7340   64.2990 C   0  0  0  0  0  0  0  0  0  0  0  0
  128.6220  126.1170   67.6560 N   0  0  0  0  0  0  0  0  0  0  0  0
  128.7780  126.5830   68.8950 C   0  0  0  0  0  0  0  0  0  0  0  0
  127.6190  126.2540   70.1610 S   0  0  0  0  0  0  0  0  0  0  0  0
  128.5670  127.1750   71.3280 C   0  0  0  0  0  0  0  0  0  0  0  0
  128.0850  127.3410   72.6980 C   0  0  0  0  0  0  0  0  0  0  0  0
  128.8620  127.5500   73.6320 O   0  0  0  0  0  0  0  0  0  0  0  0
  126.7530  127.2130   72.8740 N   0  0  0  0  0  0  0  0  0  0  0  0
  126.0490  127.3610   74.1470 C   0  0  0  0  0  0  0  0  0  0  0  0
  125.7680  128.8130   74.5190 C   0  0  0  0  0  0  0  0  0  0  0  0
  124.6080  129.1350   75.2300 C   0  0  0  0  0  0  0  0  0  0  0  0
  124.3640  130.4550   75.5980 C   0  0  0  0  0  0  0  0  0  0  0  0
  125.2840  131.4470   75.2640 C   0  0  0  0  0  0  0  0  0  0  0  0
  126.4500  131.1300   74.5700 C   0  0  0  0  0  0  0  0  0  0  0  0
  126.6950  129.8100   74.2030 C   0  0  0  0  0  0  0  0  0  0  0  0
  129.7180  127.7160   70.7360 C   0  0  0  0  0  0  0  0  0  0  0  0
  130.6300  128.4890   71.4080 N   0  0  0  0  0  0  0  0  0  0  0  0
  129.8680  127.3810   69.3450 C   0  0  0  0  0  0  0  0  0  0  0  0
  1  2  1  0
  2  3  2  0
  3  4  1  0
  4  5  1  0
  5  6  2  0
  6  7  1  0
  7  8  2  0
  8  9  1  0
  9 10  2  0
  4 11  2  0
 11 12  1  0
 12 13  1  0
 13 14  1  0
 14 15  1  0
 15 16  2  0
 15 17  1  0
 17 18  1  0
 18 19  1  0
 19 20  2  0
 20 21  1  0
 21 22  2  0
 22 23  1  0
 23 24  2  0
 14 25  2  0
 25 26  1  0
 25 27  1  0
 27  2  1  0
 10  5  1  0
 27 12  2  0
 24 19  1  0
M  END
>  <Binding energies>  (61) 
[-8.14]

>  <Ligand effiencies>  (61) 
[-0.27133333333333337]

>  <Interactions>  (61) 
["V-B:GLU:543:CD:9877, V-A:ARG:545:CG:4919, V-A:HIS:456:CE1:4066, H-B:HIS:456:NE2:9039, V-B:GLU:543:C:9871, V-B:GLU:543:CB:9875, V-B:HIS:456:CE1:9038, V-B:GLY:544:C:9881, V-B:HIS:456:CD2:9036, H-A:GLU:543:O:4900, V-A:GLU:543:CB:4903, V-B:GLU:543:CG:9876, V-B:LYS:547:CE:9919, V-B:VAL:457:C:9041, V-B:ASP:473:CG:9208, V-B:ASP:473:CB:9207, V-B:HIS:456:CG:9034, V-B:HIS:456:C:9029, V-A:GLU:543:C:4899, V-B:VAL:457:CA:9043, V-B:HIS:456:CB:9033, V-B:LYS:547:CD:9918, V-B:VAL:458:CG2:9055, H-A:LYS:547:NZ:4948, V-B:LYS:471:CE:9188, V-A:GLU:543:CA:4901, V-A:GLY:544:CA:4911, V-A:GLY:544:C:4909, V-A:ARG:545:CA:4916, V-B:GLY:544:CA:9883, H-B:GLY:544:O:9882, H-A:GLY:544:O:4910, V-B:LYS:471:CB:9185, V-A:ARG:545:CB:4918"]

$$$$
4dj_Grossjean_2025
     RDKit          3D

 25 28  0  0  0  0  0  0  0  0999 V2000
  128.3480  126.7230   67.9960 C   0  0  0  0  0  0  0  0  0  0  0  0
  128.4270  127.3040   66.5920 C   0  0  0  0  0  0  0  0  0  0  0  0
  127.5500  128.3430   66.2580 C   0  0  0  0  0  0  0  0  0  0  0  0
  127.5700  128.9190   64.9820 C   0  0  0  0  0  0  0  0  0  0  0  0
  126.6460  130.0380   64.5960 C   0  0  0  0  0  0  0  0  0  0  0  0
  127.0420  131.3790   64.7320 C   0  0  0  0  0  0  0  0  0  0  0  0
  126.1900  132.4220   64.3770 C   0  0  0  0  0  0  0  0  0  0  0  0
  124.9210  132.1370   63.8830 C   0  0  0  0  0  0  0  0  0  0  0  0
  124.5010  130.8190   63.7420 C   0  0  0  0  0  0  0  0  0  0  0  0
  125.3560  129.7800   64.0970 C   0  0  0  0  0  0  0  0  0  0  0  0
  128.4460  128.5110   64.0230 N   0  0  0  0  0  0  0  0  0  0  0  0
  129.2800  127.5220   64.3400 C   0  0  0  0  0  0  0  0  0  0  0  0
  130.4510  126.8950   63.2010 S   0  0  0  0  0  0  0  0  0  0  0  0
  131.0490  125.7300   64.3850 C   0  0  0  0  0  0  0  0  0  0  0  0
  132.1270  124.8050   64.0330 C   0  0  0  0  0  0  0  0  0  0  0  0
  132.8390  124.3050   64.9080 O   0  0  0  0  0  0  0  0  0  0  0  0
  132.2770  124.5610   62.7080 N   0  0  0  0  0  0  0  0  0  0  0  0
  133.2170  123.7310   62.1140 C   0  0  0  0  0  0  0  0  0  0  0  0
  134.5070  123.9480   61.9640 N   0  0  0  0  0  0  0  0  0  0  0  0
  135.1000  122.9410   61.3530 C   0  0  0  0  0  0  0  0  0  0  0  0
  134.2840  121.8730   60.9930 C   0  0  0  0  0  0  0  0  0  0  0  0
  132.6530  122.2160   61.4850 S   0  0  0  0  0  0  0  0  0  0  0  0
  130.3530  125.8410   65.5980 C   0  0  0  0  0  0  0  0  0  0  0  0
  130.6050  125.0570   66.6960 N   0  0  0  0  0  0  0  0  0  0  0  0
  129.3380  126.8600   65.5990 C   0  0  0  0  0  0  0  0  0  0  0  0
  1  2  1  0
  2  3  2  0
  3  4  1  0
  4  5  1  0
  5  6  2  0
  6  7  1  0
  7  8  2  0
  8  9  1  0
  9 10  2  0
  4 11  2  0
 11 12  1  0
 12 13  1  0
 13 14  1  0
 14 15  1  0
 15 16  2  0
 15 17  1  0
 17 18  1  0
 18 19  2  0
 19 20  1  0
 20 21  2  0
 21 22  1  0
 14 23  2  0
 23 24  1  0
 23 25  1  0
 25  2  1  0
 10  5  1  0
 25 12  2  0
 22 18  1  0
M  END
>  <Binding energies>  (62) 
[-6.92]

>  <Ligand effiencies>  (62) 
[-0.24714285714285714]

>  <Interactions>  (62) 
["V-A:LEU:475:CD1:4254, V-B:GLU:543:CD:9877, V-A:ILE:369:CB:3232, H-A:GLY:454:N:4046, V-A:ILE:369:CG1:3234, V-A:ILE:369:CG2:3233, V-A:GLY:454:CA:4045, V-B:TYR:539:CE2:9845, V-A:HIS:456:CE1:4066, V-A:GLU:543:CD:4905, V-A:GLU:543:CG:4904, V-A:TYR:484:CZ:4343, V-B:GLU:543:CB:9875, V-B:HIS:456:CE1:9038, V-A:TYR:484:CE1:4341, V-B:ARG:545:CZ:9895, V-B:GLY:454:CA:9017, V-B:LEU:475:CD2:9227, H-A:TYR:484:OH:4344, H-A:HIS:456:NE2:4067, H-B:GLU:543:O:9872, V-A:GLY:453:C:4038, V-B:TYR:484:CE1:9313, V-B:TYR:484:CZ:9315, V-A:GLY:453:CA:4040"]

$$$$
4ea_Grossjean_2025
     RDKit          3D

 31 34  0  0  0  0  0  0  0  0999 V2000
  125.0500  127.7440   74.0880 C   0  0  0  0  0  0  0  0  0  0  0  0
  126.4960  128.1750   73.8230 C   0  0  0  0  0  0  0  0  0  0  0  0
  127.1010  127.2640   72.9150 O   0  0  0  0  0  0  0  0  0  0  0  0
  128.3890  127.4210   72.5160 C   0  0  0  0  0  0  0  0  0  0  0  0
  129.3030  127.7430   73.2820 O   0  0  0  0  0  0  0  0  0  0  0  0
  128.5920  127.1660   71.0510 C   0  0  0  0  0  0  0  0  0  0  0  0
  129.7420  127.6620   70.4230 C   0  0  0  0  0  0  0  0  0  0  0  0
  129.9600  127.4420   69.0660 C   0  0  0  0  0  0  0  0  0  0  0  0
  129.0350  126.7230   68.3080 C   0  0  0  0  0  0  0  0  0  0  0  0
  129.3590  126.5630   66.9470 N   0  0  0  0  0  0  0  0  0  0  0  0
  129.8570  125.4910   66.2830 C   0  0  0  0  0  0  0  0  0  0  0  0
  130.1230  124.4110   66.8100 O   0  0  0  0  0  0  0  0  0  0  0  0
  130.0730  125.6920   64.8480 C   0  0  0  0  0  0  0  0  0  0  0  0
  129.2700  127.0160   64.0000 S   0  0  0  0  0  0  0  0  0  0  0  0
  130.0130  126.5600   62.4840 C   0  0  0  0  0  0  0  0  0  0  0  0
  129.7830  127.2350   61.3560 N   0  0  0  0  0  0  0  0  0  0  0  0
  130.4200  126.7790   60.2490 C   0  0  0  0  0  0  0  0  0  0  0  0
  130.1450  127.5600   58.9780 C   0  0  0  0  0  0  0  0  0  0  0  0
  131.2720  125.6770   60.2440 C   0  0  0  0  0  0  0  0  0  0  0  0
  131.5100  124.9720   61.4290 C   0  0  0  0  0  0  0  0  0  0  0  0
  132.4170  123.8030   61.4080 C   0  0  0  0  0  0  0  0  0  0  0  0
  133.8040  123.9890   61.3980 C   0  0  0  0  0  0  0  0  0  0  0  0
  134.6580  122.8900   61.3800 C   0  0  0  0  0  0  0  0  0  0  0  0
  134.1250  121.6030   61.3680 C   0  0  0  0  0  0  0  0  0  0  0  0
  132.7460  121.4060   61.3730 C   0  0  0  0  0  0  0  0  0  0  0  0
  131.8930  122.5070   61.3900 C   0  0  0  0  0  0  0  0  0  0  0  0
  130.8600  125.4190   62.6130 C   0  0  0  0  0  0  0  0  0  0  0  0
  130.8760  124.9430   63.9720 C   0  0  0  0  0  0  0  0  0  0  0  0
  131.6160  123.8550   64.3580 N   0  0  0  0  0  0  0  0  0  0  0  0
  127.8800  126.2210   68.9290 C   0  0  0  0  0  0  0  0  0  0  0  0
  127.6640  126.4420   70.2860 C   0  0  0  0  0  0  0  0  0  0  0  0
  1  2  1  0
  2  3  1  0
  3  4  1  0
  4  5  2  0
  4  6  1  0
  6  7  2  0
  7  8  1  0
  8  9  2  0
  9 10  1  0
 10 11  1  0
 11 12  2  0
 11 13  1  0
 13 14  1  0
 14 15  1  0
 15 16  2  0
 16 17  1  0
 17 18  1  0
 17 19  2  0
 19 20  1  0
 20 21  1  0
 21 22  2  0
 22 23  1  0
 23 24  2  0
 24 25  1  0
 25 26  2  0
 20 27  2  0
 27 28  1  0
 28 29  1  0
  9 30  1  0
 30 31  2  0
 31  6  1  0
 28 13  2  0
 27 15  1  0
 26 21  1  0
M  END
>  <Binding energies>  (63) 
[-7.89]

>  <Ligand effiencies>  (63) 
[-0.23205882352941176]

>  <Interactions>  (63) 
["V-A:LEU:475:CD1:4254, V-B:GLU:543:CD:9877, H-A:GLU:543:OE1:4906, V-A:ILE:369:CG1:3234, V-A:ILE:369:CG2:3233, V-A:GLY:454:CA:4045, V-B:TYR:539:CE2:9845, V-A:HIS:456:CE1:4066, V-A:GLU:543:CD:4905, V-B:GLU:543:C:9871, V-B:GLU:543:CB:9875, V-B:HIS:456:CE1:9038, V-B:GLY:544:C:9881, V-B:HIS:456:CD2:9036, V-B:GLU:543:CG:9876, V-A:ASP:366:CG:3209, H-A:TYR:484:OH:4344, V-B:LYS:547:CE:9919, V-B:HIS:456:CG:9034, V-B:HIS:456:CB:9033, V-B:LYS:547:CD:9918, H-A:LYS:547:NZ:4948, V-A:GLY:453:C:4038"]

$$$$
4eb_Grossjean_2025
     RDKit          3D

 30 33  0  0  0  0  0  0  0  0999 V2000
  129.4150  129.8940   72.6470 C   0  0  0  0  0  0  0  0  0  0  0  0
  129.3630  128.4750   72.6330 O   0  0  0  0  0  0  0  0  0  0  0  0
  128.3880  127.8170   71.9530 C   0  0  0  0  0  0  0  0  0  0  0  0
  127.2370  127.6820   72.3770 O   0  0  0  0  0  0  0  0  0  0  0  0
  128.8510  127.2730   70.6320 C   0  0  0  0  0  0  0  0  0  0  0  0
  129.9940  127.8170   70.0310 C   0  0  0  0  0  0  0  0  0  0  0  0
  130.4480  127.3340   68.8080 C   0  0  0  0  0  0  0  0  0  0  0  0
  129.7720  126.2990   68.1600 C   0  0  0  0  0  0  0  0  0  0  0  0
  130.3220  125.8910   66.9290 N   0  0  0  0  0  0  0  0  0  0  0  0
  129.8770  126.0810   65.6630 C   0  0  0  0  0  0  0  0  0  0  0  0
  128.8440  126.6860   65.3740 O   0  0  0  0  0  0  0  0  0  0  0  0
  130.7210  125.5080   64.6110 C   0  0  0  0  0  0  0  0  0  0  0  0
  132.4800  125.5740   64.7430 S   0  0  0  0  0  0  0  0  0  0  0  0
  132.6740  124.7440   63.2150 C   0  0  0  0  0  0  0  0  0  0  0  0
  133.8770  124.4670   62.7110 N   0  0  0  0  0  0  0  0  0  0  0  0
  133.8910  123.8210   61.5210 C   0  0  0  0  0  0  0  0  0  0  0  0
  135.2710  123.5160   60.9660 C   0  0  0  0  0  0  0  0  0  0  0  0
  132.7410  123.4490   60.8280 C   0  0  0  0  0  0  0  0  0  0  0  0
  131.4800  123.7420   61.3600 C   0  0  0  0  0  0  0  0  0  0  0  0
  130.2660  123.3400   60.6120 C   0  0  0  0  0  0  0  0  0  0  0  0
  129.8040  124.1240   59.5510 C   0  0  0  0  0  0  0  0  0  0  0  0
  128.6640  123.7450   58.8460 C   0  0  0  0  0  0  0  0  0  0  0  0
  127.9850  122.5830   59.2050 C   0  0  0  0  0  0  0  0  0  0  0  0
  128.4370  121.7970   60.2630 C   0  0  0  0  0  0  0  0  0  0  0  0
  129.5760  122.1770   60.9670 C   0  0  0  0  0  0  0  0  0  0  0  0
  131.4230  124.4190   62.6090 C   0  0  0  0  0  0  0  0  0  0  0  0
  130.3260  124.8660   63.4260 C   0  0  0  0  0  0  0  0  0  0  0  0
  129.0170  124.6740   63.0640 N   0  0  0  0  0  0  0  0  0  0  0  0
  128.6270  125.7470   68.7540 C   0  0  0  0  0  0  0  0  0  0  0  0
  128.1740  126.2320   69.9780 C   0  0  0  0  0  0  0  0  0  0  0  0
  1  2  1  0
  2  3  1  0
  3  4  2  0
  3  5  1  0
  5  6  2  0
  6  7  1  0
  7  8  2  0
  8  9  1  0
  9 10  1  0
 10 11  2  0
 10 12  1  0
 12 13  1  0
 13 14  1  0
 14 15  2  0
 15 16  1  0
 16 17  1  0
 16 18  2  0
 18 19  1  0
 19 20  1  0
 20 21  2  0
 21 22  1  0
 22 23  2  0
 23 24  1  0
 24 25  2  0
 19 26  2  0
 26 27  1  0
 27 28  1  0
  8 29  1  0
 29 30  2  0
 30  5  1  0
 27 12  2  0
 26 14  1  0
 25 20  1  0
M  END
>  <Binding energies>  (64) 
[-7.69]

>  <Ligand effiencies>  (64) 
[-0.23303030303030303]

>  <Interactions>  (64) 
["V-B:GLU:543:CD:9877, V-A:ARG:545:CZ:4923, V-A:ILE:369:CB:3232, H-A:GLY:454:N:4046, V-A:ILE:369:CG1:3234, V-B:TYR:539:CE2:9845, V-A:HIS:456:CE1:4066, V-B:GLU:543:C:9871, V-B:GLU:543:CB:9875, V-B:HIS:456:CE1:9038, V-A:HIS:456:CD2:4064, V-B:HIS:456:CD2:9036, V-B:GLU:543:CG:9876, V-B:TYR:539:CZ:9846, V-B:TYR:539:CD2:9843, V-B:ALA:541:CB:9861, V-A:ASP:366:CG:3209, V-B:TYR:539:C:9836, H-A:TYR:484:OH:4344, H-B:GLU:543:OE1:9878, H-A:HIS:456:NE2:4067, V-A:LYS:547:CE:4947, H-A:LYS:547:NZ:4948, V-A:GLY:453:C:4038, V-B:PRO:540:C:9850, V-B:PRO:540:CA:9852, V-A:GLY:453:CA:4040, V-A:ASP:366:CA:3206, H-B:GLU:543:OE2:9879"]

$$$$
8b_Ghoteimi_2023
     RDKit          3D

 34 38  0  0  0  0  0  0  0  0999 V2000
  123.9140  133.7720   61.9810 C   0  0  0  0  0  0  0  0  0  0  0  0
  123.5770  132.7230   62.8830 O   0  0  0  0  0  0  0  0  0  0  0  0
  124.5700  131.8680   63.3230 C   0  0  0  0  0  0  0  0  0  0  0  0
  124.3140  130.5030   63.2060 C   0  0  0  0  0  0  0  0  0  0  0  0
  125.2560  129.5690   63.6250 C   0  0  0  0  0  0  0  0  0  0  0  0
  126.4810  129.9760   64.1730 C   0  0  0  0  0  0  0  0  0  0  0  0
  127.4960  128.9760   64.6270 C   0  0  0  0  0  0  0  0  0  0  0  0
  127.6630  128.6560   65.9780 C   0  0  0  0  0  0  0  0  0  0  0  0
  128.6190  127.7160   66.3760 C   0  0  0  0  0  0  0  0  0  0  0  0
  128.7770  127.4070   67.8160 C   0  0  0  0  0  0  0  0  0  0  0  0
  129.8140  127.9860   68.5500 C   0  0  0  0  0  0  0  0  0  0  0  0
  129.9540  127.7030   69.9050 C   0  0  0  0  0  0  0  0  0  0  0  0
  129.0660  126.8370   70.5460 C   0  0  0  0  0  0  0  0  0  0  0  0
  129.2820  126.6150   71.8920 O   0  0  0  0  0  0  0  0  0  0  0  0
  128.3170  127.0720   72.8350 C   0  0  0  0  0  0  0  0  0  0  0  0
  128.0270  126.2530   69.8040 C   0  0  0  0  0  0  0  0  0  0  0  0
  127.8860  126.5390   68.4490 C   0  0  0  0  0  0  0  0  0  0  0  0
  129.4060  127.0950   65.3690 C   0  0  0  0  0  0  0  0  0  0  0  0
  130.4500  126.1050   65.4180 C   0  0  0  0  0  0  0  0  0  0  0  0
  130.8840  125.5540   66.5960 N   0  0  0  0  0  0  0  0  0  0  0  0
  130.9690  125.7650   64.1590 C   0  0  0  0  0  0  0  0  0  0  0  0
  132.0250  124.8010   63.8390 C   0  0  0  0  0  0  0  0  0  0  0  0
  132.5370  124.1120   64.7240 O   0  0  0  0  0  0  0  0  0  0  0  0
  132.3770  124.7380   62.5300 N   0  0  0  0  0  0  0  0  0  0  0  0
  133.3370  123.9180   61.9520 C   0  0  0  0  0  0  0  0  0  0  0  0
  133.0230  122.8720   61.0860 C   0  0  0  0  0  0  0  0  0  0  0  0
  134.2340  122.3140   60.7450 C   0  0  0  0  0  0  0  0  0  0  0  0
  135.2260  122.9900   61.3700 O   0  0  0  0  0  0  0  0  0  0  0  0
  134.6460  124.0060   62.1320 N   0  0  0  0  0  0  0  0  0  0  0  0
  130.1680  126.6690   62.8730 S   0  0  0  0  0  0  0  0  0  0  0  0
  129.1460  127.4950   64.0270 C   0  0  0  0  0  0  0  0  0  0  0  0
  128.2370  128.3920   63.6460 N   0  0  0  0  0  0  0  0  0  0  0  0
  126.7330  131.3500   64.2850 C   0  0  0  0  0  0  0  0  0  0  0  0
  125.7920  132.2880   63.8680 C   0  0  0  0  0  0  0  0  0  0  0  0
  1  2  1  0
  2  3  1  0
  3  4  2  0
  4  5  1  0
  5  6  2  0
  6  7  1  0
  7  8  2  0
  8  9  1  0
  9 10  1  0
 10 11  2  0
 11 12  1  0
 12 13  2  0
 13 14  1  0
 14 15  1  0
 13 16  1  0
 16 17  2  0
  9 18  2  0
 18 19  1  0
 19 20  1  0
 19 21  2  0
 21 22  1  0
 22 23  2  0
 22 24  1  0
 24 25  1  0
 25 26  1  0
 26 27  2  0
 27 28  1  0
 28 29  1  0
 21 30  1  0
 30 31  1  0
 31 32  2  0
  6 33  1  0
 33 34  2  0
 34  3  1  0
 32  7  1  0
 17 10  1  0
 31 18  1  0
 29 25  2  0
M  END
>  <Binding energies>  (65) 
[-8.55]

>  <Ligand effiencies>  (65) 
[-0.2310810810810811]

>  <Interactions>  (65) 
["V-B:GLU:543:CD:9877, V-A:ILE:369:CB:3232, H-A:ASP:366:OD2:3211, H-A:GLY:454:N:4046, V-A:ILE:369:CG1:3234, V-A:ILE:369:CG2:3233, V-B:TYR:539:CE2:9845, V-A:HIS:456:CE1:4066, H-A:ASP:366:OD1:3210, V-A:GLU:543:CD:4905, V-A:TYR:484:CZ:4343, V-B:GLU:543:C:9871, V-B:GLU:543:CB:9875, V-B:HIS:456:CE1:9038, V-B:GLY:544:C:9881, V-B:HIS:456:CD2:9036, V-A:GLU:543:CB:4903, V-B:ILE:369:CD1:8207, V-B:ILE:369:CG2:8205, V-B:ARG:545:CZ:9895, V-B:GLY:454:CA:9017, V-B:LEU:475:CD2:9227, V-B:ASP:366:CG:8181, V-A:ASP:366:CG:3209, H-A:TYR:484:OH:4344, V-B:LYS:547:CE:9919, H-A:HIS:456:NE2:4067, H-B:GLY:454:N:9018"]

$$$$
9d_Ghoteimi_2023
     RDKit          3D

 38 43  0  0  0  0  0  0  0  0999 V2000
  132.7530  124.2400   64.3510 C   0  0  0  0  0  0  0  0  0  0  0  0
  132.0240  123.0300   64.1970 O   0  0  0  0  0  0  0  0  0  0  0  0
  130.7060  122.9660   64.5180 C   0  0  0  0  0  0  0  0  0  0  0  0
  130.0820  121.9110   64.6620 O   0  0  0  0  0  0  0  0  0  0  0  0
  130.0850  124.2990   64.6750 C   0  0  0  0  0  0  0  0  0  0  0  0
  129.7090  125.2660   63.2500 S   0  0  0  0  0  0  0  0  0  0  0  0
  129.0410  126.5410   64.2420 C   0  0  0  0  0  0  0  0  0  0  0  0
  128.5120  127.6390   63.7040 N   0  0  0  0  0  0  0  0  0  0  0  0
  128.0030  128.5630   64.5610 C   0  0  0  0  0  0  0  0  0  0  0  0
  127.3910  129.7750   63.9340 C   0  0  0  0  0  0  0  0  0  0  0  0
  126.7600  129.6870   62.6890 C   0  0  0  0  0  0  0  0  0  0  0  0
  126.1900  130.8100   62.0960 C   0  0  0  0  0  0  0  0  0  0  0  0
  126.2190  132.0610   62.7330 C   0  0  0  0  0  0  0  0  0  0  0  0
  125.6650  133.2020   62.1410 N   0  0  0  0  0  0  0  0  0  0  0  0
  126.2760  133.8220   60.9480 C   0  0  0  0  0  0  0  0  0  0  0  0
  125.7520  135.2410   60.6460 C   0  0  0  0  0  0  0  0  0  0  0  0
  124.3390  135.2260   60.5430 O   0  0  0  0  0  0  0  0  0  0  0  0
  123.7350  134.7920   61.7500 C   0  0  0  0  0  0  0  0  0  0  0  0
  124.1960  133.3580   62.0900 C   0  0  0  0  0  0  0  0  0  0  0  0
  126.8660  132.1460   63.9740 C   0  0  0  0  0  0  0  0  0  0  0  0
  127.4400  131.0230   64.5650 C   0  0  0  0  0  0  0  0  0  0  0  0
  128.0560  128.4020   65.9480 C   0  0  0  0  0  0  0  0  0  0  0  0
  128.6280  127.2590   66.5180 C   0  0  0  0  0  0  0  0  0  0  0  0
  128.6830  127.1510   68.0000 C   0  0  0  0  0  0  0  0  0  0  0  0
  127.7550  126.3710   68.6930 C   0  0  0  0  0  0  0  0  0  0  0  0
  127.8220  126.2580   70.0790 C   0  0  0  0  0  0  0  0  0  0  0  0
  128.8300  126.9100   70.8070 C   0  0  0  0  0  0  0  0  0  0  0  0
  128.9130  126.8200   72.1990 N   0  0  0  0  0  0  0  0  0  0  0  0
  128.4820  127.9690   73.0190 C   0  0  0  0  0  0  0  0  0  0  0  0
  128.2560  127.6070   74.5030 C   0  0  0  0  0  0  0  0  0  0  0  0
  129.4260  127.0090   75.0420 O   0  0  0  0  0  0  0  0  0  0  0  0
  129.7750  125.8210   74.3470 C   0  0  0  0  0  0  0  0  0  0  0  0
  130.0430  126.1410   72.8600 C   0  0  0  0  0  0  0  0  0  0  0  0
  129.7550  127.6920   70.1010 C   0  0  0  0  0  0  0  0  0  0  0  0
  129.6870  127.8060   68.7160 C   0  0  0  0  0  0  0  0  0  0  0  0
  129.1290  126.2600   65.6380 C   0  0  0  0  0  0  0  0  0  0  0  0
  129.7130  124.9620   65.8520 C   0  0  0  0  0  0  0  0  0  0  0  0
  129.8700  124.4120   67.0980 N   0  0  0  0  0  0  0  0  0  0  0  0
  1  2  1  0
  2  3  1  0
  3  4  2  0
  3  5  1  0
  5  6  1  0
  6  7  1  0
  7  8  2  0
  8  9  1  0
  9 10  1  0
 10 11  2  0
 11 12  1  0
 12 13  2  0
 13 14  1  0
 14 15  1  0
 15 16  1  0
 16 17  1  0
 17 18  1  0
 18 19  1  0
 13 20  1  0
 20 21  2  0
  9 22  2  0
 22 23  1  0
 23 24  1  0
 24 25  2  0
 25 26  1  0
 26 27  2  0
 27 28  1  0
 28 29  1  0
 29 30  1  0
 30 31  1  0
 31 32  1  0
 32 33  1  0
 27 34  1  0
 34 35  2  0
 23 36  2  0
 36 37  1  0
 37 38  1  0
 37  5  2  0
 36  7  1  0
 21 10  1  0
 35 24  1  0
 19 14  1  0
 33 28  1  0
M  END
>  <Binding energies>  (66) 
[-9.07]

>  <Ligand effiencies>  (66) 
[-0.22675]

>  <Interactions>  (66) 
["V-B:GLU:543:CD:9877, V-A:GLY:454:CA:4045, V-A:HIS:456:CE1:4066, V-A:GLU:543:CD:4905, V-A:GLU:543:CG:4904, V-A:TYR:484:CZ:4343, V-B:GLU:543:CA:9873, V-B:GLU:543:C:9871, V-B:GLU:543:CB:9875, V-B:HIS:456:CE1:9038, V-A:TYR:484:CE1:4341, V-B:GLY:544:C:9881, V-A:HIS:456:CD2:4064, V-B:HIS:456:CD2:9036, V-A:GLU:543:CB:4903, V-B:GLU:543:CG:9876, V-B:ILE:369:CD1:8207, V-B:ILE:369:CG2:8205, V-B:TRP:381:CH2:8340, V-B:GLY:454:CA:9017, V-A:TYR:539:CD2:4871, V-B:LEU:475:CD2:9227, H-A:TYR:484:OH:4344, V-B:LYS:547:CE:9919, H-A:HIS:456:NE2:4067, V-A:LYS:547:CE:4947, H-B:GLU:543:O:9872, H-A:LYS:547:NZ:4948, V-B:TRP:381:CZ2:8338, V-B:SER:385:C:8373"]

$$$$
RR10_Rahimova_2017
     RDKit          3D

 34 38  0  0  0  0  0  0  0  0999 V2000
  130.1440  134.3870   71.0120 C   0  0  0  0  0  0  0  0  0  0  0  0
  129.6910  133.6310   72.2720 C   0  0  1  0  0  0  0  0  0  0  0  0
  128.3310  132.9250   72.0620 C   0  0  0  0  0  0  0  0  0  0  0  0
  127.8780  132.2000   73.3510 C   0  0  0  0  0  0  0  0  0  0  0  0
  128.9210  131.1600   73.8340 C   0  0  1  0  0  0  0  0  0  0  0  0
  129.0050  130.0320   72.8970 N   0  0  0  0  0  0  0  0  0  0  0  0
  128.9580  128.7310   73.2360 C   0  0  0  0  0  0  0  0  0  0  0  0
  128.8160  128.3450   74.3990 O   0  0  0  0  0  0  0  0  0  0  0  0
  129.1080  127.7090   72.0900 C   0  0  1  0  0  0  0  0  0  0  0  0
  127.8020  126.8830   71.9630 C   0  0  0  0  0  0  0  0  0  0  0  0
  127.9130  125.9210   70.7550 C   0  0  0  0  0  0  0  0  0  0  0  0
  128.3270  126.6480   69.4550 C   0  0  0  0  0  0  0  0  0  0  0  0
  129.5490  127.4670   69.6770 N   0  0  0  0  0  0  0  0  0  0  0  0
  130.2850  128.1030   68.1960 S   0  0  0  0  0  0  0  0  0  0  0  0
  131.6420  128.5600   68.5200 O   0  0  0  0  0  0  0  0  0  0  0  0
  129.3240  129.0240   67.5750 O   0  0  0  0  0  0  0  0  0  0  0  0
  130.4630  126.6830   67.1170 C   0  0  0  0  0  0  0  0  0  0  0  0
  129.5840  125.6040   67.2550 C   0  0  0  0  0  0  0  0  0  0  0  0
  129.6720  124.4660   66.4470 C   0  0  0  0  0  0  0  0  0  0  0  0
  130.6860  124.4590   65.4860 C   0  0  0  0  0  0  0  0  0  0  0  0
  131.0910  123.5530   64.5350 N   0  0  0  0  0  0  0  0  0  0  0  0
  132.1680  124.0950   63.8640 C   0  0  0  0  0  0  0  0  0  0  0  0
  132.8930  123.3910   62.7530 C   0  0  0  0  0  0  0  0  0  0  0  0
  133.9580  124.0190   62.0920 C   0  0  0  0  0  0  0  0  0  0  0  0
  134.6340  123.3660   61.0640 C   0  0  0  0  0  0  0  0  0  0  0  0
  134.2470  122.0820   60.6900 C   0  0  0  0  0  0  0  0  0  0  0  0
  133.1920  121.4450   61.3360 C   0  0  0  0  0  0  0  0  0  0  0  0
  132.5170  122.0990   62.3640 C   0  0  0  0  0  0  0  0  0  0  0  0
  132.4790  125.2900   64.3140 N   0  0  0  0  0  0  0  0  0  0  0  0
  131.5830  125.5420   65.3200 C   0  0  0  0  0  0  0  0  0  0  0  0
  131.4690  126.6710   66.1430 C   0  0  0  0  0  0  0  0  0  0  0  0
  129.4040  128.4620   70.7700 C   0  0  0  0  0  0  0  0  0  0  0  0
  130.2850  131.8790   74.0240 C   0  0  0  0  0  0  0  0  0  0  0  0
  130.7450  132.5980   72.7350 C   0  0  0  0  0  0  0  0  0  0  0  0
  2  1  1  6
  2  3  1  0
  3  4  1  0
  4  5  1  0
  5  6  1  6
  6  7  1  0
  7  8  2  0
  9  7  1  1
  9 10  1  0
 10 11  1  0
 11 12  1  0
 12 13  1  0
 13 14  1  0
 14 15  2  0
 14 16  2  0
 14 17  1  0
 17 18  2  0
 18 19  1  0
 19 20  2  0
 20 21  1  0
 21 22  1  0
 22 23  1  0
 23 24  2  0
 24 25  1  0
 25 26  2  0
 26 27  1  0
 27 28  2  0
 22 29  2  0
 29 30  1  0
 30 31  2  0
 13 32  1  0
  5 33  1  0
 33 34  1  0
 34  2  1  0
 32  9  1  0
 31 17  1  0
 30 20  1  0
 28 23  1  0
M  END
>  <Binding energies>  (67) 
[-9.88]

>  <Ligand effiencies>  (67) 
[-0.2744444444444445]

>  <Interactions>  (67) 
["V-A:LEU:475:CD1:4254, V-A:ILE:369:CB:3232, H-A:ARG:545:NH2:4925, V-A:ILE:369:CG1:3234, V-A:ILE:369:CG2:3233, V-A:GLY:454:CA:4045, V-B:TYR:539:CE2:9845, V-A:HIS:456:CE1:4066, V-A:GLU:543:CD:4905, H-B:HIS:456:NE2:9039, V-A:TYR:484:CZ:4343, V-B:GLU:543:CA:9873, V-B:GLU:543:C:9871, V-B:GLU:543:CB:9875, V-B:HIS:456:CE1:9038, V-A:TYR:484:CE1:4341, V-B:GLY:544:C:9881, V-B:HIS:456:CD2:9036, H-A:GLU:543:O:4900, V-A:GLU:543:CB:4903, V-B:GLU:543:CG:9876, V-A:ASP:366:CG:3209, H-A:TYR:484:OH:4344, V-B:LYS:547:CE:9919, V-B:TYR:484:CD2:9312, V-B:TYR:484:CB:9309, V-B:TYR:484:CG:9310, V-A:LYS:547:CE:4947, V-A:GLU:543:C:4899, H-A:LYS:547:NZ:4948, V-B:TYR:484:CD1:9311, V-A:GLY:453:C:4038, V-A:GLY:453:CA:4040, V-A:GLY:544:CA:4911, V-B:GLY:544:CA:9883, H-A:ARG:545:N:4917"]

$$$$
RR12_Rahimova_2017
     RDKit          3D

 26 28  0  0  0  0  0  0  0  0999 V2000
  126.1780  131.1560   58.3760 C   0  0  0  0  0  0  0  0  0  0  0  0
  127.6450  130.9610   57.9720 C   0  0  0  0  0  0  0  0  0  0  0  0
  128.4810  132.2420   58.1450 C   0  0  0  0  0  0  0  0  0  0  0  0
  129.5620  132.0290   59.1040 N   0  0  0  0  0  0  0  0  0  0  0  0
  129.5050  132.1630   60.4830 C   0  0  0  0  0  0  0  0  0  0  0  0
  128.2680  132.6150   61.2400 C   0  0  0  0  0  0  0  0  0  0  0  0
  127.8160  134.0300   60.8340 C   0  0  0  0  0  0  0  0  0  0  0  0
  126.3220  134.2810   61.1120 C   0  0  0  0  0  0  0  0  0  0  0  0
  125.5230  133.0580   61.1940 N   0  0  0  0  0  0  0  0  0  0  0  0
  124.5020  132.8590   62.0470 C   0  0  0  0  0  0  0  0  0  0  0  0
  124.1300  133.7040   62.8650 O   0  0  0  0  0  0  0  0  0  0  0  0
  123.8050  131.4970   61.9420 C   0  0  0  0  0  0  0  0  0  0  0  0
  123.6370  130.9450   63.2490 O   0  0  0  0  0  0  0  0  0  0  0  0
  124.7200  130.3670   63.8840 C   0  0  0  0  0  0  0  0  0  0  0  0
  124.4860  129.8470   65.1590 C   0  0  0  0  0  0  0  0  0  0  0  0
  125.5150  129.2420   65.8760 C   0  0  0  0  0  0  0  0  0  0  0  0
  126.7860  129.1550   65.3160 C   0  0  0  0  0  0  0  0  0  0  0  0
  127.0370  129.6700   64.0460 C   0  0  0  0  0  0  0  0  0  0  0  0
  126.0080  130.2760   63.3300 C   0  0  0  0  0  0  0  0  0  0  0  0
  130.6350  131.8770   61.0800 N   0  0  0  0  0  0  0  0  0  0  0  0
  131.4820  131.5110   60.0720 C   0  0  0  0  0  0  0  0  0  0  0  0
  132.8200  131.0940   60.1500 C   0  0  0  0  0  0  0  0  0  0  0  0
  133.4750  130.7640   58.9630 C   0  0  0  0  0  0  0  0  0  0  0  0
  132.8270  130.8440   57.7310 C   0  0  0  0  0  0  0  0  0  0  0  0
  131.4970  131.2560   57.6200 C   0  0  0  0  0  0  0  0  0  0  0  0
  130.8400  131.5880   58.8110 C   0  0  0  0  0  0  0  0  0  0  0  0
  1  2  1  0
  2  3  1  0
  3  4  1  0
  4  5  1  0
  5  6  1  0
  6  7  1  0
  7  8  1  0
  8  9  1  0
  9 10  1  0
 10 11  2  0
 10 12  1  0
 12 13  1  0
 13 14  1  0
 14 15  2  0
 15 16  1  0
 16 17  2  0
 17 18  1  0
 18 19  2  0
  5 20  2  0
 20 21  1  0
 21 22  2  0
 22 23  1  0
 23 24  2  0
 24 25  1  0
 25 26  2  0
 26  4  1  0
 19 14  1  0
 26 21  1  0
M  END
>  <Binding energies>  (68) 
[-6.93]

>  <Ligand effiencies>  (68) 
[-0.25666666666666665]

>  <Interactions>  (68) 
["V-B:HIS:456:CE1:9038, V-B:ILE:369:CD1:8207, V-B:ARG:545:CZ:9895, V-A:ALA:541:CB:4889, V-A:TYR:539:CE2:4873, V-A:TYR:539:CD2:4871, V-B:LEU:475:CD2:9227, V-B:ASP:366:CG:8181, V-A:ASP:366:CG:3209, V-A:PRO:540:CA:4880, V-A:PRO:540:N:4881, V-A:PRO:540:CB:4882, H-A:ALA:541:N:4888, V-A:TYR:539:C:4864, V-A:ASN:362:CB:3172, V-A:LEU:363:CA:3181, V-A:ASN:362:C:3168, H-B:GLY:454:N:9018, V-A:LEU:363:CD1:3185"]

$$$$
RR13_Rahimova_2017
     RDKit          3D

 48 54  0  0  0  0  0  0  0  0999 V2000
  131.7430  128.1870   68.4970 Cl  0  0  0  0  0  0  0  0  0  0  0  0
  130.2510  127.3430   68.7380 C   0  0  0  0  0  0  0  0  0  0  0  0
  129.6620  127.4100   70.0030 C   0  0  0  0  0  0  0  0  0  0  0  0
  128.4740  126.7350   70.2660 C   0  0  0  0  0  0  0  0  0  0  0  0
  127.8650  125.9840   69.2640 C   0  0  0  0  0  0  0  0  0  0  0  0
  128.4460  125.9130   67.9990 C   0  0  0  0  0  0  0  0  0  0  0  0
  129.6380  126.5960   67.7110 C   0  0  0  0  0  0  0  0  0  0  0  0
  130.2750  126.4810   66.3080 C   0  0  1  0  0  0  0  0  0  0  0  0
  130.2750  125.0240   65.8200 C   0  0  0  0  0  0  0  0  0  0  0  0
  129.3770  124.1040   66.0950 N   0  0  0  0  0  0  0  0  0  0  0  0
  129.8110  122.9450   65.4590 N   0  0  0  0  0  0  0  0  0  0  0  0
  131.0060  123.1820   64.8070 N   0  0  0  0  0  0  0  0  0  0  0  0
  131.2830  124.4640   65.0650 N   0  0  0  0  0  0  0  0  0  0  0  0
  132.4720  125.0900   64.4990 C   0  0  0  0  0  0  0  0  0  0  0  0
  132.3430  125.1930   62.9680 C   0  0  0  0  0  0  0  0  0  0  0  0
  132.8810  123.9580   62.2610 C   0  0  0  0  0  0  0  0  0  0  0  0
  134.1800  123.9590   61.7470 C   0  0  0  0  0  0  0  0  0  0  0  0
  134.6690  122.8310   61.0940 C   0  0  0  0  0  0  0  0  0  0  0  0
  133.8570  121.7060   60.9580 C   0  0  0  0  0  0  0  0  0  0  0  0
  132.5610  121.7000   61.4670 C   0  0  0  0  0  0  0  0  0  0  0  0
  132.0710  122.8280   62.1200 C   0  0  0  0  0  0  0  0  0  0  0  0
  129.6850  127.4090   65.3140 N   0  0  0  0  0  0  0  0  0  0  0  0
  128.3300  127.8170   65.7270 C   0  0  0  0  0  0  0  0  0  0  0  0
  127.7610  128.8860   64.7660 C   0  0  0  0  0  0  0  0  0  0  0  0
  127.6600  128.3530   63.3970 N   0  0  0  0  0  0  0  0  0  0  0  0
  127.0430  129.3180   62.4570 C   0  0  1  0  0  0  0  0  0  0  0  0
  126.7900  128.7880   61.0290 C   0  0  0  0  0  0  0  0  0  0  0  0
  126.7590  127.3970   60.8590 C   0  0  0  0  0  0  0  0  0  0  0  0
  126.5200  126.8290   59.6080 C   0  0  0  0  0  0  0  0  0  0  0  0
  126.3130  127.6480   58.5020 C   0  0  0  0  0  0  0  0  0  0  0  0
  126.3560  129.0320   58.6460 C   0  0  0  0  0  0  0  0  0  0  0  0
  126.5990  129.6110   59.8950 C   0  0  0  0  0  0  0  0  0  0  0  0
  126.7020  131.3380   59.9570 Cl  0  0  0  0  0  0  0  0  0  0  0  0
  125.7720  129.9670   63.0100 C   0  0  0  0  0  0  0  0  0  0  0  0
  124.5520  129.5040   62.8580 N   0  0  0  0  0  0  0  0  0  0  0  0
  123.7200  130.3910   63.5320 N   0  0  0  0  0  0  0  0  0  0  0  0
  124.4690  131.3960   64.1100 N   0  0  0  0  0  0  0  0  0  0  0  0
  125.7350  131.1010   63.7930 N   0  0  0  0  0  0  0  0  0  0  0  0
  126.8190  131.9750   64.2270 C   0  0  0  0  0  0  0  0  0  0  0  0
  127.6180  132.4840   63.0130 C   0  0  0  0  0  0  0  0  0  0  0  0
  126.8210  133.4710   62.1750 C   0  0  0  0  0  0  0  0  0  0  0  0
  127.4870  134.4150   61.3880 C   0  0  0  0  0  0  0  0  0  0  0  0
  126.7570  135.3140   60.6150 C   0  0  0  0  0  0  0  0  0  0  0  0
  125.3640  135.2670   60.6310 C   0  0  0  0  0  0  0  0  0  0  0  0
  124.6950  134.3270   61.4140 C   0  0  0  0  0  0  0  0  0  0  0  0
  125.4240  133.4270   62.1860 C   0  0  0  0  0  0  0  0  0  0  0  0
  129.0180  127.9530   62.9860 C   0  0  0  0  0  0  0  0  0  0  0  0
  129.5770  126.8760   63.9450 C   0  0  0  0  0  0  0  0  0  0  0  0
  1  2  1  0
  2  3  2  0
  3  4  1  0
  4  5  2  0
  5  6  1  0
  6  7  2  0
  7  8  1  0
  8  9  1  0
  9 10  2  0
 10 11  1  0
 11 12  2  0
 12 13  1  0
 13 14  1  0
 14 15  1  0
 15 16  1  0
 16 17  2  0
 17 18  1  0
 18 19  2  0
 19 20  1  0
 20 21  2  0
  8 22  1  6
 22 23  1  0
 23 24  1  0
 24 25  1  0
 26 25  1  1
 26 27  1  0
 27 28  2  0
 28 29  1  0
 29 30  2  0
 30 31  1  0
 31 32  2  0
 32 33  1  0
 26 34  1  0
 34 35  2  0
 35 36  1  0
 36 37  2  0
 37 38  1  0
 38 39  1  0
 39 40  1  0
 40 41  1  0
 41 42  2  0
 42 43  1  0
 43 44  2  0
 44 45  1  0
 45 46  2  0
 25 47  1  0
 47 48  1  0
  7  2  1  0
 13  9  1  0
 21 16  1  0
 48 22  1  0
 32 27  1  0
 38 34  1  0
 46 41  1  0
M  END
>  <Binding energies>  (69) 
[-11.61]

>  <Ligand effiencies>  (69) 
[-0.24187499999999998]

>  <Interactions>  (69) 
["V-A:LEU:475:CD1:4254, V-B:GLU:543:CD:9877, V-A:ARG:545:CZ:4923, V-A:ILE:369:CB:3232, V-A:ARG:545:CG:4919, V-A:ILE:369:CG1:3234, V-A:ILE:369:CG2:3233, V-B:TYR:539:CE2:9845, V-A:HIS:456:CE1:4066, V-A:GLU:543:CD:4905, V-A:TYR:484:CZ:4343, V-B:GLU:543:CA:9873, V-B:GLU:543:C:9871, V-B:GLU:543:CB:9875, V-B:HIS:456:CE1:9038, V-A:TYR:484:CE1:4341, V-B:GLY:544:C:9881, V-B:HIS:456:CD2:9036, V-A:GLU:543:CB:4903, V-B:GLU:543:CG:9876, V-B:ILE:369:CG2:8205, V-B:TRP:381:CH2:8340, V-A:ALA:541:CB:4889, H-B:TYR:484:OH:9316, V-A:TYR:539:CD2:4871, V-B:LEU:475:CD2:9227, V-B:ASP:366:CG:8181, V-A:ASP:366:CG:3209, H-B:ARG:545:NH2:9897, H-A:TYR:484:OH:4344, V-A:GLU:543:C:4899, V-A:GLU:543:CA:4901, H-B:GLY:454:N:9018, V-A:GLY:453:C:4038, V-B:TRP:381:CZ2:8338, V-A:GLY:453:CA:4040, V-A:GLY:544:C:4909, V-A:ARG:545:CA:4916, H-B:ARG:545:NH1:9896"]

$$$$
RR14_Rahimova_2017
     RDKit          3D

 39 43  0  0  0  0  0  0  0  0999 V2000
  128.4040  128.2410   74.1900 C   0  0  0  0  0  0  0  0  0  0  0  0
  129.3660  127.7150   73.2830 O   0  0  0  0  0  0  0  0  0  0  0  0
  128.9670  127.3640   72.0080 C   0  0  0  0  0  0  0  0  0  0  0  0
  129.7570  127.8320   70.9570 C   0  0  0  0  0  0  0  0  0  0  0  0
  129.4200  127.5490   69.6370 C   0  0  0  0  0  0  0  0  0  0  0  0
  128.2780  126.7960   69.3540 C   0  0  0  0  0  0  0  0  0  0  0  0
  127.8700  126.5400   67.9080 C   0  0  0  0  0  0  0  0  0  0  0  0
  128.9910  126.1650   67.0480 N   0  0  0  0  0  0  0  0  0  0  0  0
  129.7000  125.0600   67.3040 N   0  0  0  0  0  0  0  0  0  0  0  0
  130.6770  125.0350   66.3280 N   0  0  0  0  0  0  0  0  0  0  0  0
  130.5470  126.1400   65.4930 N   0  0  0  0  0  0  0  0  0  0  0  0
  129.5210  126.8160   65.9540 C   0  0  0  0  0  0  0  0  0  0  0  0
  129.0030  128.1260   65.3770 C   0  0  0  0  0  0  0  0  0  0  0  0
  128.0360  127.9180   64.2870 N   0  0  0  0  0  0  0  0  0  0  0  0
  127.0960  129.0400   64.1640 C   0  0  0  0  0  0  0  0  0  0  0  0
  126.4430  129.4410   65.5050 C   0  0  0  0  0  0  0  0  0  0  0  0
  124.9120  129.6130   65.4210 C   0  0  0  0  0  0  0  0  0  0  0  0
  124.4970  130.6790   64.5020 N   0  0  0  0  0  0  0  0  0  0  0  0
  124.1210  130.1120   63.2010 C   0  0  0  0  0  0  0  0  0  0  0  0
  123.7280  131.2130   62.1920 C   0  0  0  0  0  0  0  0  0  0  0  0
  124.7750  132.1720   62.0820 O   0  0  0  0  0  0  0  0  0  0  0  0
  125.0610  132.8030   63.3250 C   0  0  0  0  0  0  0  0  0  0  0  0
  125.4960  131.7500   64.3670 C   0  0  0  0  0  0  0  0  0  0  0  0
  128.7450  127.6990   63.0170 C   0  0  0  0  0  0  0  0  0  0  0  0
  128.0270  126.8250   61.9910 C   0  0  0  0  0  0  0  0  0  0  0  0
  128.4360  125.5570   61.7430 C   0  0  0  0  0  0  0  0  0  0  0  0
  127.7850  124.7050   60.7270 C   0  0  0  0  0  0  0  0  0  0  0  0
  128.1700  123.3800   60.4590 C   0  0  0  0  0  0  0  0  0  0  0  0
  129.3120  122.7130   61.2140 C   0  0  0  0  0  0  0  0  0  0  0  0
  127.4860  122.6590   59.4780 C   0  0  0  0  0  0  0  0  0  0  0  0
  126.4340  123.2390   58.7710 C   0  0  0  0  0  0  0  0  0  0  0  0
  126.0420  124.5560   59.0320 C   0  0  0  0  0  0  0  0  0  0  0  0
  124.8870  125.1610   58.2450 C   0  0  0  0  0  0  0  0  0  0  0  0
  126.7220  125.2900   60.0160 C   0  0  0  0  0  0  0  0  0  0  0  0
  126.3640  126.6220   60.3110 N   0  0  0  0  0  0  0  0  0  0  0  0
  126.9320  127.4390   61.2330 C   0  0  0  0  0  0  0  0  0  0  0  0
  126.5270  128.5930   61.3770 O   0  0  0  0  0  0  0  0  0  0  0  0
  127.4980  126.2980   70.3990 C   0  0  0  0  0  0  0  0  0  0  0  0
  127.8360  126.5820   71.7190 C   0  0  0  0  0  0  0  0  0  0  0  0
  1  2  1  0
  2  3  1  0
  3  4  2  0
  4  5  1  0
  5  6  2  0
  6  7  1  0
  7  8  1  0
  8  9  1  0
  9 10  2  0
 10 11  1  0
 11 12  2  0
 12 13  1  0
 13 14  1  0
 14 15  1  0
 15 16  1  0
 16 17  1  0
 17 18  1  0
 18 19  1  0
 19 20  1  0
 20 21  1  0
 21 22  1  0
 22 23  1  0
 14 24  1  0
 24 25  1  0
 25 26  2  0
 26 27  1  0
 27 28  2  0
 28 29  1  0
 28 30  1  0
 30 31  2  0
 31 32  1  0
 32 33  1  0
 32 34  2  0
 34 35  1  0
 35 36  1  0
 36 37  2  0
  6 38  1  0
 38 39  2  0
 39  3  1  0
 12  8  1  0
 23 18  1  0
 36 25  1  0
 34 27  1  0
M  END
>  <Binding energies>  (70) 
[-9.7]

>  <Ligand effiencies>  (70) 
[-0.2425]

>  <Interactions>  (70) 
["V-B:GLU:543:CD:9877, V-A:GLU:543:CD:4905, V-A:GLU:543:CG:4904, V-B:GLU:543:C:9871, V-B:GLU:543:CB:9875, V-B:HIS:456:CE1:9038, V-B:GLY:544:C:9881, V-B:HIS:456:CD2:9036, V-A:GLU:543:CB:4903, V-B:GLU:543:CG:9876, V-B:ILE:369:CD1:8207, V-B:ARG:545:CZ:9895, V-B:GLY:454:CA:9017, H-B:TYR:484:OH:9316, V-B:LEU:475:CD2:9227, V-B:ALA:541:CB:9861, V-B:ASP:366:CG:8181, H-B:ASP:366:OD1:8182, H-A:TYR:484:OH:4344, V-B:LYS:547:CE:9919, V-A:LYS:547:CE:4947, H-A:LYS:547:NZ:4948, H-B:GLY:454:N:9018, V-B:PRO:540:N:9853, V-B:PRO:540:CB:9854, V-B:PRO:540:CA:9852, V-B:TYR:484:CZ:9315, V-B:GLY:544:CA:9883"]

$$$$
RR15_Rahimova_2017
     RDKit          3D

 45 49  0  0  0  0  0  0  0  0999 V2000
  127.8920  127.8770   74.6960 C   0  0  0  0  0  0  0  0  0  0  0  0
  129.0150  127.3220   74.0200 O   0  0  0  0  0  0  0  0  0  0  0  0
  128.9830  127.1850   72.6430 C   0  0  0  0  0  0  0  0  0  0  0  0
  128.4170  126.0820   71.9840 C   0  0  0  0  0  0  0  0  0  0  0  0
  128.4200  126.0060   70.5930 C   0  0  0  0  0  0  0  0  0  0  0  0
  128.9870  127.0250   69.8210 C   0  0  0  0  0  0  0  0  0  0  0  0
  128.9960  126.9400   68.3200 C   0  0  0  0  0  0  0  0  0  0  0  0
  127.8870  126.8940   67.5940 N   0  0  0  0  0  0  0  0  0  0  0  0
  128.2940  126.8110   66.2790 N   0  0  0  0  0  0  0  0  0  0  0  0
  129.6250  126.8580   66.3580 N   0  0  0  0  0  0  0  0  0  0  0  0
  130.4790  126.6350   65.1930 C   0  0  0  0  0  0  0  0  0  0  0  0
  129.7930  125.8960   64.0170 C   0  0  0  0  0  0  0  0  0  0  0  0
  129.3910  124.7460   64.2070 O   0  0  0  0  0  0  0  0  0  0  0  0
  129.6220  126.5380   62.8200 N   0  0  0  0  0  0  0  0  0  0  0  0
  128.2970  127.0280   62.3940 C   0  0  0  0  0  0  0  0  0  0  0  0
  128.0490  128.5140   62.7340 C   0  0  0  0  0  0  0  0  0  0  0  0
  127.6480  128.7850   64.2030 C   0  0  0  0  0  0  0  0  0  0  0  0
  126.4420  129.6070   64.3440 N   0  0  0  0  0  0  0  0  0  0  0  0
  125.7020  129.7850   63.0860 C   0  0  0  0  0  0  0  0  0  0  0  0
  124.3990  130.5840   63.3050 C   0  0  0  0  0  0  0  0  0  0  0  0
  123.6070  129.9650   64.3140 O   0  0  0  0  0  0  0  0  0  0  0  0
  124.2850  129.8860   65.5630 C   0  0  0  0  0  0  0  0  0  0  0  0
  125.5840  129.0650   65.4060 C   0  0  0  0  0  0  0  0  0  0  0  0
  130.7590  126.9670   61.9490 C   0  0  2  0  0  0  0  0  0  0  0  0
  130.3270  127.8110   60.7090 C   0  0  0  0  0  0  0  0  0  0  0  0
  129.8260  127.2760   59.7200 O   0  0  0  0  0  0  0  0  0  0  0  0
  130.5030  129.1390   60.8200 N   0  0  0  0  0  0  0  0  0  0  0  0
  130.0810  130.1310   59.8370 C   0  0  0  0  0  0  0  0  0  0  0  0
  131.0210  131.3510   59.8400 C   0  0  2  0  0  0  0  0  0  0  0  0
  132.3940  131.1280   59.1830 C   0  0  0  0  0  0  0  0  0  0  0  0
  133.3410  130.9310   60.3420 C   0  0  0  0  0  0  0  0  0  0  0  0
  132.7250  131.8430   61.3900 C   0  0  0  0  0  0  0  0  0  0  0  0
  131.3310  131.6130   61.2150 O   0  0  0  0  0  0  0  0  0  0  0  0
  131.7190  125.8080   61.7080 C   0  0  0  0  0  0  0  0  0  0  0  0
  131.6250  125.1130   60.4960 C   0  0  0  0  0  0  0  0  0  0  0  0
  132.4750  124.0460   60.2230 C   0  0  0  0  0  0  0  0  0  0  0  0
  133.4310  123.6660   61.1610 C   0  0  0  0  0  0  0  0  0  0  0  0
  134.2580  122.6300   60.8950 F   0  0  0  0  0  0  0  0  0  0  0  0
  133.5410  124.3460   62.3710 C   0  0  0  0  0  0  0  0  0  0  0  0
  132.6890  125.4120   62.6440 C   0  0  0  0  0  0  0  0  0  0  0  0
  130.1060  126.8970   67.6070 N   0  0  0  0  0  0  0  0  0  0  0  0
  129.5490  128.1260   70.4820 C   0  0  0  0  0  0  0  0  0  0  0  0
  129.5510  128.2190   71.8840 C   0  0  0  0  0  0  0  0  0  0  0  0
  130.0900  129.2870   72.5810 O   0  0  0  0  0  0  0  0  0  0  0  0
  129.3860  130.5230   72.6280 C   0  0  0  0  0  0  0  0  0  0  0  0
  1  2  1  0
  2  3  1  0
  3  4  2  0
  4  5  1  0
  5  6  2  0
  6  7  1  0
  7  8  1  0
  8  9  2  0
  9 10  1  0
 10 11  1  0
 11 12  1  0
 12 13  2  0
 12 14  1  0
 14 15  1  0
 15 16  1  0
 16 17  1  0
 17 18  1  0
 18 19  1  0
 19 20  1  0
 20 21  1  0
 21 22  1  0
 22 23  1  0
 24 14  1  6
 24 25  1  0
 25 26  2  0
 25 27  1  0
 27 28  1  0
 29 28  1  1
 29 30  1  0
 30 31  1  0
 31 32  1  0
 32 33  1  0
 24 34  1  0
 34 35  2  0
 35 36  1  0
 36 37  2  0
 37 38  1  0
 37 39  1  0
 39 40  2  0
 10 41  1  0
  6 42  1  0
 42 43  2  0
 43 44  1  0
 44 45  1  0
 43  3  1  0
 41  7  2  0
 23 18  1  0
 33 29  1  0
 40 34  1  0
M  END
>  <Binding energies>  (71) 
[-10.27]

>  <Ligand effiencies>  (71) 
[-0.22326086956521737]

>  <Interactions>  (71) 
["V-B:GLU:543:CD:9877, H-A:GLU:543:OE1:4906, V-A:ARG:545:CZ:4923, V-A:ILE:369:CB:3232, H-A:GLU:543:OE2:4907, V-A:ILE:369:CG1:3234, V-A:ILE:369:CG2:3233, V-B:TYR:539:CE2:9845, H-A:ASP:366:OD1:3210, V-A:GLU:543:CD:4905, V-B:GLU:543:C:9871, V-B:HIS:456:CE1:9038, V-B:HIS:456:CD2:9036, V-B:ARG:545:CZ:9895, V-B:ARG:545:CD:9892, V-B:ASP:366:CG:8181, V-A:ASP:366:CG:3209, V-A:PRO:540:CA:4880, V-A:PRO:540:CB:4882, H-A:ALA:541:N:4888, H-B:ARG:545:NH2:9897, V-A:ASN:362:CB:3172, V-A:LEU:363:CA:3181, V-A:ASN:362:C:3168, V-B:LYS:547:CE:9919, V-A:LYS:547:CE:4947, H-A:LYS:547:NZ:4948, H-B:GLY:454:N:9018, V-A:GLY:544:CA:4911, H-B:ARG:545:NH1:9896, H-B:ARG:545:NE:9893, V-A:PRO:540:C:4878"]

$$$$
RR17_Rahimova_2017
     RDKit          3D

 38 41  0  0  0  0  0  0  0  0999 V2000
  127.5860  136.0520   60.9810 C   0  0  0  0  0  0  0  0  0  0  0  0
  127.1640  134.6570   60.5120 C   0  0  0  0  0  0  0  0  0  0  0  0
  127.9060  133.6840   61.2440 O   0  0  0  0  0  0  0  0  0  0  0  0
  127.2520  132.8810   62.1600 C   0  0  0  0  0  0  0  0  0  0  0  0
  126.8260  131.6350   61.7030 C   0  0  0  0  0  0  0  0  0  0  0  0
  126.1590  130.7590   62.5530 C   0  0  0  0  0  0  0  0  0  0  0  0
  125.9000  131.1140   63.8840 C   0  0  0  0  0  0  0  0  0  0  0  0
  125.1780  130.1470   64.7780 C   0  0  0  0  0  0  0  0  0  0  0  0
  123.9510  130.0150   64.7550 O   0  0  0  0  0  0  0  0  0  0  0  0
  126.0400  129.3200   65.7570 C   0  0  0  0  0  0  0  0  0  0  0  0
  127.8240  129.6810   65.5790 S   0  0  0  0  0  0  0  0  0  0  0  0
  128.4050  128.0930   65.0540 C   0  0  0  0  0  0  0  0  0  0  0  0
  128.4720  127.6820   63.8090 N   0  0  0  0  0  0  0  0  0  0  0  0
  128.9860  126.3910   63.8140 N   0  0  0  0  0  0  0  0  0  0  0  0
  129.2140  126.0720   65.0630 C   0  0  0  0  0  0  0  0  0  0  0  0
  129.7940  124.7420   65.5230 C   0  0  0  0  0  0  0  0  0  0  0  0
  131.2540  124.7000   65.5120 N   0  0  0  0  0  0  0  0  0  0  0  0
  132.0170  124.3370   64.3870 C   0  0  0  0  0  0  0  0  0  0  0  0
  131.7430  123.1040   63.7960 C   0  0  0  0  0  0  0  0  0  0  0  0
  132.4630  122.6810   62.6830 C   0  0  0  0  0  0  0  0  0  0  0  0
  133.4670  123.4910   62.1440 C   0  0  0  0  0  0  0  0  0  0  0  0
  134.2530  123.0090   60.9260 C   0  0  0  0  0  0  0  0  0  0  0  0
  134.3860  121.6810   60.9020 F   0  0  0  0  0  0  0  0  0  0  0  0
  133.6410  123.3800   59.8000 F   0  0  0  0  0  0  0  0  0  0  0  0
  135.4710  123.5510   60.9490 F   0  0  0  0  0  0  0  0  0  0  0  0
  133.7380  124.7320   62.7300 C   0  0  0  0  0  0  0  0  0  0  0  0
  133.0160  125.1540   63.8420 C   0  0  0  0  0  0  0  0  0  0  0  0
  128.8560  127.1050   65.9050 N   0  0  0  0  0  0  0  0  0  0  0  0
  128.9590  127.1500   67.3040 C   0  0  0  0  0  0  0  0  0  0  0  0
  127.9600  126.5690   68.0850 C   0  0  0  0  0  0  0  0  0  0  0  0
  128.0610  126.6170   69.4730 C   0  0  0  0  0  0  0  0  0  0  0  0
  129.1590  127.2450   70.0820 C   0  0  0  0  0  0  0  0  0  0  0  0
  129.3420  127.3400   71.4480 O   0  0  0  0  0  0  0  0  0  0  0  0
  128.9400  126.2560   72.2800 C   0  0  0  0  0  0  0  0  0  0  0  0
  130.1490  127.8220   69.2830 C   0  0  0  0  0  0  0  0  0  0  0  0
  130.0550  127.7770   67.8950 C   0  0  0  0  0  0  0  0  0  0  0  0
  126.3290  132.3680   64.3430 C   0  0  0  0  0  0  0  0  0  0  0  0
  126.9980  133.2430   63.4910 C   0  0  0  0  0  0  0  0  0  0  0  0
  1  2  1  0
  2  3  1  0
  3  4  1  0
  4  5  2  0
  5  6  1  0
  6  7  2  0
  7  8  1  0
  8  9  2  0
  8 10  1  0
 10 11  1  0
 11 12  1  0
 12 13  2  0
 13 14  1  0
 14 15  2  0
 15 16  1  0
 16 17  1  0
 17 18  1  0
 18 19  2  0
 19 20  1  0
 20 21  2  0
 21 22  1  0
 22 23  1  0
 22 24  1  0
 22 25  1  0
 21 26  1  0
 26 27  2  0
 15 28  1  0
 28 29  1  0
 29 30  2  0
 30 31  1  0
 31 32  2  0
 32 33  1  0
 33 34  1  0
 32 35  1  0
 35 36  2  0
  7 37  1  0
 37 38  2  0
 38  4  1  0
 28 12  1  0
 36 29  1  0
 27 18  1  0
M  END
>  <Binding energies>  (72) 
[-8.65]

>  <Ligand effiencies>  (72) 
[-0.2217948717948718]

>  <Interactions>  (72) 
["V-A:LEU:475:CD1:4254, V-B:GLU:543:CD:9877, V-A:ARG:545:CZ:4923, V-A:ILE:369:CB:3232, V-A:ILE:369:CG1:3234, V-A:ILE:369:CG2:3233, V-A:GLY:454:CA:4045, V-B:TYR:539:CE2:9845, V-A:HIS:456:CE1:4066, V-A:GLU:543:CD:4905, V-A:TYR:484:CZ:4343, V-B:GLU:543:CB:9875, V-B:HIS:456:CE1:9038, V-A:TYR:484:CE1:4341, V-B:HIS:456:CD2:9036, V-A:GLU:543:CB:4903, V-B:GLU:543:CG:9876, V-B:TRP:381:CH2:8340, V-A:ALA:541:CB:4889, H-B:TYR:484:OH:9316, V-A:TYR:539:CD2:4871, V-B:LEU:475:CD2:9227, V-B:TYR:539:CZ:9846, V-A:ASP:366:CG:3209, V-A:ASP:366:CB:3208, H-A:TYR:484:OH:4344, V-B:LYS:547:CE:9919, H-A:HIS:456:NE2:4067, V-A:GLU:543:C:4899, H-B:GLY:454:N:9018, V-A:GLY:453:C:4038, V-A:ILE:369:CD1:3235, V-B:TYR:484:CE1:9313, V-B:TYR:484:CZ:9315, V-B:TRP:381:CZ2:8338, V-B:PRO:482:CG:9295, V-B:PRO:482:CB:9294, V-A:GLY:453:CA:4040, V-A:ASP:366:CA:3206, H-B:ARG:545:NH1:9896"]

$$$$
RR19_Rahimova_2017
     RDKit          3D

 46 51  0  0  0  0  0  0  0  0999 V2000
  129.8600  121.1440   61.5650 O   0  0  0  0  0  0  0  0  0  0  0  0
  129.6980  122.3550   61.3900 C   0  0  0  0  0  0  0  0  0  0  0  0
  129.7310  123.3100   62.3540 N   0  0  0  0  0  0  0  0  0  0  0  0
  130.1390  123.3020   63.6660 C   0  0  0  0  0  0  0  0  0  0  0  0
  130.9930  122.0540   64.4250 S   0  0  0  0  0  0  0  0  0  0  0  0
  129.7390  124.4760   64.2560 N   0  0  0  0  0  0  0  0  0  0  0  0
  129.9960  125.0350   65.4660 C   0  0  0  0  0  0  0  0  0  0  0  0
  130.8420  124.6600   66.2810 O   0  0  0  0  0  0  0  0  0  0  0  0
  129.0890  126.2450   65.8030 C   0  0  2  0  0  0  0  0  0  0  0  0
  129.2270  127.4550   64.8340 C   0  0  0  0  0  0  0  0  0  0  0  0
  127.9530  128.2530   64.6090 C   0  0  0  0  0  0  0  0  0  0  0  0
  127.2790  128.2070   63.3690 C   0  0  0  0  0  0  0  0  0  0  0  0
  126.0760  128.8790   63.2070 C   0  0  0  0  0  0  0  0  0  0  0  0
  125.5190  129.5850   64.2670 C   0  0  0  0  0  0  0  0  0  0  0  0
  126.1560  129.6150   65.5010 C   0  0  0  0  0  0  0  0  0  0  0  0
  127.3590  128.9470   65.6840 C   0  0  0  0  0  0  0  0  0  0  0  0
  129.2480  126.6610   67.2230 N   0  0  0  0  0  0  0  0  0  0  0  0
  130.4180  127.1930   67.6790 C   0  0  0  0  0  0  0  0  0  0  0  0
  131.4570  127.3700   67.0400 O   0  0  0  0  0  0  0  0  0  0  0  0
  130.1770  127.5180   69.1070 C   0  0  0  0  0  0  0  0  0  0  0  0
  131.0150  128.0760   70.0720 C   0  0  0  0  0  0  0  0  0  0  0  0
  130.5100  128.2810   71.3610 C   0  0  0  0  0  0  0  0  0  0  0  0
  129.1870  127.9320   71.6640 C   0  0  0  0  0  0  0  0  0  0  0  0
  128.3610  127.3750   70.6810 C   0  0  0  0  0  0  0  0  0  0  0  0
  128.8850  127.1770   69.4030 C   0  0  0  0  0  0  0  0  0  0  0  0
  128.2650  126.6250   68.1720 C   0  0  0  0  0  0  0  0  0  0  0  0
  127.1070  126.2290   68.0380 O   0  0  0  0  0  0  0  0  0  0  0  0
  129.4130  122.8920   59.9630 C   0  0  2  0  0  0  0  0  0  0  0  0
  130.4150  123.9830   59.4880 C   0  0  0  0  0  0  0  0  0  0  0  0
  131.6150  124.1570   60.4010 C   0  0  0  0  0  0  0  0  0  0  0  0
  131.6390  125.2050   61.3470 C   0  0  0  0  0  0  0  0  0  0  0  0
  132.6900  125.3020   62.2500 C   0  0  0  0  0  0  0  0  0  0  0  0
  133.7060  124.3550   62.2460 C   0  0  0  0  0  0  0  0  0  0  0  0
  133.6760  123.2960   61.3470 C   0  0  0  0  0  0  0  0  0  0  0  0
  132.6340  123.1820   60.4350 C   0  0  0  0  0  0  0  0  0  0  0  0
  128.0000  123.3240   59.7650 N   0  0  0  0  0  0  0  0  0  0  0  0
  127.4020  124.2210   60.5980 C   0  0  0  0  0  0  0  0  0  0  0  0
  127.8940  124.7640   61.5880 O   0  0  0  0  0  0  0  0  0  0  0  0
  126.0320  124.4060   60.0580 C   0  0  0  0  0  0  0  0  0  0  0  0
  124.9720  125.1980   60.5040 C   0  0  0  0  0  0  0  0  0  0  0  0
  123.7720  125.1780   59.7850 C   0  0  0  0  0  0  0  0  0  0  0  0
  123.6470  124.3780   58.6410 C   0  0  0  0  0  0  0  0  0  0  0  0
  124.7220  123.5920   58.2100 C   0  0  0  0  0  0  0  0  0  0  0  0
  125.9100  123.6240   58.9420 C   0  0  0  0  0  0  0  0  0  0  0  0
  127.1970  122.9190   58.7360 C   0  0  0  0  0  0  0  0  0  0  0  0
  127.4820  122.1340   57.8310 O   0  0  0  0  0  0  0  0  0  0  0  0
  1  2  2  0
  2  3  1  0
  3  4  1  0
  4  5  2  0
  4  6  1  0
  6  7  1  0
  7  8  2  0
  7  9  1  0
  9 10  1  6
 10 11  1  0
 11 12  2  0
 12 13  1  0
 13 14  2  0
 14 15  1  0
 15 16  2  0
  9 17  1  0
 17 18  1  0
 18 19  2  0
 18 20  1  0
 20 21  2  0
 21 22  1  0
 22 23  2  0
 23 24  1  0
 24 25  2  0
 25 26  1  0
 26 27  2  0
  2 28  1  0
 28 29  1  1
 29 30  1  0
 30 31  2  0
 31 32  1  0
 32 33  2  0
 33 34  1  0
 34 35  2  0
 28 36  1  0
 36 37  1  0
 37 38  2  0
 37 39  1  0
 39 40  2  0
 40 41  1  0
 41 42  2  0
 42 43  1  0
 43 44  2  0
 44 45  1  0
 45 46  2  0
 16 11  1  0
 26 17  1  0
 35 30  1  0
 45 36  1  0
 25 20  1  0
 44 39  1  0
M  END
>  <Binding energies>  (73) 
[-11.15]

>  <Ligand effiencies>  (73) 
[-0.23229166666666667]

>  <Interactions>  (73) 
["V-A:LEU:475:CD1:4254, V-B:GLU:543:CD:9877, V-A:ARG:545:CZ:4923, V-B:TYR:539:CE2:9845, V-A:HIS:456:CE1:4066, V-A:GLU:543:CD:4905, V-A:TYR:484:CZ:4343, V-B:GLU:543:CB:9875, V-B:HIS:456:CE1:9038, V-A:TYR:484:CE1:4341, V-A:HIS:456:CD2:4064, V-B:HIS:456:CD2:9036, V-A:GLU:543:CB:4903, V-B:GLU:543:CG:9876, V-B:ARG:545:CZ:9895, V-B:TYR:539:CZ:9846, V-B:ASP:366:CB:8180, V-B:TYR:539:CD2:9843, V-B:ALA:541:CB:9861, V-B:ASP:366:CG:8181, V-A:ASP:366:CG:3209, H-A:TYR:484:OH:4344, H-B:GLU:543:OE1:9878, V-A:GLU:543:C:4899, V-A:LEU:475:CD2:4255, V-B:PRO:540:N:9853, V-B:LEU:363:CD1:8157, V-B:PRO:540:CB:9854, V-B:LEU:363:CA:8153, V-B:PRO:540:CA:9852, V-A:LEU:475:CG:4253, V-B:LEU:363:CB:8155, V-B:ASN:362:C:8140, V-A:GLY:544:CA:4911, V-A:GLY:544:C:4909, H-B:GLU:543:OE2:9879"]

$$$$
RR1_Rahimova_2017
     RDKit          3D

 41 44  0  0  0  0  0  0  0  0999 V2000
  133.1210  124.1000   61.3680 C   0  0  0  0  0  0  0  0  0  0  0  0
  133.7050  124.0240   62.6640 O   0  0  0  0  0  0  0  0  0  0  0  0
  133.2240  124.8400   63.6690 C   0  0  0  0  0  0  0  0  0  0  0  0
  133.8630  125.0360   64.9040 C   0  0  0  0  0  0  0  0  0  0  0  0
  133.2980  125.8720   65.8620 C   0  0  0  0  0  0  0  0  0  0  0  0
  132.0940  126.5290   65.6040 C   0  0  0  0  0  0  0  0  0  0  0  0
  131.5800  127.3160   66.6520 N   0  0  0  0  0  0  0  0  0  0  0  0
  130.6880  126.9870   67.6110 C   0  0  0  0  0  0  0  0  0  0  0  0
  130.1010  125.9070   67.6820 O   0  0  0  0  0  0  0  0  0  0  0  0
  130.4320  128.0890   68.6520 C   0  0  0  0  0  0  0  0  0  0  0  0
  131.0810  127.7520   70.3260 S   0  0  0  0  0  0  0  0  0  0  0  0
  129.5360  127.6080   71.1590 C   0  0  0  0  0  0  0  0  0  0  0  0
  129.2460  128.2140   72.2830 N   0  0  0  0  0  0  0  0  0  0  0  0
  127.9960  127.8380   72.5340 C   0  0  0  0  0  0  0  0  0  0  0  0
  127.2410  128.3140   73.7420 C   0  0  0  0  0  0  0  0  0  0  0  0
  125.9100  127.9320   73.9740 C   0  0  0  0  0  0  0  0  0  0  0  0
  125.2320  128.3930   75.1040 C   0  0  0  0  0  0  0  0  0  0  0  0
  125.9070  129.2360   75.9850 C   0  0  0  0  0  0  0  0  0  0  0  0
  127.1930  129.6260   75.7920 N   0  0  0  0  0  0  0  0  0  0  0  0
  127.8340  129.1650   74.6880 C   0  0  0  0  0  0  0  0  0  0  0  0
  127.4620  127.0200   71.6460 N   0  0  0  0  0  0  0  0  0  0  0  0
  128.4520  126.8690   70.7610 N   0  0  0  0  0  0  0  0  0  0  0  0
  128.2650  126.0370   69.5720 C   0  0  0  0  0  0  0  0  0  0  0  0
  127.2700  126.5920   68.5390 C   0  0  0  0  0  0  0  0  0  0  0  0
  126.0540  126.4130   68.6700 O   0  0  0  0  0  0  0  0  0  0  0  0
  127.8310  127.2640   67.5150 N   0  0  0  0  0  0  0  0  0  0  0  0
  126.9910  127.9190   66.6240 N   0  0  0  0  0  0  0  0  0  0  0  0
  127.3710  129.1360   66.1780 C   0  0  0  0  0  0  0  0  0  0  0  0
  128.4630  129.6560   66.4310 O   0  0  0  0  0  0  0  0  0  0  0  0
  126.3690  129.8530   65.2960 C   0  0  0  0  0  0  0  0  0  0  0  0
  125.1300  129.2630   65.0240 C   0  0  0  0  0  0  0  0  0  0  0  0
  124.2010  129.8970   64.2070 C   0  0  0  0  0  0  0  0  0  0  0  0
  124.4860  131.1440   63.6270 C   0  0  0  0  0  0  0  0  0  0  0  0
  123.6130  131.8220   62.7950 O   0  0  0  0  0  0  0  0  0  0  0  0
  123.7790  131.7350   61.3850 C   0  0  0  0  0  0  0  0  0  0  0  0
  125.7250  131.7480   63.8810 C   0  0  0  0  0  0  0  0  0  0  0  0
  125.9660  132.9670   63.2700 O   0  0  0  0  0  0  0  0  0  0  0  0
  127.0830  133.1100   62.4010 C   0  0  0  0  0  0  0  0  0  0  0  0
  126.6530  131.0990   64.7150 C   0  0  0  0  0  0  0  0  0  0  0  0
  131.4520  126.3360   64.3710 C   0  0  0  0  0  0  0  0  0  0  0  0
  132.0210  125.4990   63.4160 C   0  0  0  0  0  0  0  0  0  0  0  0
  1  2  1  0
  2  3  1  0
  3  4  2  0
  4  5  1  0
  5  6  2  0
  6  7  1  0
  7  8  1  0
  8  9  2  0
  8 10  1  0
 10 11  1  0
 11 12  1  0
 12 13  2  0
 13 14  1  0
 14 15  1  0
 15 16  2  0
 16 17  1  0
 17 18  2  0
 18 19  1  0
 19 20  2  0
 14 21  2  0
 21 22  1  0
 22 23  1  0
 23 24  1  0
 24 25  2  0
 24 26  1  0
 26 27  1  0
 27 28  1  0
 28 29  2  0
 28 30  1  0
 30 31  2  0
 31 32  1  0
 32 33  2  0
 33 34  1  0
 34 35  1  0
 33 36  1  0
 36 37  1  0
 37 38  1  0
 36 39  2  0
  6 40  1  0
 40 41  2  0
 41  3  1  0
 22 12  1  0
 39 30  1  0
 20 15  1  0
M  END
>  <Binding energies>  (74) 
[-8.98]

>  <Ligand effiencies>  (74) 
[-0.2040909090909091]

>  <Interactions>  (74) 
["V-B:GLU:543:CD:9877, H-A:GLU:543:OE1:4906, V-A:ARG:545:CZ:4923, H-A:GLY:454:N:4046, V-A:ARG:545:CG:4919, V-A:GLY:454:CA:4045, V-A:HIS:456:CE1:4066, V-A:GLU:543:CD:4905, H-B:HIS:456:NE2:9039, V-B:GLU:543:C:9871, V-B:GLU:543:CB:9875, V-B:HIS:456:CE1:9038, V-B:HIS:456:CD2:9036, V-A:GLU:543:CB:4903, V-B:ILE:369:CD1:8207, V-B:ARG:545:CZ:9895, V-A:ALA:541:CB:4889, V-B:GLY:454:CA:9017, V-B:LEU:475:CD2:9227, V-B:ASP:366:CG:8181, V-A:ASP:366:CG:3209, H-B:GLU:543:OE1:9878, V-A:ARG:545:CD:4920, V-B:LYS:547:CE:9919, V-B:HIS:456:CG:9034, V-A:LYS:547:CE:4947, V-A:GLU:543:C:4899, V-B:HIS:456:CB:9033, V-B:LYS:547:CD:9918, V-B:VAL:458:CG2:9055, H-A:LYS:547:NZ:4948, V-B:LYS:471:CE:9188, H-B:GLY:454:N:9018, V-A:GLY:453:C:4038, V-A:GLY:453:CA:4040, H-B:ARG:545:N:9889, H-B:HIS:456:ND1:9035"]

$$$$
RR22_Rahimova_2017
     RDKit          3D

 31 36  0  0  0  0  0  0  0  0999 V2000
  130.0080  129.6220   60.5620 O   0  0  0  0  0  0  0  0  0  0  0  0
  129.8770  128.4230   60.7950 C   0  0  0  0  0  0  0  0  0  0  0  0
  130.8740  127.5010   61.0650 N   0  0  0  0  0  0  0  0  0  0  0  0
  130.5460  126.1440   61.3770 C   0  0  1  0  0  0  0  0  0  0  0  0
  131.2710  125.3550   60.4300 O   0  0  0  0  0  0  0  0  0  0  0  0
  132.1970  124.4280   60.9100 C   0  0  0  0  0  0  0  0  0  0  0  0
  133.1340  123.9520   59.9920 C   0  0  0  0  0  0  0  0  0  0  0  0
  134.0660  122.9920   60.3880 C   0  0  0  0  0  0  0  0  0  0  0  0
  134.0550  122.5050   61.6950 C   0  0  0  0  0  0  0  0  0  0  0  0
  133.1170  122.9810   62.6130 C   0  0  0  0  0  0  0  0  0  0  0  0
  132.1930  123.9610   62.2380 C   0  0  0  0  0  0  0  0  0  0  0  0
  131.1120  124.5090   63.1420 C   0  0  1  0  0  0  0  0  0  0  0  0
  131.2950  124.6460   64.6400 C   0  0  0  0  0  0  0  0  0  0  0  0
  130.3900  125.8530   64.9050 C   0  0  0  0  0  0  0  0  0  0  0  0
  129.8870  126.1920   66.2510 C   0  0  0  0  0  0  0  0  0  0  0  0
  129.4730  125.1840   67.1330 C   0  0  0  0  0  0  0  0  0  0  0  0
  129.0000  125.5090   68.4010 C   0  0  0  0  0  0  0  0  0  0  0  0
  128.9370  126.8430   68.7950 C   0  0  0  0  0  0  0  0  0  0  0  0
  129.3450  127.8560   67.9310 C   0  0  0  0  0  0  0  0  0  0  0  0
  129.8190  127.5320   66.6620 C   0  0  0  0  0  0  0  0  0  0  0  0
  130.1690  126.5090   63.8280 N   0  0  0  0  0  0  0  0  0  0  0  0
  130.8660  125.8740   62.7870 N   0  0  0  0  0  0  0  0  0  0  0  0
  129.0670  125.9700   61.0630 C   0  0  0  0  0  0  0  0  0  0  0  0
  128.4840  124.7590   60.9080 C   0  0  0  0  0  0  0  0  0  0  0  0
  127.0690  124.4490   60.6240 C   0  0  0  0  0  0  0  0  0  0  0  0
  126.2230  125.3090   59.9100 C   0  0  0  0  0  0  0  0  0  0  0  0
  124.8950  124.9490   59.6800 C   0  0  0  0  0  0  0  0  0  0  0  0
  124.4400  123.7300   60.1800 C   0  0  0  0  0  0  0  0  0  0  0  0
  125.2320  122.8810   60.8820 N   0  0  0  0  0  0  0  0  0  0  0  0
  126.5220  123.2490   61.0940 C   0  0  0  0  0  0  0  0  0  0  0  0
  128.2860  127.5430   60.8400 S   0  0  0  0  0  0  0  0  0  0  0  0
  1  2  2  0
  2  3  1  0
  4  3  1  6
  4  5  1  0
  5  6  1  0
  6  7  2  0
  7  8  1  0
  8  9  2  0
  9 10  1  0
 10 11  2  0
 11 12  1  0
 12 13  1  1
 13 14  1  0
 14 15  1  0
 15 16  2  0
 16 17  1  0
 17 18  2  0
 18 19  1  0
 19 20  2  0
 14 21  2  0
 21 22  1  0
  4 23  1  0
 23 24  2  0
 24 25  1  0
 25 26  2  0
 26 27  1  0
 27 28  2  0
 28 29  1  0
 29 30  2  0
 23 31  1  0
 31  2  1  0
 22  4  1  0
 30 25  1  0
 11  6  1  0
 22 12  1  0
 20 15  1  0
M  END
>  <Binding energies>  (75) 
[-8.97]

>  <Ligand effiencies>  (75) 
[-0.2803125]

>  <Interactions>  (75) 
["V-A:LEU:475:CD1:4254, V-B:GLU:543:CD:9877, V-A:ILE:369:CB:3232, H-A:ASP:366:OD2:3211, V-A:ILE:369:CG1:3234, V-A:ILE:369:CG2:3233, V-A:GLY:454:CA:4045, V-A:HIS:456:CE1:4066, H-A:ASP:366:OD1:3210, V-A:GLU:543:CD:4905, V-B:GLU:543:CA:9873, V-B:GLU:543:C:9871, V-B:GLU:543:CB:9875, V-B:HIS:456:CE1:9038, V-A:TYR:484:CE1:4341, V-A:GLU:543:CB:4903, V-B:GLU:543:CG:9876, V-B:TYR:539:CZ:9846, H-B:ALA:541:N:9860, V-B:ALA:541:CB:9861, V-A:ASP:366:CG:3209, V-A:ASP:366:CB:3208, V-B:PRO:540:CB:9854, V-B:PRO:540:CA:9852, V-A:ASP:366:CA:3206, V-B:ALA:541:CA:9859"]

$$$$
RR24_Rahimova_2017
     RDKit          3D

 43 49  0  0  0  0  0  0  0  0999 V2000
  129.6840  129.2880   72.2460 C   0  0  0  0  0  0  0  0  0  0  0  0
  128.6840  128.2240   72.7200 C   0  0  2  0  0  0  0  0  0  0  0  0
  128.2020  127.2820   71.5770 C   0  0  0  0  0  0  0  0  0  0  0  0
  127.0040  127.0810   71.3540 O   0  0  0  0  0  0  0  0  0  0  0  0
  129.2390  126.7080   70.9000 O   0  0  0  0  0  0  0  0  0  0  0  0
  129.3330  126.8680   69.5360 C   0  0  0  0  0  0  0  0  0  0  0  0
  130.2740  127.7570   69.0140 C   0  0  0  0  0  0  0  0  0  0  0  0
  130.3840  127.9200   67.6370 C   0  0  0  0  0  0  0  0  0  0  0  0
  129.5600  127.1910   66.7750 C   0  0  0  0  0  0  0  0  0  0  0  0
  129.6730  127.3890   65.2590 C   0  0  1  0  0  0  0  0  0  0  0  0
  130.0770  126.0840   64.5330 C   0  0  0  0  0  0  0  0  0  0  0  0
  129.4010  125.5990   63.4770 C   0  0  0  0  0  0  0  0  0  0  0  0
  128.2940  126.2290   62.9630 N   0  0  0  0  0  0  0  0  0  0  0  0
  127.8190  127.3970   63.5110 C   0  0  0  0  0  0  0  0  0  0  0  0
  126.7240  127.8970   62.8820 N   0  0  0  0  0  0  0  0  0  0  0  0
  126.0690  129.0020   63.3300 C   0  0  0  0  0  0  0  0  0  0  0  0
  124.9240  129.2270   62.9310 O   0  0  0  0  0  0  0  0  0  0  0  0
  126.7300  129.6800   64.3420 N   0  0  0  0  0  0  0  0  0  0  0  0
  126.1060  130.9390   64.8020 C   0  0  0  0  0  0  0  0  0  0  0  0
  127.8440  129.2640   65.0500 C   0  0  0  0  0  0  0  0  0  0  0  0
  128.3520  129.8990   65.9790 O   0  0  0  0  0  0  0  0  0  0  0  0
  128.4040  127.9910   64.5840 C   0  0  0  0  0  0  0  0  0  0  0  0
  130.0020  124.3640   63.0000 C   0  0  0  0  0  0  0  0  0  0  0  0
  129.6830  123.4900   61.9600 C   0  0  0  0  0  0  0  0  0  0  0  0
  130.4770  122.3590   61.7530 C   0  0  0  0  0  0  0  0  0  0  0  0
  131.5780  122.1110   62.5770 C   0  0  0  0  0  0  0  0  0  0  0  0
  131.8930  122.9900   63.6170 C   0  0  0  0  0  0  0  0  0  0  0  0
  131.0950  124.1180   63.8200 C   0  0  0  0  0  0  0  0  0  0  0  0
  131.1980  125.1970   64.8250 C   0  0  0  0  0  0  0  0  0  0  0  0
  132.0220  125.3590   65.7250 O   0  0  0  0  0  0  0  0  0  0  0  0
  128.6310  126.2870   67.3000 C   0  0  0  0  0  0  0  0  0  0  0  0
  128.5220  126.1220   68.6780 C   0  0  0  0  0  0  0  0  0  0  0  0
  127.5470  128.8210   73.4810 N   0  0  0  0  0  0  0  0  0  0  0  0
  127.5250  130.1430   73.8090 C   0  0  0  0  0  0  0  0  0  0  0  0
  128.3820  130.9920   73.5530 O   0  0  0  0  0  0  0  0  0  0  0  0
  126.2490  130.3480   74.5390 C   0  0  0  0  0  0  0  0  0  0  0  0
  125.6980  131.4960   75.1100 C   0  0  0  0  0  0  0  0  0  0  0  0
  124.4550  131.3960   75.7450 C   0  0  0  0  0  0  0  0  0  0  0  0
  123.7870  130.1660   75.8010 C   0  0  0  0  0  0  0  0  0  0  0  0
  124.3560  129.0270   75.2220 C   0  0  0  0  0  0  0  0  0  0  0  0
  125.5970  129.1460   74.5940 C   0  0  0  0  0  0  0  0  0  0  0  0
  126.4370  128.1390   73.9000 C   0  0  0  0  0  0  0  0  0  0  0  0
  126.1850  126.9450   73.7330 O   0  0  0  0  0  0  0  0  0  0  0  0
  2  1  1  6
  2  3  1  0
  3  4  2  0
  3  5  1  0
  5  6  1  0
  6  7  2  0
  7  8  1  0
  8  9  2  0
 10  9  1  1
 10 11  1  0
 11 12  2  0
 12 13  1  0
 13 14  1  0
 14 15  1  0
 15 16  1  0
 16 17  2  0
 16 18  1  0
 18 19  1  0
 18 20  1  0
 20 21  2  0
 20 22  1  0
 12 23  1  0
 23 24  2  0
 24 25  1  0
 25 26  2  0
 26 27  1  0
 27 28  2  0
 28 29  1  0
 29 30  2  0
  9 31  1  0
 31 32  2  0
  2 33  1  0
 33 34  1  0
 34 35  2  0
 34 36  1  0
 36 37  2  0
 37 38  1  0
 38 39  2  0
 39 40  1  0
 40 41  2  0
 41 42  1  0
 42 43  2  0
 32  6  1  0
 42 33  1  0
 22 10  1  0
 28 23  1  0
 41 36  1  0
 29 11  1  0
 22 14  2  0
M  END
>  <Binding energies>  (76) 
[-9.6]

>  <Ligand effiencies>  (76) 
[-0.21333333333333332]

>  <Interactions>  (76) 
["V-A:LEU:475:CD1:4254, V-B:GLU:543:CD:9877, V-B:TYR:539:CE2:9845, V-A:HIS:456:CE1:4066, V-A:GLU:543:CD:4905, V-A:GLU:543:CG:4904, V-B:GLU:543:C:9871, V-B:GLU:543:CB:9875, V-B:HIS:456:CD2:9036, V-A:GLU:543:CB:4903, V-B:GLU:543:CG:9876, V-B:ARG:545:CZ:9895, V-B:ALA:541:CB:9861, H-B:ASP:366:OD1:8182, H-B:ARG:545:NH2:9897, H-A:TYR:484:OH:4344, H-B:GLU:543:OE1:9878, V-B:LYS:547:CE:9919, V-B:VAL:457:C:9041, V-B:ASP:473:CG:9208, V-B:ASP:473:CB:9207, V-B:HIS:456:CG:9034, V-A:LYS:547:CE:4947, V-B:HIS:456:C:9029, V-A:GLU:543:C:4899, V-B:VAL:457:CA:9043, V-B:HIS:456:CB:9033, V-B:HIS:456:CA:9031, V-B:VAL:458:CG2:9055, V-B:LYS:471:CE:9188, V-B:TYR:484:CZ:9315, H-B:GLU:543:OE2:9879, V-B:LYS:471:CB:9185"]

$$$$
RR25_Rahimova_2017
     RDKit          3D

 39 44  0  0  0  0  0  0  0  0999 V2000
  134.0350  124.7080   65.5320 O   0  0  0  0  0  0  0  0  0  0  0  0
  133.3360  124.9640   64.5510 C   0  0  0  0  0  0  0  0  0  0  0  0
  133.9060  124.7340   63.3230 O   0  0  0  0  0  0  0  0  0  0  0  0
  133.1510  124.7420   62.1640 C   0  0  0  0  0  0  0  0  0  0  0  0
  133.6340  123.9890   61.0960 C   0  0  0  0  0  0  0  0  0  0  0  0
  132.9280  123.9590   59.8950 C   0  0  0  0  0  0  0  0  0  0  0  0
  131.7360  124.6830   59.7430 C   0  0  0  0  0  0  0  0  0  0  0  0
  130.9820  124.6430   58.4660 N   0  0  0  0  0  0  0  0  0  0  0  0
  129.9340  124.0040   58.4220 O   0  0  0  0  0  0  0  0  0  0  0  0
  131.4330  125.2490   57.4990 O   0  0  0  0  0  0  0  0  0  0  0  0
  131.2730  125.4450   60.8280 C   0  0  0  0  0  0  0  0  0  0  0  0
  131.9730  125.4920   62.0370 C   0  0  0  0  0  0  0  0  0  0  0  0
  131.5090  126.2920   63.2410 C   0  0  0  0  0  0  0  0  0  0  0  0
  131.8890  125.5390   64.5470 C   0  0  2  0  0  0  0  0  0  0  0  0
  131.5170  126.3760   65.8050 C   0  0  0  0  0  0  0  0  0  0  0  0
  132.4480  126.6570   66.5660 O   0  0  0  0  0  0  0  0  0  0  0  0
  130.2610  126.8830   65.9970 N   0  0  0  0  0  0  0  0  0  0  0  0
  129.0670  126.3400   65.3150 C   0  0  0  0  0  0  0  0  0  0  0  0
  128.1130  127.5040   64.9720 C   0  0  0  0  0  0  0  0  0  0  0  0
  127.7800  128.2920   66.1620 N   0  0  0  0  0  0  0  0  0  0  0  0
  126.7710  129.3170   65.8640 C   0  0  0  0  0  0  0  0  0  0  0  0
  126.0660  129.0900   64.4990 C   0  0  0  0  0  0  0  0  0  0  0  0
  126.0500  130.2550   63.5670 N   0  0  0  0  0  0  0  0  0  0  0  0
  124.8710  130.9690   63.5380 C   0  0  0  0  0  0  0  0  0  0  0  0
  123.8750  130.6590   64.2020 O   0  0  0  0  0  0  0  0  0  0  0  0
  124.8930  132.1880   62.6350 C   0  0  0  0  0  0  0  0  0  0  0  0
  123.7560  133.0010   62.5500 C   0  0  0  0  0  0  0  0  0  0  0  0
  123.7440  134.1330   61.7370 C   0  0  0  0  0  0  0  0  0  0  0  0
  124.8650  134.4900   60.9890 C   0  0  0  0  0  0  0  0  0  0  0  0
  126.0370  133.6980   61.0440 C   0  0  0  0  0  0  0  0  0  0  0  0
  127.2100  134.0030   60.3130 C   0  0  0  0  0  0  0  0  0  0  0  0
  128.3310  133.1820   60.4150 C   0  0  0  0  0  0  0  0  0  0  0  0
  128.3200  132.0530   61.2320 C   0  0  0  0  0  0  0  0  0  0  0  0
  127.1820  131.7120   61.9740 C   0  0  0  0  0  0  0  0  0  0  0  0
  126.0370  132.5440   61.8760 C   0  0  0  0  0  0  0  0  0  0  0  0
  127.2120  130.4800   62.8580 C   0  0  0  0  0  0  0  0  0  0  0  0
  128.2100  129.7560   62.9400 O   0  0  0  0  0  0  0  0  0  0  0  0
  128.9970  128.8790   66.7260 C   0  0  0  0  0  0  0  0  0  0  0  0
  130.0180  127.7920   67.1390 C   0  0  0  0  0  0  0  0  0  0  0  0
  1  2  2  0
  2  3  1  0
  3  4  1  0
  4  5  2  0
  5  6  1  0
  6  7  2  0
  7  8  1  0
  8  9  2  0
  8 10  1  0
  7 11  1  0
 11 12  2  0
 12 13  1  0
 13 14  1  0
 14 15  1  1
 15 16  2  0
 15 17  1  0
 17 18  1  0
 18 19  1  0
 19 20  1  0
 20 21  1  0
 21 22  1  0
 22 23  1  0
 23 24  1  0
 24 25  2  0
 24 26  1  0
 26 27  2  0
 27 28  1  0
 28 29  2  0
 29 30  1  0
 30 31  2  0
 31 32  1  0
 32 33  2  0
 33 34  1  0
 34 35  2  0
 34 36  1  0
 36 37  2  0
 20 38  1  0
 38 39  1  0
 14  2  1  0
 39 17  1  0
 12  4  1  0
 36 23  1  0
 35 26  1  0
 35 30  1  0
M  CHG  2   8   1  10  -1
M  END
>  <Binding energies>  (77) 
[-10.04]

>  <Ligand effiencies>  (77) 
[-0.2574358974358974]

>  <Interactions>  (77) 
["V-B:GLU:543:CD:9877, V-A:ARG:545:CZ:4923, H-A:ARG:545:NH2:4925, H-A:ARG:545:NH1:4924, H-A:GLY:454:N:4046, V-B:TYR:539:CE2:9845, V-A:HIS:456:CE1:4066, V-A:GLU:543:CD:4905, V-A:GLU:543:CG:4904, V-B:GLU:543:CB:9875, V-B:HIS:456:CE1:9038, V-A:GLU:543:CB:4903, V-B:GLU:543:CG:9876, V-B:ILE:369:CD1:8207, V-B:ILE:369:CG2:8205, V-B:ARG:545:CZ:9895, V-B:TRP:381:CH2:8340, V-A:ALA:541:CB:4889, V-B:GLY:454:CA:9017, H-B:TYR:484:OH:9316, V-A:TYR:539:CD2:4871, V-B:LEU:475:CD2:9227, V-B:TYR:539:CZ:9846, V-A:ASP:366:CG:3209, V-A:ASP:366:CB:3208, H-A:ARG:545:NE:4921, H-A:TYR:484:OH:4344, H-A:HIS:456:ND1:4063, H-B:GLY:454:N:9018, H-B:TYR:539:OH:9847"]

$$$$
RR27_Rahimova_2017
     RDKit          3D

 39 44  0  0  0  0  0  0  0  0999 V2000
  129.8790  132.3280   61.2890 O   0  0  0  0  0  0  0  0  0  0  0  0
  129.0120  131.4790   61.0630 C   0  0  0  0  0  0  0  0  0  0  0  0
  127.5850  131.7090   61.6410 C   0  0  0  0  0  0  0  0  0  0  0  0
  127.0070  133.0920   61.2910 C   0  0  0  0  0  0  0  0  0  0  0  0
  125.6450  133.2750   61.0050 C   0  0  0  0  0  0  0  0  0  0  0  0
  125.1540  134.5400   60.6950 C   0  0  0  0  0  0  0  0  0  0  0  0
  126.0220  135.6280   60.6680 C   0  0  0  0  0  0  0  0  0  0  0  0
  127.3760  135.4620   60.9460 C   0  0  0  0  0  0  0  0  0  0  0  0
  127.8660  134.1970   61.2560 C   0  0  0  0  0  0  0  0  0  0  0  0
  127.5050  131.3300   63.1320 C   0  0  0  0  0  0  0  0  0  0  0  0
  127.8640  132.2320   64.1420 C   0  0  0  0  0  0  0  0  0  0  0  0
  127.7910  131.8540   65.4810 C   0  0  0  0  0  0  0  0  0  0  0  0
  127.3640  130.5710   65.8130 C   0  0  0  0  0  0  0  0  0  0  0  0
  127.0140  129.6610   64.8190 C   0  0  0  0  0  0  0  0  0  0  0  0
  127.0890  130.0390   63.4820 C   0  0  0  0  0  0  0  0  0  0  0  0
  129.2340  130.4410   60.2070 N   0  0  0  0  0  0  0  0  0  0  0  0
  128.3430  129.2760   60.0970 C   0  0  0  0  0  0  0  0  0  0  0  0
  128.8100  128.2540   61.1570 C   0  0  0  0  0  0  0  0  0  0  0  0
  130.3220  127.8880   61.0170 C   0  0  0  0  0  0  0  0  0  0  0  0
  130.8660  126.9590   62.1180 C   0  0  0  0  0  0  0  0  0  0  0  0
  132.0100  126.2750   61.8240 N   0  0  0  0  0  0  0  0  0  0  0  0
  132.5480  125.4600   62.7740 C   0  0  0  0  0  0  0  0  0  0  0  0
  133.6930  124.7270   62.5990 O   0  0  0  0  0  0  0  0  0  0  0  0
  131.9000  125.3540   64.0190 C   0  0  0  0  0  0  0  0  0  0  0  0
  132.1630  124.6550   65.1610 N   0  0  0  0  0  0  0  0  0  0  0  0
  131.1570  124.9470   66.0620 N   0  0  0  0  0  0  0  0  0  0  0  0
  130.2970  125.8150   65.4900 N   0  0  0  0  0  0  0  0  0  0  0  0
  129.1170  126.2780   66.2160 C   0  0  0  0  0  0  0  0  0  0  0  0
  129.4210  126.7850   67.6190 C   0  0  0  0  0  0  0  0  0  0  0  0
  130.4880  127.6640   67.8340 C   0  0  0  0  0  0  0  0  0  0  0  0
  130.7600  128.1380   69.1190 C   0  0  0  0  0  0  0  0  0  0  0  0
  129.9650  127.7390   70.1930 C   0  0  0  0  0  0  0  0  0  0  0  0
  128.8930  126.8700   69.9840 C   0  0  0  0  0  0  0  0  0  0  0  0
  127.8910  126.3960   71.3080 Cl  0  0  0  0  0  0  0  0  0  0  0  0
  128.6260  126.3900   68.7010 C   0  0  0  0  0  0  0  0  0  0  0  0
  130.7160  126.1010   64.2010 C   0  0  0  0  0  0  0  0  0  0  0  0
  130.1640  126.9010   63.2850 N   0  0  0  0  0  0  0  0  0  0  0  0
  131.2070  129.1510   60.7810 C   0  0  0  0  0  0  0  0  0  0  0  0
  130.5990  130.1370   59.7510 C   0  0  0  0  0  0  0  0  0  0  0  0
  1  2  2  0
  2  3  1  0
  3  4  1  0
  4  5  2  0
  5  6  1  0
  6  7  2  0
  7  8  1  0
  8  9  2  0
  3 10  1  0
 10 11  2  0
 11 12  1  0
 12 13  2  0
 13 14  1  0
 14 15  2  0
  2 16  1  0
 16 17  1  0
 17 18  1  0
 18 19  1  0
 19 20  1  0
 20 21  2  0
 21 22  1  0
 22 23  1  0
 22 24  2  0
 24 25  1  0
 25 26  2  0
 26 27  1  0
 27 28  1  0
 28 29  1  0
 29 30  2  0
 30 31  1  0
 31 32  2  0
 32 33  1  0
 33 34  1  0
 33 35  2  0
 27 36  1  0
 36 37  2  0
 19 38  1  0
 38 39  1  0
  9  4  1  0
 15 10  1  0
 39 16  1  0
 37 20  1  0
 36 24  1  0
 35 29  1  0
M  END
>  <Binding energies>  (78) 
[-9.71]

>  <Ligand effiencies>  (78) 
[-0.24275000000000002]

>  <Interactions>  (78) 
["V-B:GLU:543:CD:9877, V-A:ARG:545:CZ:4923, H-A:ARG:545:NH2:4925, H-A:ARG:545:NH1:4924, H-A:ASP:366:OD2:3211, H-A:GLY:454:N:4046, V-A:HIS:456:CE1:4066, H-A:ASP:366:OD1:3210, V-A:GLU:543:CD:4905, V-A:GLU:543:CG:4904, V-B:GLU:543:CB:9875, V-B:HIS:456:CE1:9038, V-B:GLY:544:C:9881, V-B:HIS:456:CD2:9036, V-A:GLU:543:CB:4903, V-B:GLU:543:CG:9876, V-B:ILE:369:CG2:8205, V-B:TRP:381:CH2:8340, V-A:ALA:541:CB:4889, V-A:TYR:539:CD2:4871, V-B:LEU:475:CD2:9227, V-A:ASP:366:CG:3209, V-A:ALA:541:CA:4887, H-A:ALA:541:N:4888, H-A:TYR:484:OH:4344, V-B:LYS:547:CE:9919, V-A:GLU:543:C:4899, V-B:TYR:484:CE1:9313, V-B:TYR:484:CZ:9315, V-B:TRP:381:CZ2:8338, V-A:GLY:544:C:4909, V-B:TRP:381:CZ3:8339"]

$$$$
RR28_Rahimova_2017
     RDKit          3D

 46 49  0  0  0  0  0  0  0  0999 V2000
  123.3630  130.0800   66.7190 C   0  0  0  0  0  0  0  0  0  0  0  0
  124.1640  129.9430   65.4290 C   0  0  0  0  0  0  0  0  0  0  0  0
  123.5940  129.6040   64.3940 O   0  0  0  0  0  0  0  0  0  0  0  0
  125.4830  130.2110   65.5140 N   0  0  0  0  0  0  0  0  0  0  0  0
  126.4990  130.1540   64.4390 C   0  0  0  0  0  0  0  0  0  0  0  0
  127.4130  128.9220   64.6990 C   0  0  0  0  0  0  0  0  0  0  0  0
  127.6710  128.5230   66.0200 C   0  0  0  0  0  0  0  0  0  0  0  0
  128.4870  127.4290   66.2900 C   0  0  0  0  0  0  0  0  0  0  0  0
  129.0670  126.7080   65.2440 C   0  0  0  0  0  0  0  0  0  0  0  0
  129.9640  125.5120   65.5610 C   0  0  0  0  0  0  0  0  0  0  0  0
  129.7210  125.0020   66.7700 F   0  0  0  0  0  0  0  0  0  0  0  0
  129.7810  124.5460   64.6610 F   0  0  0  0  0  0  0  0  0  0  0  0
  131.2400  125.8990   65.5220 F   0  0  0  0  0  0  0  0  0  0  0  0
  128.8200  127.0960   63.9250 C   0  0  0  0  0  0  0  0  0  0  0  0
  128.0030  128.1910   63.6560 C   0  0  0  0  0  0  0  0  0  0  0  0
  127.2810  131.5130   64.3480 C   0  0  0  0  0  0  0  0  0  0  0  0
  126.3930  132.7030   63.9030 C   0  0  0  0  0  0  0  0  0  0  0  0
  125.8420  132.3420   62.5870 N   0  0  0  0  0  0  0  0  0  0  0  0
  126.4730  132.7330   61.4460 C   0  0  0  0  0  0  0  0  0  0  0  0
  127.4140  133.5300   61.4600 O   0  0  0  0  0  0  0  0  0  0  0  0
  125.8910  132.2940   60.0810 C   0  0  0  0  0  0  0  0  0  0  0  0
  125.3490  130.8400   60.0100 C   0  0  0  0  0  0  0  0  0  0  0  0
  125.9800  129.9580   58.9070 C   0  0  0  0  0  0  0  0  0  0  0  0
  125.5130  130.0360   57.7670 O   0  0  0  0  0  0  0  0  0  0  0  0
  127.1020  129.2330   59.1800 N   0  0  0  0  0  0  0  0  0  0  0  0
  127.5070  128.8540   60.5380 C   0  0  0  0  0  0  0  0  0  0  0  0
  126.7530  127.5490   60.8760 C   0  0  0  0  0  0  0  0  0  0  0  0
  126.9930  126.3730   59.8650 C   0  0  0  0  0  0  0  0  0  0  0  0
  125.9410  125.3510   60.0530 N   0  0  0  0  0  0  0  0  0  0  0  0
  124.8310  125.1540   59.3150 C   0  0  0  0  0  0  0  0  0  0  0  0
  123.9120  124.0230   59.7640 C   0  0  0  0  0  0  0  0  0  0  0  0
  124.5320  125.8250   58.3270 O   0  0  0  0  0  0  0  0  0  0  0  0
  128.3620  125.7140   60.2310 C   0  0  0  0  0  0  0  0  0  0  0  0
  129.5530  126.0010   59.5430 C   0  0  0  0  0  0  0  0  0  0  0  0
  130.7530  125.3920   59.9010 C   0  0  0  0  0  0  0  0  0  0  0  0
  130.7920  124.4770   60.9550 C   0  0  0  0  0  0  0  0  0  0  0  0
  132.1020  123.8030   61.3620 C   0  0  0  0  0  0  0  0  0  0  0  0
  131.8910  122.5290   61.6980 F   0  0  0  0  0  0  0  0  0  0  0  0
  132.9500  123.8370   60.3340 F   0  0  0  0  0  0  0  0  0  0  0  0
  132.6790  124.4110   62.4000 F   0  0  0  0  0  0  0  0  0  0  0  0
  129.6160  124.1740   61.6420 C   0  0  0  0  0  0  0  0  0  0  0  0
  128.4190  124.7850   61.2820 C   0  0  0  0  0  0  0  0  0  0  0  0
  126.9500  126.9430   58.3940 C   0  0  0  0  0  0  0  0  0  0  0  0
  127.6470  128.3120   58.1740 C   0  0  0  0  0  0  0  0  0  0  0  0
  124.9300  131.1890   62.6330 C   0  0  0  0  0  0  0  0  0  0  0  0
  125.7710  129.9610   63.0680 C   0  0  0  0  0  0  0  0  0  0  0  0
  1  2  1  0
  2  3  2  0
  2  4  1  0
  4  5  1  0
  5  6  1  0
  6  7  2  0
  7  8  1  0
  8  9  2  0
  9 10  1  0
 10 11  1  0
 10 12  1  0
 10 13  1  0
  9 14  1  0
 14 15  2  0
  5 16  1  0
 16 17  1  0
 17 18  1  0
 18 19  1  0
 19 20  2  0
 19 21  1  0
 21 22  1  0
 22 23  1  0
 23 24  2  0
 23 25  1  0
 25 26  1  0
 26 27  1  0
 27 28  1  0
 28 29  1  0
 29 30  1  0
 30 31  1  0
 30 32  2  0
 28 33  1  0
 33 34  2  0
 34 35  1  0
 35 36  2  0
 36 37  1  0
 37 38  1  0
 37 39  1  0
 37 40  1  0
 36 41  1  0
 41 42  2  0
 28 43  1  0
 43 44  1  0
 18 45  1  0
 45 46  1  0
 46  5  1  0
 15  6  1  0
 44 25  1  0
 42 33  1  0
M  END
>  <Binding energies>  (79) 
[-8.91]

>  <Ligand effiencies>  (79) 
[-0.185625]

>  <Interactions>  (79) 
["V-A:LEU:475:CD1:4254, V-B:GLU:543:CD:9877, V-B:TYR:539:CE2:9845, V-A:HIS:456:CE1:4066, V-A:GLU:543:CD:4905, H-B:HIS:456:NE2:9039, V-A:GLU:543:CG:4904, V-A:TYR:484:CZ:4343, V-B:GLU:543:CB:9875, V-B:HIS:456:CE1:9038, V-A:TYR:484:CE1:4341, V-B:GLU:543:CG:9876, V-B:ARG:545:CZ:9895, V-B:ARG:545:CD:9892, V-B:GLY:454:CA:9017, H-B:TYR:484:OH:9316, V-B:LEU:475:CD2:9227, V-B:ASP:366:CB:8180, V-B:ASP:366:CG:8181, V-A:ASP:366:CG:3209, H-B:ARG:545:NH2:9897, H-B:GLY:454:N:9018, V-B:PRO:540:CB:9854, V-B:LEU:363:CA:8153, V-B:TYR:484:CZ:9315, V-B:GLY:453:CA:9012, V-B:GLY:453:C:9010, V-B:ARG:545:CG:9891, V-B:ILE:455:C:9020, V-B:ASN:362:C:8140, H-B:TYR:531:OH:9764, H-B:ARG:545:NH1:9896, H-B:ARG:545:NE:9893, H-B:GLU:543:OE2:9879, V-B:GLY:454:C:9015"]

$$$$
RR29_Rahimova_2017
     RDKit          3D

 18 19  0  0  0  0  0  0  0  0999 V2000
  129.3600  125.3790   65.9280 C   0  0  0  0  0  0  0  0  0  0  0  0
  129.2470  126.7630   65.3040 C   0  0  0  0  0  0  0  0  0  0  0  0
  129.2840  127.9000   66.3490 C   0  0  0  0  0  0  0  0  0  0  0  0
  130.2620  127.5860   67.5010 C   0  0  0  0  0  0  0  0  0  0  0  0
  129.5390  127.3030   68.8090 C   0  0  0  0  0  0  0  0  0  0  0  0
  128.3120  126.6110   68.8000 C   0  0  0  0  0  0  0  0  0  0  0  0
  127.6300  126.3380   69.9940 C   0  0  0  0  0  0  0  0  0  0  0  0
  128.2040  126.7870   71.1780 C   0  0  0  0  0  0  0  0  0  0  0  0
  129.3930  127.4600   71.1930 C   0  0  0  0  0  0  0  0  0  0  0  0
  130.0960  127.7350   70.0260 C   0  0  0  0  0  0  0  0  0  0  0  0
  129.7320  127.7460   72.4780 O   0  0  0  0  0  0  0  0  0  0  0  0
  128.6070  127.4150   73.2490 C   0  0  0  0  0  0  0  0  0  0  0  0
  127.7610  126.6280   72.4540 O   0  0  0  0  0  0  0  0  0  0  0  0
  129.1280  126.8540   64.0320 N   0  0  0  0  0  0  0  0  0  0  0  0
  128.9400  128.0990   63.4720 N   0  0  0  0  0  0  0  0  0  0  0  0
  127.8740  128.4360   62.7280 C   0  0  0  0  0  0  0  0  0  0  0  0
  126.8530  127.6250   62.4480 N   0  0  0  0  0  0  0  0  0  0  0  0
  127.8290  129.6650   62.2350 N   0  0  0  0  0  0  0  0  0  0  0  0
  1  2  1  0
  2  3  1  0
  3  4  1  0
  4  5  1  0
  5  6  2  0
  6  7  1  0
  7  8  2  0
  8  9  1  0
  9 10  2  0
  9 11  1  0
 11 12  1  0
 12 13  1  0
  2 14  2  0
 14 15  1  0
 15 16  1  0
 16 17  1  0
 16 18  2  0
 10  5  1  0
 13  8  1  0
M  CHG  1  18   1
M  END
>  <Binding energies>  (80) 
[-7.3]

>  <Ligand effiencies>  (80) 
[-0.3173913043478261]

>  <Interactions>  (80) 
["V-B:GLU:543:CD:9877, H-A:GLU:543:OE1:4906, H-A:GLU:543:OE2:4907, V-A:HIS:456:CE1:4066, V-A:GLU:543:CD:4905, V-A:GLU:543:CG:4904, V-B:GLU:543:C:9871, V-B:GLU:543:CB:9875, V-B:HIS:456:CE1:9038, V-B:GLY:544:C:9881, V-B:HIS:456:CD2:9036, V-A:GLU:543:CB:4903, V-B:GLU:543:CG:9876, H-B:ASP:366:OD1:8182, H-B:GLU:543:OE1:9878, V-B:LYS:547:CE:9919, H-A:LYS:547:NZ:4948, H-B:GLU:543:OE2:9879"]

$$$$
RR30_Rahimova_2017
     RDKit          3D

 18 19  0  0  0  0  0  0  0  0999 V2000
  134.9280  125.0920   66.2050 C   0  0  0  0  0  0  0  0  0  0  0  0
  133.5610  125.5180   65.6510 C   0  0  0  0  0  0  0  0  0  0  0  0
  133.1010  124.6320   64.5140 C   0  0  0  0  0  0  0  0  0  0  0  0
  133.7080  124.3930   63.3780 N   0  0  0  0  0  0  0  0  0  0  0  0
  132.8750  123.5250   62.6760 N   0  0  0  0  0  0  0  0  0  0  0  0
  131.8340  123.3230   63.4420 C   0  0  0  0  0  0  0  0  0  0  0  0
  130.4350  122.3020   63.1100 S   0  0  0  0  0  0  0  0  0  0  0  0
  130.3550  122.4620   61.2970 C   0  0  0  0  0  0  0  0  0  0  0  0
  128.9170  122.4110   60.7750 C   0  0  0  0  0  0  0  0  0  0  0  0
  128.6330  121.6240   59.8700 O   0  0  0  0  0  0  0  0  0  0  0  0
  128.0520  123.2830   61.3390 N   0  0  0  0  0  0  0  0  0  0  0  0
  126.7070  123.4260   61.0320 C   0  0  0  0  0  0  0  0  0  0  0  0
  125.6730  122.8800   61.6310 N   0  0  0  0  0  0  0  0  0  0  0  0
  124.4680  123.2490   61.0460 N   0  0  0  0  0  0  0  0  0  0  0  0
  124.6130  124.0600   60.0240 C   0  0  0  0  0  0  0  0  0  0  0  0
  123.4500  124.5970   59.2220 C   0  0  0  0  0  0  0  0  0  0  0  0
  126.2800  124.4460   59.6940 S   0  0  0  0  0  0  0  0  0  0  0  0
  131.9120  123.9890   64.6230 O   0  0  0  0  0  0  0  0  0  0  0  0
  1  2  1  0
  2  3  1  0
  3  4  2  0
  4  5  1  0
  5  6  2  0
  6  7  1  0
  7  8  1  0
  8  9  1  0
  9 10  2  0
  9 11  1  0
 11 12  1  0
 12 13  2  0
 13 14  1  0
 14 15  2  0
 15 16  1  0
 15 17  1  0
  6 18  1  0
 18  3  1  0
 17 12  1  0
M  END
>  <Binding energies>  (81) 
[-6.42]

>  <Ligand effiencies>  (81) 
[-0.33789473684210525]

>  <Interactions>  (81) 
["V-B:GLU:543:CD:9877, V-A:ARG:545:CZ:4923, H-A:GLY:454:N:4046, V-A:ARG:545:CG:4919, V-A:GLY:454:CA:4045, V-B:TYR:539:CE2:9845, V-A:HIS:456:CE1:4066, V-A:GLY:454:C:4043, H-B:ALA:541:N:9860, V-B:ASP:366:CB:8180, V-B:ALA:541:CB:9861, H-A:TYR:484:OH:4344, V-A:ARG:545:CD:4920, V-A:GLY:453:C:4038, V-B:LEU:363:CD1:8157, V-B:PRO:540:CB:9854, V-B:LEU:363:CA:8153, V-B:PRO:540:CA:9852, V-A:ILE:455:C:4048, V-A:GLY:453:CA:4040, V-B:LEU:363:CB:8155, V-B:ASN:362:C:8140, H-B:GLU:543:OE2:9879"]

$$$$
RR31_Rahimova_2017
     RDKit          3D

 18 19  0  0  0  0  0  0  0  0999 V2000
  127.9020  127.0800   71.8470 C   0  0  0  0  0  0  0  0  0  0  0  0
  128.4050  126.9670   70.4140 C   0  0  0  0  0  0  0  0  0  0  0  0
  127.5940  126.3610   69.4540 C   0  0  0  0  0  0  0  0  0  0  0  0
  128.0230  126.2450   68.1340 C   0  0  0  0  0  0  0  0  0  0  0  0
  129.2740  126.7400   67.7310 C   0  0  0  0  0  0  0  0  0  0  0  0
  129.7230  126.6230   66.4140 N   0  0  0  0  0  0  0  0  0  0  0  0
  128.9980  127.2340   65.2830 C   0  0  0  0  0  0  0  0  0  0  0  0
  129.3940  126.6680   63.8990 C   0  0  0  0  0  0  0  0  0  0  0  0
  130.8370  126.7880   63.6780 N   0  0  0  0  0  0  0  0  0  0  0  0
  131.2390  126.2910   62.3590 C   0  0  0  0  0  0  0  0  0  0  0  0
  130.0990  126.3430   61.3220 C   0  0  0  0  0  0  0  0  0  0  0  0
  129.9290  127.7430   60.7120 C   0  0  0  0  0  0  0  0  0  0  0  0
  130.9000  128.7250   61.3750 N   0  0  0  0  0  0  0  0  0  0  0  0
  131.5060  126.0110   64.7220 C   0  0  0  0  0  0  0  0  0  0  0  0
  131.1700  126.5700   66.1230 C   0  0  0  0  0  0  0  0  0  0  0  0
  130.0830  127.3400   68.7080 C   0  0  0  0  0  0  0  0  0  0  0  0
  129.6640  127.4610   70.0380 C   0  0  0  0  0  0  0  0  0  0  0  0
  130.5910  128.1200   71.0520 C   0  0  0  0  0  0  0  0  0  0  0  0
  1  2  1  0
  2  3  2  0
  3  4  1  0
  4  5  2  0
  5  6  1  0
  6  7  1  0
  7  8  1  0
  8  9  1  0
  9 10  1  0
 10 11  1  0
 11 12  1  0
 12 13  1  0
  9 14  1  0
 14 15  1  0
  5 16  1  0
 16 17  2  0
 17 18  1  0
 17  2  1  0
 15  6  1  0
M  CHG  1  13   1
M  END
>  <Binding energies>  (82) 
[-6.69]

>  <Ligand effiencies>  (82) 
[-0.3185714285714286]

>  <Interactions>  (82) 
["V-B:GLU:543:CD:9877, H-A:GLU:543:OE1:4906, V-A:ARG:545:CZ:4923, H-A:ARG:545:NH2:4925, H-A:GLU:543:OE2:4907, V-A:HIS:456:CE1:4066, H-A:ASP:366:OD1:3210, V-A:GLU:543:CD:4905, V-B:GLU:543:C:9871, V-B:GLU:543:CB:9875, V-B:HIS:456:CE1:9038, V-B:GLY:544:C:9881, V-B:HIS:456:CD2:9036, V-B:LYS:547:CE:9919, V-A:GLU:543:C:4899, V-A:GLY:544:C:4909"]

$$$$
RR32_Rahimova_2017
     RDKit          3D

 18 20  0  0  0  0  0  0  0  0999 V2000
  125.7200  129.0140   74.9240 C   0  0  0  0  0  0  0  0  0  0  0  0
  127.0430  128.9910   74.1660 C   0  0  0  0  0  0  0  0  0  0  0  0
  127.6030  127.7510   73.8540 C   0  0  0  0  0  0  0  0  0  0  0  0
  128.8080  127.6910   73.1600 C   0  0  0  0  0  0  0  0  0  0  0  0
  129.3600  126.4600   72.8530 N   0  0  0  0  0  0  0  0  0  0  0  0
  129.8550  125.6420   73.9750 C   0  0  0  0  0  0  0  0  0  0  0  0
  130.6140  124.3730   73.5180 C   0  0  0  0  0  0  0  0  0  0  0  0
  129.7500  123.5420   72.6800 N   0  0  0  0  0  0  0  0  0  0  0  0
  130.4550  122.3310   72.2750 C   0  0  0  0  0  0  0  0  0  0  0  0
  129.3720  124.3250   71.5050 C   0  0  0  0  0  0  0  0  0  0  0  0
  128.5980  125.5940   71.9320 C   0  0  0  0  0  0  0  0  0  0  0  0
  129.4820  128.8020   72.7660 N   0  0  0  0  0  0  0  0  0  0  0  0
  128.9630  130.0260   73.0590 C   0  0  0  0  0  0  0  0  0  0  0  0
  129.6890  131.1670   72.6380 C   0  0  0  0  0  0  0  0  0  0  0  0
  129.2070  132.4420   72.9090 C   0  0  0  0  0  0  0  0  0  0  0  0
  128.0100  132.6130   73.5940 C   0  0  0  0  0  0  0  0  0  0  0  0
  127.2720  131.5120   74.0220 C   0  0  0  0  0  0  0  0  0  0  0  0
  127.7280  130.1860   73.7670 C   0  0  0  0  0  0  0  0  0  0  0  0
  1  2  1  0
  2  3  2  0
  3  4  1  0
  4  5  1  0
  5  6  1  0
  6  7  1  0
  7  8  1  0
  8  9  1  0
  8 10  1  0
 10 11  1  0
  4 12  2  0
 12 13  1  0
 13 14  2  0
 14 15  1  0
 15 16  2  0
 16 17  1  0
 17 18  2  0
 18  2  1  0
 11  5  1  0
 18 13  1  0
M  END
>  <Binding energies>  (83) 
[-5.72]

>  <Ligand effiencies>  (83) 
[-0.31777777777777777]

>  <Interactions>  (83) 
["V-B:GLU:543:C:9871, V-A:HIS:456:CD2:4064, V-B:HIS:456:CD2:9036, V-B:LYS:547:CE:9919, V-B:ASP:473:CG:9208, V-B:HIS:456:CG:9034, V-A:LYS:547:CE:4947, V-A:GLU:543:C:4899, V-B:HIS:456:CB:9033, V-B:VAL:458:CG2:9055, H-A:LYS:547:NZ:4948, H-B:LYS:547:NZ:9920, V-A:GLY:544:CA:4911, V-A:TYR:484:CD2:4340, V-A:TYR:484:CD1:4339, V-A:TYR:484:CG:4338, V-A:TYR:484:CB:4337, V-A:TYR:484:CE2:4342"]

$$$$
RR5_Rahimova_2017
     RDKit          3D

 45 50  0  0  0  0  0  0  0  0999 V2000
  128.2200  131.7140   57.8080 O   0  0  0  0  0  0  0  0  0  0  0  0
  128.8320  131.4310   58.8380 C   0  0  0  0  0  0  0  0  0  0  0  0
  130.3010  130.9770   58.7520 C   0  0  0  0  0  0  0  0  0  0  0  0
  130.8860  130.4440   60.1080 C   0  0  2  0  0  0  0  0  0  0  0  0
  129.9480  129.6410   60.9180 N   0  0  0  0  0  0  0  0  0  0  0  0
  129.4210  128.4450   60.4480 C   0  0  0  0  0  0  0  0  0  0  0  0
  129.6830  127.8960   59.3750 O   0  0  0  0  0  0  0  0  0  0  0  0
  128.5500  127.9790   61.3600 O   0  0  0  0  0  0  0  0  0  0  0  0
  128.8400  126.8230   62.1410 C   0  0  0  0  0  0  0  0  0  0  0  0
  130.0160  127.0950   63.1060 C   0  0  0  0  0  0  0  0  0  0  0  0
  129.6320  127.0100   64.5730 C   0  0  0  0  0  0  0  0  0  0  0  0
  128.6650  127.7280   65.2820 C   0  0  0  0  0  0  0  0  0  0  0  0
  128.4610  127.4680   66.6380 C   0  0  0  0  0  0  0  0  0  0  0  0
  129.2220  126.4940   67.2870 C   0  0  0  0  0  0  0  0  0  0  0  0
  130.1910  125.7770   66.5820 C   0  0  0  0  0  0  0  0  0  0  0  0
  130.3920  126.0390   65.2260 C   0  0  0  0  0  0  0  0  0  0  0  0
  131.3310  125.4530   64.2560 C   0  0  0  0  0  0  0  0  0  0  0  0
  132.3070  124.4650   64.4030 C   0  0  0  0  0  0  0  0  0  0  0  0
  133.0920  124.1020   63.3070 C   0  0  0  0  0  0  0  0  0  0  0  0
  132.9000  124.7220   62.0710 C   0  0  0  0  0  0  0  0  0  0  0  0
  131.9210  125.7060   61.9280 C   0  0  0  0  0  0  0  0  0  0  0  0
  131.1310  126.0700   63.0200 C   0  0  0  0  0  0  0  0  0  0  0  0
  131.4450  131.6090   60.9620 C   0  0  0  0  0  0  0  0  0  0  0  0
  132.6120  131.9450   60.9940 O   0  0  0  0  0  0  0  0  0  0  0  0
  130.4270  132.2050   61.6490 O   0  0  0  0  0  0  0  0  0  0  0  0
  128.3210  131.5160   60.0860 N   0  0  0  0  0  0  0  0  0  0  0  0
  126.9830  131.9040   60.6250 C   0  0  0  0  0  0  0  0  0  0  0  0
  126.0190  131.4050   59.4960 C   0  0  0  0  0  0  0  0  0  0  0  0
  125.0170  132.2360   58.9680 C   0  0  0  0  0  0  0  0  0  0  0  0
  124.1660  131.7820   57.9630 C   0  0  0  0  0  0  0  0  0  0  0  0
  124.2970  130.4860   57.4770 C   0  0  0  0  0  0  0  0  0  0  0  0
  125.2810  129.6420   57.9800 C   0  0  0  0  0  0  0  0  0  0  0  0
  126.1370  130.1000   58.9770 C   0  0  0  0  0  0  0  0  0  0  0  0
  126.7810  131.1340   61.9730 C   0  0  0  0  0  0  0  0  0  0  0  0
  125.7900  130.1500   62.1190 C   0  0  0  0  0  0  0  0  0  0  0  0
  125.6150  129.4910   63.3340 C   0  0  0  0  0  0  0  0  0  0  0  0
  126.4270  129.8090   64.4170 C   0  0  0  0  0  0  0  0  0  0  0  0
  127.4170  130.7770   64.2960 C   0  0  0  0  0  0  0  0  0  0  0  0
  127.5970  131.4280   63.0800 C   0  0  0  0  0  0  0  0  0  0  0  0
  127.0040  133.4640   60.7610 C   0  0  0  0  0  0  0  0  0  0  0  0
  128.2190  134.1640   60.8720 C   0  0  0  0  0  0  0  0  0  0  0  0
  128.2440  135.5500   61.0010 C   0  0  0  0  0  0  0  0  0  0  0  0
  127.0510  136.2630   61.0170 C   0  0  0  0  0  0  0  0  0  0  0  0
  125.8360  135.6010   60.8950 C   0  0  0  0  0  0  0  0  0  0  0  0
  125.8150  134.2150   60.7660 C   0  0  0  0  0  0  0  0  0  0  0  0
  1  2  2  0
  2  3  1  0
  4  3  1  6
  4  5  1  0
  5  6  1  0
  6  7  2  0
  6  8  1  0
  8  9  1  0
  9 10  1  0
 10 11  1  0
 11 12  2  0
 12 13  1  0
 13 14  2  0
 14 15  1  0
 15 16  2  0
 16 17  1  0
 17 18  2  0
 18 19  1  0
 19 20  2  0
 20 21  1  0
 21 22  2  0
  4 23  1  0
 23 24  2  0
 23 25  1  0
  2 26  1  0
 26 27  1  0
 27 28  1  0
 28 29  2  0
 29 30  1  0
 30 31  2  0
 31 32  1  0
 32 33  2  0
 27 34  1  0
 34 35  2  0
 35 36  1  0
 36 37  2  0
 37 38  1  0
 38 39  2  0
 27 40  1  0
 40 41  2  0
 41 42  1  0
 42 43  2  0
 43 44  1  0
 44 45  2  0
 22 10  1  0
 33 28  1  0
 39 34  1  0
 45 40  1  0
 16 11  1  0
 22 17  1  0
M  END
>  <Binding energies>  (84) 
[-10.5]

>  <Ligand effiencies>  (84) 
[-0.21875]

>  <Interactions>  (84) 
["V-B:GLU:543:CD:9877, H-A:GLU:543:OE2:4907, V-A:GLY:454:CA:4045, V-A:HIS:456:CE1:4066, V-A:GLU:543:CD:4905, V-A:GLU:543:CG:4904, V-B:GLU:543:CB:9875, V-B:HIS:456:CE1:9038, V-B:ILE:369:CG2:8205, V-B:ARG:545:CZ:9895, V-B:TRP:381:CH2:8340, V-A:ALA:541:CB:4889, V-A:TYR:539:CE2:4873, V-A:TYR:539:CD2:4871, V-B:LEU:475:CD2:9227, V-B:ASP:366:CB:8180, V-B:ASP:366:CG:8181, V-A:ASP:366:CG:3209, V-A:ALA:541:CA:4887, V-A:PRO:540:CA:4880, V-A:PRO:540:CB:4882, H-A:ALA:541:N:4888, V-A:TYR:539:C:4864, V-B:TRP:381:CZ2:8338, V-B:PRO:482:CG:9295, V-B:PRO:482:CB:9294, V-B:ASP:366:C:8176, V-A:TYR:539:CZ:4874, V-B:ASP:366:CA:8178, V-B:TRP:381:CZ3:8339, V-B:ILE:369:CB:8204, V-A:PRO:540:C:4878, V-B:TYR:531:CZ:9763"]

$$$$
