1a_Ghoteimi_2023
     RDKit          3D

 40 43  0  0  0  0  0  0  0  0999 V2000
  125.4210  128.2340   74.6770 C   0  0  0  0  0  0  0  0  0  0  0  0
  126.1790  127.7190   73.4500 C   0  0  0  0  0  0  0  0  0  0  0  0
  127.5130  128.2130   73.4780 O   0  0  0  0  0  0  0  0  0  0  0  0
  128.5530  127.4480   73.0590 C   0  0  0  0  0  0  0  0  0  0  0  0
  129.3620  126.9200   73.8280 O   0  0  0  0  0  0  0  0  0  0  0  0
  128.6200  127.3050   71.5660 C   0  0  0  0  0  0  0  0  0  0  0  0
  129.6440  127.8930   70.8090 C   0  0  0  0  0  0  0  0  0  0  0  0
  129.6780  127.7450   69.4250 C   0  0  0  0  0  0  0  0  0  0  0  0
  128.6850  126.9990   68.7710 C   0  0  0  0  0  0  0  0  0  0  0  0
  128.6180  126.7900   67.3800 N   0  0  0  0  0  0  0  0  0  0  0  0
  129.5890  126.8760   66.4450 C   0  0  0  0  0  0  0  0  0  0  0  0
  130.7680  127.1540   66.6600 O   0  0  0  0  0  0  0  0  0  0  0  0
  129.1460  126.5910   65.0100 C   0  0  0  0  0  0  0  0  0  0  0  0
  130.4510  126.9890   63.8110 S   0  0  0  0  0  0  0  0  0  0  0  0
  130.4520  125.6660   62.6220 C   0  0  0  0  0  0  0  0  0  0  0  0
  129.3810  125.6720   61.7930 N   0  0  0  0  0  0  0  0  0  0  0  0
  129.2640  124.7160   60.8340 C   0  0  0  0  0  0  0  0  0  0  0  0
  128.0600  124.8030   59.9410 C   0  0  0  0  0  0  0  0  0  0  0  0
  127.0730  125.7830   60.1400 C   0  0  0  0  0  0  0  0  0  0  0  0
  125.9590  125.8610   59.3100 C   0  0  0  0  0  0  0  0  0  0  0  0
  125.7930  124.9640   58.2590 C   0  0  0  0  0  0  0  0  0  0  0  0
  124.6580  125.1180   57.4850 O   0  0  0  0  0  0  0  0  0  0  0  0
  123.3860  125.1700   58.1220 C   0  0  0  0  0  0  0  0  0  0  0  0
  126.7660  123.9770   58.0500 C   0  0  0  0  0  0  0  0  0  0  0  0
  127.8790  123.9010   58.8810 C   0  0  0  0  0  0  0  0  0  0  0  0
  130.2410  123.7220   60.6970 C   0  0  0  0  0  0  0  0  0  0  0  0
  131.3440  123.6800   61.5590 C   0  0  0  0  0  0  0  0  0  0  0  0
  132.3300  122.5730   61.3730 C   0  0  0  0  0  0  0  0  0  0  0  0
  131.9060  121.2420   61.2920 C   0  0  0  0  0  0  0  0  0  0  0  0
  132.8290  120.2170   61.1050 C   0  0  0  0  0  0  0  0  0  0  0  0
  134.1900  120.5000   60.9870 C   0  0  0  0  0  0  0  0  0  0  0  0
  135.0300  119.4200   60.8020 O   0  0  0  0  0  0  0  0  0  0  0  0
  134.4780  118.1730   60.3950 C   0  0  0  0  0  0  0  0  0  0  0  0
  134.6170  121.8350   61.0590 C   0  0  0  0  0  0  0  0  0  0  0  0
  133.6930  122.8590   61.2480 C   0  0  0  0  0  0  0  0  0  0  0  0
  131.4620  124.6830   62.5520 C   0  0  0  0  0  0  0  0  0  0  0  0
  132.6030  124.7000   63.4730 C   0  0  0  0  0  0  0  0  0  0  0  0
  133.5030  124.7140   64.2000 N   0  0  0  0  0  0  0  0  0  0  0  0
  127.6630  126.4170   69.5210 C   0  0  0  0  0  0  0  0  0  0  0  0
  127.6300  126.5660   70.9050 C   0  0  0  0  0  0  0  0  0  0  0  0
  1  2  1  0
  2  3  1  0
  3  4  1  0
  4  5  2  0
  4  6  1  0
  6  7  2  0
  7  8  1  0
  8  9  2  0
  9 10  1  0
 10 11  1  0
 11 12  2  0
 11 13  1  0
 13 14  1  0
 14 15  1  0
 15 16  2  0
 16 17  1  0
 17 18  1  0
 18 19  2  0
 19 20  1  0
 20 21  2  0
 21 22  1  0
 22 23  1  0
 21 24  1  0
 24 25  2  0
 17 26  2  0
 26 27  1  0
 27 28  1  0
 28 29  2  0
 29 30  1  0
 30 31  2  0
 31 32  1  0
 32 33  1  0
 31 34  1  0
 34 35  2  0
 27 36  2  0
 36 37  1  0
 37 38  3  0
  9 39  1  0
 39 40  2  0
 40  6  1  0
 36 15  1  0
 25 18  1  0
 35 28  1  0
M  END
>  <Binding energies>  (1) 
[-8.86]

>  <Ligand effiencies>  (1) 
[-0.21609756097560975]

>  <Interactions>  (1) 
["V-A:LEU:475:CD1:4254, V-B:GLU:543:CD:9877, V-A:ARG:545:CZ:4923, V-A:ILE:369:CB:3232, H-A:ARG:545:NH2:4925, H-A:GLY:454:N:4046, V-A:ILE:369:CG1:3234, V-A:ILE:369:CG2:3233, V-A:GLY:454:CA:4045, V-B:TYR:539:CE2:9845, V-A:HIS:456:CE1:4066, V-B:GLU:543:C:9871, V-B:GLU:543:CB:9875, V-B:HIS:456:CE1:9038, V-B:GLY:544:C:9881, V-B:HIS:456:CD2:9036, V-B:GLU:543:CG:9876, V-B:ASP:366:CB:8180, V-B:TYR:539:CD2:9843, H-A:TYR:484:OH:4344, H-B:GLU:543:OE1:9878, V-B:LYS:547:CE:9919, V-B:HIS:456:CG:9034, V-B:HIS:456:CB:9033, V-B:LYS:547:CD:9918, V-B:VAL:458:CG2:9055, H-A:LYS:547:NZ:4948, V-B:LEU:363:CD1:8157, V-B:LEU:363:CA:8153, V-A:ILE:369:CD1:3235, H-B:TYR:531:OH:9764, V-B:TYR:531:CE2:9762, V-A:SER:385:C:3401, V-A:TRP:381:CH2:3368, V-A:SER:385:CA:3403, V-A:TRP:381:CZ2:3366"]

$$$$
1b_Ghoteimi_2023
     RDKit          3D

 34 37  0  0  0  0  0  0  0  0999 V2000
  128.6260  127.3900   74.0590 C   0  0  0  0  0  0  0  0  0  0  0  0
  129.7250  127.0180   73.2350 O   0  0  0  0  0  0  0  0  0  0  0  0
  129.5990  127.1120   71.8620 C   0  0  0  0  0  0  0  0  0  0  0  0
  128.4600  126.5400   71.2990 C   0  0  0  0  0  0  0  0  0  0  0  0
  128.2490  126.5850   69.9240 C   0  0  0  0  0  0  0  0  0  0  0  0
  129.1700  127.2080   69.0690 C   0  0  0  0  0  0  0  0  0  0  0  0
  128.9400  127.2530   67.5840 C   0  0  0  0  0  0  0  0  0  0  0  0
  128.0260  128.1230   66.9820 C   0  0  0  0  0  0  0  0  0  0  0  0
  127.8510  128.1270   65.5920 C   0  0  0  0  0  0  0  0  0  0  0  0
  126.8540  129.0800   65.0190 C   0  0  0  0  0  0  0  0  0  0  0  0
  127.2760  130.1540   64.2310 C   0  0  0  0  0  0  0  0  0  0  0  0
  126.3510  131.0490   63.7010 C   0  0  0  0  0  0  0  0  0  0  0  0
  124.9870  130.8910   63.9510 C   0  0  0  0  0  0  0  0  0  0  0  0
  124.1430  131.8270   63.3850 O   0  0  0  0  0  0  0  0  0  0  0  0
  123.7990  131.7080   62.0090 C   0  0  0  0  0  0  0  0  0  0  0  0
  124.5600  129.8180   64.7480 C   0  0  0  0  0  0  0  0  0  0  0  0
  125.4880  128.9250   65.2770 C   0  0  0  0  0  0  0  0  0  0  0  0
  128.6320  127.2400   64.8120 C   0  0  0  0  0  0  0  0  0  0  0  0
  128.5570  127.2730   63.3480 C   0  0  0  0  0  0  0  0  0  0  0  0
  128.4970  127.3000   62.1920 N   0  0  0  0  0  0  0  0  0  0  0  0
  129.5220  126.3730   65.4850 C   0  0  0  0  0  0  0  0  0  0  0  0
  130.5720  125.1880   64.6700 S   0  0  0  0  0  0  0  0  0  0  0  0
  132.2930  125.5200   65.1790 C   0  0  0  0  0  0  0  0  0  0  0  0
  133.3650  125.0790   64.1710 C   0  0  0  0  0  0  0  0  0  0  0  0
  134.5630  125.1660   64.4480 O   0  0  0  0  0  0  0  0  0  0  0  0
  132.8780  124.6090   63.0010 N   0  0  0  0  0  0  0  0  0  0  0  0
  133.6080  124.1430   61.9140 C   0  0  0  0  0  0  0  0  0  0  0  0
  133.0190  123.7590   60.7100 C   0  0  0  0  0  0  0  0  0  0  0  0
  134.0670  123.3660   59.9080 C   0  0  0  0  0  0  0  0  0  0  0  0
  135.2270  123.5090   60.5930 O   0  0  0  0  0  0  0  0  0  0  0  0
  134.9230  124.0020   61.8630 N   0  0  0  0  0  0  0  0  0  0  0  0
  129.6800  126.3990   66.8300 N   0  0  0  0  0  0  0  0  0  0  0  0
  130.3150  127.7790   69.6470 C   0  0  0  0  0  0  0  0  0  0  0  0
  130.5300  127.7350   71.0210 C   0  0  0  0  0  0  0  0  0  0  0  0
  1  2  1  0
  2  3  1  0
  3  4  2  0
  4  5  1  0
  5  6  2  0
  6  7  1  0
  7  8  2  0
  8  9  1  0
  9 10  1  0
 10 11  2  0
 11 12  1  0
 12 13  2  0
 13 14  1  0
 14 15  1  0
 13 16  1  0
 16 17  2  0
  9 18  2  0
 18 19  1  0
 19 20  3  0
 18 21  1  0
 21 22  1  0
 22 23  1  0
 23 24  1  0
 24 25  2  0
 24 26  1  0
 26 27  1  0
 27 28  1  0
 28 29  2  0
 29 30  1  0
 30 31  1  0
 21 32  2  0
  6 33  1  0
 33 34  2  0
 34  3  1  0
 32  7  1  0
 17 10  1  0
 31 27  2  0
M  END
>  <Binding energies>  (2) 
[-9.66]

>  <Ligand effiencies>  (2) 
[-0.276]

>  <Interactions>  (2) 
["V-B:GLU:543:CD:9877, V-A:ARG:545:CZ:4923, V-A:ILE:369:CB:3232, H-A:ARG:545:NH2:4925, H-A:ARG:545:NH1:4924, H-A:GLY:454:N:4046, V-A:ILE:369:CG1:3234, V-A:ILE:369:CG2:3233, V-A:HIS:456:CE1:4066, V-A:GLU:543:CD:4905, V-B:HIS:456:CE1:9038, V-A:HIS:456:CD2:4064, V-B:HIS:456:CD2:9036, V-B:ILE:369:CD1:8207, V-B:ARG:545:CZ:9895, V-B:ASP:366:CG:8181, V-A:ASP:366:CG:3209, V-A:ASP:366:CB:3208, H-A:ARG:545:NE:4921, V-B:LYS:547:CE:9919, V-A:LYS:547:CE:4947, V-A:GLU:543:C:4899, H-A:LYS:547:NZ:4948, H-B:GLY:454:N:9018, V-A:GLY:544:C:4909, V-A:ASP:366:CA:3206"]

$$$$
1c_Ghoteimi_2023
     RDKit          3D

 34 37  0  0  0  0  0  0  0  0999 V2000
  128.6440  127.3470   74.1400 C   0  0  0  0  0  0  0  0  0  0  0  0
  129.6730  127.0160   73.2130 O   0  0  0  0  0  0  0  0  0  0  0  0
  129.3990  127.0540   71.8590 C   0  0  0  0  0  0  0  0  0  0  0  0
  130.3230  127.7120   71.0520 C   0  0  0  0  0  0  0  0  0  0  0  0
  130.1260  127.8010   69.6770 C   0  0  0  0  0  0  0  0  0  0  0  0
  128.9960  127.2340   69.0670 C   0  0  0  0  0  0  0  0  0  0  0  0
  128.7770  127.3320   67.5850 C   0  0  0  0  0  0  0  0  0  0  0  0
  127.9540  128.3030   67.0040 C   0  0  0  0  0  0  0  0  0  0  0  0
  127.8020  128.3720   65.6140 C   0  0  0  0  0  0  0  0  0  0  0  0
  126.9620  129.4750   65.0600 C   0  0  0  0  0  0  0  0  0  0  0  0
  125.6390  129.2370   64.6750 C   0  0  0  0  0  0  0  0  0  0  0  0
  124.8650  130.2610   64.1390 C   0  0  0  0  0  0  0  0  0  0  0  0
  125.3980  131.5390   63.9730 C   0  0  0  0  0  0  0  0  0  0  0  0
  124.5560  132.4930   63.4330 O   0  0  0  0  0  0  0  0  0  0  0  0
  124.1190  132.3510   62.0850 C   0  0  0  0  0  0  0  0  0  0  0  0
  126.7270  131.7800   64.3520 C   0  0  0  0  0  0  0  0  0  0  0  0
  127.5000  130.7540   64.8880 C   0  0  0  0  0  0  0  0  0  0  0  0
  128.4760  127.4190   64.8150 C   0  0  0  0  0  0  0  0  0  0  0  0
  128.3310  127.4170   63.3550 C   0  0  0  0  0  0  0  0  0  0  0  0
  128.2170  127.4170   62.2040 N   0  0  0  0  0  0  0  0  0  0  0  0
  129.3040  126.4790   65.4640 C   0  0  0  0  0  0  0  0  0  0  0  0
  130.3390  125.3360   64.5770 S   0  0  0  0  0  0  0  0  0  0  0  0
  131.9900  125.5230   65.3280 C   0  0  0  0  0  0  0  0  0  0  0  0
  133.1120  125.1220   64.3640 C   0  0  0  0  0  0  0  0  0  0  0  0
  134.2730  125.0670   64.7720 O   0  0  0  0  0  0  0  0  0  0  0  0
  132.7110  124.8100   63.1120 N   0  0  0  0  0  0  0  0  0  0  0  0
  133.4940  124.2740   62.1010 C   0  0  0  0  0  0  0  0  0  0  0  0
  134.7840  124.0190   62.1280 N   0  0  0  0  0  0  0  0  0  0  0  0
  135.1920  123.4710   61.0000 C   0  0  0  0  0  0  0  0  0  0  0  0
  134.2180  123.2670   60.0270 C   0  0  0  0  0  0  0  0  0  0  0  0
  132.6880  123.8310   60.6310 S   0  0  0  0  0  0  0  0  0  0  0  0
  129.4550  126.4450   66.8100 N   0  0  0  0  0  0  0  0  0  0  0  0
  128.0750  126.5680   69.8890 C   0  0  0  0  0  0  0  0  0  0  0  0
  128.2670  126.4780   71.2640 C   0  0  0  0  0  0  0  0  0  0  0  0
  1  2  1  0
  2  3  1  0
  3  4  2  0
  4  5  1  0
  5  6  2  0
  6  7  1  0
  7  8  2  0
  8  9  1  0
  9 10  1  0
 10 11  2  0
 11 12  1  0
 12 13  2  0
 13 14  1  0
 14 15  1  0
 13 16  1  0
 16 17  2  0
  9 18  2  0
 18 19  1  0
 19 20  3  0
 18 21  1  0
 21 22  1  0
 22 23  1  0
 23 24  1  0
 24 25  2  0
 24 26  1  0
 26 27  1  0
 27 28  2  0
 28 29  1  0
 29 30  2  0
 30 31  1  0
 21 32  2  0
  6 33  1  0
 33 34  2  0
 34  3  1  0
 32  7  1  0
 17 10  1  0
 31 27  1  0
M  END
>  <Binding energies>  (3) 
[-9.52]

>  <Ligand effiencies>  (3) 
[-0.27199999999999996]

>  <Interactions>  (3) 
["V-B:GLU:543:CD:9877, V-A:ARG:545:CZ:4923, V-A:ILE:369:CB:3232, H-A:ARG:545:NH1:4924, H-A:GLY:454:N:4046, V-A:ILE:369:CG1:3234, V-A:ILE:369:CG2:3233, V-A:HIS:456:CE1:4066, V-A:GLU:543:CD:4905, V-A:GLU:543:CG:4904, V-B:HIS:456:CE1:9038, V-A:HIS:456:CD2:4064, V-B:HIS:456:CD2:9036, V-B:GLU:543:CG:9876, V-B:ILE:369:CD1:8207, V-B:ARG:545:CZ:9895, V-A:ASP:366:CG:3209, H-A:ARG:545:NE:4921, V-B:LYS:547:CE:9919, V-A:LYS:547:CE:4947, V-A:GLU:543:C:4899, H-A:LYS:547:NZ:4948, H-B:GLY:454:N:9018, V-A:GLY:453:C:4038, V-A:GLY:453:CA:4040, V-A:ASP:366:CA:3206"]

$$$$
1d_Ghoteimi_2023
     RDKit          3D

 30 32  0  0  0  0  0  0  0  0999 V2000
  124.2130  130.0000   63.3280 C   0  0  0  0  0  0  0  0  0  0  0  0
  124.4490  130.5460   64.6170 O   0  0  0  0  0  0  0  0  0  0  0  0
  124.2070  129.8150   65.7250 C   0  0  0  0  0  0  0  0  0  0  0  0
  123.2930  129.9960   66.5310 O   0  0  0  0  0  0  0  0  0  0  0  0
  125.2190  128.6870   65.9090 C   0  0  0  0  0  0  0  0  0  0  0  0
  126.8300  129.2980   65.3300 S   0  0  0  0  0  0  0  0  0  0  0  0
  128.0640  128.1690   65.9370 C   0  0  0  0  0  0  0  0  0  0  0  0
  128.1460  128.1250   67.2880 N   0  0  0  0  0  0  0  0  0  0  0  0
  129.0490  127.3070   67.8860 C   0  0  0  0  0  0  0  0  0  0  0  0
  129.0710  127.3130   69.3870 C   0  0  0  0  0  0  0  0  0  0  0  0
  130.0770  127.9860   70.0980 C   0  0  0  0  0  0  0  0  0  0  0  0
  130.1000  127.9860   71.4890 C   0  0  0  0  0  0  0  0  0  0  0  0
  129.1210  127.3110   72.2140 C   0  0  0  0  0  0  0  0  0  0  0  0
  129.2240  127.3610   73.5910 O   0  0  0  0  0  0  0  0  0  0  0  0
  128.1230  127.8470   74.3520 C   0  0  0  0  0  0  0  0  0  0  0  0
  128.1100  126.6330   71.5190 C   0  0  0  0  0  0  0  0  0  0  0  0
  128.0900  126.6370   70.1270 C   0  0  0  0  0  0  0  0  0  0  0  0
  129.8940  126.4960   67.1180 C   0  0  0  0  0  0  0  0  0  0  0  0
  129.8410  126.5330   65.7190 C   0  0  0  0  0  0  0  0  0  0  0  0
  130.7770  125.6470   64.9620 C   0  0  0  0  0  0  0  0  0  0  0  0
  132.1500  125.9080   64.9640 C   0  0  0  0  0  0  0  0  0  0  0  0
  133.0280  125.0870   64.2610 C   0  0  0  0  0  0  0  0  0  0  0  0
  132.5520  123.9880   63.5470 C   0  0  0  0  0  0  0  0  0  0  0  0
  133.4940  123.2340   62.8730 O   0  0  0  0  0  0  0  0  0  0  0  0
  133.8510  123.5940   61.5430 C   0  0  0  0  0  0  0  0  0  0  0  0
  131.1760  123.7150   63.5510 C   0  0  0  0  0  0  0  0  0  0  0  0
  130.3010  124.5370   64.2560 C   0  0  0  0  0  0  0  0  0  0  0  0
  128.9140  127.4090   65.1020 C   0  0  0  0  0  0  0  0  0  0  0  0
  128.8870  127.5650   63.6450 C   0  0  0  0  0  0  0  0  0  0  0  0
  128.8680  127.6860   62.4940 N   0  0  0  0  0  0  0  0  0  0  0  0
  1  2  1  0
  2  3  1  0
  3  4  2  0
  3  5  1  0
  5  6  1  0
  6  7  1  0
  7  8  2  0
  8  9  1  0
  9 10  1  0
 10 11  2  0
 11 12  1  0
 12 13  2  0
 13 14  1  0
 14 15  1  0
 13 16  1  0
 16 17  2  0
  9 18  2  0
 18 19  1  0
 19 20  1  0
 20 21  2  0
 21 22  1  0
 22 23  2  0
 23 24  1  0
 24 25  1  0
 23 26  1  0
 26 27  2  0
 19 28  2  0
 28 29  1  0
 29 30  3  0
 28  7  1  0
 17 10  1  0
 27 20  1  0
M  END
>  <Binding energies>  (4) 
[-8.66]

>  <Ligand effiencies>  (4) 
[-0.2886666666666667]

>  <Interactions>  (4) 
["V-B:GLU:543:CD:9877, V-A:ARG:545:CZ:4923, H-A:GLY:454:N:4046, V-A:GLY:454:CA:4045, V-A:HIS:456:CE1:4066, V-A:GLU:543:CD:4905, V-B:HIS:456:CE1:9038, V-B:HIS:456:CD2:9036, V-B:GLU:543:CG:9876, V-B:ARG:545:CZ:9895, V-B:ARG:545:CD:9892, H-B:TYR:484:OH:9316, V-B:ASP:366:CG:8181, V-A:ASP:366:CG:3209, V-B:LYS:547:CE:9919, V-A:LYS:547:CE:4947, V-A:GLU:543:C:4899, H-A:LYS:547:NZ:4948, H-B:GLY:454:N:9018, H-B:ILE:455:N:9023, V-B:ARG:545:CG:9891, H-B:HIS:456:ND1:9035"]

$$$$
1j_Grossjean_2025
     RDKit          3D

 20 21  0  0  0  0  0  0  0  0999 V2000
  128.2460  132.2130   74.5000 C   0  0  0  0  0  0  0  0  0  0  0  0
  127.2380  131.0820   74.5950 C   0  0  0  0  0  0  0  0  0  0  0  0
  126.0090  131.2520   75.2280 C   0  0  0  0  0  0  0  0  0  0  0  0
  125.1140  130.1790   75.2730 C   0  0  0  0  0  0  0  0  0  0  0  0
  123.7650  130.3950   75.9580 C   0  0  0  0  0  0  0  0  0  0  0  0
  125.4810  128.9480   74.6840 C   0  0  0  0  0  0  0  0  0  0  0  0
  124.5380  127.8260   74.6740 C   0  0  0  0  0  0  0  0  0  0  0  0
  123.7910  126.9430   74.6670 N   0  0  0  0  0  0  0  0  0  0  0  0
  126.7600  128.8570   74.0860 C   0  0  0  0  0  0  0  0  0  0  0  0
  127.3860  127.3870   73.3020 S   0  0  0  0  0  0  0  0  0  0  0  0
  128.9080  127.8380   72.4180 C   0  0  0  0  0  0  0  0  0  0  0  0
  128.9610  127.2250   71.0170 C   0  0  0  0  0  0  0  0  0  0  0  0
  128.4870  126.1040   70.8300 O   0  0  0  0  0  0  0  0  0  0  0  0
  129.5410  127.9910   70.0670 N   0  0  0  0  0  0  0  0  0  0  0  0
  129.7170  127.6620   68.7310 C   0  0  0  0  0  0  0  0  0  0  0  0
  130.7950  127.8280   67.9940 N   0  0  0  0  0  0  0  0  0  0  0  0
  130.6080  127.4000   66.7610 C   0  0  0  0  0  0  0  0  0  0  0  0
  129.3530  126.8690   66.4770 C   0  0  0  0  0  0  0  0  0  0  0  0
  128.3720  126.9390   67.9100 S   0  0  0  0  0  0  0  0  0  0  0  0
  127.6120  129.9110   74.0280 N   0  0  0  0  0  0  0  0  0  0  0  0
  1  2  1  0
  2  3  2  0
  3  4  1  0
  4  5  1  0
  4  6  2  0
  6  7  1  0
  7  8  3  0
  6  9  1  0
  9 10  1  0
 10 11  1  0
 11 12  1  0
 12 13  2  0
 12 14  1  0
 14 15  1  0
 15 16  2  0
 16 17  1  0
 17 18  2  0
 18 19  1  0
  9 20  2  0
 20  2  1  0
 19 15  1  0
M  END
>  <Binding energies>  (5) 
[-6.36]

>  <Ligand effiencies>  (5) 
[-0.3028571428571429]

>  <Interactions>  (5) 
["V-A:HIS:456:CE1:4066, V-A:GLU:543:CD:4905, H-B:HIS:456:NE2:9039, V-B:GLU:543:CB:9875, V-B:HIS:456:CE1:9038, V-B:HIS:456:CD2:9036, H-A:GLU:543:O:4900, V-A:GLU:543:CB:4903, V-B:VAL:457:C:9041, V-B:ASP:473:CG:9208, V-B:ASP:473:CB:9207, V-B:HIS:456:CG:9034, V-B:HIS:456:C:9029, V-B:VAL:457:CA:9043, V-B:HIS:456:CB:9033, V-B:LYS:547:CD:9918, V-B:VAL:458:CG2:9055, V-B:LYS:471:CE:9188, V-B:LYS:471:CB:9185, H-B:VAL:457:N:9044, V-B:LYS:471:C:9181, H-B:LYS:547:N:9915"]

$$$$
1o_Grossjean_2025
     RDKit          3D

 26 27  0  0  0  0  0  0  0  0999 V2000
  126.2680  127.7700   73.6640 C   0  0  0  0  0  0  0  0  0  0  0  0
  127.1140  127.0040   72.8180 O   0  0  0  0  0  0  0  0  0  0  0  0
  128.4060  127.3670   72.6070 C   0  0  0  0  0  0  0  0  0  0  0  0
  129.1560  127.7630   73.5040 O   0  0  0  0  0  0  0  0  0  0  0  0
  128.8330  127.2370   71.1740 C   0  0  0  0  0  0  0  0  0  0  0  0
  128.0790  126.5150   70.2370 C   0  0  0  0  0  0  0  0  0  0  0  0
  128.5030  126.4150   68.9140 C   0  0  0  0  0  0  0  0  0  0  0  0
  129.6870  127.0270   68.5020 C   0  0  0  0  0  0  0  0  0  0  0  0
  130.0160  126.8700   67.1410 N   0  0  0  0  0  0  0  0  0  0  0  0
  129.8970  125.7870   66.3410 C   0  0  0  0  0  0  0  0  0  0  0  0
  129.4120  124.7070   66.6770 O   0  0  0  0  0  0  0  0  0  0  0  0
  130.3910  125.9740   64.8990 C   0  0  0  0  0  0  0  0  0  0  0  0
  131.9050  126.2460   64.8030 C   0  0  0  0  0  0  0  0  0  0  0  0
  132.9370  124.7700   65.0430 S   0  0  0  0  0  0  0  0  0  0  0  0
  132.8370  123.7660   63.5750 C   0  0  0  0  0  0  0  0  0  0  0  0
  133.8500  123.9870   62.6990 N   0  0  0  0  0  0  0  0  0  0  0  0
  133.8840  123.2740   61.5490 C   0  0  0  0  0  0  0  0  0  0  0  0
  135.0540  123.5650   60.6270 C   0  0  0  0  0  0  0  0  0  0  0  0
  132.9140  122.3310   61.2210 C   0  0  0  0  0  0  0  0  0  0  0  0
  131.8510  122.1130   62.1040 C   0  0  0  0  0  0  0  0  0  0  0  0
  130.7920  121.0830   61.7140 C   0  0  0  0  0  0  0  0  0  0  0  0
  131.7920  122.8480   63.3100 C   0  0  0  0  0  0  0  0  0  0  0  0
  130.6560  122.6770   64.2180 C   0  0  0  0  0  0  0  0  0  0  0  0
  129.7580  122.5390   64.9350 N   0  0  0  0  0  0  0  0  0  0  0  0
  130.4440  127.7550   69.4330 C   0  0  0  0  0  0  0  0  0  0  0  0
  130.0190  127.8540   70.7540 C   0  0  0  0  0  0  0  0  0  0  0  0
  1  2  1  0
  2  3  1  0
  3  4  2  0
  3  5  1  0
  5  6  2  0
  6  7  1  0
  7  8  2  0
  8  9  1  0
  9 10  1  0
 10 11  2  0
 10 12  1  0
 12 13  1  0
 13 14  1  0
 14 15  1  0
 15 16  2  0
 16 17  1  0
 17 18  1  0
 17 19  2  0
 19 20  1  0
 20 21  1  0
 20 22  2  0
 22 23  1  0
 23 24  3  0
  8 25  1  0
 25 26  2  0
 26  5  1  0
 22 15  1  0
M  END
>  <Binding energies>  (6) 
[-7.94]

>  <Ligand effiencies>  (6) 
[-0.2940740740740741]

>  <Interactions>  (6) 
["V-A:LEU:475:CD1:4254, H-A:GLU:543:OE1:4906, V-A:ARG:545:CZ:4923, V-A:ILE:369:CB:3232, H-A:GLY:454:N:4046, V-A:ILE:369:CG1:3234, V-A:GLY:454:CA:4045, V-B:TYR:539:CE2:9845, V-A:HIS:456:CE1:4066, V-A:TYR:484:CZ:4343, V-B:GLU:543:CB:9875, V-B:HIS:456:CE1:9038, V-A:TYR:484:CE1:4341, V-B:HIS:456:CD2:9036, V-B:TYR:539:CD2:9843, V-B:ALA:541:CB:9861, V-A:ASP:366:CG:3209, H-A:TYR:484:OH:4344, V-B:LYS:547:CE:9919, V-B:HIS:456:CG:9034, V-A:GLU:543:C:4899, V-B:HIS:456:CB:9033, V-B:LYS:547:CD:9918, H-A:LYS:547:NZ:4948, V-A:ASP:366:CA:3206"]

$$$$
1p_Grossjean_2025
     RDKit          3D

 21 22  0  0  0  0  0  0  0  0999 V2000
  134.7830  125.1270   65.9100 C   0  0  0  0  0  0  0  0  0  0  0  0
  133.4840  125.2600   65.1370 C   0  0  0  0  0  0  0  0  0  0  0  0
  133.4360  125.0670   63.7570 C   0  0  0  0  0  0  0  0  0  0  0  0
  132.2130  125.2150   63.0930 C   0  0  0  0  0  0  0  0  0  0  0  0
  132.1860  125.0130   61.5790 C   0  0  0  0  0  0  0  0  0  0  0  0
  131.0590  125.5500   63.8360 C   0  0  0  0  0  0  0  0  0  0  0  0
  129.7790  125.7580   63.1590 C   0  0  0  0  0  0  0  0  0  0  0  0
  128.7660  125.9230   62.6210 N   0  0  0  0  0  0  0  0  0  0  0  0
  131.1980  125.7050   65.2360 C   0  0  0  0  0  0  0  0  0  0  0  0
  129.8480  126.1140   66.3200 S   0  0  0  0  0  0  0  0  0  0  0  0
  129.3180  127.7970   65.8880 C   0  0  0  0  0  0  0  0  0  0  0  0
  128.0040  128.2290   66.5680 C   0  0  0  0  0  0  0  0  0  0  0  0
  127.2290  129.2970   65.7820 C   0  0  0  0  0  0  0  0  0  0  0  0
  127.5950  130.4730   65.8320 O   0  0  0  0  0  0  0  0  0  0  0  0
  126.1780  128.8450   65.0620 N   0  0  0  0  0  0  0  0  0  0  0  0
  125.3180  129.5940   64.2690 C   0  0  0  0  0  0  0  0  0  0  0  0
  125.6370  130.0000   62.9730 C   0  0  0  0  0  0  0  0  0  0  0  0
  124.5390  130.7070   62.5390 C   0  0  0  0  0  0  0  0  0  0  0  0
  123.6080  130.7270   63.5220 O   0  0  0  0  0  0  0  0  0  0  0  0
  124.1140  130.0190   64.6140 N   0  0  0  0  0  0  0  0  0  0  0  0
  132.3920  125.5790   65.8690 N   0  0  0  0  0  0  0  0  0  0  0  0
  1  2  1  0
  2  3  2  0
  3  4  1  0
  4  5  1  0
  4  6  2  0
  6  7  1  0
  7  8  3  0
  6  9  1  0
  9 10  1  0
 10 11  1  0
 11 12  1  0
 12 13  1  0
 13 14  2  0
 13 15  1  0
 15 16  1  0
 16 17  1  0
 17 18  2  0
 18 19  1  0
 19 20  1  0
  9 21  2  0
 21  2  1  0
 20 16  2  0
M  END
>  <Binding energies>  (7) 
[-6.9]

>  <Ligand effiencies>  (7) 
[-0.31363636363636366]

>  <Interactions>  (7) 
["V-B:GLU:543:CD:9877, V-A:ARG:545:CZ:4923, V-A:ARG:545:CG:4919, V-A:GLY:454:CA:4045, V-A:HIS:456:CE1:4066, V-A:GLY:454:C:4043, V-A:GLU:543:CD:4905, V-A:GLU:543:CG:4904, V-B:HIS:456:CE1:9038, V-A:GLU:543:CB:4903, V-B:ARG:545:CZ:9895, H-B:TYR:484:OH:9316, V-B:ASP:366:CG:8181, V-A:ASP:366:CG:3209, H-A:TYR:484:OH:4344, H-B:GLU:543:OE1:9878, V-A:ARG:545:CD:4920, H-B:GLY:454:N:9018, V-A:GLY:453:C:4038, V-A:GLY:453:CA:4040, H-B:GLU:543:OE2:9879"]

$$$$
2a_Ghoteimi_2023
     RDKit          3D

 48 53  0  0  0  0  0  0  0  0999 V2000
  136.1850  117.7020   58.6010 C   0  0  0  0  0  0  0  0  0  0  0  0
  135.4440  117.2880   59.8760 C   0  0  0  0  0  0  0  0  0  0  0  0
  134.9320  118.4460   60.5220 O   0  0  0  0  0  0  0  0  0  0  0  0
  133.7800  119.0320   60.1040 C   0  0  0  0  0  0  0  0  0  0  0  0
  133.1240  118.6280   59.1390 O   0  0  0  0  0  0  0  0  0  0  0  0
  133.3820  120.2160   60.9370 C   0  0  0  0  0  0  0  0  0  0  0  0
  132.0480  120.4540   61.2990 C   0  0  0  0  0  0  0  0  0  0  0  0
  131.7120  121.5600   62.0740 C   0  0  0  0  0  0  0  0  0  0  0  0
  132.6990  122.4480   62.5060 C   0  0  0  0  0  0  0  0  0  0  0  0
  132.2470  123.5340   63.2790 N   0  0  0  0  0  0  0  0  0  0  0  0
  132.8720  124.6890   63.5980 C   0  0  0  0  0  0  0  0  0  0  0  0
  134.0270  124.9800   63.2840 O   0  0  0  0  0  0  0  0  0  0  0  0
  132.0480  125.6620   64.4520 C   0  0  0  0  0  0  0  0  0  0  0  0
  130.4980  124.9640   65.1060 S   0  0  0  0  0  0  0  0  0  0  0  0
  129.5910  126.3440   65.7660 C   0  0  0  0  0  0  0  0  0  0  0  0
  129.5590  126.3820   67.1180 N   0  0  0  0  0  0  0  0  0  0  0  0
  128.8890  127.3830   67.7410 C   0  0  0  0  0  0  0  0  0  0  0  0
  128.8880  127.3550   69.2360 C   0  0  0  0  0  0  0  0  0  0  0  0
  127.9010  126.6630   69.9480 C   0  0  0  0  0  0  0  0  0  0  0  0
  127.8980  126.6500   71.3400 C   0  0  0  0  0  0  0  0  0  0  0  0
  128.8850  127.3230   72.0730 C   0  0  0  0  0  0  0  0  0  0  0  0
  128.8520  127.3260   73.4720 N   0  0  0  0  0  0  0  0  0  0  0  0
  129.5090  126.2640   74.2600 C   0  0  0  0  0  0  0  0  0  0  0  0
  129.6840  126.6140   75.7530 C   0  0  0  0  0  0  0  0  0  0  0  0
  128.4320  126.9680   76.3200 O   0  0  0  0  0  0  0  0  0  0  0  0
  127.8720  128.0990   75.6730 C   0  0  0  0  0  0  0  0  0  0  0  0
  127.6420  127.7960   74.1770 C   0  0  0  0  0  0  0  0  0  0  0  0
  129.8660  128.0260   71.3540 C   0  0  0  0  0  0  0  0  0  0  0  0
  129.8700  128.0360   69.9630 C   0  0  0  0  0  0  0  0  0  0  0  0
  128.2430  128.3840   67.0110 C   0  0  0  0  0  0  0  0  0  0  0  0
  128.2630  128.3660   65.6100 C   0  0  0  0  0  0  0  0  0  0  0  0
  127.5460  129.4630   64.8920 C   0  0  0  0  0  0  0  0  0  0  0  0
  126.6330  129.1610   63.8790 C   0  0  0  0  0  0  0  0  0  0  0  0
  125.9750  130.1760   63.1910 C   0  0  0  0  0  0  0  0  0  0  0  0
  126.2090  131.5250   63.4970 C   0  0  0  0  0  0  0  0  0  0  0  0
  125.5730  132.5600   62.8060 N   0  0  0  0  0  0  0  0  0  0  0  0
  124.0970  132.6010   62.7610 C   0  0  0  0  0  0  0  0  0  0  0  0
  123.5380  133.9700   62.3200 C   0  0  0  0  0  0  0  0  0  0  0  0
  124.0900  134.3380   61.0650 O   0  0  0  0  0  0  0  0  0  0  0  0
  125.5040  134.4410   61.1240 C   0  0  0  0  0  0  0  0  0  0  0  0
  126.1160  133.0870   61.5380 C   0  0  0  0  0  0  0  0  0  0  0  0
  127.1360  131.8200   64.5070 C   0  0  0  0  0  0  0  0  0  0  0  0
  127.7950  130.8050   65.1940 C   0  0  0  0  0  0  0  0  0  0  0  0
  128.9620  127.3190   64.9610 C   0  0  0  0  0  0  0  0  0  0  0  0
  129.0660  127.2770   63.4990 C   0  0  0  0  0  0  0  0  0  0  0  0
  129.1450  127.2450   62.3440 N   0  0  0  0  0  0  0  0  0  0  0  0
  134.0340  122.2220   62.1400 C   0  0  0  0  0  0  0  0  0  0  0  0
  134.3690  121.1130   61.3670 C   0  0  0  0  0  0  0  0  0  0  0  0
  1  2  1  0
  2  3  1  0
  3  4  1  0
  4  5  2  0
  4  6  1  0
  6  7  2  0
  7  8  1  0
  8  9  2  0
  9 10  1  0
 10 11  1  0
 11 12  2  0
 11 13  1  0
 13 14  1  0
 14 15  1  0
 15 16  2  0
 16 17  1  0
 17 18  1  0
 18 19  2  0
 19 20  1  0
 20 21  2  0
 21 22  1  0
 22 23  1  0
 23 24  1  0
 24 25  1  0
 25 26  1  0
 26 27  1  0
 21 28  1  0
 28 29  2  0
 17 30  2  0
 30 31  1  0
 31 32  1  0
 32 33  2  0
 33 34  1  0
 34 35  2  0
 35 36  1  0
 36 37  1  0
 37 38  1  0
 38 39  1  0
 39 40  1  0
 40 41  1  0
 35 42  1  0
 42 43  2  0
 31 44  2  0
 44 45  1  0
 45 46  3  0
  9 47  1  0
 47 48  2  0
 48  6  1  0
 44 15  1  0
 29 18  1  0
 43 32  1  0
 27 22  1  0
 41 36  1  0
M  END
>  <Binding energies>  (8) 
[-9.14]

>  <Ligand effiencies>  (8) 
[-0.18653061224489798]

>  <Interactions>  (8) 
["V-A:LEU:475:CD1:4254, V-B:GLU:543:CD:9877, V-A:ARG:545:CZ:4923, V-A:ILE:369:CB:3232, H-A:ARG:545:NH2:4925, H-A:ARG:545:NH1:4924, H-A:GLY:454:N:4046, V-A:ILE:369:CG1:3234, V-A:ILE:369:CG2:3233, V-A:GLY:454:CA:4045, V-B:TYR:539:CE2:9845, V-A:GLU:543:CD:4905, V-A:GLU:543:CG:4904, V-B:HIS:456:CE1:9038, V-B:GLY:544:C:9881, V-B:HIS:456:CD2:9036, V-A:GLU:543:CB:4903, V-B:ILE:369:CD1:8207, V-B:ILE:369:CG2:8205, V-B:GLY:454:CA:9017, V-B:LEU:475:CD2:9227, V-B:TYR:539:CD2:9843, H-A:TYR:484:OH:4344, V-B:LYS:547:CE:9919, V-A:LYS:547:CE:4947, V-A:GLU:543:C:4899, V-A:GLY:453:C:4038, V-A:ILE:369:CD1:3235, V-B:TYR:484:CE1:9313, V-A:SER:385:C:3401, V-A:TRP:381:CH2:3368, V-A:SER:385:CA:3403, V-A:VAL:384:C:3393, V-A:SER:385:CB:3405"]

$$$$
2aa_Ghoteimi_2023
     RDKit          3D

 48 53  0  0  0  0  0  0  0  0999 V2000
  127.7270  136.3780   61.7460 C   0  0  0  0  0  0  0  0  0  0  0  0
  127.7400  135.1660   60.8090 C   0  0  0  0  0  0  0  0  0  0  0  0
  126.6510  135.2620   59.9010 O   0  0  0  0  0  0  0  0  0  0  0  0
  125.5110  134.5480   60.0930 C   0  0  0  0  0  0  0  0  0  0  0  0
  124.5050  134.6680   59.3860 O   0  0  0  0  0  0  0  0  0  0  0  0
  125.6010  133.5870   61.2440 C   0  0  0  0  0  0  0  0  0  0  0  0
  126.4770  132.4920   61.2270 C   0  0  0  0  0  0  0  0  0  0  0  0
  126.5400  131.6210   62.3100 C   0  0  0  0  0  0  0  0  0  0  0  0
  125.7260  131.8200   63.4270 C   0  0  0  0  0  0  0  0  0  0  0  0
  125.8740  130.8810   64.4660 N   0  0  0  0  0  0  0  0  0  0  0  0
  125.5320  129.5750   64.5070 C   0  0  0  0  0  0  0  0  0  0  0  0
  125.0290  128.9450   63.5750 O   0  0  0  0  0  0  0  0  0  0  0  0
  125.8410  128.8760   65.8380 C   0  0  0  0  0  0  0  0  0  0  0  0
  127.1540  129.2400   66.2790 O   0  0  0  0  0  0  0  0  0  0  0  0
  128.0740  128.2550   66.6130 C   0  0  0  0  0  0  0  0  0  0  0  0
  128.2520  127.9670   67.9330 N   0  0  0  0  0  0  0  0  0  0  0  0
  129.1410  127.0080   68.2940 C   0  0  0  0  0  0  0  0  0  0  0  0
  129.2880  126.7500   69.7610 C   0  0  0  0  0  0  0  0  0  0  0  0
  128.4480  125.8400   70.4130 C   0  0  0  0  0  0  0  0  0  0  0  0
  128.5840  125.5910   71.7760 C   0  0  0  0  0  0  0  0  0  0  0  0
  129.5750  126.2330   72.5360 C   0  0  0  0  0  0  0  0  0  0  0  0
  129.7170  126.0030   73.9090 N   0  0  0  0  0  0  0  0  0  0  0  0
  130.9390  125.3840   74.4640 C   0  0  0  0  0  0  0  0  0  0  0  0
  130.7810  124.8880   75.9160 C   0  0  0  0  0  0  0  0  0  0  0  0
  130.3270  125.9450   76.7450 O   0  0  0  0  0  0  0  0  0  0  0  0
  129.0670  126.4370   76.3150 C   0  0  0  0  0  0  0  0  0  0  0  0
  129.1740  126.9810   74.8740 C   0  0  0  0  0  0  0  0  0  0  0  0
  130.4000  127.1590   71.8820 C   0  0  0  0  0  0  0  0  0  0  0  0
  130.2610  127.4100   70.5190 C   0  0  0  0  0  0  0  0  0  0  0  0
  129.8910  126.3200   67.3360 C   0  0  0  0  0  0  0  0  0  0  0  0
  129.7350  126.6050   65.9730 C   0  0  0  0  0  0  0  0  0  0  0  0
  130.5830  125.8540   64.9970 C   0  0  0  0  0  0  0  0  0  0  0  0
  129.9930  125.0070   64.0560 C   0  0  0  0  0  0  0  0  0  0  0  0
  130.7780  124.2900   63.1570 C   0  0  0  0  0  0  0  0  0  0  0  0
  132.1780  124.3880   63.1840 C   0  0  0  0  0  0  0  0  0  0  0  0
  132.9850  123.6800   62.2890 N   0  0  0  0  0  0  0  0  0  0  0  0
  133.0600  124.0500   60.8630 C   0  0  0  0  0  0  0  0  0  0  0  0
  134.2480  123.4010   60.1210 C   0  0  0  0  0  0  0  0  0  0  0  0
  134.2030  121.9910   60.2760 O   0  0  0  0  0  0  0  0  0  0  0  0
  134.2790  121.6130   61.6410 C   0  0  0  0  0  0  0  0  0  0  0  0
  133.0920  122.2130   62.4230 C   0  0  0  0  0  0  0  0  0  0  0  0
  132.7600  125.2460   64.1270 C   0  0  0  0  0  0  0  0  0  0  0  0
  131.9760  125.9630   65.0250 C   0  0  0  0  0  0  0  0  0  0  0  0
  128.7900  127.5890   65.6020 C   0  0  0  0  0  0  0  0  0  0  0  0
  128.5240  127.9170   64.2000 C   0  0  0  0  0  0  0  0  0  0  0  0
  128.3150  128.1750   63.0910 N   0  0  0  0  0  0  0  0  0  0  0  0
  124.8530  132.9170   63.4540 C   0  0  0  0  0  0  0  0  0  0  0  0
  124.7940  133.7890   62.3700 C   0  0  0  0  0  0  0  0  0  0  0  0
  1  2  1  0
  2  3  1  0
  3  4  1  0
  4  5  2  0
  4  6  1  0
  6  7  2  0
  7  8  1  0
  8  9  2  0
  9 10  1  0
 10 11  1  0
 11 12  2  0
 11 13  1  0
 13 14  1  0
 14 15  1  0
 15 16  2  0
 16 17  1  0
 17 18  1  0
 18 19  2  0
 19 20  1  0
 20 21  2  0
 21 22  1  0
 22 23  1  0
 23 24  1  0
 24 25  1  0
 25 26  1  0
 26 27  1  0
 21 28  1  0
 28 29  2  0
 17 30  2  0
 30 31  1  0
 31 32  1  0
 32 33  2  0
 33 34  1  0
 34 35  2  0
 35 36  1  0
 36 37  1  0
 37 38  1  0
 38 39  1  0
 39 40  1  0
 40 41  1  0
 35 42  1  0
 42 43  2  0
 31 44  2  0
 44 45  1  0
 45 46  3  0
  9 47  1  0
 47 48  2  0
 48  6  1  0
 44 15  1  0
 29 18  1  0
 43 32  1  0
 27 22  1  0
 41 36  1  0
M  END
>  <Binding energies>  (9) 
[-9.01]

>  <Ligand effiencies>  (9) 
[-0.18387755102040815]

>  <Interactions>  (9) 
["V-A:LEU:475:CD1:4254, V-B:GLU:543:CD:9877, V-A:ARG:545:CZ:4923, V-A:ILE:369:CB:3232, V-A:ILE:369:CG1:3234, V-A:ILE:369:CG2:3233, V-A:GLY:454:CA:4045, V-A:HIS:456:CE1:4066, V-A:GLU:543:CD:4905, V-B:GLU:543:C:9871, V-B:HIS:456:CE1:9038, V-A:HIS:456:CD2:4064, V-B:GLU:543:CG:9876, V-B:ILE:369:CG2:8205, V-B:ARG:545:CZ:9895, V-B:TRP:381:CH2:8340, V-A:ALA:541:CB:4889, V-A:TYR:539:CE2:4873, V-B:GLY:454:CA:9017, H-B:TYR:484:OH:9316, V-A:TYR:539:CD2:4871, V-B:LEU:475:CD2:9227, V-A:ASP:366:CG:3209, V-A:ALA:541:CA:4887, V-A:ASP:366:CB:3208, V-A:TYR:539:C:4864, H-B:ARG:545:NH2:9897, V-B:LYS:547:CE:9919, V-A:LYS:547:CE:4947, V-B:LYS:547:CD:9918, V-B:TRP:381:CZ2:8338, V-B:PRO:482:CG:9295, V-B:PRO:482:CB:9294, V-A:ASP:366:CA:3206, H-B:ARG:545:NH1:9896, H-B:ARG:545:NE:9893, H-B:TYR:539:OH:9847"]

$$$$
2b_Ghoteimi_2023
     RDKit          3D

 42 47  0  0  0  0  0  0  0  0999 V2000
  128.7250  127.3270   61.3700 N   0  0  0  0  0  0  0  0  0  0  0  0
  128.7330  127.3400   62.5270 C   0  0  0  0  0  0  0  0  0  0  0  0
  128.7400  127.3620   63.9930 C   0  0  0  0  0  0  0  0  0  0  0  0
  128.1050  128.4140   64.7000 C   0  0  0  0  0  0  0  0  0  0  0  0
  127.3970  129.5500   64.0390 C   0  0  0  0  0  0  0  0  0  0  0  0
  126.3210  129.3070   63.1830 C   0  0  0  0  0  0  0  0  0  0  0  0
  125.6580  130.3620   62.5630 C   0  0  0  0  0  0  0  0  0  0  0  0
  126.0650  131.6900   62.7690 C   0  0  0  0  0  0  0  0  0  0  0  0
  125.4080  132.7660   62.1700 N   0  0  0  0  0  0  0  0  0  0  0  0
  124.2220  133.3440   62.8330 C   0  0  0  0  0  0  0  0  0  0  0  0
  123.3830  134.2480   61.9050 C   0  0  0  0  0  0  0  0  0  0  0  0
  124.2000  135.2640   61.3420 O   0  0  0  0  0  0  0  0  0  0  0  0
  125.2640  134.7170   60.5790 C   0  0  0  0  0  0  0  0  0  0  0  0
  126.1550  133.8340   61.4760 C   0  0  0  0  0  0  0  0  0  0  0  0
  127.1480  131.9240   63.6280 C   0  0  0  0  0  0  0  0  0  0  0  0
  127.8080  130.8690   64.2510 C   0  0  0  0  0  0  0  0  0  0  0  0
  128.1340  128.3890   66.1000 C   0  0  0  0  0  0  0  0  0  0  0  0
  128.7490  127.3310   66.7760 C   0  0  0  0  0  0  0  0  0  0  0  0
  128.7810  127.2420   68.2690 C   0  0  0  0  0  0  0  0  0  0  0  0
  127.8130  126.5050   68.9610 C   0  0  0  0  0  0  0  0  0  0  0  0
  127.8470  126.4050   70.3490 C   0  0  0  0  0  0  0  0  0  0  0  0
  128.8420  127.0490   71.1000 C   0  0  0  0  0  0  0  0  0  0  0  0
  128.9060  126.9320   72.4930 N   0  0  0  0  0  0  0  0  0  0  0  0
  130.0350  126.2140   73.1210 C   0  0  0  0  0  0  0  0  0  0  0  0
  129.7800  125.8290   74.5940 C   0  0  0  0  0  0  0  0  0  0  0  0
  129.4300  126.9820   75.3440 O   0  0  0  0  0  0  0  0  0  0  0  0
  128.2480  127.5870   74.8460 C   0  0  0  0  0  0  0  0  0  0  0  0
  128.4540  128.0220   73.3790 C   0  0  0  0  0  0  0  0  0  0  0  0
  129.8140  127.7800   70.4020 C   0  0  0  0  0  0  0  0  0  0  0  0
  129.7820  127.8780   69.0140 C   0  0  0  0  0  0  0  0  0  0  0  0
  129.3550  126.3250   66.0970 N   0  0  0  0  0  0  0  0  0  0  0  0
  129.3700  126.3440   64.7430 C   0  0  0  0  0  0  0  0  0  0  0  0
  130.2100  124.9520   64.0200 S   0  0  0  0  0  0  0  0  0  0  0  0
  131.7880  124.7460   64.9000 C   0  0  0  0  0  0  0  0  0  0  0  0
  132.9690  124.6030   63.9390 C   0  0  0  0  0  0  0  0  0  0  0  0
  134.1030  124.8850   64.3290 O   0  0  0  0  0  0  0  0  0  0  0  0
  132.6590  124.1700   62.6970 N   0  0  0  0  0  0  0  0  0  0  0  0
  133.5310  123.9450   61.6420 C   0  0  0  0  0  0  0  0  0  0  0  0
  133.1030  123.7590   60.3280 C   0  0  0  0  0  0  0  0  0  0  0  0
  134.2550  123.5690   59.6010 C   0  0  0  0  0  0  0  0  0  0  0  0
  135.3210  123.6380   60.4330 O   0  0  0  0  0  0  0  0  0  0  0  0
  134.8490  123.8790   61.7250 N   0  0  0  0  0  0  0  0  0  0  0  0
  1  2  3  0
  2  3  1  0
  3  4  2  0
  4  5  1  0
  5  6  2  0
  6  7  1  0
  7  8  2  0
  8  9  1  0
  9 10  1  0
 10 11  1  0
 11 12  1  0
 12 13  1  0
 13 14  1  0
  8 15  1  0
 15 16  2  0
  4 17  1  0
 17 18  2  0
 18 19  1  0
 19 20  2  0
 20 21  1  0
 21 22  2  0
 22 23  1  0
 23 24  1  0
 24 25  1  0
 25 26  1  0
 26 27  1  0
 27 28  1  0
 22 29  1  0
 29 30  2  0
 18 31  1  0
 31 32  2  0
 32 33  1  0
 33 34  1  0
 34 35  1  0
 35 36  2  0
 35 37  1  0
 37 38  1  0
 38 39  1  0
 39 40  2  0
 40 41  1  0
 41 42  1  0
 32  3  1  0
 42 38  2  0
 16  5  1  0
 30 19  1  0
 14  9  1  0
 28 23  1  0
M  END
>  <Binding energies>  (10) 
[-10.14]

>  <Ligand effiencies>  (10) 
[-0.2358139534883721]

>  <Interactions>  (10) 
["V-B:GLU:543:CD:9877, V-A:ARG:545:CZ:4923, V-A:ILE:369:CB:3232, H-A:ARG:545:NH1:4924, H-A:GLY:454:N:4046, V-A:ILE:369:CG1:3234, V-A:ILE:369:CG2:3233, V-B:TYR:539:CE2:9845, V-A:HIS:456:CE1:4066, V-A:GLU:543:CD:4905, V-A:GLU:543:CG:4904, V-B:GLU:543:C:9871, V-B:GLU:543:CB:9875, V-B:HIS:456:CE1:9038, V-B:GLY:544:C:9881, V-A:HIS:456:CD2:4064, V-B:HIS:456:CD2:9036, V-A:GLU:543:CB:4903, V-B:GLU:543:CG:9876, V-B:ILE:369:CD1:8207, V-B:ILE:369:CG2:8205, V-B:TRP:381:CH2:8340, V-A:ALA:541:CB:4889, V-B:GLY:454:CA:9017, V-A:TYR:539:CD2:4871, V-B:LEU:475:CD2:9227, V-B:ASP:366:CG:8181, V-A:ASP:366:CG:3209, V-A:ASP:366:CB:3208, H-A:ARG:545:NE:4921, V-B:LYS:547:CE:9919, V-A:LYS:547:CE:4947, V-B:LYS:547:CD:9918, H-A:LYS:547:NZ:4948, V-A:ASP:366:CA:3206, V-B:ILE:369:CG1:8206, V-B:SER:385:C:8373"]

$$$$
2c_Ghoteimi_2023
     RDKit          3D

 42 47  0  0  0  0  0  0  0  0999 V2000
  128.6240  128.2600   62.5690 N   0  0  0  0  0  0  0  0  0  0  0  0
  128.7320  128.0550   63.7020 C   0  0  0  0  0  0  0  0  0  0  0  0
  128.8740  127.7910   65.1380 C   0  0  0  0  0  0  0  0  0  0  0  0
  129.7740  126.8010   65.6040 C   0  0  0  0  0  0  0  0  0  0  0  0
  130.6270  125.9640   64.7080 C   0  0  0  0  0  0  0  0  0  0  0  0
  130.0390  125.1530   63.7350 C   0  0  0  0  0  0  0  0  0  0  0  0
  130.8280  124.3730   62.8930 C   0  0  0  0  0  0  0  0  0  0  0  0
  132.2260  124.3720   63.0090 C   0  0  0  0  0  0  0  0  0  0  0  0
  133.0370  123.6130   62.1620 N   0  0  0  0  0  0  0  0  0  0  0  0
  133.1270  122.1530   62.3640 C   0  0  0  0  0  0  0  0  0  0  0  0
  134.3250  121.5090   61.6350 C   0  0  0  0  0  0  0  0  0  0  0  0
  134.2810  121.8280   60.2520 O   0  0  0  0  0  0  0  0  0  0  0  0
  134.3390  123.2290   60.0340 C   0  0  0  0  0  0  0  0  0  0  0  0
  133.1420  123.9180   60.7220 C   0  0  0  0  0  0  0  0  0  0  0  0
  132.8070  125.1870   63.9920 C   0  0  0  0  0  0  0  0  0  0  0  0
  132.0190  125.9680   64.8320 C   0  0  0  0  0  0  0  0  0  0  0  0
  129.8760  126.5900   66.9850 C   0  0  0  0  0  0  0  0  0  0  0  0
  129.1240  127.3600   67.8770 C   0  0  0  0  0  0  0  0  0  0  0  0
  129.2090  127.1850   69.3590 C   0  0  0  0  0  0  0  0  0  0  0  0
  130.2610  127.7510   70.0860 C   0  0  0  0  0  0  0  0  0  0  0  0
  130.3430  127.5960   71.4680 C   0  0  0  0  0  0  0  0  0  0  0  0
  129.3800  126.8580   72.1730 C   0  0  0  0  0  0  0  0  0  0  0  0
  129.4340  126.7140   73.5640 N   0  0  0  0  0  0  0  0  0  0  0  0
  128.3270  127.2230   74.4000 C   0  0  0  0  0  0  0  0  0  0  0  0
  128.6870  127.3470   75.8950 C   0  0  0  0  0  0  0  0  0  0  0  0
  129.1580  126.1030   76.3860 O   0  0  0  0  0  0  0  0  0  0  0  0
  130.3220  125.6790   75.6950 C   0  0  0  0  0  0  0  0  0  0  0  0
  130.0150  125.5100   74.1920 C   0  0  0  0  0  0  0  0  0  0  0  0
  128.3200  126.3030   71.4420 C   0  0  0  0  0  0  0  0  0  0  0  0
  128.2380  126.4590   70.0610 C   0  0  0  0  0  0  0  0  0  0  0  0
  128.2640  128.3100   67.4280 N   0  0  0  0  0  0  0  0  0  0  0  0
  128.1240  128.5110   66.0960 C   0  0  0  0  0  0  0  0  0  0  0  0
  126.9500  129.7820   65.6870 S   0  0  0  0  0  0  0  0  0  0  0  0
  125.9180  129.1550   64.3280 C   0  0  0  0  0  0  0  0  0  0  0  0
  125.0190  130.2450   63.7400 C   0  0  0  0  0  0  0  0  0  0  0  0
  123.7960  130.1430   63.8500 O   0  0  0  0  0  0  0  0  0  0  0  0
  125.6620  131.2600   63.1240 N   0  0  0  0  0  0  0  0  0  0  0  0
  125.0810  132.3700   62.5280 C   0  0  0  0  0  0  0  0  0  0  0  0
  123.9310  132.9360   62.8250 N   0  0  0  0  0  0  0  0  0  0  0  0
  123.6930  133.9810   62.0570 C   0  0  0  0  0  0  0  0  0  0  0  0
  124.6650  134.2810   61.1080 C   0  0  0  0  0  0  0  0  0  0  0  0
  125.9580  133.1260   61.2380 S   0  0  0  0  0  0  0  0  0  0  0  0
  1  2  3  0
  2  3  1  0
  3  4  2  0
  4  5  1  0
  5  6  2  0
  6  7  1  0
  7  8  2  0
  8  9  1  0
  9 10  1  0
 10 11  1  0
 11 12  1  0
 12 13  1  0
 13 14  1  0
  8 15  1  0
 15 16  2  0
  4 17  1  0
 17 18  2  0
 18 19  1  0
 19 20  2  0
 20 21  1  0
 21 22  2  0
 22 23  1  0
 23 24  1  0
 24 25  1  0
 25 26  1  0
 26 27  1  0
 27 28  1  0
 22 29  1  0
 29 30  2  0
 18 31  1  0
 31 32  2  0
 32 33  1  0
 33 34  1  0
 34 35  1  0
 35 36  2  0
 35 37  1  0
 37 38  1  0
 38 39  2  0
 39 40  1  0
 40 41  2  0
 41 42  1  0
 32  3  1  0
 42 38  1  0
 16  5  1  0
 30 19  1  0
 14  9  1  0
 28 23  1  0
M  END
>  <Binding energies>  (11) 
[-10.1]

>  <Ligand effiencies>  (11) 
[-0.23488372093023255]

>  <Interactions>  (11) 
["V-A:LEU:475:CD1:4254, V-B:GLU:543:CD:9877, V-A:ARG:545:CZ:4923, V-A:ILE:369:CB:3232, V-A:ILE:369:CG1:3234, V-A:ILE:369:CG2:3233, V-A:GLY:454:CA:4045, V-A:HIS:456:CE1:4066, V-A:GLU:543:CD:4905, V-B:HIS:456:CE1:9038, V-A:HIS:456:CD2:4064, V-B:ILE:369:CD1:8207, V-B:ILE:369:CG2:8205, V-B:ARG:545:CZ:9895, V-B:GLY:454:CA:9017, H-B:TYR:484:OH:9316, V-B:LEU:475:CD2:9227, V-A:ASP:366:CG:3209, H-B:ARG:545:NH2:9897, V-B:LYS:547:CE:9919, V-A:LYS:547:CE:4947, V-B:LYS:547:CD:9918, H-B:GLY:454:N:9018, V-A:ASP:366:CA:3206, H-B:ARG:545:NH1:9896, H-B:TYR:539:OH:9847"]

$$$$
2j_Grossjean_2025
     RDKit          3D

 23 24  0  0  0  0  0  0  0  0999 V2000
  133.8290  123.6330   60.1600 C   0  0  0  0  0  0  0  0  0  0  0  0
  133.1020  123.8610   61.4720 C   0  0  0  0  0  0  0  0  0  0  0  0
  133.7580  124.3720   62.5890 C   0  0  0  0  0  0  0  0  0  0  0  0
  133.0420  124.5690   63.7800 C   0  0  0  0  0  0  0  0  0  0  0  0
  133.7820  125.1350   65.0060 C   0  0  0  0  0  0  0  0  0  0  0  0
  133.1220  126.1870   65.4920 F   0  0  0  0  0  0  0  0  0  0  0  0
  133.8720  124.2040   65.9570 F   0  0  0  0  0  0  0  0  0  0  0  0
  135.0230  125.5370   64.7200 F   0  0  0  0  0  0  0  0  0  0  0  0
  131.6640  124.2360   63.8030 C   0  0  0  0  0  0  0  0  0  0  0  0
  130.8670  124.4210   65.0200 C   0  0  0  0  0  0  0  0  0  0  0  0
  130.2380  124.5670   65.9800 N   0  0  0  0  0  0  0  0  0  0  0  0
  131.0790  123.7220   62.6210 C   0  0  0  0  0  0  0  0  0  0  0  0
  129.3520  123.2720   62.5350 S   0  0  0  0  0  0  0  0  0  0  0  0
  129.0840  122.3090   61.0080 C   0  0  0  0  0  0  0  0  0  0  0  0
  127.7280  122.5420   60.3260 C   0  0  0  0  0  0  0  0  0  0  0  0
  127.5080  122.1040   59.1950 O   0  0  0  0  0  0  0  0  0  0  0  0
  126.8440  123.2580   61.0560 N   0  0  0  0  0  0  0  0  0  0  0  0
  125.5530  123.6100   60.6840 C   0  0  0  0  0  0  0  0  0  0  0  0
  124.4250  123.0340   61.0380 N   0  0  0  0  0  0  0  0  0  0  0  0
  123.3820  123.6340   60.4980 C   0  0  0  0  0  0  0  0  0  0  0  0
  123.6560  124.7260   59.6810 C   0  0  0  0  0  0  0  0  0  0  0  0
  125.3760  124.9720   59.6250 S   0  0  0  0  0  0  0  0  0  0  0  0
  131.7890  123.5410   61.4790 N   0  0  0  0  0  0  0  0  0  0  0  0
  1  2  1  0
  2  3  2  0
  3  4  1  0
  4  5  1  0
  5  6  1  0
  5  7  1  0
  5  8  1  0
  4  9  2  0
  9 10  1  0
 10 11  3  0
  9 12  1  0
 12 13  1  0
 13 14  1  0
 14 15  1  0
 15 16  2  0
 15 17  1  0
 17 18  1  0
 18 19  2  0
 19 20  1  0
 20 21  2  0
 21 22  1  0
 12 23  2  0
 23  2  1  0
 22 18  1  0
M  END
>  <Binding energies>  (12) 
[-6.41]

>  <Ligand effiencies>  (12) 
[-0.26708333333333334]

>  <Interactions>  (12) 
["V-A:ARG:545:CZ:4923, V-A:ILE:369:CB:3232, V-A:ARG:545:CG:4919, V-A:GLY:454:CA:4045, V-B:TYR:539:CE2:9845, V-A:HIS:456:CE1:4066, V-A:GLY:454:C:4043, V-A:TYR:484:CZ:4343, H-B:ALA:541:N:9860, V-B:ASP:366:CB:8180, V-B:ALA:541:CB:9861, V-B:ASP:366:CG:8181, V-A:ASP:366:CG:3209, V-A:ASP:366:CB:3208, H-A:TYR:484:OH:4344, V-A:ARG:545:CD:4920, V-A:GLY:453:C:4038, V-B:PRO:540:CB:9854, V-B:LEU:363:CA:8153, V-B:PRO:540:C:9850, V-B:PRO:540:CA:9852, V-A:GLY:453:CA:4040, V-B:ASN:362:C:8140, V-B:ASN:362:CB:8144, V-A:ASP:366:CA:3206, V-B:ASN:362:CA:8142, H-B:GLU:543:OE2:9879"]

$$$$
3ab_Grossjean_2025
     RDKit          3D

 33 35  0  0  0  0  0  0  0  0999 V2000
  126.4300  127.7500   73.4560 C   0  0  0  0  0  0  0  0  0  0  0  0
  127.3570  126.8990   72.7960 O   0  0  0  0  0  0  0  0  0  0  0  0
  128.5450  127.3760   72.3460 C   0  0  0  0  0  0  0  0  0  0  0  0
  129.3590  127.9630   73.0640 O   0  0  0  0  0  0  0  0  0  0  0  0
  128.7740  127.1150   70.8850 C   0  0  0  0  0  0  0  0  0  0  0  0
  127.9190  126.2930   70.1330 C   0  0  0  0  0  0  0  0  0  0  0  0
  128.1550  126.0700   68.7800 C   0  0  0  0  0  0  0  0  0  0  0  0
  129.2580  126.6680   68.1500 C   0  0  0  0  0  0  0  0  0  0  0  0
  129.5890  126.5170   66.7900 N   0  0  0  0  0  0  0  0  0  0  0  0
  130.7360  126.8080   66.1400 C   0  0  0  0  0  0  0  0  0  0  0  0
  131.7440  127.2960   66.6510 O   0  0  0  0  0  0  0  0  0  0  0  0
  130.7390  126.4920   64.6430 C   0  0  0  0  0  0  0  0  0  0  0  0
  129.7570  125.0120   64.2530 S   0  0  0  0  0  0  0  0  0  0  0  0
  130.3830  124.3410   62.7280 C   0  0  0  0  0  0  0  0  0  0  0  0
  129.4180  124.0780   61.8150 N   0  0  0  0  0  0  0  0  0  0  0  0
  129.7550  123.5670   60.6030 C   0  0  0  0  0  0  0  0  0  0  0  0
  128.6280  123.3080   59.6480 C   0  0  0  0  0  0  0  0  0  0  0  0
  128.8820  122.8560   58.3430 C   0  0  0  0  0  0  0  0  0  0  0  0
  127.8390  122.6130   57.4520 C   0  0  0  0  0  0  0  0  0  0  0  0
  126.5240  122.8200   57.8560 C   0  0  0  0  0  0  0  0  0  0  0  0
  126.2450  123.2700   59.1420 C   0  0  0  0  0  0  0  0  0  0  0  0
  127.2910  123.5120   60.0290 C   0  0  0  0  0  0  0  0  0  0  0  0
  131.0900  123.2870   60.2900 C   0  0  0  0  0  0  0  0  0  0  0  0
  132.1060  123.5320   61.2260 C   0  0  0  0  0  0  0  0  0  0  0  0
  133.5620  123.2040   60.8440 C   0  0  0  0  0  0  0  0  0  0  0  0
  134.4470  123.9950   61.4540 F   0  0  0  0  0  0  0  0  0  0  0  0
  133.8540  121.9470   61.1800 F   0  0  0  0  0  0  0  0  0  0  0  0
  133.7310  123.3500   59.5290 F   0  0  0  0  0  0  0  0  0  0  0  0
  131.7490  124.0670   62.4880 C   0  0  0  0  0  0  0  0  0  0  0  0
  132.7630  124.2890   63.5220 C   0  0  0  0  0  0  0  0  0  0  0  0
  133.5660  124.4630   64.3370 N   0  0  0  0  0  0  0  0  0  0  0  0
  130.1070  127.4900   68.8930 C   0  0  0  0  0  0  0  0  0  0  0  0
  129.8690  127.7110   70.2460 C   0  0  0  0  0  0  0  0  0  0  0  0
  1  2  1  0
  2  3  1  0
  3  4  2  0
  3  5  1  0
  5  6  2  0
  6  7  1  0
  7  8  2  0
  8  9  1  0
  9 10  1  0
 10 11  2  0
 10 12  1  0
 12 13  1  0
 13 14  1  0
 14 15  2  0
 15 16  1  0
 16 17  1  0
 17 18  2  0
 18 19  1  0
 19 20  2  0
 20 21  1  0
 21 22  2  0
 16 23  2  0
 23 24  1  0
 24 25  1  0
 25 26  1  0
 25 27  1  0
 25 28  1  0
 24 29  2  0
 29 30  1  0
 30 31  3  0
  8 32  1  0
 32 33  2  0
 33  5  1  0
 29 14  1  0
 22 17  1  0
M  END
>  <Binding energies>  (13) 
[-8.34]

>  <Ligand effiencies>  (13) 
[-0.24529411764705883]

>  <Interactions>  (13) 
["V-A:LEU:475:CD1:4254, V-A:ILE:369:CB:3232, H-A:GLY:454:N:4046, V-A:ILE:369:CG1:3234, V-A:ILE:369:CG2:3233, V-B:TYR:539:CE2:9845, V-A:HIS:456:CE1:4066, V-A:GLU:543:CD:4905, V-B:GLU:543:C:9871, V-B:GLU:543:CB:9875, V-B:HIS:456:CE1:9038, V-B:GLY:544:C:9881, V-B:HIS:456:CD2:9036, V-B:TYR:539:CZ:9846, V-B:TYR:539:CD2:9843, V-A:ASP:366:CG:3209, V-B:TYR:539:C:9836, V-A:ASP:366:CB:3208, H-A:ARG:545:NE:4921, H-A:TYR:484:OH:4344, H-B:GLU:543:OE1:9878, V-B:LYS:547:CE:9919, V-B:HIS:456:CG:9034, V-B:HIS:456:CB:9033, V-B:LYS:547:CD:9918, H-A:LYS:547:NZ:4948, V-B:PRO:540:N:9853, V-A:GLY:453:C:4038, V-B:PRO:540:CB:9854, V-B:PRO:540:CA:9852, V-A:GLY:453:CA:4040, V-A:ASP:366:CA:3206, V-B:TYR:539:CD1:9842, V-B:TYR:539:CE1:9844"]

$$$$
3ac_Grossjean_2025
     RDKit          3D

 31 33  0  0  0  0  0  0  0  0999 V2000
  128.3110  127.9780   73.2880 C   0  0  0  0  0  0  0  0  0  0  0  0
  129.3880  127.6340   72.4200 O   0  0  0  0  0  0  0  0  0  0  0  0
  129.1170  127.3050   71.1060 C   0  0  0  0  0  0  0  0  0  0  0  0
  130.0250  127.7600   70.1510 C   0  0  0  0  0  0  0  0  0  0  0  0
  129.8370  127.4730   68.8020 C   0  0  0  0  0  0  0  0  0  0  0  0
  128.7290  126.7320   68.3870 C   0  0  0  0  0  0  0  0  0  0  0  0
  128.6350  126.4760   67.0070 N   0  0  0  0  0  0  0  0  0  0  0  0
  129.6080  126.1260   66.1380 C   0  0  0  0  0  0  0  0  0  0  0  0
  130.7860  125.9220   66.4330 O   0  0  0  0  0  0  0  0  0  0  0  0
  129.1690  125.9770   64.6810 C   0  0  0  0  0  0  0  0  0  0  0  0
  130.4540  126.5220   63.5150 S   0  0  0  0  0  0  0  0  0  0  0  0
  130.8520  125.1660   62.4280 C   0  0  0  0  0  0  0  0  0  0  0  0
  129.8280  124.8200   61.6110 N   0  0  0  0  0  0  0  0  0  0  0  0
  129.9850  123.8070   60.7210 C   0  0  0  0  0  0  0  0  0  0  0  0
  128.8010  123.4830   59.8590 C   0  0  0  0  0  0  0  0  0  0  0  0
  128.9720  123.0910   58.5210 C   0  0  0  0  0  0  0  0  0  0  0  0
  127.8780  122.7830   57.7170 C   0  0  0  0  0  0  0  0  0  0  0  0
  126.5920  122.8660   58.2410 C   0  0  0  0  0  0  0  0  0  0  0  0
  126.3940  123.2570   59.5610 C   0  0  0  0  0  0  0  0  0  0  0  0
  127.4910  123.5640   60.3610 C   0  0  0  0  0  0  0  0  0  0  0  0
  131.1880  123.0990   60.6470 C   0  0  0  0  0  0  0  0  0  0  0  0
  132.2560  123.4220   61.4960 C   0  0  0  0  0  0  0  0  0  0  0  0
  133.5620  122.6110   61.3850 C   0  0  0  0  0  0  0  0  0  0  0  0
  134.6410  123.3850   61.2400 F   0  0  0  0  0  0  0  0  0  0  0  0
  133.7460  121.8770   62.4840 F   0  0  0  0  0  0  0  0  0  0  0  0
  133.5030  121.8000   60.3290 F   0  0  0  0  0  0  0  0  0  0  0  0
  132.0860  124.4760   62.4280 C   0  0  0  0  0  0  0  0  0  0  0  0
  133.1440  124.7990   63.3870 C   0  0  0  0  0  0  0  0  0  0  0  0
  133.9810  125.0530   64.1460 N   0  0  0  0  0  0  0  0  0  0  0  0
  127.8140  126.2650   69.3440 C   0  0  0  0  0  0  0  0  0  0  0  0
  128.0060  126.5530   70.6920 C   0  0  0  0  0  0  0  0  0  0  0  0
  1  2  1  0
  2  3  1  0
  3  4  2  0
  4  5  1  0
  5  6  2  0
  6  7  1  0
  7  8  1  0
  8  9  2  0
  8 10  1  0
 10 11  1  0
 11 12  1  0
 12 13  2  0
 13 14  1  0
 14 15  1  0
 15 16  2  0
 16 17  1  0
 17 18  2  0
 18 19  1  0
 19 20  2  0
 14 21  2  0
 21 22  1  0
 22 23  1  0
 23 24  1  0
 23 25  1  0
 23 26  1  0
 22 27  2  0
 27 28  1  0
 28 29  3  0
  6 30  1  0
 30 31  2  0
 31  3  1  0
 27 12  1  0
 20 15  1  0
M  END
>  <Binding energies>  (14) 
[-8.11]

>  <Ligand effiencies>  (14) 
[-0.2534375]

>  <Interactions>  (14) 
["V-A:LEU:475:CD1:4254, V-B:GLU:543:CD:9877, V-A:ARG:545:CZ:4923, V-A:ILE:369:CB:3232, H-A:ARG:545:NH2:4925, H-A:ARG:545:NH1:4924, H-A:GLY:454:N:4046, V-A:ILE:369:CG1:3234, V-A:ILE:369:CG2:3233, V-A:GLY:454:CA:4045, V-B:TYR:539:CE2:9845, V-A:HIS:456:CE1:4066, V-B:GLU:543:C:9871, V-B:GLU:543:CB:9875, V-B:HIS:456:CE1:9038, V-B:GLY:544:C:9881, V-B:HIS:456:CD2:9036, V-B:GLU:543:CG:9876, V-B:TYR:539:CZ:9846, V-B:TYR:539:CD2:9843, H-A:ARG:545:NE:4921, H-A:TYR:484:OH:4344, H-B:GLU:543:OE1:9878, H-A:LYS:547:NZ:4948, V-B:PRO:540:N:9853, V-A:GLY:453:C:4038, V-B:PRO:540:CB:9854, V-B:PRO:540:CA:9852, V-A:GLY:453:CA:4040, V-B:TYR:539:CE1:9844"]

$$$$
3af_Grossjean_2025
     RDKit          3D

 29 31  0  0  0  0  0  0  0  0999 V2000
  128.3020  127.9780   62.5130 N   0  0  0  0  0  0  0  0  0  0  0  0
  128.4740  127.8200   63.6470 C   0  0  0  0  0  0  0  0  0  0  0  0
  128.6930  127.6170   65.0810 C   0  0  0  0  0  0  0  0  0  0  0  0
  129.3780  126.4710   65.5530 C   0  0  0  0  0  0  0  0  0  0  0  0
  129.9700  125.4080   64.6080 C   0  0  0  0  0  0  0  0  0  0  0  0
  130.9980  125.8670   63.8900 F   0  0  0  0  0  0  0  0  0  0  0  0
  130.4070  124.3640   65.3140 F   0  0  0  0  0  0  0  0  0  0  0  0
  129.0400  124.9900   63.7480 F   0  0  0  0  0  0  0  0  0  0  0  0
  129.5150  126.2940   66.9380 C   0  0  0  0  0  0  0  0  0  0  0  0
  128.9820  127.2340   67.8270 C   0  0  0  0  0  0  0  0  0  0  0  0
  129.0830  127.0850   69.3160 C   0  0  0  0  0  0  0  0  0  0  0  0
  128.1810  126.2700   70.0180 C   0  0  0  0  0  0  0  0  0  0  0  0
  128.2710  126.1250   71.4000 C   0  0  0  0  0  0  0  0  0  0  0  0
  129.2680  126.7960   72.1000 C   0  0  0  0  0  0  0  0  0  0  0  0
  130.1770  127.6070   71.4280 C   0  0  0  0  0  0  0  0  0  0  0  0
  130.0830  127.7480   70.0460 C   0  0  0  0  0  0  0  0  0  0  0  0
  128.3230  128.3290   67.3710 N   0  0  0  0  0  0  0  0  0  0  0  0
  128.1980  128.5340   66.0370 C   0  0  0  0  0  0  0  0  0  0  0  0
  127.3180  130.0290   65.6320 S   0  0  0  0  0  0  0  0  0  0  0  0
  125.5560  129.6140   65.4560 C   0  0  0  0  0  0  0  0  0  0  0  0
  124.8680  130.4880   64.4080 C   0  0  0  0  0  0  0  0  0  0  0  0
  123.7460  130.1750   64.0100 O   0  0  0  0  0  0  0  0  0  0  0  0
  125.5780  131.5590   63.9920 N   0  0  0  0  0  0  0  0  0  0  0  0
  125.2430  132.5460   63.0440 C   0  0  0  0  0  0  0  0  0  0  0  0
  123.9480  133.0360   62.7920 C   0  0  0  0  0  0  0  0  0  0  0  0
  123.7590  134.0180   61.8170 C   0  0  0  0  0  0  0  0  0  0  0  0
  124.8700  134.4880   61.1170 C   0  0  0  0  0  0  0  0  0  0  0  0
  126.1280  134.0320   61.3410 N   0  0  0  0  0  0  0  0  0  0  0  0
  126.2950  133.0780   62.2910 C   0  0  0  0  0  0  0  0  0  0  0  0
  1  2  3  0
  2  3  1  0
  3  4  2  0
  4  5  1  0
  5  6  1  0
  5  7  1  0
  5  8  1  0
  4  9  1  0
  9 10  2  0
 10 11  1  0
 11 12  2  0
 12 13  1  0
 13 14  2  0
 14 15  1  0
 15 16  2  0
 10 17  1  0
 17 18  2  0
 18 19  1  0
 19 20  1  0
 20 21  1  0
 21 22  2  0
 21 23  1  0
 23 24  1  0
 24 25  2  0
 25 26  1  0
 26 27  2  0
 27 28  1  0
 28 29  2  0
 18  3  1  0
 29 24  1  0
 16 11  1  0
M  END
>  <Binding energies>  (15) 
[-7.36]

>  <Ligand effiencies>  (15) 
[-0.24533333333333335]

>  <Interactions>  (15) 
["V-B:GLU:543:CD:9877, V-A:HIS:456:CE1:4066, V-A:GLU:543:CD:4905, V-A:GLU:543:CG:4904, V-A:TYR:484:CZ:4343, V-B:GLU:543:C:9871, V-B:GLU:543:CB:9875, V-B:HIS:456:CE1:9038, V-A:TYR:484:CE1:4341, V-B:GLY:544:C:9881, V-A:HIS:456:CD2:4064, V-A:GLU:543:CB:4903, V-B:GLU:543:CG:9876, V-B:ILE:369:CD1:8207, V-B:ILE:369:CG2:8205, V-B:TRP:381:CH2:8340, V-B:GLY:454:CA:9017, H-B:TYR:484:OH:9316, V-B:LEU:475:CD2:9227, H-B:ARG:545:NH2:9897, V-B:LYS:547:CE:9919, H-B:GLY:454:N:9018, H-B:ARG:545:NH1:9896"]

$$$$
3ag_Grossjean_2025
     RDKit          3D

 30 32  0  0  0  0  0  0  0  0999 V2000
  128.5180  127.7250   62.1920 N   0  0  0  0  0  0  0  0  0  0  0  0
  128.6260  127.6070   63.3380 C   0  0  0  0  0  0  0  0  0  0  0  0
  128.7650  127.4540   64.7890 C   0  0  0  0  0  0  0  0  0  0  0  0
  129.4500  126.3420   65.3380 C   0  0  0  0  0  0  0  0  0  0  0  0
  130.1330  125.2720   64.4640 C   0  0  0  0  0  0  0  0  0  0  0  0
  130.6350  124.2640   65.1790 F   0  0  0  0  0  0  0  0  0  0  0  0
  129.2510  124.7560   63.6070 F   0  0  0  0  0  0  0  0  0  0  0  0
  131.1390  125.8130   63.7770 F   0  0  0  0  0  0  0  0  0  0  0  0
  129.5090  126.2130   66.7340 C   0  0  0  0  0  0  0  0  0  0  0  0
  128.8910  127.1590   67.5580 C   0  0  0  0  0  0  0  0  0  0  0  0
  128.9210  127.0690   69.0540 C   0  0  0  0  0  0  0  0  0  0  0  0
  129.9180  127.7260   69.7920 C   0  0  0  0  0  0  0  0  0  0  0  0
  129.9520  127.6470   71.1820 C   0  0  0  0  0  0  0  0  0  0  0  0
  128.9850  126.9060   71.8540 C   0  0  0  0  0  0  0  0  0  0  0  0
  127.9880  126.2430   71.1460 C   0  0  0  0  0  0  0  0  0  0  0  0
  127.9580  126.3240   69.7570 C   0  0  0  0  0  0  0  0  0  0  0  0
  128.2470  128.2310   67.0290 N   0  0  0  0  0  0  0  0  0  0  0  0
  128.1940  128.3870   65.6840 C   0  0  0  0  0  0  0  0  0  0  0  0
  127.3130  129.8450   65.1710 S   0  0  0  0  0  0  0  0  0  0  0  0
  125.5460  129.5470   65.4780 C   0  0  0  0  0  0  0  0  0  0  0  0
  124.6690  130.0310   64.3230 C   0  0  0  0  0  0  0  0  0  0  0  0
  123.4410  129.9950   64.4260 O   0  0  0  0  0  0  0  0  0  0  0  0
  125.3130  130.4870   63.2340 N   0  0  0  0  0  0  0  0  0  0  0  0
  124.6750  131.0280   62.0350 C   0  0  0  0  0  0  0  0  0  0  0  0
  125.1240  132.4400   61.6740 C   0  0  0  0  0  0  0  0  0  0  0  0
  126.4870  132.7360   61.5960 C   0  0  0  0  0  0  0  0  0  0  0  0
  126.9020  134.0160   61.2380 C   0  0  0  0  0  0  0  0  0  0  0  0
  125.9520  134.9930   60.9490 C   0  0  0  0  0  0  0  0  0  0  0  0
  124.5910  134.7010   61.0110 C   0  0  0  0  0  0  0  0  0  0  0  0
  124.1760  133.4210   61.3690 C   0  0  0  0  0  0  0  0  0  0  0  0
  1  2  3  0
  2  3  1  0
  3  4  2  0
  4  5  1  0
  5  6  1  0
  5  7  1  0
  5  8  1  0
  4  9  1  0
  9 10  2  0
 10 11  1  0
 11 12  2  0
 12 13  1  0
 13 14  2  0
 14 15  1  0
 15 16  2  0
 10 17  1  0
 17 18  2  0
 18 19  1  0
 19 20  1  0
 20 21  1  0
 21 22  2  0
 21 23  1  0
 23 24  1  0
 24 25  1  0
 25 26  2  0
 26 27  1  0
 27 28  2  0
 28 29  1  0
 29 30  2  0
 18  3  1  0
 30 25  1  0
 16 11  1  0
M  END
>  <Binding energies>  (16) 
[-7.8]

>  <Ligand effiencies>  (16) 
[-0.25161290322580643]

>  <Interactions>  (16) 
["V-B:GLU:543:CD:9877, V-A:HIS:456:CE1:4066, V-A:GLU:543:CD:4905, V-A:TYR:484:CZ:4343, V-B:GLU:543:C:9871, V-B:GLU:543:CB:9875, V-B:HIS:456:CE1:9038, V-A:TYR:484:CE1:4341, V-B:GLY:544:C:9881, V-B:GLU:543:CG:9876, V-B:ILE:369:CD1:8207, V-B:ILE:369:CG2:8205, V-B:ARG:545:CZ:9895, V-B:TRP:381:CH2:8340, V-A:ALA:541:CB:4889, V-A:TYR:539:CD2:4871, V-B:LEU:475:CD2:9227, V-B:ASP:366:CG:8181, H-B:ARG:545:NH2:9897, V-B:LYS:547:CE:9919, H-B:GLY:454:N:9018, H-B:ARG:545:NH1:9896, H-B:ARG:545:NE:9893"]

$$$$
3bc_Grossjean_2025
     RDKit          3D

 28 30  0  0  0  0  0  0  0  0999 V2000
  128.1170  127.6910   73.2260 C   0  0  0  0  0  0  0  0  0  0  0  0
  129.4010  127.4770   72.6520 O   0  0  0  0  0  0  0  0  0  0  0  0
  129.5100  127.3230   71.2830 C   0  0  0  0  0  0  0  0  0  0  0  0
  128.5920  126.4620   70.6800 C   0  0  0  0  0  0  0  0  0  0  0  0
  128.6230  126.2430   69.3050 C   0  0  0  0  0  0  0  0  0  0  0  0
  129.5820  126.8780   68.5140 C   0  0  0  0  0  0  0  0  0  0  0  0
  129.5280  126.6050   67.1340 N   0  0  0  0  0  0  0  0  0  0  0  0
  130.5150  126.6620   66.2150 C   0  0  0  0  0  0  0  0  0  0  0  0
  131.6890  126.9410   66.4620 O   0  0  0  0  0  0  0  0  0  0  0  0
  130.0820  126.3040   64.7860 C   0  0  0  0  0  0  0  0  0  0  0  0
  129.7530  124.5320   64.4950 S   0  0  0  0  0  0  0  0  0  0  0  0
  130.3220  124.1350   62.8570 C   0  0  0  0  0  0  0  0  0  0  0  0
  129.3210  123.9110   61.9710 N   0  0  0  0  0  0  0  0  0  0  0  0
  129.6150  123.6000   60.6820 C   0  0  0  0  0  0  0  0  0  0  0  0
  128.4500  123.3470   59.7710 C   0  0  0  0  0  0  0  0  0  0  0  0
  128.6370  122.7320   58.5240 C   0  0  0  0  0  0  0  0  0  0  0  0
  127.5600  122.4930   57.6730 C   0  0  0  0  0  0  0  0  0  0  0  0
  126.2790  122.8700   58.0600 C   0  0  0  0  0  0  0  0  0  0  0  0
  126.0670  123.4850   59.2900 C   0  0  0  0  0  0  0  0  0  0  0  0
  127.1460  123.7220   60.1370 C   0  0  0  0  0  0  0  0  0  0  0  0
  130.9420  123.5050   60.2510 C   0  0  0  0  0  0  0  0  0  0  0  0
  131.9870  123.7560   61.1470 C   0  0  0  0  0  0  0  0  0  0  0  0
  133.4210  123.6580   60.6270 C   0  0  0  0  0  0  0  0  0  0  0  0
  131.6850  124.0900   62.4850 C   0  0  0  0  0  0  0  0  0  0  0  0
  132.7600  124.4040   63.4270 C   0  0  0  0  0  0  0  0  0  0  0  0
  133.6130  124.6510   64.1700 N   0  0  0  0  0  0  0  0  0  0  0  0
  130.5000  127.7550   69.1100 C   0  0  0  0  0  0  0  0  0  0  0  0
  130.4660  127.9710   70.4860 C   0  0  0  0  0  0  0  0  0  0  0  0
  1  2  1  0
  2  3  1  0
  3  4  2  0
  4  5  1  0
  5  6  2  0
  6  7  1  0
  7  8  1  0
  8  9  2  0
  8 10  1  0
 10 11  1  0
 11 12  1  0
 12 13  2  0
 13 14  1  0
 14 15  1  0
 15 16  2  0
 16 17  1  0
 17 18  2  0
 18 19  1  0
 19 20  2  0
 14 21  2  0
 21 22  1  0
 22 23  1  0
 22 24  2  0
 24 25  1  0
 25 26  3  0
  6 27  1  0
 27 28  2  0
 28  3  1  0
 24 12  1  0
 20 15  1  0
M  END
>  <Binding energies>  (17) 
[-8.31]

>  <Ligand effiencies>  (17) 
[-0.28655172413793106]

>  <Interactions>  (17) 
["H-A:GLY:454:N:4046, V-B:TYR:539:CE2:9845, V-A:HIS:456:CE1:4066, V-B:GLU:543:C:9871, V-A:HIS:456:CD2:4064, V-B:HIS:456:CD2:9036, V-A:GLU:543:CB:4903, V-B:TYR:539:CZ:9846, V-B:TYR:539:CD2:9843, V-A:ASP:366:CG:3209, V-B:TYR:539:C:9836, H-A:ARG:545:NE:4921, H-A:TYR:484:OH:4344, H-B:GLU:543:OE1:9878, V-B:LYS:547:CE:9919, V-A:GLU:543:C:4899, H-A:LYS:547:NZ:4948, V-B:PRO:540:N:9853, V-B:PRO:540:CB:9854, V-B:PRO:540:CA:9852, V-A:GLY:544:C:4909, V-B:TYR:539:CE1:9844"]

$$$$
3bd_Grossjean_2025
     RDKit          3D

 26 28  0  0  0  0  0  0  0  0999 V2000
  134.4610  125.1540   65.3230 C   0  0  0  0  0  0  0  0  0  0  0  0
  132.9930  125.1730   64.9020 C   0  0  0  0  0  0  0  0  0  0  0  0
  132.0430  125.6070   65.8340 C   0  0  0  0  0  0  0  0  0  0  0  0
  130.6870  125.6350   65.4880 C   0  0  0  0  0  0  0  0  0  0  0  0
  129.6180  126.0930   66.4360 C   0  0  0  0  0  0  0  0  0  0  0  0
  128.7980  127.1870   66.1170 C   0  0  0  0  0  0  0  0  0  0  0  0
  127.8050  127.6180   66.9940 C   0  0  0  0  0  0  0  0  0  0  0  0
  127.6190  126.9600   68.2050 C   0  0  0  0  0  0  0  0  0  0  0  0
  128.4210  125.8750   68.5450 C   0  0  0  0  0  0  0  0  0  0  0  0
  129.4120  125.4470   67.6670 C   0  0  0  0  0  0  0  0  0  0  0  0
  130.2770  125.2570   64.2490 N   0  0  0  0  0  0  0  0  0  0  0  0
  131.1850  124.8330   63.3330 C   0  0  0  0  0  0  0  0  0  0  0  0
  130.5180  124.3540   61.7480 S   0  0  0  0  0  0  0  0  0  0  0  0
  129.5840  122.8100   61.9730 C   0  0  0  0  0  0  0  0  0  0  0  0
  128.4280  122.6900   60.9780 C   0  0  0  0  0  0  0  0  0  0  0  0
  128.5240  121.8950   60.0430 O   0  0  0  0  0  0  0  0  0  0  0  0
  127.3720  123.5000   61.2080 N   0  0  0  0  0  0  0  0  0  0  0  0
  126.1620  123.6000   60.4950 C   0  0  0  0  0  0  0  0  0  0  0  0
  126.2760  123.7880   59.1150 C   0  0  0  0  0  0  0  0  0  0  0  0
  125.1340  123.9080   58.3270 C   0  0  0  0  0  0  0  0  0  0  0  0
  123.8760  123.8500   58.9210 C   0  0  0  0  0  0  0  0  0  0  0  0
  123.7500  123.6770   60.2970 C   0  0  0  0  0  0  0  0  0  0  0  0
  124.8900  123.5550   61.0870 C   0  0  0  0  0  0  0  0  0  0  0  0
  132.5660  124.7720   63.6180 C   0  0  0  0  0  0  0  0  0  0  0  0
  133.5360  124.3130   62.6200 C   0  0  0  0  0  0  0  0  0  0  0  0
  134.3040  123.9520   61.8330 N   0  0  0  0  0  0  0  0  0  0  0  0
  1  2  1  0
  2  3  2  0
  3  4  1  0
  4  5  1  0
  5  6  2  0
  6  7  1  0
  7  8  2  0
  8  9  1  0
  9 10  2  0
  4 11  2  0
 11 12  1  0
 12 13  1  0
 13 14  1  0
 14 15  1  0
 15 16  2  0
 15 17  1  0
 17 18  1  0
 18 19  2  0
 19 20  1  0
 20 21  2  0
 21 22  1  0
 22 23  2  0
 12 24  2  0
 24 25  1  0
 25 26  3  0
 24  2  1  0
 10  5  1  0
 23 18  1  0
M  END
>  <Binding energies>  (18) 
[-8.03]

>  <Ligand effiencies>  (18) 
[-0.2974074074074074]

>  <Interactions>  (18) 
["V-B:GLU:543:CD:9877, V-A:ARG:545:CZ:4923, H-A:GLY:454:N:4046, V-A:ARG:545:CG:4919, V-A:GLY:454:CA:4045, V-A:HIS:456:CE1:4066, V-B:GLU:543:CA:9873, V-B:GLU:543:C:9871, V-B:GLU:543:CB:9875, V-B:HIS:456:CE1:9038, V-A:TYR:484:CE1:4341, V-B:ALA:541:CB:9861, V-A:ARG:545:CD:4920, V-A:GLY:453:C:4038, V-B:LEU:363:CD1:8157, V-B:PRO:540:CB:9854, V-B:LEU:363:CA:8153, V-B:PRO:540:CA:9852, V-A:GLY:453:CA:4040, V-B:LEU:363:CB:8155, V-B:ASN:362:C:8140, V-B:ASN:362:CB:8144, H-B:GLU:543:OE2:9879"]

$$$$
3be_Grossjean_2025
     RDKit          3D

 27 29  0  0  0  0  0  0  0  0999 V2000
  127.1420  134.9610   60.6110 C   0  0  0  0  0  0  0  0  0  0  0  0
  126.0350  134.2610   61.3750 C   0  0  0  0  0  0  0  0  0  0  0  0
  124.6950  134.6270   61.2210 C   0  0  0  0  0  0  0  0  0  0  0  0
  123.7300  133.9410   61.9580 C   0  0  0  0  0  0  0  0  0  0  0  0
  124.1220  132.9160   62.8220 C   0  0  0  0  0  0  0  0  0  0  0  0
  125.4810  132.5970   62.9270 C   0  0  0  0  0  0  0  0  0  0  0  0
  125.8130  131.5630   63.8210 N   0  0  0  0  0  0  0  0  0  0  0  0
  125.0310  130.5640   64.2870 C   0  0  0  0  0  0  0  0  0  0  0  0
  123.8460  130.4060   63.9880 O   0  0  0  0  0  0  0  0  0  0  0  0
  125.7320  129.5960   65.2520 C   0  0  0  0  0  0  0  0  0  0  0  0
  127.4880  129.9670   65.5840 S   0  0  0  0  0  0  0  0  0  0  0  0
  128.2960  128.4500   66.0470 C   0  0  0  0  0  0  0  0  0  0  0  0
  128.4070  128.2810   67.3870 N   0  0  0  0  0  0  0  0  0  0  0  0
  129.0010  127.1620   67.8820 C   0  0  0  0  0  0  0  0  0  0  0  0
  129.0960  127.0580   69.3760 C   0  0  0  0  0  0  0  0  0  0  0  0
  128.1880  126.2690   70.1000 C   0  0  0  0  0  0  0  0  0  0  0  0
  128.2690  126.1710   71.4850 C   0  0  0  0  0  0  0  0  0  0  0  0
  129.2630  126.8630   72.1690 C   0  0  0  0  0  0  0  0  0  0  0  0
  130.1730  127.6530   71.4770 C   0  0  0  0  0  0  0  0  0  0  0  0
  130.0880  127.7500   70.0910 C   0  0  0  0  0  0  0  0  0  0  0  0
  129.5050  126.1790   67.0240 C   0  0  0  0  0  0  0  0  0  0  0  0
  129.3770  126.3270   65.6390 C   0  0  0  0  0  0  0  0  0  0  0  0
  129.9270  125.2190   64.7420 C   0  0  0  0  0  0  0  0  0  0  0  0
  128.7480  127.4810   65.1230 C   0  0  0  0  0  0  0  0  0  0  0  0
  128.5550  127.6300   63.6790 C   0  0  0  0  0  0  0  0  0  0  0  0
  128.4030  127.7460   62.5380 N   0  0  0  0  0  0  0  0  0  0  0  0
  126.4300  133.2670   62.2100 N   0  0  0  0  0  0  0  0  0  0  0  0
  1  2  1  0
  2  3  2  0
  3  4  1  0
  4  5  2  0
  5  6  1  0
  6  7  1  0
  7  8  1  0
  8  9  2  0
  8 10  1  0
 10 11  1  0
 11 12  1  0
 12 13  2  0
 13 14  1  0
 14 15  1  0
 15 16  2  0
 16 17  1  0
 17 18  2  0
 18 19  1  0
 19 20  2  0
 14 21  2  0
 21 22  1  0
 22 23  1  0
 22 24  2  0
 24 25  1  0
 25 26  3  0
  6 27  2  0
 27  2  1  0
 24 12  1  0
 20 15  1  0
M  END
>  <Binding energies>  (19) 
[-8.28]

>  <Ligand effiencies>  (19) 
[-0.2957142857142857]

>  <Interactions>  (19) 
["V-B:GLU:543:CD:9877, V-A:HIS:456:CE1:4066, V-A:GLU:543:CD:4905, V-A:GLU:543:CG:4904, V-B:GLU:543:C:9871, V-B:GLU:543:CB:9875, V-B:HIS:456:CE1:9038, V-B:GLY:544:C:9881, V-A:HIS:456:CD2:4064, V-A:GLU:543:CB:4903, V-B:GLU:543:CG:9876, V-B:ILE:369:CD1:8207, V-B:ILE:369:CG2:8205, V-B:TRP:381:CH2:8340, V-A:ALA:541:CB:4889, V-B:GLY:454:CA:9017, H-B:TYR:484:OH:9316, V-A:TYR:539:CD2:4871, V-B:LEU:475:CD2:9227, V-B:LYS:547:CE:9919, H-B:GLY:454:N:9018"]

$$$$
3bf_Grossjean_2025
     RDKit          3D

 26 28  0  0  0  0  0  0  0  0999 V2000
  134.4320  125.1330   65.1860 C   0  0  0  0  0  0  0  0  0  0  0  0
  132.9560  125.1170   64.7960 C   0  0  0  0  0  0  0  0  0  0  0  0
  132.0210  125.5690   65.7330 C   0  0  0  0  0  0  0  0  0  0  0  0
  130.6600  125.5850   65.4110 C   0  0  0  0  0  0  0  0  0  0  0  0
  129.6110  126.0770   66.3620 C   0  0  0  0  0  0  0  0  0  0  0  0
  129.3870  125.4230   67.5830 C   0  0  0  0  0  0  0  0  0  0  0  0
  128.4150  125.8730   68.4720 C   0  0  0  0  0  0  0  0  0  0  0  0
  127.6490  126.9890   68.1480 C   0  0  0  0  0  0  0  0  0  0  0  0
  127.8500  127.6550   66.9440 C   0  0  0  0  0  0  0  0  0  0  0  0
  128.8230  127.2000   66.0570 C   0  0  0  0  0  0  0  0  0  0  0  0
  130.2260  125.1650   64.1920 N   0  0  0  0  0  0  0  0  0  0  0  0
  131.1180  124.7010   63.2820 C   0  0  0  0  0  0  0  0  0  0  0  0
  130.3710  124.1900   61.7490 S   0  0  0  0  0  0  0  0  0  0  0  0
  128.7510  123.4410   62.1310 C   0  0  0  0  0  0  0  0  0  0  0  0
  127.7780  123.3510   60.9460 C   0  0  0  0  0  0  0  0  0  0  0  0
  127.8860  122.4520   60.1100 O   0  0  0  0  0  0  0  0  0  0  0  0
  126.8170  124.3000   60.9350 N   0  0  0  0  0  0  0  0  0  0  0  0
  125.7890  124.5040   59.9950 C   0  0  0  0  0  0  0  0  0  0  0  0
  124.5790  123.8380   60.2180 C   0  0  0  0  0  0  0  0  0  0  0  0
  123.5160  124.0100   59.3290 C   0  0  0  0  0  0  0  0  0  0  0  0
  123.6940  124.8560   58.2340 C   0  0  0  0  0  0  0  0  0  0  0  0
  124.8520  125.5220   57.9990 N   0  0  0  0  0  0  0  0  0  0  0  0
  125.8770  125.3450   58.8720 C   0  0  0  0  0  0  0  0  0  0  0  0
  132.5080  124.6750   63.5320 C   0  0  0  0  0  0  0  0  0  0  0  0
  133.4740  124.2450   62.5180 C   0  0  0  0  0  0  0  0  0  0  0  0
  134.2380  123.9040   61.7180 N   0  0  0  0  0  0  0  0  0  0  0  0
  1  2  1  0
  2  3  2  0
  3  4  1  0
  4  5  1  0
  5  6  2  0
  6  7  1  0
  7  8  2  0
  8  9  1  0
  9 10  2  0
  4 11  2  0
 11 12  1  0
 12 13  1  0
 13 14  1  0
 14 15  1  0
 15 16  2  0
 15 17  1  0
 17 18  1  0
 18 19  2  0
 19 20  1  0
 20 21  2  0
 21 22  1  0
 22 23  2  0
 12 24  2  0
 24 25  1  0
 25 26  3  0
 24  2  1  0
 10  5  1  0
 23 18  1  0
M  END
>  <Binding energies>  (20) 
[-7.91]

>  <Ligand effiencies>  (20) 
[-0.292962962962963]

>  <Interactions>  (20) 
["V-B:GLU:543:CD:9877, V-A:ARG:545:CZ:4923, H-A:GLY:454:N:4046, V-A:GLY:454:CA:4045, V-A:HIS:456:CE1:4066, V-B:GLU:543:CA:9873, V-B:GLU:543:C:9871, V-B:GLU:543:CB:9875, V-B:HIS:456:CE1:9038, V-A:TYR:484:CE1:4341, V-B:GLU:543:CG:9876, H-B:ALA:541:N:9860, V-B:ASP:366:CB:8180, V-B:ALA:541:CB:9861, V-A:ARG:545:CD:4920, V-A:GLY:453:C:4038, V-B:LEU:363:CD1:8157, V-B:PRO:540:CB:9854, V-B:LEU:363:CA:8153, V-B:PRO:540:CA:9852, V-A:GLY:453:CA:4040, V-B:LEU:363:CB:8155, V-B:ASN:362:C:8140, H-B:TYR:531:OH:9764, H-B:GLU:543:OE2:9879"]

$$$$
3bg_Grossjean_2025
     RDKit          3D

 27 29  0  0  0  0  0  0  0  0999 V2000
  129.9270  125.6750   64.3240 C   0  0  0  0  0  0  0  0  0  0  0  0
  129.3190  126.6300   65.3490 C   0  0  0  0  0  0  0  0  0  0  0  0
  129.5690  126.3920   66.7040 C   0  0  0  0  0  0  0  0  0  0  0  0
  129.0370  127.2480   67.6780 C   0  0  0  0  0  0  0  0  0  0  0  0
  129.2770  127.0540   69.1500 C   0  0  0  0  0  0  0  0  0  0  0  0
  130.3050  127.7440   69.8130 C   0  0  0  0  0  0  0  0  0  0  0  0
  130.5190  127.5820   71.1790 C   0  0  0  0  0  0  0  0  0  0  0  0
  129.7050  126.7200   71.9070 C   0  0  0  0  0  0  0  0  0  0  0  0
  128.6870  126.0160   71.2760 C   0  0  0  0  0  0  0  0  0  0  0  0
  128.4790  126.1800   69.9090 C   0  0  0  0  0  0  0  0  0  0  0  0
  128.2910  128.3250   67.3170 N   0  0  0  0  0  0  0  0  0  0  0  0
  128.0410  128.5730   66.0050 C   0  0  0  0  0  0  0  0  0  0  0  0
  127.0780  130.0380   65.6640 S   0  0  0  0  0  0  0  0  0  0  0  0
  125.3330  129.5430   65.4790 C   0  0  0  0  0  0  0  0  0  0  0  0
  124.5790  130.4640   64.5140 C   0  0  0  0  0  0  0  0  0  0  0  0
  123.6930  130.0040   63.7940 O   0  0  0  0  0  0  0  0  0  0  0  0
  124.9600  131.7530   64.4970 N   0  0  0  0  0  0  0  0  0  0  0  0
  124.5090  132.7590   63.5350 C   0  0  0  0  0  0  0  0  0  0  0  0
  125.5950  133.1010   62.5220 C   0  0  0  0  0  0  0  0  0  0  0  0
  125.3160  133.9720   61.4630 C   0  0  0  0  0  0  0  0  0  0  0  0
  126.3050  134.2780   60.5330 C   0  0  0  0  0  0  0  0  0  0  0  0
  127.5760  133.7210   60.6700 C   0  0  0  0  0  0  0  0  0  0  0  0
  127.8680  132.8700   61.7330 C   0  0  0  0  0  0  0  0  0  0  0  0
  126.8770  132.5640   62.6630 C   0  0  0  0  0  0  0  0  0  0  0  0
  128.5320  127.7410   64.9780 C   0  0  0  0  0  0  0  0  0  0  0  0
  128.2600  128.0210   63.5660 C   0  0  0  0  0  0  0  0  0  0  0  0
  128.0450  128.2410   62.4510 N   0  0  0  0  0  0  0  0  0  0  0  0
  1  2  1  0
  2  3  2  0
  3  4  1  0
  4  5  1  0
  5  6  2  0
  6  7  1  0
  7  8  2  0
  8  9  1  0
  9 10  2  0
  4 11  2  0
 11 12  1  0
 12 13  1  0
 13 14  1  0
 14 15  1  0
 15 16  2  0
 15 17  1  0
 17 18  1  0
 18 19  1  0
 19 20  2  0
 20 21  1  0
 21 22  2  0
 22 23  1  0
 23 24  2  0
 12 25  2  0
 25 26  1  0
 26 27  3  0
 25  2  1  0
 10  5  1  0
 24 19  1  0
M  END
>  <Binding energies>  (21) 
[-8.28]

>  <Ligand effiencies>  (21) 
[-0.2957142857142857]

>  <Interactions>  (21) 
["V-B:GLU:543:CD:9877, V-A:HIS:456:CE1:4066, V-A:GLU:543:CD:4905, V-B:GLU:543:C:9871, V-B:HIS:456:CE1:9038, V-A:HIS:456:CD2:4064, V-A:ALA:541:CB:4889, V-B:GLY:454:CA:9017, H-B:TYR:484:OH:9316, V-A:TYR:539:CD2:4871, V-B:LEU:475:CD2:9227, H-B:ARG:545:NH2:9897, H-B:GLY:454:N:9018, V-B:TYR:484:CZ:9315, V-A:GLY:544:C:4909, H-B:ARG:545:NH1:9896"]

$$$$
3ca_Grossjean_2025
     RDKit          3D

 31 33  0  0  0  0  0  0  0  0999 V2000
  129.4790  130.5970   72.6500 C   0  0  0  0  0  0  0  0  0  0  0  0
  128.6630  129.5870   73.4620 C   0  0  0  0  0  0  0  0  0  0  0  0
  129.0410  128.2670   73.0930 O   0  0  0  0  0  0  0  0  0  0  0  0
  128.1910  127.4600   72.4080 C   0  0  0  0  0  0  0  0  0  0  0  0
  127.1370  127.0240   72.8810 O   0  0  0  0  0  0  0  0  0  0  0  0
  128.6580  127.1540   71.0130 C   0  0  0  0  0  0  0  0  0  0  0  0
  129.8060  127.7880   70.5210 C   0  0  0  0  0  0  0  0  0  0  0  0
  130.2630  127.5260   69.2320 C   0  0  0  0  0  0  0  0  0  0  0  0
  129.5780  126.6320   68.4070 C   0  0  0  0  0  0  0  0  0  0  0  0
  130.1260  126.4380   67.1250 N   0  0  0  0  0  0  0  0  0  0  0  0
  131.2220  126.9940   66.5630 C   0  0  0  0  0  0  0  0  0  0  0  0
  131.9780  127.7920   67.1150 O   0  0  0  0  0  0  0  0  0  0  0  0
  131.5190  126.5460   65.1280 C   0  0  0  0  0  0  0  0  0  0  0  0
  132.8030  125.2560   65.0300 S   0  0  0  0  0  0  0  0  0  0  0  0
  132.7790  124.4960   63.4110 C   0  0  0  0  0  0  0  0  0  0  0  0
  133.9880  124.3450   62.8150 N   0  0  0  0  0  0  0  0  0  0  0  0
  134.0480  123.7600   61.5990 C   0  0  0  0  0  0  0  0  0  0  0  0
  135.4350  123.6100   61.0070 C   0  0  0  0  0  0  0  0  0  0  0  0
  132.9120  123.3180   60.9240 C   0  0  0  0  0  0  0  0  0  0  0  0
  131.6510  123.4790   61.5100 C   0  0  0  0  0  0  0  0  0  0  0  0
  130.4600  123.0030   60.7430 C   0  0  0  0  0  0  0  0  0  0  0  0
  129.7800  121.8480   61.1470 C   0  0  0  0  0  0  0  0  0  0  0  0
  128.6750  121.3910   60.4330 C   0  0  0  0  0  0  0  0  0  0  0  0
  128.2480  122.0870   59.3050 C   0  0  0  0  0  0  0  0  0  0  0  0
  128.9180  123.2340   58.8850 C   0  0  0  0  0  0  0  0  0  0  0  0
  130.0230  123.6870   59.6020 C   0  0  0  0  0  0  0  0  0  0  0  0
  131.5760  124.0770   62.7940 C   0  0  0  0  0  0  0  0  0  0  0  0
  130.2880  124.2260   63.4800 C   0  0  0  0  0  0  0  0  0  0  0  0
  129.2710  124.3430   64.0210 N   0  0  0  0  0  0  0  0  0  0  0  0
  128.4320  125.9860   68.8950 C   0  0  0  0  0  0  0  0  0  0  0  0
  127.9780  126.2490   70.1850 C   0  0  0  0  0  0  0  0  0  0  0  0
  1  2  1  0
  2  3  1  0
  3  4  1  0
  4  5  2  0
  4  6  1  0
  6  7  2  0
  7  8  1  0
  8  9  2  0
  9 10  1  0
 10 11  1  0
 11 12  2  0
 11 13  1  0
 13 14  1  0
 14 15  1  0
 15 16  2  0
 16 17  1  0
 17 18  1  0
 17 19  2  0
 19 20  1  0
 20 21  1  0
 21 22  2  0
 22 23  1  0
 23 24  2  0
 24 25  1  0
 25 26  2  0
 20 27  2  0
 27 28  1  0
 28 29  3  0
  9 30  1  0
 30 31  2  0
 31  6  1  0
 27 15  1  0
 26 21  1  0
M  END
>  <Binding energies>  (22) 
[-8.68]

>  <Ligand effiencies>  (22) 
[-0.27125]

>  <Interactions>  (22) 
["V-A:ARG:545:CZ:4923, V-A:ILE:369:CB:3232, H-A:GLY:454:N:4046, V-A:ILE:369:CG1:3234, V-B:TYR:539:CE2:9845, V-A:HIS:456:CE1:4066, V-A:GLU:543:CD:4905, V-B:GLU:543:C:9871, V-B:GLU:543:CB:9875, V-B:HIS:456:CE1:9038, V-B:GLY:544:C:9881, V-B:HIS:456:CD2:9036, V-A:GLU:543:CB:4903, V-B:TYR:539:CZ:9846, V-B:TYR:539:CD2:9843, V-B:ALA:541:CB:9861, V-A:ASP:366:CG:3209, V-B:TYR:539:C:9836, H-A:ARG:545:NE:4921, H-A:TYR:484:OH:4344, V-B:LYS:547:CE:9919, V-A:LYS:547:CE:4947, V-A:GLU:543:C:4899, H-A:LYS:547:NZ:4948, V-B:PRO:540:N:9853, V-A:GLY:453:C:4038, V-B:PRO:540:C:9850, V-B:PRO:540:CA:9852, V-A:GLY:453:CA:4040, V-A:GLY:544:CA:4911, V-A:ASP:366:CA:3206"]

$$$$
3ce_Grossjean_2025
     RDKit          3D

 27 29  0  0  0  0  0  0  0  0999 V2000
  124.4920  131.6920   59.1100 C   0  0  0  0  0  0  0  0  0  0  0  0
  124.5550  132.0870   60.5730 C   0  0  0  0  0  0  0  0  0  0  0  0
  124.1290  133.3440   61.0100 C   0  0  0  0  0  0  0  0  0  0  0  0
  124.2060  133.6340   62.3710 C   0  0  0  0  0  0  0  0  0  0  0  0
  124.7030  132.6730   63.2550 C   0  0  0  0  0  0  0  0  0  0  0  0
  125.1220  131.4380   62.7500 C   0  0  0  0  0  0  0  0  0  0  0  0
  125.5940  130.5030   63.6870 N   0  0  0  0  0  0  0  0  0  0  0  0
  124.8950  129.8510   64.6410 C   0  0  0  0  0  0  0  0  0  0  0  0
  123.6850  129.9750   64.8410 O   0  0  0  0  0  0  0  0  0  0  0  0
  125.7010  128.8880   65.5120 C   0  0  0  0  0  0  0  0  0  0  0  0
  127.4770  129.2680   65.4800 S   0  0  0  0  0  0  0  0  0  0  0  0
  128.2910  127.8290   66.1350 C   0  0  0  0  0  0  0  0  0  0  0  0
  128.0730  127.6270   67.4580 N   0  0  0  0  0  0  0  0  0  0  0  0
  128.6350  126.5480   68.0490 C   0  0  0  0  0  0  0  0  0  0  0  0
  128.3390  126.3750   69.5260 C   0  0  0  0  0  0  0  0  0  0  0  0
  129.4390  125.6470   67.3550 C   0  0  0  0  0  0  0  0  0  0  0  0
  129.6980  125.8540   65.9930 C   0  0  0  0  0  0  0  0  0  0  0  0
  130.5870  124.8750   65.2990 C   0  0  0  0  0  0  0  0  0  0  0  0
  131.9210  125.2040   65.0300 C   0  0  0  0  0  0  0  0  0  0  0  0
  132.7540  124.2990   64.3770 C   0  0  0  0  0  0  0  0  0  0  0  0
  132.2540  123.0610   63.9820 C   0  0  0  0  0  0  0  0  0  0  0  0
  130.9260  122.7230   64.2330 C   0  0  0  0  0  0  0  0  0  0  0  0
  130.0960  123.6290   64.8870 C   0  0  0  0  0  0  0  0  0  0  0  0
  129.1070  126.9740   65.3570 C   0  0  0  0  0  0  0  0  0  0  0  0
  129.3290  127.2330   63.9310 C   0  0  0  0  0  0  0  0  0  0  0  0
  129.5050  127.4360   62.8060 N   0  0  0  0  0  0  0  0  0  0  0  0
  125.0420  131.1430   61.4180 N   0  0  0  0  0  0  0  0  0  0  0  0
  1  2  1  0
  2  3  2  0
  3  4  1  0
  4  5  2  0
  5  6  1  0
  6  7  1  0
  7  8  1  0
  8  9  2  0
  8 10  1  0
 10 11  1  0
 11 12  1  0
 12 13  2  0
 13 14  1  0
 14 15  1  0
 14 16  2  0
 16 17  1  0
 17 18  1  0
 18 19  2  0
 19 20  1  0
 20 21  2  0
 21 22  1  0
 22 23  2  0
 17 24  2  0
 24 25  1  0
 25 26  3  0
  6 27  2  0
 27  2  1  0
 24 12  1  0
 23 18  1  0
M  END
>  <Binding energies>  (23) 
[-8.01]

>  <Ligand effiencies>  (23) 
[-0.2860714285714286]

>  <Interactions>  (23) 
["V-A:LEU:475:CD1:4254, V-B:GLU:543:CD:9877, V-A:GLY:454:CA:4045, V-A:HIS:456:CE1:4066, V-A:GLU:543:CD:4905, V-A:TYR:484:CZ:4343, V-B:GLU:543:CB:9875, V-B:HIS:456:CE1:9038, V-A:TYR:484:CE1:4341, V-B:GLU:543:CG:9876, V-B:ILE:369:CD1:8207, V-B:ILE:369:CG2:8205, V-B:ARG:545:CZ:9895, V-A:TYR:539:CE2:4873, V-B:GLY:454:CA:9017, H-B:TYR:484:OH:9316, V-B:LEU:475:CD2:9227, V-B:ASP:366:CB:8180, V-B:ASP:366:CG:8181, H-B:GLY:454:N:9018, H-B:ARG:545:NH1:9896, H-B:ARG:545:NE:9893"]

$$$$
3cj_Grossjean_2025
     RDKit          3D

 25 27  0  0  0  0  0  0  0  0999 V2000
  126.7470  128.2900   62.0390 C   0  0  0  0  0  0  0  0  0  0  0  0
  127.8350  127.4980   62.7360 C   0  0  0  0  0  0  0  0  0  0  0  0
  128.1040  127.6670   64.0930 C   0  0  0  0  0  0  0  0  0  0  0  0
  129.1040  126.8970   64.7020 C   0  0  0  0  0  0  0  0  0  0  0  0
  129.3140  127.0650   66.1700 C   0  0  0  0  0  0  0  0  0  0  0  0
  130.5040  127.6150   66.6600 C   0  0  0  0  0  0  0  0  0  0  0  0
  130.7040  127.7590   68.0300 C   0  0  0  0  0  0  0  0  0  0  0  0
  129.7140  127.3480   68.9170 C   0  0  0  0  0  0  0  0  0  0  0  0
  128.5280  126.7900   68.4460 C   0  0  0  0  0  0  0  0  0  0  0  0
  128.3300  126.6470   67.0740 C   0  0  0  0  0  0  0  0  0  0  0  0
  129.8370  125.9870   63.9000 C   0  0  0  0  0  0  0  0  0  0  0  0
  130.9140  125.1740   64.4730 C   0  0  0  0  0  0  0  0  0  0  0  0
  131.7640  124.5320   64.9270 N   0  0  0  0  0  0  0  0  0  0  0  0
  129.4930  125.8770   62.5340 C   0  0  0  0  0  0  0  0  0  0  0  0
  130.2410  124.6800   61.4480 S   0  0  0  0  0  0  0  0  0  0  0  0
  129.4000  123.1120   61.8330 C   0  0  0  0  0  0  0  0  0  0  0  0
  128.1140  122.9390   61.0190 C   0  0  0  0  0  0  0  0  0  0  0  0
  127.9600  121.9270   60.3320 O   0  0  0  0  0  0  0  0  0  0  0  0
  127.2050  123.9290   61.1560 N   0  0  0  0  0  0  0  0  0  0  0  0
  125.9200  123.9500   60.6390 C   0  0  0  0  0  0  0  0  0  0  0  0
  124.8800  123.2470   61.0330 N   0  0  0  0  0  0  0  0  0  0  0  0
  123.8030  123.5450   60.3330 C   0  0  0  0  0  0  0  0  0  0  0  0
  123.9580  124.5110   59.3430 C   0  0  0  0  0  0  0  0  0  0  0  0
  125.6110  125.0520   59.3350 S   0  0  0  0  0  0  0  0  0  0  0  0
  128.5040  126.6120   61.9660 N   0  0  0  0  0  0  0  0  0  0  0  0
  1  2  1  0
  2  3  2  0
  3  4  1  0
  4  5  1  0
  5  6  2  0
  6  7  1  0
  7  8  2  0
  8  9  1  0
  9 10  2  0
  4 11  2  0
 11 12  1  0
 12 13  3  0
 11 14  1  0
 14 15  1  0
 15 16  1  0
 16 17  1  0
 17 18  2  0
 17 19  1  0
 19 20  1  0
 20 21  2  0
 21 22  1  0
 22 23  2  0
 23 24  1  0
 14 25  2  0
 25  2  1  0
 10  5  1  0
 24 20  1  0
M  END
>  <Binding energies>  (24) 
[-6.77]

>  <Ligand effiencies>  (24) 
[-0.2603846153846154]

>  <Interactions>  (24) 
["V-B:GLU:543:CD:9877, V-A:HIS:456:CE1:4066, V-A:GLU:543:CD:4905, V-A:GLU:543:CG:4904, V-B:GLU:543:CB:9875, V-B:HIS:456:CE1:9038, V-A:GLU:543:CB:4903, V-B:GLU:543:CG:9876, H-B:ALA:541:N:9860, V-B:ALA:541:CB:9861, H-A:TYR:484:OH:4344, V-B:PRO:540:CB:9854, V-B:LEU:363:CA:8153, V-B:PRO:540:CA:9852, V-B:ASN:362:C:8140, V-B:ASN:362:CB:8144, H-B:GLU:543:OE2:9879"]

$$$$
4ba_Grossjean_2025
     RDKit          3D

 28 30  0  0  0  0  0  0  0  0999 V2000
  126.1580  128.5000   74.1090 C   0  0  0  0  0  0  0  0  0  0  0  0
  126.6800  127.6470   72.9380 C   0  0  0  0  0  0  0  0  0  0  0  0
  128.1810  127.8160   72.6220 C   0  0  0  0  0  0  0  0  0  0  0  0
  128.9330  128.2790   73.4820 O   0  0  0  0  0  0  0  0  0  0  0  0
  128.6590  127.3980   71.2630 C   0  0  0  0  0  0  0  0  0  0  0  0
  129.8930  127.8670   70.7930 C   0  0  0  0  0  0  0  0  0  0  0  0
  130.3600  127.4960   69.5360 C   0  0  0  0  0  0  0  0  0  0  0  0
  129.6080  126.6460   68.7240 C   0  0  0  0  0  0  0  0  0  0  0  0
  130.1710  126.3420   67.4690 N   0  0  0  0  0  0  0  0  0  0  0  0
  131.1130  127.0040   66.7530 C   0  0  0  0  0  0  0  0  0  0  0  0
  131.6250  128.0690   67.1010 O   0  0  0  0  0  0  0  0  0  0  0  0
  131.4880  126.3760   65.4840 C   0  0  0  0  0  0  0  0  0  0  0  0
  132.9010  125.3260   65.3980 S   0  0  0  0  0  0  0  0  0  0  0  0
  132.6720  125.0790   63.6840 C   0  0  0  0  0  0  0  0  0  0  0  0
  133.4980  124.3100   62.9760 N   0  0  0  0  0  0  0  0  0  0  0  0
  133.2200  124.1950   61.6580 C   0  0  0  0  0  0  0  0  0  0  0  0
  134.1790  123.3220   60.8690 C   0  0  0  0  0  0  0  0  0  0  0  0
  132.1430  124.8210   61.0360 C   0  0  0  0  0  0  0  0  0  0  0  0
  131.2680  125.6330   61.7760 C   0  0  0  0  0  0  0  0  0  0  0  0
  130.0950  126.2990   61.0490 C   0  0  0  0  0  0  0  0  0  0  0  0
  130.0590  126.0140   59.7460 F   0  0  0  0  0  0  0  0  0  0  0  0
  128.9420  125.8900   61.5800 F   0  0  0  0  0  0  0  0  0  0  0  0
  130.1880  127.6240   61.1650 F   0  0  0  0  0  0  0  0  0  0  0  0
  131.5370  125.7800   63.1700 C   0  0  0  0  0  0  0  0  0  0  0  0
  130.8860  126.5200   64.2230 C   0  0  0  0  0  0  0  0  0  0  0  0
  129.7750  127.2950   64.0050 N   0  0  0  0  0  0  0  0  0  0  0  0
  128.3680  126.1770   69.1840 C   0  0  0  0  0  0  0  0  0  0  0  0
  127.9020  126.5500   70.4410 C   0  0  0  0  0  0  0  0  0  0  0  0
  1  2  1  0
  2  3  1  0
  3  4  2  0
  3  5  1  0
  5  6  2  0
  6  7  1  0
  7  8  2  0
  8  9  1  0
  9 10  1  0
 10 11  2  0
 10 12  1  0
 12 13  1  0
 13 14  1  0
 14 15  2  0
 15 16  1  0
 16 17  1  0
 16 18  2  0
 18 19  1  0
 19 20  1  0
 20 21  1  0
 20 22  1  0
 20 23  1  0
 19 24  2  0
 24 25  1  0
 25 26  1  0
  8 27  1  0
 27 28  2  0
 28  5  1  0
 25 12  2  0
 24 14  1  0
M  END
>  <Binding energies>  (25) 
[-6.93]

>  <Ligand effiencies>  (25) 
[-0.2235483870967742]

>  <Interactions>  (25) 
["H-A:GLU:543:OE1:4906, V-A:ARG:545:CZ:4923, H-A:GLU:543:OE2:4907, H-A:GLY:454:N:4046, V-A:ILE:369:CG1:3234, V-A:HIS:456:CE1:4066, V-A:GLU:543:CD:4905, V-B:GLU:543:C:9871, V-B:GLU:543:CB:9875, V-B:HIS:456:CE1:9038, V-B:GLY:544:C:9881, V-A:HIS:456:CD2:4064, V-B:HIS:456:CD2:9036, V-A:GLU:543:CB:4903, V-A:ASP:366:CG:3209, H-A:ARG:545:NE:4921, H-B:GLU:543:OE1:9878, V-B:LYS:547:CE:9919, H-A:HIS:456:NE2:4067, V-B:HIS:456:CG:9034, V-B:HIS:456:CB:9033, H-A:LYS:547:NZ:4948, H-B:GLU:543:OE2:9879"]

$$$$
4bb_Grossjean_2025
     RDKit          3D

 27 29  0  0  0  0  0  0  0  0999 V2000
  126.8440  127.4420   72.8870 C   0  0  0  0  0  0  0  0  0  0  0  0
  128.2920  127.7550   72.5030 C   0  0  0  0  0  0  0  0  0  0  0  0
  128.9940  128.3500   73.3230 O   0  0  0  0  0  0  0  0  0  0  0  0
  128.7760  127.3310   71.1490 C   0  0  0  0  0  0  0  0  0  0  0  0
  130.0330  127.7580   70.7040 C   0  0  0  0  0  0  0  0  0  0  0  0
  130.5060  127.3790   69.4510 C   0  0  0  0  0  0  0  0  0  0  0  0
  129.7350  126.5610   68.6220 C   0  0  0  0  0  0  0  0  0  0  0  0
  130.3080  126.2410   67.3750 N   0  0  0  0  0  0  0  0  0  0  0  0
  131.2510  126.8970   66.6550 C   0  0  0  0  0  0  0  0  0  0  0  0
  131.7650  127.9610   66.9970 O   0  0  0  0  0  0  0  0  0  0  0  0
  131.6190  126.2640   65.3860 C   0  0  0  0  0  0  0  0  0  0  0  0
  132.9580  125.1200   65.3210 S   0  0  0  0  0  0  0  0  0  0  0  0
  132.7570  124.9090   63.5970 C   0  0  0  0  0  0  0  0  0  0  0  0
  133.5400  124.0880   62.9010 N   0  0  0  0  0  0  0  0  0  0  0  0
  133.2880  124.0090   61.5740 C   0  0  0  0  0  0  0  0  0  0  0  0
  134.1910  123.0670   60.8000 C   0  0  0  0  0  0  0  0  0  0  0  0
  132.2810  124.7260   60.9330 C   0  0  0  0  0  0  0  0  0  0  0  0
  131.4520  125.5930   61.6620 C   0  0  0  0  0  0  0  0  0  0  0  0
  130.3570  126.3600   60.9130 C   0  0  0  0  0  0  0  0  0  0  0  0
  130.4540  127.6840   61.0600 F   0  0  0  0  0  0  0  0  0  0  0  0
  130.4340  126.0970   59.6080 F   0  0  0  0  0  0  0  0  0  0  0  0
  129.1580  125.9950   61.3660 F   0  0  0  0  0  0  0  0  0  0  0  0
  131.6910  125.7000   63.0650 C   0  0  0  0  0  0  0  0  0  0  0  0
  131.0640  126.4670   64.1120 C   0  0  0  0  0  0  0  0  0  0  0  0
  130.0110  127.3140   63.8790 N   0  0  0  0  0  0  0  0  0  0  0  0
  128.4710  126.1360   69.0590 C   0  0  0  0  0  0  0  0  0  0  0  0
  128.0000  126.5170   70.3120 C   0  0  0  0  0  0  0  0  0  0  0  0
  1  2  1  0
  2  3  2  0
  2  4  1  0
  4  5  2  0
  5  6  1  0
  6  7  2  0
  7  8  1  0
  8  9  1  0
  9 10  2  0
  9 11  1  0
 11 12  1  0
 12 13  1  0
 13 14  2  0
 14 15  1  0
 15 16  1  0
 15 17  2  0
 17 18  1  0
 18 19  1  0
 19 20  1  0
 19 21  1  0
 19 22  1  0
 18 23  2  0
 23 24  1  0
 24 25  1  0
  7 26  1  0
 26 27  2  0
 27  4  1  0
 24 11  2  0
 23 13  1  0
M  END
>  <Binding energies>  (26) 
[-6.82]

>  <Ligand effiencies>  (26) 
[-0.22733333333333333]

>  <Interactions>  (26) 
["H-A:GLU:543:OE1:4906, V-A:ARG:545:CZ:4923, V-A:ILE:369:CB:3232, H-A:GLU:543:OE2:4907, H-A:GLY:454:N:4046, V-A:ILE:369:CG1:3234, V-A:ILE:369:CG2:3233, V-A:HIS:456:CE1:4066, V-A:GLU:543:CD:4905, V-B:GLU:543:C:9871, V-B:GLU:543:CB:9875, V-B:HIS:456:CE1:9038, V-B:GLY:544:C:9881, V-A:HIS:456:CD2:4064, V-B:HIS:456:CD2:9036, V-A:ASP:366:CG:3209, H-A:ARG:545:NE:4921, H-A:TYR:484:OH:4344, H-B:GLU:543:OE1:9878, V-B:LYS:547:CE:9919, H-A:HIS:456:NE2:4067, V-B:HIS:456:CG:9034, V-B:HIS:456:CB:9033, H-A:LYS:547:NZ:4948"]

$$$$
4bd_Grossjean_2025
     RDKit          3D

 24 26  0  0  0  0  0  0  0  0999 V2000
  133.5510  125.4960   65.4780 C   0  0  0  0  0  0  0  0  0  0  0  0
  132.9560  125.0300   64.1620 C   0  0  0  0  0  0  0  0  0  0  0  0
  133.7700  124.6020   63.1170 C   0  0  0  0  0  0  0  0  0  0  0  0
  133.2070  124.1750   61.9040 C   0  0  0  0  0  0  0  0  0  0  0  0
  134.1430  123.7160   60.7820 C   0  0  0  0  0  0  0  0  0  0  0  0
  135.4270  123.9820   61.0320 F   0  0  0  0  0  0  0  0  0  0  0  0
  134.0340  122.3980   60.6140 F   0  0  0  0  0  0  0  0  0  0  0  0
  133.8230  124.3340   59.6460 F   0  0  0  0  0  0  0  0  0  0  0  0
  131.7840  124.2020   61.8010 C   0  0  0  0  0  0  0  0  0  0  0  0
  130.8690  123.8490   60.7430 C   0  0  0  0  0  0  0  0  0  0  0  0
  131.2920  123.3690   59.5300 N   0  0  0  0  0  0  0  0  0  0  0  0
  129.5150  124.0400   61.0660 C   0  0  0  0  0  0  0  0  0  0  0  0
  128.3350  123.8030   60.2300 C   0  0  0  0  0  0  0  0  0  0  0  0
  128.4470  123.2910   59.1150 O   0  0  0  0  0  0  0  0  0  0  0  0
  127.1500  124.1710   60.7790 N   0  0  0  0  0  0  0  0  0  0  0  0
  125.8550  124.1170   60.2310 C   0  0  0  0  0  0  0  0  0  0  0  0
  125.7290  124.5640   58.9130 C   0  0  0  0  0  0  0  0  0  0  0  0
  124.4900  124.5400   58.2780 C   0  0  0  0  0  0  0  0  0  0  0  0
  123.3750  124.0620   58.9600 C   0  0  0  0  0  0  0  0  0  0  0  0
  123.4890  123.6020   60.2700 C   0  0  0  0  0  0  0  0  0  0  0  0
  124.7270  123.6240   60.9080 C   0  0  0  0  0  0  0  0  0  0  0  0
  129.3330  124.6620   62.7040 S   0  0  0  0  0  0  0  0  0  0  0  0
  131.0640  124.6650   62.9460 C   0  0  0  0  0  0  0  0  0  0  0  0
  131.6050  125.0680   64.0940 N   0  0  0  0  0  0  0  0  0  0  0  0
  1  2  1  0
  2  3  2  0
  3  4  1  0
  4  5  1  0
  5  6  1  0
  5  7  1  0
  5  8  1  0
  4  9  2  0
  9 10  1  0
 10 11  1  0
 10 12  2  0
 12 13  1  0
 13 14  2  0
 13 15  1  0
 15 16  1  0
 16 17  2  0
 17 18  1  0
 18 19  2  0
 19 20  1  0
 20 21  2  0
 12 22  1  0
 22 23  1  0
 23 24  2  0
 24  2  1  0
 23  9  1  0
 21 16  1  0
M  END
>  <Binding energies>  (27) 
[-6.23]

>  <Ligand effiencies>  (27) 
[-0.23074074074074075]

>  <Interactions>  (27) 
["V-B:GLU:543:CD:9877, V-A:ARG:545:CZ:4923, V-A:ILE:369:CB:3232, V-A:ARG:545:CG:4919, V-A:ILE:369:CG1:3234, V-A:ILE:369:CG2:3233, V-A:GLY:454:CA:4045, V-B:TYR:539:CE2:9845, V-A:HIS:456:CE1:4066, V-B:GLU:543:CG:9876, V-B:TYR:539:CZ:9846, V-A:ASP:366:CG:3209, V-A:ASP:366:CB:3208, V-A:ARG:545:CD:4920, V-A:GLY:453:C:4038, V-B:LEU:363:CD1:8157, V-B:PRO:540:CB:9854, V-B:LEU:363:CA:8153, V-B:PRO:540:CA:9852, V-A:GLY:453:CA:4040, V-B:LEU:363:CB:8155, V-B:ASN:362:C:8140, V-B:ASN:362:CB:8144, V-A:ASP:366:CA:3206, V-A:CYS:365:C:3200, H-B:TYR:539:OH:9847, H-B:GLU:543:OE2:9879"]

$$$$
4be_Grossjean_2025
     RDKit          3D

 25 27  0  0  0  0  0  0  0  0999 V2000
  127.0960  126.2500   69.1420 C   0  0  0  0  0  0  0  0  0  0  0  0
  127.9770  126.6050   67.9590 C   0  0  0  0  0  0  0  0  0  0  0  0
  129.1680  125.9220   67.7040 C   0  0  0  0  0  0  0  0  0  0  0  0
  129.9290  126.3040   66.5980 C   0  0  0  0  0  0  0  0  0  0  0  0
  129.4860  127.3480   65.7840 C   0  0  0  0  0  0  0  0  0  0  0  0
  128.2790  127.9860   66.0930 C   0  0  0  0  0  0  0  0  0  0  0  0
  127.8930  129.0340   65.2380 N   0  0  0  0  0  0  0  0  0  0  0  0
  126.6670  129.5930   65.0750 C   0  0  0  0  0  0  0  0  0  0  0  0
  125.6640  129.2410   65.6990 O   0  0  0  0  0  0  0  0  0  0  0  0
  126.5900  130.6580   64.0720 C   0  0  0  0  0  0  0  0  0  0  0  0
  127.4930  132.1550   64.2990 S   0  0  0  0  0  0  0  0  0  0  0  0
  126.8620  132.8140   62.8070 C   0  0  0  0  0  0  0  0  0  0  0  0
  127.2070  134.0290   62.3840 N   0  0  0  0  0  0  0  0  0  0  0  0
  126.6560  134.4300   61.2150 C   0  0  0  0  0  0  0  0  0  0  0  0
  127.0590  135.8170   60.7510 C   0  0  0  0  0  0  0  0  0  0  0  0
  125.7790  133.6500   60.4660 C   0  0  0  0  0  0  0  0  0  0  0  0
  125.4130  132.3680   60.9060 C   0  0  0  0  0  0  0  0  0  0  0  0
  124.4470  131.5460   60.0450 C   0  0  0  0  0  0  0  0  0  0  0  0
  124.0850  132.1730   58.9230 F   0  0  0  0  0  0  0  0  0  0  0  0
  125.0250  130.3980   59.6900 F   0  0  0  0  0  0  0  0  0  0  0  0
  123.3370  131.2860   60.7350 F   0  0  0  0  0  0  0  0  0  0  0  0
  125.9730  131.9170   62.1380 C   0  0  0  0  0  0  0  0  0  0  0  0
  125.8300  130.6960   62.8930 C   0  0  0  0  0  0  0  0  0  0  0  0
  125.0250  129.6640   62.4850 N   0  0  0  0  0  0  0  0  0  0  0  0
  127.5320  127.6210   67.1760 N   0  0  0  0  0  0  0  0  0  0  0  0
  1  2  1  0
  2  3  2  0
  3  4  1  0
  4  5  2  0
  5  6  1  0
  6  7  1  0
  7  8  1  0
  8  9  2  0
  8 10  1  0
 10 11  1  0
 11 12  1  0
 12 13  2  0
 13 14  1  0
 14 15  1  0
 14 16  2  0
 16 17  1  0
 17 18  1  0
 18 19  1  0
 18 20  1  0
 18 21  1  0
 17 22  2  0
 22 23  1  0
 23 24  1  0
  6 25  2  0
 25  2  1  0
 23 10  2  0
 22 12  1  0
M  END
>  <Binding energies>  (28) 
[-6.25]

>  <Ligand effiencies>  (28) 
[-0.22321428571428573]

>  <Interactions>  (28) 
["V-B:GLU:543:CD:9877, H-A:GLU:543:OE1:4906, H-A:GLU:543:OE2:4907, V-A:HIS:456:CE1:4066, V-A:GLU:543:CD:4905, V-A:GLU:543:CG:4904, V-B:GLU:543:C:9871, V-B:GLU:543:CB:9875, V-B:HIS:456:CE1:9038, V-B:GLY:544:C:9881, V-B:ILE:369:CD1:8207, V-B:ILE:369:CG2:8205, V-B:ARG:545:CZ:9895, V-B:TRP:381:CH2:8340, V-A:ALA:541:CB:4889, V-A:TYR:539:CE2:4873, H-B:TYR:484:OH:9316, V-A:TYR:539:CD2:4871, V-B:LEU:475:CD2:9227, V-B:ASP:366:CB:8180, V-B:ASP:366:CG:8181, H-B:ASP:366:OD1:8182, H-B:ASP:366:OD2:8183, V-B:TYR:484:CE1:9313, V-B:TRP:381:CZ2:8338, V-B:ASP:366:CA:8178, V-B:ILE:369:CG1:8206, V-B:ILE:369:CB:8204"]

$$$$
4bg_Grossjean_2025
     RDKit          3D

 25 27  0  0  0  0  0  0  0  0999 V2000
  134.7570  125.1200   65.8100 C   0  0  0  0  0  0  0  0  0  0  0  0
  133.4140  124.9470   65.1240 C   0  0  0  0  0  0  0  0  0  0  0  0
  132.3090  125.6990   65.5120 C   0  0  0  0  0  0  0  0  0  0  0  0
  131.0700  125.5250   64.8730 C   0  0  0  0  0  0  0  0  0  0  0  0
  129.8820  126.3750   65.3340 C   0  0  0  0  0  0  0  0  0  0  0  0
  129.2910  127.0330   64.3340 F   0  0  0  0  0  0  0  0  0  0  0  0
  128.9600  125.5940   65.8970 F   0  0  0  0  0  0  0  0  0  0  0  0
  130.2920  127.2820   66.2210 F   0  0  0  0  0  0  0  0  0  0  0  0
  131.0070  124.5570   63.8270 C   0  0  0  0  0  0  0  0  0  0  0  0
  129.9390  124.1080   62.9690 C   0  0  0  0  0  0  0  0  0  0  0  0
  128.6610  124.6010   63.0530 N   0  0  0  0  0  0  0  0  0  0  0  0
  130.3250  123.1310   62.0380 C   0  0  0  0  0  0  0  0  0  0  0  0
  129.5010  122.4380   61.0480 C   0  0  0  0  0  0  0  0  0  0  0  0
  129.4780  121.2090   60.9760 O   0  0  0  0  0  0  0  0  0  0  0  0
  128.7460  123.2260   60.2540 N   0  0  0  0  0  0  0  0  0  0  0  0
  127.8610  122.7580   59.1870 C   0  0  0  0  0  0  0  0  0  0  0  0
  126.4200  123.2280   59.3400 C   0  0  0  0  0  0  0  0  0  0  0  0
  125.6690  123.5640   58.2100 C   0  0  0  0  0  0  0  0  0  0  0  0
  124.3410  123.9570   58.3490 C   0  0  0  0  0  0  0  0  0  0  0  0
  123.7620  123.9990   59.6160 C   0  0  0  0  0  0  0  0  0  0  0  0
  124.4990  123.6480   60.7450 C   0  0  0  0  0  0  0  0  0  0  0  0
  125.8290  123.2570   60.6060 C   0  0  0  0  0  0  0  0  0  0  0  0
  132.0240  122.7060   62.2220 S   0  0  0  0  0  0  0  0  0  0  0  0
  132.2160  123.8580   63.5220 C   0  0  0  0  0  0  0  0  0  0  0  0
  133.3880  124.0260   64.1340 N   0  0  0  0  0  0  0  0  0  0  0  0
  1  2  1  0
  2  3  2  0
  3  4  1  0
  4  5  1  0
  5  6  1  0
  5  7  1  0
  5  8  1  0
  4  9  2  0
  9 10  1  0
 10 11  1  0
 10 12  2  0
 12 13  1  0
 13 14  2  0
 13 15  1  0
 15 16  1  0
 16 17  1  0
 17 18  2  0
 18 19  1  0
 19 20  2  0
 20 21  1  0
 21 22  2  0
 12 23  1  0
 23 24  1  0
 24 25  2  0
 25  2  1  0
 24  9  1  0
 22 17  1  0
M  END
>  <Binding energies>  (29) 
[-6.76]

>  <Ligand effiencies>  (29) 
[-0.2414285714285714]

>  <Interactions>  (29) 
["V-A:LEU:475:CD1:4254, V-B:GLU:543:CD:9877, V-A:ARG:545:CZ:4923, H-A:GLY:454:N:4046, V-A:ARG:545:CG:4919, V-A:GLY:454:CA:4045, V-B:TYR:539:CE2:9845, V-A:HIS:456:CE1:4066, V-A:GLY:454:C:4043, V-A:GLU:543:CD:4905, V-B:GLU:543:CB:9875, V-A:GLU:543:CB:4903, V-B:GLU:543:CG:9876, V-B:ALA:541:CB:9861, H-A:TYR:484:OH:4344, H-B:GLU:543:OE1:9878, V-A:ARG:545:CD:4920, V-A:GLY:453:C:4038, V-B:LEU:363:CD1:8157, V-B:PRO:540:CB:9854, V-B:LEU:363:CA:8153, V-B:PRO:540:C:9850, V-B:PRO:540:CA:9852, V-A:GLY:453:CA:4040, V-B:ASN:362:C:8140, V-B:ASN:362:CB:8144, H-B:GLU:543:OE2:9879"]

$$$$
4ca_Grossjean_2025
     RDKit          3D

 34 37  0  0  0  0  0  0  0  0999 V2000
  125.3090  128.4080   74.7120 C   0  0  0  0  0  0  0  0  0  0  0  0
  126.0010  127.4950   73.6950 C   0  0  0  0  0  0  0  0  0  0  0  0
  127.0020  128.2300   73.0030 O   0  0  0  0  0  0  0  0  0  0  0  0
  128.2770  127.7690   72.9150 C   0  0  0  0  0  0  0  0  0  0  0  0
  129.0310  127.6670   73.8870 O   0  0  0  0  0  0  0  0  0  0  0  0
  128.6750  127.3940   71.5180 C   0  0  0  0  0  0  0  0  0  0  0  0
  127.8600  126.5220   70.7840 C   0  0  0  0  0  0  0  0  0  0  0  0
  128.2010  126.1580   69.4840 C   0  0  0  0  0  0  0  0  0  0  0  0
  129.3640  126.6510   68.8940 C   0  0  0  0  0  0  0  0  0  0  0  0
  129.6080  126.2260   67.5730 N   0  0  0  0  0  0  0  0  0  0  0  0
  130.4420  126.7340   66.6330 C   0  0  0  0  0  0  0  0  0  0  0  0
  131.2020  127.6830   66.8240 O   0  0  0  0  0  0  0  0  0  0  0  0
  130.4070  126.0570   65.3350 C   0  0  0  0  0  0  0  0  0  0  0  0
  128.9970  126.2180   64.2900 S   0  0  0  0  0  0  0  0  0  0  0  0
  129.7440  125.2320   63.0550 C   0  0  0  0  0  0  0  0  0  0  0  0
  129.1210  124.9650   61.9100 N   0  0  0  0  0  0  0  0  0  0  0  0
  129.7860  124.2020   61.0040 C   0  0  0  0  0  0  0  0  0  0  0  0
  129.0610  123.9260   59.7180 C   0  0  0  0  0  0  0  0  0  0  0  0
  129.5170  124.4680   58.5050 C   0  0  0  0  0  0  0  0  0  0  0  0
  128.8450  124.2200   57.3110 C   0  0  0  0  0  0  0  0  0  0  0  0
  127.7030  123.4250   57.3120 C   0  0  0  0  0  0  0  0  0  0  0  0
  127.2290  122.8790   58.5000 C   0  0  0  0  0  0  0  0  0  0  0  0
  127.9030  123.1290   59.6920 C   0  0  0  0  0  0  0  0  0  0  0  0
  131.0640  123.6940   61.2620 C   0  0  0  0  0  0  0  0  0  0  0  0
  131.7270  123.9660   62.4680 C   0  0  0  0  0  0  0  0  0  0  0  0
  133.1280  123.3800   62.6830 C   0  0  0  0  0  0  0  0  0  0  0  0
  133.5670  122.6760   61.6380 F   0  0  0  0  0  0  0  0  0  0  0  0
  134.0010  124.3630   62.8970 F   0  0  0  0  0  0  0  0  0  0  0  0
  133.1170  122.5630   63.7370 F   0  0  0  0  0  0  0  0  0  0  0  0
  131.0460  124.7800   63.4180 C   0  0  0  0  0  0  0  0  0  0  0  0
  131.4000  125.2690   64.7280 C   0  0  0  0  0  0  0  0  0  0  0  0
  132.6020  124.9850   65.3250 N   0  0  0  0  0  0  0  0  0  0  0  0
  130.1850  127.5290   69.6180 C   0  0  0  0  0  0  0  0  0  0  0  0
  129.8410  127.8930   70.9170 C   0  0  0  0  0  0  0  0  0  0  0  0
  1  2  1  0
  2  3  1  0
  3  4  1  0
  4  5  2  0
  4  6  1  0
  6  7  2  0
  7  8  1  0
  8  9  2  0
  9 10  1  0
 10 11  1  0
 11 12  2  0
 11 13  1  0
 13 14  1  0
 14 15  1  0
 15 16  2  0
 16 17  1  0
 17 18  1  0
 18 19  2  0
 19 20  1  0
 20 21  2  0
 21 22  1  0
 22 23  2  0
 17 24  2  0
 24 25  1  0
 25 26  1  0
 26 27  1  0
 26 28  1  0
 26 29  1  0
 25 30  2  0
 30 31  1  0
 31 32  1  0
  9 33  1  0
 33 34  2  0
 34  6  1  0
 31 13  2  0
 30 15  1  0
 23 18  1  0
M  END
>  <Binding energies>  (30) 
[-6.88]

>  <Ligand effiencies>  (30) 
[-0.18594594594594593]

>  <Interactions>  (30) 
["V-A:LEU:475:CD1:4254, V-B:GLU:543:CD:9877, V-A:ARG:545:CZ:4923, V-A:GLY:454:CA:4045, V-A:HIS:456:CE1:4066, V-A:GLY:454:C:4043, V-B:GLU:543:C:9871, V-B:GLU:543:CB:9875, V-B:HIS:456:CE1:9038, V-B:GLY:544:C:9881, V-A:HIS:456:CD2:4064, V-B:HIS:456:CD2:9036, V-B:GLU:543:CG:9876, V-B:TYR:539:CZ:9846, H-A:TYR:484:OH:4344, V-B:LYS:547:CE:9919, H-A:HIS:456:NE2:4067, V-B:HIS:456:CG:9034, H-B:GLU:543:O:9872, V-B:HIS:456:CB:9033, V-B:LYS:547:CD:9918, V-B:VAL:458:CG2:9055, H-A:LYS:547:NZ:4948, V-B:PRO:540:N:9853, V-A:GLY:453:C:4038, V-B:PRO:540:CA:9852, V-A:GLY:453:CA:4040, V-B:TYR:539:CE1:9844"]

$$$$
4cb_Grossjean_2025
     RDKit          3D

 33 36  0  0  0  0  0  0  0  0999 V2000
  130.7920  123.4740   73.4010 C   0  0  0  0  0  0  0  0  0  0  0  0
  129.7450  124.2440   72.8280 O   0  0  0  0  0  0  0  0  0  0  0  0
  129.7840  125.6010   72.8470 C   0  0  0  0  0  0  0  0  0  0  0  0
  130.0330  126.2610   73.8610 O   0  0  0  0  0  0  0  0  0  0  0  0
  129.4930  126.2220   71.5100 C   0  0  0  0  0  0  0  0  0  0  0  0
  128.3860  125.7790   70.7760 C   0  0  0  0  0  0  0  0  0  0  0  0
  128.0860  126.3400   69.5380 C   0  0  0  0  0  0  0  0  0  0  0  0
  128.8890  127.3490   69.0060 C   0  0  0  0  0  0  0  0  0  0  0  0
  128.4850  127.8550   67.7550 N   0  0  0  0  0  0  0  0  0  0  0  0
  128.7400  127.3980   66.5050 C   0  0  0  0  0  0  0  0  0  0  0  0
  129.3720  126.3690   66.2610 O   0  0  0  0  0  0  0  0  0  0  0  0
  128.1890  128.2100   65.4170 C   0  0  0  0  0  0  0  0  0  0  0  0
  127.4870  129.7900   65.7580 S   0  0  0  0  0  0  0  0  0  0  0  0
  127.1540  130.0590   64.0630 C   0  0  0  0  0  0  0  0  0  0  0  0
  126.5780  131.1790   63.6370 N   0  0  0  0  0  0  0  0  0  0  0  0
  126.3690  131.3020   62.3000 C   0  0  0  0  0  0  0  0  0  0  0  0
  125.7220  132.5800   61.8500 C   0  0  0  0  0  0  0  0  0  0  0  0
  124.3870  132.8630   62.1780 C   0  0  0  0  0  0  0  0  0  0  0  0
  123.7790  134.0450   61.7600 C   0  0  0  0  0  0  0  0  0  0  0  0
  124.5020  134.9630   61.0060 C   0  0  0  0  0  0  0  0  0  0  0  0
  125.8270  134.7060   60.6650 C   0  0  0  0  0  0  0  0  0  0  0  0
  126.4280  133.5230   61.0830 C   0  0  0  0  0  0  0  0  0  0  0  0
  126.7210  130.2890   61.4020 C   0  0  0  0  0  0  0  0  0  0  0  0
  127.3260  129.1020   61.8410 C   0  0  0  0  0  0  0  0  0  0  0  0
  127.6880  128.0340   60.8020 C   0  0  0  0  0  0  0  0  0  0  0  0
  128.9300  127.5670   60.9430 F   0  0  0  0  0  0  0  0  0  0  0  0
  126.8570  126.9970   60.9140 F   0  0  0  0  0  0  0  0  0  0  0  0
  127.5900  128.5450   59.5750 F   0  0  0  0  0  0  0  0  0  0  0  0
  127.5640  128.9700   63.2390 C   0  0  0  0  0  0  0  0  0  0  0  0
  128.1580  127.9280   64.0410 C   0  0  0  0  0  0  0  0  0  0  0  0
  128.6470  126.7650   63.5020 N   0  0  0  0  0  0  0  0  0  0  0  0
  129.9980  127.8020   69.7360 C   0  0  0  0  0  0  0  0  0  0  0  0
  130.2960  127.2400   70.9740 C   0  0  0  0  0  0  0  0  0  0  0  0
  1  2  1  0
  2  3  1  0
  3  4  2  0
  3  5  1  0
  5  6  2  0
  6  7  1  0
  7  8  2  0
  8  9  1  0
  9 10  1  0
 10 11  2  0
 10 12  1  0
 12 13  1  0
 13 14  1  0
 14 15  2  0
 15 16  1  0
 16 17  1  0
 17 18  2  0
 18 19  1  0
 19 20  2  0
 20 21  1  0
 21 22  2  0
 16 23  2  0
 23 24  1  0
 24 25  1  0
 25 26  1  0
 25 27  1  0
 25 28  1  0
 24 29  2  0
 29 30  1  0
 30 31  1  0
  8 32  1  0
 32 33  2  0
 33  5  1  0
 30 12  2  0
 29 14  1  0
 22 17  1  0
M  END
>  <Binding energies>  (31) 
[-6.64]

>  <Ligand effiencies>  (31) 
[-0.18444444444444444]

>  <Interactions>  (31) 
["V-B:GLU:543:CD:9877, V-A:HIS:456:CE1:4066, V-A:GLU:543:CD:4905, H-B:HIS:456:NE2:9039, V-A:GLU:543:CG:4904, V-B:GLU:543:C:9871, V-B:HIS:456:CE1:9038, V-B:GLY:544:C:9881, V-A:HIS:456:CD2:4064, V-B:ILE:369:CD1:8207, V-B:ILE:369:CG2:8205, V-B:TRP:381:CH2:8340, V-A:TYR:539:CD2:4871, V-B:LEU:475:CD2:9227, H-B:GLU:543:OE1:9878, V-B:LYS:547:CE:9919, H-A:LYS:547:NZ:4948, H-B:LYS:547:NZ:9920, V-B:TRP:381:CZ2:8338, H-B:GLU:543:OE2:9879"]

$$$$
4cc_Grossjean_2025
     RDKit          3D

 31 34  0  0  0  0  0  0  0  0999 V2000
  134.2480  117.8480   60.9930 C   0  0  0  0  0  0  0  0  0  0  0  0
  134.5150  119.1270   60.4280 O   0  0  0  0  0  0  0  0  0  0  0  0
  133.9540  120.2500   61.0060 C   0  0  0  0  0  0  0  0  0  0  0  0
  132.5610  120.2970   61.0510 C   0  0  0  0  0  0  0  0  0  0  0  0
  131.9070  121.3880   61.6160 C   0  0  0  0  0  0  0  0  0  0  0  0
  132.6400  122.4560   62.1360 C   0  0  0  0  0  0  0  0  0  0  0  0
  131.8930  123.5060   62.7000 N   0  0  0  0  0  0  0  0  0  0  0  0
  132.3230  124.5870   63.3960 C   0  0  0  0  0  0  0  0  0  0  0  0
  133.5100  124.8370   63.6140 O   0  0  0  0  0  0  0  0  0  0  0  0
  131.2690  125.4760   63.8930 C   0  0  0  0  0  0  0  0  0  0  0  0
  130.5080  126.6410   62.8120 S   0  0  0  0  0  0  0  0  0  0  0  0
  129.4680  127.2180   64.0940 C   0  0  0  0  0  0  0  0  0  0  0  0
  128.5800  128.1870   63.8840 N   0  0  0  0  0  0  0  0  0  0  0  0
  127.8100  128.5620   64.9380 C   0  0  0  0  0  0  0  0  0  0  0  0
  126.8200  129.6590   64.6740 C   0  0  0  0  0  0  0  0  0  0  0  0
  127.2340  131.0000   64.6160 C   0  0  0  0  0  0  0  0  0  0  0  0
  126.3210  132.0240   64.3720 C   0  0  0  0  0  0  0  0  0  0  0  0
  124.9770  131.7200   64.1840 C   0  0  0  0  0  0  0  0  0  0  0  0
  124.5400  130.4000   64.2400 C   0  0  0  0  0  0  0  0  0  0  0  0
  125.4560  129.3800   64.4850 C   0  0  0  0  0  0  0  0  0  0  0  0
  127.9460  127.9740   66.2000 C   0  0  0  0  0  0  0  0  0  0  0  0
  128.8800  126.9510   66.4310 C   0  0  0  0  0  0  0  0  0  0  0  0
  128.9720  126.3470   67.8370 C   0  0  0  0  0  0  0  0  0  0  0  0
  127.9080  126.6190   68.5960 F   0  0  0  0  0  0  0  0  0  0  0  0
  129.0710  125.0200   67.7520 F   0  0  0  0  0  0  0  0  0  0  0  0
  130.0440  126.8280   68.4660 F   0  0  0  0  0  0  0  0  0  0  0  0
  129.6880  126.5440   65.3310 C   0  0  0  0  0  0  0  0  0  0  0  0
  130.7270  125.5550   65.1860 C   0  0  0  0  0  0  0  0  0  0  0  0
  131.1450  124.7620   66.2250 N   0  0  0  0  0  0  0  0  0  0  0  0
  134.0420  122.4100   62.1050 C   0  0  0  0  0  0  0  0  0  0  0  0
  134.6920  121.3170   61.5400 C   0  0  0  0  0  0  0  0  0  0  0  0
  1  2  1  0
  2  3  1  0
  3  4  2  0
  4  5  1  0
  5  6  2  0
  6  7  1  0
  7  8  1  0
  8  9  2  0
  8 10  1  0
 10 11  1  0
 11 12  1  0
 12 13  2  0
 13 14  1  0
 14 15  1  0
 15 16  2  0
 16 17  1  0
 17 18  2  0
 18 19  1  0
 19 20  2  0
 14 21  2  0
 21 22  1  0
 22 23  1  0
 23 24  1  0
 23 25  1  0
 23 26  1  0
 22 27  2  0
 27 28  1  0
 28 29  1  0
  6 30  1  0
 30 31  2  0
 31  3  1  0
 28 10  2  0
 27 12  1  0
 20 15  1  0
M  END
>  <Binding energies>  (32) 
[-7.0]

>  <Ligand effiencies>  (32) 
[-0.20588235294117646]

>  <Interactions>  (32) 
["V-A:LEU:475:CD1:4254, V-B:GLU:543:CD:9877, V-A:ILE:369:CB:3232, H-A:ARG:545:NH2:4925, H-A:ARG:545:NH1:4924, H-A:GLY:454:N:4046, V-A:ILE:369:CG1:3234, V-A:ILE:369:CG2:3233, V-A:GLY:454:CA:4045, V-B:TYR:539:CE2:9845, V-A:HIS:456:CE1:4066, V-A:GLU:543:CD:4905, V-A:GLU:543:CG:4904, V-A:TYR:484:CZ:4343, V-B:GLU:543:CA:9873, V-B:GLU:543:C:9871, V-B:GLU:543:CB:9875, V-B:HIS:456:CE1:9038, V-A:TYR:484:CE1:4341, V-B:GLU:543:CG:9876, V-B:ARG:545:CZ:9895, V-B:GLY:454:CA:9017, V-B:TYR:539:CD2:9843, H-A:TYR:484:OH:4344, H-A:HIS:456:NE2:4067, V-A:GLY:453:C:4038, V-A:ILE:369:CD1:3235, V-B:TYR:484:CE1:9313, V-B:TYR:484:CZ:9315, V-A:SER:385:C:3401, V-A:TRP:381:CH2:3368, V-A:SER:385:CA:3403, V-A:TRP:381:CZ2:3366, V-A:SER:385:CB:3405"]

$$$$
4ce_Grossjean_2025
     RDKit          3D

 30 33  0  0  0  0  0  0  0  0999 V2000
  127.2360  135.9560   60.6190 C   0  0  0  0  0  0  0  0  0  0  0  0
  126.3400  134.8150   61.0640 C   0  0  0  0  0  0  0  0  0  0  0  0
  124.9560  134.8570   60.8750 C   0  0  0  0  0  0  0  0  0  0  0  0
  124.1940  133.7690   61.3030 C   0  0  0  0  0  0  0  0  0  0  0  0
  124.8270  132.6770   61.8990 C   0  0  0  0  0  0  0  0  0  0  0  0
  126.2170  132.7020   62.0630 C   0  0  0  0  0  0  0  0  0  0  0  0
  126.7980  131.5630   62.6490 N   0  0  0  0  0  0  0  0  0  0  0  0
  126.5660  131.0260   63.8730 C   0  0  0  0  0  0  0  0  0  0  0  0
  125.7540  131.4830   64.6780 O   0  0  0  0  0  0  0  0  0  0  0  0
  127.3560  129.8360   64.1980 C   0  0  0  0  0  0  0  0  0  0  0  0
  127.9170  128.7660   62.9140 S   0  0  0  0  0  0  0  0  0  0  0  0
  128.7330  127.7380   64.0670 C   0  0  0  0  0  0  0  0  0  0  0  0
  129.4100  126.6600   63.6780 N   0  0  0  0  0  0  0  0  0  0  0  0
  130.0250  125.9300   64.6450 C   0  0  0  0  0  0  0  0  0  0  0  0
  130.7830  124.7260   64.1730 C   0  0  0  0  0  0  0  0  0  0  0  0
  132.0900  124.8520   63.6740 C   0  0  0  0  0  0  0  0  0  0  0  0
  132.7980  123.7380   63.2280 C   0  0  0  0  0  0  0  0  0  0  0  0
  132.2070  122.4800   63.2760 C   0  0  0  0  0  0  0  0  0  0  0  0
  130.9140  122.3280   63.7640 C   0  0  0  0  0  0  0  0  0  0  0  0
  130.2090  123.4440   64.2080 C   0  0  0  0  0  0  0  0  0  0  0  0
  129.9390  126.2740   65.9990 C   0  0  0  0  0  0  0  0  0  0  0  0
  129.2230  127.4060   66.4200 C   0  0  0  0  0  0  0  0  0  0  0  0
  129.1720  127.7250   67.9180 C   0  0  0  0  0  0  0  0  0  0  0  0
  129.3750  129.0170   68.1850 F   0  0  0  0  0  0  0  0  0  0  0  0
  127.9750  127.4000   68.4070 F   0  0  0  0  0  0  0  0  0  0  0  0
  130.1130  127.0320   68.5590 F   0  0  0  0  0  0  0  0  0  0  0  0
  128.5880  128.1870   65.4120 C   0  0  0  0  0  0  0  0  0  0  0  0
  127.7920  129.3900   65.4570 C   0  0  0  0  0  0  0  0  0  0  0  0
  127.4930  130.0390   66.6270 N   0  0  0  0  0  0  0  0  0  0  0  0
  126.9690  133.7610   61.6440 N   0  0  0  0  0  0  0  0  0  0  0  0
  1  2  1  0
  2  3  2  0
  3  4  1  0
  4  5  2  0
  5  6  1  0
  6  7  1  0
  7  8  1  0
  8  9  2  0
  8 10  1  0
 10 11  1  0
 11 12  1  0
 12 13  2  0
 13 14  1  0
 14 15  1  0
 15 16  2  0
 16 17  1  0
 17 18  2  0
 18 19  1  0
 19 20  2  0
 14 21  2  0
 21 22  1  0
 22 23  1  0
 23 24  1  0
 23 25  1  0
 23 26  1  0
 22 27  2  0
 27 28  1  0
 28 29  1  0
  6 30  2  0
 30  2  1  0
 28 10  2  0
 27 12  1  0
 20 15  1  0
M  END
>  <Binding energies>  (33) 
[-6.81]

>  <Ligand effiencies>  (33) 
[-0.20636363636363636]

>  <Interactions>  (33) 
["V-A:LEU:475:CD1:4254, V-B:GLU:543:CD:9877, H-A:GLU:543:OE2:4907, V-A:GLY:454:CA:4045, V-A:HIS:456:CE1:4066, V-A:GLU:543:CD:4905, H-B:HIS:456:NE2:9039, V-A:GLU:543:CG:4904, V-B:HIS:456:CE1:9038, V-B:HIS:456:CD2:9036, H-A:GLU:543:O:4900, V-A:GLU:543:CB:4903, V-B:GLU:543:CG:9876, V-B:ILE:369:CD1:8207, V-B:ILE:369:CG2:8205, V-B:TRP:381:CH2:8340, H-B:TYR:484:OH:9316, V-A:TYR:539:CD2:4871, V-B:LEU:475:CD2:9227, V-A:GLU:543:C:4899, V-A:GLU:543:CA:4901, V-A:LEU:475:CD2:4255, V-B:TYR:484:CE1:9313, V-B:TYR:484:CZ:9315, V-B:TRP:381:CZ2:8338, V-B:PRO:482:CG:9295"]

$$$$
4cf_Grossjean_2025
     RDKit          3D

 29 32  0  0  0  0  0  0  0  0999 V2000
  131.1320  124.7520   66.2540 N   0  0  0  0  0  0  0  0  0  0  0  0
  130.7120  125.5120   65.1920 C   0  0  0  0  0  0  0  0  0  0  0  0
  131.2350  125.3790   63.8960 C   0  0  0  0  0  0  0  0  0  0  0  0
  132.3000  124.4880   63.4270 C   0  0  0  0  0  0  0  0  0  0  0  0
  133.4830  124.7630   63.6330 O   0  0  0  0  0  0  0  0  0  0  0  0
  131.8820  123.3730   62.7820 N   0  0  0  0  0  0  0  0  0  0  0  0
  132.6360  122.3520   62.1720 C   0  0  0  0  0  0  0  0  0  0  0  0
  134.0380  122.3400   62.0390 C   0  0  0  0  0  0  0  0  0  0  0  0
  134.6610  121.2680   61.3970 C   0  0  0  0  0  0  0  0  0  0  0  0
  133.8690  120.2330   60.9010 C   0  0  0  0  0  0  0  0  0  0  0  0
  132.5160  120.2230   61.0100 N   0  0  0  0  0  0  0  0  0  0  0  0
  131.9240  121.2730   61.6360 C   0  0  0  0  0  0  0  0  0  0  0  0
  130.4640  126.5050   62.7810 S   0  0  0  0  0  0  0  0  0  0  0  0
  129.4560  127.1480   64.0560 C   0  0  0  0  0  0  0  0  0  0  0  0
  128.5800  128.1240   63.8240 N   0  0  0  0  0  0  0  0  0  0  0  0
  127.8530  128.5690   64.8830 C   0  0  0  0  0  0  0  0  0  0  0  0
  126.8800  129.6750   64.5930 C   0  0  0  0  0  0  0  0  0  0  0  0
  125.5400  129.3900   64.2880 C   0  0  0  0  0  0  0  0  0  0  0  0
  124.6310  130.4090   64.0190 C   0  0  0  0  0  0  0  0  0  0  0  0
  125.0520  131.7340   64.0550 C   0  0  0  0  0  0  0  0  0  0  0  0
  126.3730  132.0460   64.3580 C   0  0  0  0  0  0  0  0  0  0  0  0
  127.2780  131.0230   64.6260 C   0  0  0  0  0  0  0  0  0  0  0  0
  127.9910  128.0170   66.1600 C   0  0  0  0  0  0  0  0  0  0  0  0
  128.9080  126.9840   66.4130 C   0  0  0  0  0  0  0  0  0  0  0  0
  129.0110  126.4280   67.8380 C   0  0  0  0  0  0  0  0  0  0  0  0
  130.1070  126.8350   68.4820 F   0  0  0  0  0  0  0  0  0  0  0  0
  127.9580  126.8230   68.5530 F   0  0  0  0  0  0  0  0  0  0  0  0
  129.0430  125.0960   67.8010 F   0  0  0  0  0  0  0  0  0  0  0  0
  129.6890  126.5220   65.3150 C   0  0  0  0  0  0  0  0  0  0  0  0
  1  2  1  0
  2  3  2  0
  3  4  1  0
  4  5  2  0
  4  6  1  0
  6  7  1  0
  7  8  2  0
  8  9  1  0
  9 10  2  0
 10 11  1  0
 11 12  2  0
  3 13  1  0
 13 14  1  0
 14 15  2  0
 15 16  1  0
 16 17  1  0
 17 18  2  0
 18 19  1  0
 19 20  2  0
 20 21  1  0
 21 22  2  0
 16 23  2  0
 23 24  1  0
 24 25  1  0
 25 26  1  0
 25 27  1  0
 25 28  1  0
 24 29  2  0
 29  2  1  0
 12  7  1  0
 29 14  1  0
 22 17  1  0
M  END
>  <Binding energies>  (34) 
[-7.01]

>  <Ligand effiencies>  (34) 
[-0.2190625]

>  <Interactions>  (34) 
["V-A:LEU:475:CD1:4254, V-B:GLU:543:CD:9877, V-A:ILE:369:CB:3232, H-A:ARG:545:NH2:4925, H-A:GLY:454:N:4046, V-A:ILE:369:CG1:3234, V-A:ILE:369:CG2:3233, V-A:GLY:454:CA:4045, V-B:TYR:539:CE2:9845, V-A:HIS:456:CE1:4066, V-A:GLU:543:CD:4905, V-A:GLU:543:CG:4904, V-A:TYR:484:CZ:4343, V-B:GLU:543:CA:9873, V-B:GLU:543:C:9871, V-B:GLU:543:CB:9875, V-B:HIS:456:CE1:9038, V-A:TYR:484:CE1:4341, V-B:GLU:543:CG:9876, V-B:ARG:545:CZ:9895, V-B:GLY:454:CA:9017, V-B:TYR:539:CD2:9843, H-A:TYR:484:OH:4344, H-A:HIS:456:NE2:4067, V-A:GLY:453:C:4038, V-A:ILE:369:CD1:3235, V-B:TYR:484:CE1:9313, V-B:TYR:484:CZ:9315"]

$$$$
4ci_Grossjean_2025
     RDKit          3D

 28 31  0  0  0  0  0  0  0  0999 V2000
  131.1290  124.7520   66.2410 N   0  0  0  0  0  0  0  0  0  0  0  0
  130.7240  125.5460   65.2000 C   0  0  0  0  0  0  0  0  0  0  0  0
  131.2870  125.4760   63.9150 C   0  0  0  0  0  0  0  0  0  0  0  0
  132.3500  124.5910   63.4310 C   0  0  0  0  0  0  0  0  0  0  0  0
  133.5110  124.7280   63.8250 O   0  0  0  0  0  0  0  0  0  0  0  0
  131.9630  123.6510   62.5330 N   0  0  0  0  0  0  0  0  0  0  0  0
  132.7580  122.6940   61.9150 C   0  0  0  0  0  0  0  0  0  0  0  0
  134.1070  122.8930   61.6270 C   0  0  0  0  0  0  0  0  0  0  0  0
  134.5220  121.7280   61.0250 C   0  0  0  0  0  0  0  0  0  0  0  0
  133.4760  120.8700   60.9550 O   0  0  0  0  0  0  0  0  0  0  0  0
  132.3630  121.4940   61.5210 N   0  0  0  0  0  0  0  0  0  0  0  0
  130.5230  126.6280   62.8220 S   0  0  0  0  0  0  0  0  0  0  0  0
  129.4660  127.2000   64.0910 C   0  0  0  0  0  0  0  0  0  0  0  0
  128.5710  128.1600   63.8710 N   0  0  0  0  0  0  0  0  0  0  0  0
  127.7910  128.5360   64.9170 C   0  0  0  0  0  0  0  0  0  0  0  0
  126.7950  129.6250   64.6380 C   0  0  0  0  0  0  0  0  0  0  0  0
  125.4430  129.3230   64.4030 C   0  0  0  0  0  0  0  0  0  0  0  0
  124.5150  130.3280   64.1460 C   0  0  0  0  0  0  0  0  0  0  0  0
  124.9270  131.6560   64.1170 C   0  0  0  0  0  0  0  0  0  0  0  0
  126.2590  131.9840   64.3420 C   0  0  0  0  0  0  0  0  0  0  0  0
  127.1840  130.9760   64.5980 C   0  0  0  0  0  0  0  0  0  0  0  0
  127.9260  127.9580   66.1830 C   0  0  0  0  0  0  0  0  0  0  0  0
  128.8660  126.9440   66.4270 C   0  0  0  0  0  0  0  0  0  0  0  0
  128.9600  126.3540   67.8390 C   0  0  0  0  0  0  0  0  0  0  0  0
  129.0420  125.0220   67.8460 F   0  0  0  0  0  0  0  0  0  0  0  0
  130.0470  126.8240   68.4500 F   0  0  0  0  0  0  0  0  0  0  0  0
  127.8790  126.6920   68.5420 F   0  0  0  0  0  0  0  0  0  0  0  0
  129.6800  126.5330   65.3330 C   0  0  0  0  0  0  0  0  0  0  0  0
  1  2  1  0
  2  3  2  0
  3  4  1  0
  4  5  2  0
  4  6  1  0
  6  7  1  0
  7  8  1  0
  8  9  2  0
  9 10  1  0
 10 11  1  0
  3 12  1  0
 12 13  1  0
 13 14  2  0
 14 15  1  0
 15 16  1  0
 16 17  2  0
 17 18  1  0
 18 19  2  0
 19 20  1  0
 20 21  2  0
 15 22  2  0
 22 23  1  0
 23 24  1  0
 24 25  1  0
 24 26  1  0
 24 27  1  0
 23 28  2  0
 28  2  1  0
 11  7  2  0
 28 13  1  0
 21 16  1  0
M  END
>  <Binding energies>  (35) 
[-6.98]

>  <Ligand effiencies>  (35) 
[-0.22516129032258067]

>  <Interactions>  (35) 
["V-A:LEU:475:CD1:4254, V-B:GLU:543:CD:9877, V-A:ILE:369:CB:3232, H-A:ARG:545:NH2:4925, H-A:GLY:454:N:4046, V-A:ILE:369:CG1:3234, V-A:ILE:369:CG2:3233, V-A:GLY:454:CA:4045, V-A:HIS:456:CE1:4066, V-A:GLU:543:CD:4905, V-A:GLU:543:CG:4904, V-A:TYR:484:CZ:4343, V-B:GLU:543:CA:9873, V-B:GLU:543:C:9871, V-B:GLU:543:CB:9875, V-B:HIS:456:CE1:9038, V-A:TYR:484:CE1:4341, V-B:GLU:543:CG:9876, V-B:ARG:545:CZ:9895, V-B:GLY:454:CA:9017, H-A:TYR:484:OH:4344, H-A:HIS:456:NE2:4067, V-A:ILE:369:CD1:3235, V-B:TYR:484:CZ:9315"]

$$$$
8a_Ghoteimi_2023
     RDKit          3D

 40 44  0  0  0  0  0  0  0  0999 V2000
  123.8210  134.0740   62.1890 C   0  0  0  0  0  0  0  0  0  0  0  0
  124.3380  134.5480   60.8270 C   0  0  0  0  0  0  0  0  0  0  0  0
  125.2600  135.6140   61.0170 O   0  0  0  0  0  0  0  0  0  0  0  0
  126.5560  135.4980   60.6240 C   0  0  0  0  0  0  0  0  0  0  0  0
  127.2200  136.4420   60.1860 O   0  0  0  0  0  0  0  0  0  0  0  0
  127.0970  134.1050   60.7710 C   0  0  0  0  0  0  0  0  0  0  0  0
  127.3180  133.5890   62.0540 C   0  0  0  0  0  0  0  0  0  0  0  0
  127.8210  132.3020   62.2230 C   0  0  0  0  0  0  0  0  0  0  0  0
  128.1140  131.5040   61.1170 C   0  0  0  0  0  0  0  0  0  0  0  0
  128.6220  130.2230   61.4090 N   0  0  0  0  0  0  0  0  0  0  0  0
  128.0440  129.0020   61.2850 C   0  0  0  0  0  0  0  0  0  0  0  0
  126.9010  128.8140   60.8700 O   0  0  0  0  0  0  0  0  0  0  0  0
  128.8870  127.8700   61.6820 C   0  0  0  0  0  0  0  0  0  0  0  0
  129.7630  126.9420   60.4650 S   0  0  0  0  0  0  0  0  0  0  0  0
  130.4310  125.8830   61.6850 C   0  0  0  0  0  0  0  0  0  0  0  0
  131.2310  124.8660   61.3680 N   0  0  0  0  0  0  0  0  0  0  0  0
  131.6910  124.1000   62.3920 C   0  0  0  0  0  0  0  0  0  0  0  0
  132.5710  122.9520   62.0110 C   0  0  0  0  0  0  0  0  0  0  0  0
  132.0270  121.7030   61.6810 C   0  0  0  0  0  0  0  0  0  0  0  0
  132.8510  120.6350   61.3390 C   0  0  0  0  0  0  0  0  0  0  0  0
  134.2360  120.7880   61.3140 C   0  0  0  0  0  0  0  0  0  0  0  0
  134.9750  119.6730   60.9650 O   0  0  0  0  0  0  0  0  0  0  0  0
  134.2950  118.4750   60.6080 C   0  0  0  0  0  0  0  0  0  0  0  0
  134.7900  122.0350   61.6370 C   0  0  0  0  0  0  0  0  0  0  0  0
  133.9630  123.1010   61.9820 C   0  0  0  0  0  0  0  0  0  0  0  0
  131.3580  124.3570   63.7240 C   0  0  0  0  0  0  0  0  0  0  0  0
  130.5320  125.4340   64.0630 C   0  0  0  0  0  0  0  0  0  0  0  0
  130.2350  125.6810   65.4970 C   0  0  0  0  0  0  0  0  0  0  0  0
  130.4810  126.9360   66.0600 C   0  0  0  0  0  0  0  0  0  0  0  0
  130.1850  127.1780   67.3980 C   0  0  0  0  0  0  0  0  0  0  0  0
  129.6340  126.1750   68.1960 C   0  0  0  0  0  0  0  0  0  0  0  0
  129.3730  126.5060   69.5110 O   0  0  0  0  0  0  0  0  0  0  0  0
  128.0820  126.2480   70.0490 C   0  0  0  0  0  0  0  0  0  0  0  0
  129.3790  124.9150   67.6300 C   0  0  0  0  0  0  0  0  0  0  0  0
  129.6750  124.6760   66.2900 C   0  0  0  0  0  0  0  0  0  0  0  0
  130.0200  126.2360   63.0040 C   0  0  0  0  0  0  0  0  0  0  0  0
  129.1230  127.3650   62.9700 C   0  0  0  0  0  0  0  0  0  0  0  0
  128.5430  127.8790   64.1030 N   0  0  0  0  0  0  0  0  0  0  0  0
  127.8910  132.0110   59.8270 C   0  0  0  0  0  0  0  0  0  0  0  0
  127.3880  133.2990   59.6600 C   0  0  0  0  0  0  0  0  0  0  0  0
  1  2  1  0
  2  3  1  0
  3  4  1  0
  4  5  2  0
  4  6  1  0
  6  7  2  0
  7  8  1  0
  8  9  2  0
  9 10  1  0
 10 11  1  0
 11 12  2  0
 11 13  1  0
 13 14  1  0
 14 15  1  0
 15 16  2  0
 16 17  1  0
 17 18  1  0
 18 19  2  0
 19 20  1  0
 20 21  2  0
 21 22  1  0
 22 23  1  0
 21 24  1  0
 24 25  2  0
 17 26  2  0
 26 27  1  0
 27 28  1  0
 28 29  2  0
 29 30  1  0
 30 31  2  0
 31 32  1  0
 32 33  1  0
 31 34  1  0
 34 35  2  0
 27 36  2  0
 36 37  1  0
 37 38  1  0
  9 39  1  0
 39 40  2  0
 40  6  1  0
 37 13  2  0
 36 15  1  0
 25 18  1  0
 35 28  1  0
M  END
>  <Binding energies>  (36) 
[-7.63]

>  <Ligand effiencies>  (36) 
[-0.17744186046511629]

>  <Interactions>  (36) 
["V-A:LEU:475:CD1:4254, V-B:GLU:543:CD:9877, H-A:GLU:543:OE1:4906, V-A:ILE:369:CB:3232, H-A:GLU:543:OE2:4907, V-A:ILE:369:CG1:3234, V-A:ILE:369:CG2:3233, V-A:GLY:454:CA:4045, V-B:TYR:539:CE2:9845, V-A:HIS:456:CE1:4066, V-A:GLU:543:CD:4905, V-A:TYR:484:CZ:4343, V-B:GLU:543:CA:9873, V-B:GLU:543:C:9871, V-B:GLU:543:CB:9875, V-B:HIS:456:CE1:9038, V-A:TYR:484:CE1:4341, V-B:GLY:544:C:9881, V-A:GLU:543:CB:4903, V-B:GLU:543:CG:9876, V-B:ILE:369:CD1:8207, V-B:ILE:369:CG2:8205, V-B:TRP:381:CH2:8340, V-A:ALA:541:CB:4889, V-A:TYR:539:CE2:4873, V-B:GLY:454:CA:9017, V-A:TYR:539:CD2:4871, V-B:LEU:475:CD2:9227, V-B:TYR:539:CD2:9843, H-B:GLU:543:OE1:9878, V-A:GLY:453:C:4038, V-A:ILE:369:CD1:3235, V-B:TRP:381:CZ2:8338, H-B:GLU:543:OE2:9879, V-A:SER:385:C:3401, V-A:TRP:381:CH2:3368, V-A:SER:385:CA:3403, V-A:TRP:381:CZ2:3366"]

$$$$
8c_Ghoteimi_2023
     RDKit          3D

 34 38  0  0  0  0  0  0  0  0999 V2000
  124.0440  133.7300   62.0160 C   0  0  0  0  0  0  0  0  0  0  0  0
  124.1350  133.3570   63.3870 O   0  0  0  0  0  0  0  0  0  0  0  0
  124.9150  132.2710   63.7390 C   0  0  0  0  0  0  0  0  0  0  0  0
  126.1880  132.5510   64.2300 C   0  0  0  0  0  0  0  0  0  0  0  0
  127.0430  131.5200   64.6070 C   0  0  0  0  0  0  0  0  0  0  0  0
  126.6460  130.1790   64.5030 C   0  0  0  0  0  0  0  0  0  0  0  0
  127.5610  129.0660   64.9040 C   0  0  0  0  0  0  0  0  0  0  0  0
  127.8250  128.7750   66.2450 C   0  0  0  0  0  0  0  0  0  0  0  0
  128.6830  127.7260   66.5930 C   0  0  0  0  0  0  0  0  0  0  0  0
  128.9480  127.4490   68.0230 C   0  0  0  0  0  0  0  0  0  0  0  0
  130.0590  128.0140   68.6550 C   0  0  0  0  0  0  0  0  0  0  0  0
  130.3010  127.7610   70.0010 C   0  0  0  0  0  0  0  0  0  0  0  0
  129.4430  126.9390   70.7350 C   0  0  0  0  0  0  0  0  0  0  0  0
  129.7610  126.7460   72.0650 O   0  0  0  0  0  0  0  0  0  0  0  0
  129.7370  125.4280   72.6000 C   0  0  0  0  0  0  0  0  0  0  0  0
  128.3300  126.3690   70.0970 C   0  0  0  0  0  0  0  0  0  0  0  0
  128.0880  126.6240   68.7490 C   0  0  0  0  0  0  0  0  0  0  0  0
  129.2700  126.9680   65.5450 C   0  0  0  0  0  0  0  0  0  0  0  0
  130.1740  125.8480   65.5380 C   0  0  0  0  0  0  0  0  0  0  0  0
  130.6550  125.2850   66.6940 N   0  0  0  0  0  0  0  0  0  0  0  0
  130.5100  125.3950   64.2520 C   0  0  0  0  0  0  0  0  0  0  0  0
  131.3900  124.2870   63.8770 C   0  0  0  0  0  0  0  0  0  0  0  0
  131.5050  123.2990   64.6060 O   0  0  0  0  0  0  0  0  0  0  0  0
  132.0460  124.4380   62.7000 N   0  0  0  0  0  0  0  0  0  0  0  0
  132.9310  123.5430   62.1170 C   0  0  0  0  0  0  0  0  0  0  0  0
  134.2340  123.6650   61.9820 N   0  0  0  0  0  0  0  0  0  0  0  0
  134.7600  122.6180   61.3800 C   0  0  0  0  0  0  0  0  0  0  0  0
  133.8740  121.6120   61.0090 C   0  0  0  0  0  0  0  0  0  0  0  0
  132.2650  122.0740   61.4790 S   0  0  0  0  0  0  0  0  0  0  0  0
  129.7030  126.3520   63.0090 S   0  0  0  0  0  0  0  0  0  0  0  0
  128.9260  127.3510   64.2160 C   0  0  0  0  0  0  0  0  0  0  0  0
  128.1100  128.3510   63.8840 N   0  0  0  0  0  0  0  0  0  0  0  0
  125.3620  129.9060   64.0110 C   0  0  0  0  0  0  0  0  0  0  0  0
  124.5050  130.9350   63.6320 C   0  0  0  0  0  0  0  0  0  0  0  0
  1  2  1  0
  2  3  1  0
  3  4  2  0
  4  5  1  0
  5  6  2  0
  6  7  1  0
  7  8  2  0
  8  9  1  0
  9 10  1  0
 10 11  2  0
 11 12  1  0
 12 13  2  0
 13 14  1  0
 14 15  1  0
 13 16  1  0
 16 17  2  0
  9 18  2  0
 18 19  1  0
 19 20  1  0
 19 21  2  0
 21 22  1  0
 22 23  2  0
 22 24  1  0
 24 25  1  0
 25 26  2  0
 26 27  1  0
 27 28  2  0
 28 29  1  0
 21 30  1  0
 30 31  1  0
 31 32  2  0
  6 33  1  0
 33 34  2  0
 34  3  1  0
 32  7  1  0
 17 10  1  0
 31 18  1  0
 29 25  1  0
M  END
>  <Binding energies>  (37) 
[-8.69]

>  <Ligand effiencies>  (37) 
[-0.23486486486486485]

>  <Interactions>  (37) 
["V-A:LEU:475:CD1:4254, V-B:GLU:543:CD:9877, V-A:ILE:369:CB:3232, H-A:ASP:366:OD2:3211, H-A:GLY:454:N:4046, V-A:ILE:369:CG1:3234, V-A:ILE:369:CG2:3233, V-A:GLY:454:CA:4045, V-B:TYR:539:CE2:9845, V-A:HIS:456:CE1:4066, H-A:ASP:366:OD1:3210, V-A:GLU:543:CD:4905, V-A:GLU:543:CG:4904, V-A:TYR:484:CZ:4343, V-B:GLU:543:CB:9875, V-B:HIS:456:CE1:9038, V-A:TYR:484:CE1:4341, V-A:HIS:456:CD2:4064, V-A:GLU:543:CB:4903, V-B:ILE:369:CD1:8207, V-B:ILE:369:CG2:8205, V-B:ARG:545:CZ:9895, V-B:GLY:454:CA:9017, V-B:LEU:475:CD2:9227, H-A:TYR:484:OH:4344, V-B:LYS:547:CE:9919, H-A:HIS:456:NE2:4067, V-A:GLU:543:C:4899, H-A:LYS:547:NZ:4948, H-B:GLY:454:N:9018, V-A:GLY:453:C:4038, V-B:TYR:484:CE1:9313, V-B:TYR:484:CZ:9315"]

$$$$
8d_Ghoteimi_2023
     RDKit          3D

 30 33  0  0  0  0  0  0  0  0999 V2000
  132.7990  125.1190   64.2590 C   0  0  0  0  0  0  0  0  0  0  0  0
  132.2360  123.8180   64.3570 O   0  0  0  0  0  0  0  0  0  0  0  0
  130.8900  123.6420   64.3900 C   0  0  0  0  0  0  0  0  0  0  0  0
  130.3280  122.5680   64.1600 O   0  0  0  0  0  0  0  0  0  0  0  0
  130.1550  124.8800   64.7310 C   0  0  0  0  0  0  0  0  0  0  0  0
  129.3820  125.8250   63.4570 S   0  0  0  0  0  0  0  0  0  0  0  0
  128.8080  126.9960   64.6210 C   0  0  0  0  0  0  0  0  0  0  0  0
  128.0890  128.0580   64.2550 N   0  0  0  0  0  0  0  0  0  0  0  0
  127.6900  128.9060   65.2410 C   0  0  0  0  0  0  0  0  0  0  0  0
  126.8890  130.0910   64.8020 C   0  0  0  0  0  0  0  0  0  0  0  0
  125.5600  129.9500   64.3790 C   0  0  0  0  0  0  0  0  0  0  0  0
  124.8190  131.0560   63.9710 C   0  0  0  0  0  0  0  0  0  0  0  0
  125.3860  132.3290   63.9750 C   0  0  0  0  0  0  0  0  0  0  0  0
  124.5770  133.3670   63.5560 O   0  0  0  0  0  0  0  0  0  0  0  0
  124.1250  133.3930   62.2060 C   0  0  0  0  0  0  0  0  0  0  0  0
  126.7140  132.4820   64.3990 C   0  0  0  0  0  0  0  0  0  0  0  0
  127.4520  131.3730   64.8060 C   0  0  0  0  0  0  0  0  0  0  0  0
  128.0170  128.6950   66.5840 C   0  0  0  0  0  0  0  0  0  0  0  0
  128.7690  127.5800   66.9680 C   0  0  0  0  0  0  0  0  0  0  0  0
  129.0920  127.3800   68.4000 C   0  0  0  0  0  0  0  0  0  0  0  0
  130.2410  127.9550   68.9480 C   0  0  0  0  0  0  0  0  0  0  0  0
  130.5490  127.7590   70.2910 C   0  0  0  0  0  0  0  0  0  0  0  0
  129.7140  126.9930   71.1060 C   0  0  0  0  0  0  0  0  0  0  0  0
  130.1000  126.8520   72.4240 O   0  0  0  0  0  0  0  0  0  0  0  0
  130.1300  125.5540   73.0050 C   0  0  0  0  0  0  0  0  0  0  0  0
  128.5570  126.4190   70.5530 C   0  0  0  0  0  0  0  0  0  0  0  0
  128.2510  126.6150   69.2090 C   0  0  0  0  0  0  0  0  0  0  0  0
  129.1930  126.6800   65.9550 C   0  0  0  0  0  0  0  0  0  0  0  0
  129.9620  125.4660   65.9880 C   0  0  0  0  0  0  0  0  0  0  0  0
  130.4630  124.9400   67.1510 N   0  0  0  0  0  0  0  0  0  0  0  0
  1  2  1  0
  2  3  1  0
  3  4  2  0
  3  5  1  0
  5  6  1  0
  6  7  1  0
  7  8  2  0
  8  9  1  0
  9 10  1  0
 10 11  2  0
 11 12  1  0
 12 13  2  0
 13 14  1  0
 14 15  1  0
 13 16  1  0
 16 17  2  0
  9 18  2  0
 18 19  1  0
 19 20  1  0
 20 21  2  0
 21 22  1  0
 22 23  2  0
 23 24  1  0
 24 25  1  0
 23 26  1  0
 26 27  2  0
 19 28  2  0
 28 29  1  0
 29 30  1  0
 29  5  2  0
 28  7  1  0
 17 10  1  0
 27 20  1  0
M  END
>  <Binding energies>  (38) 
[-7.57]

>  <Ligand effiencies>  (38) 
[-0.2365625]

>  <Interactions>  (38) 
["V-B:GLU:543:CD:9877, V-A:ARG:545:CZ:4923, V-A:HIS:456:CE1:4066, V-A:GLU:543:CD:4905, V-A:GLU:543:CG:4904, V-A:TYR:484:CZ:4343, V-B:GLU:543:CB:9875, V-B:HIS:456:CE1:9038, V-A:TYR:484:CE1:4341, V-A:HIS:456:CD2:4064, V-A:GLU:543:CB:4903, V-B:GLU:543:CG:9876, V-B:ILE:369:CD1:8207, V-B:GLY:454:CA:9017, V-B:LEU:475:CD2:9227, H-A:TYR:484:OH:4344, V-B:LYS:547:CE:9919, H-A:HIS:456:NE2:4067, V-A:GLU:543:C:4899, H-B:GLU:543:O:9872, H-A:LYS:547:NZ:4948, H-B:GLY:454:N:9018, V-B:TYR:484:CE1:9313, V-B:TYR:484:CZ:9315, V-A:GLY:544:C:4909"]

$$$$
9a_Ghoteimi_2023
     RDKit          3D

 48 54  0  0  0  0  0  0  0  0999 V2000
  123.7050  134.2250   61.2920 C   0  0  0  0  0  0  0  0  0  0  0  0
  123.9090  135.6120   60.6740 C   0  0  0  0  0  0  0  0  0  0  0  0
  124.8720  135.5280   59.6310 O   0  0  0  0  0  0  0  0  0  0  0  0
  126.2000  135.4550   59.9060 C   0  0  0  0  0  0  0  0  0  0  0  0
  127.0260  136.2760   59.4940 O   0  0  0  0  0  0  0  0  0  0  0  0
  126.5660  134.2740   60.7570 C   0  0  0  0  0  0  0  0  0  0  0  0
  126.8010  134.4610   62.1250 C   0  0  0  0  0  0  0  0  0  0  0  0
  127.1430  133.3860   62.9390 C   0  0  0  0  0  0  0  0  0  0  0  0
  127.2570  132.1020   62.4060 C   0  0  0  0  0  0  0  0  0  0  0  0
  127.6090  131.0920   63.3230 N   0  0  0  0  0  0  0  0  0  0  0  0
  127.1260  129.8340   63.4720 C   0  0  0  0  0  0  0  0  0  0  0  0
  126.2380  129.3460   62.7720 O   0  0  0  0  0  0  0  0  0  0  0  0
  127.7440  129.0490   64.5450 C   0  0  0  0  0  0  0  0  0  0  0  0
  127.4070  129.4320   66.2340 S   0  0  0  0  0  0  0  0  0  0  0  0
  128.4350  128.1290   66.7820 C   0  0  0  0  0  0  0  0  0  0  0  0
  128.5950  127.8620   68.0780 N   0  0  0  0  0  0  0  0  0  0  0  0
  129.4060  126.8190   68.3970 C   0  0  0  0  0  0  0  0  0  0  0  0
  129.5620  126.5320   69.8560 C   0  0  0  0  0  0  0  0  0  0  0  0
  130.2790  127.4070   70.6800 C   0  0  0  0  0  0  0  0  0  0  0  0
  130.4280  127.1470   72.0400 C   0  0  0  0  0  0  0  0  0  0  0  0
  129.8540  126.0100   72.6290 C   0  0  0  0  0  0  0  0  0  0  0  0
  130.0120  125.7260   73.9890 N   0  0  0  0  0  0  0  0  0  0  0  0
  129.0980  126.2860   75.0060 C   0  0  0  0  0  0  0  0  0  0  0  0
  129.6280  126.1700   76.4500 C   0  0  0  0  0  0  0  0  0  0  0  0
  129.9490  124.8210   76.7440 O   0  0  0  0  0  0  0  0  0  0  0  0
  130.9520  124.3240   75.8710 C   0  0  0  0  0  0  0  0  0  0  0  0
  130.4560  124.3810   74.4120 C   0  0  0  0  0  0  0  0  0  0  0  0
  129.1490  125.1290   71.7950 C   0  0  0  0  0  0  0  0  0  0  0  0
  129.0030  125.3880   70.4360 C   0  0  0  0  0  0  0  0  0  0  0  0
  130.0730  126.0680   67.4270 C   0  0  0  0  0  0  0  0  0  0  0  0
  129.9230  126.3580   66.0660 C   0  0  0  0  0  0  0  0  0  0  0  0
  130.6840  125.5510   65.0770 C   0  0  0  0  0  0  0  0  0  0  0  0
  132.0390  125.8010   64.8470 C   0  0  0  0  0  0  0  0  0  0  0  0
  132.7530  125.0350   63.9300 C   0  0  0  0  0  0  0  0  0  0  0  0
  132.1350  123.9850   63.2310 C   0  0  0  0  0  0  0  0  0  0  0  0
  132.8280  123.2100   62.2990 N   0  0  0  0  0  0  0  0  0  0  0  0
  133.3790  123.8590   61.0910 C   0  0  0  0  0  0  0  0  0  0  0  0
  134.4240  122.9930   60.3560 C   0  0  0  0  0  0  0  0  0  0  0  0
  133.8710  121.7250   60.0420 O   0  0  0  0  0  0  0  0  0  0  0  0
  133.4670  121.0250   61.2080 C   0  0  0  0  0  0  0  0  0  0  0  0
  132.3960  121.8380   61.9670 C   0  0  0  0  0  0  0  0  0  0  0  0
  130.7750  123.7420   63.4730 C   0  0  0  0  0  0  0  0  0  0  0  0
  130.0600  124.5110   64.3860 C   0  0  0  0  0  0  0  0  0  0  0  0
  129.0490  127.4230   65.7060 C   0  0  0  0  0  0  0  0  0  0  0  0
  128.6170  127.9560   64.4380 C   0  0  0  0  0  0  0  0  0  0  0  0
  129.0180  127.4250   63.2390 N   0  0  0  0  0  0  0  0  0  0  0  0
  127.0200  131.9030   61.0370 C   0  0  0  0  0  0  0  0  0  0  0  0
  126.6780  132.9800   60.2230 C   0  0  0  0  0  0  0  0  0  0  0  0
  1  2  1  0
  2  3  1  0
  3  4  1  0
  4  5  2  0
  4  6  1  0
  6  7  2  0
  7  8  1  0
  8  9  2  0
  9 10  1  0
 10 11  1  0
 11 12  2  0
 11 13  1  0
 13 14  1  0
 14 15  1  0
 15 16  2  0
 16 17  1  0
 17 18  1  0
 18 19  2  0
 19 20  1  0
 20 21  2  0
 21 22  1  0
 22 23  1  0
 23 24  1  0
 24 25  1  0
 25 26  1  0
 26 27  1  0
 21 28  1  0
 28 29  2  0
 17 30  2  0
 30 31  1  0
 31 32  1  0
 32 33  2  0
 33 34  1  0
 34 35  2  0
 35 36  1  0
 36 37  1  0
 37 38  1  0
 38 39  1  0
 39 40  1  0
 40 41  1  0
 35 42  1  0
 42 43  2  0
 31 44  2  0
 44 45  1  0
 45 46  1  0
  9 47  1  0
 47 48  2  0
 48  6  1  0
 45 13  2  0
 44 15  1  0
 29 18  1  0
 43 32  1  0
 27 22  1  0
 41 36  1  0
M  END
>  <Binding energies>  (39) 
[-7.72]

>  <Ligand effiencies>  (39) 
[-0.15137254901960784]

>  <Interactions>  (39) 
["V-A:LEU:475:CD1:4254, V-B:GLU:543:CD:9877, H-A:GLU:543:OE1:4906, V-A:ARG:545:CZ:4923, V-A:ILE:369:CB:3232, H-A:GLU:543:OE2:4907, V-A:ILE:369:CG1:3234, V-A:ILE:369:CG2:3233, V-B:TYR:539:CE2:9845, V-A:HIS:456:CE1:4066, V-A:GLU:543:CD:4905, V-A:GLU:543:CG:4904, V-B:GLU:543:C:9871, V-B:HIS:456:CE1:9038, V-A:HIS:456:CD2:4064, V-A:GLU:543:CB:4903, V-B:GLU:543:CG:9876, V-B:ILE:369:CD1:8207, V-B:ILE:369:CG2:8205, V-B:TRP:381:CH2:8340, V-A:ALA:541:CB:4889, V-A:TYR:539:CE2:4873, V-A:TYR:539:CD2:4871, V-B:LEU:475:CD2:9227, V-A:ASP:366:CG:3209, H-B:ARG:545:NH2:9897, H-B:GLU:543:OE1:9878, V-B:LYS:547:CE:9919, V-A:LYS:547:CE:4947, V-B:LYS:547:CD:9918, H-B:LYS:547:NZ:9920, V-B:TRP:381:CZ2:8338, V-B:TRP:381:CZ3:8339, V-B:ILE:369:CG1:8206, H-B:TYR:539:OH:9847, H-B:GLU:543:OE2:9879, V-A:TYR:539:CG:4869"]

$$$$
9b_Ghoteimi_2023
     RDKit          3D

 42 48  0  0  0  0  0  0  0  0999 V2000
  129.2280  127.8480   62.9450 N   0  0  0  0  0  0  0  0  0  0  0  0
  128.6150  128.2800   64.0940 C   0  0  0  0  0  0  0  0  0  0  0  0
  127.6480  129.2970   64.1190 C   0  0  0  0  0  0  0  0  0  0  0  0
  127.0930  130.0580   62.9960 C   0  0  0  0  0  0  0  0  0  0  0  0
  125.9560  129.8260   62.5800 O   0  0  0  0  0  0  0  0  0  0  0  0
  127.9130  131.0030   62.4710 N   0  0  0  0  0  0  0  0  0  0  0  0
  127.6510  131.8540   61.4050 C   0  0  0  0  0  0  0  0  0  0  0  0
  127.5040  133.2330   61.5500 C   0  0  0  0  0  0  0  0  0  0  0  0
  127.2620  133.7020   60.2800 C   0  0  0  0  0  0  0  0  0  0  0  0
  127.2620  132.6590   59.4150 O   0  0  0  0  0  0  0  0  0  0  0  0
  127.5100  131.4940   60.1400 N   0  0  0  0  0  0  0  0  0  0  0  0
  127.1000  129.6150   65.7640 S   0  0  0  0  0  0  0  0  0  0  0  0
  128.1790  128.4010   66.4070 C   0  0  0  0  0  0  0  0  0  0  0  0
  128.2600  128.1600   67.7140 N   0  0  0  0  0  0  0  0  0  0  0  0
  129.1430  127.2080   68.1130 C   0  0  0  0  0  0  0  0  0  0  0  0
  129.2290  126.9720   69.5860 C   0  0  0  0  0  0  0  0  0  0  0  0
  130.1660  127.6510   70.3750 C   0  0  0  0  0  0  0  0  0  0  0  0
  130.2520  127.4160   71.7430 C   0  0  0  0  0  0  0  0  0  0  0  0
  129.4120  126.4840   72.3730 C   0  0  0  0  0  0  0  0  0  0  0  0
  129.4840  126.2400   73.7490 N   0  0  0  0  0  0  0  0  0  0  0  0
  129.0030  127.2310   74.7320 C   0  0  0  0  0  0  0  0  0  0  0  0
  128.8380  126.6660   76.1580 C   0  0  0  0  0  0  0  0  0  0  0  0
  130.0510  126.0730   76.5880 O   0  0  0  0  0  0  0  0  0  0  0  0
  130.4360  125.0020   75.7420 C   0  0  0  0  0  0  0  0  0  0  0  0
  130.6470  125.5130   74.3000 C   0  0  0  0  0  0  0  0  0  0  0  0
  128.4620  125.8220   71.5820 C   0  0  0  0  0  0  0  0  0  0  0  0
  128.3740  126.0600   70.2130 C   0  0  0  0  0  0  0  0  0  0  0  0
  129.9200  126.4830   67.2050 C   0  0  0  0  0  0  0  0  0  0  0  0
  129.8230  126.7190   65.8290 C   0  0  0  0  0  0  0  0  0  0  0  0
  130.6490  125.9010   64.9030 C   0  0  0  0  0  0  0  0  0  0  0  0
  130.0390  125.0860   63.9490 C   0  0  0  0  0  0  0  0  0  0  0  0
  130.8100  124.3340   63.0680 C   0  0  0  0  0  0  0  0  0  0  0  0
  132.2120  124.3750   63.1180 C   0  0  0  0  0  0  0  0  0  0  0  0
  133.0050  123.6400   62.2330 N   0  0  0  0  0  0  0  0  0  0  0  0
  133.1030  122.1770   62.3960 C   0  0  0  0  0  0  0  0  0  0  0  0
  134.2930  121.5580   61.6320 C   0  0  0  0  0  0  0  0  0  0  0  0
  134.2210  121.9060   60.2580 O   0  0  0  0  0  0  0  0  0  0  0  0
  134.2600  123.3130   60.0690 C   0  0  0  0  0  0  0  0  0  0  0  0
  133.0730  123.9770   60.7970 C   0  0  0  0  0  0  0  0  0  0  0  0
  132.8130  125.2120   64.0690 C   0  0  0  0  0  0  0  0  0  0  0  0
  132.0420  125.9650   64.9510 C   0  0  0  0  0  0  0  0  0  0  0  0
  128.9300  127.7360   65.3920 C   0  0  0  0  0  0  0  0  0  0  0  0
  1  2  1  0
  2  3  2  0
  3  4  1  0
  4  5  2  0
  4  6  1  0
  6  7  1  0
  7  8  1  0
  8  9  2  0
  9 10  1  0
 10 11  1  0
  3 12  1  0
 12 13  1  0
 13 14  2  0
 14 15  1  0
 15 16  1  0
 16 17  2  0
 17 18  1  0
 18 19  2  0
 19 20  1  0
 20 21  1  0
 21 22  1  0
 22 23  1  0
 23 24  1  0
 24 25  1  0
 19 26  1  0
 26 27  2  0
 15 28  2  0
 28 29  1  0
 29 30  1  0
 30 31  2  0
 31 32  1  0
 32 33  2  0
 33 34  1  0
 34 35  1  0
 35 36  1  0
 36 37  1  0
 37 38  1  0
 38 39  1  0
 33 40  1  0
 40 41  2  0
 29 42  2  0
 42  2  1  0
 11  7  2  0
 42 13  1  0
 27 16  1  0
 41 30  1  0
 25 20  1  0
 39 34  1  0
M  END
>  <Binding energies>  (40) 
[-9.49]

>  <Ligand effiencies>  (40) 
[-0.2108888888888889]

>  <Interactions>  (40) 
["V-A:LEU:475:CD1:4254, V-B:GLU:543:CD:9877, H-A:GLU:543:OE1:4906, V-A:ARG:545:CZ:4923, V-A:ILE:369:CB:3232, H-A:GLU:543:OE2:4907, V-A:ILE:369:CG1:3234, V-A:ILE:369:CG2:3233, V-A:GLY:454:CA:4045, V-A:HIS:456:CE1:4066, V-A:GLU:543:CD:4905, V-B:GLU:543:C:9871, V-B:HIS:456:CE1:9038, V-A:HIS:456:CD2:4064, V-B:GLU:543:CG:9876, V-A:ALA:541:CB:4889, V-A:TYR:539:CD2:4871, V-A:ASP:366:CG:3209, V-B:LYS:547:CE:9919, V-A:LYS:547:CE:4947, V-B:LYS:547:CD:9918, V-A:ASP:366:CA:3206, H-B:TYR:539:OH:9847"]

$$$$
9c_Ghoteimi_2023
     RDKit          3D

 42 48  0  0  0  0  0  0  0  0999 V2000
  129.2270  127.8720   63.0080 N   0  0  0  0  0  0  0  0  0  0  0  0
  128.6120  128.2830   64.1630 C   0  0  0  0  0  0  0  0  0  0  0  0
  127.6400  129.2940   64.2050 C   0  0  0  0  0  0  0  0  0  0  0  0
  127.0840  130.0720   63.0940 C   0  0  0  0  0  0  0  0  0  0  0  0
  125.9500  129.8430   62.6680 O   0  0  0  0  0  0  0  0  0  0  0  0
  127.9000  131.0300   62.5890 N   0  0  0  0  0  0  0  0  0  0  0  0
  127.6260  131.8900   61.5350 C   0  0  0  0  0  0  0  0  0  0  0  0
  127.7400  131.6510   60.2460 N   0  0  0  0  0  0  0  0  0  0  0  0
  127.3960  132.7020   59.5260 C   0  0  0  0  0  0  0  0  0  0  0  0
  126.9910  133.8290   60.2360 C   0  0  0  0  0  0  0  0  0  0  0  0
  127.0680  133.4820   61.9380 S   0  0  0  0  0  0  0  0  0  0  0  0
  127.0900  129.5820   65.8550 S   0  0  0  0  0  0  0  0  0  0  0  0
  128.1750  128.3630   66.4780 C   0  0  0  0  0  0  0  0  0  0  0  0
  128.2560  128.1010   67.7820 N   0  0  0  0  0  0  0  0  0  0  0  0
  129.1440  127.1470   68.1650 C   0  0  0  0  0  0  0  0  0  0  0  0
  129.2290  126.8880   69.6340 C   0  0  0  0  0  0  0  0  0  0  0  0
  128.3730  125.9750   70.2600 C   0  0  0  0  0  0  0  0  0  0  0  0
  128.4500  125.7440   71.6300 C   0  0  0  0  0  0  0  0  0  0  0  0
  129.3800  126.4290   72.4290 C   0  0  0  0  0  0  0  0  0  0  0  0
  129.4750  126.2030   73.8070 N   0  0  0  0  0  0  0  0  0  0  0  0
  128.9840  127.1960   74.7840 C   0  0  0  0  0  0  0  0  0  0  0  0
  128.8460  126.6420   76.2190 C   0  0  0  0  0  0  0  0  0  0  0  0
  130.0790  126.0820   76.6410 O   0  0  0  0  0  0  0  0  0  0  0  0
  130.4760  125.0100   75.8020 C   0  0  0  0  0  0  0  0  0  0  0  0
  130.6600  125.5100   74.3530 C   0  0  0  0  0  0  0  0  0  0  0  0
  130.2480  127.3290   71.7930 C   0  0  0  0  0  0  0  0  0  0  0  0
  130.1730  127.5560   70.4220 C   0  0  0  0  0  0  0  0  0  0  0  0
  129.9250  126.4420   67.2460 C   0  0  0  0  0  0  0  0  0  0  0  0
  129.8270  126.6990   65.8740 C   0  0  0  0  0  0  0  0  0  0  0  0
  130.6550  125.9010   64.9360 C   0  0  0  0  0  0  0  0  0  0  0  0
  132.0140  126.1820   64.7810 C   0  0  0  0  0  0  0  0  0  0  0  0
  132.7970  125.4250   63.9140 C   0  0  0  0  0  0  0  0  0  0  0  0
  132.2420  124.3670   63.1770 C   0  0  0  0  0  0  0  0  0  0  0  0
  133.0120  123.5860   62.3100 N   0  0  0  0  0  0  0  0  0  0  0  0
  132.9360  122.1150   62.4060 C   0  0  0  0  0  0  0  0  0  0  0  0
  134.0980  121.3970   61.6860 C   0  0  0  0  0  0  0  0  0  0  0  0
  134.1570  121.8090   60.3290 O   0  0  0  0  0  0  0  0  0  0  0  0
  134.3660  123.2080   60.2140 C   0  0  0  0  0  0  0  0  0  0  0  0
  133.2140  123.9740   60.9010 C   0  0  0  0  0  0  0  0  0  0  0  0
  130.8800  124.0810   63.3570 C   0  0  0  0  0  0  0  0  0  0  0  0
  130.0970  124.8380   64.2230 C   0  0  0  0  0  0  0  0  0  0  0  0
  128.9290  127.7200   65.4520 C   0  0  0  0  0  0  0  0  0  0  0  0
  1  2  1  0
  2  3  2  0
  3  4  1  0
  4  5  2  0
  4  6  1  0
  6  7  1  0
  7  8  2  0
  8  9  1  0
  9 10  2  0
 10 11  1  0
  3 12  1  0
 12 13  1  0
 13 14  2  0
 14 15  1  0
 15 16  1  0
 16 17  2  0
 17 18  1  0
 18 19  2  0
 19 20  1  0
 20 21  1  0
 21 22  1  0
 22 23  1  0
 23 24  1  0
 24 25  1  0
 19 26  1  0
 26 27  2  0
 15 28  2  0
 28 29  1  0
 29 30  1  0
 30 31  2  0
 31 32  1  0
 32 33  2  0
 33 34  1  0
 34 35  1  0
 35 36  1  0
 36 37  1  0
 37 38  1  0
 38 39  1  0
 33 40  1  0
 40 41  2  0
 29 42  2  0
 42  2  1  0
 11  7  1  0
 42 13  1  0
 27 16  1  0
 41 30  1  0
 25 20  1  0
 39 34  1  0
M  END
>  <Binding energies>  (41) 
[-9.66]

>  <Ligand effiencies>  (41) 
[-0.21466666666666667]

>  <Interactions>  (41) 
["V-A:LEU:475:CD1:4254, V-B:GLU:543:CD:9877, H-A:GLU:543:OE1:4906, V-A:ARG:545:CZ:4923, V-A:ILE:369:CB:3232, H-A:GLU:543:OE2:4907, V-A:ILE:369:CG1:3234, V-A:ILE:369:CG2:3233, V-A:GLY:454:CA:4045, V-A:HIS:456:CE1:4066, V-A:GLU:543:CD:4905, V-B:GLU:543:C:9871, V-B:HIS:456:CE1:9038, V-B:GLY:544:C:9881, V-A:HIS:456:CD2:4064, V-B:GLU:543:CG:9876, V-A:ALA:541:CB:4889, V-A:TYR:539:CE2:4873, V-A:TYR:539:CD2:4871, V-B:LEU:475:CD2:9227, V-A:ASP:366:CG:3209, V-B:LYS:547:CE:9919, V-A:LYS:547:CE:4947, V-B:LYS:547:CD:9918, V-A:ASP:366:CA:3206, H-B:TYR:539:OH:9847"]

$$$$
RR11_Rahimova_2017
     RDKit          3D

 33 38  0  0  0  0  0  0  0  0999 V2000
  123.4310  133.5810   62.4730 N   0  0  0  0  0  0  0  0  0  0  0  0
  124.2610  132.6150   63.0380 C   0  0  0  0  0  0  0  0  0  0  0  0
  125.3670  133.0050   63.7900 C   0  0  0  0  0  0  0  0  0  0  0  0
  126.1940  132.0400   64.3570 C   0  0  0  0  0  0  0  0  0  0  0  0
  125.9230  130.6770   64.1780 C   0  0  0  0  0  0  0  0  0  0  0  0
  126.8120  129.6370   64.7940 C   0  0  0  0  0  0  0  0  0  0  0  0
  126.6330  129.1200   65.9900 N   0  0  0  0  0  0  0  0  0  0  0  0
  127.6490  128.2140   66.1490 C   0  0  0  0  0  0  0  0  0  0  0  0
  127.9270  127.3780   67.2380 C   0  0  0  0  0  0  0  0  0  0  0  0
  129.0270  126.5160   67.1520 C   0  0  0  0  0  0  0  0  0  0  0  0
  129.3570  125.5990   68.3220 C   0  0  0  0  0  0  0  0  0  0  0  0
  129.1350  126.2600   69.6750 C   0  0  0  0  0  0  0  0  0  0  0  0
  128.6660  125.4930   70.7470 C   0  0  0  0  0  0  0  0  0  0  0  0
  128.4550  126.0520   72.0100 C   0  0  0  0  0  0  0  0  0  0  0  0
  128.7330  127.4140   72.1840 C   0  0  0  0  0  0  0  0  0  0  0  0
  128.6050  128.1900   73.3060 N   0  0  0  0  0  0  0  0  0  0  0  0
  128.9900  129.3940   72.9420 C   0  0  0  0  0  0  0  0  0  0  0  0
  129.0040  130.5920   73.8480 C   0  0  0  0  0  0  0  0  0  0  0  0
  129.5190  131.8150   73.4010 C   0  0  0  0  0  0  0  0  0  0  0  0
  129.5420  132.9230   74.2440 C   0  0  0  0  0  0  0  0  0  0  0  0
  129.0480  132.8150   75.5430 C   0  0  0  0  0  0  0  0  0  0  0  0
  129.0750  133.9220   76.3900 N   0  0  0  0  0  0  0  0  0  0  0  0
  128.5290  131.6060   75.9990 C   0  0  0  0  0  0  0  0  0  0  0  0
  128.5070  130.4990   75.1550 C   0  0  0  0  0  0  0  0  0  0  0  0
  129.3740  129.4350   71.6180 N   0  0  0  0  0  0  0  0  0  0  0  0
  129.2190  128.1740   71.0930 C   0  0  0  0  0  0  0  0  0  0  0  0
  129.4370  127.6200   69.8290 C   0  0  0  0  0  0  0  0  0  0  0  0
  129.8420  126.5110   66.0140 C   0  0  0  0  0  0  0  0  0  0  0  0
  129.5940  127.3360   64.9140 C   0  0  0  0  0  0  0  0  0  0  0  0
  128.4840  128.1790   65.0070 C   0  0  0  0  0  0  0  0  0  0  0  0
  127.9180  129.1060   64.1630 N   0  0  0  0  0  0  0  0  0  0  0  0
  124.8080  130.2980   63.4180 C   0  0  0  0  0  0  0  0  0  0  0  0
  123.9790  131.2630   62.8500 C   0  0  0  0  0  0  0  0  0  0  0  0
  1  2  1  0
  2  3  2  0
  3  4  1  0
  4  5  2  0
  5  6  1  0
  6  7  2  0
  7  8  1  0
  8  9  2  0
  9 10  1  0
 10 11  1  0
 11 12  1  0
 12 13  2  0
 13 14  1  0
 14 15  2  0
 15 16  1  0
 16 17  2  0
 17 18  1  0
 18 19  2  0
 19 20  1  0
 20 21  2  0
 21 22  1  0
 21 23  1  0
 23 24  2  0
 17 25  1  0
 25 26  1  0
 26 27  2  0
 10 28  2  0
 28 29  1  0
 29 30  2  0
 30 31  1  0
  5 32  1  0
 32 33  2  0
 33  2  1  0
 31  6  1  0
 30  8  1  0
 27 12  1  0
 26 15  1  0
 24 18  1  0
M  END
>  <Binding energies>  (42) 
[-8.32]

>  <Ligand effiencies>  (42) 
[-0.21333333333333335]

>  <Interactions>  (42) 
["V-B:GLU:543:CD:9877, H-A:GLU:543:OE2:4907, V-A:HIS:456:CE1:4066, V-A:GLU:543:CD:4905, H-B:HIS:456:NE2:9039, V-A:GLU:543:CG:4904, V-B:GLU:543:C:9871, V-B:GLU:543:CB:9875, V-B:HIS:456:CE1:9038, V-A:HIS:456:CD2:4064, V-B:HIS:456:CD2:9036, H-A:GLU:543:O:4900, V-B:ILE:369:CD1:8207, V-B:GLY:454:CA:9017, H-B:TYR:484:OH:9316, V-B:LEU:475:CD2:9227, V-B:ASP:366:CG:8181, V-B:LYS:547:CE:9919, V-A:LYS:547:CE:4947, V-A:GLU:543:C:4899, H-A:LYS:547:NZ:4948, V-B:LYS:471:CE:9188, V-B:TYR:484:CZ:9315, H-B:SER:385:O:8374, H-B:ASP:473:OD1:9209, H-B:ASP:473:OD2:9210"]

$$$$
RR16_Rahimova_2017
     RDKit          3D

 44 49  0  0  0  0  0  0  0  0999 V2000
  125.4320  130.1800   62.3050 O   0  0  0  0  0  0  0  0  0  0  0  0
  125.3730  130.3220   63.7640 S   0  0  0  0  0  0  0  0  0  0  0  0
  124.1570  129.9660   64.5060 O   0  0  0  0  0  0  0  0  0  0  0  0
  125.7820  131.9940   64.1530 N   0  0  0  0  0  0  0  0  0  0  0  0
  125.7940  133.0390   63.1020 C   0  0  0  0  0  0  0  0  0  0  0  0
  127.1220  132.9460   62.3070 C   0  0  0  0  0  0  0  0  0  0  0  0
  127.1780  133.6520   60.9380 C   0  0  0  0  0  0  0  0  0  0  0  0
  126.4060  134.9820   60.8910 C   0  0  0  0  0  0  0  0  0  0  0  0
  124.9010  134.8690   60.5710 C   0  0  0  0  0  0  0  0  0  0  0  0
  123.9980  134.2240   61.6410 C   0  0  0  0  0  0  0  0  0  0  0  0
  124.5000  132.9070   62.2650 C   0  0  0  0  0  0  0  0  0  0  0  0
  126.7270  129.3650   64.4340 C   0  0  0  0  0  0  0  0  0  0  0  0
  127.5780  128.6560   63.5830 C   0  0  0  0  0  0  0  0  0  0  0  0
  128.5510  127.8190   64.1220 C   0  0  0  0  0  0  0  0  0  0  0  0
  128.6690  127.6940   65.5080 C   0  0  0  0  0  0  0  0  0  0  0  0
  129.8220  126.5130   66.2020 S   0  0  0  0  0  0  0  0  0  0  0  0
  131.1760  126.9600   65.8460 O   0  0  0  0  0  0  0  0  0  0  0  0
  129.3610  125.1720   65.8210 O   0  0  0  0  0  0  0  0  0  0  0  0
  129.6210  126.6890   67.9560 N   0  0  0  0  0  0  0  0  0  0  0  0
  130.2490  127.9080   68.5280 C   0  0  0  0  0  0  0  0  0  0  0  0
  130.2970  127.8190   70.0670 C   0  0  0  0  0  0  0  0  0  0  0  0
  128.9020  127.5180   70.6690 C   0  0  0  0  0  0  0  0  0  0  0  0
  128.9360  127.3790   72.1930 C   0  0  0  0  0  0  0  0  0  0  0  0
  129.6550  126.3290   72.7800 C   0  0  0  0  0  0  0  0  0  0  0  0
  129.7200  126.1690   74.1650 C   0  0  0  0  0  0  0  0  0  0  0  0
  130.4310  125.1370   74.7220 O   0  0  0  0  0  0  0  0  0  0  0  0
  129.0430  127.0970   74.9710 C   0  0  0  0  0  0  0  0  0  0  0  0
  128.9450  127.2020   76.3290 N   0  0  0  0  0  0  0  0  0  0  0  0
  128.1830  128.3160   76.6040 N   0  0  0  0  0  0  0  0  0  0  0  0
  127.7840  128.8580   75.4370 N   0  0  0  0  0  0  0  0  0  0  0  0
  127.0300  130.1050   75.4280 C   0  0  0  0  0  0  0  0  0  0  0  0
  127.6460  131.1570   74.5170 C   0  0  0  0  0  0  0  0  0  0  0  0
  126.8410  131.8640   73.6160 C   0  0  0  0  0  0  0  0  0  0  0  0
  127.3990  132.8440   72.7950 C   0  0  0  0  0  0  0  0  0  0  0  0
  128.7640  133.1250   72.8710 C   0  0  0  0  0  0  0  0  0  0  0  0
  129.5710  132.4260   73.7680 C   0  0  0  0  0  0  0  0  0  0  0  0
  131.2570  132.7770   73.8720 Cl  0  0  0  0  0  0  0  0  0  0  0  0
  129.0140  131.4410   74.5870 C   0  0  0  0  0  0  0  0  0  0  0  0
  128.3130  128.1500   74.3710 C   0  0  0  0  0  0  0  0  0  0  0  0
  128.2440  128.3090   72.9830 C   0  0  0  0  0  0  0  0  0  0  0  0
  128.2070  126.3190   69.9720 C   0  0  0  0  0  0  0  0  0  0  0  0
  128.2350  126.4500   68.4360 C   0  0  0  0  0  0  0  0  0  0  0  0
  127.8440  128.4360   66.3570 C   0  0  0  0  0  0  0  0  0  0  0  0
  126.8700  129.2700   65.8190 C   0  0  0  0  0  0  0  0  0  0  0  0
  1  2  2  0
  2  3  2  0
  2  4  1  0
  4  5  1  0
  5  6  1  0
  6  7  1  0
  7  8  1  0
  8  9  1  0
  9 10  1  0
 10 11  1  0
  2 12  1  0
 12 13  2  0
 13 14  1  0
 14 15  2  0
 15 16  1  0
 16 17  2  0
 16 18  2  0
 16 19  1  0
 19 20  1  0
 20 21  1  0
 21 22  1  0
 22 23  1  0
 23 24  2  0
 24 25  1  0
 25 26  1  0
 25 27  2  0
 27 28  1  0
 28 29  2  0
 29 30  1  0
 30 31  1  0
 31 32  1  0
 32 33  2  0
 33 34  1  0
 34 35  2  0
 35 36  1  0
 36 37  1  0
 36 38  2  0
 30 39  1  0
 39 40  2  0
 22 41  1  0
 41 42  1  0
 15 43  1  0
 43 44  2  0
 11  5  1  0
 44 12  1  0
 42 19  1  0
 40 23  1  0
 39 27  1  0
 38 32  1  0
M  END
>  <Binding energies>  (43) 
[-9.82]

>  <Ligand effiencies>  (43) 
[-0.20458333333333334]

>  <Interactions>  (43) 
["V-B:GLU:543:CD:9877, V-A:HIS:456:CE1:4066, V-A:GLU:543:CD:4905, V-B:GLU:543:C:9871, V-B:GLU:543:CB:9875, V-B:HIS:456:CE1:9038, V-A:HIS:456:CD2:4064, V-B:HIS:456:CD2:9036, V-A:GLU:543:CB:4903, V-B:ILE:369:CD1:8207, V-B:ILE:369:CG2:8205, V-B:TRP:381:CH2:8340, V-A:ALA:541:CB:4889, V-B:GLY:454:CA:9017, H-B:TYR:484:OH:9316, V-A:TYR:539:CD2:4871, V-B:LEU:475:CD2:9227, H-B:ARG:545:NH2:9897, V-B:LYS:547:CE:9919, V-B:TYR:484:CD2:9312, V-B:TYR:484:CB:9309, V-B:ASP:473:CG:9208, V-B:ASP:473:CB:9207, V-B:TYR:484:CG:9310, V-B:HIS:456:CG:9034, V-A:LYS:547:CE:4947, V-A:GLU:543:C:4899, V-B:HIS:456:CB:9033, H-A:LYS:547:NZ:4948, H-B:LYS:547:NZ:9920, V-B:LYS:471:CE:9188, H-B:GLY:454:N:9018, V-A:GLY:544:CA:4911"]

$$$$
RR18_Rahimova_2017
     RDKit          3D

 36 41  0  0  0  0  0  0  0  0999 V2000
  131.6360  131.4800   60.6690 C   0  0  0  0  0  0  0  0  0  0  0  0
  130.8990  130.4120   59.9010 C   0  0  0  0  0  0  0  0  0  0  0  0
  131.2140  129.6110   58.8150 C   0  0  0  0  0  0  0  0  0  0  0  0
  130.0990  128.8100   58.5690 C   0  0  0  0  0  0  0  0  0  0  0  0
  129.1440  129.1500   59.5120 C   0  0  0  0  0  0  0  0  0  0  0  0
  127.7280  128.6620   59.8070 C   0  0  1  0  0  0  0  0  0  0  0  0
  126.6650  129.4740   59.0080 C   0  0  0  0  0  0  0  0  0  0  0  0
  126.4710  130.8970   59.2720 C   0  0  0  0  0  0  0  0  0  0  0  0
  127.1770  131.7580   58.7450 O   0  0  0  0  0  0  0  0  0  0  0  0
  125.4530  131.1690   60.1200 N   0  0  0  0  0  0  0  0  0  0  0  0
  124.9850  132.4040   60.6190 C   0  0  0  0  0  0  0  0  0  0  0  0
  125.2510  133.6400   60.0010 C   0  0  0  0  0  0  0  0  0  0  0  0
  124.7650  134.8260   60.5480 C   0  0  0  0  0  0  0  0  0  0  0  0
  124.0150  134.7980   61.7200 C   0  0  0  0  0  0  0  0  0  0  0  0
  123.7540  133.5830   62.3490 C   0  0  0  0  0  0  0  0  0  0  0  0
  124.2340  132.3850   61.8110 C   0  0  0  0  0  0  0  0  0  0  0  0
  123.9240  131.0810   62.5420 C   0  0  0  0  0  0  0  0  0  0  0  0
  126.0030  128.8540   57.9960 C   0  0  0  0  0  0  0  0  0  0  0  0
  126.1090  127.5300   57.6950 N   0  0  0  0  0  0  0  0  0  0  0  0
  126.8130  126.7670   58.4460 C   0  0  0  0  0  0  0  0  0  0  0  0
  126.9200  125.0310   58.2740 S   0  0  0  0  0  0  0  0  0  0  0  0
  128.0110  124.9050   59.6900 C   0  0  0  0  0  0  0  0  0  0  0  0
  128.5630  123.7580   60.2170 C   0  0  0  0  0  0  0  0  0  0  0  0
  128.2110  122.4430   59.6620 C   0  0  0  0  0  0  0  0  0  0  0  0
  127.4710  122.1520   58.7230 O   0  0  0  0  0  0  0  0  0  0  0  0
  128.8440  121.5190   60.3930 N   0  0  0  0  0  0  0  0  0  0  0  0
  129.6230  122.0580   61.3710 C   0  0  0  0  0  0  0  0  0  0  0  0
  130.4220  121.3860   62.2950 C   0  0  0  0  0  0  0  0  0  0  0  0
  131.1730  122.1300   63.2010 C   0  0  0  0  0  0  0  0  0  0  0  0
  131.1200  123.5220   63.1620 C   0  0  0  0  0  0  0  0  0  0  0  0
  130.3110  124.1720   62.2270 C   0  0  0  0  0  0  0  0  0  0  0  0
  129.5260  123.4380   61.3180 C   0  0  0  0  0  0  0  0  0  0  0  0
  128.2180  126.2530   60.2220 C   0  0  0  0  0  0  0  0  0  0  0  0
  128.8650  126.5520   61.2210 O   0  0  0  0  0  0  0  0  0  0  0  0
  127.5740  127.1980   59.4850 N   0  0  0  0  0  0  0  0  0  0  0  0
  129.6380  130.1260   60.3190 O   0  0  0  0  0  0  0  0  0  0  0  0
  1  2  1  0
  2  3  2  0
  3  4  1  0
  4  5  2  0
  6  5  1  6
  6  7  1  0
  7  8  1  0
  8  9  2  0
  8 10  1  0
 10 11  1  0
 11 12  2  0
 12 13  1  0
 13 14  2  0
 14 15  1  0
 15 16  2  0
 16 17  1  0
  7 18  2  0
 18 19  1  0
 19 20  2  0
 20 21  1  0
 21 22  1  0
 22 23  2  0
 23 24  1  0
 24 25  2  0
 24 26  1  0
 26 27  1  0
 27 28  2  0
 28 29  1  0
 29 30  2  0
 30 31  1  0
 31 32  2  0
 22 33  1  0
 33 34  2  0
 33 35  1  0
  5 36  1  0
 36  2  1  0
 35  6  1  0
 16 11  1  0
 35 20  1  0
 32 23  1  0
 32 27  1  0
M  END
>  <Binding energies>  (44) 
[-7.69]

>  <Ligand effiencies>  (44) 
[-0.2023684210526316]

>  <Interactions>  (44) 
["V-A:LEU:475:CD1:4254, V-B:TYR:539:CE2:9845, V-B:ILE:369:CD1:8207, V-B:ILE:369:CG2:8205, V-B:TRP:381:CH2:8340, V-A:TYR:539:CE2:4873, V-B:GLY:454:CA:9017, V-A:TYR:539:CD2:4871, V-B:LEU:475:CD2:9227, V-B:ASP:366:CB:8180, V-B:TYR:539:CD2:9843, V-B:ALA:541:CB:9861, V-B:ASP:366:CG:8181, V-B:TYR:539:C:9836, V-A:PRO:540:CA:4880, V-A:PRO:540:CB:4882, H-B:ASP:366:OD1:8182, H-B:ASP:366:OD2:8183, V-B:PRO:540:CA:9852, H-B:TYR:531:OH:9764, H-B:TYR:539:O:9837"]

$$$$
RR20_Rahimova_2017
     RDKit          3D

 38 43  0  0  0  0  0  0  0  0999 V2000
  127.1210  122.5950   58.8740 C   0  0  0  0  0  0  0  0  0  0  0  0
  128.4360  122.4600   59.6200 C   0  0  0  0  0  0  0  0  0  0  0  0
  129.4440  123.4050   59.4280 C   0  0  0  0  0  0  0  0  0  0  0  0
  130.6470  123.2880   60.1180 C   0  0  0  0  0  0  0  0  0  0  0  0
  130.8580  122.2180   60.9960 C   0  0  0  0  0  0  0  0  0  0  0  0
  132.1640  122.1210   61.7520 C   0  0  0  0  0  0  0  0  0  0  0  0
  132.8960  121.1590   61.5060 O   0  0  0  0  0  0  0  0  0  0  0  0
  132.4880  123.0910   62.6560 N   0  0  0  0  0  0  0  0  0  0  0  0
  133.6130  124.0130   62.4270 C   0  0  0  0  0  0  0  0  0  0  0  0
  133.5670  125.0320   63.5540 C   0  0  0  0  0  0  0  0  0  0  0  0
  132.1950  124.8360   64.1250 C   0  0  0  0  0  0  0  0  0  0  0  0
  131.5520  125.5550   65.1330 C   0  0  0  0  0  0  0  0  0  0  0  0
  130.3260  125.1180   65.6500 C   0  0  0  0  0  0  0  0  0  0  0  0
  129.6280  125.8960   66.7300 C   0  0  0  0  0  0  0  0  0  0  0  0
  129.7180  125.4610   67.9770 N   0  0  0  0  0  0  0  0  0  0  0  0
  129.0910  126.2250   68.8350 C   0  0  0  0  0  0  0  0  0  0  0  0
  128.9900  126.0630   70.2080 N   0  0  0  0  0  0  0  0  0  0  0  0
  129.5680  126.8310   71.1630 C   0  0  0  0  0  0  0  0  0  0  0  0
  130.2660  127.8190   70.9250 O   0  0  0  0  0  0  0  0  0  0  0  0
  129.3170  126.4610   72.6440 C   0  0  0  0  0  0  0  0  0  0  0  0
  128.6290  127.5280   73.3960 N   0  0  0  0  0  0  0  0  0  0  0  0
  128.9790  128.8710   72.9110 C   0  0  0  0  0  0  0  0  0  0  0  0
  128.4510  129.9450   73.8900 C   0  0  0  0  0  0  0  0  0  0  0  0
  127.0070  129.6970   74.3250 C   0  0  0  0  0  0  0  0  0  0  0  0
  126.2730  130.6890   74.9860 C   0  0  0  0  0  0  0  0  0  0  0  0
  124.9700  130.4510   75.4170 C   0  0  0  0  0  0  0  0  0  0  0  0
  124.3820  129.2100   75.1880 C   0  0  0  0  0  0  0  0  0  0  0  0
  125.0980  128.2170   74.5230 C   0  0  0  0  0  0  0  0  0  0  0  0
  126.4080  128.4430   74.0860 C   0  0  0  0  0  0  0  0  0  0  0  0
  127.1720  127.3740   73.3060 C   0  0  0  0  0  0  0  0  0  0  0  0
  128.3030  127.5840   68.1330 S   0  0  0  0  0  0  0  0  0  0  0  0
  128.8620  127.0690   66.5600 C   0  0  0  0  0  0  0  0  0  0  0  0
  128.4770  127.8450   65.3180 C   0  0  0  0  0  0  0  0  0  0  0  0
  129.7890  123.9130   65.1700 C   0  0  0  0  0  0  0  0  0  0  0  0
  130.4390  123.1830   64.1750 C   0  0  0  0  0  0  0  0  0  0  0  0
  131.6210  123.6750   63.6070 C   0  0  0  0  0  0  0  0  0  0  0  0
  129.8300  121.2900   61.2060 C   0  0  0  0  0  0  0  0  0  0  0  0
  128.6260  121.4070   60.5170 C   0  0  0  0  0  0  0  0  0  0  0  0
  1  2  1  0
  2  3  2  0
  3  4  1  0
  4  5  2  0
  5  6  1  0
  6  7  2  0
  6  8  1  0
  8  9  1  0
  9 10  1  0
 10 11  1  0
 11 12  2  0
 12 13  1  0
 13 14  1  0
 14 15  1  0
 15 16  2  0
 16 17  1  0
 17 18  1  0
 18 19  2  0
 18 20  1  0
 20 21  1  0
 21 22  1  0
 22 23  1  0
 23 24  1  0
 24 25  2  0
 25 26  1  0
 26 27  2  0
 27 28  1  0
 28 29  2  0
 29 30  1  0
 16 31  1  0
 31 32  1  0
 32 33  1  0
 13 34  2  0
 34 35  1  0
 35 36  2  0
  5 37  1  0
 37 38  2  0
 38  2  1  0
 36  8  1  0
 36 11  1  0
 32 14  2  0
 30 21  1  0
 29 24  1  0
M  END
>  <Binding energies>  (45) 
[-10.76]

>  <Ligand effiencies>  (45) 
[-0.27589743589743587]

>  <Interactions>  (45) 
["V-A:LEU:475:CD1:4254, V-B:GLU:543:CD:9877, V-A:ARG:545:CZ:4923, V-A:GLY:454:CA:4045, V-B:TYR:539:CE2:9845, V-A:HIS:456:CE1:4066, V-A:GLU:543:CD:4905, V-A:TYR:484:CZ:4343, V-B:GLU:543:CB:9875, V-B:HIS:456:CE1:9038, V-A:TYR:484:CE1:4341, V-A:HIS:456:CD2:4064, V-B:HIS:456:CD2:9036, V-B:GLU:543:CG:9876, V-B:TYR:539:CZ:9846, V-B:TYR:539:CD2:9843, V-B:ALA:541:CB:9861, V-B:TYR:539:C:9836, V-B:LYS:547:CE:9919, V-B:VAL:457:C:9041, H-A:HIS:456:NE2:4067, V-B:HIS:456:CG:9034, V-A:LYS:547:CE:4947, V-B:HIS:456:C:9029, H-B:GLU:543:O:9872, V-B:VAL:457:CA:9043, V-B:HIS:456:CB:9033, V-B:HIS:456:CA:9031, V-B:LYS:547:CD:9918, V-B:VAL:458:CG2:9055, H-A:LYS:547:NZ:4948, V-B:LYS:471:CE:9188, V-B:PRO:540:N:9853, V-B:PRO:540:CB:9854, V-B:PRO:540:C:9850, V-B:PRO:540:CA:9852, V-B:ALA:541:CA:9859"]

$$$$
RR21_Rahimova_2017
     RDKit          3D

 40 45  0  0  0  0  0  0  0  0999 V2000
  124.2180  130.0280   65.2240 C   0  0  0  0  0  0  0  0  0  0  0  0
  125.5460  130.5210   65.0780 O   0  0  0  0  0  0  0  0  0  0  0  0
  126.6060  129.6350   65.1300 C   0  0  0  0  0  0  0  0  0  0  0  0
  127.5120  129.5480   66.2000 C   0  0  0  0  0  0  0  0  0  0  0  0
  128.5540  128.6220   66.1750 C   0  0  0  0  0  0  0  0  0  0  0  0
  128.7160  127.7580   65.0860 C   0  0  0  0  0  0  0  0  0  0  0  0
  129.8330  126.7600   65.0640 C   0  0  0  0  0  0  0  0  0  0  0  0
  130.0290  126.0190   63.9910 N   0  0  0  0  0  0  0  0  0  0  0  0
  131.0820  125.2310   64.2540 N   0  0  0  0  0  0  0  0  0  0  0  0
  131.5800  124.3130   63.2930 C   0  0  0  0  0  0  0  0  0  0  0  0
  132.7430  124.6000   62.5620 C   0  0  0  0  0  0  0  0  0  0  0  0
  133.2240  123.6890   61.6250 C   0  0  0  0  0  0  0  0  0  0  0  0
  132.5450  122.4910   61.4150 C   0  0  0  0  0  0  0  0  0  0  0  0
  131.3880  122.1960   62.1320 C   0  0  0  0  0  0  0  0  0  0  0  0
  130.9050  123.1050   63.0690 C   0  0  0  0  0  0  0  0  0  0  0  0
  131.5680  125.4930   65.5110 C   0  0  0  0  0  0  0  0  0  0  0  0
  130.7720  126.4760   66.0810 C   0  0  0  0  0  0  0  0  0  0  0  0
  130.9230  127.1120   67.3810 C   0  0  0  0  0  0  0  0  0  0  0  0
  130.0620  127.0980   68.4250 C   0  0  0  0  0  0  0  0  0  0  0  0
  128.4740  126.3050   68.5200 S   0  0  0  0  0  0  0  0  0  0  0  0
  128.3050  126.8740   70.1750 C   0  0  0  0  0  0  0  0  0  0  0  0
  127.3210  126.6610   70.9930 N   0  0  0  0  0  0  0  0  0  0  0  0
  127.3140  127.1730   72.3190 C   0  0  0  0  0  0  0  0  0  0  0  0
  126.4320  126.9990   73.1600 O   0  0  0  0  0  0  0  0  0  0  0  0
  128.5320  127.9860   72.6640 C   0  0  0  0  0  0  0  0  0  0  0  0
  128.6270  128.6070   74.0630 C   0  0  0  0  0  0  0  0  0  0  0  0
  127.3620  129.3340   74.5160 C   0  0  0  0  0  0  0  0  0  0  0  0
  126.4240  128.6750   75.3150 C   0  0  0  0  0  0  0  0  0  0  0  0
  125.2790  129.3440   75.7420 C   0  0  0  0  0  0  0  0  0  0  0  0
  125.0710  130.6740   75.3720 C   0  0  0  0  0  0  0  0  0  0  0  0
  123.8270  131.4020   75.8490 C   0  0  0  0  0  0  0  0  0  0  0  0
  126.0120  131.3380   74.5820 C   0  0  0  0  0  0  0  0  0  0  0  0
  127.1560  130.6700   74.1560 C   0  0  0  0  0  0  0  0  0  0  0  0
  129.5030  128.1950   71.8360 N   0  0  0  0  0  0  0  0  0  0  0  0
  129.3860  127.6210   70.5630 N   0  0  0  0  0  0  0  0  0  0  0  0
  130.3840  127.7940   69.6630 C   0  0  0  0  0  0  0  0  0  0  0  0
  131.4170  128.4430   69.8710 O   0  0  0  0  0  0  0  0  0  0  0  0
  127.8180  127.8480   64.0170 C   0  0  0  0  0  0  0  0  0  0  0  0
  126.7750  128.7740   64.0400 C   0  0  0  0  0  0  0  0  0  0  0  0
  125.9220  128.8350   62.9900 F   0  0  0  0  0  0  0  0  0  0  0  0
  1  2  1  0
  2  3  1  0
  3  4  2  0
  4  5  1  0
  5  6  2  0
  6  7  1  0
  7  8  2  0
  8  9  1  0
  9 10  1  0
 10 11  2  0
 11 12  1  0
 12 13  2  0
 13 14  1  0
 14 15  2  0
  9 16  1  0
 16 17  2  0
 17 18  1  0
 18 19  2  0
 19 20  1  0
 20 21  1  0
 21 22  2  0
 22 23  1  0
 23 24  2  0
 23 25  1  0
 25 26  1  0
 26 27  1  0
 27 28  2  0
 28 29  1  0
 29 30  2  0
 30 31  1  0
 30 32  1  0
 32 33  2  0
 25 34  2  0
 34 35  1  0
 35 36  1  0
 36 37  2  0
  6 38  1  0
 38 39  2  0
 39 40  1  0
 39  3  1  0
 17  7  1  0
 36 19  1  0
 15 10  1  0
 35 21  1  0
 33 27  1  0
M  END
>  <Binding energies>  (46) 
[-9.75]

>  <Ligand effiencies>  (46) 
[-0.24375]

>  <Interactions>  (46) 
["V-A:LEU:475:CD1:4254, V-B:GLU:543:CD:9877, V-B:TYR:539:CE2:9845, V-A:HIS:456:CE1:4066, V-A:GLU:543:CD:4905, V-A:GLU:543:CG:4904, V-B:GLU:543:CB:9875, V-B:HIS:456:CE1:9038, V-B:GLY:544:C:9881, V-B:HIS:456:CD2:9036, V-A:GLU:543:CB:4903, V-B:ARG:545:CZ:9895, V-B:GLY:454:CA:9017, H-B:TYR:484:OH:9316, V-B:ASP:366:CG:8181, V-B:LYS:547:CE:9919, V-B:ASP:473:CG:9208, V-B:ASP:473:CB:9207, V-B:HIS:456:CG:9034, V-A:LYS:547:CE:4947, V-B:HIS:456:C:9029, V-A:GLU:543:C:4899, V-B:VAL:457:CA:9043, V-B:HIS:456:CB:9033, V-B:VAL:458:CG2:9055, H-A:LYS:547:NZ:4948, V-B:LYS:471:CE:9188, H-A:ARG:545:N:4917, V-B:LYS:471:CB:9185, H-A:GLY:544:N:4912, V-B:LYS:471:C:9181"]

$$$$
RR23_Rahimova_2017
     RDKit          3D

 39 44  0  0  0  0  0  0  0  0999 V2000
  128.6890  133.9830   73.3770 C   0  0  0  0  0  0  0  0  0  0  0  0
  128.7500  132.4670   73.3630 C   0  0  0  0  0  0  0  0  0  0  0  0
  129.7510  131.8150   72.6410 C   0  0  0  0  0  0  0  0  0  0  0  0
  129.8120  130.4240   72.6360 C   0  0  0  0  0  0  0  0  0  0  0  0
  128.8660  129.6730   73.3440 C   0  0  0  0  0  0  0  0  0  0  0  0
  128.9620  128.1640   73.3430 C   0  0  0  0  0  0  0  0  0  0  0  0
  129.3700  127.6170   74.3700 O   0  0  0  0  0  0  0  0  0  0  0  0
  128.5850  127.4690   72.2280 N   0  0  0  0  0  0  0  0  0  0  0  0
  127.2470  126.8660   72.1130 C   0  0  0  0  0  0  0  0  0  0  0  0
  127.1460  126.3160   70.7000 C   0  0  0  0  0  0  0  0  0  0  0  0
  128.2930  126.9810   70.0010 C   0  0  0  0  0  0  0  0  0  0  0  0
  128.6510  126.9260   68.6540 C   0  0  0  0  0  0  0  0  0  0  0  0
  129.8600  127.4910   68.2180 C   0  0  0  0  0  0  0  0  0  0  0  0
  130.2920  127.4530   66.7440 C   0  0  2  0  0  0  0  0  0  0  0  0
  129.3330  128.1020   65.8760 N   0  0  0  0  0  0  0  0  0  0  0  0
  129.2930  127.5610   64.7260 C   0  0  0  0  0  0  0  0  0  0  0  0
  128.4960  127.8880   63.6720 N   0  0  0  0  0  0  0  0  0  0  0  0
  127.4660  128.7670   63.6370 C   0  0  0  0  0  0  0  0  0  0  0  0
  127.0920  129.4710   64.5780 O   0  0  0  0  0  0  0  0  0  0  0  0
  126.7220  128.8630   62.2950 C   0  0  0  0  0  0  0  0  0  0  0  0
  125.9310  130.1130   62.2670 N   0  0  0  0  0  0  0  0  0  0  0  0
  124.8250  130.1370   63.1060 N   0  0  0  0  0  0  0  0  0  0  0  0
  124.0500  131.1720   63.1740 N   0  0  0  0  0  0  0  0  0  0  0  0
  124.3230  132.2970   62.3920 C   0  0  0  0  0  0  0  0  0  0  0  0
  123.4660  133.3960   62.4870 C   0  0  0  0  0  0  0  0  0  0  0  0
  123.7120  134.5340   61.7170 C   0  0  0  0  0  0  0  0  0  0  0  0
  124.8100  134.5750   60.8550 C   0  0  0  0  0  0  0  0  0  0  0  0
  125.6670  133.4770   60.7580 C   0  0  0  0  0  0  0  0  0  0  0  0
  125.4210  132.3360   61.5310 C   0  0  0  0  0  0  0  0  0  0  0  0
  126.3340  131.1360   61.4380 C   0  0  0  0  0  0  0  0  0  0  0  0
  127.3190  131.0790   60.6950 O   0  0  0  0  0  0  0  0  0  0  0  0
  130.4000  126.1880   64.4370 S   0  0  0  0  0  0  0  0  0  0  0  0
  130.6340  126.0400   66.2170 C   0  0  2  0  0  0  0  0  0  0  0  0
  129.7680  124.8760   66.7430 C   0  0  0  0  0  0  0  0  0  0  0  0
  130.7170  128.0640   69.1640 C   0  0  0  0  0  0  0  0  0  0  0  0
  130.3690  128.1000   70.5150 C   0  0  0  0  0  0  0  0  0  0  0  0
  129.1250  127.6070   70.9300 C   0  0  0  0  0  0  0  0  0  0  0  0
  127.8810  130.3350   74.0890 C   0  0  0  0  0  0  0  0  0  0  0  0
  127.8210  131.7260   74.0950 C   0  0  0  0  0  0  0  0  0  0  0  0
  1  2  1  0
  2  3  2  0
  3  4  1  0
  4  5  2  0
  5  6  1  0
  6  7  2  0
  6  8  1  0
  8  9  1  0
  9 10  1  0
 10 11  1  0
 11 12  2  0
 12 13  1  0
 14 13  1  1
 14 15  1  0
 15 16  2  0
 16 17  1  0
 17 18  1  0
 18 19  2  0
 18 20  1  0
 20 21  1  0
 21 22  1  0
 22 23  2  0
 23 24  1  0
 24 25  2  0
 25 26  1  0
 26 27  2  0
 27 28  1  0
 28 29  2  0
 29 30  1  0
 30 31  2  0
 16 32  1  0
 32 33  1  0
 33 34  1  1
 13 35  2  0
 35 36  1  0
 36 37  2  0
  5 38  1  0
 38 39  2  0
 39  2  1  0
 37  8  1  0
 37 11  1  0
 33 14  1  0
 30 21  1  0
 29 24  1  0
M  END
>  <Binding energies>  (47) 
[-10.02]

>  <Ligand effiencies>  (47) 
[-0.2505]

>  <Interactions>  (47) 
["V-B:GLU:543:CD:9877, H-A:GLU:543:OE2:4907, V-A:HIS:456:CE1:4066, V-A:GLU:543:CD:4905, V-A:TYR:484:CZ:4343, V-B:GLU:543:C:9871, V-B:GLU:543:CB:9875, V-B:HIS:456:CE1:9038, V-A:TYR:484:CE1:4341, V-B:GLY:544:C:9881, V-B:HIS:456:CD2:9036, V-A:GLU:543:CB:4903, V-B:GLU:543:CG:9876, V-B:ILE:369:CD1:8207, V-B:ILE:369:CG2:8205, V-B:TRP:381:CH2:8340, V-B:GLY:454:CA:9017, V-B:LEU:475:CD2:9227, V-B:ASP:366:CG:8181, H-B:ARG:545:NH2:9897, V-B:LYS:547:CE:9919, V-B:TYR:484:CB:9309, V-B:TYR:484:CG:9310, V-B:HIS:456:CG:9034, V-A:LYS:547:CE:4947, V-A:GLU:543:C:4899, H-A:LYS:547:NZ:4948, H-B:GLY:454:N:9018, V-A:GLY:544:CA:4911, V-A:GLY:544:C:4909, V-B:GLY:544:CA:9883, H-B:GLU:543:OE2:9879"]

$$$$
RR26_Rahimova_2017
     RDKit          3D

 38 44  0  0  0  0  0  0  0  0999 V2000
  127.5420  133.8050   60.7000 C   0  0  0  0  0  0  0  0  0  0  0  0
  126.0930  134.0170   61.1180 C   0  0  0  0  0  0  0  0  0  0  0  0
  125.3890  135.0860   60.5530 C   0  0  0  0  0  0  0  0  0  0  0  0
  124.0500  135.3030   60.8680 C   0  0  0  0  0  0  0  0  0  0  0  0
  123.3980  134.4460   61.7490 C   0  0  0  0  0  0  0  0  0  0  0  0
  124.0870  133.3770   62.3180 C   0  0  0  0  0  0  0  0  0  0  0  0
  125.4390  133.1480   62.0190 C   0  0  0  0  0  0  0  0  0  0  0  0
  126.1110  131.9830   62.6870 C   0  0  0  0  0  0  0  0  0  0  0  0
  126.3390  131.9500   63.9980 N   0  0  0  0  0  0  0  0  0  0  0  0
  126.9120  130.7860   64.1420 C   0  0  0  0  0  0  0  0  0  0  0  0
  127.5610  129.8810   65.4600 S   0  0  0  0  0  0  0  0  0  0  0  0
  127.9840  128.5560   64.3120 C   0  0  0  0  0  0  0  0  0  0  0  0
  128.5900  127.3810   64.5920 C   0  0  0  0  0  0  0  0  0  0  0  0
  129.0420  126.8910   65.8840 C   0  0  0  0  0  0  0  0  0  0  0  0
  128.7540  127.3980   67.1420 C   0  0  0  0  0  0  0  0  0  0  0  0
  129.3610  126.5930   68.0720 N   0  0  0  0  0  0  0  0  0  0  0  0
  129.3410  126.7150   69.4850 C   0  0  0  0  0  0  0  0  0  0  0  0
  128.5320  125.8770   70.2670 C   0  0  0  0  0  0  0  0  0  0  0  0
  128.5190  126.0090   71.6530 C   0  0  0  0  0  0  0  0  0  0  0  0
  129.3160  126.9750   72.2620 C   0  0  0  0  0  0  0  0  0  0  0  0
  130.1270  127.8110   71.4970 C   0  0  0  0  0  0  0  0  0  0  0  0
  130.1400  127.6840   70.1110 C   0  0  0  0  0  0  0  0  0  0  0  0
  129.9990  125.5810   67.4650 N   0  0  0  0  0  0  0  0  0  0  0  0
  129.8240  125.7480   66.1690 C   0  0  0  0  0  0  0  0  0  0  0  0
  130.4290  124.7760   65.2030 C   0  0  0  0  0  0  0  0  0  0  0  0
  129.7470  123.5990   64.8580 C   0  0  0  0  0  0  0  0  0  0  0  0
  130.3040  122.6860   63.9620 C   0  0  0  0  0  0  0  0  0  0  0  0
  131.5540  122.9430   63.4020 C   0  0  0  0  0  0  0  0  0  0  0  0
  132.2370  124.1250   63.7240 C   0  0  0  0  0  0  0  0  0  0  0  0
  131.6810  125.0330   64.6250 C   0  0  0  0  0  0  0  0  0  0  0  0
  133.4970  124.4010   63.2290 O   0  0  0  0  0  0  0  0  0  0  0  0
  133.8440  123.6480   62.0630 C   0  0  0  0  0  0  0  0  0  0  0  0
  133.4520  122.1610   62.2390 C   0  0  0  0  0  0  0  0  0  0  0  0
  132.0460  122.0380   62.4840 O   0  0  0  0  0  0  0  0  0  0  0  0
  127.6080  128.8720   62.9370 C   0  0  0  0  0  0  0  0  0  0  0  0
  127.7560  128.1970   61.9170 O   0  0  0  0  0  0  0  0  0  0  0  0
  127.0160  130.1430   62.9650 N   0  0  0  0  0  0  0  0  0  0  0  0
  126.4920  130.9130   62.0070 N   0  0  0  0  0  0  0  0  0  0  0  0
  1  2  1  0
  2  3  2  0
  3  4  1  0
  4  5  2  0
  5  6  1  0
  6  7  2  0
  7  8  1  0
  8  9  1  0
  9 10  2  0
 10 11  1  0
 11 12  1  0
 12 13  2  0
 13 14  1  0
 14 15  2  0
 15 16  1  0
 16 17  1  0
 17 18  2  0
 18 19  1  0
 19 20  2  0
 20 21  1  0
 21 22  2  0
 16 23  1  0
 23 24  2  0
 24 25  1  0
 25 26  2  0
 26 27  1  0
 27 28  2  0
 28 29  1  0
 29 30  2  0
 29 31  1  0
 31 32  1  0
 32 33  1  0
 33 34  1  0
 12 35  1  0
 35 36  2  0
 35 37  1  0
 37 38  1  0
  7  2  1  0
 38  8  2  0
 37 10  1  0
 24 14  1  0
 30 25  1  0
 22 17  1  0
 34 28  1  0
M  END
>  <Binding energies>  (48) 
[-10.52]

>  <Ligand effiencies>  (48) 
[-0.2768421052631579]

>  <Interactions>  (48) 
["V-A:LEU:475:CD1:4254, V-B:GLU:543:CD:9877, H-A:GLY:454:N:4046, V-A:GLY:454:CA:4045, V-A:HIS:456:CE1:4066, V-A:GLU:543:CD:4905, V-A:GLU:543:CG:4904, V-B:GLU:543:C:9871, V-B:GLU:543:CB:9875, V-B:HIS:456:CE1:9038, V-A:TYR:484:CE1:4341, V-A:HIS:456:CD2:4064, V-B:GLU:543:CG:9876, V-B:ILE:369:CD1:8207, V-B:ILE:369:CG2:8205, V-B:TRP:381:CH2:8340, V-A:ALA:541:CB:4889, V-B:GLY:454:CA:9017, H-B:TYR:484:OH:9316, V-A:TYR:539:CD2:4871, V-B:LEU:475:CD2:9227, V-B:ALA:541:CB:9861, H-A:TYR:484:OH:4344, V-B:LYS:547:CE:9919, V-B:TRP:381:CZ2:8338, V-B:ILE:369:CG1:8206, V-B:SER:385:C:8373"]

$$$$
RR2_Rahimova_2017
     RDKit          3D

 46 50  0  0  0  0  0  0  0  0999 V2000
  126.9630  126.2440   69.0900 C   0  0  0  0  0  0  0  0  0  0  0  0
  128.1260  127.0480   68.9210 O   0  0  0  0  0  0  0  0  0  0  0  0
  129.0910  126.6550   68.0130 C   0  0  0  0  0  0  0  0  0  0  0  0
  130.0450  127.5140   67.4510 C   0  0  0  0  0  0  0  0  0  0  0  0
  130.9790  127.0280   66.5400 C   0  0  0  0  0  0  0  0  0  0  0  0
  130.9790  125.6770   66.1670 C   0  0  0  0  0  0  0  0  0  0  0  0
  132.0030  125.1750   65.1670 C   0  0  0  0  0  0  0  0  0  0  0  0
  132.9490  125.8940   64.8280 O   0  0  0  0  0  0  0  0  0  0  0  0
  131.7930  123.9280   64.6850 N   0  0  0  0  0  0  0  0  0  0  0  0
  132.6490  123.4540   63.6960 N   0  0  0  0  0  0  0  0  0  0  0  0
  132.2010  122.4800   62.8780 C   0  0  0  0  0  0  0  0  0  0  0  0
  131.1560  121.8450   63.0430 O   0  0  0  0  0  0  0  0  0  0  0  0
  133.0790  122.1910   61.6520 C   0  0  0  0  0  0  0  0  0  0  0  0
  132.8750  123.3610   60.2600 S   0  0  0  0  0  0  0  0  0  0  0  0
  132.0330  124.6870   61.0690 C   0  0  0  0  0  0  0  0  0  0  0  0
  132.6210  125.4940   61.9160 N   0  0  0  0  0  0  0  0  0  0  0  0
  131.6540  126.3590   62.4090 N   0  0  0  0  0  0  0  0  0  0  0  0
  130.5210  126.0610   61.8170 C   0  0  0  0  0  0  0  0  0  0  0  0
  129.2430  126.7910   62.0760 C   0  0  0  0  0  0  0  0  0  0  0  0
  128.8840  127.1200   63.3860 C   0  0  0  0  0  0  0  0  0  0  0  0
  127.6920  127.7920   63.6380 C   0  0  0  0  0  0  0  0  0  0  0  0
  126.8540  128.1580   62.5780 C   0  0  0  0  0  0  0  0  0  0  0  0
  125.6360  128.8270   62.7730 N   0  0  0  0  0  0  0  0  0  0  0  0
  125.4010  130.1990   63.8780 S   0  0  0  0  0  0  0  0  0  0  0  0
  126.4000  130.0370   64.9410 O   0  0  0  0  0  0  0  0  0  0  0  0
  123.9710  130.2870   64.1970 O   0  0  0  0  0  0  0  0  0  0  0  0
  125.8780  131.6460   62.9370 C   0  0  0  0  0  0  0  0  0  0  0  0
  124.9140  132.5490   62.4830 C   0  0  0  0  0  0  0  0  0  0  0  0
  125.3040  133.6590   61.7390 C   0  0  0  0  0  0  0  0  0  0  0  0
  126.6560  133.8700   61.4550 C   0  0  0  0  0  0  0  0  0  0  0  0
  127.0780  135.0730   60.6320 C   0  0  0  0  0  0  0  0  0  0  0  0
  127.6170  132.9630   61.9070 C   0  0  0  0  0  0  0  0  0  0  0  0
  127.2280  131.8520   62.6500 C   0  0  0  0  0  0  0  0  0  0  0  0
  127.2150  127.8310   61.2700 C   0  0  0  0  0  0  0  0  0  0  0  0
  128.4040  127.1530   61.0180 C   0  0  0  0  0  0  0  0  0  0  0  0
  130.6910  124.9960   60.9490 N   0  0  0  0  0  0  0  0  0  0  0  0
  129.7200  124.3450   60.1600 C   0  0  0  0  0  0  0  0  0  0  0  0
  129.0060  123.2660   60.6820 C   0  0  0  0  0  0  0  0  0  0  0  0
  128.0460  122.6310   59.9000 C   0  0  0  0  0  0  0  0  0  0  0  0
  127.7920  123.0630   58.5970 C   0  0  0  0  0  0  0  0  0  0  0  0
  126.8220  122.3700   57.8990 O   0  0  0  0  0  0  0  0  0  0  0  0
  125.7610  123.0910   57.2810 C   0  0  0  0  0  0  0  0  0  0  0  0
  128.5150  124.1500   58.0790 C   0  0  0  0  0  0  0  0  0  0  0  0
  129.4740  124.7890   58.8580 C   0  0  0  0  0  0  0  0  0  0  0  0
  130.0250  124.8220   66.7380 C   0  0  0  0  0  0  0  0  0  0  0  0
  129.0930  125.3100   67.6500 C   0  0  0  0  0  0  0  0  0  0  0  0
  1  2  1  0
  2  3  1  0
  3  4  2  0
  4  5  1  0
  5  6  2  0
  6  7  1  0
  7  8  2  0
  7  9  1  0
  9 10  1  0
 10 11  1  0
 11 12  2  0
 11 13  1  0
 13 14  1  0
 14 15  1  0
 15 16  2  0
 16 17  1  0
 17 18  2  0
 18 19  1  0
 19 20  2  0
 20 21  1  0
 21 22  2  0
 22 23  1  0
 23 24  1  0
 24 25  2  0
 24 26  2  0
 24 27  1  0
 27 28  2  0
 28 29  1  0
 29 30  2  0
 30 31  1  0
 30 32  1  0
 32 33  2  0
 22 34  1  0
 34 35  2  0
 18 36  1  0
 36 37  1  0
 37 38  2  0
 38 39  1  0
 39 40  2  0
 40 41  1  0
 41 42  1  0
 40 43  1  0
 43 44  2  0
  6 45  1  0
 45 46  2  0
 46  3  1  0
 36 15  1  0
 44 37  1  0
 35 19  1  0
 33 27  1  0
M  END
>  <Binding energies>  (49) 
[-9.75]

>  <Ligand effiencies>  (49) 
[-0.1989795918367347]

>  <Interactions>  (49) 
["V-A:LEU:475:CD1:4254, V-B:GLU:543:CD:9877, H-A:ARG:545:NH2:4925, V-A:GLY:454:CA:4045, V-B:TYR:539:CE2:9845, V-A:HIS:456:CE1:4066, V-A:GLU:543:CD:4905, V-A:TYR:484:CZ:4343, V-B:GLU:543:CA:9873, V-B:GLU:543:C:9871, V-B:GLU:543:CB:9875, V-B:HIS:456:CE1:9038, V-A:TYR:484:CE1:4341, V-B:GLY:544:C:9881, V-A:GLU:543:CB:4903, V-B:GLU:543:CG:9876, V-B:ARG:545:CZ:9895, V-B:TRP:381:CH2:8340, V-A:ALA:541:CB:4889, H-B:TYR:484:OH:9316, V-A:TYR:539:CD2:4871, V-B:LEU:475:CD2:9227, V-B:ASP:366:CG:8181, V-A:ASP:366:CG:3209, H-B:ASP:366:OD1:8182, H-B:ASP:366:OD2:8183, H-A:ARG:545:NE:4921, H-A:TYR:484:OH:4344, H-B:GLY:454:N:9018, V-B:PRO:540:N:9853, V-B:PRO:540:CB:9854, V-B:PRO:540:CA:9852, H-B:TYR:539:OH:9847"]

$$$$
RR33_Rahimova_2017
     RDKit          3D

 18 19  0  0  0  0  0  0  0  0999 V2000
  134.8780  125.1280   66.1300 C   0  0  0  0  0  0  0  0  0  0  0  0
  133.5840  125.1310   65.3100 C   0  0  0  0  0  0  0  0  0  0  0  0
  133.8300  124.4810   64.0660 O   0  0  0  0  0  0  0  0  0  0  0  0
  132.7760  124.2470   63.2030 C   0  0  0  0  0  0  0  0  0  0  0  0
  131.6390  123.6590   63.7560 C   0  0  0  0  0  0  0  0  0  0  0  0
  130.5280  123.3830   62.9640 C   0  0  0  0  0  0  0  0  0  0  0  0
  130.5390  123.6920   61.6000 C   0  0  0  0  0  0  0  0  0  0  0  0
  129.3460  123.3940   60.7500 C   0  0  0  0  0  0  0  0  0  0  0  0
  128.0810  123.5870   61.0470 N   0  0  0  0  0  0  0  0  0  0  0  0
  127.4050  123.1740   59.9860 C   0  0  0  0  0  0  0  0  0  0  0  0
  125.8940  123.2500   59.9470 C   0  0  0  0  0  0  0  0  0  0  0  0
  125.3450  123.2470   61.2950 N   0  0  0  0  0  0  0  0  0  0  0  0
  124.1200  124.0270   61.3520 C   0  0  0  0  0  0  0  0  0  0  0  0
  128.2910  122.7170   59.0180 C   0  0  0  0  0  0  0  0  0  0  0  0
  128.1600  122.1410   57.6290 C   0  0  0  0  0  0  0  0  0  0  0  0
  129.5410  122.8600   59.5160 O   0  0  0  0  0  0  0  0  0  0  0  0
  131.6760  124.2860   61.0430 C   0  0  0  0  0  0  0  0  0  0  0  0
  132.7880  124.5620   61.8350 C   0  0  0  0  0  0  0  0  0  0  0  0
  1  2  1  0
  2  3  1  0
  3  4  1  0
  4  5  2  0
  5  6  1  0
  6  7  2  0
  7  8  1  0
  8  9  2  0
  9 10  1  0
 10 11  1  0
 11 12  1  0
 12 13  1  0
 10 14  2  0
 14 15  1  0
 14 16  1  0
  7 17  1  0
 17 18  2  0
 18  4  1  0
 16  8  1  0
M  END
>  <Binding energies>  (50) 
[-5.87]

>  <Ligand effiencies>  (50) 
[-0.30894736842105264]

>  <Interactions>  (50) 
["V-B:GLU:543:CD:9877, V-A:ARG:545:CZ:4923, H-A:GLY:454:N:4046, V-A:ARG:545:CG:4919, V-A:GLY:454:CA:4045, V-B:TYR:539:CE2:9845, V-A:HIS:456:CE1:4066, V-A:GLY:454:C:4043, V-B:ARG:545:CZ:9895, V-B:TYR:539:CZ:9846, H-B:ALA:541:N:9860, V-B:TYR:539:CD2:9843, V-A:ASP:366:CG:3209, V-B:TYR:539:C:9836, V-A:ARG:545:CD:4920, V-B:PRO:540:N:9853, V-A:GLY:453:C:4038, V-B:PRO:540:CB:9854, V-B:PRO:540:C:9850, V-B:PRO:540:CA:9852, V-A:GLY:453:CA:4040, V-B:ASN:362:C:8140, V-B:ASN:362:CB:8144, V-B:TYR:539:CD1:9842, V-B:TYR:539:CG:9841, V-B:TYR:539:CE1:9844, H-B:TYR:539:OH:9847, H-B:GLU:543:OE2:9879"]

$$$$
RR3_Rahimova_2017
     RDKit          3D

 38 44  0  0  0  0  0  0  0  0999 V2000
  123.9800  132.7320   62.8540 C   0  0  0  0  0  0  0  0  0  0  0  0
  123.8030  131.4540   62.3340 C   0  0  0  0  0  0  0  0  0  0  0  0
  124.7080  130.4470   62.6570 C   0  0  0  0  0  0  0  0  0  0  0  0
  125.7980  130.7020   63.5020 C   0  0  0  0  0  0  0  0  0  0  0  0
  126.7690  129.6170   63.8500 C   0  0  0  0  0  0  0  0  0  0  0  0
  127.2050  129.4360   65.1690 C   0  0  0  0  0  0  0  0  0  0  0  0
  128.1110  128.4290   65.4910 C   0  0  0  0  0  0  0  0  0  0  0  0
  128.6090  127.5840   64.4960 C   0  0  0  0  0  0  0  0  0  0  0  0
  129.5880  126.5030   64.8340 C   0  0  0  0  0  0  0  0  0  0  0  0
  130.1510  125.7890   63.8660 N   0  0  0  0  0  0  0  0  0  0  0  0
  130.9840  124.9600   64.4470 C   0  0  0  0  0  0  0  0  0  0  0  0
  131.8210  123.9840   63.7540 C   0  0  0  0  0  0  0  0  0  0  0  0
  132.3770  122.8480   64.3180 C   0  0  0  0  0  0  0  0  0  0  0  0
  133.0950  122.1560   63.3770 N   0  0  0  0  0  0  0  0  0  0  0  0
  133.0380  122.8130   62.1680 C   0  0  0  0  0  0  0  0  0  0  0  0
  133.6070  122.4960   60.9290 C   0  0  0  0  0  0  0  0  0  0  0  0
  133.3620  123.3770   59.8770 C   0  0  0  0  0  0  0  0  0  0  0  0
  132.5890  124.5210   60.0420 C   0  0  0  0  0  0  0  0  0  0  0  0
  132.0210  124.8360   61.2750 C   0  0  0  0  0  0  0  0  0  0  0  0
  132.2370  123.9810   62.3710 C   0  0  0  0  0  0  0  0  0  0  0  0
  130.9680  125.1220   65.8050 N   0  0  0  0  0  0  0  0  0  0  0  0
  130.0540  126.1010   66.0980 C   0  0  0  0  0  0  0  0  0  0  0  0
  129.7220  126.5080   67.4960 C   0  0  0  0  0  0  0  0  0  0  0  0
  128.7030  125.8550   68.1920 C   0  0  0  0  0  0  0  0  0  0  0  0
  128.3820  126.2400   69.4890 C   0  0  0  0  0  0  0  0  0  0  0  0
  129.0740  127.2810   70.1250 C   0  0  0  0  0  0  0  0  0  0  0  0
  128.7130  127.7050   71.5130 C   0  0  0  0  0  0  0  0  0  0  0  0
  129.3310  128.8140   72.1110 C   0  0  0  0  0  0  0  0  0  0  0  0
  128.9920  129.2110   73.4030 C   0  0  0  0  0  0  0  0  0  0  0  0
  128.0270  128.5020   74.1110 C   0  0  0  0  0  0  0  0  0  0  0  0
  127.4000  127.4000   73.5370 C   0  0  0  0  0  0  0  0  0  0  0  0
  127.7430  127.0050   72.2470 C   0  0  0  0  0  0  0  0  0  0  0  0
  130.1060  127.9170   69.4210 C   0  0  0  0  0  0  0  0  0  0  0  0
  130.4300  127.5350   68.1230 C   0  0  0  0  0  0  0  0  0  0  0  0
  128.1710  127.7480   63.1810 C   0  0  0  0  0  0  0  0  0  0  0  0
  127.2650  128.7560   62.8620 C   0  0  0  0  0  0  0  0  0  0  0  0
  125.9570  131.9980   64.0140 C   0  0  0  0  0  0  0  0  0  0  0  0
  125.0540  133.0080   63.6940 C   0  0  0  0  0  0  0  0  0  0  0  0
  1  2  2  0
  2  3  1  0
  3  4  2  0
  4  5  1  0
  5  6  2  0
  6  7  1  0
  7  8  2  0
  8  9  1  0
  9 10  1  0
 10 11  2  0
 11 12  1  0
 12 13  2  0
 13 14  1  0
 14 15  1  0
 15 16  2  0
 16 17  1  0
 17 18  2  0
 18 19  1  0
 19 20  2  0
 11 21  1  0
 21 22  1  0
 22 23  1  0
 23 24  2  0
 24 25  1  0
 25 26  2  0
 26 27  1  0
 27 28  2  0
 28 29  1  0
 29 30  2  0
 30 31  1  0
 31 32  2  0
 26 33  1  0
 33 34  2  0
  8 35  1  0
 35 36  2  0
  4 37  1  0
 37 38  2  0
 38  1  1  0
 36  5  1  0
 22  9  2  0
 34 23  1  0
 20 12  1  0
 32 27  1  0
 20 15  1  0
M  END
>  <Binding energies>  (51) 
[-10.22]

>  <Ligand effiencies>  (51) 
[-0.2555]

>  <Interactions>  (51) 
["V-A:LEU:475:CD1:4254, V-B:GLU:543:CD:9877, V-A:ILE:369:CB:3232, V-A:ILE:369:CG2:3233, V-A:GLY:454:CA:4045, V-B:TYR:539:CE2:9845, V-A:HIS:456:CE1:4066, V-A:GLU:543:CD:4905, V-A:TYR:484:CZ:4343, V-B:GLU:543:C:9871, V-B:GLU:543:CB:9875, V-B:HIS:456:CE1:9038, V-B:HIS:456:CD2:9036, V-A:GLU:543:CB:4903, V-B:ILE:369:CD1:8207, V-B:GLY:454:CA:9017, V-B:LEU:475:CD2:9227, V-B:TYR:539:CZ:9846, V-B:ASP:366:CG:8181, V-A:ASP:366:CG:3209, V-A:ASP:366:CB:3208, H-A:TYR:484:OH:4344, V-B:LYS:547:CE:9919, H-A:HIS:456:NE2:4067, V-A:LYS:547:CE:4947, V-A:GLU:543:C:4899, V-B:LYS:547:CD:9918, V-A:LEU:475:CG:4253"]

$$$$
RR4_Rahimova_2017
     RDKit          3D

 40 44  0  0  0  0  0  0  0  0999 V2000
  127.9720  127.7320   73.8600 C   0  0  0  0  0  0  0  0  0  0  0  0
  129.1560  127.3070   73.1960 O   0  0  0  0  0  0  0  0  0  0  0  0
  129.1660  127.2350   71.8160 C   0  0  0  0  0  0  0  0  0  0  0  0
  130.2800  127.7660   71.1690 C   0  0  0  0  0  0  0  0  0  0  0  0
  130.3760  127.7360   69.7820 C   0  0  0  0  0  0  0  0  0  0  0  0
  129.3580  127.1760   68.9970 C   0  0  0  0  0  0  0  0  0  0  0  0
  129.4640  127.1460   67.4990 C   0  0  0  0  0  0  0  0  0  0  0  0
  128.5840  127.8400   66.6630 C   0  0  0  0  0  0  0  0  0  0  0  0
  128.7280  127.7840   65.2700 C   0  0  0  0  0  0  0  0  0  0  0  0
  127.7670  128.5740   64.4420 C   0  0  0  0  0  0  0  0  0  0  0  0
  127.4450  129.8870   64.8010 C   0  0  0  0  0  0  0  0  0  0  0  0
  126.5600  130.6340   64.0280 C   0  0  0  0  0  0  0  0  0  0  0  0
  125.9860  130.0870   62.8810 C   0  0  0  0  0  0  0  0  0  0  0  0
  125.1200  130.9020   62.1770 O   0  0  0  0  0  0  0  0  0  0  0  0
  123.8030  131.1120   62.6760 C   0  0  0  0  0  0  0  0  0  0  0  0
  126.3100  128.7730   62.5140 C   0  0  0  0  0  0  0  0  0  0  0  0
  127.1960  128.0280   63.2880 C   0  0  0  0  0  0  0  0  0  0  0  0
  129.7670  126.9870   64.7310 C   0  0  0  0  0  0  0  0  0  0  0  0
  129.9630  126.8940   63.2810 C   0  0  0  0  0  0  0  0  0  0  0  0
  130.1170  126.8210   62.1360 N   0  0  0  0  0  0  0  0  0  0  0  0
  130.6020  126.2890   65.6330 C   0  0  0  0  0  0  0  0  0  0  0  0
  131.9460  125.2340   65.1340 S   0  0  0  0  0  0  0  0  0  0  0  0
  131.2490  123.5940   64.7430 C   0  0  0  0  0  0  0  0  0  0  0  0
  130.8450  123.4070   63.2740 C   0  0  0  0  0  0  0  0  0  0  0  0
  131.6710  123.0260   62.4410 O   0  0  0  0  0  0  0  0  0  0  0  0
  129.5530  123.7040   63.0000 N   0  0  0  0  0  0  0  0  0  0  0  0
  128.8880  123.6350   61.7740 C   0  0  0  0  0  0  0  0  0  0  0  0
  127.9550  124.9570   61.1250 S   0  0  0  0  0  0  0  0  0  0  0  0
  127.5350  124.0410   59.7110 C   0  0  0  0  0  0  0  0  0  0  0  0
  128.0950  122.7540   59.7450 C   0  0  0  0  0  0  0  0  0  0  0  0
  128.8730  122.5320   60.9070 C   0  0  0  0  0  0  0  0  0  0  0  0
  129.5790  121.2820   61.1750 C   0  0  0  0  0  0  0  0  0  0  0  0
  130.1370  120.2910   61.3870 N   0  0  0  0  0  0  0  0  0  0  0  0
  127.9000  121.7640   58.5910 C   0  0  0  0  0  0  0  0  0  0  0  0
  127.4020  122.4940   57.3240 C   0  0  0  0  0  0  0  0  0  0  0  0
  126.2600  123.4790   57.6320 C   0  0  0  0  0  0  0  0  0  0  0  0
  126.7170  124.6210   58.5640 C   0  0  0  0  0  0  0  0  0  0  0  0
  130.4600  126.3860   66.9760 N   0  0  0  0  0  0  0  0  0  0  0  0
  128.2400  126.6410   69.6570 C   0  0  0  0  0  0  0  0  0  0  0  0
  128.1400  126.6690   71.0450 C   0  0  0  0  0  0  0  0  0  0  0  0
  1  2  1  0
  2  3  1  0
  3  4  2  0
  4  5  1  0
  5  6  2  0
  6  7  1  0
  7  8  2  0
  8  9  1  0
  9 10  1  0
 10 11  2  0
 11 12  1  0
 12 13  2  0
 13 14  1  0
 14 15  1  0
 13 16  1  0
 16 17  2  0
  9 18  2  0
 18 19  1  0
 19 20  3  0
 18 21  1  0
 21 22  1  0
 22 23  1  0
 23 24  1  0
 24 25  2  0
 24 26  1  0
 26 27  1  0
 27 28  1  0
 28 29  1  0
 29 30  2  0
 30 31  1  0
 31 32  1  0
 32 33  3  0
 30 34  1  0
 34 35  1  0
 35 36  1  0
 36 37  1  0
 21 38  2  0
  6 39  1  0
 39 40  2  0
 40  3  1  0
 38  7  1  0
 17 10  1  0
 31 27  2  0
 37 29  1  0
M  END
>  <Binding energies>  (52) 
[-9.88]

>  <Ligand effiencies>  (52) 
[-0.24097560975609758]

>  <Interactions>  (52) 
["V-B:GLU:543:CD:9877, V-B:TYR:539:CE2:9845, V-A:HIS:456:CE1:4066, V-A:GLU:543:CD:4905, V-A:GLU:543:CG:4904, V-A:TYR:484:CZ:4343, V-B:HIS:456:CE1:9038, V-A:TYR:484:CE1:4341, V-A:HIS:456:CD2:4064, V-B:HIS:456:CD2:9036, V-B:GLU:543:CG:9876, V-B:ILE:369:CD1:8207, V-B:GLY:454:CA:9017, V-B:TYR:539:CZ:9846, V-B:TYR:539:CD2:9843, V-B:ALA:541:CB:9861, V-B:ASP:366:CG:8181, V-B:TYR:539:C:9836, H-A:TYR:484:OH:4344, V-B:LYS:547:CE:9919, V-A:GLU:543:C:4899, H-A:LYS:547:NZ:4948, V-B:PRO:540:N:9853, V-B:PRO:540:CA:9852, V-B:TYR:539:CD1:9842, V-B:TYR:539:CG:9841, H-B:GLU:543:OE2:9879, V-B:TYR:539:CA:9838"]

$$$$
RR6_Rahimova_2017
     RDKit          3D

 38 41  0  0  0  0  0  0  0  0999 V2000
  127.4860  136.1580   61.0160 C   0  0  0  0  0  0  0  0  0  0  0  0
  127.0000  135.2870   60.0030 O   0  0  0  0  0  0  0  0  0  0  0  0
  126.1560  134.2670   60.3050 C   0  0  0  0  0  0  0  0  0  0  0  0
  124.9290  134.3950   60.3620 O   0  0  0  0  0  0  0  0  0  0  0  0
  126.8630  132.9670   60.5610 C   0  0  0  0  0  0  0  0  0  0  0  0
  126.2120  131.7310   60.4380 C   0  0  0  0  0  0  0  0  0  0  0  0
  126.8940  130.5420   60.6900 C   0  0  0  0  0  0  0  0  0  0  0  0
  128.2430  130.5720   61.0740 C   0  0  0  0  0  0  0  0  0  0  0  0
  129.0160  129.4370   61.3790 N   0  0  0  0  0  0  0  0  0  0  0  0
  128.8880  128.1690   60.9310 C   0  0  0  0  0  0  0  0  0  0  0  0
  128.0370  127.7760   60.1320 O   0  0  0  0  0  0  0  0  0  0  0  0
  129.8620  127.1520   61.5360 C   0  0  0  0  0  0  0  0  0  0  0  0
  129.1080  126.0790   62.8040 S   0  0  0  0  0  0  0  0  0  0  0  0
  128.6990  127.1260   64.1850 C   0  0  0  0  0  0  0  0  0  0  0  0
  127.9420  128.2030   63.8630 N   0  0  0  0  0  0  0  0  0  0  0  0
  127.5420  129.0600   64.8360 C   0  0  0  0  0  0  0  0  0  0  0  0
  126.6560  130.1920   64.4050 C   0  0  0  0  0  0  0  0  0  0  0  0
  125.3660  129.9510   63.9080 C   0  0  0  0  0  0  0  0  0  0  0  0
  124.5490  131.0010   63.4960 C   0  0  0  0  0  0  0  0  0  0  0  0
  125.0070  132.3150   63.5790 C   0  0  0  0  0  0  0  0  0  0  0  0
  124.1170  133.4550   63.1200 C   0  0  0  0  0  0  0  0  0  0  0  0
  126.2840  132.5760   64.0720 C   0  0  0  0  0  0  0  0  0  0  0  0
  127.0950  131.5230   64.4830 C   0  0  0  0  0  0  0  0  0  0  0  0
  127.9120  128.8510   66.1690 C   0  0  0  0  0  0  0  0  0  0  0  0
  128.6980  127.7470   66.5260 C   0  0  0  0  0  0  0  0  0  0  0  0
  129.0410  127.5750   67.9690 C   0  0  0  0  0  0  0  0  0  0  0  0
  130.2180  128.1290   68.4830 C   0  0  0  0  0  0  0  0  0  0  0  0
  130.5380  127.9870   69.8310 C   0  0  0  0  0  0  0  0  0  0  0  0
  129.6870  127.2950   70.6910 C   0  0  0  0  0  0  0  0  0  0  0  0
  130.0830  127.2070   72.0120 O   0  0  0  0  0  0  0  0  0  0  0  0
  129.7520  126.0410   72.7590 C   0  0  0  0  0  0  0  0  0  0  0  0
  128.5020  126.7420   70.1820 C   0  0  0  0  0  0  0  0  0  0  0  0
  128.1850  126.8860   68.8340 C   0  0  0  0  0  0  0  0  0  0  0  0
  129.1120  126.8570   65.5050 C   0  0  0  0  0  0  0  0  0  0  0  0
  129.9590  125.6980   65.8060 C   0  0  0  0  0  0  0  0  0  0  0  0
  130.6260  124.7830   66.0430 N   0  0  0  0  0  0  0  0  0  0  0  0
  128.8980  131.8000   61.1800 C   0  0  0  0  0  0  0  0  0  0  0  0
  128.2140  132.9870   60.9310 C   0  0  0  0  0  0  0  0  0  0  0  0
  1  2  1  0
  2  3  1  0
  3  4  2  0
  3  5  1  0
  5  6  2  0
  6  7  1  0
  7  8  2  0
  8  9  1  0
  9 10  1  0
 10 11  2  0
 10 12  1  0
 12 13  1  0
 13 14  1  0
 14 15  2  0
 15 16  1  0
 16 17  1  0
 17 18  2  0
 18 19  1  0
 19 20  2  0
 20 21  1  0
 20 22  1  0
 22 23  2  0
 16 24  2  0
 24 25  1  0
 25 26  1  0
 26 27  2  0
 27 28  1  0
 28 29  2  0
 29 30  1  0
 30 31  1  0
 29 32  1  0
 32 33  2  0
 25 34  2  0
 34 35  1  0
 35 36  3  0
  8 37  1  0
 37 38  2  0
 38  5  1  0
 34 14  1  0
 23 17  1  0
 33 26  1  0
M  END
>  <Binding energies>  (53) 
[-8.89]

>  <Ligand effiencies>  (53) 
[-0.22794871794871796]

>  <Interactions>  (53) 
["V-B:GLU:543:CD:9877, H-A:GLU:543:OE1:4906, H-A:GLU:543:OE2:4907, V-A:HIS:456:CE1:4066, V-A:GLU:543:CD:4905, V-A:GLU:543:CG:4904, V-B:HIS:456:CE1:9038, V-A:HIS:456:CD2:4064, V-B:HIS:456:CD2:9036, V-A:GLU:543:CB:4903, V-B:GLU:543:CG:9876, V-B:ILE:369:CD1:8207, V-B:TRP:381:CH2:8340, V-A:ALA:541:CB:4889, V-A:TYR:539:CE2:4873, V-B:GLY:454:CA:9017, V-A:TYR:539:CD2:4871, V-B:LEU:475:CD2:9227, H-A:TYR:484:OH:4344, V-B:LYS:547:CE:9919, V-A:GLU:543:C:4899, H-A:LYS:547:NZ:4948, V-B:TRP:381:CZ2:8338, V-B:PRO:482:CG:9295, V-B:PRO:482:CB:9294, V-A:GLY:544:C:4909"]

$$$$
RR7_Rahimova_2017
     RDKit          3D

 47 53  0  0  0  0  0  0  0  0999 V2000
  124.3790  124.7830   58.1050 C   0  0  0  0  0  0  0  0  0  0  0  0
  125.4650  125.6460   57.7780 O   0  0  0  0  0  0  0  0  0  0  0  0
  125.9830  126.4750   58.7540 C   0  0  0  0  0  0  0  0  0  0  0  0
  126.2140  125.8990   60.0020 C   0  0  0  0  0  0  0  0  0  0  0  0
  126.7390  126.6540   61.0450 C   0  0  0  0  0  0  0  0  0  0  0  0
  127.0370  128.0130   60.8680 C   0  0  0  0  0  0  0  0  0  0  0  0
  127.6570  128.8760   62.0110 C   0  0  0  0  0  0  0  0  0  0  0  0
  128.7570  128.1080   62.5490 O   0  0  0  0  0  0  0  0  0  0  0  0
  128.5400  127.2200   63.6510 C   0  0  0  0  0  0  0  0  0  0  0  0
  129.8990  126.8320   64.2560 C   0  0  1  0  0  0  0  0  0  0  0  0
  129.9070  127.3170   65.5960 O   0  0  0  0  0  0  0  0  0  0  0  0
  130.0980  126.2880   66.5240 C   0  0  1  0  0  0  0  0  0  0  0  0
  129.3770  126.5790   67.7480 N   0  0  0  0  0  0  0  0  0  0  0  0
  128.0160  126.4880   67.9780 C   0  0  0  0  0  0  0  0  0  0  0  0
  127.6220  126.8580   69.1710 N   0  0  0  0  0  0  0  0  0  0  0  0
  128.7750  127.2720   69.7820 C   0  0  0  0  0  0  0  0  0  0  0  0
  129.0260  127.7970   71.0640 C   0  0  0  0  0  0  0  0  0  0  0  0
  127.9480  127.9460   71.9560 N   0  0  0  0  0  0  0  0  0  0  0  0
  127.9680  128.2710   73.2710 C   0  0  0  0  0  0  0  0  0  0  0  0
  128.9960  128.4770   73.9200 O   0  0  0  0  0  0  0  0  0  0  0  0
  126.6160  128.3420   73.9480 C   0  0  0  0  0  0  0  0  0  0  0  0
  126.3380  129.3930   74.8360 C   0  0  0  0  0  0  0  0  0  0  0  0
  125.1000  129.4800   75.4650 C   0  0  0  0  0  0  0  0  0  0  0  0
  124.1260  128.5200   75.2100 C   0  0  0  0  0  0  0  0  0  0  0  0
  124.3800  127.4720   74.3290 C   0  0  0  0  0  0  0  0  0  0  0  0
  125.6190  127.3830   73.7000 C   0  0  0  0  0  0  0  0  0  0  0  0
  130.3040  128.1480   71.4030 N   0  0  0  0  0  0  0  0  0  0  0  0
  131.2780  127.9710   70.4730 C   0  0  0  0  0  0  0  0  0  0  0  0
  131.1470  127.4730   69.2140 N   0  0  0  0  0  0  0  0  0  0  0  0
  129.8870  127.1310   68.9130 C   0  0  0  0  0  0  0  0  0  0  0  0
  129.6620  125.0160   65.8070 C   0  0  0  0  0  0  0  0  0  0  0  0
  130.1380  125.3220   64.3980 C   0  0  2  0  0  0  0  0  0  0  0  0
  131.4980  124.9700   64.2080 O   0  0  0  0  0  0  0  0  0  0  0  0
  128.2510  130.2110   61.4870 C   0  0  0  0  0  0  0  0  0  0  0  0
  127.6500  131.4340   61.8250 C   0  0  0  0  0  0  0  0  0  0  0  0
  128.1660  132.6360   61.3500 C   0  0  0  0  0  0  0  0  0  0  0  0
  129.2880  132.6270   60.5280 C   0  0  0  0  0  0  0  0  0  0  0  0
  129.8990  131.4260   60.1790 C   0  0  0  0  0  0  0  0  0  0  0  0
  129.3830  130.2240   60.6540 C   0  0  0  0  0  0  0  0  0  0  0  0
  126.6890  129.2730   63.1610 C   0  0  0  0  0  0  0  0  0  0  0  0
  125.3010  129.2810   62.9510 C   0  0  0  0  0  0  0  0  0  0  0  0
  124.4270  129.6440   63.9710 C   0  0  0  0  0  0  0  0  0  0  0  0
  124.9340  130.0120   65.2140 C   0  0  0  0  0  0  0  0  0  0  0  0
  126.3070  130.0230   65.4410 C   0  0  0  0  0  0  0  0  0  0  0  0
  127.1790  129.6600   64.4190 C   0  0  0  0  0  0  0  0  0  0  0  0
  126.8160  128.5840   59.6060 C   0  0  0  0  0  0  0  0  0  0  0  0
  126.2910  127.8290   58.5610 C   0  0  0  0  0  0  0  0  0  0  0  0
  1  2  1  0
  2  3  1  0
  3  4  2  0
  4  5  1  0
  5  6  2  0
  6  7  1  0
  7  8  1  0
  8  9  1  0
 10  9  1  1
 10 11  1  0
 11 12  1  0
 12 13  1  1
 13 14  1  0
 14 15  2  0
 15 16  1  0
 16 17  2  0
 17 18  1  0
 18 19  1  0
 19 20  2  0
 19 21  1  0
 21 22  2  0
 22 23  1  0
 23 24  2  0
 24 25  1  0
 25 26  2  0
 17 27  1  0
 27 28  2  0
 28 29  1  0
 29 30  2  0
 12 31  1  0
 31 32  1  0
 32 33  1  1
  7 34  1  0
 34 35  2  0
 35 36  1  0
 36 37  2  0
 37 38  1  0
 38 39  2  0
  7 40  1  0
 40 41  2  0
 41 42  1  0
 42 43  2  0
 43 44  1  0
 44 45  2  0
  6 46  1  0
 46 47  2  0
 47  3  1  0
 32 10  1  0
 39 34  1  0
 45 40  1  0
 30 13  1  0
 30 16  1  0
 26 21  1  0
M  END
>  <Binding energies>  (54) 
[-8.27]

>  <Ligand effiencies>  (54) 
[-0.16877551020408163]

>  <Interactions>  (54) 
["V-B:GLU:543:CD:9877, H-A:GLU:543:OE1:4906, V-A:HIS:456:CE1:4066, V-A:GLU:543:CD:4905, H-B:HIS:456:NE2:9039, V-B:GLU:543:CB:9875, V-B:HIS:456:CE1:9038, V-B:GLY:544:C:9881, V-A:HIS:456:CD2:4064, V-B:HIS:456:CD2:9036, V-B:GLU:543:CG:9876, V-B:ARG:545:CZ:9895, V-A:ALA:541:CB:4889, V-B:ASP:366:CB:8180, V-B:ASP:366:CG:8181, V-A:PRO:540:CA:4880, V-B:LYS:547:CE:9919, V-B:VAL:457:C:9041, V-B:LYS:547:CG:9917, V-B:HIS:456:CG:9034, V-B:HIS:456:C:9029, V-A:GLU:543:C:4899, V-B:VAL:457:CA:9043, V-B:HIS:456:CB:9033, V-B:LYS:547:CD:9918, V-B:VAL:458:CG2:9055, H-A:LYS:547:NZ:4948, V-B:LYS:471:CE:9188, V-B:LEU:363:CD1:8157, V-A:GLY:544:CA:4911, V-A:GLY:544:C:4909, H-B:TYR:531:OH:9764, H-B:GLY:544:O:9882, V-A:PRO:540:C:4878"]

$$$$
RR8_A_Rahimova_2017
     RDKit          3D

 42 46  0  0  0  0  0  0  0  0999 V2000
  130.3970  127.3340   65.9860 O   0  0  0  0  0  0  0  0  0  0  0  0
  129.6060  127.8380   66.7910 C   0  0  0  0  0  0  0  0  0  0  0  0
  128.7320  128.8470   66.4870 O   0  0  0  0  0  0  0  0  0  0  0  0
  127.6360  128.5330   65.6720 C   0  0  1  0  0  0  0  0  0  0  0  0
  126.7630  129.6180   65.5410 O   0  0  0  0  0  0  0  0  0  0  0  0
  126.2300  129.7120   64.2230 C   0  0  2  0  0  0  0  0  0  0  0  0
  124.6940  129.7060   64.3140 C   0  0  0  0  0  0  0  0  0  0  0  0
  124.2130  131.0130   64.0330 O   0  0  0  0  0  0  0  0  0  0  0  0
  125.1540  132.0450   64.2990 C   0  0  0  0  0  0  0  0  0  0  0  0
  125.3830  132.8710   63.0410 C   0  0  0  0  0  0  0  0  0  0  0  0
  126.6640  133.3420   62.7410 C   0  0  0  0  0  0  0  0  0  0  0  0
  126.8780  134.0930   61.5870 C   0  0  0  0  0  0  0  0  0  0  0  0
  125.8100  134.3670   60.7350 C   0  0  0  0  0  0  0  0  0  0  0  0
  124.5310  133.8970   61.0240 C   0  0  0  0  0  0  0  0  0  0  0  0
  124.3180  133.1450   62.1770 C   0  0  0  0  0  0  0  0  0  0  0  0
  126.8520  128.5150   63.4910 C   0  0  1  0  0  0  0  0  0  0  0  0
  127.2150  128.8100   62.1430 O   0  0  0  0  0  0  0  0  0  0  0  0
  126.4270  129.8010   61.4950 C   0  0  0  0  0  0  0  0  0  0  0  0
  127.3130  130.6790   60.6220 C   0  0  0  0  0  0  0  0  0  0  0  0
  126.8240  131.1660   59.4060 C   0  0  0  0  0  0  0  0  0  0  0  0
  127.6320  131.9620   58.5980 C   0  0  0  0  0  0  0  0  0  0  0  0
  128.9290  132.2670   59.0060 C   0  0  0  0  0  0  0  0  0  0  0  0
  129.4270  131.7800   60.2120 C   0  0  0  0  0  0  0  0  0  0  0  0
  128.6200  130.9830   61.0200 C   0  0  0  0  0  0  0  0  0  0  0  0
  128.1370  128.2650   64.2600 C   0  0  2  0  0  0  0  0  0  0  0  0
  128.5900  126.9290   64.0570 O   0  0  0  0  0  0  0  0  0  0  0  0
  129.6440  126.7720   63.1130 C   0  0  0  0  0  0  0  0  0  0  0  0
  130.5650  125.6420   63.5480 C   0  0  0  0  0  0  0  0  0  0  0  0
  130.0300  124.4280   63.9900 C   0  0  0  0  0  0  0  0  0  0  0  0
  130.8770  123.3930   64.3770 C   0  0  0  0  0  0  0  0  0  0  0  0
  132.2570  123.5730   64.3180 C   0  0  0  0  0  0  0  0  0  0  0  0
  132.7990  124.7770   63.8740 C   0  0  0  0  0  0  0  0  0  0  0  0
  131.9520  125.8130   63.4860 C   0  0  0  0  0  0  0  0  0  0  0  0
  129.4950  127.3870   68.2180 C   0  0  0  0  0  0  0  0  0  0  0  0
  128.6390  126.3430   68.6030 C   0  0  0  0  0  0  0  0  0  0  0  0
  128.5590  125.9490   69.9360 C   0  0  0  0  0  0  0  0  0  0  0  0
  129.3280  126.5870   70.9170 C   0  0  0  0  0  0  0  0  0  0  0  0
  129.2420  126.1660   72.3370 N   0  0  0  0  0  0  0  0  0  0  0  0
  129.3750  127.0150   73.2120 O   0  0  0  0  0  0  0  0  0  0  0  0
  129.0410  124.9800   72.5870 O   0  0  0  0  0  0  0  0  0  0  0  0
  130.1800  127.6310   70.5330 C   0  0  0  0  0  0  0  0  0  0  0  0
  130.2620  128.0260   69.2010 C   0  0  0  0  0  0  0  0  0  0  0  0
  1  2  2  0
  2  3  1  0
  4  3  1  1
  4  5  1  0
  5  6  1  0
  6  7  1  1
  7  8  1  0
  8  9  1  0
  9 10  1  0
 10 11  2  0
 11 12  1  0
 12 13  2  0
 13 14  1  0
 14 15  2  0
  6 16  1  0
 16 17  1  6
 17 18  1  0
 18 19  1  0
 19 20  2  0
 20 21  1  0
 21 22  2  0
 22 23  1  0
 23 24  2  0
 16 25  1  0
 25 26  1  1
 26 27  1  0
 27 28  1  0
 28 29  2  0
 29 30  1  0
 30 31  2  0
 31 32  1  0
 32 33  2  0
  2 34  1  0
 34 35  2  0
 35 36  1  0
 36 37  2  0
 37 38  1  0
 38 39  2  0
 38 40  1  0
 37 41  1  0
 41 42  2  0
 25  4  1  0
 33 28  1  0
 42 34  1  0
 15 10  1  0
 24 19  1  0
M  CHG  2  38   1  40  -1
M  END
>  <Binding energies>  (55) 
[-9.17]

>  <Ligand effiencies>  (55) 
[-0.21833333333333332]

>  <Interactions>  (55) 
["V-B:GLU:543:CD:9877, V-A:ARG:545:CZ:4923, V-A:GLY:454:CA:4045, V-A:HIS:456:CE1:4066, V-A:GLU:543:CD:4905, V-A:GLU:543:CG:4904, V-A:TYR:484:CZ:4343, V-B:GLU:543:C:9871, V-B:GLU:543:CB:9875, V-B:HIS:456:CE1:9038, V-A:TYR:484:CE1:4341, V-A:HIS:456:CD2:4064, V-A:GLU:543:CB:4903, V-B:GLU:543:CG:9876, V-B:ILE:369:CD1:8207, V-B:ILE:369:CG2:8205, V-B:ARG:545:CZ:9895, V-A:ALA:541:CB:4889, V-A:TYR:539:CE2:4873, V-B:GLY:454:CA:9017, H-B:TYR:484:OH:9316, V-A:TYR:539:CD2:4871, V-B:LEU:475:CD2:9227, V-B:ASP:366:CG:8181, V-A:PRO:540:CA:4880, V-A:TYR:539:C:4864, V-B:LYS:547:CE:9919, V-A:GLU:543:C:4899, H-A:LYS:547:NZ:4948, H-B:LYS:547:NZ:9920, H-B:GLY:454:N:9018, V-B:TYR:484:CZ:9315"]

$$$$
RR8_B_Rahimova_2017
     RDKit          3D

 42 46  0  0  0  0  0  0  0  0999 V2000
  130.6000  127.5120   63.0080 O   0  0  0  0  0  0  0  0  0  0  0  0
  129.4460  127.1050   62.8410 C   0  0  0  0  0  0  0  0  0  0  0  0
  129.1120  126.0200   62.0780 O   0  0  0  0  0  0  0  0  0  0  0  0
  128.6300  124.8720   62.7310 C   0  0  2  0  0  0  0  0  0  0  0  0
  129.4770  124.4680   63.7700 O   0  0  0  0  0  0  0  0  0  0  0  0
  130.4460  123.5230   63.3150 C   0  0  2  0  0  0  0  0  0  0  0  0
  131.8600  124.0670   63.5870 C   0  0  0  0  0  0  0  0  0  0  0  0
  131.9530  124.4690   64.9480 O   0  0  0  0  0  0  0  0  0  0  0  0
  131.8910  125.8710   65.1630 C   0  0  0  0  0  0  0  0  0  0  0  0
  130.8810  126.1650   66.2620 C   0  0  0  0  0  0  0  0  0  0  0  0
  130.9230  127.3910   66.9330 C   0  0  0  0  0  0  0  0  0  0  0  0
  130.0170  127.6580   67.9560 C   0  0  0  0  0  0  0  0  0  0  0  0
  129.0690  126.6960   68.3040 C   0  0  0  0  0  0  0  0  0  0  0  0
  129.0170  125.4760   67.6350 C   0  0  0  0  0  0  0  0  0  0  0  0
  129.9250  125.2080   66.6140 C   0  0  0  0  0  0  0  0  0  0  0  0
  130.0970  123.3020   61.8390 C   0  0  1  0  0  0  0  0  0  0  0  0
  130.3410  121.9390   61.4810 O   0  0  0  0  0  0  0  0  0  0  0  0
  131.5970  121.3790   61.8710 C   0  0  0  0  0  0  0  0  0  0  0  0
  132.7790  122.1840   61.3370 C   0  0  0  0  0  0  0  0  0  0  0  0
  134.0490  122.0200   61.8980 C   0  0  0  0  0  0  0  0  0  0  0  0
  135.1310  122.7320   61.3870 C   0  0  0  0  0  0  0  0  0  0  0  0
  134.9390  123.6090   60.3220 C   0  0  0  0  0  0  0  0  0  0  0  0
  133.6750  123.7820   59.7620 C   0  0  0  0  0  0  0  0  0  0  0  0
  132.5920  123.0670   60.2700 C   0  0  0  0  0  0  0  0  0  0  0  0
  128.6260  123.6950   61.7570 C   0  0  2  0  0  0  0  0  0  0  0  0
  128.2820  124.0560   60.4210 O   0  0  0  0  0  0  0  0  0  0  0  0
  127.4880  123.1140   59.7160 C   0  0  0  0  0  0  0  0  0  0  0  0
  126.0640  123.6380   59.6610 C   0  0  0  0  0  0  0  0  0  0  0  0
  125.5870  124.2640   58.5060 C   0  0  0  0  0  0  0  0  0  0  0  0
  124.2850  124.7580   58.4730 C   0  0  0  0  0  0  0  0  0  0  0  0
  123.4670  124.6260   59.5930 C   0  0  0  0  0  0  0  0  0  0  0  0
  123.9370  124.0020   60.7480 C   0  0  0  0  0  0  0  0  0  0  0  0
  125.2370  123.5070   60.7810 C   0  0  0  0  0  0  0  0  0  0  0  0
  128.2440  127.7800   63.4350 C   0  0  0  0  0  0  0  0  0  0  0  0
  128.1890  128.1360   64.7910 C   0  0  0  0  0  0  0  0  0  0  0  0
  127.0590  128.7530   65.3150 C   0  0  0  0  0  0  0  0  0  0  0  0
  125.9510  129.0210   64.5020 C   0  0  0  0  0  0  0  0  0  0  0  0
  124.7350  129.6550   65.0700 N   0  0  0  0  0  0  0  0  0  0  0  0
  124.4810  129.4810   66.2580 O   0  0  0  0  0  0  0  0  0  0  0  0
  124.0280  130.3370   64.3310 O   0  0  0  0  0  0  0  0  0  0  0  0
  126.0080  128.6710   63.1470 C   0  0  0  0  0  0  0  0  0  0  0  0
  127.1410  128.0600   62.6200 C   0  0  0  0  0  0  0  0  0  0  0  0
  1  2  2  0
  2  3  1  0
  4  3  1  6
  4  5  1  0
  5  6  1  0
  6  7  1  6
  7  8  1  0
  8  9  1  0
  9 10  1  0
 10 11  2  0
 11 12  1  0
 12 13  2  0
 13 14  1  0
 14 15  2  0
  6 16  1  0
 16 17  1  1
 17 18  1  0
 18 19  1  0
 19 20  2  0
 20 21  1  0
 21 22  2  0
 22 23  1  0
 23 24  2  0
 16 25  1  0
 25 26  1  6
 26 27  1  0
 27 28  1  0
 28 29  2  0
 29 30  1  0
 30 31  2  0
 31 32  1  0
 32 33  2  0
  2 34  1  0
 34 35  2  0
 35 36  1  0
 36 37  2  0
 37 38  1  0
 38 39  2  0
 38 40  1  0
 37 41  1  0
 41 42  2  0
 25  4  1  0
 33 28  1  0
 42 34  1  0
 15 10  1  0
 24 19  1  0
M  CHG  2  38   1  40  -1
M  END
>  <Binding energies>  (56) 
[-9.47]

>  <Ligand effiencies>  (56) 
[-0.2254761904761905]

>  <Interactions>  (56) 
["V-A:LEU:475:CD1:4254, V-B:GLU:543:CD:9877, V-A:ARG:545:CZ:4923, V-A:ILE:369:CB:3232, H-A:ARG:545:NH2:4925, V-A:ILE:369:CG1:3234, V-A:ILE:369:CG2:3233, V-A:GLY:454:CA:4045, V-B:TYR:539:CE2:9845, V-A:HIS:456:CE1:4066, V-A:GLU:543:CD:4905, V-A:TYR:484:CZ:4343, V-B:GLU:543:CA:9873, V-B:GLU:543:C:9871, V-B:GLU:543:CB:9875, V-B:HIS:456:CE1:9038, V-A:TYR:484:CE1:4341, V-A:GLU:543:CB:4903, V-B:GLU:543:CG:9876, V-B:ARG:545:CZ:9895, H-B:TYR:484:OH:9316, V-B:TYR:539:CZ:9846, V-B:ASP:366:CB:8180, V-B:ALA:541:CB:9861, V-B:ASP:366:CG:8181, V-A:ASP:366:CG:3209, V-A:ASP:366:CB:3208, H-A:TYR:484:OH:4344, H-B:GLY:454:N:9018, V-A:GLY:453:C:4038, V-B:LEU:363:CD1:8157, V-B:PRO:540:CB:9854, V-B:LEU:363:CA:8153, V-B:PRO:540:CA:9852, V-A:GLY:453:CA:4040, V-B:ASN:362:C:8140, V-B:ASN:362:CB:8144, V-A:ASP:366:CA:3206, H-B:ARG:545:NE:9893, H-B:HIS:456:ND1:9035"]

$$$$
RR9_Rahimova_2017
     RDKit          3D

 36 40  0  0  0  0  0  0  0  0999 V2000
  127.8530  129.2180   74.1140 C   0  0  0  0  0  0  0  0  0  0  0  0
  128.2240  127.7660   74.4300 C   0  0  0  0  0  0  0  0  0  0  0  0
  129.3650  127.4060   73.6560 O   0  0  0  0  0  0  0  0  0  0  0  0
  129.2400  127.2670   72.2870 C   0  0  0  0  0  0  0  0  0  0  0  0
  130.2400  127.8460   71.5080 C   0  0  0  0  0  0  0  0  0  0  0  0
  130.1960  127.7590   70.1200 C   0  0  0  0  0  0  0  0  0  0  0  0
  129.1490  127.0890   69.4710 C   0  0  0  0  0  0  0  0  0  0  0  0
  129.0940  126.9960   67.9750 C   0  0  0  0  0  0  0  0  0  0  0  0
  128.3030  127.8690   67.2110 C   0  0  0  0  0  0  0  0  0  0  0  0
  128.2660  127.7860   65.8080 C   0  0  0  0  0  0  0  0  0  0  0  0
  127.4780  128.8140   65.0410 C   0  0  0  0  0  0  0  0  0  0  0  0
  128.0500  129.7640   64.5060 O   0  0  0  0  0  0  0  0  0  0  0  0
  126.1440  128.6280   65.0130 N   0  0  0  0  0  0  0  0  0  0  0  0
  125.1590  129.5550   64.4470 C   0  0  0  0  0  0  0  0  0  0  0  0
  125.2790  129.7040   62.9120 C   0  0  0  0  0  0  0  0  0  0  0  0
  124.8890  131.0760   62.3730 C   0  0  0  0  0  0  0  0  0  0  0  0
  124.8730  131.3100   60.9940 C   0  0  0  0  0  0  0  0  0  0  0  0
  124.4840  132.5530   60.5040 C   0  0  0  0  0  0  0  0  0  0  0  0
  124.1160  133.5600   61.3930 C   0  0  0  0  0  0  0  0  0  0  0  0
  124.1340  133.3370   62.7690 C   0  0  0  0  0  0  0  0  0  0  0  0
  124.5230  132.0920   63.2600 C   0  0  0  0  0  0  0  0  0  0  0  0
  129.0400  126.7560   65.2190 C   0  0  0  0  0  0  0  0  0  0  0  0
  129.3230  126.2240   63.9070 C   0  0  0  0  0  0  0  0  0  0  0  0
  128.7470  126.6060   62.5840 C   0  0  0  0  0  0  0  0  0  0  0  0
  128.6960  127.9500   62.2010 C   0  0  0  0  0  0  0  0  0  0  0  0
  128.1440  128.3060   60.9730 C   0  0  0  0  0  0  0  0  0  0  0  0
  127.6440  127.3190   60.1220 C   0  0  0  0  0  0  0  0  0  0  0  0
  127.0260  127.7090   58.7910 C   0  0  0  0  0  0  0  0  0  0  0  0
  127.6920  125.9770   60.5010 C   0  0  0  0  0  0  0  0  0  0  0  0
  128.2460  125.6230   61.7280 C   0  0  0  0  0  0  0  0  0  0  0  0
  130.2060  125.2530   63.9840 N   0  0  0  0  0  0  0  0  0  0  0  0
  130.4950  125.0590   65.2800 N   0  0  0  0  0  0  0  0  0  0  0  0
  129.8060  125.9370   66.0830 C   0  0  0  0  0  0  0  0  0  0  0  0
  129.8560  126.0160   67.4120 N   0  0  0  0  0  0  0  0  0  0  0  0
  128.1460  126.5110   70.2610 C   0  0  0  0  0  0  0  0  0  0  0  0
  128.1880  126.5950   71.6510 C   0  0  0  0  0  0  0  0  0  0  0  0
  1  2  1  0
  2  3  1  0
  3  4  1  0
  4  5  2  0
  5  6  1  0
  6  7  2  0
  7  8  1  0
  8  9  2  0
  9 10  1  0
 10 11  1  0
 11 12  2  0
 11 13  1  0
 13 14  1  0
 14 15  1  0
 15 16  1  0
 16 17  2  0
 17 18  1  0
 18 19  2  0
 19 20  1  0
 20 21  2  0
 10 22  2  0
 22 23  1  0
 23 24  1  0
 24 25  2  0
 25 26  1  0
 26 27  2  0
 27 28  1  0
 27 29  1  0
 29 30  2  0
 23 31  2  0
 31 32  1  0
 32 33  1  0
 33 34  2  0
  7 35  1  0
 35 36  2  0
 36  4  1  0
 34  8  1  0
 21 16  1  0
 33 22  1  0
 30 24  1  0
M  END
>  <Binding energies>  (57) 
[-8.76]

>  <Ligand effiencies>  (57) 
[-0.2305263157894737]

>  <Interactions>  (57) 
["V-B:GLU:543:CD:9877, V-A:HIS:456:CE1:4066, V-A:GLU:543:CD:4905, V-B:HIS:456:CE1:9038, V-B:HIS:456:CD2:9036, V-B:GLU:543:CG:9876, V-B:ILE:369:CD1:8207, V-B:ILE:369:CG2:8205, V-B:ARG:545:CZ:9895, V-B:GLY:454:CA:9017, V-B:LEU:475:CD2:9227, V-B:ASP:366:CG:8181, H-A:TYR:484:OH:4344, H-B:GLU:543:OE1:9878, V-B:LYS:547:CE:9919, V-A:LYS:547:CE:4947, H-A:LYS:547:NZ:4948, H-B:GLU:543:OE2:9879"]

$$$$
