1a_Ghoteimi_2023
     RDKit          3D

 67 70  0  0  0  0  0  0  0  0999 V2000
  125.4210  128.2340   74.6770 C   0  0  0  0  0  0  0  0  0  0  0  0
  126.1790  127.7190   73.4500 C   0  0  0  0  0  0  0  0  0  0  0  0
  127.5130  128.2130   73.4780 O   0  0  0  0  0  0  0  0  0  0  0  0
  128.5530  127.4480   73.0590 C   0  0  0  0  0  0  0  0  0  0  0  0
  129.3620  126.9200   73.8280 O   0  0  0  0  0  0  0  0  0  0  0  0
  128.6200  127.3050   71.5660 C   0  0  0  0  0  0  0  0  0  0  0  0
  129.6440  127.8930   70.8090 C   0  0  0  0  0  0  0  0  0  0  0  0
  129.6780  127.7450   69.4250 C   0  0  0  0  0  0  0  0  0  0  0  0
  128.6850  126.9990   68.7710 C   0  0  0  0  0  0  0  0  0  0  0  0
  128.6180  126.7900   67.3800 N   0  0  0  0  0  0  0  0  0  0  0  0
  129.5890  126.8760   66.4450 C   0  0  0  0  0  0  0  0  0  0  0  0
  130.7680  127.1540   66.6600 O   0  0  0  0  0  0  0  0  0  0  0  0
  129.1460  126.5910   65.0100 C   0  0  0  0  0  0  0  0  0  0  0  0
  130.4510  126.9890   63.8110 S   0  0  0  0  0  0  0  0  0  0  0  0
  130.4520  125.6660   62.6220 C   0  0  0  0  0  0  0  0  0  0  0  0
  129.3810  125.6720   61.7930 N   0  0  0  0  0  0  0  0  0  0  0  0
  129.2640  124.7160   60.8340 C   0  0  0  0  0  0  0  0  0  0  0  0
  128.0600  124.8030   59.9410 C   0  0  0  0  0  0  0  0  0  0  0  0
  127.0730  125.7830   60.1400 C   0  0  0  0  0  0  0  0  0  0  0  0
  125.9590  125.8610   59.3100 C   0  0  0  0  0  0  0  0  0  0  0  0
  125.7930  124.9640   58.2590 C   0  0  0  0  0  0  0  0  0  0  0  0
  124.6580  125.1180   57.4850 O   0  0  0  0  0  0  0  0  0  0  0  0
  123.3860  125.1700   58.1220 C   0  0  0  0  0  0  0  0  0  0  0  0
  126.7660  123.9770   58.0500 C   0  0  0  0  0  0  0  0  0  0  0  0
  127.8790  123.9010   58.8810 C   0  0  0  0  0  0  0  0  0  0  0  0
  130.2410  123.7220   60.6970 C   0  0  0  0  0  0  0  0  0  0  0  0
  131.3440  123.6800   61.5590 C   0  0  0  0  0  0  0  0  0  0  0  0
  132.3300  122.5730   61.3730 C   0  0  0  0  0  0  0  0  0  0  0  0
  131.9060  121.2420   61.2920 C   0  0  0  0  0  0  0  0  0  0  0  0
  132.8290  120.2170   61.1050 C   0  0  0  0  0  0  0  0  0  0  0  0
  134.1900  120.5000   60.9870 C   0  0  0  0  0  0  0  0  0  0  0  0
  135.0300  119.4200   60.8020 O   0  0  0  0  0  0  0  0  0  0  0  0
  134.4780  118.1730   60.3950 C   0  0  0  0  0  0  0  0  0  0  0  0
  134.6170  121.8350   61.0590 C   0  0  0  0  0  0  0  0  0  0  0  0
  133.6930  122.8590   61.2480 C   0  0  0  0  0  0  0  0  0  0  0  0
  131.4620  124.6830   62.5520 C   0  0  0  0  0  0  0  0  0  0  0  0
  132.6030  124.7000   63.4730 C   0  0  0  0  0  0  0  0  0  0  0  0
  133.5030  124.7140   64.2000 N   0  0  0  0  0  0  0  0  0  0  0  0
  127.6630  126.4170   69.5210 C   0  0  0  0  0  0  0  0  0  0  0  0
  127.6300  126.5660   70.9050 C   0  0  0  0  0  0  0  0  0  0  0  0
  125.9268  127.8903   75.5914 H   0  0  0  0  0  0  0  0  0  0  0  0
  125.4006  129.3337   74.6605 H   0  0  0  0  0  0  0  0  0  0  0  0
  124.3911  127.8479   74.6605 H   0  0  0  0  0  0  0  0  0  0  0  0
  126.1944  126.6192   73.4629 H   0  0  0  0  0  0  0  0  0  0  0  0
  125.6772  128.0667   72.5350 H   0  0  0  0  0  0  0  0  0  0  0  0
  130.4279  128.4768   71.3137 H   0  0  0  0  0  0  0  0  0  0  0  0
  130.4849  128.2138   68.8427 H   0  0  0  0  0  0  0  0  0  0  0  0
  127.7090  126.5010   67.0510 H   0  0  0  0  0  0  0  0  0  0  0  0
  128.8932  125.5242   64.9204 H   0  0  0  0  0  0  0  0  0  0  0  0
  128.2735  127.2234   64.7890 H   0  0  0  0  0  0  0  0  0  0  0  0
  127.1829  126.5009   60.9662 H   0  0  0  0  0  0  0  0  0  0  0  0
  125.2020  126.6394   59.4863 H   0  0  0  0  0  0  0  0  0  0  0  0
  123.5221  125.1644   59.2135 H   0  0  0  0  0  0  0  0  0  0  0  0
  122.8632  126.0903   57.8223 H   0  0  0  0  0  0  0  0  0  0  0  0
  122.7898  124.2955   57.8223 H   0  0  0  0  0  0  0  0  0  0  0  0
  126.6489  123.2590   57.2249 H   0  0  0  0  0  0  0  0  0  0  0  0
  128.6319  123.1188   58.7039 H   0  0  0  0  0  0  0  0  0  0  0  0
  130.1410  122.9663   59.9040 H   0  0  0  0  0  0  0  0  0  0  0  0
  130.8354  121.0039   61.3767 H   0  0  0  0  0  0  0  0  0  0  0  0
  132.4822  119.1746   61.0498 H   0  0  0  0  0  0  0  0  0  0  0  0
  134.2157  117.5805   61.2839 H   0  0  0  0  0  0  0  0  0  0  0  0
  133.5745  118.3509   59.7933 H   0  0  0  0  0  0  0  0  0  0  0  0
  135.2171  117.6238   59.7933 H   0  0  0  0  0  0  0  0  0  0  0  0
  135.6868  122.0733   60.9657 H   0  0  0  0  0  0  0  0  0  0  0  0
  134.0382  123.9022   61.2995 H   0  0  0  0  0  0  0  0  0  0  0  0
  126.8775  125.8362   69.0154 H   0  0  0  0  0  0  0  0  0  0  0  0
  126.8197  126.0995   71.4844 H   0  0  0  0  0  0  0  0  0  0  0  0
  1  2  1  0
  2  3  1  0
  3  4  1  0
  4  5  2  0
  4  6  1  0
  6  7  2  0
  7  8  1  0
  8  9  2  0
  9 10  1  0
 10 11  1  0
 11 12  2  0
 11 13  1  0
 13 14  1  0
 14 15  1  0
 15 16  2  0
 16 17  1  0
 17 18  1  0
 18 19  2  0
 19 20  1  0
 20 21  2  0
 21 22  1  0
 22 23  1  0
 21 24  1  0
 24 25  2  0
 17 26  2  0
 26 27  1  0
 27 28  1  0
 28 29  2  0
 29 30  1  0
 30 31  2  0
 31 32  1  0
 32 33  1  0
 31 34  1  0
 34 35  2  0
 27 36  2  0
 36 37  1  0
 37 38  3  0
  9 39  1  0
 39 40  2  0
 40  6  1  0
 36 15  1  0
 25 18  1  0
 35 28  1  0
  1 41  1  0
  1 42  1  0
  1 43  1  0
  2 44  1  0
  2 45  1  0
  7 46  1  0
  8 47  1  0
 10 48  1  0
 13 49  1  0
 13 50  1  0
 19 51  1  0
 20 52  1  0
 23 53  1  0
 23 54  1  0
 23 55  1  0
 24 56  1  0
 25 57  1  0
 26 58  1  0
 29 59  1  0
 30 60  1  0
 33 61  1  0
 33 62  1  0
 33 63  1  0
 34 64  1  0
 35 65  1  0
 39 66  1  0
 40 67  1  0
M  END
>  <Binding energies>  (1) 
[-8.86]

>  <Ligand effiencies>  (1) 
[-0.21609756097560975]

>  <Interactions>  (1) 
["V-A:LEU:475:CD1:4254, V-B:GLU:543:CD:9877, V-A:ARG:545:CZ:4923, V-A:ILE:369:CB:3232, H-A:ARG:545:NH2:4925, H-A:GLY:454:N:4046, V-A:ILE:369:CG1:3234, V-A:ILE:369:CG2:3233, V-A:GLY:454:CA:4045, V-B:TYR:539:CE2:9845, V-A:HIS:456:CE1:4066, V-B:GLU:543:C:9871, V-B:GLU:543:CB:9875, V-B:HIS:456:CE1:9038, V-B:GLY:544:C:9881, V-B:HIS:456:CD2:9036, V-B:GLU:543:CG:9876, V-B:ASP:366:CB:8180, V-B:TYR:539:CD2:9843, H-A:TYR:484:OH:4344, H-B:GLU:543:OE1:9878, V-B:LYS:547:CE:9919, V-B:HIS:456:CG:9034, V-B:HIS:456:CB:9033, V-B:LYS:547:CD:9918, V-B:VAL:458:CG2:9055, H-A:LYS:547:NZ:4948, V-B:LEU:363:CD1:8157, V-B:LEU:363:CA:8153, V-A:ILE:369:CD1:3235, H-B:TYR:531:OH:9764, V-B:TYR:531:CE2:9762, V-A:SER:385:C:3401, V-A:TRP:381:CH2:3368, V-A:SER:385:CA:3403, V-A:TRP:381:CZ2:3366"]

$$$$
1a_Grossjean_2025
     RDKit          3D

 45 46  0  0  0  0  0  0  0  0999 V2000
  124.7810  127.6350   73.7810 C   0  0  0  0  0  0  0  0  0  0  0  0
  126.2390  128.1010   73.7980 C   0  0  0  0  0  0  0  0  0  0  0  0
  126.9240  127.5590   72.6770 O   0  0  0  0  0  0  0  0  0  0  0  0
  128.2810  127.5610   72.6150 C   0  0  0  0  0  0  0  0  0  0  0  0
  129.0050  127.7200   73.6030 O   0  0  0  0  0  0  0  0  0  0  0  0
  128.8120  127.3680   71.2240 C   0  0  0  0  0  0  0  0  0  0  0  0
  128.1090  126.5500   70.3310 C   0  0  0  0  0  0  0  0  0  0  0  0
  128.5780  126.3480   69.0370 C   0  0  0  0  0  0  0  0  0  0  0  0
  129.7590  126.9560   68.6080 C   0  0  0  0  0  0  0  0  0  0  0  0
  130.1410  126.6800   67.2810 N   0  0  0  0  0  0  0  0  0  0  0  0
  130.0880  125.5240   66.5850 C   0  0  0  0  0  0  0  0  0  0  0  0
  129.6700  124.4490   67.0140 O   0  0  0  0  0  0  0  0  0  0  0  0
  130.6000  125.6030   65.1450 C   0  0  0  0  0  0  0  0  0  0  0  0
  132.3330  125.0740   65.0040 S   0  0  0  0  0  0  0  0  0  0  0  0
  132.4430  123.9660   63.6170 C   0  0  0  0  0  0  0  0  0  0  0  0
  133.5540  124.1450   62.8590 N   0  0  0  0  0  0  0  0  0  0  0  0
  133.7350  123.3570   61.7740 C   0  0  0  0  0  0  0  0  0  0  0  0
  134.9920  123.6250   60.9670 C   0  0  0  0  0  0  0  0  0  0  0  0
  132.8330  122.3600   61.4080 C   0  0  0  0  0  0  0  0  0  0  0  0
  131.6950  122.1530   62.1960 C   0  0  0  0  0  0  0  0  0  0  0  0
  130.7270  121.0440   61.7850 C   0  0  0  0  0  0  0  0  0  0  0  0
  131.4860  122.9620   63.3360 C   0  0  0  0  0  0  0  0  0  0  0  0
  130.3270  122.7300   64.2030 C   0  0  0  0  0  0  0  0  0  0  0  0
  129.4110  122.5450   64.8850 N   0  0  0  0  0  0  0  0  0  0  0  0
  130.4650  127.7840   69.4930 C   0  0  0  0  0  0  0  0  0  0  0  0
  129.9950  127.9850   70.7880 C   0  0  0  0  0  0  0  0  0  0  0  0
  124.4208  127.5199   74.8140 H   0  0  0  0  0  0  0  0  0  0  0  0
  124.1638  128.3806   73.2584 H   0  0  0  0  0  0  0  0  0  0  0  0
  124.7107  126.6696   73.2584 H   0  0  0  0  0  0  0  0  0  0  0  0
  126.2731  129.1995   73.7523 H   0  0  0  0  0  0  0  0  0  0  0  0
  126.7226  127.7567   74.7241 H   0  0  0  0  0  0  0  0  0  0  0  0
  127.1777  126.0628   70.6556 H   0  0  0  0  0  0  0  0  0  0  0  0
  128.0137  125.7041   68.3464 H   0  0  0  0  0  0  0  0  0  0  0  0
  130.4760  127.4860   66.7760 H   0  0  0  0  0  0  0  0  0  0  0  0
  129.9784  124.9531   64.5116 H   0  0  0  0  0  0  0  0  0  0  0  0
  130.5394  126.6527   64.8217 H   0  0  0  0  0  0  0  0  0  0  0  0
  135.8351  123.8047   61.6503 H   0  0  0  0  0  0  0  0  0  0  0  0
  135.2133  122.7539   60.3329 H   0  0  0  0  0  0  0  0  0  0  0  0
  134.8387  124.5107   60.3329 H   0  0  0  0  0  0  0  0  0  0  0  0
  133.0125  121.7452   60.5137 H   0  0  0  0  0  0  0  0  0  0  0  0
  130.3114  120.5678   62.6853 H   0  0  0  0  0  0  0  0  0  0  0  0
  129.9098  121.4736   61.1870 H   0  0  0  0  0  0  0  0  0  0  0  0
  131.2631  120.2924   61.1870 H   0  0  0  0  0  0  0  0  0  0  0  0
  131.3921  128.2757   69.1632 H   0  0  0  0  0  0  0  0  0  0  0  0
  130.5564  128.6338   71.4764 H   0  0  0  0  0  0  0  0  0  0  0  0
  1  2  1  0
  2  3  1  0
  3  4  1  0
  4  5  2  0
  4  6  1  0
  6  7  2  0
  7  8  1  0
  8  9  2  0
  9 10  1  0
 10 11  1  0
 11 12  2  0
 11 13  1  0
 13 14  1  0
 14 15  1  0
 15 16  2  0
 16 17  1  0
 17 18  1  0
 17 19  2  0
 19 20  1  0
 20 21  1  0
 20 22  2  0
 22 23  1  0
 23 24  3  0
  9 25  1  0
 25 26  2  0
 26  6  1  0
 22 15  1  0
  1 27  1  0
  1 28  1  0
  1 29  1  0
  2 30  1  0
  2 31  1  0
  7 32  1  0
  8 33  1  0
 10 34  1  0
 13 35  1  0
 13 36  1  0
 18 37  1  0
 18 38  1  0
 18 39  1  0
 19 40  1  0
 21 41  1  0
 21 42  1  0
 21 43  1  0
 25 44  1  0
 26 45  1  0
M  END
>  <Binding energies>  (1) 
[-7.97]

>  <Ligand effiencies>  (1) 
[-0.29518518518518516]

>  <Interactions>  (1) 
["V-A:LEU:475:CD1:4254, H-A:GLU:543:OE1:4906, V-A:ILE:369:CB:3232, H-A:GLY:454:N:4046, V-A:ILE:369:CG1:3234, V-A:GLY:454:CA:4045, V-B:TYR:539:CE2:9845, V-A:HIS:456:CE1:4066, V-B:GLU:543:CB:9875, V-B:HIS:456:CE1:9038, V-A:TYR:484:CE1:4341, V-B:HIS:456:CD2:9036, V-B:TYR:539:CD2:9843, V-B:ALA:541:CB:9861, V-A:ASP:366:CG:3209, H-A:TYR:484:OH:4344, V-B:LYS:547:CE:9919, V-B:HIS:456:CG:9034, V-A:GLU:543:C:4899, V-B:HIS:456:CB:9033, V-B:HIS:456:CA:9031, V-B:LYS:547:CD:9918, H-A:LYS:547:NZ:4948, V-A:GLY:453:C:4038, V-A:GLY:453:CA:4040, V-A:ASP:366:CA:3206"]

$$$$
1aa_Ghoteimi_2023
     RDKit          3D

 67 70  0  0  0  0  0  0  0  0999 V2000
  127.1460  136.3720   60.9860 C   0  0  0  0  0  0  0  0  0  0  0  0
  126.5600  135.2110   60.1780 C   0  0  0  0  0  0  0  0  0  0  0  0
  125.1710  135.4350   59.9660 O   0  0  0  0  0  0  0  0  0  0  0  0
  124.2450  134.9720   60.8440 C   0  0  0  0  0  0  0  0  0  0  0  0
  123.1350  135.4900   60.9980 O   0  0  0  0  0  0  0  0  0  0  0  0
  124.7040  133.7660   61.6110 C   0  0  0  0  0  0  0  0  0  0  0  0
  125.2890  132.6600   60.9750 C   0  0  0  0  0  0  0  0  0  0  0  0
  125.7070  131.5540   61.7130 C   0  0  0  0  0  0  0  0  0  0  0  0
  125.5470  131.5370   63.1070 C   0  0  0  0  0  0  0  0  0  0  0  0
  125.9290  130.4790   63.9520 N   0  0  0  0  0  0  0  0  0  0  0  0
  125.2650  129.8900   64.9730 C   0  0  0  0  0  0  0  0  0  0  0  0
  124.1360  130.2020   65.3520 O   0  0  0  0  0  0  0  0  0  0  0  0
  125.9790  128.7450   65.7090 C   0  0  0  0  0  0  0  0  0  0  0  0
  127.3550  128.6760   65.3150 O   0  0  0  0  0  0  0  0  0  0  0  0
  128.2210  127.7910   65.9420 C   0  0  0  0  0  0  0  0  0  0  0  0
  128.2830  127.8100   67.3020 N   0  0  0  0  0  0  0  0  0  0  0  0
  129.1290  126.9680   67.9510 C   0  0  0  0  0  0  0  0  0  0  0  0
  129.1370  127.0490   69.4510 C   0  0  0  0  0  0  0  0  0  0  0  0
  130.1410  127.7540   70.1310 C   0  0  0  0  0  0  0  0  0  0  0  0
  130.1510  127.8300   71.5210 C   0  0  0  0  0  0  0  0  0  0  0  0
  129.1600  127.2050   72.2740 C   0  0  0  0  0  0  0  0  0  0  0  0
  129.2510  127.3330   73.6460 O   0  0  0  0  0  0  0  0  0  0  0  0
  128.1540  127.8830   74.3670 C   0  0  0  0  0  0  0  0  0  0  0  0
  128.1470  126.5010   71.6090 C   0  0  0  0  0  0  0  0  0  0  0  0
  128.1380  126.4280   70.2190 C   0  0  0  0  0  0  0  0  0  0  0  0
  129.9260  126.0650   67.2370 C   0  0  0  0  0  0  0  0  0  0  0  0
  129.8720  126.0170   65.8370 C   0  0  0  0  0  0  0  0  0  0  0  0
  130.7390  125.0250   65.1340 C   0  0  0  0  0  0  0  0  0  0  0  0
  130.2000  123.8130   64.6880 C   0  0  0  0  0  0  0  0  0  0  0  0
  130.9990  122.8870   64.0230 C   0  0  0  0  0  0  0  0  0  0  0  0
  132.3470  123.1530   63.7840 C   0  0  0  0  0  0  0  0  0  0  0  0
  133.0620  122.1770   63.1180 O   0  0  0  0  0  0  0  0  0  0  0  0
  133.4280  122.3900   61.7600 C   0  0  0  0  0  0  0  0  0  0  0  0
  132.8890  124.3710   64.2230 C   0  0  0  0  0  0  0  0  0  0  0  0
  132.0890  125.2960   64.8890 C   0  0  0  0  0  0  0  0  0  0  0  0
  129.0020  126.9120   65.1720 C   0  0  0  0  0  0  0  0  0  0  0  0
  128.9110  126.9660   63.7120 C   0  0  0  0  0  0  0  0  0  0  0  0
  128.8380  127.0090   62.5580 N   0  0  0  0  0  0  0  0  0  0  0  0
  124.9640  132.6350   63.7420 C   0  0  0  0  0  0  0  0  0  0  0  0
  124.5470  133.7380   63.0030 C   0  0  0  0  0  0  0  0  0  0  0  0
  127.0397  136.1614   62.0604 H   0  0  0  0  0  0  0  0  0  0  0  0
  128.2114  136.4896   60.7390 H   0  0  0  0  0  0  0  0  0  0  0  0
  126.6078  137.2990   60.7390 H   0  0  0  0  0  0  0  0  0  0  0  0
  127.0731  135.1439   59.2073 H   0  0  0  0  0  0  0  0  0  0  0  0
  126.6997  134.2710   60.7320 H   0  0  0  0  0  0  0  0  0  0  0  0
  125.4189  132.6661   59.8827 H   0  0  0  0  0  0  0  0  0  0  0  0
  126.1630  130.6932   61.2020 H   0  0  0  0  0  0  0  0  0  0  0  0
  126.8450  130.1040   63.7520 H   0  0  0  0  0  0  0  0  0  0  0  0
  125.9213  128.9202   66.7934 H   0  0  0  0  0  0  0  0  0  0  0  0
  125.4872  127.7953   65.4516 H   0  0  0  0  0  0  0  0  0  0  0  0
  130.9338  128.2552   69.5563 H   0  0  0  0  0  0  0  0  0  0  0  0
  130.9498  128.3894   72.0298 H   0  0  0  0  0  0  0  0  0  0  0  0
  128.3410  127.7892   75.4469 H   0  0  0  0  0  0  0  0  0  0  0  0
  128.0391  128.9453   74.1057 H   0  0  0  0  0  0  0  0  0  0  0  0
  127.2340  127.3395   74.1057 H   0  0  0  0  0  0  0  0  0  0  0  0
  127.3551  126.0037   72.1883 H   0  0  0  0  0  0  0  0  0  0  0  0
  127.3339  125.8739   69.7126 H   0  0  0  0  0  0  0  0  0  0  0  0
  130.6009  125.3868   67.7797 H   0  0  0  0  0  0  0  0  0  0  0  0
  129.1373  123.5904   64.8642 H   0  0  0  0  0  0  0  0  0  0  0  0
  130.5628  121.9362   63.6827 H   0  0  0  0  0  0  0  0  0  0  0  0
  134.3781  122.9429   61.7187 H   0  0  0  0  0  0  0  0  0  0  0  0
  133.5462  121.4196   61.2556 H   0  0  0  0  0  0  0  0  0  0  0  0
  132.6427  122.9722   61.2556 H   0  0  0  0  0  0  0  0  0  0  0  0
  133.9501  124.5958   64.0402 H   0  0  0  0  0  0  0  0  0  0  0  0
  132.5231  126.2490   65.2256 H   0  0  0  0  0  0  0  0  0  0  0  0
  124.8333  132.6283   64.8342 H   0  0  0  0  0  0  0  0  0  0  0  0
  124.0896  134.5964   63.5168 H   0  0  0  0  0  0  0  0  0  0  0  0
  1  2  1  0
  2  3  1  0
  3  4  1  0
  4  5  2  0
  4  6  1  0
  6  7  2  0
  7  8  1  0
  8  9  2  0
  9 10  1  0
 10 11  1  0
 11 12  2  0
 11 13  1  0
 13 14  1  0
 14 15  1  0
 15 16  2  0
 16 17  1  0
 17 18  1  0
 18 19  2  0
 19 20  1  0
 20 21  2  0
 21 22  1  0
 22 23  1  0
 21 24  1  0
 24 25  2  0
 17 26  2  0
 26 27  1  0
 27 28  1  0
 28 29  2  0
 29 30  1  0
 30 31  2  0
 31 32  1  0
 32 33  1  0
 31 34  1  0
 34 35  2  0
 27 36  2  0
 36 37  1  0
 37 38  3  0
  9 39  1  0
 39 40  2  0
 40  6  1  0
 36 15  1  0
 25 18  1  0
 35 28  1  0
  1 41  1  0
  1 42  1  0
  1 43  1  0
  2 44  1  0
  2 45  1  0
  7 46  1  0
  8 47  1  0
 10 48  1  0
 13 49  1  0
 13 50  1  0
 19 51  1  0
 20 52  1  0
 23 53  1  0
 23 54  1  0
 23 55  1  0
 24 56  1  0
 25 57  1  0
 26 58  1  0
 29 59  1  0
 30 60  1  0
 33 61  1  0
 33 62  1  0
 33 63  1  0
 34 64  1  0
 35 65  1  0
 39 66  1  0
 40 67  1  0
M  END
>  <Binding energies>  (1) 
[-9.27]

>  <Ligand effiencies>  (1) 
[-0.22609756097560973]

>  <Interactions>  (1) 
["V-A:LEU:475:CD1:4254, V-B:GLU:543:CD:9877, H-A:GLY:454:N:4046, V-A:GLY:454:CA:4045, V-A:HIS:456:CE1:4066, V-A:GLU:543:CD:4905, V-B:HIS:456:CE1:9038, V-A:TYR:484:CE1:4341, V-B:GLY:544:C:9881, V-B:HIS:456:CD2:9036, V-B:GLU:543:CG:9876, V-B:ILE:369:CG2:8205, V-B:TRP:381:CH2:8340, V-A:TYR:539:CE2:4873, V-B:GLY:454:CA:9017, H-B:TYR:484:OH:9316, V-A:TYR:539:CD2:4871, V-B:LEU:475:CD2:9227, V-B:LYS:547:CE:9919, V-A:LYS:547:CE:4947, H-A:LYS:547:NZ:4948, H-B:GLY:454:N:9018, V-B:TRP:381:CZ2:8338, V-B:PRO:482:CG:9295, V-B:PRO:482:CB:9294, V-B:TRP:381:CZ3:8339"]

$$$$
1b_Ghoteimi_2023
     RDKit          3D

 54 57  0  0  0  0  0  0  0  0999 V2000
  128.6260  127.3900   74.0590 C   0  0  0  0  0  0  0  0  0  0  0  0
  129.7250  127.0180   73.2350 O   0  0  0  0  0  0  0  0  0  0  0  0
  129.5990  127.1120   71.8620 C   0  0  0  0  0  0  0  0  0  0  0  0
  128.4600  126.5400   71.2990 C   0  0  0  0  0  0  0  0  0  0  0  0
  128.2490  126.5850   69.9240 C   0  0  0  0  0  0  0  0  0  0  0  0
  129.1700  127.2080   69.0690 C   0  0  0  0  0  0  0  0  0  0  0  0
  128.9400  127.2530   67.5840 C   0  0  0  0  0  0  0  0  0  0  0  0
  128.0260  128.1230   66.9820 C   0  0  0  0  0  0  0  0  0  0  0  0
  127.8510  128.1270   65.5920 C   0  0  0  0  0  0  0  0  0  0  0  0
  126.8540  129.0800   65.0190 C   0  0  0  0  0  0  0  0  0  0  0  0
  127.2760  130.1540   64.2310 C   0  0  0  0  0  0  0  0  0  0  0  0
  126.3510  131.0490   63.7010 C   0  0  0  0  0  0  0  0  0  0  0  0
  124.9870  130.8910   63.9510 C   0  0  0  0  0  0  0  0  0  0  0  0
  124.1430  131.8270   63.3850 O   0  0  0  0  0  0  0  0  0  0  0  0
  123.7990  131.7080   62.0090 C   0  0  0  0  0  0  0  0  0  0  0  0
  124.5600  129.8180   64.7480 C   0  0  0  0  0  0  0  0  0  0  0  0
  125.4880  128.9250   65.2770 C   0  0  0  0  0  0  0  0  0  0  0  0
  128.6320  127.2400   64.8120 C   0  0  0  0  0  0  0  0  0  0  0  0
  128.5570  127.2730   63.3480 C   0  0  0  0  0  0  0  0  0  0  0  0
  128.4970  127.3000   62.1920 N   0  0  0  0  0  0  0  0  0  0  0  0
  129.5220  126.3730   65.4850 C   0  0  0  0  0  0  0  0  0  0  0  0
  130.5720  125.1880   64.6700 S   0  0  0  0  0  0  0  0  0  0  0  0
  132.2930  125.5200   65.1790 C   0  0  0  0  0  0  0  0  0  0  0  0
  133.3650  125.0790   64.1710 C   0  0  0  0  0  0  0  0  0  0  0  0
  134.5630  125.1660   64.4480 O   0  0  0  0  0  0  0  0  0  0  0  0
  132.8780  124.6090   63.0010 N   0  0  0  0  0  0  0  0  0  0  0  0
  133.6080  124.1430   61.9140 C   0  0  0  0  0  0  0  0  0  0  0  0
  133.0190  123.7590   60.7100 C   0  0  0  0  0  0  0  0  0  0  0  0
  134.0670  123.3660   59.9080 C   0  0  0  0  0  0  0  0  0  0  0  0
  135.2270  123.5090   60.5930 O   0  0  0  0  0  0  0  0  0  0  0  0
  134.9230  124.0020   61.8630 N   0  0  0  0  0  0  0  0  0  0  0  0
  129.6800  126.3990   66.8300 N   0  0  0  0  0  0  0  0  0  0  0  0
  130.3150  127.7790   69.6470 C   0  0  0  0  0  0  0  0  0  0  0  0
  130.5300  127.7350   71.0210 C   0  0  0  0  0  0  0  0  0  0  0  0
  128.9116  127.2933   75.1169 H   0  0  0  0  0  0  0  0  0  0  0  0
  128.3464  128.4328   73.8485 H   0  0  0  0  0  0  0  0  0  0  0  0
  127.7705  126.7314   73.8485 H   0  0  0  0  0  0  0  0  0  0  0  0
  127.7203  126.0480   71.9476 H   0  0  0  0  0  0  0  0  0  0  0  0
  127.3444  126.1241   69.5006 H   0  0  0  0  0  0  0  0  0  0  0  0
  127.4380  128.8117   67.6064 H   0  0  0  0  0  0  0  0  0  0  0  0
  128.3481  130.2934   64.0278 H   0  0  0  0  0  0  0  0  0  0  0  0
  126.6980  131.8879   63.0799 H   0  0  0  0  0  0  0  0  0  0  0  0
  122.7629  131.3496   61.9198 H   0  0  0  0  0  0  0  0  0  0  0  0
  123.8905  132.6900   61.5219 H   0  0  0  0  0  0  0  0  0  0  0  0
  124.4778  130.9924   61.5219 H   0  0  0  0  0  0  0  0  0  0  0  0
  123.4884  129.6819   64.9556 H   0  0  0  0  0  0  0  0  0  0  0  0
  125.1436  128.0894   65.9040 H   0  0  0  0  0  0  0  0  0  0  0  0
  132.3989  126.6033   65.3376 H   0  0  0  0  0  0  0  0  0  0  0  0
  132.4642  124.9264   66.0891 H   0  0  0  0  0  0  0  0  0  0  0  0
  131.8750  124.5770   62.8960 H   0  0  0  0  0  0  0  0  0  0  0  0
  131.9488  123.7680   60.4558 H   0  0  0  0  0  0  0  0  0  0  0  0
  133.9768  122.9953   58.8763 H   0  0  0  0  0  0  0  0  0  0  0  0
  131.0569  128.2709   69.0008 H   0  0  0  0  0  0  0  0  0  0  0  0
  131.4349  128.1914   71.4486 H   0  0  0  0  0  0  0  0  0  0  0  0
  1  2  1  0
  2  3  1  0
  3  4  2  0
  4  5  1  0
  5  6  2  0
  6  7  1  0
  7  8  2  0
  8  9  1  0
  9 10  1  0
 10 11  2  0
 11 12  1  0
 12 13  2  0
 13 14  1  0
 14 15  1  0
 13 16  1  0
 16 17  2  0
  9 18  2  0
 18 19  1  0
 19 20  3  0
 18 21  1  0
 21 22  1  0
 22 23  1  0
 23 24  1  0
 24 25  2  0
 24 26  1  0
 26 27  1  0
 27 28  1  0
 28 29  2  0
 29 30  1  0
 30 31  1  0
 21 32  2  0
  6 33  1  0
 33 34  2  0
 34  3  1  0
 32  7  1  0
 17 10  1  0
 31 27  2  0
  1 35  1  0
  1 36  1  0
  1 37  1  0
  4 38  1  0
  5 39  1  0
  8 40  1  0
 11 41  1  0
 12 42  1  0
 15 43  1  0
 15 44  1  0
 15 45  1  0
 16 46  1  0
 17 47  1  0
 23 48  1  0
 23 49  1  0
 26 50  1  0
 28 51  1  0
 29 52  1  0
 33 53  1  0
 34 54  1  0
M  END
>  <Binding energies>  (1) 
[-9.66]

>  <Ligand effiencies>  (1) 
[-0.276]

>  <Interactions>  (1) 
["V-B:GLU:543:CD:9877, V-A:ARG:545:CZ:4923, V-A:ILE:369:CB:3232, H-A:ARG:545:NH2:4925, H-A:ARG:545:NH1:4924, H-A:GLY:454:N:4046, V-A:ILE:369:CG1:3234, V-A:ILE:369:CG2:3233, V-A:HIS:456:CE1:4066, V-A:GLU:543:CD:4905, V-B:HIS:456:CE1:9038, V-A:HIS:456:CD2:4064, V-B:HIS:456:CD2:9036, V-B:ILE:369:CD1:8207, V-B:ARG:545:CZ:9895, V-B:ASP:366:CG:8181, V-A:ASP:366:CG:3209, V-A:ASP:366:CB:3208, H-A:ARG:545:NE:4921, V-B:LYS:547:CE:9919, V-A:LYS:547:CE:4947, V-A:GLU:543:C:4899, H-A:LYS:547:NZ:4948, H-B:GLY:454:N:9018, V-A:GLY:544:C:4909, V-A:ASP:366:CA:3206"]

$$$$
1b_Grossjean_2025
     RDKit          3D

 42 43  0  0  0  0  0  0  0  0999 V2000
  128.6140  129.4030   73.6160 C   0  0  0  0  0  0  0  0  0  0  0  0
  128.9900  128.1300   73.1080 O   0  0  0  0  0  0  0  0  0  0  0  0
  128.1410  127.4110   72.3300 C   0  0  0  0  0  0  0  0  0  0  0  0
  127.0350  127.0170   72.7140 O   0  0  0  0  0  0  0  0  0  0  0  0
  128.6760  127.1490   70.9510 C   0  0  0  0  0  0  0  0  0  0  0  0
  129.7590  127.8710   70.4260 C   0  0  0  0  0  0  0  0  0  0  0  0
  130.2300  127.6040   69.1440 C   0  0  0  0  0  0  0  0  0  0  0  0
  129.6340  126.6150   68.3620 C   0  0  0  0  0  0  0  0  0  0  0  0
  130.1920  126.4320   67.0820 N   0  0  0  0  0  0  0  0  0  0  0  0
  131.2590  127.0270   66.5040 C   0  0  0  0  0  0  0  0  0  0  0  0
  131.9740  127.8790   67.0300 O   0  0  0  0  0  0  0  0  0  0  0  0
  131.5750  126.5650   65.0810 C   0  0  0  0  0  0  0  0  0  0  0  0
  133.0370  125.4870   65.0180 S   0  0  0  0  0  0  0  0  0  0  0  0
  132.7100  124.2190   63.8130 C   0  0  0  0  0  0  0  0  0  0  0  0
  133.6870  124.0840   62.8820 N   0  0  0  0  0  0  0  0  0  0  0  0
  133.5410  123.1460   61.9170 C   0  0  0  0  0  0  0  0  0  0  0  0
  134.6810  123.0420   60.9200 C   0  0  0  0  0  0  0  0  0  0  0  0
  132.4220  122.3200   61.8350 C   0  0  0  0  0  0  0  0  0  0  0  0
  131.3990  122.4670   62.7760 C   0  0  0  0  0  0  0  0  0  0  0  0
  130.1750  121.5610   62.6560 C   0  0  0  0  0  0  0  0  0  0  0  0
  131.5290  123.4400   63.7930 C   0  0  0  0  0  0  0  0  0  0  0  0
  130.4510  123.6410   64.7640 C   0  0  0  0  0  0  0  0  0  0  0  0
  129.5980  123.7970   65.5300 N   0  0  0  0  0  0  0  0  0  0  0  0
  128.5510  125.8890   68.8800 C   0  0  0  0  0  0  0  0  0  0  0  0
  128.0810  126.1560   70.1620 C   0  0  0  0  0  0  0  0  0  0  0  0
  128.6220  129.3759   74.7156 H   0  0  0  0  0  0  0  0  0  0  0  0
  129.3259  130.1636   73.2628 H   0  0  0  0  0  0  0  0  0  0  0  0
  127.6031  129.6548   73.2628 H   0  0  0  0  0  0  0  0  0  0  0  0
  130.2389  128.6535   71.0322 H   0  0  0  0  0  0  0  0  0  0  0  0
  131.0792  128.1776   68.7443 H   0  0  0  0  0  0  0  0  0  0  0  0
  129.7010  125.7570   66.5140 H   0  0  0  0  0  0  0  0  0  0  0  0
  130.7095  126.0115   64.6878 H   0  0  0  0  0  0  0  0  0  0  0  0
  131.7877  127.4583   64.4753 H   0  0  0  0  0  0  0  0  0  0  0  0
  135.6347  122.9550   61.4612 H   0  0  0  0  0  0  0  0  0  0  0  0
  134.5356  122.1534   60.2882 H   0  0  0  0  0  0  0  0  0  0  0  0
  134.6988  123.9423   60.2882 H   0  0  0  0  0  0  0  0  0  0  0  0
  132.3447  121.5628   61.0408 H   0  0  0  0  0  0  0  0  0  0  0  0
  129.8157  121.2951   63.6611 H   0  0  0  0  0  0  0  0  0  0  0  0
  129.3796  122.0897   62.1103 H   0  0  0  0  0  0  0  0  0  0  0  0
  130.4483  120.6459   62.1103 H   0  0  0  0  0  0  0  0  0  0  0  0
  128.0727  125.1074   68.2715 H   0  0  0  0  0  0  0  0  0  0  0  0
  127.2324  125.5807   70.5607 H   0  0  0  0  0  0  0  0  0  0  0  0
  1  2  1  0
  2  3  1  0
  3  4  2  0
  3  5  1  0
  5  6  2  0
  6  7  1  0
  7  8  2  0
  8  9  1  0
  9 10  1  0
 10 11  2  0
 10 12  1  0
 12 13  1  0
 13 14  1  0
 14 15  2  0
 15 16  1  0
 16 17  1  0
 16 18  2  0
 18 19  1  0
 19 20  1  0
 19 21  2  0
 21 22  1  0
 22 23  3  0
  8 24  1  0
 24 25  2  0
 25  5  1  0
 21 14  1  0
  1 26  1  0
  1 27  1  0
  1 28  1  0
  6 29  1  0
  7 30  1  0
  9 31  1  0
 12 32  1  0
 12 33  1  0
 17 34  1  0
 17 35  1  0
 17 36  1  0
 18 37  1  0
 20 38  1  0
 20 39  1  0
 20 40  1  0
 24 41  1  0
 25 42  1  0
M  END
>  <Binding energies>  (1) 
[-7.3]

>  <Ligand effiencies>  (1) 
[-0.28076923076923077]

>  <Interactions>  (1) 
["V-A:LEU:475:CD1:4254, V-A:ARG:545:CZ:4923, V-A:ILE:369:CB:3232, H-A:ARG:545:NH2:4925, H-A:GLY:454:N:4046, V-A:ARG:545:CG:4919, V-A:ILE:369:CG1:3234, V-A:ILE:369:CG2:3233, V-A:GLY:454:CA:4045, V-B:TYR:539:CE2:9845, V-A:HIS:456:CE1:4066, V-A:GLU:543:CD:4905, V-A:TYR:484:CZ:4343, V-B:GLU:543:C:9871, V-B:GLU:543:CB:9875, V-A:TYR:484:CE1:4341, V-B:GLY:544:C:9881, V-B:HIS:456:CD2:9036, V-A:GLU:543:CB:4903, V-B:GLU:543:CG:9876, V-B:ALA:541:CB:9861, H-A:ARG:545:NE:4921, H-A:TYR:484:OH:4344, V-B:LYS:547:CE:9919, V-A:LYS:547:CE:4947, H-A:LYS:547:NZ:4948"]

$$$$
1c_Ghoteimi_2023
     RDKit          3D

 54 57  0  0  0  0  0  0  0  0999 V2000
  128.6440  127.3470   74.1400 C   0  0  0  0  0  0  0  0  0  0  0  0
  129.6730  127.0160   73.2130 O   0  0  0  0  0  0  0  0  0  0  0  0
  129.3990  127.0540   71.8590 C   0  0  0  0  0  0  0  0  0  0  0  0
  130.3230  127.7120   71.0520 C   0  0  0  0  0  0  0  0  0  0  0  0
  130.1260  127.8010   69.6770 C   0  0  0  0  0  0  0  0  0  0  0  0
  128.9960  127.2340   69.0670 C   0  0  0  0  0  0  0  0  0  0  0  0
  128.7770  127.3320   67.5850 C   0  0  0  0  0  0  0  0  0  0  0  0
  127.9540  128.3030   67.0040 C   0  0  0  0  0  0  0  0  0  0  0  0
  127.8020  128.3720   65.6140 C   0  0  0  0  0  0  0  0  0  0  0  0
  126.9620  129.4750   65.0600 C   0  0  0  0  0  0  0  0  0  0  0  0
  125.6390  129.2370   64.6750 C   0  0  0  0  0  0  0  0  0  0  0  0
  124.8650  130.2610   64.1390 C   0  0  0  0  0  0  0  0  0  0  0  0
  125.3980  131.5390   63.9730 C   0  0  0  0  0  0  0  0  0  0  0  0
  124.5560  132.4930   63.4330 O   0  0  0  0  0  0  0  0  0  0  0  0
  124.1190  132.3510   62.0850 C   0  0  0  0  0  0  0  0  0  0  0  0
  126.7270  131.7800   64.3520 C   0  0  0  0  0  0  0  0  0  0  0  0
  127.5000  130.7540   64.8880 C   0  0  0  0  0  0  0  0  0  0  0  0
  128.4760  127.4190   64.8150 C   0  0  0  0  0  0  0  0  0  0  0  0
  128.3310  127.4170   63.3550 C   0  0  0  0  0  0  0  0  0  0  0  0
  128.2170  127.4170   62.2040 N   0  0  0  0  0  0  0  0  0  0  0  0
  129.3040  126.4790   65.4640 C   0  0  0  0  0  0  0  0  0  0  0  0
  130.3390  125.3360   64.5770 S   0  0  0  0  0  0  0  0  0  0  0  0
  131.9900  125.5230   65.3280 C   0  0  0  0  0  0  0  0  0  0  0  0
  133.1120  125.1220   64.3640 C   0  0  0  0  0  0  0  0  0  0  0  0
  134.2730  125.0670   64.7720 O   0  0  0  0  0  0  0  0  0  0  0  0
  132.7110  124.8100   63.1120 N   0  0  0  0  0  0  0  0  0  0  0  0
  133.4940  124.2740   62.1010 C   0  0  0  0  0  0  0  0  0  0  0  0
  134.7840  124.0190   62.1280 N   0  0  0  0  0  0  0  0  0  0  0  0
  135.1920  123.4710   61.0000 C   0  0  0  0  0  0  0  0  0  0  0  0
  134.2180  123.2670   60.0270 C   0  0  0  0  0  0  0  0  0  0  0  0
  132.6880  123.8310   60.6310 S   0  0  0  0  0  0  0  0  0  0  0  0
  129.4550  126.4450   66.8100 N   0  0  0  0  0  0  0  0  0  0  0  0
  128.0750  126.5680   69.8890 C   0  0  0  0  0  0  0  0  0  0  0  0
  128.2670  126.4780   71.2640 C   0  0  0  0  0  0  0  0  0  0  0  0
  129.0217  127.2255   75.1659 H   0  0  0  0  0  0  0  0  0  0  0  0
  128.3327  128.3906   73.9851 H   0  0  0  0  0  0  0  0  0  0  0  0
  127.7827  126.6806   73.9851 H   0  0  0  0  0  0  0  0  0  0  0  0
  131.2168  128.1657   71.5051 H   0  0  0  0  0  0  0  0  0  0  0  0
  130.8688  128.3248   69.0575 H   0  0  0  0  0  0  0  0  0  0  0  0
  127.4209  129.0196   67.6461 H   0  0  0  0  0  0  0  0  0  0  0  0
  125.2071  128.2327   64.7969 H   0  0  0  0  0  0  0  0  0  0  0  0
  123.8244  130.0612   63.8438 H   0  0  0  0  0  0  0  0  0  0  0  0
  123.0729  132.0111   62.0726 H   0  0  0  0  0  0  0  0  0  0  0  0
  124.1957  133.3203   61.5706 H   0  0  0  0  0  0  0  0  0  0  0  0
  124.7508  131.6119   61.5706 H   0  0  0  0  0  0  0  0  0  0  0  0
  127.1597  132.7833   64.2252 H   0  0  0  0  0  0  0  0  0  0  0  0
  128.5425  130.9510   65.1786 H   0  0  0  0  0  0  0  0  0  0  0  0
  132.1306  126.5748   65.6177 H   0  0  0  0  0  0  0  0  0  0  0  0
  132.0412  124.8574   66.2022 H   0  0  0  0  0  0  0  0  0  0  0  0
  131.7290  124.9040   62.9020 H   0  0  0  0  0  0  0  0  0  0  0  0
  136.2432  123.1908   60.8373 H   0  0  0  0  0  0  0  0  0  0  0  0
  134.3885  122.8210   59.0360 H   0  0  0  0  0  0  0  0  0  0  0  0
  127.1836  126.1079   69.4377 H   0  0  0  0  0  0  0  0  0  0  0  0
  127.5280  125.9530   71.8871 H   0  0  0  0  0  0  0  0  0  0  0  0
  1  2  1  0
  2  3  1  0
  3  4  2  0
  4  5  1  0
  5  6  2  0
  6  7  1  0
  7  8  2  0
  8  9  1  0
  9 10  1  0
 10 11  2  0
 11 12  1  0
 12 13  2  0
 13 14  1  0
 14 15  1  0
 13 16  1  0
 16 17  2  0
  9 18  2  0
 18 19  1  0
 19 20  3  0
 18 21  1  0
 21 22  1  0
 22 23  1  0
 23 24  1  0
 24 25  2  0
 24 26  1  0
 26 27  1  0
 27 28  2  0
 28 29  1  0
 29 30  2  0
 30 31  1  0
 21 32  2  0
  6 33  1  0
 33 34  2  0
 34  3  1  0
 32  7  1  0
 17 10  1  0
 31 27  1  0
  1 35  1  0
  1 36  1  0
  1 37  1  0
  4 38  1  0
  5 39  1  0
  8 40  1  0
 11 41  1  0
 12 42  1  0
 15 43  1  0
 15 44  1  0
 15 45  1  0
 16 46  1  0
 17 47  1  0
 23 48  1  0
 23 49  1  0
 26 50  1  0
 29 51  1  0
 30 52  1  0
 33 53  1  0
 34 54  1  0
M  END
>  <Binding energies>  (1) 
[-9.52]

>  <Ligand effiencies>  (1) 
[-0.27199999999999996]

>  <Interactions>  (1) 
["V-B:GLU:543:CD:9877, V-A:ARG:545:CZ:4923, V-A:ILE:369:CB:3232, H-A:ARG:545:NH1:4924, H-A:GLY:454:N:4046, V-A:ILE:369:CG1:3234, V-A:ILE:369:CG2:3233, V-A:HIS:456:CE1:4066, V-A:GLU:543:CD:4905, V-A:GLU:543:CG:4904, V-B:HIS:456:CE1:9038, V-A:HIS:456:CD2:4064, V-B:HIS:456:CD2:9036, V-B:GLU:543:CG:9876, V-B:ILE:369:CD1:8207, V-B:ARG:545:CZ:9895, V-A:ASP:366:CG:3209, H-A:ARG:545:NE:4921, V-B:LYS:547:CE:9919, V-A:LYS:547:CE:4947, V-A:GLU:543:C:4899, H-A:LYS:547:NZ:4948, H-B:GLY:454:N:9018, V-A:GLY:453:C:4038, V-A:GLY:453:CA:4040, V-A:ASP:366:CA:3206"]

$$$$
1c_Grossjean_2025
     RDKit          3D

 40 41  0  0  0  0  0  0  0  0999 V2000
  128.1040  128.0990   73.4530 C   0  0  0  0  0  0  0  0  0  0  0  0
  129.3610  127.9010   72.8160 O   0  0  0  0  0  0  0  0  0  0  0  0
  129.3910  127.4920   71.4970 C   0  0  0  0  0  0  0  0  0  0  0  0
  130.3440  128.0980   70.6790 C   0  0  0  0  0  0  0  0  0  0  0  0
  130.4530  127.7520   69.3350 C   0  0  0  0  0  0  0  0  0  0  0  0
  129.6010  126.7800   68.7910 C   0  0  0  0  0  0  0  0  0  0  0  0
  129.6180  126.3630   67.4450 N   0  0  0  0  0  0  0  0  0  0  0  0
  130.5590  126.5620   66.4980 C   0  0  0  0  0  0  0  0  0  0  0  0
  131.6250  127.1560   66.6630 O   0  0  0  0  0  0  0  0  0  0  0  0
  130.2380  125.9770   65.1210 C   0  0  0  0  0  0  0  0  0  0  0  0
  130.1240  124.1630   65.1660 S   0  0  0  0  0  0  0  0  0  0  0  0
  130.8410  123.5180   63.6690 C   0  0  0  0  0  0  0  0  0  0  0  0
  129.9820  122.7600   62.9420 N   0  0  0  0  0  0  0  0  0  0  0  0
  130.4150  122.2140   61.7820 C   0  0  0  0  0  0  0  0  0  0  0  0
  129.3950  121.3890   61.0200 C   0  0  0  0  0  0  0  0  0  0  0  0
  131.7130  122.3900   61.3070 C   0  0  0  0  0  0  0  0  0  0  0  0
  132.6150  123.1480   62.0600 C   0  0  0  0  0  0  0  0  0  0  0  0
  134.0370  123.3120   61.5280 C   0  0  0  0  0  0  0  0  0  0  0  0
  132.1850  123.7270   63.2770 C   0  0  0  0  0  0  0  0  0  0  0  0
  133.1300  124.4790   64.1060 C   0  0  0  0  0  0  0  0  0  0  0  0
  133.8770  125.0730   64.7600 N   0  0  0  0  0  0  0  0  0  0  0  0
  128.6380  126.1790   69.6030 C   0  0  0  0  0  0  0  0  0  0  0  0
  128.5320  126.5280   70.9460 C   0  0  0  0  0  0  0  0  0  0  0  0
  128.2387  128.0778   74.5445 H   0  0  0  0  0  0  0  0  0  0  0  0
  127.6906  129.0733   73.1534 H   0  0  0  0  0  0  0  0  0  0  0  0
  127.4111  127.2989   73.1534 H   0  0  0  0  0  0  0  0  0  0  0  0
  131.0176  128.8585   71.1008 H   0  0  0  0  0  0  0  0  0  0  0  0
  131.2068  128.2406   68.7002 H   0  0  0  0  0  0  0  0  0  0  0  0
  128.8290  125.7950   67.1770 H   0  0  0  0  0  0  0  0  0  0  0  0
  129.2766  126.3855   64.7762 H   0  0  0  0  0  0  0  0  0  0  0  0
  131.0534  126.2508   64.4354 H   0  0  0  0  0  0  0  0  0  0  0  0
  128.7435  120.8620   61.7326 H   0  0  0  0  0  0  0  0  0  0  0  0
  128.7862  122.0517   60.3874 H   0  0  0  0  0  0  0  0  0  0  0  0
  129.9158  120.6551   60.3874 H   0  0  0  0  0  0  0  0  0  0  0  0
  132.0238  121.9390   60.3531 H   0  0  0  0  0  0  0  0  0  0  0  0
  134.7373  123.3928   62.3724 H   0  0  0  0  0  0  0  0  0  0  0  0
  134.3019  122.4385   60.9142 H   0  0  0  0  0  0  0  0  0  0  0  0
  134.0961  124.2229   60.9142 H   0  0  0  0  0  0  0  0  0  0  0  0
  127.9587  125.4249   69.1789 H   0  0  0  0  0  0  0  0  0  0  0  0
  127.7718  126.0464   71.5786 H   0  0  0  0  0  0  0  0  0  0  0  0
  1  2  1  0
  2  3  1  0
  3  4  2  0
  4  5  1  0
  5  6  2  0
  6  7  1  0
  7  8  1  0
  8  9  2  0
  8 10  1  0
 10 11  1  0
 11 12  1  0
 12 13  2  0
 13 14  1  0
 14 15  1  0
 14 16  2  0
 16 17  1  0
 17 18  1  0
 17 19  2  0
 19 20  1  0
 20 21  3  0
  6 22  1  0
 22 23  2  0
 23  3  1  0
 19 12  1  0
  1 24  1  0
  1 25  1  0
  1 26  1  0
  4 27  1  0
  5 28  1  0
  7 29  1  0
 10 30  1  0
 10 31  1  0
 15 32  1  0
 15 33  1  0
 15 34  1  0
 16 35  1  0
 18 36  1  0
 18 37  1  0
 18 38  1  0
 22 39  1  0
 23 40  1  0
M  END
>  <Binding energies>  (1) 
[-7.05]

>  <Ligand effiencies>  (1) 
[-0.29375]

>  <Interactions>  (1) 
["V-A:ARG:545:CZ:4923, H-A:ARG:545:NH1:4924, H-A:GLY:454:N:4046, V-A:GLY:454:CA:4045, V-B:TYR:539:CE2:9845, V-A:HIS:456:CE1:4066, V-B:GLU:543:C:9871, V-B:HIS:456:CD2:9036, V-B:TYR:539:CD2:9843, V-B:ALA:541:CB:9861, H-A:ARG:545:NE:4921, H-A:TYR:484:OH:4344, H-B:GLU:543:OE1:9878, V-A:GLU:543:C:4899, H-A:LYS:547:NZ:4948, V-A:GLY:544:C:4909"]

$$$$
1d_Ghoteimi_2023
     RDKit          3D

 50 52  0  0  0  0  0  0  0  0999 V2000
  124.2130  130.0000   63.3280 C   0  0  0  0  0  0  0  0  0  0  0  0
  124.4490  130.5460   64.6170 O   0  0  0  0  0  0  0  0  0  0  0  0
  124.2070  129.8150   65.7250 C   0  0  0  0  0  0  0  0  0  0  0  0
  123.2930  129.9960   66.5310 O   0  0  0  0  0  0  0  0  0  0  0  0
  125.2190  128.6870   65.9090 C   0  0  0  0  0  0  0  0  0  0  0  0
  126.8300  129.2980   65.3300 S   0  0  0  0  0  0  0  0  0  0  0  0
  128.0640  128.1690   65.9370 C   0  0  0  0  0  0  0  0  0  0  0  0
  128.1460  128.1250   67.2880 N   0  0  0  0  0  0  0  0  0  0  0  0
  129.0490  127.3070   67.8860 C   0  0  0  0  0  0  0  0  0  0  0  0
  129.0710  127.3130   69.3870 C   0  0  0  0  0  0  0  0  0  0  0  0
  130.0770  127.9860   70.0980 C   0  0  0  0  0  0  0  0  0  0  0  0
  130.1000  127.9860   71.4890 C   0  0  0  0  0  0  0  0  0  0  0  0
  129.1210  127.3110   72.2140 C   0  0  0  0  0  0  0  0  0  0  0  0
  129.2240  127.3610   73.5910 O   0  0  0  0  0  0  0  0  0  0  0  0
  128.1230  127.8470   74.3520 C   0  0  0  0  0  0  0  0  0  0  0  0
  128.1100  126.6330   71.5190 C   0  0  0  0  0  0  0  0  0  0  0  0
  128.0900  126.6370   70.1270 C   0  0  0  0  0  0  0  0  0  0  0  0
  129.8940  126.4960   67.1180 C   0  0  0  0  0  0  0  0  0  0  0  0
  129.8410  126.5330   65.7190 C   0  0  0  0  0  0  0  0  0  0  0  0
  130.7770  125.6470   64.9620 C   0  0  0  0  0  0  0  0  0  0  0  0
  132.1500  125.9080   64.9640 C   0  0  0  0  0  0  0  0  0  0  0  0
  133.0280  125.0870   64.2610 C   0  0  0  0  0  0  0  0  0  0  0  0
  132.5520  123.9880   63.5470 C   0  0  0  0  0  0  0  0  0  0  0  0
  133.4940  123.2340   62.8730 O   0  0  0  0  0  0  0  0  0  0  0  0
  133.8510  123.5940   61.5430 C   0  0  0  0  0  0  0  0  0  0  0  0
  131.1760  123.7150   63.5510 C   0  0  0  0  0  0  0  0  0  0  0  0
  130.3010  124.5370   64.2560 C   0  0  0  0  0  0  0  0  0  0  0  0
  128.9140  127.4090   65.1020 C   0  0  0  0  0  0  0  0  0  0  0  0
  128.8870  127.5650   63.6450 C   0  0  0  0  0  0  0  0  0  0  0  0
  128.8680  127.6860   62.4940 N   0  0  0  0  0  0  0  0  0  0  0  0
  123.7784  128.9946   63.4296 H   0  0  0  0  0  0  0  0  0  0  0  0
  123.5144  130.6475   62.7778 H   0  0  0  0  0  0  0  0  0  0  0  0
  125.1633  129.9348   62.7778 H   0  0  0  0  0  0  0  0  0  0  0  0
  125.2825  128.4091   66.9714 H   0  0  0  0  0  0  0  0  0  0  0  0
  124.9147  127.7969   65.3389 H   0  0  0  0  0  0  0  0  0  0  0  0
  130.8616  128.5233   69.5451 H   0  0  0  0  0  0  0  0  0  0  0  0
  130.8985  128.5239   72.0210 H   0  0  0  0  0  0  0  0  0  0  0  0
  128.3466  127.7483   75.4245 H   0  0  0  0  0  0  0  0  0  0  0  0
  127.9486  128.9057   74.1097 H   0  0  0  0  0  0  0  0  0  0  0  0
  127.2233  127.2624   74.1097 H   0  0  0  0  0  0  0  0  0  0  0  0
  127.3287  126.0952   72.0761 H   0  0  0  0  0  0  0  0  0  0  0  0
  127.2895  126.0997   69.5974 H   0  0  0  0  0  0  0  0  0  0  0  0
  130.6062  125.8235   67.6185 H   0  0  0  0  0  0  0  0  0  0  0  0
  132.5405  126.7694   65.5257 H   0  0  0  0  0  0  0  0  0  0  0  0
  134.1057  125.3072   64.2690 H   0  0  0  0  0  0  0  0  0  0  0  0
  134.6253  124.3748   61.5698 H   0  0  0  0  0  0  0  0  0  0  0  0
  134.2395  122.7103   61.0157 H   0  0  0  0  0  0  0  0  0  0  0  0
  132.9640  123.9751   61.0157 H   0  0  0  0  0  0  0  0  0  0  0  0
  130.7872  122.8489   62.9954 H   0  0  0  0  0  0  0  0  0  0  0  0
  129.2244  124.3114   64.2579 H   0  0  0  0  0  0  0  0  0  0  0  0
  1  2  1  0
  2  3  1  0
  3  4  2  0
  3  5  1  0
  5  6  1  0
  6  7  1  0
  7  8  2  0
  8  9  1  0
  9 10  1  0
 10 11  2  0
 11 12  1  0
 12 13  2  0
 13 14  1  0
 14 15  1  0
 13 16  1  0
 16 17  2  0
  9 18  2  0
 18 19  1  0
 19 20  1  0
 20 21  2  0
 21 22  1  0
 22 23  2  0
 23 24  1  0
 24 25  1  0
 23 26  1  0
 26 27  2  0
 19 28  2  0
 28 29  1  0
 29 30  3  0
 28  7  1  0
 17 10  1  0
 27 20  1  0
  1 31  1  0
  1 32  1  0
  1 33  1  0
  5 34  1  0
  5 35  1  0
 11 36  1  0
 12 37  1  0
 15 38  1  0
 15 39  1  0
 15 40  1  0
 16 41  1  0
 17 42  1  0
 18 43  1  0
 21 44  1  0
 22 45  1  0
 25 46  1  0
 25 47  1  0
 25 48  1  0
 26 49  1  0
 27 50  1  0
M  END
>  <Binding energies>  (1) 
[-8.66]

>  <Ligand effiencies>  (1) 
[-0.2886666666666667]

>  <Interactions>  (1) 
["V-B:GLU:543:CD:9877, V-A:ARG:545:CZ:4923, H-A:GLY:454:N:4046, V-A:GLY:454:CA:4045, V-A:HIS:456:CE1:4066, V-A:GLU:543:CD:4905, V-B:HIS:456:CE1:9038, V-B:HIS:456:CD2:9036, V-B:GLU:543:CG:9876, V-B:ARG:545:CZ:9895, V-B:ARG:545:CD:9892, H-B:TYR:484:OH:9316, V-B:ASP:366:CG:8181, V-A:ASP:366:CG:3209, V-B:LYS:547:CE:9919, V-A:LYS:547:CE:4947, V-A:GLU:543:C:4899, H-A:LYS:547:NZ:4948, H-B:GLY:454:N:9018, H-B:ILE:455:N:9023, V-B:ARG:545:CG:9891, H-B:HIS:456:ND1:9035"]

$$$$
1d_Grossjean_2025
     RDKit          3D

 36 37  0  0  0  0  0  0  0  0999 V2000
  128.9980  125.7980   65.4870 C   0  0  0  0  0  0  0  0  0  0  0  0
  129.3170  126.4160   66.8340 C   0  0  0  0  0  0  0  0  0  0  0  0
  130.4870  127.1420   67.0450 C   0  0  0  0  0  0  0  0  0  0  0  0
  130.7240  127.6990   68.3060 C   0  0  0  0  0  0  0  0  0  0  0  0
  132.0070  128.5030   68.5090 C   0  0  0  0  0  0  0  0  0  0  0  0
  129.7760  127.5050   69.3370 C   0  0  0  0  0  0  0  0  0  0  0  0
  129.9800  128.1180   70.6510 C   0  0  0  0  0  0  0  0  0  0  0  0
  130.1440  128.6050   71.6880 N   0  0  0  0  0  0  0  0  0  0  0  0
  128.6280  126.7330   69.0400 C   0  0  0  0  0  0  0  0  0  0  0  0
  127.3360  126.3890   70.2140 S   0  0  0  0  0  0  0  0  0  0  0  0
  128.1360  125.9300   71.7810 C   0  0  0  0  0  0  0  0  0  0  0  0
  127.9220  126.9850   72.8680 C   0  0  0  0  0  0  0  0  0  0  0  0
  128.8870  127.3730   73.5270 O   0  0  0  0  0  0  0  0  0  0  0  0
  126.6540  127.4320   72.9980 N   0  0  0  0  0  0  0  0  0  0  0  0
  126.1180  128.3730   73.8960 C   0  0  0  0  0  0  0  0  0  0  0  0
  124.8150  128.1180   74.3340 C   0  0  0  0  0  0  0  0  0  0  0  0
  124.1910  128.9830   75.2280 C   0  0  0  0  0  0  0  0  0  0  0  0
  124.8740  130.1040   75.6930 C   0  0  0  0  0  0  0  0  0  0  0  0
  126.1760  130.3650   75.2730 C   0  0  0  0  0  0  0  0  0  0  0  0
  126.8020  129.5020   74.3770 C   0  0  0  0  0  0  0  0  0  0  0  0
  128.3970  126.2150   67.8060 N   0  0  0  0  0  0  0  0  0  0  0  0
  128.4982  124.8297   65.6370 H   0  0  0  0  0  0  0  0  0  0  0  0
  128.3341  126.4699   64.9233 H   0  0  0  0  0  0  0  0  0  0  0  0
  129.9303  125.6460   64.9233 H   0  0  0  0  0  0  0  0  0  0  0  0
  131.2147  127.2755   66.2310 H   0  0  0  0  0  0  0  0  0  0  0  0
  132.1982  128.6228   69.5856 H   0  0  0  0  0  0  0  0  0  0  0  0
  132.8503  127.9715   68.0438 H   0  0  0  0  0  0  0  0  0  0  0  0
  131.8964  129.4936   68.0438 H   0  0  0  0  0  0  0  0  0  0  0  0
  127.7157  124.9742   72.1270 H   0  0  0  0  0  0  0  0  0  0  0  0
  129.2175  125.8478   71.5974 H   0  0  0  0  0  0  0  0  0  0  0  0
  125.9810  127.0510   72.3500 H   0  0  0  0  0  0  0  0  0  0  0  0
  124.2799  127.2285   73.9699 H   0  0  0  0  0  0  0  0  0  0  0  0
  123.1635  128.7823   75.5656 H   0  0  0  0  0  0  0  0  0  0  0  0
  124.3809  130.7893   76.3981 H   0  0  0  0  0  0  0  0  0  0  0  0
  126.7089  131.2511   75.6483 H   0  0  0  0  0  0  0  0  0  0  0  0
  127.8314  129.7042   74.0461 H   0  0  0  0  0  0  0  0  0  0  0  0
  1  2  1  0
  2  3  2  0
  3  4  1  0
  4  5  1  0
  4  6  2  0
  6  7  1  0
  7  8  3  0
  6  9  1  0
  9 10  1  0
 10 11  1  0
 11 12  1  0
 12 13  2  0
 12 14  1  0
 14 15  1  0
 15 16  2  0
 16 17  1  0
 17 18  2  0
 18 19  1  0
 19 20  2  0
  9 21  2  0
 21  2  1  0
 20 15  1  0
  1 22  1  0
  1 23  1  0
  1 24  1  0
  3 25  1  0
  5 26  1  0
  5 27  1  0
  5 28  1  0
 11 29  1  0
 11 30  1  0
 14 31  1  0
 16 32  1  0
 17 33  1  0
 18 34  1  0
 19 35  1  0
 20 36  1  0
M  END
>  <Binding energies>  (1) 
[-7.27]

>  <Ligand effiencies>  (1) 
[-0.33045454545454545]

>  <Interactions>  (1) 
["V-B:GLU:543:CD:9877, V-A:ARG:545:CG:4919, V-A:HIS:456:CE1:4066, V-B:GLU:543:CB:9875, V-B:HIS:456:CE1:9038, V-B:GLY:544:C:9881, V-B:HIS:456:CD2:9036, V-A:GLU:543:CB:4903, V-B:GLU:543:CG:9876, V-B:LYS:547:CE:9919, V-B:VAL:457:C:9041, V-B:HIS:456:CG:9034, V-B:HIS:456:C:9029, V-A:GLU:543:C:4899, V-B:VAL:457:CA:9043, V-B:HIS:456:CB:9033, V-B:HIS:456:CA:9031, V-B:LYS:547:CD:9918, V-B:VAL:458:CG2:9055, H-A:LYS:547:NZ:4948, V-B:LYS:471:CE:9188, V-A:GLU:543:CA:4901, V-A:GLY:544:C:4909, V-A:ARG:545:CA:4916, H-B:GLY:544:O:9882, V-A:ARG:545:CB:4918"]

$$$$
1e_Grossjean_2025
     RDKit          3D

 38 39  0  0  0  0  0  0  0  0999 V2000
  123.7430  124.1990   60.3290 C   0  0  0  0  0  0  0  0  0  0  0  0
  124.9870  123.7520   59.5850 C   0  0  0  0  0  0  0  0  0  0  0  0
  125.2170  124.1230   58.2570 C   0  0  0  0  0  0  0  0  0  0  0  0
  126.3820  123.6720   57.6360 C   0  0  0  0  0  0  0  0  0  0  0  0
  127.2780  122.8710   58.3460 C   0  0  0  0  0  0  0  0  0  0  0  0
  126.9890  122.5410   59.6750 C   0  0  0  0  0  0  0  0  0  0  0  0
  127.9220  121.7210   60.3350 N   0  0  0  0  0  0  0  0  0  0  0  0
  129.1970  122.0070   60.6770 C   0  0  0  0  0  0  0  0  0  0  0  0
  129.7700  123.0730   60.4450 O   0  0  0  0  0  0  0  0  0  0  0  0
  129.9650  120.8850   61.3800 C   0  0  0  0  0  0  0  0  0  0  0  0
  130.5090  121.3720   63.0450 S   0  0  0  0  0  0  0  0  0  0  0  0
  131.7380  122.6530   62.8920 C   0  0  0  0  0  0  0  0  0  0  0  0
  131.4080  123.7970   63.5430 N   0  0  0  0  0  0  0  0  0  0  0  0
  132.2640  124.8450   63.4970 C   0  0  0  0  0  0  0  0  0  0  0  0
  131.8320  126.0850   64.2540 C   0  0  0  0  0  0  0  0  0  0  0  0
  133.4670  124.8010   62.7960 C   0  0  0  0  0  0  0  0  0  0  0  0
  133.8060  123.6360   62.1010 C   0  0  0  0  0  0  0  0  0  0  0  0
  135.1230  123.6200   61.3250 C   0  0  0  0  0  0  0  0  0  0  0  0
  132.9260  122.5300   62.1320 C   0  0  0  0  0  0  0  0  0  0  0  0
  133.2380  121.3240   61.3620 C   0  0  0  0  0  0  0  0  0  0  0  0
  133.4870  120.3720   60.7520 N   0  0  0  0  0  0  0  0  0  0  0  0
  125.8480  122.9750   60.2880 N   0  0  0  0  0  0  0  0  0  0  0  0
  123.9210  124.1350   61.4126 H   0  0  0  0  0  0  0  0  0  0  0  0
  123.5066  125.2383   60.0570 H   0  0  0  0  0  0  0  0  0  0  0  0
  122.8992  123.5478   60.0570 H   0  0  0  0  0  0  0  0  0  0  0  0
  124.4975  124.7546   57.7153 H   0  0  0  0  0  0  0  0  0  0  0  0
  126.5935  123.9463   56.5919 H   0  0  0  0  0  0  0  0  0  0  0  0
  128.1982  122.5043   57.8677 H   0  0  0  0  0  0  0  0  0  0  0  0
  127.6010  120.7830   60.5250 H   0  0  0  0  0  0  0  0  0  0  0  0
  129.3106  120.0048   61.4634 H   0  0  0  0  0  0  0  0  0  0  0  0
  130.8605  120.6597   60.7822 H   0  0  0  0  0  0  0  0  0  0  0  0
  131.8979  125.8958   65.3356 H   0  0  0  0  0  0  0  0  0  0  0  0
  132.4904  126.9250   63.9879 H   0  0  0  0  0  0  0  0  0  0  0  0
  130.7941  126.3341   63.9879 H   0  0  0  0  0  0  0  0  0  0  0  0
  134.1408  125.6705   62.7893 H   0  0  0  0  0  0  0  0  0  0  0  0
  135.9653  123.6098   62.0324 H   0  0  0  0  0  0  0  0  0  0  0  0
  135.1648  122.7213   60.6921 H   0  0  0  0  0  0  0  0  0  0  0  0
  135.1866  124.5174   60.6921 H   0  0  0  0  0  0  0  0  0  0  0  0
  1  2  1  0
  2  3  2  0
  3  4  1  0
  4  5  2  0
  5  6  1  0
  6  7  1  0
  7  8  1  0
  8  9  2  0
  8 10  1  0
 10 11  1  0
 11 12  1  0
 12 13  2  0
 13 14  1  0
 14 15  1  0
 14 16  2  0
 16 17  1  0
 17 18  1  0
 17 19  2  0
 19 20  1  0
 20 21  3  0
  6 22  2  0
 22  2  1  0
 19 12  1  0
  1 23  1  0
  1 24  1  0
  1 25  1  0
  3 26  1  0
  4 27  1  0
  5 28  1  0
  7 29  1  0
 10 30  1  0
 10 31  1  0
 15 32  1  0
 15 33  1  0
 15 34  1  0
 16 35  1  0
 18 36  1  0
 18 37  1  0
 18 38  1  0
M  END
>  <Binding energies>  (1) 
[-6.83]

>  <Ligand effiencies>  (1) 
[-0.29695652173913045]

>  <Interactions>  (1) 
["V-A:LEU:475:CD1:4254, V-A:ARG:545:CZ:4923, V-A:ILE:369:CG1:3234, V-A:ILE:369:CG2:3233, V-A:GLY:454:CA:4045, V-B:TYR:539:CE2:9845, H-B:ALA:541:N:9860, V-B:TYR:539:CD2:9843, V-B:ALA:541:CB:9861, V-A:ASP:366:CG:3209, V-B:TYR:539:C:9836, V-B:PRO:540:N:9853, V-A:GLY:453:C:4038, V-B:PRO:540:CB:9854, V-B:LEU:363:CA:8153, V-B:PRO:540:C:9850, V-B:PRO:540:CA:9852, V-A:GLY:453:CA:4040, V-B:ASN:362:C:8140, V-B:ASN:362:CB:8144, V-B:ALA:541:CA:9859, H-B:TYR:539:O:9837, H-B:PRO:540:O:9851"]

$$$$
1f_Grossjean_2025
     RDKit          3D

 35 36  0  0  0  0  0  0  0  0999 V2000
  129.1920  125.4980   65.5320 C   0  0  0  0  0  0  0  0  0  0  0  0
  129.4550  126.2080   66.8460 C   0  0  0  0  0  0  0  0  0  0  0  0
  130.5830  127.0030   67.0320 C   0  0  0  0  0  0  0  0  0  0  0  0
  130.7790  127.6230   68.2710 C   0  0  0  0  0  0  0  0  0  0  0  0
  132.0330  128.4750   68.4570 C   0  0  0  0  0  0  0  0  0  0  0  0
  129.8260  127.4360   69.2980 C   0  0  0  0  0  0  0  0  0  0  0  0
  130.0430  128.0320   70.6190 C   0  0  0  0  0  0  0  0  0  0  0  0
  130.2150  128.5030   71.6610 N   0  0  0  0  0  0  0  0  0  0  0  0
  128.6960  126.6350   69.0110 C   0  0  0  0  0  0  0  0  0  0  0  0
  127.3940  126.2860   70.1760 S   0  0  0  0  0  0  0  0  0  0  0  0
  128.1540  125.8750   71.7840 C   0  0  0  0  0  0  0  0  0  0  0  0
  127.9280  126.9160   72.8900 C   0  0  0  0  0  0  0  0  0  0  0  0
  128.8540  127.2560   73.6270 O   0  0  0  0  0  0  0  0  0  0  0  0
  126.6610  127.3740   72.9800 N   0  0  0  0  0  0  0  0  0  0  0  0
  126.1090  128.3240   73.8600 C   0  0  0  0  0  0  0  0  0  0  0  0
  126.7430  129.5020   74.2980 C   0  0  0  0  0  0  0  0  0  0  0  0
  126.0740  130.3620   75.1730 C   0  0  0  0  0  0  0  0  0  0  0  0
  124.7860  130.0250   75.5880 C   0  0  0  0  0  0  0  0  0  0  0  0
  124.1510  128.8990   75.1770 N   0  0  0  0  0  0  0  0  0  0  0  0
  124.8130  128.0730   74.3270 C   0  0  0  0  0  0  0  0  0  0  0  0
  128.5280  126.0180   67.8140 N   0  0  0  0  0  0  0  0  0  0  0  0
  128.8163  124.4837   65.7321 H   0  0  0  0  0  0  0  0  0  0  0  0
  128.4423  126.0596   64.9554 H   0  0  0  0  0  0  0  0  0  0  0  0
  130.1267  125.4357   64.9554 H   0  0  0  0  0  0  0  0  0  0  0  0
  131.3090  127.1415   66.2173 H   0  0  0  0  0  0  0  0  0  0  0  0
  132.2296  128.6086   69.5310 H   0  0  0  0  0  0  0  0  0  0  0  0
  132.8910  127.9721   67.9870 H   0  0  0  0  0  0  0  0  0  0  0  0
  131.8815  129.4579   67.9870 H   0  0  0  0  0  0  0  0  0  0  0  0
  127.7347  124.9170   72.1254 H   0  0  0  0  0  0  0  0  0  0  0  0
  129.2398  125.8380   71.6119 H   0  0  0  0  0  0  0  0  0  0  0  0
  125.9970  126.9720   72.3340 H   0  0  0  0  0  0  0  0  0  0  0  0
  127.7592  129.7442   73.9535 H   0  0  0  0  0  0  0  0  0  0  0  0
  126.5537  131.2863   75.5273 H   0  0  0  0  0  0  0  0  0  0  0  0
  124.2621  130.7019   76.2789 H   0  0  0  0  0  0  0  0  0  0  0  0
  124.3046  127.1586   73.9873 H   0  0  0  0  0  0  0  0  0  0  0  0
  1  2  1  0
  2  3  2  0
  3  4  1  0
  4  5  1  0
  4  6  2  0
  6  7  1  0
  7  8  3  0
  6  9  1  0
  9 10  1  0
 10 11  1  0
 11 12  1  0
 12 13  2  0
 12 14  1  0
 14 15  1  0
 15 16  2  0
 16 17  1  0
 17 18  2  0
 18 19  1  0
 19 20  2  0
  9 21  2  0
 21  2  1  0
 20 15  1  0
  1 22  1  0
  1 23  1  0
  1 24  1  0
  3 25  1  0
  5 26  1  0
  5 27  1  0
  5 28  1  0
 11 29  1  0
 11 30  1  0
 14 31  1  0
 16 32  1  0
 17 33  1  0
 18 34  1  0
 20 35  1  0
M  END
>  <Binding energies>  (1) 
[-6.77]

>  <Ligand effiencies>  (1) 
[-0.3077272727272727]

>  <Interactions>  (1) 
["V-B:GLU:543:CD:9877, V-A:ARG:545:CG:4919, V-A:HIS:456:CE1:4066, V-B:GLU:543:CB:9875, V-B:HIS:456:CE1:9038, V-B:GLY:544:C:9881, V-B:HIS:456:CD2:9036, V-A:GLU:543:CB:4903, V-B:GLU:543:CG:9876, V-B:LYS:547:CE:9919, V-B:HIS:456:CG:9034, V-B:HIS:456:C:9029, V-A:GLU:543:C:4899, V-B:HIS:456:CB:9033, V-B:HIS:456:CA:9031, V-B:LYS:547:CD:9918, V-B:VAL:458:CG2:9055, H-A:LYS:547:NZ:4948, V-B:LYS:471:CE:9188, V-A:GLU:543:CA:4901, V-A:GLY:544:C:4909, V-A:ARG:545:CA:4916, V-B:GLY:544:CA:9883, H-B:GLY:544:O:9882, H-B:VAL:457:N:9044, V-A:ARG:545:CB:4918"]

$$$$
1g_Grossjean_2025
     RDKit          3D

 39 40  0  0  0  0  0  0  0  0999 V2000
  129.7370  119.8820   61.3920 C   0  0  0  0  0  0  0  0  0  0  0  0
  130.6680  121.0020   61.8170 C   0  0  0  0  0  0  0  0  0  0  0  0
  131.9880  121.0600   61.3760 C   0  0  0  0  0  0  0  0  0  0  0  0
  132.8050  122.1080   61.8140 C   0  0  0  0  0  0  0  0  0  0  0  0
  134.2540  122.1430   61.3290 C   0  0  0  0  0  0  0  0  0  0  0  0
  132.2700  123.0850   62.6830 C   0  0  0  0  0  0  0  0  0  0  0  0
  133.1210  124.1620   63.1960 C   0  0  0  0  0  0  0  0  0  0  0  0
  133.7960  125.0110   63.6010 N   0  0  0  0  0  0  0  0  0  0  0  0
  130.9120  122.9610   63.0600 C   0  0  0  0  0  0  0  0  0  0  0  0
  130.0770  124.1040   64.1370 S   0  0  0  0  0  0  0  0  0  0  0  0
  129.2330  125.3210   63.0840 C   0  0  0  0  0  0  0  0  0  0  0  0
  128.9020  124.7520   61.7030 C   0  0  0  0  0  0  0  0  0  0  0  0
  129.5540  125.1050   60.7180 O   0  0  0  0  0  0  0  0  0  0  0  0
  127.8840  123.8770   61.6480 N   0  0  0  0  0  0  0  0  0  0  0  0
  127.4360  123.1700   60.4480 C   0  0  0  0  0  0  0  0  0  0  0  0
  126.0310  123.5440   59.9870 C   0  0  0  0  0  0  0  0  0  0  0  0
  124.9900  123.6300   60.9170 C   0  0  0  0  0  0  0  0  0  0  0  0
  123.7080  123.9710   60.4960 C   0  0  0  0  0  0  0  0  0  0  0  0
  123.4710  124.2310   59.1470 C   0  0  0  0  0  0  0  0  0  0  0  0
  124.5040  124.1520   58.2170 C   0  0  0  0  0  0  0  0  0  0  0  0
  125.7870  123.8090   58.6360 C   0  0  0  0  0  0  0  0  0  0  0  0
  130.1340  121.9280   62.6480 N   0  0  0  0  0  0  0  0  0  0  0  0
  129.3263  119.3879   62.2849 H   0  0  0  0  0  0  0  0  0  0  0  0
  128.9142  120.2972   60.7915 H   0  0  0  0  0  0  0  0  0  0  0  0
  130.2955  119.1489   60.7915 H   0  0  0  0  0  0  0  0  0  0  0  0
  132.3824  120.2930   60.6933 H   0  0  0  0  0  0  0  0  0  0  0  0
  134.9306  122.1593   62.1961 H   0  0  0  0  0  0  0  0  0  0  0  0
  134.4588  121.2495   60.7209 H   0  0  0  0  0  0  0  0  0  0  0  0
  134.4154  123.0453   60.7209 H   0  0  0  0  0  0  0  0  0  0  0  0
  128.2978  125.6278   63.5752 H   0  0  0  0  0  0  0  0  0  0  0  0
  129.9091  126.1775   62.9455 H   0  0  0  0  0  0  0  0  0  0  0  0
  127.4170  123.6280   62.5090 H   0  0  0  0  0  0  0  0  0  0  0  0
  128.1381  123.3969   59.6322 H   0  0  0  0  0  0  0  0  0  0  0  0
  127.4093  122.1005   60.7040 H   0  0  0  0  0  0  0  0  0  0  0  0
  125.1844  123.4282   61.9807 H   0  0  0  0  0  0  0  0  0  0  0  0
  122.8859  124.0350   61.2240 H   0  0  0  0  0  0  0  0  0  0  0  0
  122.4580  124.5012   58.8142 H   0  0  0  0  0  0  0  0  0  0  0  0
  124.3074  124.3598   57.1548 H   0  0  0  0  0  0  0  0  0  0  0  0
  126.6070  123.7467   57.9054 H   0  0  0  0  0  0  0  0  0  0  0  0
  1  2  1  0
  2  3  2  0
  3  4  1  0
  4  5  1  0
  4  6  2  0
  6  7  1  0
  7  8  3  0
  6  9  1  0
  9 10  1  0
 10 11  1  0
 11 12  1  0
 12 13  2  0
 12 14  1  0
 14 15  1  0
 15 16  1  0
 16 17  2  0
 17 18  1  0
 18 19  2  0
 19 20  1  0
 20 21  2  0
  9 22  2  0
 22  2  1  0
 21 16  1  0
  1 23  1  0
  1 24  1  0
  1 25  1  0
  3 26  1  0
  5 27  1  0
  5 28  1  0
  5 29  1  0
 11 30  1  0
 11 31  1  0
 14 32  1  0
 15 33  1  0
 15 34  1  0
 17 35  1  0
 18 36  1  0
 19 37  1  0
 20 38  1  0
 21 39  1  0
M  END
>  <Binding energies>  (1) 
[-6.79]

>  <Ligand effiencies>  (1) 
[-0.2952173913043478]

>  <Interactions>  (1) 
["V-A:LEU:475:CD1:4254, V-B:GLU:543:CD:9877, V-A:ILE:369:CB:3232, H-A:ARG:545:NH2:4925, H-A:ARG:545:NH1:4924, H-A:GLY:454:N:4046, V-A:ILE:369:CG1:3234, V-A:ILE:369:CG2:3233, V-A:GLY:454:CA:4045, V-B:TYR:539:CE2:9845, V-B:GLU:543:CG:9876, V-B:TYR:539:CD2:9843, V-B:ALA:541:CB:9861, V-B:LEU:363:CD1:8157, V-B:PRO:540:CB:9854, V-B:LEU:363:CA:8153, V-B:PRO:540:CA:9852, V-B:LEU:363:CB:8155, V-B:ASN:362:C:8140, V-B:ASN:362:CB:8144, H-B:GLU:543:OE2:9879, V-A:PRO:482:CG:4323"]

$$$$
1h_Grossjean_2025
     RDKit          3D

 51 52  0  0  0  0  0  0  0  0999 V2000
  129.7300  122.6220   71.8250 C   0  0  0  0  0  0  0  0  0  0  0  0
  129.6480  123.7990   72.6190 O   0  0  0  0  0  0  0  0  0  0  0  0
  129.3850  125.0120   72.0090 C   0  0  0  0  0  0  0  0  0  0  0  0
  129.0110  125.1470   70.6630 C   0  0  0  0  0  0  0  0  0  0  0  0
  128.7740  126.4060   70.1090 C   0  0  0  0  0  0  0  0  0  0  0  0
  128.3450  126.5380   68.6510 C   0  0  0  0  0  0  0  0  0  0  0  0
  129.3100  125.9930   67.6960 N   0  0  0  0  0  0  0  0  0  0  0  0
  129.5650  126.4970   66.4750 C   0  0  0  0  0  0  0  0  0  0  0  0
  129.0230  127.5070   66.0270 O   0  0  0  0  0  0  0  0  0  0  0  0
  130.5860  125.7410   65.6250 C   0  0  0  0  0  0  0  0  0  0  0  0
  130.1320  123.9920   65.4120 S   0  0  0  0  0  0  0  0  0  0  0  0
  130.7600  123.4460   63.8320 C   0  0  0  0  0  0  0  0  0  0  0  0
  129.8540  122.8560   63.0090 N   0  0  0  0  0  0  0  0  0  0  0  0
  130.2620  122.4220   61.7940 C   0  0  0  0  0  0  0  0  0  0  0  0
  129.1930  121.7780   60.9320 C   0  0  0  0  0  0  0  0  0  0  0  0
  131.5760  122.5540   61.3510 C   0  0  0  0  0  0  0  0  0  0  0  0
  132.5190  123.1580   62.1890 C   0  0  0  0  0  0  0  0  0  0  0  0
  133.9530  123.2950   61.6830 C   0  0  0  0  0  0  0  0  0  0  0  0
  132.1140  123.6190   63.4630 C   0  0  0  0  0  0  0  0  0  0  0  0
  133.0810  124.2540   64.3630 C   0  0  0  0  0  0  0  0  0  0  0  0
  133.8450  124.7550   65.0740 N   0  0  0  0  0  0  0  0  0  0  0  0
  128.8750  127.5420   70.9140 C   0  0  0  0  0  0  0  0  0  0  0  0
  129.2420  127.4360   72.2650 C   0  0  0  0  0  0  0  0  0  0  0  0
  129.3640  128.5170   73.1190 O   0  0  0  0  0  0  0  0  0  0  0  0
  129.4230  129.8330   72.5780 C   0  0  0  0  0  0  0  0  0  0  0  0
  129.5050  126.1660   72.7970 C   0  0  0  0  0  0  0  0  0  0  0  0
  129.8600  126.0460   74.1190 O   0  0  0  0  0  0  0  0  0  0  0  0
  131.1180  125.4190   74.3260 C   0  0  0  0  0  0  0  0  0  0  0  0
  129.7914  121.7409   72.4807 H   0  0  0  0  0  0  0  0  0  0  0  0
  128.8350  122.5449   71.1901 H   0  0  0  0  0  0  0  0  0  0  0  0
  130.6270  122.6698   71.1901 H   0  0  0  0  0  0  0  0  0  0  0  0
  128.9033  124.2492   70.0367 H   0  0  0  0  0  0  0  0  0  0  0  0
  127.3913  126.0055   68.5213 H   0  0  0  0  0  0  0  0  0  0  0  0
  128.2608  127.6142   68.4398 H   0  0  0  0  0  0  0  0  0  0  0  0
  129.7910  125.1520   67.9800 H   0  0  0  0  0  0  0  0  0  0  0  0
  130.6451  126.2159   64.6346 H   0  0  0  0  0  0  0  0  0  0  0  0
  131.5556  125.7802   66.1429 H   0  0  0  0  0  0  0  0  0  0  0  0
  128.4297  121.3182   61.5769 H   0  0  0  0  0  0  0  0  0  0  0  0
  128.7235  122.5437   60.2970 H   0  0  0  0  0  0  0  0  0  0  0  0
  129.6505  121.0051   60.2970 H   0  0  0  0  0  0  0  0  0  0  0  0
  131.8681  122.1882   60.3556 H   0  0  0  0  0  0  0  0  0  0  0  0
  134.6395  123.3606   62.5400 H   0  0  0  0  0  0  0  0  0  0  0  0
  134.2117  122.4175   61.0722 H   0  0  0  0  0  0  0  0  0  0  0  0
  134.0409  124.2056   61.0722 H   0  0  0  0  0  0  0  0  0  0  0  0
  128.6644  128.5325   70.4845 H   0  0  0  0  0  0  0  0  0  0  0  0
  129.4558  130.5654   73.3980 H   0  0  0  0  0  0  0  0  0  0  0  0
  130.3266  129.9348   71.9590 H   0  0  0  0  0  0  0  0  0  0  0  0
  128.5321  130.0153   71.9590 H   0  0  0  0  0  0  0  0  0  0  0  0
  131.3074  125.3246   75.4054 H   0  0  0  0  0  0  0  0  0  0  0  0
  131.1096  124.4196   73.8664 H   0  0  0  0  0  0  0  0  0  0  0  0
  131.9109  126.0273   73.8664 H   0  0  0  0  0  0  0  0  0  0  0  0
  1  2  1  0
  2  3  1  0
  3  4  2  0
  4  5  1  0
  5  6  1  0
  6  7  1  0
  7  8  1  0
  8  9  2  0
  8 10  1  0
 10 11  1  0
 11 12  1  0
 12 13  2  0
 13 14  1  0
 14 15  1  0
 14 16  2  0
 16 17  1  0
 17 18  1  0
 17 19  2  0
 19 20  1  0
 20 21  3  0
  5 22  2  0
 22 23  1  0
 23 24  1  0
 24 25  1  0
 23 26  2  0
 26 27  1  0
 27 28  1  0
 26  3  1  0
 19 12  1  0
  1 29  1  0
  1 30  1  0
  1 31  1  0
  4 32  1  0
  6 33  1  0
  6 34  1  0
  7 35  1  0
 10 36  1  0
 10 37  1  0
 15 38  1  0
 15 39  1  0
 15 40  1  0
 16 41  1  0
 18 42  1  0
 18 43  1  0
 18 44  1  0
 22 45  1  0
 25 46  1  0
 25 47  1  0
 25 48  1  0
 28 49  1  0
 28 50  1  0
 28 51  1  0
M  END
>  <Binding energies>  (1) 
[-7.12]

>  <Ligand effiencies>  (1) 
[-0.24551724137931036]

>  <Interactions>  (1) 
["H-A:GLY:454:N:4046, V-A:GLY:454:CA:4045, V-B:TYR:539:CE2:9845, V-A:HIS:456:CE1:4066, V-B:GLU:543:C:9871, V-B:GLU:543:CB:9875, V-B:HIS:456:CE1:9038, V-A:HIS:456:CD2:4064, V-B:HIS:456:CD2:9036, V-B:TYR:539:CD2:9843, V-B:ALA:541:CB:9861, H-A:TYR:484:OH:4344, V-B:LYS:547:CE:9919, H-A:HIS:456:NE2:4067, V-A:LYS:547:CE:4947, H-B:GLU:543:O:9872, H-A:LYS:547:NZ:4948, H-B:LYS:547:NZ:9920, V-A:TYR:484:CD2:4340, V-A:TYR:484:CD1:4339, V-A:TYR:484:CG:4338, V-A:TYR:484:CB:4337"]

$$$$
1i_Grossjean_2025
     RDKit          3D

 32 33  0  0  0  0  0  0  0  0999 V2000
  129.0210  126.3090   66.2420 C   0  0  0  0  0  0  0  0  0  0  0  0
  130.1590  125.8030   65.3750 C   0  0  0  0  0  0  0  0  0  0  0  0
  131.4610  125.7100   65.8610 C   0  0  0  0  0  0  0  0  0  0  0  0
  132.4680  125.2260   65.0190 C   0  0  0  0  0  0  0  0  0  0  0  0
  133.8850  125.1170   65.5800 C   0  0  0  0  0  0  0  0  0  0  0  0
  132.1410  124.8520   63.6950 C   0  0  0  0  0  0  0  0  0  0  0  0
  133.1710  124.2960   62.8120 C   0  0  0  0  0  0  0  0  0  0  0  0
  133.9850  123.8560   62.1170 N   0  0  0  0  0  0  0  0  0  0  0  0
  130.7980  125.0040   63.2790 C   0  0  0  0  0  0  0  0  0  0  0  0
  130.2130  124.5840   61.6520 S   0  0  0  0  0  0  0  0  0  0  0  0
  129.6920  122.8420   61.6870 C   0  0  0  0  0  0  0  0  0  0  0  0
  128.3540  122.6270   60.9760 C   0  0  0  0  0  0  0  0  0  0  0  0
  128.2920  121.8360   60.0340 O   0  0  0  0  0  0  0  0  0  0  0  0
  127.3160  123.3440   61.4590 N   0  0  0  0  0  0  0  0  0  0  0  0
  126.0070  123.3410   61.0000 C   0  0  0  0  0  0  0  0  0  0  0  0
  125.6360  123.8480   59.7560 C   0  0  0  0  0  0  0  0  0  0  0  0
  124.2750  123.6610   59.6840 C   0  0  0  0  0  0  0  0  0  0  0  0
  123.8470  123.0740   60.8270 O   0  0  0  0  0  0  0  0  0  0  0  0
  124.9540  122.8780   61.6550 N   0  0  0  0  0  0  0  0  0  0  0  0
  129.8240  125.4540   64.1100 N   0  0  0  0  0  0  0  0  0  0  0  0
  129.2875  126.1905   67.3026 H   0  0  0  0  0  0  0  0  0  0  0  0
  128.8402  127.3723   66.0259 H   0  0  0  0  0  0  0  0  0  0  0  0
  128.1104  125.7310   66.0259 H   0  0  0  0  0  0  0  0  0  0  0  0
  131.6942  126.0129   66.8924 H   0  0  0  0  0  0  0  0  0  0  0  0
  133.8454  125.1200   66.6793 H   0  0  0  0  0  0  0  0  0  0  0  0
  134.3460  124.1807   65.2323 H   0  0  0  0  0  0  0  0  0  0  0  0
  134.4838  125.9717   65.2323 H   0  0  0  0  0  0  0  0  0  0  0  0
  130.4602  122.2319   61.1893 H   0  0  0  0  0  0  0  0  0  0  0  0
  129.5678  122.5466   62.7393 H   0  0  0  0  0  0  0  0  0  0  0  0
  127.5070  123.9810   62.2190 H   0  0  0  0  0  0  0  0  0  0  0  0
  126.2901  124.3000   58.9959 H   0  0  0  0  0  0  0  0  0  0  0  0
  123.6364  123.9431   58.8339 H   0  0  0  0  0  0  0  0  0  0  0  0
  1  2  1  0
  2  3  2  0
  3  4  1  0
  4  5  1  0
  4  6  2  0
  6  7  1  0
  7  8  3  0
  6  9  1  0
  9 10  1  0
 10 11  1  0
 11 12  1  0
 12 13  2  0
 12 14  1  0
 14 15  1  0
 15 16  1  0
 16 17  2  0
 17 18  1  0
 18 19  1  0
  9 20  2  0
 20  2  1  0
 19 15  2  0
  1 21  1  0
  1 22  1  0
  1 23  1  0
  3 24  1  0
  5 25  1  0
  5 26  1  0
  5 27  1  0
 11 28  1  0
 11 29  1  0
 14 30  1  0
 16 31  1  0
 17 32  1  0
M  END
>  <Binding energies>  (1) 
[-6.67]

>  <Ligand effiencies>  (1) 
[-0.31761904761904763]

>  <Interactions>  (1) 
["V-B:GLU:543:CD:9877, V-A:ARG:545:CZ:4923, H-A:GLY:454:N:4046, V-A:ARG:545:CG:4919, V-A:GLY:454:CA:4045, V-A:HIS:456:CE1:4066, V-B:GLU:543:CB:9875, V-B:GLU:543:CG:9876, H-B:ALA:541:N:9860, V-B:ALA:541:CB:9861, V-A:ARG:545:CD:4920, V-B:PRO:540:CB:9854, V-B:PRO:540:C:9850, V-B:PRO:540:CA:9852, H-B:GLU:543:OE2:9879, H-B:LEU:363:N:8154"]

$$$$
1j_Grossjean_2025
     RDKit          3D

 32 33  0  0  0  0  0  0  0  0999 V2000
  128.2460  132.2130   74.5000 C   0  0  0  0  0  0  0  0  0  0  0  0
  127.2380  131.0820   74.5950 C   0  0  0  0  0  0  0  0  0  0  0  0
  126.0090  131.2520   75.2280 C   0  0  0  0  0  0  0  0  0  0  0  0
  125.1140  130.1790   75.2730 C   0  0  0  0  0  0  0  0  0  0  0  0
  123.7650  130.3950   75.9580 C   0  0  0  0  0  0  0  0  0  0  0  0
  125.4810  128.9480   74.6840 C   0  0  0  0  0  0  0  0  0  0  0  0
  124.5380  127.8260   74.6740 C   0  0  0  0  0  0  0  0  0  0  0  0
  123.7910  126.9430   74.6670 N   0  0  0  0  0  0  0  0  0  0  0  0
  126.7600  128.8570   74.0860 C   0  0  0  0  0  0  0  0  0  0  0  0
  127.3860  127.3870   73.3020 S   0  0  0  0  0  0  0  0  0  0  0  0
  128.9080  127.8380   72.4180 C   0  0  0  0  0  0  0  0  0  0  0  0
  128.9610  127.2250   71.0170 C   0  0  0  0  0  0  0  0  0  0  0  0
  128.4870  126.1040   70.8300 O   0  0  0  0  0  0  0  0  0  0  0  0
  129.5410  127.9910   70.0670 N   0  0  0  0  0  0  0  0  0  0  0  0
  129.7170  127.6620   68.7310 C   0  0  0  0  0  0  0  0  0  0  0  0
  130.7950  127.8280   67.9940 N   0  0  0  0  0  0  0  0  0  0  0  0
  130.6080  127.4000   66.7610 C   0  0  0  0  0  0  0  0  0  0  0  0
  129.3530  126.8690   66.4770 C   0  0  0  0  0  0  0  0  0  0  0  0
  128.3720  126.9390   67.9100 S   0  0  0  0  0  0  0  0  0  0  0  0
  127.6120  129.9110   74.0280 N   0  0  0  0  0  0  0  0  0  0  0  0
  128.5327  132.5346   75.5121 H   0  0  0  0  0  0  0  0  0  0  0  0
  129.1384  131.8644   73.9595 H   0  0  0  0  0  0  0  0  0  0  0  0
  127.7974  133.0595   73.9595 H   0  0  0  0  0  0  0  0  0  0  0  0
  125.7463  132.2170   75.6861 H   0  0  0  0  0  0  0  0  0  0  0  0
  123.9003  130.3733   77.0494 H   0  0  0  0  0  0  0  0  0  0  0  0
  123.3539  131.3704   75.6588 H   0  0  0  0  0  0  0  0  0  0  0  0
  123.0699  129.5967   75.6588 H   0  0  0  0  0  0  0  0  0  0  0  0
  128.9551  128.9333   72.3283 H   0  0  0  0  0  0  0  0  0  0  0  0
  129.7619  127.4483   72.9916 H   0  0  0  0  0  0  0  0  0  0  0  0
  129.9160  128.8850   70.3520 H   0  0  0  0  0  0  0  0  0  0  0  0
  131.3995  127.4592   65.9994 H   0  0  0  0  0  0  0  0  0  0  0  0
  129.0337  126.4696   65.5031 H   0  0  0  0  0  0  0  0  0  0  0  0
  1  2  1  0
  2  3  2  0
  3  4  1  0
  4  5  1  0
  4  6  2  0
  6  7  1  0
  7  8  3  0
  6  9  1  0
  9 10  1  0
 10 11  1  0
 11 12  1  0
 12 13  2  0
 12 14  1  0
 14 15  1  0
 15 16  2  0
 16 17  1  0
 17 18  2  0
 18 19  1  0
  9 20  2  0
 20  2  1  0
 19 15  1  0
  1 21  1  0
  1 22  1  0
  1 23  1  0
  3 24  1  0
  5 25  1  0
  5 26  1  0
  5 27  1  0
 11 28  1  0
 11 29  1  0
 14 30  1  0
 17 31  1  0
 18 32  1  0
M  END
>  <Binding energies>  (1) 
[-6.36]

>  <Ligand effiencies>  (1) 
[-0.3028571428571429]

>  <Interactions>  (1) 
["V-A:HIS:456:CE1:4066, V-A:GLU:543:CD:4905, H-B:HIS:456:NE2:9039, V-B:GLU:543:CB:9875, V-B:HIS:456:CE1:9038, V-B:HIS:456:CD2:9036, H-A:GLU:543:O:4900, V-A:GLU:543:CB:4903, V-B:VAL:457:C:9041, V-B:ASP:473:CG:9208, V-B:ASP:473:CB:9207, V-B:HIS:456:CG:9034, V-B:HIS:456:C:9029, V-B:VAL:457:CA:9043, V-B:HIS:456:CB:9033, V-B:LYS:547:CD:9918, V-B:VAL:458:CG2:9055, V-B:LYS:471:CE:9188, V-B:LYS:471:CB:9185, H-B:VAL:457:N:9044, V-B:LYS:471:C:9181, H-B:LYS:547:N:9915"]

$$$$
1k_Grossjean_2025
     RDKit          3D

 50 50  0  0  0  0  0  0  0  0999 V2000
  130.4730  122.4970   72.6190 C   0  0  0  0  0  0  0  0  0  0  0  0
  129.5570  123.5800   72.6080 O   0  0  0  0  0  0  0  0  0  0  0  0
  130.1370  124.8160   73.0060 C   0  0  0  0  0  0  0  0  0  0  0  0
  129.0830  125.9280   72.9160 C   0  0  0  0  0  0  0  0  0  0  0  0
  129.7290  127.1720   72.6750 O   0  0  0  0  0  0  0  0  0  0  0  0
  129.1320  127.9330   71.6330 C   0  0  0  0  0  0  0  0  0  0  0  0
  128.3110  127.0030   70.7300 C   0  0  0  0  0  0  0  0  0  0  0  0
  129.0810  126.6520   69.5870 O   0  0  0  0  0  0  0  0  0  0  0  0
  129.1150  127.6630   68.5880 C   0  0  0  0  0  0  0  0  0  0  0  0
  130.5770  128.0470   68.2910 C   0  0  0  0  0  0  0  0  0  0  0  0
  131.0590  127.5910   66.9870 N   0  0  0  0  0  0  0  0  0  0  0  0
  130.7470  126.4160   66.4130 C   0  0  0  0  0  0  0  0  0  0  0  0
  130.0010  125.5870   66.9380 O   0  0  0  0  0  0  0  0  0  0  0  0
  131.3900  126.1570   65.0410 C   0  0  0  0  0  0  0  0  0  0  0  0
  132.8600  125.0720   65.0490 S   0  0  0  0  0  0  0  0  0  0  0  0
  132.8230  124.0240   63.6020 C   0  0  0  0  0  0  0  0  0  0  0  0
  133.8680  124.1610   62.7440 N   0  0  0  0  0  0  0  0  0  0  0  0
  133.8970  123.4040   61.6230 C   0  0  0  0  0  0  0  0  0  0  0  0
  135.0900  123.6210   60.7130 C   0  0  0  0  0  0  0  0  0  0  0  0
  132.9010  122.4800   61.3140 C   0  0  0  0  0  0  0  0  0  0  0  0
  131.8240  122.3240   62.1920 C   0  0  0  0  0  0  0  0  0  0  0  0
  130.7430  121.3060   61.8350 C   0  0  0  0  0  0  0  0  0  0  0  0
  131.7720  123.1080   63.3660 C   0  0  0  0  0  0  0  0  0  0  0  0
  130.6530  122.9680   64.3030 C   0  0  0  0  0  0  0  0  0  0  0  0
  129.7690  122.8570   65.0420 N   0  0  0  0  0  0  0  0  0  0  0  0
  130.7046  122.2232   73.6589 H   0  0  0  0  0  0  0  0  0  0  0  0
  130.0266  121.6340   72.1033 H   0  0  0  0  0  0  0  0  0  0  0  0
  131.3981  122.7940   72.1033 H   0  0  0  0  0  0  0  0  0  0  0  0
  130.4973  124.7352   74.0422 H   0  0  0  0  0  0  0  0  0  0  0  0
  130.9807  125.0558   72.3422 H   0  0  0  0  0  0  0  0  0  0  0  0
  128.3882  125.7094   72.0917 H   0  0  0  0  0  0  0  0  0  0  0  0
  128.5232  125.9814   73.8614 H   0  0  0  0  0  0  0  0  0  0  0  0
  128.4725  128.6980   72.0686 H   0  0  0  0  0  0  0  0  0  0  0  0
  129.9175  128.4231   71.0390 H   0  0  0  0  0  0  0  0  0  0  0  0
  128.0448  126.0924   71.2867 H   0  0  0  0  0  0  0  0  0  0  0  0
  127.3933  127.5183   70.4101 H   0  0  0  0  0  0  0  0  0  0  0  0
  128.6417  127.2860   67.6694 H   0  0  0  0  0  0  0  0  0  0  0  0
  128.5701  128.5489   68.9461 H   0  0  0  0  0  0  0  0  0  0  0  0
  130.6608  129.1432   68.3267 H   0  0  0  0  0  0  0  0  0  0  0  0
  131.1973  127.5497   69.0512 H   0  0  0  0  0  0  0  0  0  0  0  0
  131.6790  128.2190   66.4960 H   0  0  0  0  0  0  0  0  0  0  0  0
  130.6309  125.6934   64.3938 H   0  0  0  0  0  0  0  0  0  0  0  0
  131.7414  127.1364   64.6841 H   0  0  0  0  0  0  0  0  0  0  0  0
  135.9910  123.7849   61.3224 H   0  0  0  0  0  0  0  0  0  0  0  0
  135.2330  122.7341   60.0782 H   0  0  0  0  0  0  0  0  0  0  0  0
  134.9116  124.5014   60.0782 H   0  0  0  0  0  0  0  0  0  0  0  0
  132.9611  121.8819   60.3927 H   0  0  0  0  0  0  0  0  0  0  0  0
  130.3070  120.8954   62.7576 H   0  0  0  0  0  0  0  0  0  0  0  0
  129.9560  121.7985   61.2451 H   0  0  0  0  0  0  0  0  0  0  0  0
  131.1875  120.4908   61.2451 H   0  0  0  0  0  0  0  0  0  0  0  0
  1  2  1  0
  2  3  1  0
  3  4  1  0
  4  5  1  0
  5  6  1  0
  6  7  1  0
  7  8  1  0
  8  9  1  0
  9 10  1  0
 10 11  1  0
 11 12  1  0
 12 13  2  0
 12 14  1  0
 14 15  1  0
 15 16  1  0
 16 17  2  0
 17 18  1  0
 18 19  1  0
 18 20  2  0
 20 21  1  0
 21 22  1  0
 21 23  2  0
 23 24  1  0
 24 25  3  0
 23 16  1  0
  1 26  1  0
  1 27  1  0
  1 28  1  0
  3 29  1  0
  3 30  1  0
  4 31  1  0
  4 32  1  0
  6 33  1  0
  6 34  1  0
  7 35  1  0
  7 36  1  0
  9 37  1  0
  9 38  1  0
 10 39  1  0
 10 40  1  0
 11 41  1  0
 14 42  1  0
 14 43  1  0
 19 44  1  0
 19 45  1  0
 19 46  1  0
 20 47  1  0
 22 48  1  0
 22 49  1  0
 22 50  1  0
M  END
>  <Binding energies>  (1) 
[-6.53]

>  <Ligand effiencies>  (1) 
[-0.25115384615384617]

>  <Interactions>  (1) 
["V-A:LEU:475:CD1:4254, H-A:GLU:543:OE1:4906, V-A:ILE:369:CB:3232, H-A:GLY:454:N:4046, V-A:ARG:545:CG:4919, V-A:ILE:369:CG1:3234, V-A:GLY:454:CA:4045, V-B:TYR:539:CE2:9845, V-A:HIS:456:CE1:4066, V-A:GLU:543:CD:4905, V-A:TYR:484:CZ:4343, V-B:HIS:456:CE1:9038, V-A:TYR:484:CE1:4341, V-A:HIS:456:CD2:4064, V-B:HIS:456:CD2:9036, V-A:GLU:543:CB:4903, V-B:TYR:539:CD2:9843, V-B:ALA:541:CB:9861, V-A:ASP:366:CG:3209, H-A:TYR:484:OH:4344, V-B:LYS:547:CE:9919, V-A:GLU:543:C:4899, H-A:LYS:547:NZ:4948, H-B:LYS:547:NZ:9920, V-A:GLY:453:CA:4040, V-A:ASP:366:CA:3206, V-A:TYR:484:CD2:4340, V-A:TYR:484:CG:4338"]

$$$$
1l_Grossjean_2025
     RDKit          3D

 30 30  0  0  0  0  0  0  0  0999 V2000
  124.1860  123.9300   60.9880 C   0  0  0  0  0  0  0  0  0  0  0  0
  125.1470  122.8840   61.0080 O   0  0  0  0  0  0  0  0  0  0  0  0
  126.4330  123.4210   61.0370 N   0  0  0  0  0  0  0  0  0  0  0  0
  127.3750  122.9050   60.2240 C   0  0  0  0  0  0  0  0  0  0  0  0
  127.1260  122.1380   59.2900 O   0  0  0  0  0  0  0  0  0  0  0  0
  128.8130  123.3510   60.5270 C   0  0  0  0  0  0  0  0  0  0  0  0
  129.7900  122.1810   61.5300 S   0  0  0  0  0  0  0  0  0  0  0  0
  131.3330  122.9680   61.9570 C   0  0  0  0  0  0  0  0  0  0  0  0
  132.2660  123.0120   60.9700 N   0  0  0  0  0  0  0  0  0  0  0  0
  133.4610  123.5950   61.2270 C   0  0  0  0  0  0  0  0  0  0  0  0
  134.4500  123.6050   60.0760 C   0  0  0  0  0  0  0  0  0  0  0  0
  133.7750  124.1550   62.4630 C   0  0  0  0  0  0  0  0  0  0  0  0
  132.8220  124.1170   63.4860 C   0  0  0  0  0  0  0  0  0  0  0  0
  133.1870  124.7370   64.8340 C   0  0  0  0  0  0  0  0  0  0  0  0
  131.5690  123.5130   63.2410 C   0  0  0  0  0  0  0  0  0  0  0  0
  130.5510  123.4590   64.2950 C   0  0  0  0  0  0  0  0  0  0  0  0
  129.7500  123.4180   65.1280 N   0  0  0  0  0  0  0  0  0  0  0  0
  123.9281  124.2107   62.0198 H   0  0  0  0  0  0  0  0  0  0  0  0
  124.6043  124.8023   60.4643 H   0  0  0  0  0  0  0  0  0  0  0  0
  123.2815  123.5870   60.4643 H   0  0  0  0  0  0  0  0  0  0  0  0
  126.6370  123.8760   61.9160 H   0  0  0  0  0  0  0  0  0  0  0  0
  129.3338  123.4965   59.5691 H   0  0  0  0  0  0  0  0  0  0  0  0
  128.7294  124.2712   61.1238 H   0  0  0  0  0  0  0  0  0  0  0  0
  135.4755  123.6154   60.4738 H   0  0  0  0  0  0  0  0  0  0  0  0
  134.3048  122.7053   59.4599 H   0  0  0  0  0  0  0  0  0  0  0  0
  134.2866  124.5015   59.4599 H   0  0  0  0  0  0  0  0  0  0  0  0
  134.7574  124.6200   62.6320 H   0  0  0  0  0  0  0  0  0  0  0  0
  132.8104  124.0973   65.6458 H   0  0  0  0  0  0  0  0  0  0  0  0
  134.2807  124.8244   64.9133 H   0  0  0  0  0  0  0  0  0  0  0  0
  132.7327  125.7357   64.9133 H   0  0  0  0  0  0  0  0  0  0  0  0
  1  2  1  0
  2  3  1  0
  3  4  1  0
  4  5  2  0
  4  6  1  0
  6  7  1  0
  7  8  1  0
  8  9  2  0
  9 10  1  0
 10 11  1  0
 10 12  2  0
 12 13  1  0
 13 14  1  0
 13 15  2  0
 15 16  1  0
 16 17  3  0
 15  8  1  0
  1 18  1  0
  1 19  1  0
  1 20  1  0
  3 21  1  0
  6 22  1  0
  6 23  1  0
 11 24  1  0
 11 25  1  0
 11 26  1  0
 12 27  1  0
 14 28  1  0
 14 29  1  0
 14 30  1  0
M  END
>  <Binding energies>  (1) 
[-5.85]

>  <Ligand effiencies>  (1) 
[-0.32499999999999996]

>  <Interactions>  (1) 
["V-B:GLU:543:CD:9877, V-A:ARG:545:CZ:4923, V-A:ILE:369:CB:3232, V-A:ILE:369:CG1:3234, V-A:ILE:369:CG2:3233, V-A:GLY:454:CA:4045, H-B:ALA:541:N:9860, V-B:ALA:541:CB:9861, V-A:ASP:366:CG:3209, V-A:ASP:366:CB:3208, H-A:TYR:484:OH:4344, V-A:GLY:453:C:4038, V-B:PRO:540:CB:9854, V-B:PRO:540:CA:9852, V-A:GLY:453:CA:4040, V-B:ASN:362:C:8140, V-B:ASN:362:CB:8144, V-A:ASP:366:CA:3206, H-B:TYR:539:OH:9847, H-B:GLU:543:OE2:9879"]

$$$$
1m_Grossjean_2025
     RDKit          3D

 35 35  0  0  0  0  0  0  0  0999 V2000
  123.5600  125.0120   59.5500 C   0  0  0  0  0  0  0  0  0  0  0  0
  123.4840  123.7930   60.2760 O   0  0  0  0  0  0  0  0  0  0  0  0
  124.5360  123.3590   60.9990 C   0  0  0  0  0  0  0  0  0  0  0  0
  124.4770  122.8800   62.1360 O   0  0  0  0  0  0  0  0  0  0  0  0
  125.8610  123.5220   60.2250 C   0  0  0  0  0  0  0  0  0  0  0  0
  127.0420  123.4690   61.0990 N   0  0  0  0  0  0  0  0  0  0  0  0
  128.2020  122.8470   60.8150 C   0  0  0  0  0  0  0  0  0  0  0  0
  128.3920  122.2250   59.7680 O   0  0  0  0  0  0  0  0  0  0  0  0
  129.2890  122.9510   61.8930 C   0  0  0  0  0  0  0  0  0  0  0  0
  130.4260  124.3650   61.6950 S   0  0  0  0  0  0  0  0  0  0  0  0
  130.9990  124.8410   63.3120 C   0  0  0  0  0  0  0  0  0  0  0  0
  130.0160  125.3180   64.1180 N   0  0  0  0  0  0  0  0  0  0  0  0
  130.3340  125.7050   65.3740 C   0  0  0  0  0  0  0  0  0  0  0  0
  129.1810  126.2080   66.2210 C   0  0  0  0  0  0  0  0  0  0  0  0
  131.6340  125.6460   65.8730 C   0  0  0  0  0  0  0  0  0  0  0  0
  132.6600  125.1810   65.0430 C   0  0  0  0  0  0  0  0  0  0  0  0
  134.0790  125.1390   65.6060 C   0  0  0  0  0  0  0  0  0  0  0  0
  132.3520  124.7710   63.7260 C   0  0  0  0  0  0  0  0  0  0  0  0
  133.4180  124.3280   62.8240 C   0  0  0  0  0  0  0  0  0  0  0  0
  134.2600  123.9780   62.1130 N   0  0  0  0  0  0  0  0  0  0  0  0
  123.6126  125.8555   60.2541 H   0  0  0  0  0  0  0  0  0  0  0  0
  124.4595  125.0062   58.9169 H   0  0  0  0  0  0  0  0  0  0  0  0
  122.6667  125.1180   58.9169 H   0  0  0  0  0  0  0  0  0  0  0  0
  125.9363  122.7134   59.4831 H   0  0  0  0  0  0  0  0  0  0  0  0
  125.8461  124.5133   59.7484 H   0  0  0  0  0  0  0  0  0  0  0  0
  126.9540  123.9350   61.9910 H   0  0  0  0  0  0  0  0  0  0  0  0
  128.7940  123.0436   62.8710 H   0  0  0  0  0  0  0  0  0  0  0  0
  129.9035  122.0431   61.8034 H   0  0  0  0  0  0  0  0  0  0  0  0
  129.4331  126.0980   67.2860 H   0  0  0  0  0  0  0  0  0  0  0  0
  128.9959  127.2686   65.9957 H   0  0  0  0  0  0  0  0  0  0  0  0
  128.2776  125.6222   65.9957 H   0  0  0  0  0  0  0  0  0  0  0  0
  131.8503  125.9605   66.9046 H   0  0  0  0  0  0  0  0  0  0  0  0
  134.0375  125.1402   66.7052 H   0  0  0  0  0  0  0  0  0  0  0  0
  134.5842  124.2255   65.2592 H   0  0  0  0  0  0  0  0  0  0  0  0
  134.6373  126.0210   65.2592 H   0  0  0  0  0  0  0  0  0  0  0  0
  1  2  1  0
  2  3  1  0
  3  4  2  0
  3  5  1  0
  5  6  1  0
  6  7  1  0
  7  8  2  0
  7  9  1  0
  9 10  1  0
 10 11  1  0
 11 12  2  0
 12 13  1  0
 13 14  1  0
 13 15  2  0
 15 16  1  0
 16 17  1  0
 16 18  2  0
 18 19  1  0
 19 20  3  0
 18 11  1  0
  1 21  1  0
  1 22  1  0
  1 23  1  0
  5 24  1  0
  5 25  1  0
  6 26  1  0
  9 27  1  0
  9 28  1  0
 14 29  1  0
 14 30  1  0
 14 31  1  0
 15 32  1  0
 17 33  1  0
 17 34  1  0
 17 35  1  0
M  END
>  <Binding energies>  (1) 
[-6.18]

>  <Ligand effiencies>  (1) 
[-0.29428571428571426]

>  <Interactions>  (1) 
["V-B:GLU:543:CD:9877, V-A:ARG:545:CZ:4923, H-A:GLY:454:N:4046, V-A:ARG:545:CG:4919, V-A:GLY:454:CA:4045, V-A:HIS:456:CE1:4066, V-B:GLU:543:CB:9875, V-B:GLU:543:CG:9876, H-B:ALA:541:N:9860, V-B:ASP:366:CB:8180, V-B:ALA:541:CB:9861, V-B:ASP:366:CG:8181, V-A:ARG:545:CD:4920, V-B:PRO:540:CB:9854, V-B:LEU:363:CA:8153, V-B:PRO:540:CA:9852, V-B:ASN:362:C:8140, V-B:ASN:362:CB:8144, H-B:GLU:543:OE2:9879, H-B:LEU:363:N:8154, H-B:ASN:362:ND2:8147"]

$$$$
1n_Grossjean_2025
     RDKit          3D

 48 49  0  0  0  0  0  0  0  0999 V2000
  124.7570  127.6300   74.1080 C   0  0  0  0  0  0  0  0  0  0  0  0
  126.2240  128.0600   74.0130 C   0  0  0  0  0  0  0  0  0  0  0  0
  126.8720  127.3090   72.9930 O   0  0  0  0  0  0  0  0  0  0  0  0
  128.2090  127.4170   72.7850 C   0  0  0  0  0  0  0  0  0  0  0  0
  129.0240  127.6160   73.6910 O   0  0  0  0  0  0  0  0  0  0  0  0
  128.6000  127.2560   71.3440 C   0  0  0  0  0  0  0  0  0  0  0  0
  127.8300  126.5000   70.4460 C   0  0  0  0  0  0  0  0  0  0  0  0
  128.2220  126.3690   69.1170 C   0  0  0  0  0  0  0  0  0  0  0  0
  129.3900  126.9800   68.6600 C   0  0  0  0  0  0  0  0  0  0  0  0
  129.6940  126.7770   67.2990 N   0  0  0  0  0  0  0  0  0  0  0  0
  129.8030  125.6260   66.6010 C   0  0  0  0  0  0  0  0  0  0  0  0
  129.6390  124.4950   67.0590 O   0  0  0  0  0  0  0  0  0  0  0  0
  130.1590  125.7830   65.1170 C   0  0  0  0  0  0  0  0  0  0  0  0
  131.6300  126.1940   64.8870 C   0  0  0  0  0  0  0  0  0  0  0  0
  132.8310  124.8450   65.0940 S   0  0  0  0  0  0  0  0  0  0  0  0
  132.7730  123.8410   63.6250 C   0  0  0  0  0  0  0  0  0  0  0  0
  133.8120  124.0550   62.7800 N   0  0  0  0  0  0  0  0  0  0  0  0
  133.8800  123.3340   61.6370 C   0  0  0  0  0  0  0  0  0  0  0  0
  135.0740  123.6190   60.7460 C   0  0  0  0  0  0  0  0  0  0  0  0
  132.9220  122.3830   61.2890 C   0  0  0  0  0  0  0  0  0  0  0  0
  131.8350  122.1700   62.1440 C   0  0  0  0  0  0  0  0  0  0  0  0
  130.7910  121.1330   61.7360 C   0  0  0  0  0  0  0  0  0  0  0  0
  131.7410  122.9160   63.3410 C   0  0  0  0  0  0  0  0  0  0  0  0
  130.5860  122.7460   64.2250 C   0  0  0  0  0  0  0  0  0  0  0  0
  129.6720  122.6110   64.9220 N   0  0  0  0  0  0  0  0  0  0  0  0
  130.1590  127.7440   69.5480 C   0  0  0  0  0  0  0  0  0  0  0  0
  129.7640  127.8780   70.8770 C   0  0  0  0  0  0  0  0  0  0  0  0
  124.4675  127.5452   75.1658 H   0  0  0  0  0  0  0  0  0  0  0  0
  124.1223  128.3799   73.6132 H   0  0  0  0  0  0  0  0  0  0  0  0
  124.6276  126.6561   73.6132 H   0  0  0  0  0  0  0  0  0  0  0  0
  126.2773  129.1314   73.7697 H   0  0  0  0  0  0  0  0  0  0  0  0
  126.7231  127.8781   74.9762 H   0  0  0  0  0  0  0  0  0  0  0  0
  126.9104  126.0077   70.7952 H   0  0  0  0  0  0  0  0  0  0  0  0
  127.6063  125.7794   68.4218 H   0  0  0  0  0  0  0  0  0  0  0  0
  129.8090  127.6300   66.7710 H   0  0  0  0  0  0  0  0  0  0  0  0
  129.9805  124.8229   64.6107 H   0  0  0  0  0  0  0  0  0  0  0  0
  129.5267  126.5864   64.7112 H   0  0  0  0  0  0  0  0  0  0  0  0
  131.7221  126.5817   63.8617 H   0  0  0  0  0  0  0  0  0  0  0  0
  131.8684  126.9455   65.6541 H   0  0  0  0  0  0  0  0  0  0  0  0
  135.9552  123.8293   61.3699 H   0  0  0  0  0  0  0  0  0  0  0  0
  135.2749  122.7436   60.1110 H   0  0  0  0  0  0  0  0  0  0  0  0
  134.8578  124.4908   60.1110 H   0  0  0  0  0  0  0  0  0  0  0  0
  133.0191  121.8085   60.3560 H   0  0  0  0  0  0  0  0  0  0  0  0
  130.3437  120.6887   62.6374 H   0  0  0  0  0  0  0  0  0  0  0  0
  130.0057  121.6189   61.1383 H   0  0  0  0  0  0  0  0  0  0  0  0
  131.2716  120.3444   61.1383 H   0  0  0  0  0  0  0  0  0  0  0  0
  131.0759  128.2386   69.1950 H   0  0  0  0  0  0  0  0  0  0  0  0
  130.3736  128.4794   71.5674 H   0  0  0  0  0  0  0  0  0  0  0  0
  1  2  1  0
  2  3  1  0
  3  4  1  0
  4  5  2  0
  4  6  1  0
  6  7  2  0
  7  8  1  0
  8  9  2  0
  9 10  1  0
 10 11  1  0
 11 12  2  0
 11 13  1  0
 13 14  1  0
 14 15  1  0
 15 16  1  0
 16 17  2  0
 17 18  1  0
 18 19  1  0
 18 20  2  0
 20 21  1  0
 21 22  1  0
 21 23  2  0
 23 24  1  0
 24 25  3  0
  9 26  1  0
 26 27  2  0
 27  6  1  0
 23 16  1  0
  1 28  1  0
  1 29  1  0
  1 30  1  0
  2 31  1  0
  2 32  1  0
  7 33  1  0
  8 34  1  0
 10 35  1  0
 13 36  1  0
 13 37  1  0
 14 38  1  0
 14 39  1  0
 19 40  1  0
 19 41  1  0
 19 42  1  0
 20 43  1  0
 22 44  1  0
 22 45  1  0
 22 46  1  0
 26 47  1  0
 27 48  1  0
M  END
>  <Binding energies>  (1) 
[-8.34]

>  <Ligand effiencies>  (1) 
[-0.2978571428571429]

>  <Interactions>  (1) 
["V-A:LEU:475:CD1:4254, H-A:GLU:543:OE1:4906, V-A:ARG:545:CZ:4923, V-A:ILE:369:CB:3232, H-A:GLY:454:N:4046, V-A:ILE:369:CG1:3234, V-A:GLY:454:CA:4045, V-B:TYR:539:CE2:9845, V-A:HIS:456:CE1:4066, V-B:GLU:543:C:9871, V-B:GLU:543:CB:9875, V-B:HIS:456:CE1:9038, V-A:TYR:484:CE1:4341, V-B:GLY:544:C:9881, V-B:HIS:456:CD2:9036, V-B:TYR:539:CD2:9843, V-B:ALA:541:CB:9861, V-A:ASP:366:CG:3209, H-A:TYR:484:OH:4344, V-B:LYS:547:CE:9919, V-B:LYS:547:CG:9917, V-B:HIS:456:CG:9034, V-B:HIS:456:CB:9033, V-B:LYS:547:CD:9918, H-A:LYS:547:NZ:4948, V-A:GLY:453:CA:4040, V-A:ASP:366:CA:3206"]

$$$$
1o_Grossjean_2025
     RDKit          3D

 45 46  0  0  0  0  0  0  0  0999 V2000
  126.2680  127.7700   73.6640 C   0  0  0  0  0  0  0  0  0  0  0  0
  127.1140  127.0040   72.8180 O   0  0  0  0  0  0  0  0  0  0  0  0
  128.4060  127.3670   72.6070 C   0  0  0  0  0  0  0  0  0  0  0  0
  129.1560  127.7630   73.5040 O   0  0  0  0  0  0  0  0  0  0  0  0
  128.8330  127.2370   71.1740 C   0  0  0  0  0  0  0  0  0  0  0  0
  128.0790  126.5150   70.2370 C   0  0  0  0  0  0  0  0  0  0  0  0
  128.5030  126.4150   68.9140 C   0  0  0  0  0  0  0  0  0  0  0  0
  129.6870  127.0270   68.5020 C   0  0  0  0  0  0  0  0  0  0  0  0
  130.0160  126.8700   67.1410 N   0  0  0  0  0  0  0  0  0  0  0  0
  129.8970  125.7870   66.3410 C   0  0  0  0  0  0  0  0  0  0  0  0
  129.4120  124.7070   66.6770 O   0  0  0  0  0  0  0  0  0  0  0  0
  130.3910  125.9740   64.8990 C   0  0  0  0  0  0  0  0  0  0  0  0
  131.9050  126.2460   64.8030 C   0  0  0  0  0  0  0  0  0  0  0  0
  132.9370  124.7700   65.0430 S   0  0  0  0  0  0  0  0  0  0  0  0
  132.8370  123.7660   63.5750 C   0  0  0  0  0  0  0  0  0  0  0  0
  133.8500  123.9870   62.6990 N   0  0  0  0  0  0  0  0  0  0  0  0
  133.8840  123.2740   61.5490 C   0  0  0  0  0  0  0  0  0  0  0  0
  135.0540  123.5650   60.6270 C   0  0  0  0  0  0  0  0  0  0  0  0
  132.9140  122.3310   61.2210 C   0  0  0  0  0  0  0  0  0  0  0  0
  131.8510  122.1130   62.1040 C   0  0  0  0  0  0  0  0  0  0  0  0
  130.7920  121.0830   61.7140 C   0  0  0  0  0  0  0  0  0  0  0  0
  131.7920  122.8480   63.3100 C   0  0  0  0  0  0  0  0  0  0  0  0
  130.6560  122.6770   64.2180 C   0  0  0  0  0  0  0  0  0  0  0  0
  129.7580  122.5390   64.9350 N   0  0  0  0  0  0  0  0  0  0  0  0
  130.4440  127.7550   69.4330 C   0  0  0  0  0  0  0  0  0  0  0  0
  130.0190  127.8540   70.7540 C   0  0  0  0  0  0  0  0  0  0  0  0
  126.5075  127.5532   74.7155 H   0  0  0  0  0  0  0  0  0  0  0  0
  126.4236  128.8408   73.4658 H   0  0  0  0  0  0  0  0  0  0  0  0
  125.2179  127.5092   73.4658 H   0  0  0  0  0  0  0  0  0  0  0  0
  127.1456  126.0240   70.5495 H   0  0  0  0  0  0  0  0  0  0  0  0
  127.8998  125.8493   68.1887 H   0  0  0  0  0  0  0  0  0  0  0  0
  130.3730  127.7070   66.7040 H   0  0  0  0  0  0  0  0  0  0  0  0
  130.1639  125.0598   64.3310 H   0  0  0  0  0  0  0  0  0  0  0  0
  129.8754  126.8554   64.4900 H   0  0  0  0  0  0  0  0  0  0  0  0
  132.1197  126.6600   63.8068 H   0  0  0  0  0  0  0  0  0  0  0  0
  132.1551  126.9449   65.6147 H   0  0  0  0  0  0  0  0  0  0  0  0
  135.9480  123.7874   61.2281 H   0  0  0  0  0  0  0  0  0  0  0  0
  135.2477  122.6877   59.9924 H   0  0  0  0  0  0  0  0  0  0  0  0
  134.8142  124.4309   59.9924 H   0  0  0  0  0  0  0  0  0  0  0  0
  132.9824  121.7649   60.2803 H   0  0  0  0  0  0  0  0  0  0  0  0
  130.3481  120.6513   62.6231 H   0  0  0  0  0  0  0  0  0  0  0  0
  130.0065  121.5719   61.1190 H   0  0  0  0  0  0  0  0  0  0  0  0
  131.2589  120.2843   61.1190 H   0  0  0  0  0  0  0  0  0  0  0  0
  131.3752  128.2483   69.1176 H   0  0  0  0  0  0  0  0  0  0  0  0
  130.6211  128.4234   71.4774 H   0  0  0  0  0  0  0  0  0  0  0  0
  1  2  1  0
  2  3  1  0
  3  4  2  0
  3  5  1  0
  5  6  2  0
  6  7  1  0
  7  8  2  0
  8  9  1  0
  9 10  1  0
 10 11  2  0
 10 12  1  0
 12 13  1  0
 13 14  1  0
 14 15  1  0
 15 16  2  0
 16 17  1  0
 17 18  1  0
 17 19  2  0
 19 20  1  0
 20 21  1  0
 20 22  2  0
 22 23  1  0
 23 24  3  0
  8 25  1  0
 25 26  2  0
 26  5  1  0
 22 15  1  0
  1 27  1  0
  1 28  1  0
  1 29  1  0
  6 30  1  0
  7 31  1  0
  9 32  1  0
 12 33  1  0
 12 34  1  0
 13 35  1  0
 13 36  1  0
 18 37  1  0
 18 38  1  0
 18 39  1  0
 19 40  1  0
 21 41  1  0
 21 42  1  0
 21 43  1  0
 25 44  1  0
 26 45  1  0
M  END
>  <Binding energies>  (1) 
[-7.94]

>  <Ligand effiencies>  (1) 
[-0.2940740740740741]

>  <Interactions>  (1) 
["V-A:LEU:475:CD1:4254, H-A:GLU:543:OE1:4906, V-A:ARG:545:CZ:4923, V-A:ILE:369:CB:3232, H-A:GLY:454:N:4046, V-A:ILE:369:CG1:3234, V-A:GLY:454:CA:4045, V-B:TYR:539:CE2:9845, V-A:HIS:456:CE1:4066, V-A:TYR:484:CZ:4343, V-B:GLU:543:CB:9875, V-B:HIS:456:CE1:9038, V-A:TYR:484:CE1:4341, V-B:HIS:456:CD2:9036, V-B:TYR:539:CD2:9843, V-B:ALA:541:CB:9861, V-A:ASP:366:CG:3209, H-A:TYR:484:OH:4344, V-B:LYS:547:CE:9919, V-B:HIS:456:CG:9034, V-A:GLU:543:C:4899, V-B:HIS:456:CB:9033, V-B:LYS:547:CD:9918, H-A:LYS:547:NZ:4948, V-A:ASP:366:CA:3206"]

$$$$
1p_Grossjean_2025
     RDKit          3D

 35 36  0  0  0  0  0  0  0  0999 V2000
  134.7830  125.1270   65.9100 C   0  0  0  0  0  0  0  0  0  0  0  0
  133.4840  125.2600   65.1370 C   0  0  0  0  0  0  0  0  0  0  0  0
  133.4360  125.0670   63.7570 C   0  0  0  0  0  0  0  0  0  0  0  0
  132.2130  125.2150   63.0930 C   0  0  0  0  0  0  0  0  0  0  0  0
  132.1860  125.0130   61.5790 C   0  0  0  0  0  0  0  0  0  0  0  0
  131.0590  125.5500   63.8360 C   0  0  0  0  0  0  0  0  0  0  0  0
  129.7790  125.7580   63.1590 C   0  0  0  0  0  0  0  0  0  0  0  0
  128.7660  125.9230   62.6210 N   0  0  0  0  0  0  0  0  0  0  0  0
  131.1980  125.7050   65.2360 C   0  0  0  0  0  0  0  0  0  0  0  0
  129.8480  126.1140   66.3200 S   0  0  0  0  0  0  0  0  0  0  0  0
  129.3180  127.7970   65.8880 C   0  0  0  0  0  0  0  0  0  0  0  0
  128.0040  128.2290   66.5680 C   0  0  0  0  0  0  0  0  0  0  0  0
  127.2290  129.2970   65.7820 C   0  0  0  0  0  0  0  0  0  0  0  0
  127.5950  130.4730   65.8320 O   0  0  0  0  0  0  0  0  0  0  0  0
  126.1780  128.8450   65.0620 N   0  0  0  0  0  0  0  0  0  0  0  0
  125.3180  129.5940   64.2690 C   0  0  0  0  0  0  0  0  0  0  0  0
  125.6370  130.0000   62.9730 C   0  0  0  0  0  0  0  0  0  0  0  0
  124.5390  130.7070   62.5390 C   0  0  0  0  0  0  0  0  0  0  0  0
  123.6080  130.7270   63.5220 O   0  0  0  0  0  0  0  0  0  0  0  0
  124.1140  130.0190   64.6140 N   0  0  0  0  0  0  0  0  0  0  0  0
  132.3920  125.5790   65.8690 N   0  0  0  0  0  0  0  0  0  0  0  0
  134.5713  125.1487   66.9892 H   0  0  0  0  0  0  0  0  0  0  0  0
  135.2682  124.1745   65.6506 H   0  0  0  0  0  0  0  0  0  0  0  0
  135.4511  125.9614   65.6506 H   0  0  0  0  0  0  0  0  0  0  0  0
  134.3459  124.8023   63.1984 H   0  0  0  0  0  0  0  0  0  0  0  0
  132.0433  123.9458   61.3540 H   0  0  0  0  0  0  0  0  0  0  0  0
  131.3574  125.5929   61.1464 H   0  0  0  0  0  0  0  0  0  0  0  0
  133.1378  125.3549   61.1464 H   0  0  0  0  0  0  0  0  0  0  0  0
  130.1107  128.4981   66.1882 H   0  0  0  0  0  0  0  0  0  0  0  0
  129.1358  127.8071   64.8032 H   0  0  0  0  0  0  0  0  0  0  0  0
  127.3614  127.3430   66.6780 H   0  0  0  0  0  0  0  0  0  0  0  0
  128.2727  128.6729   67.5379 H   0  0  0  0  0  0  0  0  0  0  0  0
  125.9790  127.8560   65.1040 H   0  0  0  0  0  0  0  0  0  0  0  0
  126.5652  129.7986   62.4182 H   0  0  0  0  0  0  0  0  0  0  0  0
  124.4344  131.1802   61.5515 H   0  0  0  0  0  0  0  0  0  0  0  0
  1  2  1  0
  2  3  2  0
  3  4  1  0
  4  5  1  0
  4  6  2  0
  6  7  1  0
  7  8  3  0
  6  9  1  0
  9 10  1  0
 10 11  1  0
 11 12  1  0
 12 13  1  0
 13 14  2  0
 13 15  1  0
 15 16  1  0
 16 17  1  0
 17 18  2  0
 18 19  1  0
 19 20  1  0
  9 21  2  0
 21  2  1  0
 20 16  2  0
  1 22  1  0
  1 23  1  0
  1 24  1  0
  3 25  1  0
  5 26  1  0
  5 27  1  0
  5 28  1  0
 11 29  1  0
 11 30  1  0
 12 31  1  0
 12 32  1  0
 15 33  1  0
 17 34  1  0
 18 35  1  0
M  END
>  <Binding energies>  (1) 
[-6.9]

>  <Ligand effiencies>  (1) 
[-0.31363636363636366]

>  <Interactions>  (1) 
["V-B:GLU:543:CD:9877, V-A:ARG:545:CZ:4923, V-A:ARG:545:CG:4919, V-A:GLY:454:CA:4045, V-A:HIS:456:CE1:4066, V-A:GLY:454:C:4043, V-A:GLU:543:CD:4905, V-A:GLU:543:CG:4904, V-B:HIS:456:CE1:9038, V-A:GLU:543:CB:4903, V-B:ARG:545:CZ:9895, H-B:TYR:484:OH:9316, V-B:ASP:366:CG:8181, V-A:ASP:366:CG:3209, H-A:TYR:484:OH:4344, H-B:GLU:543:OE1:9878, V-A:ARG:545:CD:4920, H-B:GLY:454:N:9018, V-A:GLY:453:C:4038, V-A:GLY:453:CA:4040, H-B:GLU:543:OE2:9879"]

$$$$
1q_Grossjean_2025
     RDKit          3D

 38 38  0  0  0  0  0  0  0  0999 V2000
  124.4940  130.1070   63.1450 C   0  0  0  0  0  0  0  0  0  0  0  0
  123.7410  130.0090   64.3450 O   0  0  0  0  0  0  0  0  0  0  0  0
  124.3550  129.7370   65.5230 C   0  0  0  0  0  0  0  0  0  0  0  0
  123.7900  129.3870   66.5610 O   0  0  0  0  0  0  0  0  0  0  0  0
  125.8860  129.9320   65.4940 C   0  0  0  0  0  0  0  0  0  0  0  0
  126.6280  128.6900   65.7590 N   0  0  0  0  0  0  0  0  0  0  0  0
  127.8690  128.6080   66.2780 C   0  0  0  0  0  0  0  0  0  0  0  0
  128.5330  129.5960   66.5960 O   0  0  0  0  0  0  0  0  0  0  0  0
  128.4230  127.1890   66.4730 C   0  0  0  0  0  0  0  0  0  0  0  0
  129.8570  126.9910   65.9420 C   0  0  0  0  0  0  0  0  0  0  0  0
  130.5050  125.3130   66.2060 S   0  0  0  0  0  0  0  0  0  0  0  0
  130.8120  124.5670   64.6170 C   0  0  0  0  0  0  0  0  0  0  0  0
  129.6790  124.2410   63.9470 N   0  0  0  0  0  0  0  0  0  0  0  0
  129.7850  123.6650   62.7270 C   0  0  0  0  0  0  0  0  0  0  0  0
  128.4750  123.3140   62.0470 C   0  0  0  0  0  0  0  0  0  0  0  0
  131.0130  123.4020   62.1240 C   0  0  0  0  0  0  0  0  0  0  0  0
  132.1880  123.7570   62.7950 C   0  0  0  0  0  0  0  0  0  0  0  0
  133.5220  123.4740   62.1050 C   0  0  0  0  0  0  0  0  0  0  0  0
  132.1020  124.3620   64.0690 C   0  0  0  0  0  0  0  0  0  0  0  0
  133.3190  124.7920   64.7600 C   0  0  0  0  0  0  0  0  0  0  0  0
  134.2840  125.1310   65.3030 N   0  0  0  0  0  0  0  0  0  0  0  0
  125.5575  130.2454   63.3897 H   0  0  0  0  0  0  0  0  0  0  0  0
  124.3698  129.1851   62.5579 H   0  0  0  0  0  0  0  0  0  0  0  0
  124.1380  130.9664   62.5579 H   0  0  0  0  0  0  0  0  0  0  0  0
  126.1730  130.3067   64.5004 H   0  0  0  0  0  0  0  0  0  0  0  0
  126.1423  130.6452   66.2912 H   0  0  0  0  0  0  0  0  0  0  0  0
  126.1620  127.8320   65.5010 H   0  0  0  0  0  0  0  0  0  0  0  0
  128.4195  126.9624   67.5494 H   0  0  0  0  0  0  0  0  0  0  0  0
  127.7756  126.5148   65.8930 H   0  0  0  0  0  0  0  0  0  0  0  0
  129.8598  127.1990   64.8619 H   0  0  0  0  0  0  0  0  0  0  0  0
  130.5066  127.6797   66.5021 H   0  0  0  0  0  0  0  0  0  0  0  0
  127.7094  123.1089   62.8097 H   0  0  0  0  0  0  0  0  0  0  0  0
  128.1504  124.1569   61.4191 H   0  0  0  0  0  0  0  0  0  0  0  0
  128.6153  122.4218   61.4191 H   0  0  0  0  0  0  0  0  0  0  0  0
  131.0580  122.9224   61.1351 H   0  0  0  0  0  0  0  0  0  0  0  0
  134.3001  123.3089   62.8648 H   0  0  0  0  0  0  0  0  0  0  0  0
  133.4266  122.5761   61.4768 H   0  0  0  0  0  0  0  0  0  0  0  0
  133.7994  124.3333   61.4768 H   0  0  0  0  0  0  0  0  0  0  0  0
  1  2  1  0
  2  3  1  0
  3  4  2  0
  3  5  1  0
  5  6  1  0
  6  7  1  0
  7  8  2  0
  7  9  1  0
  9 10  1  0
 10 11  1  0
 11 12  1  0
 12 13  2  0
 13 14  1  0
 14 15  1  0
 14 16  2  0
 16 17  1  0
 17 18  1  0
 17 19  2  0
 19 20  1  0
 20 21  3  0
 19 12  1  0
  1 22  1  0
  1 23  1  0
  1 24  1  0
  5 25  1  0
  5 26  1  0
  6 27  1  0
  9 28  1  0
  9 29  1  0
 10 30  1  0
 10 31  1  0
 15 32  1  0
 15 33  1  0
 15 34  1  0
 16 35  1  0
 18 36  1  0
 18 37  1  0
 18 38  1  0
M  END
>  <Binding energies>  (1) 
[-6.09]

>  <Ligand effiencies>  (1) 
[-0.2768181818181818]

>  <Interactions>  (1) 
["V-B:GLU:543:CD:9877, V-A:ARG:545:CZ:4923, H-A:ARG:545:NH1:4924, H-A:GLY:454:N:4046, V-A:GLY:454:CA:4045, V-A:GLU:543:CD:4905, V-B:GLU:543:CB:9875, V-B:HIS:456:CE1:9038, V-B:GLU:543:CG:9876, V-B:ARG:545:CZ:9895, V-B:ARG:545:CD:9892, H-B:TYR:484:OH:9316, V-B:ALA:541:CB:9861, V-B:ASP:366:CG:8181, H-A:ARG:545:NE:4921, H-B:ARG:545:NH2:9897, H-A:TYR:484:OH:4344, H-B:GLU:543:OE1:9878, H-B:GLY:454:N:9018, H-B:ARG:545:NH1:9896, H-B:ARG:545:NE:9893, H-B:GLU:543:OE2:9879, H-B:HIS:456:ND1:9035"]

$$$$
2a_Ghoteimi_2023
     RDKit          3D

 85 90  0  0  0  0  0  0  0  0999 V2000
  136.1850  117.7020   58.6010 C   0  0  0  0  0  0  0  0  0  0  0  0
  135.4440  117.2880   59.8760 C   0  0  0  0  0  0  0  0  0  0  0  0
  134.9320  118.4460   60.5220 O   0  0  0  0  0  0  0  0  0  0  0  0
  133.7800  119.0320   60.1040 C   0  0  0  0  0  0  0  0  0  0  0  0
  133.1240  118.6280   59.1390 O   0  0  0  0  0  0  0  0  0  0  0  0
  133.3820  120.2160   60.9370 C   0  0  0  0  0  0  0  0  0  0  0  0
  132.0480  120.4540   61.2990 C   0  0  0  0  0  0  0  0  0  0  0  0
  131.7120  121.5600   62.0740 C   0  0  0  0  0  0  0  0  0  0  0  0
  132.6990  122.4480   62.5060 C   0  0  0  0  0  0  0  0  0  0  0  0
  132.2470  123.5340   63.2790 N   0  0  0  0  0  0  0  0  0  0  0  0
  132.8720  124.6890   63.5980 C   0  0  0  0  0  0  0  0  0  0  0  0
  134.0270  124.9800   63.2840 O   0  0  0  0  0  0  0  0  0  0  0  0
  132.0480  125.6620   64.4520 C   0  0  0  0  0  0  0  0  0  0  0  0
  130.4980  124.9640   65.1060 S   0  0  0  0  0  0  0  0  0  0  0  0
  129.5910  126.3440   65.7660 C   0  0  0  0  0  0  0  0  0  0  0  0
  129.5590  126.3820   67.1180 N   0  0  0  0  0  0  0  0  0  0  0  0
  128.8890  127.3830   67.7410 C   0  0  0  0  0  0  0  0  0  0  0  0
  128.8880  127.3550   69.2360 C   0  0  0  0  0  0  0  0  0  0  0  0
  127.9010  126.6630   69.9480 C   0  0  0  0  0  0  0  0  0  0  0  0
  127.8980  126.6500   71.3400 C   0  0  0  0  0  0  0  0  0  0  0  0
  128.8850  127.3230   72.0730 C   0  0  0  0  0  0  0  0  0  0  0  0
  128.8520  127.3260   73.4720 N   0  0  0  0  0  0  0  0  0  0  0  0
  129.5090  126.2640   74.2600 C   0  0  0  0  0  0  0  0  0  0  0  0
  129.6840  126.6140   75.7530 C   0  0  0  0  0  0  0  0  0  0  0  0
  128.4320  126.9680   76.3200 O   0  0  0  0  0  0  0  0  0  0  0  0
  127.8720  128.0990   75.6730 C   0  0  0  0  0  0  0  0  0  0  0  0
  127.6420  127.7960   74.1770 C   0  0  0  0  0  0  0  0  0  0  0  0
  129.8660  128.0260   71.3540 C   0  0  0  0  0  0  0  0  0  0  0  0
  129.8700  128.0360   69.9630 C   0  0  0  0  0  0  0  0  0  0  0  0
  128.2430  128.3840   67.0110 C   0  0  0  0  0  0  0  0  0  0  0  0
  128.2630  128.3660   65.6100 C   0  0  0  0  0  0  0  0  0  0  0  0
  127.5460  129.4630   64.8920 C   0  0  0  0  0  0  0  0  0  0  0  0
  126.6330  129.1610   63.8790 C   0  0  0  0  0  0  0  0  0  0  0  0
  125.9750  130.1760   63.1910 C   0  0  0  0  0  0  0  0  0  0  0  0
  126.2090  131.5250   63.4970 C   0  0  0  0  0  0  0  0  0  0  0  0
  125.5730  132.5600   62.8060 N   0  0  0  0  0  0  0  0  0  0  0  0
  124.0970  132.6010   62.7610 C   0  0  0  0  0  0  0  0  0  0  0  0
  123.5380  133.9700   62.3200 C   0  0  0  0  0  0  0  0  0  0  0  0
  124.0900  134.3380   61.0650 O   0  0  0  0  0  0  0  0  0  0  0  0
  125.5040  134.4410   61.1240 C   0  0  0  0  0  0  0  0  0  0  0  0
  126.1160  133.0870   61.5380 C   0  0  0  0  0  0  0  0  0  0  0  0
  127.1360  131.8200   64.5070 C   0  0  0  0  0  0  0  0  0  0  0  0
  127.7950  130.8050   65.1940 C   0  0  0  0  0  0  0  0  0  0  0  0
  128.9620  127.3190   64.9610 C   0  0  0  0  0  0  0  0  0  0  0  0
  129.0660  127.2770   63.4990 C   0  0  0  0  0  0  0  0  0  0  0  0
  129.1450  127.2450   62.3440 N   0  0  0  0  0  0  0  0  0  0  0  0
  134.0340  122.2220   62.1400 C   0  0  0  0  0  0  0  0  0  0  0  0
  134.3690  121.1130   61.3670 C   0  0  0  0  0  0  0  0  0  0  0  0
  137.1160  118.2222   58.8705 H   0  0  0  0  0  0  0  0  0  0  0  0
  136.4236  116.8065   58.0084 H   0  0  0  0  0  0  0  0  0  0  0  0
  135.5475  118.3746   58.0084 H   0  0  0  0  0  0  0  0  0  0  0  0
  134.6133  116.6155   59.6157 H   0  0  0  0  0  0  0  0  0  0  0  0
  136.1384  116.7672   60.5517 H   0  0  0  0  0  0  0  0  0  0  0  0
  131.2609  119.7607   60.9676 H   0  0  0  0  0  0  0  0  0  0  0  0
  130.6613  121.7358   62.3482 H   0  0  0  0  0  0  0  0  0  0  0  0
  131.3250  123.4070   63.6680 H   0  0  0  0  0  0  0  0  0  0  0  0
  132.6672  125.9816   65.3031 H   0  0  0  0  0  0  0  0  0  0  0  0
  131.7629  126.4944   63.7918 H   0  0  0  0  0  0  0  0  0  0  0  0
  127.1163  126.1215   69.3994 H   0  0  0  0  0  0  0  0  0  0  0  0
  127.1075  126.1022   71.8738 H   0  0  0  0  0  0  0  0  0  0  0  0
  128.9001  125.3508   74.1869 H   0  0  0  0  0  0  0  0  0  0  0  0
  130.5177  126.1320   73.8415 H   0  0  0  0  0  0  0  0  0  0  0  0
  130.0915  125.7422   76.2859 H   0  0  0  0  0  0  0  0  0  0  0  0
  130.3749  127.4649   75.8451 H   0  0  0  0  0  0  0  0  0  0  0  0
  126.9106  128.3491   76.1453 H   0  0  0  0  0  0  0  0  0  0  0  0
  128.5668  128.9467   75.7654 H   0  0  0  0  0  0  0  0  0  0  0  0
  126.8687  127.0180   74.0954 H   0  0  0  0  0  0  0  0  0  0  0  0
  127.3400  128.7406   73.7011 H   0  0  0  0  0  0  0  0  0  0  0  0
  130.6446  128.5782   71.9006 H   0  0  0  0  0  0  0  0  0  0  0  0
  130.6567  128.5873   69.4271 H   0  0  0  0  0  0  0  0  0  0  0  0
  127.7152  129.1915   67.5396 H   0  0  0  0  0  0  0  0  0  0  0  0
  126.4321  128.1104   63.6225 H   0  0  0  0  0  0  0  0  0  0  0  0
  125.2609  129.9168   62.3955 H   0  0  0  0  0  0  0  0  0  0  0  0
  123.7479  131.8363   62.0516 H   0  0  0  0  0  0  0  0  0  0  0  0
  123.7344  132.4146   63.7827 H   0  0  0  0  0  0  0  0  0  0  0  0
  122.4435  133.9053   62.2317 H   0  0  0  0  0  0  0  0  0  0  0  0
  123.8075  134.7286   63.0696 H   0  0  0  0  0  0  0  0  0  0  0  0
  125.8897  134.7275   60.1345 H   0  0  0  0  0  0  0  0  0  0  0  0
  125.7793  135.2035   61.8675 H   0  0  0  0  0  0  0  0  0  0  0  0
  125.9143  132.3554   60.7417 H   0  0  0  0  0  0  0  0  0  0  0  0
  127.1931  133.2509   61.6898 H   0  0  0  0  0  0  0  0  0  0  0  0
  127.3454  132.8698   64.7601 H   0  0  0  0  0  0  0  0  0  0  0  0
  128.5185  131.0610   65.9820 H   0  0  0  0  0  0  0  0  0  0  0  0
  134.8180  122.9221   62.4642 H   0  0  0  0  0  0  0  0  0  0  0  0
  135.4196  120.9394   61.0911 H   0  0  0  0  0  0  0  0  0  0  0  0
  1  2  1  0
  2  3  1  0
  3  4  1  0
  4  5  2  0
  4  6  1  0
  6  7  2  0
  7  8  1  0
  8  9  2  0
  9 10  1  0
 10 11  1  0
 11 12  2  0
 11 13  1  0
 13 14  1  0
 14 15  1  0
 15 16  2  0
 16 17  1  0
 17 18  1  0
 18 19  2  0
 19 20  1  0
 20 21  2  0
 21 22  1  0
 22 23  1  0
 23 24  1  0
 24 25  1  0
 25 26  1  0
 26 27  1  0
 21 28  1  0
 28 29  2  0
 17 30  2  0
 30 31  1  0
 31 32  1  0
 32 33  2  0
 33 34  1  0
 34 35  2  0
 35 36  1  0
 36 37  1  0
 37 38  1  0
 38 39  1  0
 39 40  1  0
 40 41  1  0
 35 42  1  0
 42 43  2  0
 31 44  2  0
 44 45  1  0
 45 46  3  0
  9 47  1  0
 47 48  2  0
 48  6  1  0
 44 15  1  0
 29 18  1  0
 43 32  1  0
 27 22  1  0
 41 36  1  0
  1 49  1  0
  1 50  1  0
  1 51  1  0
  2 52  1  0
  2 53  1  0
  7 54  1  0
  8 55  1  0
 10 56  1  0
 13 57  1  0
 13 58  1  0
 19 59  1  0
 20 60  1  0
 23 61  1  0
 23 62  1  0
 24 63  1  0
 24 64  1  0
 26 65  1  0
 26 66  1  0
 27 67  1  0
 27 68  1  0
 28 69  1  0
 29 70  1  0
 30 71  1  0
 33 72  1  0
 34 73  1  0
 37 74  1  0
 37 75  1  0
 38 76  1  0
 38 77  1  0
 40 78  1  0
 40 79  1  0
 41 80  1  0
 41 81  1  0
 42 82  1  0
 43 83  1  0
 47 84  1  0
 48 85  1  0
M  END
>  <Binding energies>  (1) 
[-9.14]

>  <Ligand effiencies>  (1) 
[-0.18653061224489798]

>  <Interactions>  (1) 
["V-A:LEU:475:CD1:4254, V-B:GLU:543:CD:9877, V-A:ARG:545:CZ:4923, V-A:ILE:369:CB:3232, H-A:ARG:545:NH2:4925, H-A:ARG:545:NH1:4924, H-A:GLY:454:N:4046, V-A:ILE:369:CG1:3234, V-A:ILE:369:CG2:3233, V-A:GLY:454:CA:4045, V-B:TYR:539:CE2:9845, V-A:GLU:543:CD:4905, V-A:GLU:543:CG:4904, V-B:HIS:456:CE1:9038, V-B:GLY:544:C:9881, V-B:HIS:456:CD2:9036, V-A:GLU:543:CB:4903, V-B:ILE:369:CD1:8207, V-B:ILE:369:CG2:8205, V-B:GLY:454:CA:9017, V-B:LEU:475:CD2:9227, V-B:TYR:539:CD2:9843, H-A:TYR:484:OH:4344, V-B:LYS:547:CE:9919, V-A:LYS:547:CE:4947, V-A:GLU:543:C:4899, V-A:GLY:453:C:4038, V-A:ILE:369:CD1:3235, V-B:TYR:484:CE1:9313, V-A:SER:385:C:3401, V-A:TRP:381:CH2:3368, V-A:SER:385:CA:3403, V-A:VAL:384:C:3393, V-A:SER:385:CB:3405"]

$$$$
2a_Grossjean_2025
     RDKit          3D

 45 46  0  0  0  0  0  0  0  0999 V2000
  124.6880  127.6760   73.7820 C   0  0  0  0  0  0  0  0  0  0  0  0
  126.1700  128.0630   73.8000 C   0  0  0  0  0  0  0  0  0  0  0  0
  126.8510  127.3650   72.7640 O   0  0  0  0  0  0  0  0  0  0  0  0
  128.2000  127.4470   72.6320 C   0  0  0  0  0  0  0  0  0  0  0  0
  128.9620  127.6880   73.5730 O   0  0  0  0  0  0  0  0  0  0  0  0
  128.6730  127.1930   71.2290 C   0  0  0  0  0  0  0  0  0  0  0  0
  129.8410  127.7820   70.7230 C   0  0  0  0  0  0  0  0  0  0  0  0
  130.2510  127.5270   69.4170 C   0  0  0  0  0  0  0  0  0  0  0  0
  129.5040  126.6870   68.5910 C   0  0  0  0  0  0  0  0  0  0  0  0
  130.0050  126.5120   67.2880 N   0  0  0  0  0  0  0  0  0  0  0  0
  131.0760  127.0720   66.6880 C   0  0  0  0  0  0  0  0  0  0  0  0
  131.8300  127.9010   67.1980 O   0  0  0  0  0  0  0  0  0  0  0  0
  131.3410  126.6150   65.2490 C   0  0  0  0  0  0  0  0  0  0  0  0
  132.9440  125.7700   65.0440 S   0  0  0  0  0  0  0  0  0  0  0  0
  132.7890  124.4680   63.8270 C   0  0  0  0  0  0  0  0  0  0  0  0
  133.8190  124.3550   62.9500 N   0  0  0  0  0  0  0  0  0  0  0  0
  133.7630  123.4010   61.9950 C   0  0  0  0  0  0  0  0  0  0  0  0
  134.9380  123.3550   61.0350 C   0  0  0  0  0  0  0  0  0  0  0  0
  132.6930  122.5180   61.8770 C   0  0  0  0  0  0  0  0  0  0  0  0
  131.6210  122.6100   62.7780 C   0  0  0  0  0  0  0  0  0  0  0  0
  130.4460  121.6250   62.6350 C   0  0  0  0  0  0  0  0  0  0  0  0
  129.3640  122.2640   62.1890 F   0  0  0  0  0  0  0  0  0  0  0  0
  130.7640  120.6570   61.7730 F   0  0  0  0  0  0  0  0  0  0  0  0
  130.1190  121.0410   63.7910 F   0  0  0  0  0  0  0  0  0  0  0  0
  131.6660  123.6090   63.7830 C   0  0  0  0  0  0  0  0  0  0  0  0
  130.5720  123.7520   64.7490 C   0  0  0  0  0  0  0  0  0  0  0  0
  129.7080  123.8640   65.5110 N   0  0  0  0  0  0  0  0  0  0  0  0
  128.3400  126.0870   69.0940 C   0  0  0  0  0  0  0  0  0  0  0  0
  127.9330  126.3400   70.4010 C   0  0  0  0  0  0  0  0  0  0  0  0
  124.3215  127.5803   74.8147 H   0  0  0  0  0  0  0  0  0  0  0  0
  124.1122  128.4539   73.2592 H   0  0  0  0  0  0  0  0  0  0  0  0
  124.5661  126.7159   73.2592 H   0  0  0  0  0  0  0  0  0  0  0  0
  126.2687  129.1467   73.6393 H   0  0  0  0  0  0  0  0  0  0  0  0
  126.6084  127.7972   74.7732 H   0  0  0  0  0  0  0  0  0  0  0  0
  130.4371  128.4499   71.3622 H   0  0  0  0  0  0  0  0  0  0  0  0
  131.1713  127.9917   69.0335 H   0  0  0  0  0  0  0  0  0  0  0  0
  129.5030  125.8270   66.7440 H   0  0  0  0  0  0  0  0  0  0  0  0
  130.5405  125.9225   64.9496 H   0  0  0  0  0  0  0  0  0  0  0  0
  131.3655  127.5171   64.6200 H   0  0  0  0  0  0  0  0  0  0  0  0
  135.8772  123.3182   61.6065 H   0  0  0  0  0  0  0  0  0  0  0  0
  134.8590  122.4593   60.4014 H   0  0  0  0  0  0  0  0  0  0  0  0
  134.9293  124.2542   60.4014 H   0  0  0  0  0  0  0  0  0  0  0  0
  132.6879  121.7551   61.0846 H   0  0  0  0  0  0  0  0  0  0  0  0
  127.7480  125.4156   68.4547 H   0  0  0  0  0  0  0  0  0  0  0  0
  127.0196  125.8644   70.7877 H   0  0  0  0  0  0  0  0  0  0  0  0
  1  2  1  0
  2  3  1  0
  3  4  1  0
  4  5  2  0
  4  6  1  0
  6  7  2  0
  7  8  1  0
  8  9  2  0
  9 10  1  0
 10 11  1  0
 11 12  2  0
 11 13  1  0
 13 14  1  0
 14 15  1  0
 15 16  2  0
 16 17  1  0
 17 18  1  0
 17 19  2  0
 19 20  1  0
 20 21  1  0
 21 22  1  0
 21 23  1  0
 21 24  1  0
 20 25  2  0
 25 26  1  0
 26 27  3  0
  9 28  1  0
 28 29  2  0
 29  6  1  0
 25 15  1  0
  1 30  1  0
  1 31  1  0
  1 32  1  0
  2 33  1  0
  2 34  1  0
  7 35  1  0
  8 36  1  0
 10 37  1  0
 13 38  1  0
 13 39  1  0
 18 40  1  0
 18 41  1  0
 18 42  1  0
 19 43  1  0
 28 44  1  0
 29 45  1  0
M  END
>  <Binding energies>  (1) 
[-7.43]

>  <Ligand effiencies>  (1) 
[-0.24766666666666665]

>  <Interactions>  (1) 
["V-A:LEU:475:CD1:4254, V-A:ARG:545:CZ:4923, V-A:ILE:369:CB:3232, H-A:ARG:545:NH2:4925, H-A:GLY:454:N:4046, V-A:ILE:369:CG1:3234, V-A:GLY:454:CA:4045, V-B:TYR:539:CE2:9845, V-A:HIS:456:CE1:4066, V-A:GLU:543:CD:4905, V-A:TYR:484:CZ:4343, V-B:GLU:543:C:9871, V-B:GLU:543:CB:9875, V-B:HIS:456:CE1:9038, V-A:TYR:484:CE1:4341, V-B:GLY:544:C:9881, V-A:HIS:456:CD2:4064, V-B:HIS:456:CD2:9036, V-A:GLU:543:CB:4903, V-B:TYR:539:CD2:9843, V-B:ALA:541:CB:9861, H-A:ARG:545:NE:4921, H-A:TYR:484:OH:4344, V-B:LYS:547:CE:9919, V-B:HIS:456:CG:9034, V-B:HIS:456:C:9029, V-B:HIS:456:CB:9033, V-B:HIS:456:CA:9031, V-B:LYS:547:CD:9918, V-B:ARG:545:C:9886, H-A:LYS:547:NZ:4948, V-A:LEU:475:CD2:4255, V-A:GLY:453:C:4038, V-A:GLY:453:CA:4040, V-A:LEU:475:CG:4253"]

$$$$
2aa_Ghoteimi_2023
     RDKit          3D

 85 90  0  0  0  0  0  0  0  0999 V2000
  127.7270  136.3780   61.7460 C   0  0  0  0  0  0  0  0  0  0  0  0
  127.7400  135.1660   60.8090 C   0  0  0  0  0  0  0  0  0  0  0  0
  126.6510  135.2620   59.9010 O   0  0  0  0  0  0  0  0  0  0  0  0
  125.5110  134.5480   60.0930 C   0  0  0  0  0  0  0  0  0  0  0  0
  124.5050  134.6680   59.3860 O   0  0  0  0  0  0  0  0  0  0  0  0
  125.6010  133.5870   61.2440 C   0  0  0  0  0  0  0  0  0  0  0  0
  126.4770  132.4920   61.2270 C   0  0  0  0  0  0  0  0  0  0  0  0
  126.5400  131.6210   62.3100 C   0  0  0  0  0  0  0  0  0  0  0  0
  125.7260  131.8200   63.4270 C   0  0  0  0  0  0  0  0  0  0  0  0
  125.8740  130.8810   64.4660 N   0  0  0  0  0  0  0  0  0  0  0  0
  125.5320  129.5750   64.5070 C   0  0  0  0  0  0  0  0  0  0  0  0
  125.0290  128.9450   63.5750 O   0  0  0  0  0  0  0  0  0  0  0  0
  125.8410  128.8760   65.8380 C   0  0  0  0  0  0  0  0  0  0  0  0
  127.1540  129.2400   66.2790 O   0  0  0  0  0  0  0  0  0  0  0  0
  128.0740  128.2550   66.6130 C   0  0  0  0  0  0  0  0  0  0  0  0
  128.2520  127.9670   67.9330 N   0  0  0  0  0  0  0  0  0  0  0  0
  129.1410  127.0080   68.2940 C   0  0  0  0  0  0  0  0  0  0  0  0
  129.2880  126.7500   69.7610 C   0  0  0  0  0  0  0  0  0  0  0  0
  128.4480  125.8400   70.4130 C   0  0  0  0  0  0  0  0  0  0  0  0
  128.5840  125.5910   71.7760 C   0  0  0  0  0  0  0  0  0  0  0  0
  129.5750  126.2330   72.5360 C   0  0  0  0  0  0  0  0  0  0  0  0
  129.7170  126.0030   73.9090 N   0  0  0  0  0  0  0  0  0  0  0  0
  130.9390  125.3840   74.4640 C   0  0  0  0  0  0  0  0  0  0  0  0
  130.7810  124.8880   75.9160 C   0  0  0  0  0  0  0  0  0  0  0  0
  130.3270  125.9450   76.7450 O   0  0  0  0  0  0  0  0  0  0  0  0
  129.0670  126.4370   76.3150 C   0  0  0  0  0  0  0  0  0  0  0  0
  129.1740  126.9810   74.8740 C   0  0  0  0  0  0  0  0  0  0  0  0
  130.4000  127.1590   71.8820 C   0  0  0  0  0  0  0  0  0  0  0  0
  130.2610  127.4100   70.5190 C   0  0  0  0  0  0  0  0  0  0  0  0
  129.8910  126.3200   67.3360 C   0  0  0  0  0  0  0  0  0  0  0  0
  129.7350  126.6050   65.9730 C   0  0  0  0  0  0  0  0  0  0  0  0
  130.5830  125.8540   64.9970 C   0  0  0  0  0  0  0  0  0  0  0  0
  129.9930  125.0070   64.0560 C   0  0  0  0  0  0  0  0  0  0  0  0
  130.7780  124.2900   63.1570 C   0  0  0  0  0  0  0  0  0  0  0  0
  132.1780  124.3880   63.1840 C   0  0  0  0  0  0  0  0  0  0  0  0
  132.9850  123.6800   62.2890 N   0  0  0  0  0  0  0  0  0  0  0  0
  133.0600  124.0500   60.8630 C   0  0  0  0  0  0  0  0  0  0  0  0
  134.2480  123.4010   60.1210 C   0  0  0  0  0  0  0  0  0  0  0  0
  134.2030  121.9910   60.2760 O   0  0  0  0  0  0  0  0  0  0  0  0
  134.2790  121.6130   61.6410 C   0  0  0  0  0  0  0  0  0  0  0  0
  133.0920  122.2130   62.4230 C   0  0  0  0  0  0  0  0  0  0  0  0
  132.7600  125.2460   64.1270 C   0  0  0  0  0  0  0  0  0  0  0  0
  131.9760  125.9630   65.0250 C   0  0  0  0  0  0  0  0  0  0  0  0
  128.7900  127.5890   65.6020 C   0  0  0  0  0  0  0  0  0  0  0  0
  128.5240  127.9170   64.2000 C   0  0  0  0  0  0  0  0  0  0  0  0
  128.3150  128.1750   63.0910 N   0  0  0  0  0  0  0  0  0  0  0  0
  124.8530  132.9170   63.4540 C   0  0  0  0  0  0  0  0  0  0  0  0
  124.7940  133.7890   62.3700 C   0  0  0  0  0  0  0  0  0  0  0  0
  127.7307  136.0338   62.7908 H   0  0  0  0  0  0  0  0  0  0  0  0
  128.6186  136.9948   61.5600 H   0  0  0  0  0  0  0  0  0  0  0  0
  126.8224  136.9756   61.5600 H   0  0  0  0  0  0  0  0  0  0  0  0
  128.6857  135.1458   60.2476 H   0  0  0  0  0  0  0  0  0  0  0  0
  127.6466  134.2428   61.3997 H   0  0  0  0  0  0  0  0  0  0  0  0
  127.1193  132.3205   60.3506 H   0  0  0  0  0  0  0  0  0  0  0  0
  127.2360  130.7695   62.2862 H   0  0  0  0  0  0  0  0  0  0  0  0
  126.3420  131.2430   65.2850 H   0  0  0  0  0  0  0  0  0  0  0  0
  125.1028  129.1840   66.5931 H   0  0  0  0  0  0  0  0  0  0  0  0
  125.7921  127.7861   65.6979 H   0  0  0  0  0  0  0  0  0  0  0  0
  127.6696  125.3142   69.8406 H   0  0  0  0  0  0  0  0  0  0  0  0
  127.9035  124.8791   72.2660 H   0  0  0  0  0  0  0  0  0  0  0  0
  131.2108  124.5257   73.8319 H   0  0  0  0  0  0  0  0  0  0  0  0
  131.7163  126.1623   74.4740 H   0  0  0  0  0  0  0  0  0  0  0  0
  130.0508  124.0657   75.9422 H   0  0  0  0  0  0  0  0  0  0  0  0
  131.7556  124.5348   76.2840 H   0  0  0  0  0  0  0  0  0  0  0  0
  128.3293  125.6215   76.3423 H   0  0  0  0  0  0  0  0  0  0  0  0
  128.7504  127.2503   76.9845 H   0  0  0  0  0  0  0  0  0  0  0  0
  128.1691  127.2779   74.5393 H   0  0  0  0  0  0  0  0  0  0  0  0
  129.8746  127.8286   74.9015 H   0  0  0  0  0  0  0  0  0  0  0  0
  131.1700  127.6963   72.4550 H   0  0  0  0  0  0  0  0  0  0  0  0
  130.9261  128.1379   70.0314 H   0  0  0  0  0  0  0  0  0  0  0  0
  130.6087  125.5495   67.6543 H   0  0  0  0  0  0  0  0  0  0  0  0
  128.8981  124.9055   64.0249 H   0  0  0  0  0  0  0  0  0  0  0  0
  130.2943  123.6376   62.4152 H   0  0  0  0  0  0  0  0  0  0  0  0
  132.1279  123.7341   60.3717 H   0  0  0  0  0  0  0  0  0  0  0  0
  133.2062  125.1393   60.8182 H   0  0  0  0  0  0  0  0  0  0  0  0
  134.1911  123.6522   59.0516 H   0  0  0  0  0  0  0  0  0  0  0  0
  135.1898  123.7816   60.5431 H   0  0  0  0  0  0  0  0  0  0  0  0
  134.2479  120.5161   61.7172 H   0  0  0  0  0  0  0  0  0  0  0  0
  135.2198  121.9908   62.0679 H   0  0  0  0  0  0  0  0  0  0  0  0
  132.1624  121.7596   62.0484 H   0  0  0  0  0  0  0  0  0  0  0  0
  133.2602  121.9948   63.4879 H   0  0  0  0  0  0  0  0  0  0  0  0
  133.8542  125.3542   64.1575 H   0  0  0  0  0  0  0  0  0  0  0  0
  132.4566  126.6215   65.7635 H   0  0  0  0  0  0  0  0  0  0  0  0
  124.2139  133.0889   64.3327 H   0  0  0  0  0  0  0  0  0  0  0  0
  124.1054  134.6464   62.3987 H   0  0  0  0  0  0  0  0  0  0  0  0
  1  2  1  0
  2  3  1  0
  3  4  1  0
  4  5  2  0
  4  6  1  0
  6  7  2  0
  7  8  1  0
  8  9  2  0
  9 10  1  0
 10 11  1  0
 11 12  2  0
 11 13  1  0
 13 14  1  0
 14 15  1  0
 15 16  2  0
 16 17  1  0
 17 18  1  0
 18 19  2  0
 19 20  1  0
 20 21  2  0
 21 22  1  0
 22 23  1  0
 23 24  1  0
 24 25  1  0
 25 26  1  0
 26 27  1  0
 21 28  1  0
 28 29  2  0
 17 30  2  0
 30 31  1  0
 31 32  1  0
 32 33  2  0
 33 34  1  0
 34 35  2  0
 35 36  1  0
 36 37  1  0
 37 38  1  0
 38 39  1  0
 39 40  1  0
 40 41  1  0
 35 42  1  0
 42 43  2  0
 31 44  2  0
 44 45  1  0
 45 46  3  0
  9 47  1  0
 47 48  2  0
 48  6  1  0
 44 15  1  0
 29 18  1  0
 43 32  1  0
 27 22  1  0
 41 36  1  0
  1 49  1  0
  1 50  1  0
  1 51  1  0
  2 52  1  0
  2 53  1  0
  7 54  1  0
  8 55  1  0
 10 56  1  0
 13 57  1  0
 13 58  1  0
 19 59  1  0
 20 60  1  0
 23 61  1  0
 23 62  1  0
 24 63  1  0
 24 64  1  0
 26 65  1  0
 26 66  1  0
 27 67  1  0
 27 68  1  0
 28 69  1  0
 29 70  1  0
 30 71  1  0
 33 72  1  0
 34 73  1  0
 37 74  1  0
 37 75  1  0
 38 76  1  0
 38 77  1  0
 40 78  1  0
 40 79  1  0
 41 80  1  0
 41 81  1  0
 42 82  1  0
 43 83  1  0
 47 84  1  0
 48 85  1  0
M  END
>  <Binding energies>  (1) 
[-9.01]

>  <Ligand effiencies>  (1) 
[-0.18387755102040815]

>  <Interactions>  (1) 
["V-A:LEU:475:CD1:4254, V-B:GLU:543:CD:9877, V-A:ARG:545:CZ:4923, V-A:ILE:369:CB:3232, V-A:ILE:369:CG1:3234, V-A:ILE:369:CG2:3233, V-A:GLY:454:CA:4045, V-A:HIS:456:CE1:4066, V-A:GLU:543:CD:4905, V-B:GLU:543:C:9871, V-B:HIS:456:CE1:9038, V-A:HIS:456:CD2:4064, V-B:GLU:543:CG:9876, V-B:ILE:369:CG2:8205, V-B:ARG:545:CZ:9895, V-B:TRP:381:CH2:8340, V-A:ALA:541:CB:4889, V-A:TYR:539:CE2:4873, V-B:GLY:454:CA:9017, H-B:TYR:484:OH:9316, V-A:TYR:539:CD2:4871, V-B:LEU:475:CD2:9227, V-A:ASP:366:CG:3209, V-A:ALA:541:CA:4887, V-A:ASP:366:CB:3208, V-A:TYR:539:C:4864, H-B:ARG:545:NH2:9897, V-B:LYS:547:CE:9919, V-A:LYS:547:CE:4947, V-B:LYS:547:CD:9918, V-B:TRP:381:CZ2:8338, V-B:PRO:482:CG:9295, V-B:PRO:482:CB:9294, V-A:ASP:366:CA:3206, H-B:ARG:545:NH1:9896, H-B:ARG:545:NE:9893, H-B:TYR:539:OH:9847"]

$$$$
2b_Ghoteimi_2023
     RDKit          3D

 72 77  0  0  0  0  0  0  0  0999 V2000
  128.7250  127.3270   61.3700 N   0  0  0  0  0  0  0  0  0  0  0  0
  128.7330  127.3400   62.5270 C   0  0  0  0  0  0  0  0  0  0  0  0
  128.7400  127.3620   63.9930 C   0  0  0  0  0  0  0  0  0  0  0  0
  128.1050  128.4140   64.7000 C   0  0  0  0  0  0  0  0  0  0  0  0
  127.3970  129.5500   64.0390 C   0  0  0  0  0  0  0  0  0  0  0  0
  126.3210  129.3070   63.1830 C   0  0  0  0  0  0  0  0  0  0  0  0
  125.6580  130.3620   62.5630 C   0  0  0  0  0  0  0  0  0  0  0  0
  126.0650  131.6900   62.7690 C   0  0  0  0  0  0  0  0  0  0  0  0
  125.4080  132.7660   62.1700 N   0  0  0  0  0  0  0  0  0  0  0  0
  124.2220  133.3440   62.8330 C   0  0  0  0  0  0  0  0  0  0  0  0
  123.3830  134.2480   61.9050 C   0  0  0  0  0  0  0  0  0  0  0  0
  124.2000  135.2640   61.3420 O   0  0  0  0  0  0  0  0  0  0  0  0
  125.2640  134.7170   60.5790 C   0  0  0  0  0  0  0  0  0  0  0  0
  126.1550  133.8340   61.4760 C   0  0  0  0  0  0  0  0  0  0  0  0
  127.1480  131.9240   63.6280 C   0  0  0  0  0  0  0  0  0  0  0  0
  127.8080  130.8690   64.2510 C   0  0  0  0  0  0  0  0  0  0  0  0
  128.1340  128.3890   66.1000 C   0  0  0  0  0  0  0  0  0  0  0  0
  128.7490  127.3310   66.7760 C   0  0  0  0  0  0  0  0  0  0  0  0
  128.7810  127.2420   68.2690 C   0  0  0  0  0  0  0  0  0  0  0  0
  127.8130  126.5050   68.9610 C   0  0  0  0  0  0  0  0  0  0  0  0
  127.8470  126.4050   70.3490 C   0  0  0  0  0  0  0  0  0  0  0  0
  128.8420  127.0490   71.1000 C   0  0  0  0  0  0  0  0  0  0  0  0
  128.9060  126.9320   72.4930 N   0  0  0  0  0  0  0  0  0  0  0  0
  130.0350  126.2140   73.1210 C   0  0  0  0  0  0  0  0  0  0  0  0
  129.7800  125.8290   74.5940 C   0  0  0  0  0  0  0  0  0  0  0  0
  129.4300  126.9820   75.3440 O   0  0  0  0  0  0  0  0  0  0  0  0
  128.2480  127.5870   74.8460 C   0  0  0  0  0  0  0  0  0  0  0  0
  128.4540  128.0220   73.3790 C   0  0  0  0  0  0  0  0  0  0  0  0
  129.8140  127.7800   70.4020 C   0  0  0  0  0  0  0  0  0  0  0  0
  129.7820  127.8780   69.0140 C   0  0  0  0  0  0  0  0  0  0  0  0
  129.3550  126.3250   66.0970 N   0  0  0  0  0  0  0  0  0  0  0  0
  129.3700  126.3440   64.7430 C   0  0  0  0  0  0  0  0  0  0  0  0
  130.2100  124.9520   64.0200 S   0  0  0  0  0  0  0  0  0  0  0  0
  131.7880  124.7460   64.9000 C   0  0  0  0  0  0  0  0  0  0  0  0
  132.9690  124.6030   63.9390 C   0  0  0  0  0  0  0  0  0  0  0  0
  134.1030  124.8850   64.3290 O   0  0  0  0  0  0  0  0  0  0  0  0
  132.6590  124.1700   62.6970 N   0  0  0  0  0  0  0  0  0  0  0  0
  133.5310  123.9450   61.6420 C   0  0  0  0  0  0  0  0  0  0  0  0
  133.1030  123.7590   60.3280 C   0  0  0  0  0  0  0  0  0  0  0  0
  134.2550  123.5690   59.6010 C   0  0  0  0  0  0  0  0  0  0  0  0
  135.3210  123.6380   60.4330 O   0  0  0  0  0  0  0  0  0  0  0  0
  134.8490  123.8790   61.7250 N   0  0  0  0  0  0  0  0  0  0  0  0
  125.9946  128.2731   62.9971 H   0  0  0  0  0  0  0  0  0  0  0  0
  124.8035  130.1527   61.9026 H   0  0  0  0  0  0  0  0  0  0  0  0
  123.5846  132.5207   63.1878 H   0  0  0  0  0  0  0  0  0  0  0  0
  124.5851  133.9731   63.6591 H   0  0  0  0  0  0  0  0  0  0  0  0
  122.9517  133.6389   61.0969 H   0  0  0  0  0  0  0  0  0  0  0  0
  122.5790  134.7170   62.4911 H   0  0  0  0  0  0  0  0  0  0  0  0
  124.8508  134.1069   59.7623 H   0  0  0  0  0  0  0  0  0  0  0  0
  125.8689  135.5361   60.1628 H   0  0  0  0  0  0  0  0  0  0  0  0
  126.9290  133.3678   60.8486 H   0  0  0  0  0  0  0  0  0  0  0  0
  126.5863  134.4860   62.2499 H   0  0  0  0  0  0  0  0  0  0  0  0
  127.4808  132.9562   63.8122 H   0  0  0  0  0  0  0  0  0  0  0  0
  128.6600  131.0748   64.9156 H   0  0  0  0  0  0  0  0  0  0  0  0
  127.6701  129.2067   66.6711 H   0  0  0  0  0  0  0  0  0  0  0  0
  127.0142  125.9977   68.4002 H   0  0  0  0  0  0  0  0  0  0  0  0
  127.0799  125.8103   70.8665 H   0  0  0  0  0  0  0  0  0  0  0  0
  130.2233  125.2937   72.5486 H   0  0  0  0  0  0  0  0  0  0  0  0
  130.8973  126.8969   73.1108 H   0  0  0  0  0  0  0  0  0  0  0  0
  128.9581  125.0995   74.6427 H   0  0  0  0  0  0  0  0  0  0  0  0
  130.6956  125.3885   75.0155 H   0  0  0  0  0  0  0  0  0  0  0  0
  127.4195  126.8653   74.8989 H   0  0  0  0  0  0  0  0  0  0  0  0
  128.0118  128.4721   75.4549 H   0  0  0  0  0  0  0  0  0  0  0  0
  127.4986  128.4082   72.9942 H   0  0  0  0  0  0  0  0  0  0  0  0
  129.2467  128.7847   73.3790 H   0  0  0  0  0  0  0  0  0  0  0  0
  130.6157  128.2847   70.9611 H   0  0  0  0  0  0  0  0  0  0  0  0
  130.5545  128.4638   68.4943 H   0  0  0  0  0  0  0  0  0  0  0  0
  131.9552  125.6258   65.5388 H   0  0  0  0  0  0  0  0  0  0  0  0
  131.7245  123.8247   65.4976 H   0  0  0  0  0  0  0  0  0  0  0  0
  131.6900  123.9590   62.5100 H   0  0  0  0  0  0  0  0  0  0  0  0
  132.0685  123.7633   59.9540 H   0  0  0  0  0  0  0  0  0  0  0  0
  134.3027  123.3896   58.5168 H   0  0  0  0  0  0  0  0  0  0  0  0
  1  2  3  0
  2  3  1  0
  3  4  2  0
  4  5  1  0
  5  6  2  0
  6  7  1  0
  7  8  2  0
  8  9  1  0
  9 10  1  0
 10 11  1  0
 11 12  1  0
 12 13  1  0
 13 14  1  0
  8 15  1  0
 15 16  2  0
  4 17  1  0
 17 18  2  0
 18 19  1  0
 19 20  2  0
 20 21  1  0
 21 22  2  0
 22 23  1  0
 23 24  1  0
 24 25  1  0
 25 26  1  0
 26 27  1  0
 27 28  1  0
 22 29  1  0
 29 30  2  0
 18 31  1  0
 31 32  2  0
 32 33  1  0
 33 34  1  0
 34 35  1  0
 35 36  2  0
 35 37  1  0
 37 38  1  0
 38 39  1  0
 39 40  2  0
 40 41  1  0
 41 42  1  0
 32  3  1  0
 42 38  2  0
 16  5  1  0
 30 19  1  0
 14  9  1  0
 28 23  1  0
  6 43  1  0
  7 44  1  0
 10 45  1  0
 10 46  1  0
 11 47  1  0
 11 48  1  0
 13 49  1  0
 13 50  1  0
 14 51  1  0
 14 52  1  0
 15 53  1  0
 16 54  1  0
 17 55  1  0
 20 56  1  0
 21 57  1  0
 24 58  1  0
 24 59  1  0
 25 60  1  0
 25 61  1  0
 27 62  1  0
 27 63  1  0
 28 64  1  0
 28 65  1  0
 29 66  1  0
 30 67  1  0
 34 68  1  0
 34 69  1  0
 37 70  1  0
 39 71  1  0
 40 72  1  0
M  END
>  <Binding energies>  (1) 
[-10.14]

>  <Ligand effiencies>  (1) 
[-0.2358139534883721]

>  <Interactions>  (1) 
["V-B:GLU:543:CD:9877, V-A:ARG:545:CZ:4923, V-A:ILE:369:CB:3232, H-A:ARG:545:NH1:4924, H-A:GLY:454:N:4046, V-A:ILE:369:CG1:3234, V-A:ILE:369:CG2:3233, V-B:TYR:539:CE2:9845, V-A:HIS:456:CE1:4066, V-A:GLU:543:CD:4905, V-A:GLU:543:CG:4904, V-B:GLU:543:C:9871, V-B:GLU:543:CB:9875, V-B:HIS:456:CE1:9038, V-B:GLY:544:C:9881, V-A:HIS:456:CD2:4064, V-B:HIS:456:CD2:9036, V-A:GLU:543:CB:4903, V-B:GLU:543:CG:9876, V-B:ILE:369:CD1:8207, V-B:ILE:369:CG2:8205, V-B:TRP:381:CH2:8340, V-A:ALA:541:CB:4889, V-B:GLY:454:CA:9017, V-A:TYR:539:CD2:4871, V-B:LEU:475:CD2:9227, V-B:ASP:366:CG:8181, V-A:ASP:366:CG:3209, V-A:ASP:366:CB:3208, H-A:ARG:545:NE:4921, V-B:LYS:547:CE:9919, V-A:LYS:547:CE:4947, V-B:LYS:547:CD:9918, H-A:LYS:547:NZ:4948, V-A:ASP:366:CA:3206, V-B:ILE:369:CG1:8206, V-B:SER:385:C:8373"]

$$$$
2b_Grossjean_2025
     RDKit          3D

 42 43  0  0  0  0  0  0  0  0999 V2000
  129.2670  129.9070   73.0120 C   0  0  0  0  0  0  0  0  0  0  0  0
  129.3760  128.4930   73.0980 O   0  0  0  0  0  0  0  0  0  0  0  0
  128.4400  127.6850   72.5380 C   0  0  0  0  0  0  0  0  0  0  0  0
  127.4460  127.2730   73.1440 O   0  0  0  0  0  0  0  0  0  0  0  0
  128.7360  127.3380   71.1070 C   0  0  0  0  0  0  0  0  0  0  0  0
  127.9720  126.4000   70.3980 C   0  0  0  0  0  0  0  0  0  0  0  0
  128.2740  126.0990   69.0720 C   0  0  0  0  0  0  0  0  0  0  0  0
  129.3370  126.7310   68.4290 C   0  0  0  0  0  0  0  0  0  0  0  0
  129.5590  126.3490   67.0910 N   0  0  0  0  0  0  0  0  0  0  0  0
  130.6220  126.5820   66.2930 C   0  0  0  0  0  0  0  0  0  0  0  0
  131.6230  127.2260   66.6090 O   0  0  0  0  0  0  0  0  0  0  0  0
  130.5210  125.9920   64.8830 C   0  0  0  0  0  0  0  0  0  0  0  0
  130.1360  124.2100   64.8770 S   0  0  0  0  0  0  0  0  0  0  0  0
  130.7380  123.4620   63.3690 C   0  0  0  0  0  0  0  0  0  0  0  0
  129.8030  122.8370   62.6070 N   0  0  0  0  0  0  0  0  0  0  0  0
  130.1880  122.2440   61.4550 C   0  0  0  0  0  0  0  0  0  0  0  0
  129.0870  121.5580   60.6700 C   0  0  0  0  0  0  0  0  0  0  0  0
  131.5070  122.2540   61.0100 C   0  0  0  0  0  0  0  0  0  0  0  0
  132.4890  122.8990   61.7770 C   0  0  0  0  0  0  0  0  0  0  0  0
  133.9430  122.9050   61.2680 C   0  0  0  0  0  0  0  0  0  0  0  0
  133.9590  122.8360   59.9360 F   0  0  0  0  0  0  0  0  0  0  0  0
  134.5590  124.0240   61.6510 F   0  0  0  0  0  0  0  0  0  0  0  0
  134.6570  121.8760   61.7320 F   0  0  0  0  0  0  0  0  0  0  0  0
  132.1000  123.5200   62.9920 C   0  0  0  0  0  0  0  0  0  0  0  0
  133.0850  124.2040   63.8360 C   0  0  0  0  0  0  0  0  0  0  0  0
  133.8630  124.7440   64.5010 N   0  0  0  0  0  0  0  0  0  0  0  0
  130.1120  127.6650   69.1330 C   0  0  0  0  0  0  0  0  0  0  0  0
  129.8090  127.9630   70.4580 C   0  0  0  0  0  0  0  0  0  0  0  0
  129.2340  130.3345   74.0250 H   0  0  0  0  0  0  0  0  0  0  0  0
  130.1368  130.3096   72.4722 H   0  0  0  0  0  0  0  0  0  0  0  0
  128.3458  130.1716   72.4722 H   0  0  0  0  0  0  0  0  0  0  0  0
  127.1276  125.8980   70.8929 H   0  0  0  0  0  0  0  0  0  0  0  0
  127.6696  125.3577   68.5287 H   0  0  0  0  0  0  0  0  0  0  0  0
  128.7790  125.8710   66.6640 H   0  0  0  0  0  0  0  0  0  0  0  0
  129.7270  126.5232   64.3376 H   0  0  0  0  0  0  0  0  0  0  0  0
  131.5040  126.1160   64.4052 H   0  0  0  0  0  0  0  0  0  0  0  0
  128.3650  121.1082   61.3675 H   0  0  0  0  0  0  0  0  0  0  0  0
  128.5736  122.2964   60.0365 H   0  0  0  0  0  0  0  0  0  0  0  0
  129.5236  120.7718   60.0365 H   0  0  0  0  0  0  0  0  0  0  0  0
  131.7771  121.7603   60.0649 H   0  0  0  0  0  0  0  0  0  0  0  0
  130.9592  128.1617   68.6375 H   0  0  0  0  0  0  0  0  0  0  0  0
  130.4194  128.6983   71.0027 H   0  0  0  0  0  0  0  0  0  0  0  0
  1  2  1  0
  2  3  1  0
  3  4  2  0
  3  5  1  0
  5  6  2  0
  6  7  1  0
  7  8  2  0
  8  9  1  0
  9 10  1  0
 10 11  2  0
 10 12  1  0
 12 13  1  0
 13 14  1  0
 14 15  2  0
 15 16  1  0
 16 17  1  0
 16 18  2  0
 18 19  1  0
 19 20  1  0
 20 21  1  0
 20 22  1  0
 20 23  1  0
 19 24  2  0
 24 25  1  0
 25 26  3  0
  8 27  1  0
 27 28  2  0
 28  5  1  0
 24 14  1  0
  1 29  1  0
  1 30  1  0
  1 31  1  0
  6 32  1  0
  7 33  1  0
  9 34  1  0
 12 35  1  0
 12 36  1  0
 17 37  1  0
 17 38  1  0
 17 39  1  0
 18 40  1  0
 27 41  1  0
 28 42  1  0
M  END
>  <Binding energies>  (1) 
[-7.04]

>  <Ligand effiencies>  (1) 
[-0.24275862068965517]

>  <Interactions>  (1) 
["V-A:LEU:475:CD1:4254, V-A:ILE:369:CB:3232, H-A:GLY:454:N:4046, V-A:ILE:369:CG1:3234, V-A:ILE:369:CG2:3233, V-A:GLY:454:CA:4045, V-B:TYR:539:CE2:9845, V-A:HIS:456:CE1:4066, V-B:GLU:543:C:9871, V-B:GLU:543:CB:9875, V-B:HIS:456:CE1:9038, V-B:GLY:544:C:9881, V-B:HIS:456:CD2:9036, V-B:TYR:539:CZ:9846, V-B:TYR:539:CD2:9843, V-B:ALA:541:CB:9861, V-A:ASP:366:CG:3209, H-A:ARG:545:NE:4921, H-A:TYR:484:OH:4344, H-B:GLU:543:OE1:9878, V-A:LYS:547:CE:4947, H-A:LYS:547:NZ:4948, V-A:GLY:453:C:4038, V-A:GLY:453:CA:4040"]

$$$$
2c_Ghoteimi_2023
     RDKit          3D

 72 77  0  0  0  0  0  0  0  0999 V2000
  128.6240  128.2600   62.5690 N   0  0  0  0  0  0  0  0  0  0  0  0
  128.7320  128.0550   63.7020 C   0  0  0  0  0  0  0  0  0  0  0  0
  128.8740  127.7910   65.1380 C   0  0  0  0  0  0  0  0  0  0  0  0
  129.7740  126.8010   65.6040 C   0  0  0  0  0  0  0  0  0  0  0  0
  130.6270  125.9640   64.7080 C   0  0  0  0  0  0  0  0  0  0  0  0
  130.0390  125.1530   63.7350 C   0  0  0  0  0  0  0  0  0  0  0  0
  130.8280  124.3730   62.8930 C   0  0  0  0  0  0  0  0  0  0  0  0
  132.2260  124.3720   63.0090 C   0  0  0  0  0  0  0  0  0  0  0  0
  133.0370  123.6130   62.1620 N   0  0  0  0  0  0  0  0  0  0  0  0
  133.1270  122.1530   62.3640 C   0  0  0  0  0  0  0  0  0  0  0  0
  134.3250  121.5090   61.6350 C   0  0  0  0  0  0  0  0  0  0  0  0
  134.2810  121.8280   60.2520 O   0  0  0  0  0  0  0  0  0  0  0  0
  134.3390  123.2290   60.0340 C   0  0  0  0  0  0  0  0  0  0  0  0
  133.1420  123.9180   60.7220 C   0  0  0  0  0  0  0  0  0  0  0  0
  132.8070  125.1870   63.9920 C   0  0  0  0  0  0  0  0  0  0  0  0
  132.0190  125.9680   64.8320 C   0  0  0  0  0  0  0  0  0  0  0  0
  129.8760  126.5900   66.9850 C   0  0  0  0  0  0  0  0  0  0  0  0
  129.1240  127.3600   67.8770 C   0  0  0  0  0  0  0  0  0  0  0  0
  129.2090  127.1850   69.3590 C   0  0  0  0  0  0  0  0  0  0  0  0
  130.2610  127.7510   70.0860 C   0  0  0  0  0  0  0  0  0  0  0  0
  130.3430  127.5960   71.4680 C   0  0  0  0  0  0  0  0  0  0  0  0
  129.3800  126.8580   72.1730 C   0  0  0  0  0  0  0  0  0  0  0  0
  129.4340  126.7140   73.5640 N   0  0  0  0  0  0  0  0  0  0  0  0
  128.3270  127.2230   74.4000 C   0  0  0  0  0  0  0  0  0  0  0  0
  128.6870  127.3470   75.8950 C   0  0  0  0  0  0  0  0  0  0  0  0
  129.1580  126.1030   76.3860 O   0  0  0  0  0  0  0  0  0  0  0  0
  130.3220  125.6790   75.6950 C   0  0  0  0  0  0  0  0  0  0  0  0
  130.0150  125.5100   74.1920 C   0  0  0  0  0  0  0  0  0  0  0  0
  128.3200  126.3030   71.4420 C   0  0  0  0  0  0  0  0  0  0  0  0
  128.2380  126.4590   70.0610 C   0  0  0  0  0  0  0  0  0  0  0  0
  128.2640  128.3100   67.4280 N   0  0  0  0  0  0  0  0  0  0  0  0
  128.1240  128.5110   66.0960 C   0  0  0  0  0  0  0  0  0  0  0  0
  126.9500  129.7820   65.6870 S   0  0  0  0  0  0  0  0  0  0  0  0
  125.9180  129.1550   64.3280 C   0  0  0  0  0  0  0  0  0  0  0  0
  125.0190  130.2450   63.7400 C   0  0  0  0  0  0  0  0  0  0  0  0
  123.7960  130.1430   63.8500 O   0  0  0  0  0  0  0  0  0  0  0  0
  125.6620  131.2600   63.1240 N   0  0  0  0  0  0  0  0  0  0  0  0
  125.0810  132.3700   62.5280 C   0  0  0  0  0  0  0  0  0  0  0  0
  123.9310  132.9360   62.8250 N   0  0  0  0  0  0  0  0  0  0  0  0
  123.6930  133.9810   62.0570 C   0  0  0  0  0  0  0  0  0  0  0  0
  124.6650  134.2810   61.1080 C   0  0  0  0  0  0  0  0  0  0  0  0
  125.9580  133.1260   61.2380 S   0  0  0  0  0  0  0  0  0  0  0  0
  128.9440  125.1300   63.6328 H   0  0  0  0  0  0  0  0  0  0  0  0
  130.3477  123.7483   62.1255 H   0  0  0  0  0  0  0  0  0  0  0  0
  133.2264  121.9550   63.4415 H   0  0  0  0  0  0  0  0  0  0  0  0
  132.2126  121.7088   61.9438 H   0  0  0  0  0  0  0  0  0  0  0  0
  135.2620  121.8903   62.0671 H   0  0  0  0  0  0  0  0  0  0  0  0
  134.2758  120.4167   61.7552 H   0  0  0  0  0  0  0  0  0  0  0  0
  135.2767  123.6245   60.4515 H   0  0  0  0  0  0  0  0  0  0  0  0
  134.2995  123.4291   58.9531 H   0  0  0  0  0  0  0  0  0  0  0  0
  133.2510  125.0061   60.6034 H   0  0  0  0  0  0  0  0  0  0  0  0
  132.2287  123.5362   60.2424 H   0  0  0  0  0  0  0  0  0  0  0  0
  133.9014  125.2090   64.1004 H   0  0  0  0  0  0  0  0  0  0  0  0
  132.4960  126.5941   65.6004 H   0  0  0  0  0  0  0  0  0  0  0  0
  130.5526  125.8130   67.3703 H   0  0  0  0  0  0  0  0  0  0  0  0
  131.0354  128.3273   69.5586 H   0  0  0  0  0  0  0  0  0  0  0  0
  131.1766  128.0599   72.0157 H   0  0  0  0  0  0  0  0  0  0  0  0
  128.0396  128.2175   74.0281 H   0  0  0  0  0  0  0  0  0  0  0  0
  127.5061  126.4945   74.3258 H   0  0  0  0  0  0  0  0  0  0  0  0
  129.4717  128.1079   76.0187 H   0  0  0  0  0  0  0  0  0  0  0  0
  127.7895  127.6409   76.4590 H   0  0  0  0  0  0  0  0  0  0  0  0
  131.1146  126.4311   75.8220 H   0  0  0  0  0  0  0  0  0  0  0  0
  130.6526  124.7135   76.1055 H   0  0  0  0  0  0  0  0  0  0  0  0
  130.9528  125.2655   73.6717 H   0  0  0  0  0  0  0  0  0  0  0  0
  129.2652  124.7098   74.1058 H   0  0  0  0  0  0  0  0  0  0  0  0
  127.5396  125.7344   71.9689 H   0  0  0  0  0  0  0  0  0  0  0  0
  127.3987  126.0057   69.5132 H   0  0  0  0  0  0  0  0  0  0  0  0
  126.5735  128.7686   63.5336 H   0  0  0  0  0  0  0  0  0  0  0  0
  125.2709  128.3621   64.7311 H   0  0  0  0  0  0  0  0  0  0  0  0
  126.6720  131.2330   63.1080 H   0  0  0  0  0  0  0  0  0  0  0  0
  122.7774  134.5818   62.1608 H   0  0  0  0  0  0  0  0  0  0  0  0
  124.6224  135.1143   60.3912 H   0  0  0  0  0  0  0  0  0  0  0  0
  1  2  3  0
  2  3  1  0
  3  4  2  0
  4  5  1  0
  5  6  2  0
  6  7  1  0
  7  8  2  0
  8  9  1  0
  9 10  1  0
 10 11  1  0
 11 12  1  0
 12 13  1  0
 13 14  1  0
  8 15  1  0
 15 16  2  0
  4 17  1  0
 17 18  2  0
 18 19  1  0
 19 20  2  0
 20 21  1  0
 21 22  2  0
 22 23  1  0
 23 24  1  0
 24 25  1  0
 25 26  1  0
 26 27  1  0
 27 28  1  0
 22 29  1  0
 29 30  2  0
 18 31  1  0
 31 32  2  0
 32 33  1  0
 33 34  1  0
 34 35  1  0
 35 36  2  0
 35 37  1  0
 37 38  1  0
 38 39  2  0
 39 40  1  0
 40 41  2  0
 41 42  1  0
 32  3  1  0
 42 38  1  0
 16  5  1  0
 30 19  1  0
 14  9  1  0
 28 23  1  0
  6 43  1  0
  7 44  1  0
 10 45  1  0
 10 46  1  0
 11 47  1  0
 11 48  1  0
 13 49  1  0
 13 50  1  0
 14 51  1  0
 14 52  1  0
 15 53  1  0
 16 54  1  0
 17 55  1  0
 20 56  1  0
 21 57  1  0
 24 58  1  0
 24 59  1  0
 25 60  1  0
 25 61  1  0
 27 62  1  0
 27 63  1  0
 28 64  1  0
 28 65  1  0
 29 66  1  0
 30 67  1  0
 34 68  1  0
 34 69  1  0
 37 70  1  0
 40 71  1  0
 41 72  1  0
M  END
>  <Binding energies>  (1) 
[-10.1]

>  <Ligand effiencies>  (1) 
[-0.23488372093023255]

>  <Interactions>  (1) 
["V-A:LEU:475:CD1:4254, V-B:GLU:543:CD:9877, V-A:ARG:545:CZ:4923, V-A:ILE:369:CB:3232, V-A:ILE:369:CG1:3234, V-A:ILE:369:CG2:3233, V-A:GLY:454:CA:4045, V-A:HIS:456:CE1:4066, V-A:GLU:543:CD:4905, V-B:HIS:456:CE1:9038, V-A:HIS:456:CD2:4064, V-B:ILE:369:CD1:8207, V-B:ILE:369:CG2:8205, V-B:ARG:545:CZ:9895, V-B:GLY:454:CA:9017, H-B:TYR:484:OH:9316, V-B:LEU:475:CD2:9227, V-A:ASP:366:CG:3209, H-B:ARG:545:NH2:9897, V-B:LYS:547:CE:9919, V-A:LYS:547:CE:4947, V-B:LYS:547:CD:9918, H-B:GLY:454:N:9018, V-A:ASP:366:CA:3206, H-B:ARG:545:NH1:9896, H-B:TYR:539:OH:9847"]

$$$$
2c_Grossjean_2025
     RDKit          3D

 40 41  0  0  0  0  0  0  0  0999 V2000
  128.0930  128.0740   73.4500 C   0  0  0  0  0  0  0  0  0  0  0  0
  129.3540  127.8550   72.8270 O   0  0  0  0  0  0  0  0  0  0  0  0
  129.3930  127.4780   71.4990 C   0  0  0  0  0  0  0  0  0  0  0  0
  130.3720  128.0810   70.7090 C   0  0  0  0  0  0  0  0  0  0  0  0
  130.4890  127.7670   69.3580 C   0  0  0  0  0  0  0  0  0  0  0  0
  129.6090  126.8430   68.7760 C   0  0  0  0  0  0  0  0  0  0  0  0
  129.6620  126.4490   67.4260 N   0  0  0  0  0  0  0  0  0  0  0  0
  130.6280  126.6900   66.5150 C   0  0  0  0  0  0  0  0  0  0  0  0
  131.6350  127.3700   66.7240 O   0  0  0  0  0  0  0  0  0  0  0  0
  130.3780  126.0780   65.1280 C   0  0  0  0  0  0  0  0  0  0  0  0
  130.1400  124.2670   65.1010 S   0  0  0  0  0  0  0  0  0  0  0  0
  130.7360  123.6120   63.5470 C   0  0  0  0  0  0  0  0  0  0  0  0
  129.7960  123.0440   62.7490 N   0  0  0  0  0  0  0  0  0  0  0  0
  130.1760  122.5200   61.5630 C   0  0  0  0  0  0  0  0  0  0  0  0
  129.0710  121.8900   60.7380 C   0  0  0  0  0  0  0  0  0  0  0  0
  131.4960  122.5460   61.1190 C   0  0  0  0  0  0  0  0  0  0  0  0
  132.4830  123.1330   61.9230 C   0  0  0  0  0  0  0  0  0  0  0  0
  133.9380  123.1560   61.4170 C   0  0  0  0  0  0  0  0  0  0  0  0
  134.5670  122.0400   61.7880 F   0  0  0  0  0  0  0  0  0  0  0  0
  133.9590  123.2430   60.0870 F   0  0  0  0  0  0  0  0  0  0  0  0
  134.6350  124.1880   61.8980 F   0  0  0  0  0  0  0  0  0  0  0  0
  132.0990  123.6830   63.1730 C   0  0  0  0  0  0  0  0  0  0  0  0
  133.0890  124.3080   64.0560 C   0  0  0  0  0  0  0  0  0  0  0  0
  133.8710  124.8020   64.7520 N   0  0  0  0  0  0  0  0  0  0  0  0
  128.6380  126.2250   69.5650 C   0  0  0  0  0  0  0  0  0  0  0  0
  128.5250  126.5420   70.9150 C   0  0  0  0  0  0  0  0  0  0  0  0
  128.2154  128.0527   74.5430 H   0  0  0  0  0  0  0  0  0  0  0  0
  127.6983  129.0541   73.1442 H   0  0  0  0  0  0  0  0  0  0  0  0
  127.3909  127.2843   73.1442 H   0  0  0  0  0  0  0  0  0  0  0  0
  131.0592  128.8128   71.1588 H   0  0  0  0  0  0  0  0  0  0  0  0
  131.2706  128.2429   68.7476 H   0  0  0  0  0  0  0  0  0  0  0  0
  128.8340  125.9780   67.0920 H   0  0  0  0  0  0  0  0  0  0  0  0
  129.4746  126.5451   64.7089 H   0  0  0  0  0  0  0  0  0  0  0  0
  131.2888  126.2724   64.5427 H   0  0  0  0  0  0  0  0  0  0  0  0
  128.3135  121.4581   61.4086 H   0  0  0  0  0  0  0  0  0  0  0  0
  128.6040  122.6576   60.1034 H   0  0  0  0  0  0  0  0  0  0  0  0
  129.4937  121.0971   60.1034 H   0  0  0  0  0  0  0  0  0  0  0  0
  131.7619  122.1093   60.1450 H   0  0  0  0  0  0  0  0  0  0  0  0
  127.9590  125.4841   69.1177 H   0  0  0  0  0  0  0  0  0  0  0  0
  127.7513  126.0566   71.5280 H   0  0  0  0  0  0  0  0  0  0  0  0
  1  2  1  0
  2  3  1  0
  3  4  2  0
  4  5  1  0
  5  6  2  0
  6  7  1  0
  7  8  1  0
  8  9  2  0
  8 10  1  0
 10 11  1  0
 11 12  1  0
 12 13  2  0
 13 14  1  0
 14 15  1  0
 14 16  2  0
 16 17  1  0
 17 18  1  0
 18 19  1  0
 18 20  1  0
 18 21  1  0
 17 22  2  0
 22 23  1  0
 23 24  3  0
  6 25  1  0
 25 26  2  0
 26  3  1  0
 22 12  1  0
  1 27  1  0
  1 28  1  0
  1 29  1  0
  4 30  1  0
  5 31  1  0
  7 32  1  0
 10 33  1  0
 10 34  1  0
 15 35  1  0
 15 36  1  0
 15 37  1  0
 16 38  1  0
 25 39  1  0
 26 40  1  0
M  END
>  <Binding energies>  (1) 
[-6.85]

>  <Ligand effiencies>  (1) 
[-0.2537037037037037]

>  <Interactions>  (1) 
["V-A:LEU:475:CD1:4254, V-A:ILE:369:CB:3232, H-A:GLY:454:N:4046, V-A:ILE:369:CG1:3234, V-A:ILE:369:CG2:3233, V-A:GLY:454:CA:4045, V-B:TYR:539:CE2:9845, V-A:HIS:456:CE1:4066, V-B:HIS:456:CD2:9036, V-B:TYR:539:CD2:9843, V-B:ALA:541:CB:9861, V-A:ASP:366:CG:3209, H-A:ARG:545:NE:4921, H-A:TYR:484:OH:4344, H-B:GLU:543:OE1:9878, V-A:GLU:543:C:4899, H-A:LYS:547:NZ:4948, V-A:GLY:453:C:4038, V-A:GLY:453:CA:4040, V-A:GLY:544:C:4909, V-A:ASP:366:CA:3206"]

$$$$
2d_Ghoteimi_2023
     RDKit          3D

 68 72  0  0  0  0  0  0  0  0999 V2000
  124.6110  130.1910   62.9410 C   0  0  0  0  0  0  0  0  0  0  0  0
  123.7780  130.3790   64.0750 O   0  0  0  0  0  0  0  0  0  0  0  0
  124.0960  129.8170   65.2600 C   0  0  0  0  0  0  0  0  0  0  0  0
  123.4980  130.0020   66.3240 O   0  0  0  0  0  0  0  0  0  0  0  0
  125.3130  128.8890   65.1280 C   0  0  0  0  0  0  0  0  0  0  0  0
  126.8470  129.7350   65.6410 S   0  0  0  0  0  0  0  0  0  0  0  0
  128.0520  128.4970   66.0730 C   0  0  0  0  0  0  0  0  0  0  0  0
  128.1640  128.3020   67.4100 N   0  0  0  0  0  0  0  0  0  0  0  0
  129.0510  127.3910   67.8840 C   0  0  0  0  0  0  0  0  0  0  0  0
  129.1300  127.2440   69.3690 C   0  0  0  0  0  0  0  0  0  0  0  0
  130.2120  127.7760   70.0800 C   0  0  0  0  0  0  0  0  0  0  0  0
  130.2920  127.6430   71.4640 C   0  0  0  0  0  0  0  0  0  0  0  0
  129.2880  126.9820   72.1880 C   0  0  0  0  0  0  0  0  0  0  0  0
  129.3630  126.8240   73.5770 N   0  0  0  0  0  0  0  0  0  0  0  0
  128.2950  127.3180   74.4680 C   0  0  0  0  0  0  0  0  0  0  0  0
  128.7150  127.3940   75.9510 C   0  0  0  0  0  0  0  0  0  0  0  0
  129.1900  126.1290   76.3850 O   0  0  0  0  0  0  0  0  0  0  0  0
  130.3190  125.7120   75.6360 C   0  0  0  0  0  0  0  0  0  0  0  0
  129.9500  125.5920   74.1420 C   0  0  0  0  0  0  0  0  0  0  0  0
  128.2140  126.4390   71.4690 C   0  0  0  0  0  0  0  0  0  0  0  0
  128.1340  126.5700   70.0860 C   0  0  0  0  0  0  0  0  0  0  0  0
  129.8500  126.6440   67.0140 C   0  0  0  0  0  0  0  0  0  0  0  0
  129.7310  126.8020   65.6280 C   0  0  0  0  0  0  0  0  0  0  0  0
  130.5970  125.9500   64.7600 C   0  0  0  0  0  0  0  0  0  0  0  0
  130.0230  125.0220   63.8890 C   0  0  0  0  0  0  0  0  0  0  0  0
  130.8210  124.2320   63.0660 C   0  0  0  0  0  0  0  0  0  0  0  0
  132.2200  124.3470   63.0940 C   0  0  0  0  0  0  0  0  0  0  0  0
  133.0410  123.5730   62.2680 N   0  0  0  0  0  0  0  0  0  0  0  0
  133.3560  123.9910   60.8880 C   0  0  0  0  0  0  0  0  0  0  0  0
  134.5400  123.2190   60.2670 C   0  0  0  0  0  0  0  0  0  0  0  0
  134.2950  121.8220   60.3300 O   0  0  0  0  0  0  0  0  0  0  0  0
  134.1340  121.3790   61.6690 C   0  0  0  0  0  0  0  0  0  0  0  0
  132.9370  122.1020   62.3240 C   0  0  0  0  0  0  0  0  0  0  0  0
  132.7870  125.2930   63.9580 C   0  0  0  0  0  0  0  0  0  0  0  0
  131.9890  126.0830   64.7800 C   0  0  0  0  0  0  0  0  0  0  0  0
  128.8010  127.7510   65.1340 C   0  0  0  0  0  0  0  0  0  0  0  0
  128.6260  127.9390   63.6910 C   0  0  0  0  0  0  0  0  0  0  0  0
  128.4910  128.0840   62.5500 N   0  0  0  0  0  0  0  0  0  0  0  0
  125.6343  129.9601   63.2720 H   0  0  0  0  0  0  0  0  0  0  0  0
  124.2244  129.3575   62.3362 H   0  0  0  0  0  0  0  0  0  0  0  0
  124.6198  131.1097   62.3362 H   0  0  0  0  0  0  0  0  0  0  0  0
  125.1608  128.0049   65.7645 H   0  0  0  0  0  0  0  0  0  0  0  0
  125.4137  128.5946   64.0729 H   0  0  0  0  0  0  0  0  0  0  0  0
  131.0095  128.3060   69.5386 H   0  0  0  0  0  0  0  0  0  0  0  0
  131.1567  128.0631   71.9986 H   0  0  0  0  0  0  0  0  0  0  0  0
  128.0039  128.3257   74.1367 H   0  0  0  0  0  0  0  0  0  0  0  0
  127.4635  126.6007   74.4041 H   0  0  0  0  0  0  0  0  0  0  0  0
  129.5132  128.1421   76.0659 H   0  0  0  0  0  0  0  0  0  0  0  0
  127.8447  127.6816   76.5591 H   0  0  0  0  0  0  0  0  0  0  0  0
  131.1261  126.4501   75.7532 H   0  0  0  0  0  0  0  0  0  0  0  0
  130.6527  124.7306   76.0042 H   0  0  0  0  0  0  0  0  0  0  0  0
  130.8623  125.3506   73.5768 H   0  0  0  0  0  0  0  0  0  0  0  0
  129.1866  124.8042   74.0606 H   0  0  0  0  0  0  0  0  0  0  0  0
  127.4206  125.8999   72.0075 H   0  0  0  0  0  0  0  0  0  0  0  0
  127.2767  126.1382   69.5488 H   0  0  0  0  0  0  0  0  0  0  0  0
  130.5777  125.9266   67.4212 H   0  0  0  0  0  0  0  0  0  0  0  0
  128.9289  124.9139   63.8527 H   0  0  0  0  0  0  0  0  0  0  0  0
  130.3493  123.5083   62.3850 H   0  0  0  0  0  0  0  0  0  0  0  0
  132.4663  123.8264   60.2624 H   0  0  0  0  0  0  0  0  0  0  0  0
  133.6462  125.0512   60.9288 H   0  0  0  0  0  0  0  0  0  0  0  0
  134.6606  123.5207   59.2161 H   0  0  0  0  0  0  0  0  0  0  0  0
  135.4568  123.4506   60.8290 H   0  0  0  0  0  0  0  0  0  0  0  0
  133.9517  120.2942   61.6744 H   0  0  0  0  0  0  0  0  0  0  0  0
  135.0481  121.6064   62.2370 H   0  0  0  0  0  0  0  0  0  0  0  0
  132.0175  121.7970   61.8030 H   0  0  0  0  0  0  0  0  0  0  0  0
  132.9260  121.8167   63.3863 H   0  0  0  0  0  0  0  0  0  0  0  0
  133.8800  125.4132   63.9871 H   0  0  0  0  0  0  0  0  0  0  0  0
  132.4570  126.8182   65.4511 H   0  0  0  0  0  0  0  0  0  0  0  0
  1  2  1  0
  2  3  1  0
  3  4  2  0
  3  5  1  0
  5  6  1  0
  6  7  1  0
  7  8  2  0
  8  9  1  0
  9 10  1  0
 10 11  2  0
 11 12  1  0
 12 13  2  0
 13 14  1  0
 14 15  1  0
 15 16  1  0
 16 17  1  0
 17 18  1  0
 18 19  1  0
 13 20  1  0
 20 21  2  0
  9 22  2  0
 22 23  1  0
 23 24  1  0
 24 25  2  0
 25 26  1  0
 26 27  2  0
 27 28  1  0
 28 29  1  0
 29 30  1  0
 30 31  1  0
 31 32  1  0
 32 33  1  0
 27 34  1  0
 34 35  2  0
 23 36  2  0
 36 37  1  0
 37 38  3  0
 36  7  1  0
 21 10  1  0
 35 24  1  0
 19 14  1  0
 33 28  1  0
  1 39  1  0
  1 40  1  0
  1 41  1  0
  5 42  1  0
  5 43  1  0
 11 44  1  0
 12 45  1  0
 15 46  1  0
 15 47  1  0
 16 48  1  0
 16 49  1  0
 18 50  1  0
 18 51  1  0
 19 52  1  0
 19 53  1  0
 20 54  1  0
 21 55  1  0
 22 56  1  0
 25 57  1  0
 26 58  1  0
 29 59  1  0
 29 60  1  0
 30 61  1  0
 30 62  1  0
 32 63  1  0
 32 64  1  0
 33 65  1  0
 33 66  1  0
 34 67  1  0
 35 68  1  0
M  END
>  <Binding energies>  (1) 
[-9.59]

>  <Ligand effiencies>  (1) 
[-0.2523684210526316]

>  <Interactions>  (1) 
["V-A:LEU:475:CD1:4254, V-B:GLU:543:CD:9877, V-A:ARG:545:CZ:4923, V-A:ILE:369:CB:3232, V-A:ILE:369:CG1:3234, V-A:ILE:369:CG2:3233, V-A:GLY:454:CA:4045, V-A:HIS:456:CE1:4066, V-A:GLU:543:CD:4905, V-B:HIS:456:CE1:9038, V-A:HIS:456:CD2:4064, V-B:HIS:456:CD2:9036, V-B:GLU:543:CG:9876, V-B:ARG:545:CZ:9895, V-B:ARG:545:CD:9892, H-B:TYR:484:OH:9316, V-B:ASP:366:CG:8181, V-A:ASP:366:CG:3209, V-B:LYS:547:CE:9919, V-A:LYS:547:CE:4947, V-B:LYS:547:CD:9918, H-B:GLY:454:N:9018, H-B:ILE:455:N:9023, V-A:ASP:366:CA:3206, H-B:TYR:539:OH:9847, H-B:HIS:456:ND1:9035"]

$$$$
2d_Grossjean_2025
     RDKit          3D

 36 37  0  0  0  0  0  0  0  0999 V2000
  133.7210  123.6310   60.2140 C   0  0  0  0  0  0  0  0  0  0  0  0
  133.0180  123.9040   61.5300 C   0  0  0  0  0  0  0  0  0  0  0  0
  133.7130  124.3640   62.6460 C   0  0  0  0  0  0  0  0  0  0  0  0
  133.0170  124.6070   63.8390 C   0  0  0  0  0  0  0  0  0  0  0  0
  133.8000  125.1260   65.0610 C   0  0  0  0  0  0  0  0  0  0  0  0
  133.1460  126.1420   65.6240 F   0  0  0  0  0  0  0  0  0  0  0  0
  133.9420  124.1510   65.9600 F   0  0  0  0  0  0  0  0  0  0  0  0
  135.0210  125.5610   64.7450 F   0  0  0  0  0  0  0  0  0  0  0  0
  131.6190  124.3670   63.8700 C   0  0  0  0  0  0  0  0  0  0  0  0
  130.8390  124.6490   65.0780 C   0  0  0  0  0  0  0  0  0  0  0  0
  130.2240  124.8730   66.0320 N   0  0  0  0  0  0  0  0  0  0  0  0
  131.0020  123.8750   62.6950 C   0  0  0  0  0  0  0  0  0  0  0  0
  129.2670  123.4900   62.5690 S   0  0  0  0  0  0  0  0  0  0  0  0
  129.0400  122.2240   61.2760 C   0  0  0  0  0  0  0  0  0  0  0  0
  127.8670  122.5280   60.3400 C   0  0  0  0  0  0  0  0  0  0  0  0
  127.8650  122.0450   59.2070 O   0  0  0  0  0  0  0  0  0  0  0  0
  126.9180  123.3480   60.8390 N   0  0  0  0  0  0  0  0  0  0  0  0
  125.7320  123.8060   60.2360 C   0  0  0  0  0  0  0  0  0  0  0  0
  125.8410  124.2210   58.9070 C   0  0  0  0  0  0  0  0  0  0  0  0
  124.7230  124.6960   58.2260 C   0  0  0  0  0  0  0  0  0  0  0  0
  123.4950  124.7640   58.8790 C   0  0  0  0  0  0  0  0  0  0  0  0
  123.3770  124.3650   60.2080 C   0  0  0  0  0  0  0  0  0  0  0  0
  124.4910  123.8890   60.8910 C   0  0  0  0  0  0  0  0  0  0  0  0
  131.6870  123.6660   61.5440 N   0  0  0  0  0  0  0  0  0  0  0  0
  134.7297  123.2393   60.4115 H   0  0  0  0  0  0  0  0  0  0  0  0
  133.1464  122.8906   59.6380 H   0  0  0  0  0  0  0  0  0  0  0  0
  133.7967  124.5651   59.6380 H   0  0  0  0  0  0  0  0  0  0  0  0
  134.7983  124.5352   62.5921 H   0  0  0  0  0  0  0  0  0  0  0  0
  129.9606  122.1661   60.6768 H   0  0  0  0  0  0  0  0  0  0  0  0
  128.8188  121.2728   61.7823 H   0  0  0  0  0  0  0  0  0  0  0  0
  127.1000  123.7390   61.7520 H   0  0  0  0  0  0  0  0  0  0  0  0
  126.8139  124.1725   58.3960 H   0  0  0  0  0  0  0  0  0  0  0  0
  124.8096  125.0160   57.1771 H   0  0  0  0  0  0  0  0  0  0  0  0
  122.6108  125.1360   58.3406 H   0  0  0  0  0  0  0  0  0  0  0  0
  122.4038  124.4263   60.7170 H   0  0  0  0  0  0  0  0  0  0  0  0
  124.4011  123.5779   61.9423 H   0  0  0  0  0  0  0  0  0  0  0  0
  1  2  1  0
  2  3  2  0
  3  4  1  0
  4  5  1  0
  5  6  1  0
  5  7  1  0
  5  8  1  0
  4  9  2  0
  9 10  1  0
 10 11  3  0
  9 12  1  0
 12 13  1  0
 13 14  1  0
 14 15  1  0
 15 16  2  0
 15 17  1  0
 17 18  1  0
 18 19  2  0
 19 20  1  0
 20 21  2  0
 21 22  1  0
 22 23  2  0
 12 24  2  0
 24  2  1  0
 23 18  1  0
  1 25  1  0
  1 26  1  0
  1 27  1  0
  3 28  1  0
 14 29  1  0
 14 30  1  0
 17 31  1  0
 19 32  1  0
 20 33  1  0
 21 34  1  0
 22 35  1  0
 23 36  1  0
M  END
>  <Binding energies>  (1) 
[-6.53]

>  <Ligand effiencies>  (1) 
[-0.2612]

>  <Interactions>  (1) 
["V-A:ARG:545:CZ:4923, V-A:ARG:545:CG:4919, V-A:GLY:454:CA:4045, V-A:HIS:456:CE1:4066, V-A:GLY:454:C:4043, V-A:TYR:484:CZ:4343, V-B:ASP:366:CB:8180, V-B:ALA:541:CB:9861, V-A:ASP:366:CG:3209, V-A:ASP:366:CB:3208, H-A:TYR:484:OH:4344, V-A:ARG:545:CD:4920, V-A:GLY:453:C:4038, V-B:LEU:363:CD1:8157, V-B:PRO:540:CB:9854, V-B:LEU:363:CA:8153, V-B:PRO:540:CA:9852, V-A:GLY:453:CA:4040, V-B:LEU:363:CB:8155, V-B:ASN:362:C:8140, V-B:ASN:362:CB:8144, V-A:ASP:366:CA:3206, V-B:ASN:362:CA:8142, H-B:GLU:543:OE2:9879"]

$$$$
2e_Grossjean_2025
     RDKit          3D

 38 39  0  0  0  0  0  0  0  0999 V2000
  129.9410  128.1770   71.5600 C   0  0  0  0  0  0  0  0  0  0  0  0
  129.2320  127.4010   70.4670 C   0  0  0  0  0  0  0  0  0  0  0  0
  127.9100  126.9720   70.6130 C   0  0  0  0  0  0  0  0  0  0  0  0
  127.3190  126.2720   69.5600 C   0  0  0  0  0  0  0  0  0  0  0  0
  128.0550  126.0200   68.4000 C   0  0  0  0  0  0  0  0  0  0  0  0
  129.3780  126.4690   68.3230 C   0  0  0  0  0  0  0  0  0  0  0  0
  130.0570  126.2260   67.1170 N   0  0  0  0  0  0  0  0  0  0  0  0
  131.0910  126.9180   66.5890 C   0  0  0  0  0  0  0  0  0  0  0  0
  131.6640  127.8610   67.1380 O   0  0  0  0  0  0  0  0  0  0  0  0
  131.5240  126.4970   65.1810 C   0  0  0  0  0  0  0  0  0  0  0  0
  133.0450  125.4950   65.2050 S   0  0  0  0  0  0  0  0  0  0  0  0
  132.8690  124.3330   63.8690 C   0  0  0  0  0  0  0  0  0  0  0  0
  133.8800  124.3540   62.9650 N   0  0  0  0  0  0  0  0  0  0  0  0
  133.8040  123.5330   61.8930 C   0  0  0  0  0  0  0  0  0  0  0  0
  134.9680  123.6070   60.9230 C   0  0  0  0  0  0  0  0  0  0  0  0
  132.7280  122.6740   61.6780 C   0  0  0  0  0  0  0  0  0  0  0  0
  131.6700  122.6470   62.5990 C   0  0  0  0  0  0  0  0  0  0  0  0
  130.4780  121.7080   62.3360 C   0  0  0  0  0  0  0  0  0  0  0  0
  129.4090  122.4160   61.9700 F   0  0  0  0  0  0  0  0  0  0  0  0
  130.7810  120.8490   61.3620 F   0  0  0  0  0  0  0  0  0  0  0  0
  130.1380  120.9940   63.4110 F   0  0  0  0  0  0  0  0  0  0  0  0
  131.7370  123.4970   63.7300 C   0  0  0  0  0  0  0  0  0  0  0  0
  130.6500  123.5380   64.7130 C   0  0  0  0  0  0  0  0  0  0  0  0
  129.7910  123.5700   65.4890 N   0  0  0  0  0  0  0  0  0  0  0  0
  129.9600  127.1610   69.3460 N   0  0  0  0  0  0  0  0  0  0  0  0
  129.6082  127.8128   72.5432 H   0  0  0  0  0  0  0  0  0  0  0  0
  131.0276  128.0348   71.4649 H   0  0  0  0  0  0  0  0  0  0  0  0
  129.7015  129.2464   71.4649 H   0  0  0  0  0  0  0  0  0  0  0  0
  127.3487  127.1810   71.5356 H   0  0  0  0  0  0  0  0  0  0  0  0
  126.2799  125.9209   69.6432 H   0  0  0  0  0  0  0  0  0  0  0  0
  127.6009  125.4761   67.5586 H   0  0  0  0  0  0  0  0  0  0  0  0
  129.7500  125.4080   66.6120 H   0  0  0  0  0  0  0  0  0  0  0  0
  130.7169  125.9063   64.7231 H   0  0  0  0  0  0  0  0  0  0  0  0
  131.7277  127.4095   64.6014 H   0  0  0  0  0  0  0  0  0  0  0  0
  135.9111  123.6670   61.4859 H   0  0  0  0  0  0  0  0  0  0  0  0
  134.9754  122.7075   60.2899 H   0  0  0  0  0  0  0  0  0  0  0  0
  134.8615  124.5002   60.2899 H   0  0  0  0  0  0  0  0  0  0  0  0
  132.7083  122.0217   60.7925 H   0  0  0  0  0  0  0  0  0  0  0  0
  1  2  1  0
  2  3  2  0
  3  4  1  0
  4  5  2  0
  5  6  1  0
  6  7  1  0
  7  8  1  0
  8  9  2  0
  8 10  1  0
 10 11  1  0
 11 12  1  0
 12 13  2  0
 13 14  1  0
 14 15  1  0
 14 16  2  0
 16 17  1  0
 17 18  1  0
 18 19  1  0
 18 20  1  0
 18 21  1  0
 17 22  2  0
 22 23  1  0
 23 24  3  0
  6 25  2  0
 25  2  1  0
 22 12  1  0
  1 26  1  0
  1 27  1  0
  1 28  1  0
  3 29  1  0
  4 30  1  0
  5 31  1  0
  7 32  1  0
 10 33  1  0
 10 34  1  0
 15 35  1  0
 15 36  1  0
 15 37  1  0
 16 38  1  0
M  END
>  <Binding energies>  (1) 
[-6.51]

>  <Ligand effiencies>  (1) 
[-0.25038461538461537]

>  <Interactions>  (1) 
["V-A:LEU:475:CD1:4254, V-A:ARG:545:CZ:4923, V-A:ILE:369:CB:3232, H-A:ARG:545:NH2:4925, H-A:GLY:454:N:4046, V-A:ILE:369:CG1:3234, V-A:GLY:454:CA:4045, V-B:TYR:539:CE2:9845, V-A:HIS:456:CE1:4066, V-A:GLU:543:CD:4905, V-A:TYR:484:CZ:4343, V-B:GLU:543:CA:9873, V-B:GLU:543:C:9871, V-B:GLU:543:CB:9875, V-B:HIS:456:CE1:9038, V-A:TYR:484:CE1:4341, V-B:GLY:544:C:9881, V-B:HIS:456:CD2:9036, V-B:TYR:539:CD2:9843, V-B:ALA:541:CB:9861, V-A:ASP:366:CG:3209, H-A:ARG:545:NE:4921, H-A:TYR:484:OH:4344, V-A:LEU:475:CD2:4255, V-A:GLY:453:C:4038, V-A:GLY:453:CA:4040, V-A:LEU:475:CG:4253, V-A:ASP:366:CA:3206"]

$$$$
2f_Grossjean_2025
     RDKit          3D

 35 36  0  0  0  0  0  0  0  0999 V2000
  134.6960  125.1110   65.8370 C   0  0  0  0  0  0  0  0  0  0  0  0
  133.3490  125.1170   65.1400 C   0  0  0  0  0  0  0  0  0  0  0  0
  132.3150  125.9530   65.5560 C   0  0  0  0  0  0  0  0  0  0  0  0
  131.0840  125.9160   64.8830 C   0  0  0  0  0  0  0  0  0  0  0  0
  129.9500  126.8400   65.3660 C   0  0  0  0  0  0  0  0  0  0  0  0
  129.4650  127.5450   64.3410 F   0  0  0  0  0  0  0  0  0  0  0  0
  128.9650  126.1130   65.8940 F   0  0  0  0  0  0  0  0  0  0  0  0
  130.3510  127.7100   66.2950 F   0  0  0  0  0  0  0  0  0  0  0  0
  130.9360  125.0260   63.7880 C   0  0  0  0  0  0  0  0  0  0  0  0
  129.6530  124.9100   63.0900 C   0  0  0  0  0  0  0  0  0  0  0  0
  128.6400  124.8200   62.5380 N   0  0  0  0  0  0  0  0  0  0  0  0
  132.0490  124.2330   63.4200 C   0  0  0  0  0  0  0  0  0  0  0  0
  132.0460  123.0730   62.0670 S   0  0  0  0  0  0  0  0  0  0  0  0
  130.8410  121.7570   62.4540 C   0  0  0  0  0  0  0  0  0  0  0  0
  129.8150  121.4690   61.3490 C   0  0  0  0  0  0  0  0  0  0  0  0
  129.5700  120.3120   61.0050 O   0  0  0  0  0  0  0  0  0  0  0  0
  129.2510  122.5710   60.8070 N   0  0  0  0  0  0  0  0  0  0  0  0
  128.2780  122.6720   59.7950 C   0  0  0  0  0  0  0  0  0  0  0  0
  127.0250  123.2990   59.9260 C   0  0  0  0  0  0  0  0  0  0  0  0
  126.1520  123.3340   58.8370 C   0  0  0  0  0  0  0  0  0  0  0  0
  126.5550  122.7440   57.6390 C   0  0  0  0  0  0  0  0  0  0  0  0
  127.7610  122.1400   57.4840 N   0  0  0  0  0  0  0  0  0  0  0  0
  128.5990  122.1150   58.5520 C   0  0  0  0  0  0  0  0  0  0  0  0
  133.2230  124.2660   64.0960 N   0  0  0  0  0  0  0  0  0  0  0  0
  134.5450  125.1117   66.9266 H   0  0  0  0  0  0  0  0  0  0  0  0
  135.2560  124.2104   65.5450 H   0  0  0  0  0  0  0  0  0  0  0  0
  135.2640  126.0066   65.5450 H   0  0  0  0  0  0  0  0  0  0  0  0
  132.4623  126.6366   66.4051 H   0  0  0  0  0  0  0  0  0  0  0  0
  131.3998  120.8301   62.6503 H   0  0  0  0  0  0  0  0  0  0  0  0
  130.2658  122.1133   63.3213 H   0  0  0  0  0  0  0  0  0  0  0  0
  129.5910  123.4590   61.1470 H   0  0  0  0  0  0  0  0  0  0  0  0
  126.7347  123.7594   60.8819 H   0  0  0  0  0  0  0  0  0  0  0  0
  125.1672  123.8166   58.9219 H   0  0  0  0  0  0  0  0  0  0  0  0
  125.8655  122.7692   56.7823 H   0  0  0  0  0  0  0  0  0  0  0  0
  129.5804  121.6323   58.4342 H   0  0  0  0  0  0  0  0  0  0  0  0
  1  2  1  0
  2  3  2  0
  3  4  1  0
  4  5  1  0
  5  6  1  0
  5  7  1  0
  5  8  1  0
  4  9  2  0
  9 10  1  0
 10 11  3  0
  9 12  1  0
 12 13  1  0
 13 14  1  0
 14 15  1  0
 15 16  2  0
 15 17  1  0
 17 18  1  0
 18 19  2  0
 19 20  1  0
 20 21  2  0
 21 22  1  0
 22 23  2  0
 12 24  2  0
 24  2  1  0
 23 18  1  0
  1 25  1  0
  1 26  1  0
  1 27  1  0
  3 28  1  0
 14 29  1  0
 14 30  1  0
 17 31  1  0
 19 32  1  0
 20 33  1  0
 21 34  1  0
 23 35  1  0
M  END
>  <Binding energies>  (1) 
[-5.79]

>  <Ligand effiencies>  (1) 
[-0.2316]

>  <Interactions>  (1) 
["V-A:LEU:475:CD1:4254, V-B:GLU:543:CD:9877, V-A:ARG:545:CZ:4923, H-A:GLY:454:N:4046, V-A:ARG:545:CG:4919, V-A:GLY:454:CA:4045, V-B:TYR:539:CE2:9845, V-A:HIS:456:CE1:4066, V-A:GLY:454:C:4043, V-A:GLU:543:CD:4905, V-A:GLU:543:CG:4904, V-B:GLU:543:CB:9875, V-A:GLU:543:CB:4903, V-B:GLU:543:CG:9876, V-B:TYR:539:CZ:9846, V-B:TYR:539:CD2:9843, V-B:ALA:541:CB:9861, V-B:TYR:539:C:9836, H-A:TYR:484:OH:4344, V-A:ARG:545:CD:4920, V-B:PRO:540:N:9853, V-A:GLY:453:C:4038, V-B:PRO:540:CB:9854, V-B:PRO:540:CA:9852, V-A:GLY:453:CA:4040, H-B:TYR:539:N:9839, V-B:TYR:539:CD1:9842, V-B:TYR:539:CG:9841, V-B:TYR:539:CE1:9844"]

$$$$
2g_Grossjean_2025
     RDKit          3D

 39 40  0  0  0  0  0  0  0  0999 V2000
  135.0340  123.5910   60.7710 C   0  0  0  0  0  0  0  0  0  0  0  0
  133.8440  123.3060   61.6670 C   0  0  0  0  0  0  0  0  0  0  0  0
  132.8790  122.3640   61.3200 C   0  0  0  0  0  0  0  0  0  0  0  0
  131.7920  122.1410   62.1800 C   0  0  0  0  0  0  0  0  0  0  0  0
  130.7300  121.1010   61.7750 C   0  0  0  0  0  0  0  0  0  0  0  0
  129.8080  121.6620   60.9900 F   0  0  0  0  0  0  0  0  0  0  0  0
  131.3090  120.0980   61.1130 F   0  0  0  0  0  0  0  0  0  0  0  0
  130.0940  120.5770   62.8250 F   0  0  0  0  0  0  0  0  0  0  0  0
  131.7180  122.8840   63.3860 C   0  0  0  0  0  0  0  0  0  0  0  0
  130.5750  122.7320   64.2900 C   0  0  0  0  0  0  0  0  0  0  0  0
  129.6720  122.6100   65.0040 N   0  0  0  0  0  0  0  0  0  0  0  0
  132.7610  123.7990   63.6690 C   0  0  0  0  0  0  0  0  0  0  0  0
  132.8370  124.7920   65.1440 S   0  0  0  0  0  0  0  0  0  0  0  0
  131.7850  126.2580   64.8740 C   0  0  0  0  0  0  0  0  0  0  0  0
  130.4900  126.2800   65.6970 C   0  0  0  0  0  0  0  0  0  0  0  0
  129.7980  125.2690   65.8310 O   0  0  0  0  0  0  0  0  0  0  0  0
  130.1730  127.4670   66.2450 N   0  0  0  0  0  0  0  0  0  0  0  0
  128.9980  127.7330   67.0750 C   0  0  0  0  0  0  0  0  0  0  0  0
  129.1740  127.3770   68.5480 C   0  0  0  0  0  0  0  0  0  0  0  0
  130.2220  127.9450   69.2800 C   0  0  0  0  0  0  0  0  0  0  0  0
  130.3620  127.6510   70.6340 C   0  0  0  0  0  0  0  0  0  0  0  0
  129.4510  126.8000   71.2540 C   0  0  0  0  0  0  0  0  0  0  0  0
  128.3970  126.2410   70.5320 C   0  0  0  0  0  0  0  0  0  0  0  0
  128.2560  126.5350   69.1790 C   0  0  0  0  0  0  0  0  0  0  0  0
  133.7920  124.0180   62.8160 N   0  0  0  0  0  0  0  0  0  0  0  0
  135.9175  123.8026   61.3911 H   0  0  0  0  0  0  0  0  0  0  0  0
  135.2330  122.7151   60.1360 H   0  0  0  0  0  0  0  0  0  0  0  0
  134.8146  124.4620   60.1360 H   0  0  0  0  0  0  0  0  0  0  0  0
  132.9676  121.7994   60.3801 H   0  0  0  0  0  0  0  0  0  0  0  0
  132.3708  127.1522   65.1334 H   0  0  0  0  0  0  0  0  0  0  0  0
  131.4804  126.2307   63.8174 H   0  0  0  0  0  0  0  0  0  0  0  0
  130.8050  128.2430   66.1100 H   0  0  0  0  0  0  0  0  0  0  0  0
  128.7634  128.8055   67.0058 H   0  0  0  0  0  0  0  0  0  0  0  0
  128.1906  127.0921   66.6912 H   0  0  0  0  0  0  0  0  0  0  0  0
  130.9344  128.6228   68.7869 H   0  0  0  0  0  0  0  0  0  0  0  0
  131.1892  128.0895   71.2115 H   0  0  0  0  0  0  0  0  0  0  0  0
  129.5637  126.5665   72.3230 H   0  0  0  0  0  0  0  0  0  0  0  0
  127.6805  125.5709   71.0295 H   0  0  0  0  0  0  0  0  0  0  0  0
  127.4213  126.1040   68.6066 H   0  0  0  0  0  0  0  0  0  0  0  0
  1  2  1  0
  2  3  2  0
  3  4  1  0
  4  5  1  0
  5  6  1  0
  5  7  1  0
  5  8  1  0
  4  9  2  0
  9 10  1  0
 10 11  3  0
  9 12  1  0
 12 13  1  0
 13 14  1  0
 14 15  1  0
 15 16  2  0
 15 17  1  0
 17 18  1  0
 18 19  1  0
 19 20  2  0
 20 21  1  0
 21 22  2  0
 22 23  1  0
 23 24  2  0
 12 25  2  0
 25  2  1  0
 24 19  1  0
  1 26  1  0
  1 27  1  0
  1 28  1  0
  3 29  1  0
 14 30  1  0
 14 31  1  0
 17 32  1  0
 18 33  1  0
 18 34  1  0
 20 35  1  0
 21 36  1  0
 22 37  1  0
 23 38  1  0
 24 39  1  0
M  END
>  <Binding energies>  (1) 
[-6.87]

>  <Ligand effiencies>  (1) 
[-0.2642307692307692]

>  <Interactions>  (1) 
["V-A:LEU:475:CD1:4254, H-A:GLU:543:OE1:4906, V-A:ARG:545:CZ:4923, V-A:ILE:369:CB:3232, H-A:GLU:543:OE2:4907, H-A:GLY:454:N:4046, V-A:ILE:369:CG1:3234, V-A:GLY:454:CA:4045, V-B:TYR:539:CE2:9845, V-A:HIS:456:CE1:4066, V-A:GLU:543:CD:4905, V-A:TYR:484:CZ:4343, V-B:HIS:456:CE1:9038, V-A:TYR:484:CE1:4341, V-A:HIS:456:CD2:4064, V-A:GLU:543:CB:4903, V-B:TYR:539:CD2:9843, V-B:ALA:541:CB:9861, V-A:ASP:366:CG:3209, H-A:TYR:484:OH:4344, V-A:GLU:543:C:4899, V-A:LEU:475:CD2:4255, V-A:GLY:453:CA:4040, V-A:LEU:475:CG:4253, V-A:ASP:366:CA:3206"]

$$$$
2h_Grossjean_2025
     RDKit          3D

 51 52  0  0  0  0  0  0  0  0999 V2000
  129.5370  125.5990   72.8200 C   0  0  0  0  0  0  0  0  0  0  0  0
  128.4960  126.3440   72.1990 O   0  0  0  0  0  0  0  0  0  0  0  0
  128.5290  126.5470   70.8300 C   0  0  0  0  0  0  0  0  0  0  0  0
  127.6630  125.9160   69.9230 C   0  0  0  0  0  0  0  0  0  0  0  0
  127.7510  126.1770   68.5580 C   0  0  0  0  0  0  0  0  0  0  0  0
  128.7040  127.0720   68.0680 C   0  0  0  0  0  0  0  0  0  0  0  0
  128.7690  127.3580   66.5690 C   0  0  0  0  0  0  0  0  0  0  0  0
  130.1180  127.2620   66.0110 N   0  0  0  0  0  0  0  0  0  0  0  0
  130.8990  126.1690   66.0670 C   0  0  0  0  0  0  0  0  0  0  0  0
  130.5840  125.1440   66.6760 O   0  0  0  0  0  0  0  0  0  0  0  0
  132.2290  126.2650   65.3070 C   0  0  0  0  0  0  0  0  0  0  0  0
  133.1930  124.7180   65.2390 S   0  0  0  0  0  0  0  0  0  0  0  0
  132.8390  123.9610   63.6680 C   0  0  0  0  0  0  0  0  0  0  0  0
  133.8670  124.0300   62.7860 N   0  0  0  0  0  0  0  0  0  0  0  0
  133.6990  123.5020   61.5530 C   0  0  0  0  0  0  0  0  0  0  0  0
  134.8860  123.6220   60.6170 C   0  0  0  0  0  0  0  0  0  0  0  0
  132.5150  122.8840   61.1540 C   0  0  0  0  0  0  0  0  0  0  0  0
  131.4490  122.7840   62.0600 C   0  0  0  0  0  0  0  0  0  0  0  0
  130.1510  122.0890   61.6040 C   0  0  0  0  0  0  0  0  0  0  0  0
  130.1470  120.8200   62.0120 F   0  0  0  0  0  0  0  0  0  0  0  0
  129.0540  122.6710   62.0950 F   0  0  0  0  0  0  0  0  0  0  0  0
  130.0590  122.1170   60.2740 F   0  0  0  0  0  0  0  0  0  0  0  0
  131.6120  123.3270   63.3600 C   0  0  0  0  0  0  0  0  0  0  0  0
  130.5500  123.1970   64.3620 C   0  0  0  0  0  0  0  0  0  0  0  0
  129.7120  123.0900   65.1520 N   0  0  0  0  0  0  0  0  0  0  0  0
  129.5920  127.6920   68.9610 C   0  0  0  0  0  0  0  0  0  0  0  0
  130.5350  128.5720   68.4850 O   0  0  0  0  0  0  0  0  0  0  0  0
  131.8770  128.1200   68.6160 C   0  0  0  0  0  0  0  0  0  0  0  0
  129.4890  127.4420   70.3400 C   0  0  0  0  0  0  0  0  0  0  0  0
  130.3450  128.0620   71.2180 O   0  0  0  0  0  0  0  0  0  0  0  0
  129.7340  129.0730   72.0080 C   0  0  0  0  0  0  0  0  0  0  0  0
  129.4372  125.6704   73.9131 H   0  0  0  0  0  0  0  0  0  0  0  0
  129.4666  124.5449   72.5135 H   0  0  0  0  0  0  0  0  0  0  0  0
  130.5120  126.0057   72.5135 H   0  0  0  0  0  0  0  0  0  0  0  0
  126.9073  125.2082   70.2943 H   0  0  0  0  0  0  0  0  0  0  0  0
  127.0646  125.6744   67.8607 H   0  0  0  0  0  0  0  0  0  0  0  0
  128.1254  126.6334   66.0488 H   0  0  0  0  0  0  0  0  0  0  0  0
  128.4339  128.3957   66.4244 H   0  0  0  0  0  0  0  0  0  0  0  0
  130.4310  128.0520   65.4650 H   0  0  0  0  0  0  0  0  0  0  0  0
  132.0103  126.5761   64.2748 H   0  0  0  0  0  0  0  0  0  0  0  0
  132.8470  126.9877   65.8600 H   0  0  0  0  0  0  0  0  0  0  0  0
  135.8099  123.7154   61.2066 H   0  0  0  0  0  0  0  0  0  0  0  0
  134.9449  122.7252   59.9827 H   0  0  0  0  0  0  0  0  0  0  0  0
  134.7642  124.5124   59.9827 H   0  0  0  0  0  0  0  0  0  0  0  0
  132.4174  122.4779   60.1364 H   0  0  0  0  0  0  0  0  0  0  0  0
  132.1325  128.0340   69.6825 H   0  0  0  0  0  0  0  0  0  0  0  0
  131.9816  127.1371   68.1334 H   0  0  0  0  0  0  0  0  0  0  0  0
  132.5550  128.8394   68.1334 H   0  0  0  0  0  0  0  0  0  0  0  0
  129.8746  128.8404   73.0739 H   0  0  0  0  0  0  0  0  0  0  0  0
  130.1959  130.0451   71.7808 H   0  0  0  0  0  0  0  0  0  0  0  0
  128.6586  129.1160   71.7808 H   0  0  0  0  0  0  0  0  0  0  0  0
  1  2  1  0
  2  3  1  0
  3  4  2  0
  4  5  1  0
  5  6  2  0
  6  7  1  0
  7  8  1  0
  8  9  1  0
  9 10  2  0
  9 11  1  0
 11 12  1  0
 12 13  1  0
 13 14  2  0
 14 15  1  0
 15 16  1  0
 15 17  2  0
 17 18  1  0
 18 19  1  0
 19 20  1  0
 19 21  1  0
 19 22  1  0
 18 23  2  0
 23 24  1  0
 24 25  3  0
  6 26  1  0
 26 27  1  0
 27 28  1  0
 26 29  2  0
 29 30  1  0
 30 31  1  0
 29  3  1  0
 23 13  1  0
  1 32  1  0
  1 33  1  0
  1 34  1  0
  4 35  1  0
  5 36  1  0
  7 37  1  0
  7 38  1  0
  8 39  1  0
 11 40  1  0
 11 41  1  0
 16 42  1  0
 16 43  1  0
 16 44  1  0
 17 45  1  0
 28 46  1  0
 28 47  1  0
 28 48  1  0
 31 49  1  0
 31 50  1  0
 31 51  1  0
M  END
>  <Binding energies>  (1) 
[-5.92]

>  <Ligand effiencies>  (1) 
[-0.185]

>  <Interactions>  (1) 
["V-A:LEU:475:CD1:4254, H-A:GLU:543:OE1:4906, V-A:ARG:545:CZ:4923, V-A:ILE:369:CB:3232, H-A:GLU:543:OE2:4907, H-A:GLY:454:N:4046, V-A:ARG:545:CG:4919, V-A:ILE:369:CG1:3234, V-A:GLY:454:CA:4045, V-B:TYR:539:CE2:9845, V-A:HIS:456:CE1:4066, V-A:GLU:543:CD:4905, V-B:GLU:543:CA:9873, V-B:GLU:543:C:9871, V-B:GLU:543:CB:9875, V-B:HIS:456:CE1:9038, V-A:TYR:484:CE1:4341, V-B:GLY:544:C:9881, V-A:HIS:456:CD2:4064, V-B:HIS:456:CD2:9036, V-A:GLU:543:CB:4903, V-B:TYR:539:CZ:9846, V-B:TYR:539:CD2:9843, V-B:ALA:541:CB:9861, V-A:ASP:366:CG:3209, V-A:ASP:366:CB:3208, H-A:TYR:484:OH:4344, V-A:ARG:545:CD:4920, V-B:LYS:547:CE:9919, V-A:LYS:547:CE:4947, V-A:GLU:543:C:4899, H-A:LYS:547:NZ:4948, V-A:GLY:544:C:4909, V-A:ARG:545:CA:4916, V-B:GLY:544:CA:9883, V-A:ASP:366:CA:3206"]

$$$$
2i_Grossjean_2025
     RDKit          3D

 32 33  0  0  0  0  0  0  0  0999 V2000
  133.8170  123.6190   60.0960 C   0  0  0  0  0  0  0  0  0  0  0  0
  133.0910  123.8590   61.4060 C   0  0  0  0  0  0  0  0  0  0  0  0
  133.7540  124.3410   62.5310 C   0  0  0  0  0  0  0  0  0  0  0  0
  133.0370  124.5480   63.7190 C   0  0  0  0  0  0  0  0  0  0  0  0
  133.7870  125.0810   64.9540 C   0  0  0  0  0  0  0  0  0  0  0  0
  133.1170  126.1030   65.4890 F   0  0  0  0  0  0  0  0  0  0  0  0
  133.9080  124.1170   65.8680 F   0  0  0  0  0  0  0  0  0  0  0  0
  135.0160  125.5150   64.6650 F   0  0  0  0  0  0  0  0  0  0  0  0
  131.6490  124.2560   63.7310 C   0  0  0  0  0  0  0  0  0  0  0  0
  130.8510  124.4560   64.9450 C   0  0  0  0  0  0  0  0  0  0  0  0
  130.2200  124.6130   65.9030 N   0  0  0  0  0  0  0  0  0  0  0  0
  131.0560  123.7680   62.5440 C   0  0  0  0  0  0  0  0  0  0  0  0
  129.3210  123.3600   62.4440 S   0  0  0  0  0  0  0  0  0  0  0  0
  129.0620  122.3550   60.9510 C   0  0  0  0  0  0  0  0  0  0  0  0
  127.6790  122.5790   60.3350 C   0  0  0  0  0  0  0  0  0  0  0  0
  127.4530  122.1530   59.2010 O   0  0  0  0  0  0  0  0  0  0  0  0
  126.8010  123.2680   61.0950 N   0  0  0  0  0  0  0  0  0  0  0  0
  125.5030  123.6100   60.7540 C   0  0  0  0  0  0  0  0  0  0  0  0
  125.0300  124.5920   59.8710 C   0  0  0  0  0  0  0  0  0  0  0  0
  123.6600  124.4800   59.9260 C   0  0  0  0  0  0  0  0  0  0  0  0
  123.3300  123.4860   60.7850 O   0  0  0  0  0  0  0  0  0  0  0  0
  124.5090  122.9410   61.2970 N   0  0  0  0  0  0  0  0  0  0  0  0
  131.7690  123.5760   61.4040 N   0  0  0  0  0  0  0  0  0  0  0  0
  134.8429  123.2799   60.3021 H   0  0  0  0  0  0  0  0  0  0  0  0
  133.2854  122.8488   59.5179 H   0  0  0  0  0  0  0  0  0  0  0  0
  133.8492  124.5543   59.5179 H   0  0  0  0  0  0  0  0  0  0  0  0
  134.8316  124.5579   62.4889 H   0  0  0  0  0  0  0  0  0  0  0  0
  129.8280  122.6211   60.2077 H   0  0  0  0  0  0  0  0  0  0  0  0
  129.1350  121.2962   61.2402 H   0  0  0  0  0  0  0  0  0  0  0  0
  127.1190  123.6010   61.9930 H   0  0  0  0  0  0  0  0  0  0  0  0
  125.6230  125.2956   59.2683 H   0  0  0  0  0  0  0  0  0  0  0  0
  122.9464  125.0989   59.3623 H   0  0  0  0  0  0  0  0  0  0  0  0
  1  2  1  0
  2  3  2  0
  3  4  1  0
  4  5  1  0
  5  6  1  0
  5  7  1  0
  5  8  1  0
  4  9  2  0
  9 10  1  0
 10 11  3  0
  9 12  1  0
 12 13  1  0
 13 14  1  0
 14 15  1  0
 15 16  2  0
 15 17  1  0
 17 18  1  0
 18 19  1  0
 19 20  2  0
 20 21  1  0
 21 22  1  0
 12 23  2  0
 23  2  1  0
 22 18  2  0
  1 24  1  0
  1 25  1  0
  1 26  1  0
  3 27  1  0
 14 28  1  0
 14 29  1  0
 17 30  1  0
 19 31  1  0
 20 32  1  0
M  END
>  <Binding energies>  (1) 
[-6.55]

>  <Ligand effiencies>  (1) 
[-0.27291666666666664]

>  <Interactions>  (1) 
["V-B:GLU:543:CD:9877, V-A:ARG:545:CZ:4923, V-A:ILE:369:CB:3232, V-A:ARG:545:CG:4919, V-A:ILE:369:CG2:3233, V-A:GLY:454:CA:4045, V-B:TYR:539:CE2:9845, V-A:HIS:456:CE1:4066, V-A:GLY:454:C:4043, V-A:TYR:484:CZ:4343, H-B:ALA:541:N:9860, V-B:ALA:541:CB:9861, V-A:ASP:366:CG:3209, V-A:ASP:366:CB:3208, H-A:TYR:484:OH:4344, V-A:ARG:545:CD:4920, V-A:GLY:453:C:4038, V-B:PRO:540:CB:9854, V-B:LEU:363:CA:8153, V-B:PRO:540:C:9850, V-B:PRO:540:CA:9852, V-A:GLY:453:CA:4040, V-B:ASN:362:C:8140, V-B:ASN:362:CB:8144, V-A:ASP:366:CA:3206, H-B:GLU:543:OE2:9879, H-B:LEU:363:N:8154"]

$$$$
2j_Grossjean_2025
     RDKit          3D

 32 33  0  0  0  0  0  0  0  0999 V2000
  133.8290  123.6330   60.1600 C   0  0  0  0  0  0  0  0  0  0  0  0
  133.1020  123.8610   61.4720 C   0  0  0  0  0  0  0  0  0  0  0  0
  133.7580  124.3720   62.5890 C   0  0  0  0  0  0  0  0  0  0  0  0
  133.0420  124.5690   63.7800 C   0  0  0  0  0  0  0  0  0  0  0  0
  133.7820  125.1350   65.0060 C   0  0  0  0  0  0  0  0  0  0  0  0
  133.1220  126.1870   65.4920 F   0  0  0  0  0  0  0  0  0  0  0  0
  133.8720  124.2040   65.9570 F   0  0  0  0  0  0  0  0  0  0  0  0
  135.0230  125.5370   64.7200 F   0  0  0  0  0  0  0  0  0  0  0  0
  131.6640  124.2360   63.8030 C   0  0  0  0  0  0  0  0  0  0  0  0
  130.8670  124.4210   65.0200 C   0  0  0  0  0  0  0  0  0  0  0  0
  130.2380  124.5670   65.9800 N   0  0  0  0  0  0  0  0  0  0  0  0
  131.0790  123.7220   62.6210 C   0  0  0  0  0  0  0  0  0  0  0  0
  129.3520  123.2720   62.5350 S   0  0  0  0  0  0  0  0  0  0  0  0
  129.0840  122.3090   61.0080 C   0  0  0  0  0  0  0  0  0  0  0  0
  127.7280  122.5420   60.3260 C   0  0  0  0  0  0  0  0  0  0  0  0
  127.5080  122.1040   59.1950 O   0  0  0  0  0  0  0  0  0  0  0  0
  126.8440  123.2580   61.0560 N   0  0  0  0  0  0  0  0  0  0  0  0
  125.5530  123.6100   60.6840 C   0  0  0  0  0  0  0  0  0  0  0  0
  124.4250  123.0340   61.0380 N   0  0  0  0  0  0  0  0  0  0  0  0
  123.3820  123.6340   60.4980 C   0  0  0  0  0  0  0  0  0  0  0  0
  123.6560  124.7260   59.6810 C   0  0  0  0  0  0  0  0  0  0  0  0
  125.3760  124.9720   59.6250 S   0  0  0  0  0  0  0  0  0  0  0  0
  131.7890  123.5410   61.4790 N   0  0  0  0  0  0  0  0  0  0  0  0
  134.8604  123.3095   60.3637 H   0  0  0  0  0  0  0  0  0  0  0  0
  133.3081  122.8551   59.5825 H   0  0  0  0  0  0  0  0  0  0  0  0
  133.8456  124.5691   59.5825 H   0  0  0  0  0  0  0  0  0  0  0  0
  134.8287  124.6193   62.5383 H   0  0  0  0  0  0  0  0  0  0  0  0
  129.8763  122.5750   60.2928 H   0  0  0  0  0  0  0  0  0  0  0  0
  129.1023  121.2498   61.3042 H   0  0  0  0  0  0  0  0  0  0  0  0
  127.1390  123.5760   61.9680 H   0  0  0  0  0  0  0  0  0  0  0  0
  122.3536  123.2903   60.6832 H   0  0  0  0  0  0  0  0  0  0  0  0
  122.9058  125.3352   59.1555 H   0  0  0  0  0  0  0  0  0  0  0  0
  1  2  1  0
  2  3  2  0
  3  4  1  0
  4  5  1  0
  5  6  1  0
  5  7  1  0
  5  8  1  0
  4  9  2  0
  9 10  1  0
 10 11  3  0
  9 12  1  0
 12 13  1  0
 13 14  1  0
 14 15  1  0
 15 16  2  0
 15 17  1  0
 17 18  1  0
 18 19  2  0
 19 20  1  0
 20 21  2  0
 21 22  1  0
 12 23  2  0
 23  2  1  0
 22 18  1  0
  1 24  1  0
  1 25  1  0
  1 26  1  0
  3 27  1  0
 14 28  1  0
 14 29  1  0
 17 30  1  0
 20 31  1  0
 21 32  1  0
M  END
>  <Binding energies>  (1) 
[-6.41]

>  <Ligand effiencies>  (1) 
[-0.26708333333333334]

>  <Interactions>  (1) 
["V-A:ARG:545:CZ:4923, V-A:ILE:369:CB:3232, V-A:ARG:545:CG:4919, V-A:GLY:454:CA:4045, V-B:TYR:539:CE2:9845, V-A:HIS:456:CE1:4066, V-A:GLY:454:C:4043, V-A:TYR:484:CZ:4343, H-B:ALA:541:N:9860, V-B:ASP:366:CB:8180, V-B:ALA:541:CB:9861, V-B:ASP:366:CG:8181, V-A:ASP:366:CG:3209, V-A:ASP:366:CB:3208, H-A:TYR:484:OH:4344, V-A:ARG:545:CD:4920, V-A:GLY:453:C:4038, V-B:PRO:540:CB:9854, V-B:LEU:363:CA:8153, V-B:PRO:540:C:9850, V-B:PRO:540:CA:9852, V-A:GLY:453:CA:4040, V-B:ASN:362:C:8140, V-B:ASN:362:CB:8144, V-A:ASP:366:CA:3206, V-B:ASN:362:CA:8142, H-B:GLU:543:OE2:9879"]

$$$$
2k_Grossjean_2025
     RDKit          3D

 50 50  0  0  0  0  0  0  0  0999 V2000
  123.7380  123.6290   60.6730 C   0  0  0  0  0  0  0  0  0  0  0  0
  124.9730  123.0860   61.1110 O   0  0  0  0  0  0  0  0  0  0  0  0
  126.1070  123.8060   60.6430 C   0  0  0  0  0  0  0  0  0  0  0  0
  127.3810  123.2400   61.2830 C   0  0  0  0  0  0  0  0  0  0  0  0
  127.8050  122.1040   60.5430 O   0  0  0  0  0  0  0  0  0  0  0  0
  128.9940  122.3080   59.7900 C   0  0  0  0  0  0  0  0  0  0  0  0
  130.0500  122.9340   60.7110 C   0  0  0  0  0  0  0  0  0  0  0  0
  130.6390  121.8900   61.4690 O   0  0  0  0  0  0  0  0  0  0  0  0
  131.9130  122.1890   62.0200 C   0  0  0  0  0  0  0  0  0  0  0  0
  132.1690  123.7020   61.8950 C   0  0  0  0  0  0  0  0  0  0  0  0
  132.0180  124.4150   63.1650 N   0  0  0  0  0  0  0  0  0  0  0  0
  133.0260  124.8750   63.9310 C   0  0  0  0  0  0  0  0  0  0  0  0
  134.2140  124.7690   63.6220 O   0  0  0  0  0  0  0  0  0  0  0  0
  132.6100  125.5380   65.2520 C   0  0  0  0  0  0  0  0  0  0  0  0
  130.9060  125.1820   65.8050 S   0  0  0  0  0  0  0  0  0  0  0  0
  129.7690  126.2810   64.9700 C   0  0  0  0  0  0  0  0  0  0  0  0
  129.5740  126.0340   63.6500 N   0  0  0  0  0  0  0  0  0  0  0  0
  128.7300  126.8290   62.9550 C   0  0  0  0  0  0  0  0  0  0  0  0
  128.5750  126.4960   61.4840 C   0  0  0  0  0  0  0  0  0  0  0  0
  128.0410  127.8870   63.5410 C   0  0  0  0  0  0  0  0  0  0  0  0
  128.2210  128.1550   64.9060 C   0  0  0  0  0  0  0  0  0  0  0  0
  127.4460  129.3270   65.5400 C   0  0  0  0  0  0  0  0  0  0  0  0
  128.1990  130.0590   66.3630 F   0  0  0  0  0  0  0  0  0  0  0  0
  126.9880  130.1400   64.5870 F   0  0  0  0  0  0  0  0  0  0  0  0
  126.4140  128.8630   66.2460 F   0  0  0  0  0  0  0  0  0  0  0  0
  129.1100  127.3340   65.6460 C   0  0  0  0  0  0  0  0  0  0  0  0
  129.3390  127.5720   67.0750 C   0  0  0  0  0  0  0  0  0  0  0  0
  129.5190  127.7590   68.2030 N   0  0  0  0  0  0  0  0  0  0  0  0
  123.1256  123.8983   61.5462 H   0  0  0  0  0  0  0  0  0  0  0  0
  123.9268  124.5271   60.0666 H   0  0  0  0  0  0  0  0  0  0  0  0
  123.2038  122.8827   60.0666 H   0  0  0  0  0  0  0  0  0  0  0  0
  126.1743  123.7109   59.5492 H   0  0  0  0  0  0  0  0  0  0  0  0
  126.0028  124.8663   60.9166 H   0  0  0  0  0  0  0  0  0  0  0  0
  128.1715  124.0048   61.2697 H   0  0  0  0  0  0  0  0  0  0  0  0
  127.1766  122.9501   62.3242 H   0  0  0  0  0  0  0  0  0  0  0  0
  129.3603  121.3445   59.4060 H   0  0  0  0  0  0  0  0  0  0  0  0
  128.7922  122.9748   58.9388 H   0  0  0  0  0  0  0  0  0  0  0  0
  130.8196  123.4390   60.1087 H   0  0  0  0  0  0  0  0  0  0  0  0
  129.5868  123.6773   61.3765 H   0  0  0  0  0  0  0  0  0  0  0  0
  131.9341  121.8975   63.0805 H   0  0  0  0  0  0  0  0  0  0  0  0
  132.6926  121.6335   61.4781 H   0  0  0  0  0  0  0  0  0  0  0  0
  133.1943  123.8547   61.5271 H   0  0  0  0  0  0  0  0  0  0  0  0
  131.4186  124.1062   61.1997 H   0  0  0  0  0  0  0  0  0  0  0  0
  131.0710  124.5580   63.4850 H   0  0  0  0  0  0  0  0  0  0  0  0
  133.3002  125.1940   66.0364 H   0  0  0  0  0  0  0  0  0  0  0  0
  132.6499  126.6225   65.0724 H   0  0  0  0  0  0  0  0  0  0  0  0
  128.1129  125.5032   61.3795 H   0  0  0  0  0  0  0  0  0  0  0  0
  127.9356  127.2506   61.0026 H   0  0  0  0  0  0  0  0  0  0  0  0
  129.5641  126.4926   61.0026 H   0  0  0  0  0  0  0  0  0  0  0  0
  127.3612  128.5076   62.9388 H   0  0  0  0  0  0  0  0  0  0  0  0
  1  2  1  0
  2  3  1  0
  3  4  1  0
  4  5  1  0
  5  6  1  0
  6  7  1  0
  7  8  1  0
  8  9  1  0
  9 10  1  0
 10 11  1  0
 11 12  1  0
 12 13  2  0
 12 14  1  0
 14 15  1  0
 15 16  1  0
 16 17  2  0
 17 18  1  0
 18 19  1  0
 18 20  2  0
 20 21  1  0
 21 22  1  0
 22 23  1  0
 22 24  1  0
 22 25  1  0
 21 26  2  0
 26 27  1  0
 27 28  3  0
 26 16  1  0
  1 29  1  0
  1 30  1  0
  1 31  1  0
  3 32  1  0
  3 33  1  0
  4 34  1  0
  4 35  1  0
  6 36  1  0
  6 37  1  0
  7 38  1  0
  7 39  1  0
  9 40  1  0
  9 41  1  0
 10 42  1  0
 10 43  1  0
 11 44  1  0
 14 45  1  0
 14 46  1  0
 19 47  1  0
 19 48  1  0
 19 49  1  0
 20 50  1  0
M  END
>  <Binding energies>  (1) 
[-4.68]

>  <Ligand effiencies>  (1) 
[-0.16137931034482758]

>  <Interactions>  (1) 
["V-A:LEU:475:CD1:4254, V-B:GLU:543:CD:9877, V-A:ARG:545:CZ:4923, H-A:ARG:545:NH2:4925, H-A:ARG:545:NH1:4924, H-A:GLY:454:N:4046, V-B:TYR:539:CE2:9845, V-A:HIS:456:CE1:4066, V-A:GLU:543:CD:4905, V-A:GLU:543:CG:4904, V-B:HIS:456:CE1:9038, V-A:GLU:543:CB:4903, V-B:TYR:539:CZ:9846, H-B:ALA:541:N:9860, V-B:TYR:539:CD2:9843, V-B:ALA:541:CB:9861, H-A:TYR:484:OH:4344, V-A:GLU:543:CA:4901, V-B:PRO:540:CB:9854, V-B:LEU:363:CA:8153, V-B:PRO:540:CA:9852, V-B:TYR:484:CE1:9313, V-B:ASN:362:C:8140, V-B:ASN:362:CB:8144"]

$$$$
3aa_Grossjean_2025
     RDKit          3D

 52 54  0  0  0  0  0  0  0  0999 V2000
  124.9930  127.7460   73.8800 C   0  0  0  0  0  0  0  0  0  0  0  0
  126.4900  128.0570   73.7870 C   0  0  0  0  0  0  0  0  0  0  0  0
  127.0880  127.2180   72.8050 O   0  0  0  0  0  0  0  0  0  0  0  0
  128.4090  127.3190   72.5110 C   0  0  0  0  0  0  0  0  0  0  0  0
  129.2810  127.5300   73.3600 O   0  0  0  0  0  0  0  0  0  0  0  0
  128.7050  127.1650   71.0470 C   0  0  0  0  0  0  0  0  0  0  0  0
  127.9070  126.3730   70.2070 C   0  0  0  0  0  0  0  0  0  0  0  0
  128.2080  126.2560   68.8520 C   0  0  0  0  0  0  0  0  0  0  0  0
  129.3030  126.9290   68.3090 C   0  0  0  0  0  0  0  0  0  0  0  0
  129.5160  126.7460   66.9280 N   0  0  0  0  0  0  0  0  0  0  0  0
  130.6410  126.9170   66.2000 C   0  0  0  0  0  0  0  0  0  0  0  0
  131.7240  127.3060   66.6400 O   0  0  0  0  0  0  0  0  0  0  0  0
  130.5160  126.6050   64.7090 C   0  0  0  0  0  0  0  0  0  0  0  0
  129.9900  124.8880   64.4210 S   0  0  0  0  0  0  0  0  0  0  0  0
  130.8340  124.3220   62.9610 C   0  0  0  0  0  0  0  0  0  0  0  0
  130.0040  124.0450   61.9270 N   0  0  0  0  0  0  0  0  0  0  0  0
  130.5190  123.6020   60.7510 C   0  0  0  0  0  0  0  0  0  0  0  0
  129.5380  123.3320   59.6500 C   0  0  0  0  0  0  0  0  0  0  0  0
  129.6170  124.0310   58.4350 C   0  0  0  0  0  0  0  0  0  0  0  0
  128.7100  123.7850   57.4070 C   0  0  0  0  0  0  0  0  0  0  0  0
  127.7090  122.8350   57.5830 C   0  0  0  0  0  0  0  0  0  0  0  0
  127.6100  122.1280   58.7760 C   0  0  0  0  0  0  0  0  0  0  0  0
  128.5200  122.3740   59.8010 C   0  0  0  0  0  0  0  0  0  0  0  0
  131.8980  123.4340   60.5880 C   0  0  0  0  0  0  0  0  0  0  0  0
  132.7760  123.6970   61.6510 C   0  0  0  0  0  0  0  0  0  0  0  0
  134.2860  123.4880   61.4350 C   0  0  0  0  0  0  0  0  0  0  0  0
  135.0320  124.3530   62.1260 F   0  0  0  0  0  0  0  0  0  0  0  0
  134.6410  122.2620   61.8200 F   0  0  0  0  0  0  0  0  0  0  0  0
  134.5860  123.6400   60.1450 F   0  0  0  0  0  0  0  0  0  0  0  0
  132.2330  124.1430   62.8800 C   0  0  0  0  0  0  0  0  0  0  0  0
  133.0960  124.3780   64.0410 C   0  0  0  0  0  0  0  0  0  0  0  0
  133.7780  124.5630   64.9590 N   0  0  0  0  0  0  0  0  0  0  0  0
  130.1130  127.7110   69.1460 C   0  0  0  0  0  0  0  0  0  0  0  0
  129.8130  127.8260   70.4990 C   0  0  0  0  0  0  0  0  0  0  0  0
  124.6963  127.6844   74.9374 H   0  0  0  0  0  0  0  0  0  0  0  0
  124.4211  128.5445   73.3847 H   0  0  0  0  0  0  0  0  0  0  0  0
  124.7865  126.7858   73.3847 H   0  0  0  0  0  0  0  0  0  0  0  0
  126.6288  129.1106   73.5030 H   0  0  0  0  0  0  0  0  0  0  0  0
  126.9639  127.8752   74.7629 H   0  0  0  0  0  0  0  0  0  0  0  0
  127.0380  125.8410   70.6215 H   0  0  0  0  0  0  0  0  0  0  0  0
  127.5776  125.6282   68.2051 H   0  0  0  0  0  0  0  0  0  0  0  0
  128.6860  126.4930   66.4110 H   0  0  0  0  0  0  0  0  0  0  0  0
  129.7740  127.2843   64.2639 H   0  0  0  0  0  0  0  0  0  0  0  0
  131.5046  126.7422   64.2466 H   0  0  0  0  0  0  0  0  0  0  0  0
  130.4065  124.7837   58.2929 H   0  0  0  0  0  0  0  0  0  0  0  0
  128.7848  124.3395   56.4600 H   0  0  0  0  0  0  0  0  0  0  0  0
  126.9908  122.6419   56.7725 H   0  0  0  0  0  0  0  0  0  0  0  0
  126.8166  121.3779   58.9096 H   0  0  0  0  0  0  0  0  0  0  0  0
  128.4412  121.8106   60.7425 H   0  0  0  0  0  0  0  0  0  0  0  0
  132.2968  123.0937   59.6209 H   0  0  0  0  0  0  0  0  0  0  0  0
  130.9872  128.2342   68.7312 H   0  0  0  0  0  0  0  0  0  0  0  0
  130.4528  128.4431   71.1470 H   0  0  0  0  0  0  0  0  0  0  0  0
  1  2  1  0
  2  3  1  0
  3  4  1  0
  4  5  2  0
  4  6  1  0
  6  7  2  0
  7  8  1  0
  8  9  2  0
  9 10  1  0
 10 11  1  0
 11 12  2  0
 11 13  1  0
 13 14  1  0
 14 15  1  0
 15 16  2  0
 16 17  1  0
 17 18  1  0
 18 19  2  0
 19 20  1  0
 20 21  2  0
 21 22  1  0
 22 23  2  0
 17 24  2  0
 24 25  1  0
 25 26  1  0
 26 27  1  0
 26 28  1  0
 26 29  1  0
 25 30  2  0
 30 31  1  0
 31 32  3  0
  9 33  1  0
 33 34  2  0
 34  6  1  0
 30 15  1  0
 23 18  1  0
  1 35  1  0
  1 36  1  0
  1 37  1  0
  2 38  1  0
  2 39  1  0
  7 40  1  0
  8 41  1  0
 10 42  1  0
 13 43  1  0
 13 44  1  0
 19 45  1  0
 20 46  1  0
 21 47  1  0
 22 48  1  0
 23 49  1  0
 24 50  1  0
 33 51  1  0
 34 52  1  0
M  END
>  <Binding energies>  (1) 
[-8.73]

>  <Ligand effiencies>  (1) 
[-0.24942857142857144]

>  <Interactions>  (1) 
["V-A:ILE:369:CB:3232, H-A:GLY:454:N:4046, V-A:ILE:369:CG1:3234, V-A:ILE:369:CG2:3233, V-A:GLY:454:CA:4045, V-B:TYR:539:CE2:9845, V-A:HIS:456:CE1:4066, V-A:GLU:543:CD:4905, V-B:GLU:543:C:9871, V-B:GLU:543:CB:9875, V-B:HIS:456:CE1:9038, V-B:GLY:544:C:9881, V-B:HIS:456:CD2:9036, V-B:TYR:539:CZ:9846, V-B:TYR:539:CD2:9843, V-A:ASP:366:CG:3209, V-B:TYR:539:C:9836, V-A:ASP:366:CB:3208, H-A:ARG:545:NE:4921, H-A:TYR:484:OH:4344, H-B:GLU:543:OE1:9878, V-B:LYS:547:CE:9919, V-B:HIS:456:CG:9034, V-B:HIS:456:CB:9033, V-B:LYS:547:CD:9918, H-A:LYS:547:NZ:4948, V-B:PRO:540:N:9853, V-A:GLY:453:C:4038, V-B:PRO:540:CA:9852, V-A:GLY:453:CA:4040, V-A:ASP:366:CA:3206, V-B:TYR:539:CE1:9844"]

$$$$
3ab_Grossjean_2025
     RDKit          3D

 49 51  0  0  0  0  0  0  0  0999 V2000
  126.4300  127.7500   73.4560 C   0  0  0  0  0  0  0  0  0  0  0  0
  127.3570  126.8990   72.7960 O   0  0  0  0  0  0  0  0  0  0  0  0
  128.5450  127.3760   72.3460 C   0  0  0  0  0  0  0  0  0  0  0  0
  129.3590  127.9630   73.0640 O   0  0  0  0  0  0  0  0  0  0  0  0
  128.7740  127.1150   70.8850 C   0  0  0  0  0  0  0  0  0  0  0  0
  127.9190  126.2930   70.1330 C   0  0  0  0  0  0  0  0  0  0  0  0
  128.1550  126.0700   68.7800 C   0  0  0  0  0  0  0  0  0  0  0  0
  129.2580  126.6680   68.1500 C   0  0  0  0  0  0  0  0  0  0  0  0
  129.5890  126.5170   66.7900 N   0  0  0  0  0  0  0  0  0  0  0  0
  130.7360  126.8080   66.1400 C   0  0  0  0  0  0  0  0  0  0  0  0
  131.7440  127.2960   66.6510 O   0  0  0  0  0  0  0  0  0  0  0  0
  130.7390  126.4920   64.6430 C   0  0  0  0  0  0  0  0  0  0  0  0
  129.7570  125.0120   64.2530 S   0  0  0  0  0  0  0  0  0  0  0  0
  130.3830  124.3410   62.7280 C   0  0  0  0  0  0  0  0  0  0  0  0
  129.4180  124.0780   61.8150 N   0  0  0  0  0  0  0  0  0  0  0  0
  129.7550  123.5670   60.6030 C   0  0  0  0  0  0  0  0  0  0  0  0
  128.6280  123.3080   59.6480 C   0  0  0  0  0  0  0  0  0  0  0  0
  128.8820  122.8560   58.3430 C   0  0  0  0  0  0  0  0  0  0  0  0
  127.8390  122.6130   57.4520 C   0  0  0  0  0  0  0  0  0  0  0  0
  126.5240  122.8200   57.8560 C   0  0  0  0  0  0  0  0  0  0  0  0
  126.2450  123.2700   59.1420 C   0  0  0  0  0  0  0  0  0  0  0  0
  127.2910  123.5120   60.0290 C   0  0  0  0  0  0  0  0  0  0  0  0
  131.0900  123.2870   60.2900 C   0  0  0  0  0  0  0  0  0  0  0  0
  132.1060  123.5320   61.2260 C   0  0  0  0  0  0  0  0  0  0  0  0
  133.5620  123.2040   60.8440 C   0  0  0  0  0  0  0  0  0  0  0  0
  134.4470  123.9950   61.4540 F   0  0  0  0  0  0  0  0  0  0  0  0
  133.8540  121.9470   61.1800 F   0  0  0  0  0  0  0  0  0  0  0  0
  133.7310  123.3500   59.5290 F   0  0  0  0  0  0  0  0  0  0  0  0
  131.7490  124.0670   62.4880 C   0  0  0  0  0  0  0  0  0  0  0  0
  132.7630  124.2890   63.5220 C   0  0  0  0  0  0  0  0  0  0  0  0
  133.5660  124.4630   64.3370 N   0  0  0  0  0  0  0  0  0  0  0  0
  130.1070  127.4900   68.8930 C   0  0  0  0  0  0  0  0  0  0  0  0
  129.8690  127.7110   70.2460 C   0  0  0  0  0  0  0  0  0  0  0  0
  126.5456  127.6438   74.5447 H   0  0  0  0  0  0  0  0  0  0  0  0
  126.6208  128.7941   73.1671 H   0  0  0  0  0  0  0  0  0  0  0  0
  125.4060  127.4708   73.1671 H   0  0  0  0  0  0  0  0  0  0  0  0
  127.0529  125.8201   70.6191 H   0  0  0  0  0  0  0  0  0  0  0  0
  127.4765  125.4243   68.2032 H   0  0  0  0  0  0  0  0  0  0  0  0
  128.8320  126.1690   66.2200 H   0  0  0  0  0  0  0  0  0  0  0  0
  130.3181  127.3502   64.0987 H   0  0  0  0  0  0  0  0  0  0  0  0
  131.7785  126.2976   64.3404 H   0  0  0  0  0  0  0  0  0  0  0  0
  129.9203  122.6913   58.0193 H   0  0  0  0  0  0  0  0  0  0  0  0
  128.0544  122.2589   56.4331 H   0  0  0  0  0  0  0  0  0  0  0  0
  125.6997  122.6265   57.1538 H   0  0  0  0  0  0  0  0  0  0  0  0
  125.2038  123.4339   59.4568 H   0  0  0  0  0  0  0  0  0  0  0  0
  127.0667  123.8689   61.0450 H   0  0  0  0  0  0  0  0  0  0  0  0
  131.3444  122.8721   59.3035 H   0  0  0  0  0  0  0  0  0  0  0  0
  130.9703  127.9664   68.4054 H   0  0  0  0  0  0  0  0  0  0  0  0
  130.5472  128.3600   70.8194 H   0  0  0  0  0  0  0  0  0  0  0  0
  1  2  1  0
  2  3  1  0
  3  4  2  0
  3  5  1  0
  5  6  2  0
  6  7  1  0
  7  8  2  0
  8  9  1  0
  9 10  1  0
 10 11  2  0
 10 12  1  0
 12 13  1  0
 13 14  1  0
 14 15  2  0
 15 16  1  0
 16 17  1  0
 17 18  2  0
 18 19  1  0
 19 20  2  0
 20 21  1  0
 21 22  2  0
 16 23  2  0
 23 24  1  0
 24 25  1  0
 25 26  1  0
 25 27  1  0
 25 28  1  0
 24 29  2  0
 29 30  1  0
 30 31  3  0
  8 32  1  0
 32 33  2  0
 33  5  1  0
 29 14  1  0
 22 17  1  0
  1 34  1  0
  1 35  1  0
  1 36  1  0
  6 37  1  0
  7 38  1  0
  9 39  1  0
 12 40  1  0
 12 41  1  0
 18 42  1  0
 19 43  1  0
 20 44  1  0
 21 45  1  0
 22 46  1  0
 23 47  1  0
 32 48  1  0
 33 49  1  0
M  END
>  <Binding energies>  (1) 
[-8.34]

>  <Ligand effiencies>  (1) 
[-0.24529411764705883]

>  <Interactions>  (1) 
["V-A:LEU:475:CD1:4254, V-A:ILE:369:CB:3232, H-A:GLY:454:N:4046, V-A:ILE:369:CG1:3234, V-A:ILE:369:CG2:3233, V-B:TYR:539:CE2:9845, V-A:HIS:456:CE1:4066, V-A:GLU:543:CD:4905, V-B:GLU:543:C:9871, V-B:GLU:543:CB:9875, V-B:HIS:456:CE1:9038, V-B:GLY:544:C:9881, V-B:HIS:456:CD2:9036, V-B:TYR:539:CZ:9846, V-B:TYR:539:CD2:9843, V-A:ASP:366:CG:3209, V-B:TYR:539:C:9836, V-A:ASP:366:CB:3208, H-A:ARG:545:NE:4921, H-A:TYR:484:OH:4344, H-B:GLU:543:OE1:9878, V-B:LYS:547:CE:9919, V-B:HIS:456:CG:9034, V-B:HIS:456:CB:9033, V-B:LYS:547:CD:9918, H-A:LYS:547:NZ:4948, V-B:PRO:540:N:9853, V-A:GLY:453:C:4038, V-B:PRO:540:CB:9854, V-B:PRO:540:CA:9852, V-A:GLY:453:CA:4040, V-A:ASP:366:CA:3206, V-B:TYR:539:CD1:9842, V-B:TYR:539:CE1:9844"]

$$$$
3ac_Grossjean_2025
     RDKit          3D

 47 49  0  0  0  0  0  0  0  0999 V2000
  128.3110  127.9780   73.2880 C   0  0  0  0  0  0  0  0  0  0  0  0
  129.3880  127.6340   72.4200 O   0  0  0  0  0  0  0  0  0  0  0  0
  129.1170  127.3050   71.1060 C   0  0  0  0  0  0  0  0  0  0  0  0
  130.0250  127.7600   70.1510 C   0  0  0  0  0  0  0  0  0  0  0  0
  129.8370  127.4730   68.8020 C   0  0  0  0  0  0  0  0  0  0  0  0
  128.7290  126.7320   68.3870 C   0  0  0  0  0  0  0  0  0  0  0  0
  128.6350  126.4760   67.0070 N   0  0  0  0  0  0  0  0  0  0  0  0
  129.6080  126.1260   66.1380 C   0  0  0  0  0  0  0  0  0  0  0  0
  130.7860  125.9220   66.4330 O   0  0  0  0  0  0  0  0  0  0  0  0
  129.1690  125.9770   64.6810 C   0  0  0  0  0  0  0  0  0  0  0  0
  130.4540  126.5220   63.5150 S   0  0  0  0  0  0  0  0  0  0  0  0
  130.8520  125.1660   62.4280 C   0  0  0  0  0  0  0  0  0  0  0  0
  129.8280  124.8200   61.6110 N   0  0  0  0  0  0  0  0  0  0  0  0
  129.9850  123.8070   60.7210 C   0  0  0  0  0  0  0  0  0  0  0  0
  128.8010  123.4830   59.8590 C   0  0  0  0  0  0  0  0  0  0  0  0
  128.9720  123.0910   58.5210 C   0  0  0  0  0  0  0  0  0  0  0  0
  127.8780  122.7830   57.7170 C   0  0  0  0  0  0  0  0  0  0  0  0
  126.5920  122.8660   58.2410 C   0  0  0  0  0  0  0  0  0  0  0  0
  126.3940  123.2570   59.5610 C   0  0  0  0  0  0  0  0  0  0  0  0
  127.4910  123.5640   60.3610 C   0  0  0  0  0  0  0  0  0  0  0  0
  131.1880  123.0990   60.6470 C   0  0  0  0  0  0  0  0  0  0  0  0
  132.2560  123.4220   61.4960 C   0  0  0  0  0  0  0  0  0  0  0  0
  133.5620  122.6110   61.3850 C   0  0  0  0  0  0  0  0  0  0  0  0
  134.6410  123.3850   61.2400 F   0  0  0  0  0  0  0  0  0  0  0  0
  133.7460  121.8770   62.4840 F   0  0  0  0  0  0  0  0  0  0  0  0
  133.5030  121.8000   60.3290 F   0  0  0  0  0  0  0  0  0  0  0  0
  132.0860  124.4760   62.4280 C   0  0  0  0  0  0  0  0  0  0  0  0
  133.1440  124.7990   63.3870 C   0  0  0  0  0  0  0  0  0  0  0  0
  133.9810  125.0530   64.1460 N   0  0  0  0  0  0  0  0  0  0  0  0
  127.8140  126.2650   69.3440 C   0  0  0  0  0  0  0  0  0  0  0  0
  128.0060  126.5530   70.6920 C   0  0  0  0  0  0  0  0  0  0  0  0
  128.6356  127.8743   74.3339 H   0  0  0  0  0  0  0  0  0  0  0  0
  128.0064  129.0181   73.1000 H   0  0  0  0  0  0  0  0  0  0  0  0
  127.4599  127.3070   73.1000 H   0  0  0  0  0  0  0  0  0  0  0  0
  130.8976  128.3509   70.4663 H   0  0  0  0  0  0  0  0  0  0  0  0
  130.5649  127.8318   68.0594 H   0  0  0  0  0  0  0  0  0  0  0  0
  127.6970  126.5160   66.6370 H   0  0  0  0  0  0  0  0  0  0  0  0
  128.9406  124.9187   64.4866 H   0  0  0  0  0  0  0  0  0  0  0  0
  128.2844  126.6129   64.5289 H   0  0  0  0  0  0  0  0  0  0  0  0
  129.9869  123.0263   58.1017 H   0  0  0  0  0  0  0  0  0  0  0  0
  128.0298  122.4753   56.6719 H   0  0  0  0  0  0  0  0  0  0  0  0
  125.7266  122.6210   57.6077 H   0  0  0  0  0  0  0  0  0  0  0  0
  125.3754  123.3233   59.9708 H   0  0  0  0  0  0  0  0  0  0  0  0
  127.3297  123.8752   61.4037 H   0  0  0  0  0  0  0  0  0  0  0  0
  131.2975  122.2829   59.9177 H   0  0  0  0  0  0  0  0  0  0  0  0
  126.9441  125.6706   69.0279 H   0  0  0  0  0  0  0  0  0  0  0  0
  127.2832  126.1894   71.4373 H   0  0  0  0  0  0  0  0  0  0  0  0
  1  2  1  0
  2  3  1  0
  3  4  2  0
  4  5  1  0
  5  6  2  0
  6  7  1  0
  7  8  1  0
  8  9  2  0
  8 10  1  0
 10 11  1  0
 11 12  1  0
 12 13  2  0
 13 14  1  0
 14 15  1  0
 15 16  2  0
 16 17  1  0
 17 18  2  0
 18 19  1  0
 19 20  2  0
 14 21  2  0
 21 22  1  0
 22 23  1  0
 23 24  1  0
 23 25  1  0
 23 26  1  0
 22 27  2  0
 27 28  1  0
 28 29  3  0
  6 30  1  0
 30 31  2  0
 31  3  1  0
 27 12  1  0
 20 15  1  0
  1 32  1  0
  1 33  1  0
  1 34  1  0
  4 35  1  0
  5 36  1  0
  7 37  1  0
 10 38  1  0
 10 39  1  0
 16 40  1  0
 17 41  1  0
 18 42  1  0
 19 43  1  0
 20 44  1  0
 21 45  1  0
 30 46  1  0
 31 47  1  0
M  END
>  <Binding energies>  (1) 
[-8.11]

>  <Ligand effiencies>  (1) 
[-0.2534375]

>  <Interactions>  (1) 
["V-A:LEU:475:CD1:4254, V-B:GLU:543:CD:9877, V-A:ARG:545:CZ:4923, V-A:ILE:369:CB:3232, H-A:ARG:545:NH2:4925, H-A:ARG:545:NH1:4924, H-A:GLY:454:N:4046, V-A:ILE:369:CG1:3234, V-A:ILE:369:CG2:3233, V-A:GLY:454:CA:4045, V-B:TYR:539:CE2:9845, V-A:HIS:456:CE1:4066, V-B:GLU:543:C:9871, V-B:GLU:543:CB:9875, V-B:HIS:456:CE1:9038, V-B:GLY:544:C:9881, V-B:HIS:456:CD2:9036, V-B:GLU:543:CG:9876, V-B:TYR:539:CZ:9846, V-B:TYR:539:CD2:9843, H-A:ARG:545:NE:4921, H-A:TYR:484:OH:4344, H-B:GLU:543:OE1:9878, H-A:LYS:547:NZ:4948, V-B:PRO:540:N:9853, V-A:GLY:453:C:4038, V-B:PRO:540:CB:9854, V-B:PRO:540:CA:9852, V-A:GLY:453:CA:4040, V-B:TYR:539:CE1:9844"]

$$$$
3ad_Grossjean_2025
     RDKit          3D

 43 45  0  0  0  0  0  0  0  0999 V2000
  128.3140  127.9980   62.4960 N   0  0  0  0  0  0  0  0  0  0  0  0
  128.4850  127.8280   63.6280 C   0  0  0  0  0  0  0  0  0  0  0  0
  128.7050  127.6100   65.0610 C   0  0  0  0  0  0  0  0  0  0  0  0
  129.3870  126.4590   65.5220 C   0  0  0  0  0  0  0  0  0  0  0  0
  129.9730  125.4010   64.5680 C   0  0  0  0  0  0  0  0  0  0  0  0
  130.9910  125.8660   63.8400 F   0  0  0  0  0  0  0  0  0  0  0  0
  130.4230  124.3570   65.2670 F   0  0  0  0  0  0  0  0  0  0  0  0
  129.0350  124.9790   63.7180 F   0  0  0  0  0  0  0  0  0  0  0  0
  129.5300  126.2740   66.9060 C   0  0  0  0  0  0  0  0  0  0  0  0
  129.0040  127.2090   67.8030 C   0  0  0  0  0  0  0  0  0  0  0  0
  129.1150  127.0530   69.2900 C   0  0  0  0  0  0  0  0  0  0  0  0
  128.2110  126.2440   69.9960 C   0  0  0  0  0  0  0  0  0  0  0  0
  128.3090  126.0940   71.3760 C   0  0  0  0  0  0  0  0  0  0  0  0
  129.3170  126.7540   72.0730 C   0  0  0  0  0  0  0  0  0  0  0  0
  130.2270  127.5590   71.3970 C   0  0  0  0  0  0  0  0  0  0  0  0
  130.1260  127.7060   70.0150 C   0  0  0  0  0  0  0  0  0  0  0  0
  128.3460  128.3080   67.3560 N   0  0  0  0  0  0  0  0  0  0  0  0
  128.2130  128.5190   66.0250 C   0  0  0  0  0  0  0  0  0  0  0  0
  127.3350  130.0130   65.6230 S   0  0  0  0  0  0  0  0  0  0  0  0
  125.6040  129.5540   65.3120 C   0  0  0  0  0  0  0  0  0  0  0  0
  124.9320  130.4850   64.3000 C   0  0  0  0  0  0  0  0  0  0  0  0
  123.7590  130.2800   63.9860 O   0  0  0  0  0  0  0  0  0  0  0  0
  125.7090  131.4810   63.8240 N   0  0  0  0  0  0  0  0  0  0  0  0
  125.4020  132.5030   62.9060 C   0  0  0  0  0  0  0  0  0  0  0  0
  126.4880  133.0230   62.1940 C   0  0  0  0  0  0  0  0  0  0  0  0
  126.2960  134.0400   61.2630 C   0  0  0  0  0  0  0  0  0  0  0  0
  125.0160  134.5430   61.0460 C   0  0  0  0  0  0  0  0  0  0  0  0
  123.9280  134.0400   61.7530 C   0  0  0  0  0  0  0  0  0  0  0  0
  124.1150  133.0220   62.6850 C   0  0  0  0  0  0  0  0  0  0  0  0
  130.0590  125.3882   67.2873 H   0  0  0  0  0  0  0  0  0  0  0  0
  127.4125  125.7203   69.4499 H   0  0  0  0  0  0  0  0  0  0  0  0
  127.5924  125.4561   71.9141 H   0  0  0  0  0  0  0  0  0  0  0  0
  129.3940  126.6381   73.1642 H   0  0  0  0  0  0  0  0  0  0  0  0
  131.0234  128.0777   71.9508 H   0  0  0  0  0  0  0  0  0  0  0  0
  130.8486  128.3428   69.4837 H   0  0  0  0  0  0  0  0  0  0  0  0
  125.5747  128.5260   64.9215 H   0  0  0  0  0  0  0  0  0  0  0  0
  125.0566  129.6369   66.2625 H   0  0  0  0  0  0  0  0  0  0  0  0
  126.6680  131.4840   64.1380 H   0  0  0  0  0  0  0  0  0  0  0  0
  127.4987  132.6264   62.3706 H   0  0  0  0  0  0  0  0  0  0  0  0
  127.1513  134.4442   60.7016 H   0  0  0  0  0  0  0  0  0  0  0  0
  124.8633  135.3452   60.3090 H   0  0  0  0  0  0  0  0  0  0  0  0
  122.9211  134.4461   61.5759 H   0  0  0  0  0  0  0  0  0  0  0  0
  123.2568  132.6250   63.2470 H   0  0  0  0  0  0  0  0  0  0  0  0
  1  2  3  0
  2  3  1  0
  3  4  2  0
  4  5  1  0
  5  6  1  0
  5  7  1  0
  5  8  1  0
  4  9  1  0
  9 10  2  0
 10 11  1  0
 11 12  2  0
 12 13  1  0
 13 14  2  0
 14 15  1  0
 15 16  2  0
 10 17  1  0
 17 18  2  0
 18 19  1  0
 19 20  1  0
 20 21  1  0
 21 22  2  0
 21 23  1  0
 23 24  1  0
 24 25  2  0
 25 26  1  0
 26 27  2  0
 27 28  1  0
 28 29  2  0
 18  3  1  0
 29 24  1  0
 16 11  1  0
  9 30  1  0
 12 31  1  0
 13 32  1  0
 14 33  1  0
 15 34  1  0
 16 35  1  0
 20 36  1  0
 20 37  1  0
 23 38  1  0
 25 39  1  0
 26 40  1  0
 27 41  1  0
 28 42  1  0
 29 43  1  0
M  END
>  <Binding energies>  (1) 
[-7.71]

>  <Ligand effiencies>  (1) 
[-0.257]

>  <Interactions>  (1) 
["V-B:GLU:543:CD:9877, V-A:HIS:456:CE1:4066, V-A:GLU:543:CD:4905, V-A:GLU:543:CG:4904, V-A:TYR:484:CZ:4343, V-B:GLU:543:C:9871, V-B:GLU:543:CB:9875, V-B:HIS:456:CE1:9038, V-A:TYR:484:CE1:4341, V-B:GLY:544:C:9881, V-A:HIS:456:CD2:4064, V-A:GLU:543:CB:4903, V-B:GLU:543:CG:9876, V-B:ILE:369:CD1:8207, V-B:ILE:369:CG2:8205, V-B:TRP:381:CH2:8340, V-B:GLY:454:CA:9017, H-B:TYR:484:OH:9316, V-B:LEU:475:CD2:9227, V-B:LYS:547:CE:9919, H-B:GLY:454:N:9018, H-B:ARG:545:NH1:9896"]

$$$$
3af_Grossjean_2025
     RDKit          3D

 42 44  0  0  0  0  0  0  0  0999 V2000
  128.3020  127.9780   62.5130 N   0  0  0  0  0  0  0  0  0  0  0  0
  128.4740  127.8200   63.6470 C   0  0  0  0  0  0  0  0  0  0  0  0
  128.6930  127.6170   65.0810 C   0  0  0  0  0  0  0  0  0  0  0  0
  129.3780  126.4710   65.5530 C   0  0  0  0  0  0  0  0  0  0  0  0
  129.9700  125.4080   64.6080 C   0  0  0  0  0  0  0  0  0  0  0  0
  130.9980  125.8670   63.8900 F   0  0  0  0  0  0  0  0  0  0  0  0
  130.4070  124.3640   65.3140 F   0  0  0  0  0  0  0  0  0  0  0  0
  129.0400  124.9900   63.7480 F   0  0  0  0  0  0  0  0  0  0  0  0
  129.5150  126.2940   66.9380 C   0  0  0  0  0  0  0  0  0  0  0  0
  128.9820  127.2340   67.8270 C   0  0  0  0  0  0  0  0  0  0  0  0
  129.0830  127.0850   69.3160 C   0  0  0  0  0  0  0  0  0  0  0  0
  128.1810  126.2700   70.0180 C   0  0  0  0  0  0  0  0  0  0  0  0
  128.2710  126.1250   71.4000 C   0  0  0  0  0  0  0  0  0  0  0  0
  129.2680  126.7960   72.1000 C   0  0  0  0  0  0  0  0  0  0  0  0
  130.1770  127.6070   71.4280 C   0  0  0  0  0  0  0  0  0  0  0  0
  130.0830  127.7480   70.0460 C   0  0  0  0  0  0  0  0  0  0  0  0
  128.3230  128.3290   67.3710 N   0  0  0  0  0  0  0  0  0  0  0  0
  128.1980  128.5340   66.0370 C   0  0  0  0  0  0  0  0  0  0  0  0
  127.3180  130.0290   65.6320 S   0  0  0  0  0  0  0  0  0  0  0  0
  125.5560  129.6140   65.4560 C   0  0  0  0  0  0  0  0  0  0  0  0
  124.8680  130.4880   64.4080 C   0  0  0  0  0  0  0  0  0  0  0  0
  123.7460  130.1750   64.0100 O   0  0  0  0  0  0  0  0  0  0  0  0
  125.5780  131.5590   63.9920 N   0  0  0  0  0  0  0  0  0  0  0  0
  125.2430  132.5460   63.0440 C   0  0  0  0  0  0  0  0  0  0  0  0
  123.9480  133.0360   62.7920 C   0  0  0  0  0  0  0  0  0  0  0  0
  123.7590  134.0180   61.8170 C   0  0  0  0  0  0  0  0  0  0  0  0
  124.8700  134.4880   61.1170 C   0  0  0  0  0  0  0  0  0  0  0  0
  126.1280  134.0320   61.3410 N   0  0  0  0  0  0  0  0  0  0  0  0
  126.2950  133.0780   62.2910 C   0  0  0  0  0  0  0  0  0  0  0  0
  130.0442  125.4116   67.3271 H   0  0  0  0  0  0  0  0  0  0  0  0
  127.3910  125.7377   69.4679 H   0  0  0  0  0  0  0  0  0  0  0  0
  127.5567  125.4826   71.9357 H   0  0  0  0  0  0  0  0  0  0  0  0
  129.3383  126.6848   73.1921 H   0  0  0  0  0  0  0  0  0  0  0  0
  130.9655  128.1339   71.9854 H   0  0  0  0  0  0  0  0  0  0  0  0
  130.8037  128.3891   69.5173 H   0  0  0  0  0  0  0  0  0  0  0  0
  125.4671  128.5599   65.1543 H   0  0  0  0  0  0  0  0  0  0  0  0
  125.0650  129.7914   66.4242 H   0  0  0  0  0  0  0  0  0  0  0  0
  126.4830  131.6870   64.4200 H   0  0  0  0  0  0  0  0  0  0  0  0
  123.0895  132.6478   63.3597 H   0  0  0  0  0  0  0  0  0  0  0  0
  122.7543  134.4127   61.6055 H   0  0  0  0  0  0  0  0  0  0  0  0
  124.7197  135.2620   60.3500 H   0  0  0  0  0  0  0  0  0  0  0  0
  127.3118  132.7029   62.4792 H   0  0  0  0  0  0  0  0  0  0  0  0
  1  2  3  0
  2  3  1  0
  3  4  2  0
  4  5  1  0
  5  6  1  0
  5  7  1  0
  5  8  1  0
  4  9  1  0
  9 10  2  0
 10 11  1  0
 11 12  2  0
 12 13  1  0
 13 14  2  0
 14 15  1  0
 15 16  2  0
 10 17  1  0
 17 18  2  0
 18 19  1  0
 19 20  1  0
 20 21  1  0
 21 22  2  0
 21 23  1  0
 23 24  1  0
 24 25  2  0
 25 26  1  0
 26 27  2  0
 27 28  1  0
 28 29  2  0
 18  3  1  0
 29 24  1  0
 16 11  1  0
  9 30  1  0
 12 31  1  0
 13 32  1  0
 14 33  1  0
 15 34  1  0
 16 35  1  0
 20 36  1  0
 20 37  1  0
 23 38  1  0
 25 39  1  0
 26 40  1  0
 27 41  1  0
 29 42  1  0
M  END
>  <Binding energies>  (1) 
[-7.36]

>  <Ligand effiencies>  (1) 
[-0.24533333333333335]

>  <Interactions>  (1) 
["V-B:GLU:543:CD:9877, V-A:HIS:456:CE1:4066, V-A:GLU:543:CD:4905, V-A:GLU:543:CG:4904, V-A:TYR:484:CZ:4343, V-B:GLU:543:C:9871, V-B:GLU:543:CB:9875, V-B:HIS:456:CE1:9038, V-A:TYR:484:CE1:4341, V-B:GLY:544:C:9881, V-A:HIS:456:CD2:4064, V-A:GLU:543:CB:4903, V-B:GLU:543:CG:9876, V-B:ILE:369:CD1:8207, V-B:ILE:369:CG2:8205, V-B:TRP:381:CH2:8340, V-B:GLY:454:CA:9017, H-B:TYR:484:OH:9316, V-B:LEU:475:CD2:9227, H-B:ARG:545:NH2:9897, V-B:LYS:547:CE:9919, H-B:GLY:454:N:9018, H-B:ARG:545:NH1:9896"]

$$$$
3ag_Grossjean_2025
     RDKit          3D

 46 48  0  0  0  0  0  0  0  0999 V2000
  128.5180  127.7250   62.1920 N   0  0  0  0  0  0  0  0  0  0  0  0
  128.6260  127.6070   63.3380 C   0  0  0  0  0  0  0  0  0  0  0  0
  128.7650  127.4540   64.7890 C   0  0  0  0  0  0  0  0  0  0  0  0
  129.4500  126.3420   65.3380 C   0  0  0  0  0  0  0  0  0  0  0  0
  130.1330  125.2720   64.4640 C   0  0  0  0  0  0  0  0  0  0  0  0
  130.6350  124.2640   65.1790 F   0  0  0  0  0  0  0  0  0  0  0  0
  129.2510  124.7560   63.6070 F   0  0  0  0  0  0  0  0  0  0  0  0
  131.1390  125.8130   63.7770 F   0  0  0  0  0  0  0  0  0  0  0  0
  129.5090  126.2130   66.7340 C   0  0  0  0  0  0  0  0  0  0  0  0
  128.8910  127.1590   67.5580 C   0  0  0  0  0  0  0  0  0  0  0  0
  128.9210  127.0690   69.0540 C   0  0  0  0  0  0  0  0  0  0  0  0
  129.9180  127.7260   69.7920 C   0  0  0  0  0  0  0  0  0  0  0  0
  129.9520  127.6470   71.1820 C   0  0  0  0  0  0  0  0  0  0  0  0
  128.9850  126.9060   71.8540 C   0  0  0  0  0  0  0  0  0  0  0  0
  127.9880  126.2430   71.1460 C   0  0  0  0  0  0  0  0  0  0  0  0
  127.9580  126.3240   69.7570 C   0  0  0  0  0  0  0  0  0  0  0  0
  128.2470  128.2310   67.0290 N   0  0  0  0  0  0  0  0  0  0  0  0
  128.1940  128.3870   65.6840 C   0  0  0  0  0  0  0  0  0  0  0  0
  127.3130  129.8450   65.1710 S   0  0  0  0  0  0  0  0  0  0  0  0
  125.5460  129.5470   65.4780 C   0  0  0  0  0  0  0  0  0  0  0  0
  124.6690  130.0310   64.3230 C   0  0  0  0  0  0  0  0  0  0  0  0
  123.4410  129.9950   64.4260 O   0  0  0  0  0  0  0  0  0  0  0  0
  125.3130  130.4870   63.2340 N   0  0  0  0  0  0  0  0  0  0  0  0
  124.6750  131.0280   62.0350 C   0  0  0  0  0  0  0  0  0  0  0  0
  125.1240  132.4400   61.6740 C   0  0  0  0  0  0  0  0  0  0  0  0
  126.4870  132.7360   61.5960 C   0  0  0  0  0  0  0  0  0  0  0  0
  126.9020  134.0160   61.2380 C   0  0  0  0  0  0  0  0  0  0  0  0
  125.9520  134.9930   60.9490 C   0  0  0  0  0  0  0  0  0  0  0  0
  124.5910  134.7010   61.0110 C   0  0  0  0  0  0  0  0  0  0  0  0
  124.1760  133.4210   61.3690 C   0  0  0  0  0  0  0  0  0  0  0  0
  130.0442  125.3632   67.1827 H   0  0  0  0  0  0  0  0  0  0  0  0
  130.6845  128.3125   69.2642 H   0  0  0  0  0  0  0  0  0  0  0  0
  130.7397  128.1680   71.7460 H   0  0  0  0  0  0  0  0  0  0  0  0
  129.0091  126.8441   72.9520 H   0  0  0  0  0  0  0  0  0  0  0  0
  127.2265  125.6572   71.6817 H   0  0  0  0  0  0  0  0  0  0  0  0
  127.1688  125.7971   69.2007 H   0  0  0  0  0  0  0  0  0  0  0  0
  125.3875  128.4671   65.6146 H   0  0  0  0  0  0  0  0  0  0  0  0
  125.2601  130.1109   66.3781 H   0  0  0  0  0  0  0  0  0  0  0  0
  126.3220  130.4900   63.2390 H   0  0  0  0  0  0  0  0  0  0  0  0
  124.9093  130.3643   61.1897 H   0  0  0  0  0  0  0  0  0  0  0  0
  123.5969  131.0823   62.2464 H   0  0  0  0  0  0  0  0  0  0  0  0
  127.2324  131.9579   61.8174 H   0  0  0  0  0  0  0  0  0  0  0  0
  127.9745  134.2545   61.1837 H   0  0  0  0  0  0  0  0  0  0  0  0
  126.2796  136.0051   60.6691 H   0  0  0  0  0  0  0  0  0  0  0  0
  123.8479  135.4780   60.7782 H   0  0  0  0  0  0  0  0  0  0  0  0
  123.1031  133.1820   61.4118 H   0  0  0  0  0  0  0  0  0  0  0  0
  1  2  3  0
  2  3  1  0
  3  4  2  0
  4  5  1  0
  5  6  1  0
  5  7  1  0
  5  8  1  0
  4  9  1  0
  9 10  2  0
 10 11  1  0
 11 12  2  0
 12 13  1  0
 13 14  2  0
 14 15  1  0
 15 16  2  0
 10 17  1  0
 17 18  2  0
 18 19  1  0
 19 20  1  0
 20 21  1  0
 21 22  2  0
 21 23  1  0
 23 24  1  0
 24 25  1  0
 25 26  2  0
 26 27  1  0
 27 28  2  0
 28 29  1  0
 29 30  2  0
 18  3  1  0
 30 25  1  0
 16 11  1  0
  9 31  1  0
 12 32  1  0
 13 33  1  0
 14 34  1  0
 15 35  1  0
 16 36  1  0
 20 37  1  0
 20 38  1  0
 23 39  1  0
 24 40  1  0
 24 41  1  0
 26 42  1  0
 27 43  1  0
 28 44  1  0
 29 45  1  0
 30 46  1  0
M  END
>  <Binding energies>  (1) 
[-7.8]

>  <Ligand effiencies>  (1) 
[-0.25161290322580643]

>  <Interactions>  (1) 
["V-B:GLU:543:CD:9877, V-A:HIS:456:CE1:4066, V-A:GLU:543:CD:4905, V-A:TYR:484:CZ:4343, V-B:GLU:543:C:9871, V-B:GLU:543:CB:9875, V-B:HIS:456:CE1:9038, V-A:TYR:484:CE1:4341, V-B:GLY:544:C:9881, V-B:GLU:543:CG:9876, V-B:ILE:369:CD1:8207, V-B:ILE:369:CG2:8205, V-B:ARG:545:CZ:9895, V-B:TRP:381:CH2:8340, V-A:ALA:541:CB:4889, V-A:TYR:539:CD2:4871, V-B:LEU:475:CD2:9227, V-B:ASP:366:CG:8181, H-B:ARG:545:NH2:9897, V-B:LYS:547:CE:9919, H-B:GLY:454:N:9018, H-B:ARG:545:NH1:9896, H-B:ARG:545:NE:9893"]

$$$$
3ai_Grossjean_2025
     RDKit          3D

 39 41  0  0  0  0  0  0  0  0999 V2000
  133.4810  123.0670   61.7000 N   0  0  0  0  0  0  0  0  0  0  0  0
  132.7490  123.8240   62.1790 C   0  0  0  0  0  0  0  0  0  0  0  0
  131.8230  124.7850   62.7870 C   0  0  0  0  0  0  0  0  0  0  0  0
  132.1150  125.3790   64.0390 C   0  0  0  0  0  0  0  0  0  0  0  0
  133.4200  125.0990   64.8080 C   0  0  0  0  0  0  0  0  0  0  0  0
  133.5110  125.7940   65.9440 F   0  0  0  0  0  0  0  0  0  0  0  0
  133.4930  123.8040   65.1230 F   0  0  0  0  0  0  0  0  0  0  0  0
  134.4740  125.4220   64.0580 F   0  0  0  0  0  0  0  0  0  0  0  0
  131.1740  126.2550   64.6010 C   0  0  0  0  0  0  0  0  0  0  0  0
  129.9750  126.5280   63.9350 C   0  0  0  0  0  0  0  0  0  0  0  0
  128.9300  127.4460   64.4940 C   0  0  0  0  0  0  0  0  0  0  0  0
  128.8950  127.7400   65.8660 C   0  0  0  0  0  0  0  0  0  0  0  0
  127.9300  128.5960   66.3910 C   0  0  0  0  0  0  0  0  0  0  0  0
  126.9860  129.1720   65.5480 C   0  0  0  0  0  0  0  0  0  0  0  0
  127.0000  128.8990   64.1840 C   0  0  0  0  0  0  0  0  0  0  0  0
  127.9660  128.0430   63.6630 C   0  0  0  0  0  0  0  0  0  0  0  0
  129.6950  125.9490   62.7390 N   0  0  0  0  0  0  0  0  0  0  0  0
  130.5980  125.1180   62.1650 C   0  0  0  0  0  0  0  0  0  0  0  0
  130.0690  124.4740   60.5920 S   0  0  0  0  0  0  0  0  0  0  0  0
  129.2430  122.8740   60.8920 C   0  0  0  0  0  0  0  0  0  0  0  0
  127.8120  122.7690   60.3420 C   0  0  0  0  0  0  0  0  0  0  0  0
  127.5650  122.0670   59.3580 O   0  0  0  0  0  0  0  0  0  0  0  0
  126.8940  123.4960   61.0170 N   0  0  0  0  0  0  0  0  0  0  0  0
  125.5340  123.5880   60.7520 C   0  0  0  0  0  0  0  0  0  0  0  0
  125.0030  124.4220   59.7690 C   0  0  0  0  0  0  0  0  0  0  0  0
  123.6430  124.2250   59.8260 C   0  0  0  0  0  0  0  0  0  0  0  0
  123.3680  123.3180   60.7940 O   0  0  0  0  0  0  0  0  0  0  0  0
  124.5740  122.9220   61.3730 N   0  0  0  0  0  0  0  0  0  0  0  0
  131.3807  126.7299   65.5714 H   0  0  0  0  0  0  0  0  0  0  0  0
  129.6407  127.2877   66.5364 H   0  0  0  0  0  0  0  0  0  0  0  0
  127.9146  128.8157   67.4687 H   0  0  0  0  0  0  0  0  0  0  0  0
  126.2233  129.8478   65.9623 H   0  0  0  0  0  0  0  0  0  0  0  0
  126.2516  129.3572   63.5207 H   0  0  0  0  0  0  0  0  0  0  0  0
  127.9753  127.8302   62.5838 H   0  0  0  0  0  0  0  0  0  0  0  0
  129.8479  122.0843   60.4224 H   0  0  0  0  0  0  0  0  0  0  0  0
  129.1611  122.7701   61.9840 H   0  0  0  0  0  0  0  0  0  0  0  0
  127.2190  124.0340   61.8070 H   0  0  0  0  0  0  0  0  0  0  0  0
  125.5533  125.0932   59.0932 H   0  0  0  0  0  0  0  0  0  0  0  0
  122.8984  124.7237   59.1882 H   0  0  0  0  0  0  0  0  0  0  0  0
  1  2  3  0
  2  3  1  0
  3  4  2  0
  4  5  1  0
  5  6  1  0
  5  7  1  0
  5  8  1  0
  4  9  1  0
  9 10  2  0
 10 11  1  0
 11 12  2  0
 12 13  1  0
 13 14  2  0
 14 15  1  0
 15 16  2  0
 10 17  1  0
 17 18  2  0
 18 19  1  0
 19 20  1  0
 20 21  1  0
 21 22  2  0
 21 23  1  0
 23 24  1  0
 24 25  1  0
 25 26  2  0
 26 27  1  0
 27 28  1  0
 18  3  1  0
 28 24  2  0
 16 11  1  0
  9 29  1  0
 12 30  1  0
 13 31  1  0
 14 32  1  0
 15 33  1  0
 16 34  1  0
 20 35  1  0
 20 36  1  0
 23 37  1  0
 25 38  1  0
 26 39  1  0
M  END
>  <Binding energies>  (1) 
[-7.29]

>  <Ligand effiencies>  (1) 
[-0.2513793103448276]

>  <Interactions>  (1) 
["V-B:GLU:543:CD:9877, V-A:ARG:545:CZ:4923, H-A:GLY:454:N:4046, V-A:ARG:545:CG:4919, V-A:GLY:454:CA:4045, V-B:TYR:539:CE2:9845, V-A:HIS:456:CE1:4066, V-A:GLY:454:C:4043, V-A:GLU:543:CD:4905, V-A:TYR:484:CZ:4343, V-B:HIS:456:CE1:9038, H-B:ALA:541:N:9860, V-B:ALA:541:CB:9861, V-A:ARG:545:CD:4920, V-A:GLY:453:C:4038, V-B:PRO:540:CB:9854, V-B:LEU:363:CA:8153, V-B:PRO:540:CA:9852, V-A:GLY:453:CA:4040, V-B:ASN:362:C:8140, H-B:GLU:543:OE2:9879, H-B:LEU:363:N:8154"]

$$$$
3aj_Grossjean_2025
     RDKit          3D

 39 41  0  0  0  0  0  0  0  0999 V2000
  133.8680  123.0340   62.1560 N   0  0  0  0  0  0  0  0  0  0  0  0
  133.0970  123.7720   62.6010 C   0  0  0  0  0  0  0  0  0  0  0  0
  132.1220  124.7100   63.1670 C   0  0  0  0  0  0  0  0  0  0  0  0
  132.3840  125.3760   64.3890 C   0  0  0  0  0  0  0  0  0  0  0  0
  133.7020  125.1980   65.1680 C   0  0  0  0  0  0  0  0  0  0  0  0
  133.8760  123.9510   65.6130 F   0  0  0  0  0  0  0  0  0  0  0  0
  134.7390  125.4940   64.3840 F   0  0  0  0  0  0  0  0  0  0  0  0
  133.7180  126.0060   66.2290 F   0  0  0  0  0  0  0  0  0  0  0  0
  131.3990  126.2270   64.9130 C   0  0  0  0  0  0  0  0  0  0  0  0
  130.1860  126.4040   64.2390 C   0  0  0  0  0  0  0  0  0  0  0  0
  129.0970  127.2920   64.7590 C   0  0  0  0  0  0  0  0  0  0  0  0
  128.1920  127.9050   63.8790 C   0  0  0  0  0  0  0  0  0  0  0  0
  127.1740  128.7290   64.3550 C   0  0  0  0  0  0  0  0  0  0  0  0
  127.0500  128.9510   65.7230 C   0  0  0  0  0  0  0  0  0  0  0  0
  127.9340  128.3540   66.6160 C   0  0  0  0  0  0  0  0  0  0  0  0
  128.9480  127.5310   66.1350 C   0  0  0  0  0  0  0  0  0  0  0  0
  129.9370  125.7570   63.0720 N   0  0  0  0  0  0  0  0  0  0  0  0
  130.8810  124.9500   62.5340 C   0  0  0  0  0  0  0  0  0  0  0  0
  130.3870  124.2070   60.9940 S   0  0  0  0  0  0  0  0  0  0  0  0
  129.3350  122.7660   61.3790 C   0  0  0  0  0  0  0  0  0  0  0  0
  127.9820  122.7380   60.6550 C   0  0  0  0  0  0  0  0  0  0  0  0
  127.8330  122.0830   59.6200 O   0  0  0  0  0  0  0  0  0  0  0  0
  127.0110  123.4720   61.2430 N   0  0  0  0  0  0  0  0  0  0  0  0
  125.7010  123.6160   60.8070 C   0  0  0  0  0  0  0  0  0  0  0  0
  124.6290  122.9950   61.2490 N   0  0  0  0  0  0  0  0  0  0  0  0
  123.5440  123.3800   60.6070 C   0  0  0  0  0  0  0  0  0  0  0  0
  123.7250  124.3390   59.6130 C   0  0  0  0  0  0  0  0  0  0  0  0
  125.4120  124.7480   59.5250 S   0  0  0  0  0  0  0  0  0  0  0  0
  131.5817  126.7579   65.8590 H   0  0  0  0  0  0  0  0  0  0  0  0
  128.2876  127.7324   62.7968 H   0  0  0  0  0  0  0  0  0  0  0  0
  126.4718  129.2017   63.6526 H   0  0  0  0  0  0  0  0  0  0  0  0
  126.2482  129.6025   66.1006 H   0  0  0  0  0  0  0  0  0  0  0  0
  127.8321  128.5315   67.6968 H   0  0  0  0  0  0  0  0  0  0  0  0
  129.6444  127.0598   66.8443 H   0  0  0  0  0  0  0  0  0  0  0  0
  129.8884  121.8562   61.1032 H   0  0  0  0  0  0  0  0  0  0  0  0
  129.1073  122.8302   62.4532 H   0  0  0  0  0  0  0  0  0  0  0  0
  127.2480  123.9630   62.0930 H   0  0  0  0  0  0  0  0  0  0  0  0
  122.5520  122.9674   60.8428 H   0  0  0  0  0  0  0  0  0  0  0  0
  122.9296  124.7677   58.9857 H   0  0  0  0  0  0  0  0  0  0  0  0
  1  2  3  0
  2  3  1  0
  3  4  2  0
  4  5  1  0
  5  6  1  0
  5  7  1  0
  5  8  1  0
  4  9  1  0
  9 10  2  0
 10 11  1  0
 11 12  2  0
 12 13  1  0
 13 14  2  0
 14 15  1  0
 15 16  2  0
 10 17  1  0
 17 18  2  0
 18 19  1  0
 19 20  1  0
 20 21  1  0
 21 22  2  0
 21 23  1  0
 23 24  1  0
 24 25  2  0
 25 26  1  0
 26 27  2  0
 27 28  1  0
 18  3  1  0
 28 24  1  0
 16 11  1  0
  9 29  1  0
 12 30  1  0
 13 31  1  0
 14 32  1  0
 15 33  1  0
 16 34  1  0
 20 35  1  0
 20 36  1  0
 23 37  1  0
 26 38  1  0
 27 39  1  0
M  END
>  <Binding energies>  (1) 
[-7.48]

>  <Ligand effiencies>  (1) 
[-0.2579310344827586]

>  <Interactions>  (1) 
["V-B:GLU:543:CD:9877, V-A:ARG:545:CZ:4923, H-A:GLY:454:N:4046, V-A:ARG:545:CG:4919, V-A:GLY:454:CA:4045, V-A:HIS:456:CE1:4066, V-A:GLY:454:C:4043, V-A:GLU:543:CD:4905, V-A:TYR:484:CZ:4343, V-B:HIS:456:CE1:9038, H-B:ALA:541:N:9860, V-B:ALA:541:CB:9861, V-A:ARG:545:CD:4920, V-A:GLY:453:C:4038, V-B:PRO:540:CB:9854, V-B:LEU:363:CA:8153, V-B:PRO:540:CA:9852, V-A:GLY:453:CA:4040, V-B:ASN:362:C:8140, V-B:ASN:362:CB:8144, V-B:ASN:362:CA:8142, H-B:GLU:543:OE2:9879"]

$$$$
3ak_Grossjean_2025
     RDKit          3D

 57 58  0  0  0  0  0  0  0  0999 V2000
  133.4290  130.8200   58.7730 C   0  0  0  0  0  0  0  0  0  0  0  0
  133.4800  131.4790   60.0290 O   0  0  0  0  0  0  0  0  0  0  0  0
  132.6850  130.8540   61.0270 C   0  0  0  0  0  0  0  0  0  0  0  0
  131.2080  130.9570   60.6260 C   0  0  0  0  0  0  0  0  0  0  0  0
  130.7140  132.2370   61.0050 O   0  0  0  0  0  0  0  0  0  0  0  0
  129.3780  132.5250   60.6000 C   0  0  0  0  0  0  0  0  0  0  0  0
  128.3240  131.6040   61.2410 C   0  0  0  0  0  0  0  0  0  0  0  0
  127.4150  132.3910   61.9990 O   0  0  0  0  0  0  0  0  0  0  0  0
  126.1360  132.5350   61.3980 C   0  0  0  0  0  0  0  0  0  0  0  0
  125.0560  131.8870   62.2830 C   0  0  0  0  0  0  0  0  0  0  0  0
  125.6020  131.0920   63.3850 N   0  0  0  0  0  0  0  0  0  0  0  0
  124.9010  130.2660   64.1860 C   0  0  0  0  0  0  0  0  0  0  0  0
  123.6910  130.0790   64.0560 O   0  0  0  0  0  0  0  0  0  0  0  0
  125.6400  129.5250   65.3130 C   0  0  0  0  0  0  0  0  0  0  0  0
  127.4150  129.9200   65.5260 S   0  0  0  0  0  0  0  0  0  0  0  0
  128.2730  128.4420   66.0440 C   0  0  0  0  0  0  0  0  0  0  0  0
  128.3830  128.2660   67.3840 N   0  0  0  0  0  0  0  0  0  0  0  0
  129.0250  127.1760   67.8750 C   0  0  0  0  0  0  0  0  0  0  0  0
  129.0990  127.0610   69.3680 C   0  0  0  0  0  0  0  0  0  0  0  0
  128.1680  126.2850   70.0760 C   0  0  0  0  0  0  0  0  0  0  0  0
  128.2340  126.1720   71.4620 C   0  0  0  0  0  0  0  0  0  0  0  0
  129.2370  126.8360   72.1610 C   0  0  0  0  0  0  0  0  0  0  0  0
  130.1730  127.6090   71.4850 C   0  0  0  0  0  0  0  0  0  0  0  0
  130.1050  127.7190   70.0990 C   0  0  0  0  0  0  0  0  0  0  0  0
  129.5640  126.2130   67.0150 C   0  0  0  0  0  0  0  0  0  0  0  0
  129.4630  126.3690   65.6250 C   0  0  0  0  0  0  0  0  0  0  0  0
  130.0720  125.2890   64.7090 C   0  0  0  0  0  0  0  0  0  0  0  0
  131.1560  125.7660   64.0980 F   0  0  0  0  0  0  0  0  0  0  0  0
  130.4170  124.2210   65.4300 F   0  0  0  0  0  0  0  0  0  0  0  0
  129.2260  124.8760   63.7620 F   0  0  0  0  0  0  0  0  0  0  0  0
  128.8020  127.5140   65.1190 C   0  0  0  0  0  0  0  0  0  0  0  0
  128.6660  127.7300   63.6750 C   0  0  0  0  0  0  0  0  0  0  0  0
  128.5600  127.9010   62.5340 N   0  0  0  0  0  0  0  0  0  0  0  0
  133.3450  129.7347   58.9315 H   0  0  0  0  0  0  0  0  0  0  0  0
  132.5558  131.1766   58.2070 H   0  0  0  0  0  0  0  0  0  0  0  0
  134.3467  131.0380   58.2070 H   0  0  0  0  0  0  0  0  0  0  0  0
  132.9700  129.7953   61.1160 H   0  0  0  0  0  0  0  0  0  0  0  0
  132.8431  131.3530   61.9945 H   0  0  0  0  0  0  0  0  0  0  0  0
  131.1116  130.8318   59.5374 H   0  0  0  0  0  0  0  0  0  0  0  0
  130.6294  130.1701   61.1320 H   0  0  0  0  0  0  0  0  0  0  0  0
  129.1470  133.5637   60.8789 H   0  0  0  0  0  0  0  0  0  0  0  0
  129.3295  132.3610   59.5134 H   0  0  0  0  0  0  0  0  0  0  0  0
  127.7766  131.0666   60.4526 H   0  0  0  0  0  0  0  0  0  0  0  0
  128.8206  130.8759   61.8993 H   0  0  0  0  0  0  0  0  0  0  0  0
  125.9109  133.6047   61.2748 H   0  0  0  0  0  0  0  0  0  0  0  0
  126.1424  132.0368   60.4173 H   0  0  0  0  0  0  0  0  0  0  0  0
  124.4287  132.6850   62.7070 H   0  0  0  0  0  0  0  0  0  0  0  0
  124.4826  131.2006   61.6426 H   0  0  0  0  0  0  0  0  0  0  0  0
  126.5960  131.1770   63.5430 H   0  0  0  0  0  0  0  0  0  0  0  0
  125.1296  129.7609   66.2584 H   0  0  0  0  0  0  0  0  0  0  0  0
  125.6109  128.4625   65.0298 H   0  0  0  0  0  0  0  0  0  0  0  0
  127.3738  125.7579   69.5271 H   0  0  0  0  0  0  0  0  0  0  0  0
  127.4963  125.5604   72.0021 H   0  0  0  0  0  0  0  0  0  0  0  0
  129.2894  126.7484   73.2563 H   0  0  0  0  0  0  0  0  0  0  0  0
  130.9642  128.1317   72.0426 H   0  0  0  0  0  0  0  0  0  0  0  0
  130.8493  128.3298   69.5671 H   0  0  0  0  0  0  0  0  0  0  0  0
  130.0695  125.3291   67.4312 H   0  0  0  0  0  0  0  0  0  0  0  0
  1  2  1  0
  2  3  1  0
  3  4  1  0
  4  5  1  0
  5  6  1  0
  6  7  1  0
  7  8  1  0
  8  9  1  0
  9 10  1  0
 10 11  1  0
 11 12  1  0
 12 13  2  0
 12 14  1  0
 14 15  1  0
 15 16  1  0
 16 17  2  0
 17 18  1  0
 18 19  1  0
 19 20  2  0
 20 21  1  0
 21 22  2  0
 22 23  1  0
 23 24  2  0
 18 25  2  0
 25 26  1  0
 26 27  1  0
 27 28  1  0
 27 29  1  0
 27 30  1  0
 26 31  2  0
 31 32  1  0
 32 33  3  0
 31 16  1  0
 24 19  1  0
  1 34  1  0
  1 35  1  0
  1 36  1  0
  3 37  1  0
  3 38  1  0
  4 39  1  0
  4 40  1  0
  6 41  1  0
  6 42  1  0
  7 43  1  0
  7 44  1  0
  9 45  1  0
  9 46  1  0
 10 47  1  0
 10 48  1  0
 11 49  1  0
 14 50  1  0
 14 51  1  0
 20 52  1  0
 21 53  1  0
 22 54  1  0
 23 55  1  0
 24 56  1  0
 25 57  1  0
M  END
>  <Binding energies>  (1) 
[-6.7]

>  <Ligand effiencies>  (1) 
[-0.19705882352941176]

>  <Interactions>  (1) 
["V-B:GLU:543:CD:9877, V-A:HIS:456:CE1:4066, V-A:GLU:543:CD:4905, V-A:GLU:543:CG:4904, V-A:TYR:484:CZ:4343, V-B:GLU:543:C:9871, V-B:GLU:543:CB:9875, V-B:HIS:456:CE1:9038, V-A:TYR:484:CE1:4341, V-B:GLY:544:C:9881, V-A:HIS:456:CD2:4064, V-A:GLU:543:CB:4903, V-B:GLU:543:CG:9876, V-A:ALA:541:CB:4889, H-B:TYR:484:OH:9316, V-A:ASP:366:CG:3209, V-A:PRO:540:CA:4880, V-A:PRO:540:CB:4882, H-A:ALA:541:N:4888, H-B:ARG:545:NH2:9897, H-A:LEU:363:N:3182, V-A:ASN:362:CB:3172, V-A:LEU:363:CA:3181, V-A:ASN:362:C:3168, V-B:LYS:547:CE:9919, H-B:GLY:454:N:9018, H-B:ARG:545:NH1:9896, V-A:PRO:540:C:4878"]

$$$$
3bc_Grossjean_2025
     RDKit          3D

 47 49  0  0  0  0  0  0  0  0999 V2000
  128.1170  127.6910   73.2260 C   0  0  0  0  0  0  0  0  0  0  0  0
  129.4010  127.4770   72.6520 O   0  0  0  0  0  0  0  0  0  0  0  0
  129.5100  127.3230   71.2830 C   0  0  0  0  0  0  0  0  0  0  0  0
  128.5920  126.4620   70.6800 C   0  0  0  0  0  0  0  0  0  0  0  0
  128.6230  126.2430   69.3050 C   0  0  0  0  0  0  0  0  0  0  0  0
  129.5820  126.8780   68.5140 C   0  0  0  0  0  0  0  0  0  0  0  0
  129.5280  126.6050   67.1340 N   0  0  0  0  0  0  0  0  0  0  0  0
  130.5150  126.6620   66.2150 C   0  0  0  0  0  0  0  0  0  0  0  0
  131.6890  126.9410   66.4620 O   0  0  0  0  0  0  0  0  0  0  0  0
  130.0820  126.3040   64.7860 C   0  0  0  0  0  0  0  0  0  0  0  0
  129.7530  124.5320   64.4950 S   0  0  0  0  0  0  0  0  0  0  0  0
  130.3220  124.1350   62.8570 C   0  0  0  0  0  0  0  0  0  0  0  0
  129.3210  123.9110   61.9710 N   0  0  0  0  0  0  0  0  0  0  0  0
  129.6150  123.6000   60.6820 C   0  0  0  0  0  0  0  0  0  0  0  0
  128.4500  123.3470   59.7710 C   0  0  0  0  0  0  0  0  0  0  0  0
  128.6370  122.7320   58.5240 C   0  0  0  0  0  0  0  0  0  0  0  0
  127.5600  122.4930   57.6730 C   0  0  0  0  0  0  0  0  0  0  0  0
  126.2790  122.8700   58.0600 C   0  0  0  0  0  0  0  0  0  0  0  0
  126.0670  123.4850   59.2900 C   0  0  0  0  0  0  0  0  0  0  0  0
  127.1460  123.7220   60.1370 C   0  0  0  0  0  0  0  0  0  0  0  0
  130.9420  123.5050   60.2510 C   0  0  0  0  0  0  0  0  0  0  0  0
  131.9870  123.7560   61.1470 C   0  0  0  0  0  0  0  0  0  0  0  0
  133.4210  123.6580   60.6270 C   0  0  0  0  0  0  0  0  0  0  0  0
  131.6850  124.0900   62.4850 C   0  0  0  0  0  0  0  0  0  0  0  0
  132.7600  124.4040   63.4270 C   0  0  0  0  0  0  0  0  0  0  0  0
  133.6130  124.6510   64.1700 N   0  0  0  0  0  0  0  0  0  0  0  0
  130.5000  127.7550   69.1100 C   0  0  0  0  0  0  0  0  0  0  0  0
  130.4660  127.9710   70.4860 C   0  0  0  0  0  0  0  0  0  0  0  0
  128.1988  127.6774   74.3229 H   0  0  0  0  0  0  0  0  0  0  0  0
  127.7273  128.6665   72.8995 H   0  0  0  0  0  0  0  0  0  0  0  0
  127.4320  126.8946   72.8995 H   0  0  0  0  0  0  0  0  0  0  0  0
  127.8371  125.9517   71.2963 H   0  0  0  0  0  0  0  0  0  0  0  0
  127.8894  125.5675   68.8408 H   0  0  0  0  0  0  0  0  0  0  0  0
  128.6330  126.2640   66.8110 H   0  0  0  0  0  0  0  0  0  0  0  0
  129.1621  126.8628   64.5590 H   0  0  0  0  0  0  0  0  0  0  0  0
  130.9284  126.5685   64.1351 H   0  0  0  0  0  0  0  0  0  0  0  0
  129.6493  122.4340   58.2134 H   0  0  0  0  0  0  0  0  0  0  0  0
  127.7226  122.0081   56.6991 H   0  0  0  0  0  0  0  0  0  0  0  0
  125.4277  122.6809   57.3896 H   0  0  0  0  0  0  0  0  0  0  0  0
  125.0518  123.7824   59.5916 H   0  0  0  0  0  0  0  0  0  0  0  0
  126.9753  124.2103   61.1078 H   0  0  0  0  0  0  0  0  0  0  0  0
  131.1641  123.2332   59.2085 H   0  0  0  0  0  0  0  0  0  0  0  0
  134.1170  123.6104   61.4775 H   0  0  0  0  0  0  0  0  0  0  0  0
  133.5278  122.7505   60.0146 H   0  0  0  0  0  0  0  0  0  0  0  0
  133.6502  124.5426   60.0146 H   0  0  0  0  0  0  0  0  0  0  0  0
  131.2473  128.2726   68.4907 H   0  0  0  0  0  0  0  0  0  0  0  0
  131.1929  128.6536   70.9504 H   0  0  0  0  0  0  0  0  0  0  0  0
  1  2  1  0
  2  3  1  0
  3  4  2  0
  4  5  1  0
  5  6  2  0
  6  7  1  0
  7  8  1  0
  8  9  2  0
  8 10  1  0
 10 11  1  0
 11 12  1  0
 12 13  2  0
 13 14  1  0
 14 15  1  0
 15 16  2  0
 16 17  1  0
 17 18  2  0
 18 19  1  0
 19 20  2  0
 14 21  2  0
 21 22  1  0
 22 23  1  0
 22 24  2  0
 24 25  1  0
 25 26  3  0
  6 27  1  0
 27 28  2  0
 28  3  1  0
 24 12  1  0
 20 15  1  0
  1 29  1  0
  1 30  1  0
  1 31  1  0
  4 32  1  0
  5 33  1  0
  7 34  1  0
 10 35  1  0
 10 36  1  0
 16 37  1  0
 17 38  1  0
 18 39  1  0
 19 40  1  0
 20 41  1  0
 21 42  1  0
 23 43  1  0
 23 44  1  0
 23 45  1  0
 27 46  1  0
 28 47  1  0
M  END
>  <Binding energies>  (1) 
[-8.31]

>  <Ligand effiencies>  (1) 
[-0.28655172413793106]

>  <Interactions>  (1) 
["H-A:GLY:454:N:4046, V-B:TYR:539:CE2:9845, V-A:HIS:456:CE1:4066, V-B:GLU:543:C:9871, V-A:HIS:456:CD2:4064, V-B:HIS:456:CD2:9036, V-A:GLU:543:CB:4903, V-B:TYR:539:CZ:9846, V-B:TYR:539:CD2:9843, V-A:ASP:366:CG:3209, V-B:TYR:539:C:9836, H-A:ARG:545:NE:4921, H-A:TYR:484:OH:4344, H-B:GLU:543:OE1:9878, V-B:LYS:547:CE:9919, V-A:GLU:543:C:4899, H-A:LYS:547:NZ:4948, V-B:PRO:540:N:9853, V-B:PRO:540:CB:9854, V-B:PRO:540:CA:9852, V-A:GLY:544:C:4909, V-B:TYR:539:CE1:9844"]

$$$$
3bd_Grossjean_2025
     RDKit          3D

 43 45  0  0  0  0  0  0  0  0999 V2000
  134.4610  125.1540   65.3230 C   0  0  0  0  0  0  0  0  0  0  0  0
  132.9930  125.1730   64.9020 C   0  0  0  0  0  0  0  0  0  0  0  0
  132.0430  125.6070   65.8340 C   0  0  0  0  0  0  0  0  0  0  0  0
  130.6870  125.6350   65.4880 C   0  0  0  0  0  0  0  0  0  0  0  0
  129.6180  126.0930   66.4360 C   0  0  0  0  0  0  0  0  0  0  0  0
  128.7980  127.1870   66.1170 C   0  0  0  0  0  0  0  0  0  0  0  0
  127.8050  127.6180   66.9940 C   0  0  0  0  0  0  0  0  0  0  0  0
  127.6190  126.9600   68.2050 C   0  0  0  0  0  0  0  0  0  0  0  0
  128.4210  125.8750   68.5450 C   0  0  0  0  0  0  0  0  0  0  0  0
  129.4120  125.4470   67.6670 C   0  0  0  0  0  0  0  0  0  0  0  0
  130.2770  125.2570   64.2490 N   0  0  0  0  0  0  0  0  0  0  0  0
  131.1850  124.8330   63.3330 C   0  0  0  0  0  0  0  0  0  0  0  0
  130.5180  124.3540   61.7480 S   0  0  0  0  0  0  0  0  0  0  0  0
  129.5840  122.8100   61.9730 C   0  0  0  0  0  0  0  0  0  0  0  0
  128.4280  122.6900   60.9780 C   0  0  0  0  0  0  0  0  0  0  0  0
  128.5240  121.8950   60.0430 O   0  0  0  0  0  0  0  0  0  0  0  0
  127.3720  123.5000   61.2080 N   0  0  0  0  0  0  0  0  0  0  0  0
  126.1620  123.6000   60.4950 C   0  0  0  0  0  0  0  0  0  0  0  0
  126.2760  123.7880   59.1150 C   0  0  0  0  0  0  0  0  0  0  0  0
  125.1340  123.9080   58.3270 C   0  0  0  0  0  0  0  0  0  0  0  0
  123.8760  123.8500   58.9210 C   0  0  0  0  0  0  0  0  0  0  0  0
  123.7500  123.6770   60.2970 C   0  0  0  0  0  0  0  0  0  0  0  0
  124.8900  123.5550   61.0870 C   0  0  0  0  0  0  0  0  0  0  0  0
  132.5660  124.7720   63.6180 C   0  0  0  0  0  0  0  0  0  0  0  0
  133.5360  124.3130   62.6200 C   0  0  0  0  0  0  0  0  0  0  0  0
  134.3040  123.9520   61.8330 N   0  0  0  0  0  0  0  0  0  0  0  0
  134.5276  125.1531   66.4210 H   0  0  0  0  0  0  0  0  0  0  0  0
  134.9447  124.2495   64.9256 H   0  0  0  0  0  0  0  0  0  0  0  0
  134.9680  126.0457   64.9256 H   0  0  0  0  0  0  0  0  0  0  0  0
  132.3618  125.9257   66.8374 H   0  0  0  0  0  0  0  0  0  0  0  0
  128.9416  127.7114   65.1608 H   0  0  0  0  0  0  0  0  0  0  0  0
  127.1699  128.4763   66.7294 H   0  0  0  0  0  0  0  0  0  0  0  0
  126.8342  127.2989   68.8973 H   0  0  0  0  0  0  0  0  0  0  0  0
  128.2722  125.3576   69.5042 H   0  0  0  0  0  0  0  0  0  0  0  0
  130.0442  124.5894   67.9407 H   0  0  0  0  0  0  0  0  0  0  0  0
  130.2655  121.9585   61.8301 H   0  0  0  0  0  0  0  0  0  0  0  0
  129.1600  122.8139   62.9880 H   0  0  0  0  0  0  0  0  0  0  0  0
  127.4720  124.1660   61.9590 H   0  0  0  0  0  0  0  0  0  0  0  0
  127.2712  123.8414   58.6495 H   0  0  0  0  0  0  0  0  0  0  0  0
  125.2254  124.0480   57.2398 H   0  0  0  0  0  0  0  0  0  0  0  0
  122.9740  123.9416   58.2980 H   0  0  0  0  0  0  0  0  0  0  0  0
  122.7524  123.6368   60.7586 H   0  0  0  0  0  0  0  0  0  0  0  0
  124.7939  123.4234   62.1749 H   0  0  0  0  0  0  0  0  0  0  0  0
  1  2  1  0
  2  3  2  0
  3  4  1  0
  4  5  1  0
  5  6  2  0
  6  7  1  0
  7  8  2  0
  8  9  1  0
  9 10  2  0
  4 11  2  0
 11 12  1  0
 12 13  1  0
 13 14  1  0
 14 15  1  0
 15 16  2  0
 15 17  1  0
 17 18  1  0
 18 19  2  0
 19 20  1  0
 20 21  2  0
 21 22  1  0
 22 23  2  0
 12 24  2  0
 24 25  1  0
 25 26  3  0
 24  2  1  0
 10  5  1  0
 23 18  1  0
  1 27  1  0
  1 28  1  0
  1 29  1  0
  3 30  1  0
  6 31  1  0
  7 32  1  0
  8 33  1  0
  9 34  1  0
 10 35  1  0
 14 36  1  0
 14 37  1  0
 17 38  1  0
 19 39  1  0
 20 40  1  0
 21 41  1  0
 22 42  1  0
 23 43  1  0
M  END
>  <Binding energies>  (1) 
[-8.03]

>  <Ligand effiencies>  (1) 
[-0.2974074074074074]

>  <Interactions>  (1) 
["V-B:GLU:543:CD:9877, V-A:ARG:545:CZ:4923, H-A:GLY:454:N:4046, V-A:ARG:545:CG:4919, V-A:GLY:454:CA:4045, V-A:HIS:456:CE1:4066, V-B:GLU:543:CA:9873, V-B:GLU:543:C:9871, V-B:GLU:543:CB:9875, V-B:HIS:456:CE1:9038, V-A:TYR:484:CE1:4341, V-B:ALA:541:CB:9861, V-A:ARG:545:CD:4920, V-A:GLY:453:C:4038, V-B:LEU:363:CD1:8157, V-B:PRO:540:CB:9854, V-B:LEU:363:CA:8153, V-B:PRO:540:CA:9852, V-A:GLY:453:CA:4040, V-B:LEU:363:CB:8155, V-B:ASN:362:C:8140, V-B:ASN:362:CB:8144, H-B:GLU:543:OE2:9879"]

$$$$
3be_Grossjean_2025
     RDKit          3D

 45 47  0  0  0  0  0  0  0  0999 V2000
  127.1420  134.9610   60.6110 C   0  0  0  0  0  0  0  0  0  0  0  0
  126.0350  134.2610   61.3750 C   0  0  0  0  0  0  0  0  0  0  0  0
  124.6950  134.6270   61.2210 C   0  0  0  0  0  0  0  0  0  0  0  0
  123.7300  133.9410   61.9580 C   0  0  0  0  0  0  0  0  0  0  0  0
  124.1220  132.9160   62.8220 C   0  0  0  0  0  0  0  0  0  0  0  0
  125.4810  132.5970   62.9270 C   0  0  0  0  0  0  0  0  0  0  0  0
  125.8130  131.5630   63.8210 N   0  0  0  0  0  0  0  0  0  0  0  0
  125.0310  130.5640   64.2870 C   0  0  0  0  0  0  0  0  0  0  0  0
  123.8460  130.4060   63.9880 O   0  0  0  0  0  0  0  0  0  0  0  0
  125.7320  129.5960   65.2520 C   0  0  0  0  0  0  0  0  0  0  0  0
  127.4880  129.9670   65.5840 S   0  0  0  0  0  0  0  0  0  0  0  0
  128.2960  128.4500   66.0470 C   0  0  0  0  0  0  0  0  0  0  0  0
  128.4070  128.2810   67.3870 N   0  0  0  0  0  0  0  0  0  0  0  0
  129.0010  127.1620   67.8820 C   0  0  0  0  0  0  0  0  0  0  0  0
  129.0960  127.0580   69.3760 C   0  0  0  0  0  0  0  0  0  0  0  0
  128.1880  126.2690   70.1000 C   0  0  0  0  0  0  0  0  0  0  0  0
  128.2690  126.1710   71.4850 C   0  0  0  0  0  0  0  0  0  0  0  0
  129.2630  126.8630   72.1690 C   0  0  0  0  0  0  0  0  0  0  0  0
  130.1730  127.6530   71.4770 C   0  0  0  0  0  0  0  0  0  0  0  0
  130.0880  127.7500   70.0910 C   0  0  0  0  0  0  0  0  0  0  0  0
  129.5050  126.1790   67.0240 C   0  0  0  0  0  0  0  0  0  0  0  0
  129.3770  126.3270   65.6390 C   0  0  0  0  0  0  0  0  0  0  0  0
  129.9270  125.2190   64.7420 C   0  0  0  0  0  0  0  0  0  0  0  0
  128.7480  127.4810   65.1230 C   0  0  0  0  0  0  0  0  0  0  0  0
  128.5550  127.6300   63.6790 C   0  0  0  0  0  0  0  0  0  0  0  0
  128.4030  127.7460   62.5380 N   0  0  0  0  0  0  0  0  0  0  0  0
  126.4300  133.2670   62.2100 N   0  0  0  0  0  0  0  0  0  0  0  0
  127.8513  135.4095   61.3221 H   0  0  0  0  0  0  0  0  0  0  0  0
  127.6689  134.2315   59.9783 H   0  0  0  0  0  0  0  0  0  0  0  0
  126.7088  135.7497   59.9783 H   0  0  0  0  0  0  0  0  0  0  0  0
  124.4082  135.4372   60.5345 H   0  0  0  0  0  0  0  0  0  0  0  0
  122.6668  134.2055   61.8595 H   0  0  0  0  0  0  0  0  0  0  0  0
  123.3732  132.3670   63.4118 H   0  0  0  0  0  0  0  0  0  0  0  0
  126.7580  131.5990   64.1740 H   0  0  0  0  0  0  0  0  0  0  0  0
  125.1920  129.6197   66.2100 H   0  0  0  0  0  0  0  0  0  0  0  0
  125.7149  128.6109   64.7628 H   0  0  0  0  0  0  0  0  0  0  0  0
  127.4003  125.7198   69.5635 H   0  0  0  0  0  0  0  0  0  0  0  0
  127.5497  125.5486   72.0374 H   0  0  0  0  0  0  0  0  0  0  0  0
  129.3291  126.7844   73.2642 H   0  0  0  0  0  0  0  0  0  0  0  0
  130.9570  128.1992   72.0220 H   0  0  0  0  0  0  0  0  0  0  0  0
  130.8087  128.3782   69.5470 H   0  0  0  0  0  0  0  0  0  0  0  0
  130.0020  125.2895   67.4385 H   0  0  0  0  0  0  0  0  0  0  0  0
  130.3297  124.4078   65.3663 H   0  0  0  0  0  0  0  0  0  0  0  0
  129.1192  124.8264   64.1070 H   0  0  0  0  0  0  0  0  0  0  0  0
  130.7281  125.6251   64.1070 H   0  0  0  0  0  0  0  0  0  0  0  0
  1  2  1  0
  2  3  2  0
  3  4  1  0
  4  5  2  0
  5  6  1  0
  6  7  1  0
  7  8  1  0
  8  9  2  0
  8 10  1  0
 10 11  1  0
 11 12  1  0
 12 13  2  0
 13 14  1  0
 14 15  1  0
 15 16  2  0
 16 17  1  0
 17 18  2  0
 18 19  1  0
 19 20  2  0
 14 21  2  0
 21 22  1  0
 22 23  1  0
 22 24  2  0
 24 25  1  0
 25 26  3  0
  6 27  2  0
 27  2  1  0
 24 12  1  0
 20 15  1  0
  1 28  1  0
  1 29  1  0
  1 30  1  0
  3 31  1  0
  4 32  1  0
  5 33  1  0
  7 34  1  0
 10 35  1  0
 10 36  1  0
 16 37  1  0
 17 38  1  0
 18 39  1  0
 19 40  1  0
 20 41  1  0
 21 42  1  0
 23 43  1  0
 23 44  1  0
 23 45  1  0
M  END
>  <Binding energies>  (1) 
[-8.28]

>  <Ligand effiencies>  (1) 
[-0.2957142857142857]

>  <Interactions>  (1) 
["V-B:GLU:543:CD:9877, V-A:HIS:456:CE1:4066, V-A:GLU:543:CD:4905, V-A:GLU:543:CG:4904, V-B:GLU:543:C:9871, V-B:GLU:543:CB:9875, V-B:HIS:456:CE1:9038, V-B:GLY:544:C:9881, V-A:HIS:456:CD2:4064, V-A:GLU:543:CB:4903, V-B:GLU:543:CG:9876, V-B:ILE:369:CD1:8207, V-B:ILE:369:CG2:8205, V-B:TRP:381:CH2:8340, V-A:ALA:541:CB:4889, V-B:GLY:454:CA:9017, H-B:TYR:484:OH:9316, V-A:TYR:539:CD2:4871, V-B:LEU:475:CD2:9227, V-B:LYS:547:CE:9919, H-B:GLY:454:N:9018"]

$$$$
3bf_Grossjean_2025
     RDKit          3D

 42 44  0  0  0  0  0  0  0  0999 V2000
  134.4320  125.1330   65.1860 C   0  0  0  0  0  0  0  0  0  0  0  0
  132.9560  125.1170   64.7960 C   0  0  0  0  0  0  0  0  0  0  0  0
  132.0210  125.5690   65.7330 C   0  0  0  0  0  0  0  0  0  0  0  0
  130.6600  125.5850   65.4110 C   0  0  0  0  0  0  0  0  0  0  0  0
  129.6110  126.0770   66.3620 C   0  0  0  0  0  0  0  0  0  0  0  0
  129.3870  125.4230   67.5830 C   0  0  0  0  0  0  0  0  0  0  0  0
  128.4150  125.8730   68.4720 C   0  0  0  0  0  0  0  0  0  0  0  0
  127.6490  126.9890   68.1480 C   0  0  0  0  0  0  0  0  0  0  0  0
  127.8500  127.6550   66.9440 C   0  0  0  0  0  0  0  0  0  0  0  0
  128.8230  127.2000   66.0570 C   0  0  0  0  0  0  0  0  0  0  0  0
  130.2260  125.1650   64.1920 N   0  0  0  0  0  0  0  0  0  0  0  0
  131.1180  124.7010   63.2820 C   0  0  0  0  0  0  0  0  0  0  0  0
  130.3710  124.1900   61.7490 S   0  0  0  0  0  0  0  0  0  0  0  0
  128.7510  123.4410   62.1310 C   0  0  0  0  0  0  0  0  0  0  0  0
  127.7780  123.3510   60.9460 C   0  0  0  0  0  0  0  0  0  0  0  0
  127.8860  122.4520   60.1100 O   0  0  0  0  0  0  0  0  0  0  0  0
  126.8170  124.3000   60.9350 N   0  0  0  0  0  0  0  0  0  0  0  0
  125.7890  124.5040   59.9950 C   0  0  0  0  0  0  0  0  0  0  0  0
  124.5790  123.8380   60.2180 C   0  0  0  0  0  0  0  0  0  0  0  0
  123.5160  124.0100   59.3290 C   0  0  0  0  0  0  0  0  0  0  0  0
  123.6940  124.8560   58.2340 C   0  0  0  0  0  0  0  0  0  0  0  0
  124.8520  125.5220   57.9990 N   0  0  0  0  0  0  0  0  0  0  0  0
  125.8770  125.3450   58.8720 C   0  0  0  0  0  0  0  0  0  0  0  0
  132.5080  124.6750   63.5320 C   0  0  0  0  0  0  0  0  0  0  0  0
  133.4740  124.2450   62.5180 C   0  0  0  0  0  0  0  0  0  0  0  0
  134.2380  123.9040   61.7180 N   0  0  0  0  0  0  0  0  0  0  0  0
  134.5216  125.1340   66.2823 H   0  0  0  0  0  0  0  0  0  0  0  0
  134.9287  124.2402   64.7783 H   0  0  0  0  0  0  0  0  0  0  0  0
  134.9092  126.0364   64.7783 H   0  0  0  0  0  0  0  0  0  0  0  0
  132.3561  125.9119   66.7230 H   0  0  0  0  0  0  0  0  0  0  0  0
  129.9896  124.5399   67.8420 H   0  0  0  0  0  0  0  0  0  0  0  0
  128.2531  125.3493   69.4257 H   0  0  0  0  0  0  0  0  0  0  0  0
  126.8799  127.3463   68.8486 H   0  0  0  0  0  0  0  0  0  0  0  0
  127.2432  128.5375   66.6930 H   0  0  0  0  0  0  0  0  0  0  0  0
  128.9768  127.7274   65.1040 H   0  0  0  0  0  0  0  0  0  0  0  0
  128.9268  122.4218   62.5055 H   0  0  0  0  0  0  0  0  0  0  0  0
  128.2742  124.1032   62.8687 H   0  0  0  0  0  0  0  0  0  0  0  0
  126.7930  124.9270   61.7250 H   0  0  0  0  0  0  0  0  0  0  0  0
  124.4652  123.1800   61.0921 H   0  0  0  0  0  0  0  0  0  0  0  0
  122.5598  123.4902   59.4885 H   0  0  0  0  0  0  0  0  0  0  0  0
  122.8588  124.9887   57.5306 H   0  0  0  0  0  0  0  0  0  0  0  0
  126.8188  125.8841   58.6923 H   0  0  0  0  0  0  0  0  0  0  0  0
  1  2  1  0
  2  3  2  0
  3  4  1  0
  4  5  1  0
  5  6  2  0
  6  7  1  0
  7  8  2  0
  8  9  1  0
  9 10  2  0
  4 11  2  0
 11 12  1  0
 12 13  1  0
 13 14  1  0
 14 15  1  0
 15 16  2  0
 15 17  1  0
 17 18  1  0
 18 19  2  0
 19 20  1  0
 20 21  2  0
 21 22  1  0
 22 23  2  0
 12 24  2  0
 24 25  1  0
 25 26  3  0
 24  2  1  0
 10  5  1  0
 23 18  1  0
  1 27  1  0
  1 28  1  0
  1 29  1  0
  3 30  1  0
  6 31  1  0
  7 32  1  0
  8 33  1  0
  9 34  1  0
 10 35  1  0
 14 36  1  0
 14 37  1  0
 17 38  1  0
 19 39  1  0
 20 40  1  0
 21 41  1  0
 23 42  1  0
M  END
>  <Binding energies>  (1) 
[-7.91]

>  <Ligand effiencies>  (1) 
[-0.292962962962963]

>  <Interactions>  (1) 
["V-B:GLU:543:CD:9877, V-A:ARG:545:CZ:4923, H-A:GLY:454:N:4046, V-A:GLY:454:CA:4045, V-A:HIS:456:CE1:4066, V-B:GLU:543:CA:9873, V-B:GLU:543:C:9871, V-B:GLU:543:CB:9875, V-B:HIS:456:CE1:9038, V-A:TYR:484:CE1:4341, V-B:GLU:543:CG:9876, H-B:ALA:541:N:9860, V-B:ASP:366:CB:8180, V-B:ALA:541:CB:9861, V-A:ARG:545:CD:4920, V-A:GLY:453:C:4038, V-B:LEU:363:CD1:8157, V-B:PRO:540:CB:9854, V-B:LEU:363:CA:8153, V-B:PRO:540:CA:9852, V-A:GLY:453:CA:4040, V-B:LEU:363:CB:8155, V-B:ASN:362:C:8140, H-B:TYR:531:OH:9764, H-B:GLU:543:OE2:9879"]

$$$$
3bg_Grossjean_2025
     RDKit          3D

 46 48  0  0  0  0  0  0  0  0999 V2000
  129.9270  125.6750   64.3240 C   0  0  0  0  0  0  0  0  0  0  0  0
  129.3190  126.6300   65.3490 C   0  0  0  0  0  0  0  0  0  0  0  0
  129.5690  126.3920   66.7040 C   0  0  0  0  0  0  0  0  0  0  0  0
  129.0370  127.2480   67.6780 C   0  0  0  0  0  0  0  0  0  0  0  0
  129.2770  127.0540   69.1500 C   0  0  0  0  0  0  0  0  0  0  0  0
  130.3050  127.7440   69.8130 C   0  0  0  0  0  0  0  0  0  0  0  0
  130.5190  127.5820   71.1790 C   0  0  0  0  0  0  0  0  0  0  0  0
  129.7050  126.7200   71.9070 C   0  0  0  0  0  0  0  0  0  0  0  0
  128.6870  126.0160   71.2760 C   0  0  0  0  0  0  0  0  0  0  0  0
  128.4790  126.1800   69.9090 C   0  0  0  0  0  0  0  0  0  0  0  0
  128.2910  128.3250   67.3170 N   0  0  0  0  0  0  0  0  0  0  0  0
  128.0410  128.5730   66.0050 C   0  0  0  0  0  0  0  0  0  0  0  0
  127.0780  130.0380   65.6640 S   0  0  0  0  0  0  0  0  0  0  0  0
  125.3330  129.5430   65.4790 C   0  0  0  0  0  0  0  0  0  0  0  0
  124.5790  130.4640   64.5140 C   0  0  0  0  0  0  0  0  0  0  0  0
  123.6930  130.0040   63.7940 O   0  0  0  0  0  0  0  0  0  0  0  0
  124.9600  131.7530   64.4970 N   0  0  0  0  0  0  0  0  0  0  0  0
  124.5090  132.7590   63.5350 C   0  0  0  0  0  0  0  0  0  0  0  0
  125.5950  133.1010   62.5220 C   0  0  0  0  0  0  0  0  0  0  0  0
  125.3160  133.9720   61.4630 C   0  0  0  0  0  0  0  0  0  0  0  0
  126.3050  134.2780   60.5330 C   0  0  0  0  0  0  0  0  0  0  0  0
  127.5760  133.7210   60.6700 C   0  0  0  0  0  0  0  0  0  0  0  0
  127.8680  132.8700   61.7330 C   0  0  0  0  0  0  0  0  0  0  0  0
  126.8770  132.5640   62.6630 C   0  0  0  0  0  0  0  0  0  0  0  0
  128.5320  127.7410   64.9780 C   0  0  0  0  0  0  0  0  0  0  0  0
  128.2600  128.0210   63.5660 C   0  0  0  0  0  0  0  0  0  0  0  0
  128.0450  128.2410   62.4510 N   0  0  0  0  0  0  0  0  0  0  0  0
  130.4468  124.8586   64.8467 H   0  0  0  0  0  0  0  0  0  0  0  0
  129.1284  125.2569   63.6935 H   0  0  0  0  0  0  0  0  0  0  0  0
  130.6437  126.2216   63.6935 H   0  0  0  0  0  0  0  0  0  0  0  0
  130.1842  125.5316   67.0060 H   0  0  0  0  0  0  0  0  0  0  0  0
  130.9532  128.4252   69.2422 H   0  0  0  0  0  0  0  0  0  0  0  0
  131.3281  128.1331   71.6806 H   0  0  0  0  0  0  0  0  0  0  0  0
  129.8683  126.5952   72.9876 H   0  0  0  0  0  0  0  0  0  0  0  0
  128.0480  125.3320   71.8538 H   0  0  0  0  0  0  0  0  0  0  0  0
  127.6754  125.6153   69.4137 H   0  0  0  0  0  0  0  0  0  0  0  0
  125.2940  128.5139   65.0925 H   0  0  0  0  0  0  0  0  0  0  0  0
  124.8513  129.6137   66.4654 H   0  0  0  0  0  0  0  0  0  0  0  0
  125.7010  132.0390   65.1200 H   0  0  0  0  0  0  0  0  0  0  0  0
  123.6313  132.3699   62.9982 H   0  0  0  0  0  0  0  0  0  0  0  0
  124.2590  133.6750   64.0904 H   0  0  0  0  0  0  0  0  0  0  0  0
  124.3140  134.4153   61.3655 H   0  0  0  0  0  0  0  0  0  0  0  0
  126.0854  134.9554   59.6946 H   0  0  0  0  0  0  0  0  0  0  0  0
  128.3560  133.9562   59.9309 H   0  0  0  0  0  0  0  0  0  0  0  0
  128.8758  132.4417   61.8377 H   0  0  0  0  0  0  0  0  0  0  0  0
  127.1041  131.8989   63.5092 H   0  0  0  0  0  0  0  0  0  0  0  0
  1  2  1  0
  2  3  2  0
  3  4  1  0
  4  5  1  0
  5  6  2  0
  6  7  1  0
  7  8  2  0
  8  9  1  0
  9 10  2  0
  4 11  2  0
 11 12  1  0
 12 13  1  0
 13 14  1  0
 14 15  1  0
 15 16  2  0
 15 17  1  0
 17 18  1  0
 18 19  1  0
 19 20  2  0
 20 21  1  0
 21 22  2  0
 22 23  1  0
 23 24  2  0
 12 25  2  0
 25 26  1  0
 26 27  3  0
 25  2  1  0
 10  5  1  0
 24 19  1  0
  1 28  1  0
  1 29  1  0
  1 30  1  0
  3 31  1  0
  6 32  1  0
  7 33  1  0
  8 34  1  0
  9 35  1  0
 10 36  1  0
 14 37  1  0
 14 38  1  0
 17 39  1  0
 18 40  1  0
 18 41  1  0
 20 42  1  0
 21 43  1  0
 22 44  1  0
 23 45  1  0
 24 46  1  0
M  END
>  <Binding energies>  (1) 
[-8.28]

>  <Ligand effiencies>  (1) 
[-0.2957142857142857]

>  <Interactions>  (1) 
["V-B:GLU:543:CD:9877, V-A:HIS:456:CE1:4066, V-A:GLU:543:CD:4905, V-B:GLU:543:C:9871, V-B:HIS:456:CE1:9038, V-A:HIS:456:CD2:4064, V-A:ALA:541:CB:4889, V-B:GLY:454:CA:9017, H-B:TYR:484:OH:9316, V-A:TYR:539:CD2:4871, V-B:LEU:475:CD2:9227, H-B:ARG:545:NH2:9897, H-B:GLY:454:N:9018, V-B:TYR:484:CZ:9315, V-A:GLY:544:C:4909, H-B:ARG:545:NH1:9896"]

$$$$
3bk_Grossjean_2025
     RDKit          3D

 57 58  0  0  0  0  0  0  0  0999 V2000
  124.3080  130.1800   63.2290 C   0  0  0  0  0  0  0  0  0  0  0  0
  123.7660  130.1190   64.5400 O   0  0  0  0  0  0  0  0  0  0  0  0
  124.6730  129.6010   65.5030 C   0  0  0  0  0  0  0  0  0  0  0  0
  126.1090  129.9810   65.1170 C   0  0  0  0  0  0  0  0  0  0  0  0
  127.0140  129.4150   66.0530 O   0  0  0  0  0  0  0  0  0  0  0  0
  127.7970  128.3520   65.5250 C   0  0  0  0  0  0  0  0  0  0  0  0
  129.0700  128.1930   66.3670 C   0  0  0  0  0  0  0  0  0  0  0  0
  128.7230  127.7220   67.6620 O   0  0  0  0  0  0  0  0  0  0  0  0
  129.8250  127.2150   68.4040 C   0  0  0  0  0  0  0  0  0  0  0  0
  130.0860  128.1210   69.6150 C   0  0  0  0  0  0  0  0  0  0  0  0
  129.2070  127.8110   70.7440 N   0  0  0  0  0  0  0  0  0  0  0  0
  128.3510  126.7770   70.8050 C   0  0  0  0  0  0  0  0  0  0  0  0
  128.2190  125.9440   69.9070 O   0  0  0  0  0  0  0  0  0  0  0  0
  127.5310  126.6450   72.0900 C   0  0  0  0  0  0  0  0  0  0  0  0
  128.4010  127.3460   73.5280 S   0  0  0  0  0  0  0  0  0  0  0  0
  127.8520  129.0260   73.7770 C   0  0  0  0  0  0  0  0  0  0  0  0
  128.6980  129.9960   73.3470 N   0  0  0  0  0  0  0  0  0  0  0  0
  128.3640  131.3050   73.4980 C   0  0  0  0  0  0  0  0  0  0  0  0
  129.3450  132.3110   72.9760 C   0  0  0  0  0  0  0  0  0  0  0  0
  130.4840  132.6570   73.7210 C   0  0  0  0  0  0  0  0  0  0  0  0
  131.3950  133.5950   73.2430 C   0  0  0  0  0  0  0  0  0  0  0  0
  131.1800  134.2020   72.0100 C   0  0  0  0  0  0  0  0  0  0  0  0
  130.0610  133.8750   71.2510 C   0  0  0  0  0  0  0  0  0  0  0  0
  129.1530  132.9350   71.7310 C   0  0  0  0  0  0  0  0  0  0  0  0
  127.1500  131.6720   74.0900 C   0  0  0  0  0  0  0  0  0  0  0  0
  126.2670  130.6850   74.5410 C   0  0  0  0  0  0  0  0  0  0  0  0
  124.9530  131.1290   75.1820 C   0  0  0  0  0  0  0  0  0  0  0  0
  126.6150  129.3270   74.3870 C   0  0  0  0  0  0  0  0  0  0  0  0
  125.7080  128.2710   74.8470 C   0  0  0  0  0  0  0  0  0  0  0  0
  124.9930  127.4370   75.2120 N   0  0  0  0  0  0  0  0  0  0  0  0
  125.3995  130.3028   63.2888 H   0  0  0  0  0  0  0  0  0  0  0  0
  124.0726  129.2497   62.6913 H   0  0  0  0  0  0  0  0  0  0  0  0
  123.8718  131.0347   62.6913 H   0  0  0  0  0  0  0  0  0  0  0  0
  124.4365  130.0215   66.4915 H   0  0  0  0  0  0  0  0  0  0  0  0
  124.5824  128.5053   65.5368 H   0  0  0  0  0  0  0  0  0  0  0  0
  126.3328  129.5961   64.1111 H   0  0  0  0  0  0  0  0  0  0  0  0
  126.2131  131.0761   65.1210 H   0  0  0  0  0  0  0  0  0  0  0  0
  127.2169  127.4179   65.5559 H   0  0  0  0  0  0  0  0  0  0  0  0
  128.0699  128.5774   64.4835 H   0  0  0  0  0  0  0  0  0  0  0  0
  129.7432  127.4708   65.8819 H   0  0  0  0  0  0  0  0  0  0  0  0
  129.5776  129.1651   66.4531 H   0  0  0  0  0  0  0  0  0  0  0  0
  129.5962  126.1964   68.7506 H   0  0  0  0  0  0  0  0  0  0  0  0
  130.7190  127.1921   67.7636 H   0  0  0  0  0  0  0  0  0  0  0  0
  131.1305  127.9913   69.9346 H   0  0  0  0  0  0  0  0  0  0  0  0
  129.8842  129.1578   69.3078 H   0  0  0  0  0  0  0  0  0  0  0  0
  129.2950  128.4120   71.5500 H   0  0  0  0  0  0  0  0  0  0  0  0
  126.5766  127.1759   71.9586 H   0  0  0  0  0  0  0  0  0  0  0  0
  127.3670  125.5741   72.2804 H   0  0  0  0  0  0  0  0  0  0  0  0
  130.6590  132.1799   74.6966 H   0  0  0  0  0  0  0  0  0  0  0  0
  132.2823  133.8554   73.8387 H   0  0  0  0  0  0  0  0  0  0  0  0
  131.8987  134.9446   71.6331 H   0  0  0  0  0  0  0  0  0  0  0  0
  129.8943  134.3568   70.2763 H   0  0  0  0  0  0  0  0  0  0  0  0
  128.2712  132.6764   71.1263 H   0  0  0  0  0  0  0  0  0  0  0  0
  126.8905  132.7352   74.2005 H   0  0  0  0  0  0  0  0  0  0  0  0
  125.0499  131.0963   76.2772 H   0  0  0  0  0  0  0  0  0  0  0  0
  124.7191  132.1561   74.8651 H   0  0  0  0  0  0  0  0  0  0  0  0
  124.1441  130.4543   74.8651 H   0  0  0  0  0  0  0  0  0  0  0  0
  1  2  1  0
  2  3  1  0
  3  4  1  0
  4  5  1  0
  5  6  1  0
  6  7  1  0
  7  8  1  0
  8  9  1  0
  9 10  1  0
 10 11  1  0
 11 12  1  0
 12 13  2  0
 12 14  1  0
 14 15  1  0
 15 16  1  0
 16 17  2  0
 17 18  1  0
 18 19  1  0
 19 20  2  0
 20 21  1  0
 21 22  2  0
 22 23  1  0
 23 24  2  0
 18 25  2  0
 25 26  1  0
 26 27  1  0
 26 28  2  0
 28 29  1  0
 29 30  3  0
 28 16  1  0
 24 19  1  0
  1 31  1  0
  1 32  1  0
  1 33  1  0
  3 34  1  0
  3 35  1  0
  4 36  1  0
  4 37  1  0
  6 38  1  0
  6 39  1  0
  7 40  1  0
  7 41  1  0
  9 42  1  0
  9 43  1  0
 10 44  1  0
 10 45  1  0
 11 46  1  0
 14 47  1  0
 14 48  1  0
 20 49  1  0
 21 50  1  0
 22 51  1  0
 23 52  1  0
 24 53  1  0
 25 54  1  0
 27 55  1  0
 27 56  1  0
 27 57  1  0
M  END
>  <Binding energies>  (1) 
[-6.31]

>  <Ligand effiencies>  (1) 
[-0.20354838709677417]

>  <Interactions>  (1) 
["V-B:GLU:543:CD:9877, V-A:HIS:456:CE1:4066, V-A:GLU:543:CD:4905, H-B:HIS:456:NE2:9039, V-A:GLU:543:CG:4904, V-B:HIS:456:CE1:9038, V-B:GLY:544:C:9881, V-B:HIS:456:CD2:9036, H-A:GLU:543:O:4900, V-A:GLU:543:CB:4903, V-B:ARG:545:CZ:9895, V-B:ARG:545:CD:9892, H-B:TYR:484:OH:9316, V-B:ASP:366:CG:8181, V-B:LYS:547:CE:9919, V-B:TYR:484:CB:9309, V-B:ASP:473:CG:9208, V-B:ASP:473:CB:9207, V-B:TYR:484:CG:9310, V-B:HIS:456:CG:9034, V-A:LYS:547:CE:4947, V-B:HIS:456:C:9029, V-A:GLU:543:C:4899, V-B:HIS:456:CB:9033, V-B:LYS:547:CD:9918, V-B:VAL:458:CG2:9055, H-A:LYS:547:NZ:4948, V-B:LYS:471:CE:9188, V-B:TYR:484:CD1:9311, V-A:GLU:543:CA:4901, H-B:GLY:454:N:9018, V-A:GLY:544:CA:4911, H-B:ARG:545:NH1:9896"]

$$$$
3ca_Grossjean_2025
     RDKit          3D

 52 54  0  0  0  0  0  0  0  0999 V2000
  129.4790  130.5970   72.6500 C   0  0  0  0  0  0  0  0  0  0  0  0
  128.6630  129.5870   73.4620 C   0  0  0  0  0  0  0  0  0  0  0  0
  129.0410  128.2670   73.0930 O   0  0  0  0  0  0  0  0  0  0  0  0
  128.1910  127.4600   72.4080 C   0  0  0  0  0  0  0  0  0  0  0  0
  127.1370  127.0240   72.8810 O   0  0  0  0  0  0  0  0  0  0  0  0
  128.6580  127.1540   71.0130 C   0  0  0  0  0  0  0  0  0  0  0  0
  129.8060  127.7880   70.5210 C   0  0  0  0  0  0  0  0  0  0  0  0
  130.2630  127.5260   69.2320 C   0  0  0  0  0  0  0  0  0  0  0  0
  129.5780  126.6320   68.4070 C   0  0  0  0  0  0  0  0  0  0  0  0
  130.1260  126.4380   67.1250 N   0  0  0  0  0  0  0  0  0  0  0  0
  131.2220  126.9940   66.5630 C   0  0  0  0  0  0  0  0  0  0  0  0
  131.9780  127.7920   67.1150 O   0  0  0  0  0  0  0  0  0  0  0  0
  131.5190  126.5460   65.1280 C   0  0  0  0  0  0  0  0  0  0  0  0
  132.8030  125.2560   65.0300 S   0  0  0  0  0  0  0  0  0  0  0  0
  132.7790  124.4960   63.4110 C   0  0  0  0  0  0  0  0  0  0  0  0
  133.9880  124.3450   62.8150 N   0  0  0  0  0  0  0  0  0  0  0  0
  134.0480  123.7600   61.5990 C   0  0  0  0  0  0  0  0  0  0  0  0
  135.4350  123.6100   61.0070 C   0  0  0  0  0  0  0  0  0  0  0  0
  132.9120  123.3180   60.9240 C   0  0  0  0  0  0  0  0  0  0  0  0
  131.6510  123.4790   61.5100 C   0  0  0  0  0  0  0  0  0  0  0  0
  130.4600  123.0030   60.7430 C   0  0  0  0  0  0  0  0  0  0  0  0
  129.7800  121.8480   61.1470 C   0  0  0  0  0  0  0  0  0  0  0  0
  128.6750  121.3910   60.4330 C   0  0  0  0  0  0  0  0  0  0  0  0
  128.2480  122.0870   59.3050 C   0  0  0  0  0  0  0  0  0  0  0  0
  128.9180  123.2340   58.8850 C   0  0  0  0  0  0  0  0  0  0  0  0
  130.0230  123.6870   59.6020 C   0  0  0  0  0  0  0  0  0  0  0  0
  131.5760  124.0770   62.7940 C   0  0  0  0  0  0  0  0  0  0  0  0
  130.2880  124.2260   63.4800 C   0  0  0  0  0  0  0  0  0  0  0  0
  129.2710  124.3430   64.0210 N   0  0  0  0  0  0  0  0  0  0  0  0
  128.4320  125.9860   68.8950 C   0  0  0  0  0  0  0  0  0  0  0  0
  127.9780  126.2490   70.1850 C   0  0  0  0  0  0  0  0  0  0  0  0
  130.0199  131.2666   73.3349 H   0  0  0  0  0  0  0  0  0  0  0  0
  130.2002  130.0605   72.0159 H   0  0  0  0  0  0  0  0  0  0  0  0
  128.8030  131.1894   72.0159 H   0  0  0  0  0  0  0  0  0  0  0  0
  128.8557  129.7374   74.5345 H   0  0  0  0  0  0  0  0  0  0  0  0
  127.5918  129.7324   73.2583 H   0  0  0  0  0  0  0  0  0  0  0  0
  130.3515  128.4993   71.1586 H   0  0  0  0  0  0  0  0  0  0  0  0
  131.1696  128.0267   68.8614 H   0  0  0  0  0  0  0  0  0  0  0  0
  129.6470  125.7440   66.5710 H   0  0  0  0  0  0  0  0  0  0  0  0
  130.5923  126.1512   64.6861 H   0  0  0  0  0  0  0  0  0  0  0  0
  131.8953  127.4240   64.5826 H   0  0  0  0  0  0  0  0  0  0  0  0
  136.1733  123.5302   61.8185 H   0  0  0  0  0  0  0  0  0  0  0  0
  135.4726  122.7025   60.3864 H   0  0  0  0  0  0  0  0  0  0  0  0
  135.6658  124.4884   60.3864 H   0  0  0  0  0  0  0  0  0  0  0  0
  133.0057  122.8448   59.9354 H   0  0  0  0  0  0  0  0  0  0  0  0
  130.1212  121.2968   62.0357 H   0  0  0  0  0  0  0  0  0  0  0  0
  128.1424  120.4852   60.7583 H   0  0  0  0  0  0  0  0  0  0  0  0
  127.3745  121.7282   58.7409 H   0  0  0  0  0  0  0  0  0  0  0  0
  128.5764  123.7787   57.9925 H   0  0  0  0  0  0  0  0  0  0  0  0
  130.5567  124.5894   59.2691 H   0  0  0  0  0  0  0  0  0  0  0  0
  127.8914  125.2708   68.2577 H   0  0  0  0  0  0  0  0  0  0  0  0
  127.0764  125.7415   70.5585 H   0  0  0  0  0  0  0  0  0  0  0  0
  1  2  1  0
  2  3  1  0
  3  4  1  0
  4  5  2  0
  4  6  1  0
  6  7  2  0
  7  8  1  0
  8  9  2  0
  9 10  1  0
 10 11  1  0
 11 12  2  0
 11 13  1  0
 13 14  1  0
 14 15  1  0
 15 16  2  0
 16 17  1  0
 17 18  1  0
 17 19  2  0
 19 20  1  0
 20 21  1  0
 21 22  2  0
 22 23  1  0
 23 24  2  0
 24 25  1  0
 25 26  2  0
 20 27  2  0
 27 28  1  0
 28 29  3  0
  9 30  1  0
 30 31  2  0
 31  6  1  0
 27 15  1  0
 26 21  1  0
  1 32  1  0
  1 33  1  0
  1 34  1  0
  2 35  1  0
  2 36  1  0
  7 37  1  0
  8 38  1  0
 10 39  1  0
 13 40  1  0
 13 41  1  0
 18 42  1  0
 18 43  1  0
 18 44  1  0
 19 45  1  0
 22 46  1  0
 23 47  1  0
 24 48  1  0
 25 49  1  0
 26 50  1  0
 30 51  1  0
 31 52  1  0
M  END
>  <Binding energies>  (1) 
[-8.68]

>  <Ligand effiencies>  (1) 
[-0.27125]

>  <Interactions>  (1) 
["V-A:ARG:545:CZ:4923, V-A:ILE:369:CB:3232, H-A:GLY:454:N:4046, V-A:ILE:369:CG1:3234, V-B:TYR:539:CE2:9845, V-A:HIS:456:CE1:4066, V-A:GLU:543:CD:4905, V-B:GLU:543:C:9871, V-B:GLU:543:CB:9875, V-B:HIS:456:CE1:9038, V-B:GLY:544:C:9881, V-B:HIS:456:CD2:9036, V-A:GLU:543:CB:4903, V-B:TYR:539:CZ:9846, V-B:TYR:539:CD2:9843, V-B:ALA:541:CB:9861, V-A:ASP:366:CG:3209, V-B:TYR:539:C:9836, H-A:ARG:545:NE:4921, H-A:TYR:484:OH:4344, V-B:LYS:547:CE:9919, V-A:LYS:547:CE:4947, V-A:GLU:543:C:4899, H-A:LYS:547:NZ:4948, V-B:PRO:540:N:9853, V-A:GLY:453:C:4038, V-B:PRO:540:C:9850, V-B:PRO:540:CA:9852, V-A:GLY:453:CA:4040, V-A:GLY:544:CA:4911, V-A:ASP:366:CA:3206"]

$$$$
3cb_Grossjean_2025
     RDKit          3D

 49 51  0  0  0  0  0  0  0  0999 V2000
  123.6890  123.4080   60.6020 C   0  0  0  0  0  0  0  0  0  0  0  0
  123.3570  123.8840   59.3060 O   0  0  0  0  0  0  0  0  0  0  0  0
  124.2210  124.6600   58.6030 C   0  0  0  0  0  0  0  0  0  0  0  0
  123.8710  125.4110   57.6870 O   0  0  0  0  0  0  0  0  0  0  0  0
  125.6480  124.5130   59.0490 C   0  0  0  0  0  0  0  0  0  0  0  0
  126.4710  123.4780   58.5810 C   0  0  0  0  0  0  0  0  0  0  0  0
  127.7890  123.3720   59.0120 C   0  0  0  0  0  0  0  0  0  0  0  0
  128.3140  124.2910   59.9210 C   0  0  0  0  0  0  0  0  0  0  0  0
  129.6600  124.0920   60.2870 N   0  0  0  0  0  0  0  0  0  0  0  0
  130.3000  122.9610   60.6590 C   0  0  0  0  0  0  0  0  0  0  0  0
  129.7800  121.8460   60.7250 O   0  0  0  0  0  0  0  0  0  0  0  0
  131.7870  123.1520   60.9920 C   0  0  0  0  0  0  0  0  0  0  0  0
  132.3190  122.4270   62.5810 S   0  0  0  0  0  0  0  0  0  0  0  0
  132.2790  123.7170   63.8080 C   0  0  0  0  0  0  0  0  0  0  0  0
  133.4890  123.9730   64.3620 N   0  0  0  0  0  0  0  0  0  0  0  0
  133.5790  124.9350   65.3070 C   0  0  0  0  0  0  0  0  0  0  0  0
  134.9660  125.1760   65.8720 C   0  0  0  0  0  0  0  0  0  0  0  0
  132.4770  125.6670   65.7390 C   0  0  0  0  0  0  0  0  0  0  0  0
  131.2130  125.4080   65.1930 C   0  0  0  0  0  0  0  0  0  0  0  0
  130.0610  126.2180   65.6940 C   0  0  0  0  0  0  0  0  0  0  0  0
  129.5870  126.0360   66.9990 C   0  0  0  0  0  0  0  0  0  0  0  0
  128.5210  126.7930   67.4790 C   0  0  0  0  0  0  0  0  0  0  0  0
  127.9240  127.7410   66.6530 C   0  0  0  0  0  0  0  0  0  0  0  0
  128.3860  127.9410   65.3550 C   0  0  0  0  0  0  0  0  0  0  0  0
  129.4540  127.1840   64.8790 C   0  0  0  0  0  0  0  0  0  0  0  0
  131.0990  124.3930   64.2090 C   0  0  0  0  0  0  0  0  0  0  0  0
  129.7880  124.0160   63.6710 C   0  0  0  0  0  0  0  0  0  0  0  0
  128.7540  123.7180   63.2470 N   0  0  0  0  0  0  0  0  0  0  0  0
  127.4990  125.3330   60.3910 C   0  0  0  0  0  0  0  0  0  0  0  0
  126.1800  125.4380   59.9580 C   0  0  0  0  0  0  0  0  0  0  0  0
  123.2332  124.0614   61.3605 H   0  0  0  0  0  0  0  0  0  0  0  0
  123.3088  122.3831   60.7247 H   0  0  0  0  0  0  0  0  0  0  0  0
  124.7821  123.4107   60.7247 H   0  0  0  0  0  0  0  0  0  0  0  0
  126.0703  122.7436   57.8667 H   0  0  0  0  0  0  0  0  0  0  0  0
  128.4229  122.5568   58.6330 H   0  0  0  0  0  0  0  0  0  0  0  0
  130.2280  124.9260   60.2350 H   0  0  0  0  0  0  0  0  0  0  0  0
  132.3791  122.6879   60.1895 H   0  0  0  0  0  0  0  0  0  0  0  0
  131.9464  124.2369   61.0795 H   0  0  0  0  0  0  0  0  0  0  0  0
  134.9207  125.1681   66.9710 H   0  0  0  0  0  0  0  0  0  0  0  0
  135.6453  124.3824   65.5273 H   0  0  0  0  0  0  0  0  0  0  0  0
  135.3378  126.1522   65.5273 H   0  0  0  0  0  0  0  0  0  0  0  0
  132.5979  126.4460   66.5062 H   0  0  0  0  0  0  0  0  0  0  0  0
  130.0612  125.2879   67.6513 H   0  0  0  0  0  0  0  0  0  0  0  0
  128.1531  126.6426   68.5047 H   0  0  0  0  0  0  0  0  0  0  0  0
  127.0797  128.3374   67.0291 H   0  0  0  0  0  0  0  0  0  0  0  0
  127.9100  128.6931   64.7086 H   0  0  0  0  0  0  0  0  0  0  0  0
  129.8241  127.3453   63.8558 H   0  0  0  0  0  0  0  0  0  0  0  0
  127.9033  126.0679   61.1027 H   0  0  0  0  0  0  0  0  0  0  0  0
  125.5480  126.2563   60.3335 H   0  0  0  0  0  0  0  0  0  0  0  0
  1  2  1  0
  2  3  1  0
  3  4  2  0
  3  5  1  0
  5  6  2  0
  6  7  1  0
  7  8  2  0
  8  9  1  0
  9 10  1  0
 10 11  2  0
 10 12  1  0
 12 13  1  0
 13 14  1  0
 14 15  2  0
 15 16  1  0
 16 17  1  0
 16 18  2  0
 18 19  1  0
 19 20  1  0
 20 21  2  0
 21 22  1  0
 22 23  2  0
 23 24  1  0
 24 25  2  0
 19 26  2  0
 26 27  1  0
 27 28  3  0
  8 29  1  0
 29 30  2  0
 30  5  1  0
 26 14  1  0
 25 20  1  0
  1 31  1  0
  1 32  1  0
  1 33  1  0
  6 34  1  0
  7 35  1  0
  9 36  1  0
 12 37  1  0
 12 38  1  0
 17 39  1  0
 17 40  1  0
 17 41  1  0
 18 42  1  0
 21 43  1  0
 22 44  1  0
 23 45  1  0
 24 46  1  0
 25 47  1  0
 29 48  1  0
 30 49  1  0
M  END
>  <Binding energies>  (1) 
[-8.06]

>  <Ligand effiencies>  (1) 
[-0.26]

>  <Interactions>  (1) 
["V-B:GLU:543:CD:9877, V-A:ARG:545:CZ:4923, H-A:GLY:454:N:4046, V-A:ARG:545:CG:4919, V-A:GLY:454:CA:4045, V-B:TYR:539:CE2:9845, V-A:HIS:456:CE1:4066, V-A:GLY:454:C:4043, V-A:GLU:543:CD:4905, V-B:GLU:543:CB:9875, V-B:HIS:456:CE1:9038, V-B:GLU:543:CG:9876, V-B:TYR:539:CZ:9846, H-A:TYR:484:OH:4344, V-A:ARG:545:CD:4920, V-A:GLY:453:C:4038, V-B:LEU:363:CD1:8157, V-B:PRO:540:CB:9854, V-B:LEU:363:CA:8153, V-B:PRO:540:CA:9852, V-A:GLY:453:CA:4040, V-B:ASN:362:C:8140, V-B:ASN:362:CB:8144, H-B:TYR:531:OH:9764, H-B:LEU:363:N:8154"]

$$$$
3ce_Grossjean_2025
     RDKit          3D

 45 47  0  0  0  0  0  0  0  0999 V2000
  124.4920  131.6920   59.1100 C   0  0  0  0  0  0  0  0  0  0  0  0
  124.5550  132.0870   60.5730 C   0  0  0  0  0  0  0  0  0  0  0  0
  124.1290  133.3440   61.0100 C   0  0  0  0  0  0  0  0  0  0  0  0
  124.2060  133.6340   62.3710 C   0  0  0  0  0  0  0  0  0  0  0  0
  124.7030  132.6730   63.2550 C   0  0  0  0  0  0  0  0  0  0  0  0
  125.1220  131.4380   62.7500 C   0  0  0  0  0  0  0  0  0  0  0  0
  125.5940  130.5030   63.6870 N   0  0  0  0  0  0  0  0  0  0  0  0
  124.8950  129.8510   64.6410 C   0  0  0  0  0  0  0  0  0  0  0  0
  123.6850  129.9750   64.8410 O   0  0  0  0  0  0  0  0  0  0  0  0
  125.7010  128.8880   65.5120 C   0  0  0  0  0  0  0  0  0  0  0  0
  127.4770  129.2680   65.4800 S   0  0  0  0  0  0  0  0  0  0  0  0
  128.2910  127.8290   66.1350 C   0  0  0  0  0  0  0  0  0  0  0  0
  128.0730  127.6270   67.4580 N   0  0  0  0  0  0  0  0  0  0  0  0
  128.6350  126.5480   68.0490 C   0  0  0  0  0  0  0  0  0  0  0  0
  128.3390  126.3750   69.5260 C   0  0  0  0  0  0  0  0  0  0  0  0
  129.4390  125.6470   67.3550 C   0  0  0  0  0  0  0  0  0  0  0  0
  129.6980  125.8540   65.9930 C   0  0  0  0  0  0  0  0  0  0  0  0
  130.5870  124.8750   65.2990 C   0  0  0  0  0  0  0  0  0  0  0  0
  131.9210  125.2040   65.0300 C   0  0  0  0  0  0  0  0  0  0  0  0
  132.7540  124.2990   64.3770 C   0  0  0  0  0  0  0  0  0  0  0  0
  132.2540  123.0610   63.9820 C   0  0  0  0  0  0  0  0  0  0  0  0
  130.9260  122.7230   64.2330 C   0  0  0  0  0  0  0  0  0  0  0  0
  130.0960  123.6290   64.8870 C   0  0  0  0  0  0  0  0  0  0  0  0
  129.1070  126.9740   65.3570 C   0  0  0  0  0  0  0  0  0  0  0  0
  129.3290  127.2330   63.9310 C   0  0  0  0  0  0  0  0  0  0  0  0
  129.5050  127.4360   62.8060 N   0  0  0  0  0  0  0  0  0  0  0  0
  125.0420  131.1430   61.4180 N   0  0  0  0  0  0  0  0  0  0  0  0
  124.3192  130.6086   59.0298 H   0  0  0  0  0  0  0  0  0  0  0  0
  123.6686  132.2319   58.6196 H   0  0  0  0  0  0  0  0  0  0  0  0
  125.4425  131.9490   58.6196 H   0  0  0  0  0  0  0  0  0  0  0  0
  123.7421  134.0868   60.2969 H   0  0  0  0  0  0  0  0  0  0  0  0
  123.8773  134.6140   62.7471 H   0  0  0  0  0  0  0  0  0  0  0  0
  124.7639  132.8847   64.3327 H   0  0  0  0  0  0  0  0  0  0  0  0
  126.5580  130.2290   63.5650 H   0  0  0  0  0  0  0  0  0  0  0  0
  125.3407  128.9603   66.5488 H   0  0  0  0  0  0  0  0  0  0  0  0
  125.5631  127.8721   65.1135 H   0  0  0  0  0  0  0  0  0  0  0  0
  129.1396  126.8429   70.1177 H   0  0  0  0  0  0  0  0  0  0  0  0
  127.3781  126.8537   69.7659 H   0  0  0  0  0  0  0  0  0  0  0  0
  128.2845  125.3029   69.7659 H   0  0  0  0  0  0  0  0  0  0  0  0
  129.8687  124.7771   67.8732 H   0  0  0  0  0  0  0  0  0  0  0  0
  132.3140  126.1845   65.3367 H   0  0  0  0  0  0  0  0  0  0  0  0
  133.8029  124.5612   64.1741 H   0  0  0  0  0  0  0  0  0  0  0  0
  132.9121  122.3449   63.4682 H   0  0  0  0  0  0  0  0  0  0  0  0
  130.5352  121.7449   63.9159 H   0  0  0  0  0  0  0  0  0  0  0  0
  129.0462  123.3647   65.0820 H   0  0  0  0  0  0  0  0  0  0  0  0
  1  2  1  0
  2  3  2  0
  3  4  1  0
  4  5  2  0
  5  6  1  0
  6  7  1  0
  7  8  1  0
  8  9  2  0
  8 10  1  0
 10 11  1  0
 11 12  1  0
 12 13  2  0
 13 14  1  0
 14 15  1  0
 14 16  2  0
 16 17  1  0
 17 18  1  0
 18 19  2  0
 19 20  1  0
 20 21  2  0
 21 22  1  0
 22 23  2  0
 17 24  2  0
 24 25  1  0
 25 26  3  0
  6 27  2  0
 27  2  1  0
 24 12  1  0
 23 18  1  0
  1 28  1  0
  1 29  1  0
  1 30  1  0
  3 31  1  0
  4 32  1  0
  5 33  1  0
  7 34  1  0
 10 35  1  0
 10 36  1  0
 15 37  1  0
 15 38  1  0
 15 39  1  0
 16 40  1  0
 19 41  1  0
 20 42  1  0
 21 43  1  0
 22 44  1  0
 23 45  1  0
M  END
>  <Binding energies>  (1) 
[-8.01]

>  <Ligand effiencies>  (1) 
[-0.2860714285714286]

>  <Interactions>  (1) 
["V-A:LEU:475:CD1:4254, V-B:GLU:543:CD:9877, V-A:GLY:454:CA:4045, V-A:HIS:456:CE1:4066, V-A:GLU:543:CD:4905, V-A:TYR:484:CZ:4343, V-B:GLU:543:CB:9875, V-B:HIS:456:CE1:9038, V-A:TYR:484:CE1:4341, V-B:GLU:543:CG:9876, V-B:ILE:369:CD1:8207, V-B:ILE:369:CG2:8205, V-B:ARG:545:CZ:9895, V-A:TYR:539:CE2:4873, V-B:GLY:454:CA:9017, H-B:TYR:484:OH:9316, V-B:LEU:475:CD2:9227, V-B:ASP:366:CB:8180, V-B:ASP:366:CG:8181, H-B:GLY:454:N:9018, H-B:ARG:545:NH1:9896, H-B:ARG:545:NE:9893"]

$$$$
3ch_Grossjean_2025
     RDKit          3D

 55 57  0  0  0  0  0  0  0  0999 V2000
  128.1170  131.9230   62.2910 C   0  0  0  0  0  0  0  0  0  0  0  0
  126.8770  131.9480   62.9910 O   0  0  0  0  0  0  0  0  0  0  0  0
  126.5570  130.9130   63.8510 C   0  0  0  0  0  0  0  0  0  0  0  0
  127.5010  130.0360   64.4090 C   0  0  0  0  0  0  0  0  0  0  0  0
  127.1040  129.0130   65.2820 C   0  0  0  0  0  0  0  0  0  0  0  0
  127.9750  128.0910   65.8940 N   0  0  0  0  0  0  0  0  0  0  0  0
  128.7200  128.2210   67.0140 C   0  0  0  0  0  0  0  0  0  0  0  0
  128.7570  129.2170   67.7360 O   0  0  0  0  0  0  0  0  0  0  0  0
  129.5400  126.9920   67.4060 C   0  0  0  0  0  0  0  0  0  0  0  0
  131.1900  126.9970   66.6440 S   0  0  0  0  0  0  0  0  0  0  0  0
  130.9880  126.2870   65.0240 C   0  0  0  0  0  0  0  0  0  0  0  0
  129.8550  126.6770   64.3900 N   0  0  0  0  0  0  0  0  0  0  0  0
  129.6040  126.1870   63.1550 C   0  0  0  0  0  0  0  0  0  0  0  0
  128.3180  126.6590   62.5060 C   0  0  0  0  0  0  0  0  0  0  0  0
  130.4620  125.2980   62.5120 C   0  0  0  0  0  0  0  0  0  0  0  0
  131.6430  124.8890   63.1480 C   0  0  0  0  0  0  0  0  0  0  0  0
  132.5280  123.9260   62.4230 C   0  0  0  0  0  0  0  0  0  0  0  0
  132.0740  122.6340   62.1340 C   0  0  0  0  0  0  0  0  0  0  0  0
  132.8960  121.7290   61.4670 C   0  0  0  0  0  0  0  0  0  0  0  0
  134.1800  122.1140   61.0890 C   0  0  0  0  0  0  0  0  0  0  0  0
  134.6490  123.3930   61.3760 C   0  0  0  0  0  0  0  0  0  0  0  0
  133.8240  124.2950   62.0440 C   0  0  0  0  0  0  0  0  0  0  0  0
  131.9290  125.4100   64.4360 C   0  0  0  0  0  0  0  0  0  0  0  0
  133.1930  125.0910   65.1070 C   0  0  0  0  0  0  0  0  0  0  0  0
  134.1900  124.8380   65.6380 N   0  0  0  0  0  0  0  0  0  0  0  0
  125.7480  128.8600   65.5780 C   0  0  0  0  0  0  0  0  0  0  0  0
  124.7860  129.7220   65.0300 C   0  0  0  0  0  0  0  0  0  0  0  0
  123.4290  129.6290   65.2880 O   0  0  0  0  0  0  0  0  0  0  0  0
  122.9710  129.6250   66.6360 C   0  0  0  0  0  0  0  0  0  0  0  0
  125.2030  130.7430   64.1660 C   0  0  0  0  0  0  0  0  0  0  0  0
  124.2720  131.6050   63.6370 O   0  0  0  0  0  0  0  0  0  0  0  0
  123.7760  131.2120   62.3640 C   0  0  0  0  0  0  0  0  0  0  0  0
  128.9459  131.9063   63.0139 H   0  0  0  0  0  0  0  0  0  0  0  0
  128.1633  131.0237   61.6592 H   0  0  0  0  0  0  0  0  0  0  0  0
  128.1995  132.8197   61.6592 H   0  0  0  0  0  0  0  0  0  0  0  0
  128.5656  130.1530   64.1581 H   0  0  0  0  0  0  0  0  0  0  0  0
  128.0080  127.1900   65.4410 H   0  0  0  0  0  0  0  0  0  0  0  0
  129.6549  126.9768   68.4999 H   0  0  0  0  0  0  0  0  0  0  0  0
  129.0049  126.1003   67.0476 H   0  0  0  0  0  0  0  0  0  0  0  0
  127.5901  126.9262   63.2862 H   0  0  0  0  0  0  0  0  0  0  0  0
  128.5248  127.5398   61.8804 H   0  0  0  0  0  0  0  0  0  0  0  0
  127.9059  125.8535   61.8804 H   0  0  0  0  0  0  0  0  0  0  0  0
  130.2143  124.9184   61.5097 H   0  0  0  0  0  0  0  0  0  0  0  0
  131.0605  122.3312   62.4359 H   0  0  0  0  0  0  0  0  0  0  0  0
  132.5331  120.7157   61.2400 H   0  0  0  0  0  0  0  0  0  0  0  0
  134.8291  121.4014   60.5591 H   0  0  0  0  0  0  0  0  0  0  0  0
  135.6652  123.6896   61.0770 H   0  0  0  0  0  0  0  0  0  0  0  0
  134.1937  125.3048   62.2754 H   0  0  0  0  0  0  0  0  0  0  0  0
  125.4289  128.0509   66.2514 H   0  0  0  0  0  0  0  0  0  0  0  0
  123.8350  129.6325   67.3168 H   0  0  0  0  0  0  0  0  0  0  0  0
  122.3542  130.5178   66.8164 H   0  0  0  0  0  0  0  0  0  0  0  0
  122.3699  128.7216   66.8164 H   0  0  0  0  0  0  0  0  0  0  0  0
  122.9202  130.5339   62.4973 H   0  0  0  0  0  0  0  0  0  0  0  0
  123.4542  132.1030   61.8048 H   0  0  0  0  0  0  0  0  0  0  0  0
  124.5698  130.6950   61.8048 H   0  0  0  0  0  0  0  0  0  0  0  0
  1  2  1  0
  2  3  1  0
  3  4  2  0
  4  5  1  0
  5  6  1  0
  6  7  1  0
  7  8  2  0
  7  9  1  0
  9 10  1  0
 10 11  1  0
 11 12  2  0
 12 13  1  0
 13 14  1  0
 13 15  2  0
 15 16  1  0
 16 17  1  0
 17 18  2  0
 18 19  1  0
 19 20  2  0
 20 21  1  0
 21 22  2  0
 16 23  2  0
 23 24  1  0
 24 25  3  0
  5 26  2  0
 26 27  1  0
 27 28  1  0
 28 29  1  0
 27 30  2  0
 30 31  1  0
 31 32  1  0
 30  3  1  0
 23 11  1  0
 22 17  1  0
  1 33  1  0
  1 34  1  0
  1 35  1  0
  4 36  1  0
  6 37  1  0
  9 38  1  0
  9 39  1  0
 14 40  1  0
 14 41  1  0
 14 42  1  0
 15 43  1  0
 18 44  1  0
 19 45  1  0
 20 46  1  0
 21 47  1  0
 22 48  1  0
 26 49  1  0
 29 50  1  0
 29 51  1  0
 29 52  1  0
 32 53  1  0
 32 54  1  0
 32 55  1  0
M  END
>  <Binding energies>  (1) 
[-7.99]

>  <Ligand effiencies>  (1) 
[-0.24212121212121213]

>  <Interactions>  (1) 
["V-A:LEU:475:CD1:4254, V-B:GLU:543:CD:9877, V-A:ARG:545:CZ:4923, V-A:ILE:369:CB:3232, H-A:GLY:454:N:4046, V-A:ILE:369:CG1:3234, V-A:ILE:369:CG2:3233, V-B:TYR:539:CE2:9845, V-A:HIS:456:CE1:4066, V-A:GLU:543:CD:4905, V-A:GLU:543:CG:4904, V-B:HIS:456:CE1:9038, V-A:GLU:543:CB:4903, V-B:ILE:369:CD1:8207, V-B:ARG:545:CZ:9895, V-A:ALA:541:CB:4889, V-B:ARG:545:CD:9892, H-B:TYR:484:OH:9316, V-B:ASP:366:CG:8181, V-A:ASP:366:CG:3209, H-A:ARG:545:NE:4921, H-A:TYR:484:OH:4344, H-B:GLU:543:OE1:9878, H-A:HIS:456:ND1:4063, H-B:GLY:454:N:9018, V-A:GLY:453:C:4038, V-B:GLY:453:CA:9012, V-B:GLY:453:C:9010, V-B:ARG:545:CG:9891, V-A:GLY:453:CA:4040, V-B:ILE:455:C:9020, H-B:ARG:545:NH1:9896, H-B:ARG:545:NE:9893, H-B:GLU:543:OE2:9879"]

$$$$
3ci_Grossjean_2025
     RDKit          3D

 39 41  0  0  0  0  0  0  0  0999 V2000
  128.6240  126.4320   62.4940 C   0  0  0  0  0  0  0  0  0  0  0  0
  129.9200  126.0190   63.1650 C   0  0  0  0  0  0  0  0  0  0  0  0
  130.8020  125.1250   62.5650 C   0  0  0  0  0  0  0  0  0  0  0  0
  131.9950  124.7860   63.2170 C   0  0  0  0  0  0  0  0  0  0  0  0
  132.9180  123.8350   62.5290 C   0  0  0  0  0  0  0  0  0  0  0  0
  134.1460  124.2720   62.0160 C   0  0  0  0  0  0  0  0  0  0  0  0
  134.9990  123.3820   61.3680 C   0  0  0  0  0  0  0  0  0  0  0  0
  134.6230  122.0500   61.2230 C   0  0  0  0  0  0  0  0  0  0  0  0
  133.4020  121.6010   61.7190 C   0  0  0  0  0  0  0  0  0  0  0  0
  132.5520  122.4930   62.3670 C   0  0  0  0  0  0  0  0  0  0  0  0
  132.2590  125.3660   64.4850 C   0  0  0  0  0  0  0  0  0  0  0  0
  133.4710  125.0160   65.2340 C   0  0  0  0  0  0  0  0  0  0  0  0
  134.4280  124.7400   65.8230 N   0  0  0  0  0  0  0  0  0  0  0  0
  131.3100  126.2700   65.0210 C   0  0  0  0  0  0  0  0  0  0  0  0
  131.5510  127.0750   66.6000 S   0  0  0  0  0  0  0  0  0  0  0  0
  129.9550  127.7180   67.2040 C   0  0  0  0  0  0  0  0  0  0  0  0
  129.5450  127.1430   68.5640 C   0  0  0  0  0  0  0  0  0  0  0  0
  129.1800  125.9680   68.6370 O   0  0  0  0  0  0  0  0  0  0  0  0
  129.6030  128.0030   69.6060 N   0  0  0  0  0  0  0  0  0  0  0  0
  129.3150  127.7330   70.9370 C   0  0  0  0  0  0  0  0  0  0  0  0
  128.2070  126.9870   71.3380 C   0  0  0  0  0  0  0  0  0  0  0  0
  128.2790  126.9520   72.7130 C   0  0  0  0  0  0  0  0  0  0  0  0
  129.3740  127.6400   73.1160 O   0  0  0  0  0  0  0  0  0  0  0  0
  130.0220  128.1310   71.9810 N   0  0  0  0  0  0  0  0  0  0  0  0
  130.1600  126.5820   64.3700 N   0  0  0  0  0  0  0  0  0  0  0  0
  127.8735  126.6712   63.2619 H   0  0  0  0  0  0  0  0  0  0  0  0
  128.8020  127.3179   61.8667 H   0  0  0  0  0  0  0  0  0  0  0  0
  128.2566  125.6064   61.8667 H   0  0  0  0  0  0  0  0  0  0  0  0
  130.5638  124.6870   61.5845 H   0  0  0  0  0  0  0  0  0  0  0  0
  134.4390  125.3266   62.1258 H   0  0  0  0  0  0  0  0  0  0  0  0
  135.9648  123.7301   60.9729 H   0  0  0  0  0  0  0  0  0  0  0  0
  135.2962  121.3459   60.7122 H   0  0  0  0  0  0  0  0  0  0  0  0
  133.1105  120.5471   61.5995 H   0  0  0  0  0  0  0  0  0  0  0  0
  131.5848  122.1408   62.7550 H   0  0  0  0  0  0  0  0  0  0  0  0
  130.0315  128.8115   67.2961 H   0  0  0  0  0  0  0  0  0  0  0  0
  129.1863  127.4158   66.4776 H   0  0  0  0  0  0  0  0  0  0  0  0
  129.9140  128.9430   69.4120 H   0  0  0  0  0  0  0  0  0  0  0  0
  127.4418  126.5266   70.6957 H   0  0  0  0  0  0  0  0  0  0  0  0
  127.5624  126.4466   73.3771 H   0  0  0  0  0  0  0  0  0  0  0  0
  1  2  1  0
  2  3  2  0
  3  4  1  0
  4  5  1  0
  5  6  2  0
  6  7  1  0
  7  8  2  0
  8  9  1  0
  9 10  2  0
  4 11  2  0
 11 12  1  0
 12 13  3  0
 11 14  1  0
 14 15  1  0
 15 16  1  0
 16 17  1  0
 17 18  2  0
 17 19  1  0
 19 20  1  0
 20 21  1  0
 21 22  2  0
 22 23  1  0
 23 24  1  0
 14 25  2  0
 25  2  1  0
 10  5  1  0
 24 20  2  0
  1 26  1  0
  1 27  1  0
  1 28  1  0
  3 29  1  0
  6 30  1  0
  7 31  1  0
  8 32  1  0
  9 33  1  0
 10 34  1  0
 16 35  1  0
 16 36  1  0
 19 37  1  0
 21 38  1  0
 22 39  1  0
M  END
>  <Binding energies>  (1) 
[-8.04]

>  <Ligand effiencies>  (1) 
[-0.3092307692307692]

>  <Interactions>  (1) 
["V-A:LEU:475:CD1:4254, V-B:GLU:543:CD:9877, V-A:ARG:545:CZ:4923, V-A:ILE:369:CB:3232, H-A:GLY:454:N:4046, V-A:ILE:369:CG1:3234, V-A:ILE:369:CG2:3233, V-A:GLY:454:CA:4045, V-B:TYR:539:CE2:9845, V-A:HIS:456:CE1:4066, V-A:GLU:543:CD:4905, H-B:HIS:456:NE2:9039, V-B:HIS:456:CE1:9038, V-B:HIS:456:CD2:9036, H-A:GLU:543:O:4900, V-A:GLU:543:CB:4903, V-A:ASP:366:CG:3209, H-A:TYR:484:OH:4344, V-A:ARG:545:CD:4920, V-B:LYS:547:CE:9919, H-A:LYS:547:NZ:4948, H-A:HIS:456:ND1:4063, V-A:GLY:453:C:4038, V-A:ILE:369:CD1:3235, V-A:GLY:453:CA:4040"]

$$$$
3cj_Grossjean_2025
     RDKit          3D

 39 41  0  0  0  0  0  0  0  0999 V2000
  126.7470  128.2900   62.0390 C   0  0  0  0  0  0  0  0  0  0  0  0
  127.8350  127.4980   62.7360 C   0  0  0  0  0  0  0  0  0  0  0  0
  128.1040  127.6670   64.0930 C   0  0  0  0  0  0  0  0  0  0  0  0
  129.1040  126.8970   64.7020 C   0  0  0  0  0  0  0  0  0  0  0  0
  129.3140  127.0650   66.1700 C   0  0  0  0  0  0  0  0  0  0  0  0
  130.5040  127.6150   66.6600 C   0  0  0  0  0  0  0  0  0  0  0  0
  130.7040  127.7590   68.0300 C   0  0  0  0  0  0  0  0  0  0  0  0
  129.7140  127.3480   68.9170 C   0  0  0  0  0  0  0  0  0  0  0  0
  128.5280  126.7900   68.4460 C   0  0  0  0  0  0  0  0  0  0  0  0
  128.3300  126.6470   67.0740 C   0  0  0  0  0  0  0  0  0  0  0  0
  129.8370  125.9870   63.9000 C   0  0  0  0  0  0  0  0  0  0  0  0
  130.9140  125.1740   64.4730 C   0  0  0  0  0  0  0  0  0  0  0  0
  131.7640  124.5320   64.9270 N   0  0  0  0  0  0  0  0  0  0  0  0
  129.4930  125.8770   62.5340 C   0  0  0  0  0  0  0  0  0  0  0  0
  130.2410  124.6800   61.4480 S   0  0  0  0  0  0  0  0  0  0  0  0
  129.4000  123.1120   61.8330 C   0  0  0  0  0  0  0  0  0  0  0  0
  128.1140  122.9390   61.0190 C   0  0  0  0  0  0  0  0  0  0  0  0
  127.9600  121.9270   60.3320 O   0  0  0  0  0  0  0  0  0  0  0  0
  127.2050  123.9290   61.1560 N   0  0  0  0  0  0  0  0  0  0  0  0
  125.9200  123.9500   60.6390 C   0  0  0  0  0  0  0  0  0  0  0  0
  124.8800  123.2470   61.0330 N   0  0  0  0  0  0  0  0  0  0  0  0
  123.8030  123.5450   60.3330 C   0  0  0  0  0  0  0  0  0  0  0  0
  123.9580  124.5110   59.3430 C   0  0  0  0  0  0  0  0  0  0  0  0
  125.6110  125.0520   59.3350 S   0  0  0  0  0  0  0  0  0  0  0  0
  128.5040  126.6120   61.9660 N   0  0  0  0  0  0  0  0  0  0  0  0
  126.0982  128.7623   62.7913 H   0  0  0  0  0  0  0  0  0  0  0  0
  127.2052  129.0674   61.4099 H   0  0  0  0  0  0  0  0  0  0  0  0
  126.1480  127.6151   61.4099 H   0  0  0  0  0  0  0  0  0  0  0  0
  127.5346  128.4006   64.6826 H   0  0  0  0  0  0  0  0  0  0  0  0
  131.2871  127.9359   65.9573 H   0  0  0  0  0  0  0  0  0  0  0  0
  131.6398  128.1954   68.4093 H   0  0  0  0  0  0  0  0  0  0  0  0
  129.8693  127.4648   69.9997 H   0  0  0  0  0  0  0  0  0  0  0  0
  127.7514  126.4638   69.1535 H   0  0  0  0  0  0  0  0  0  0  0  0
  127.3957  126.2034   66.6993 H   0  0  0  0  0  0  0  0  0  0  0  0
  130.0802  122.2782   61.6048 H   0  0  0  0  0  0  0  0  0  0  0  0
  129.1298  123.1228   62.8992 H   0  0  0  0  0  0  0  0  0  0  0  0
  127.4460  124.6990   61.7640 H   0  0  0  0  0  0  0  0  0  0  0  0
  122.8353  123.0570   60.5211 H   0  0  0  0  0  0  0  0  0  0  0  0
  123.1637  124.8736   58.6740 H   0  0  0  0  0  0  0  0  0  0  0  0
  1  2  1  0
  2  3  2  0
  3  4  1  0
  4  5  1  0
  5  6  2  0
  6  7  1  0
  7  8  2  0
  8  9  1  0
  9 10  2  0
  4 11  2  0
 11 12  1  0
 12 13  3  0
 11 14  1  0
 14 15  1  0
 15 16  1  0
 16 17  1  0
 17 18  2  0
 17 19  1  0
 19 20  1  0
 20 21  2  0
 21 22  1  0
 22 23  2  0
 23 24  1  0
 14 25  2  0
 25  2  1  0
 10  5  1  0
 24 20  1  0
  1 26  1  0
  1 27  1  0
  1 28  1  0
  3 29  1  0
  6 30  1  0
  7 31  1  0
  8 32  1  0
  9 33  1  0
 10 34  1  0
 16 35  1  0
 16 36  1  0
 19 37  1  0
 22 38  1  0
 23 39  1  0
M  END
>  <Binding energies>  (1) 
[-6.77]

>  <Ligand effiencies>  (1) 
[-0.2603846153846154]

>  <Interactions>  (1) 
["V-B:GLU:543:CD:9877, V-A:HIS:456:CE1:4066, V-A:GLU:543:CD:4905, V-A:GLU:543:CG:4904, V-B:GLU:543:CB:9875, V-B:HIS:456:CE1:9038, V-A:GLU:543:CB:4903, V-B:GLU:543:CG:9876, H-B:ALA:541:N:9860, V-B:ALA:541:CB:9861, H-A:TYR:484:OH:4344, V-B:PRO:540:CB:9854, V-B:LEU:363:CA:8153, V-B:PRO:540:CA:9852, V-B:ASN:362:C:8140, V-B:ASN:362:CB:8144, H-B:GLU:543:OE2:9879"]

$$$$
3ck_Grossjean_2025
     RDKit          3D

 57 58  0  0  0  0  0  0  0  0999 V2000
  124.1240  123.8800   61.0900 C   0  0  0  0  0  0  0  0  0  0  0  0
  125.1970  122.9520   61.0420 O   0  0  0  0  0  0  0  0  0  0  0  0
  126.3090  123.4120   60.2860 C   0  0  0  0  0  0  0  0  0  0  0  0
  127.6020  123.1710   61.0760 C   0  0  0  0  0  0  0  0  0  0  0  0
  128.4800  122.3610   60.3050 O   0  0  0  0  0  0  0  0  0  0  0  0
  129.4790  121.7020   61.0720 C   0  0  0  0  0  0  0  0  0  0  0  0
  130.7790  122.5130   61.0040 C   0  0  0  0  0  0  0  0  0  0  0  0
  131.8130  121.7520   61.6110 O   0  0  0  0  0  0  0  0  0  0  0  0
  133.1170  122.2930   61.4630 C   0  0  0  0  0  0  0  0  0  0  0  0
  133.0190  123.7340   60.9270 C   0  0  0  0  0  0  0  0  0  0  0  0
  132.3970  124.6720   61.8660 N   0  0  0  0  0  0  0  0  0  0  0  0
  132.8120  124.9150   63.1230 C   0  0  0  0  0  0  0  0  0  0  0  0
  133.8020  124.3780   63.6220 O   0  0  0  0  0  0  0  0  0  0  0  0
  131.9670  125.9250   63.9150 C   0  0  0  0  0  0  0  0  0  0  0  0
  130.7630  125.1970   65.0790 S   0  0  0  0  0  0  0  0  0  0  0  0
  129.8930  126.5110   65.9200 C   0  0  0  0  0  0  0  0  0  0  0  0
  130.2070  126.6780   67.2300 N   0  0  0  0  0  0  0  0  0  0  0  0
  129.5840  127.6520   67.9290 C   0  0  0  0  0  0  0  0  0  0  0  0
  129.9840  127.7760   69.3870 C   0  0  0  0  0  0  0  0  0  0  0  0
  128.6300  128.4920   67.3600 C   0  0  0  0  0  0  0  0  0  0  0  0
  128.2860  128.3340   66.0110 C   0  0  0  0  0  0  0  0  0  0  0  0
  127.2410  129.2420   65.4490 C   0  0  0  0  0  0  0  0  0  0  0  0
  127.6070  130.4690   64.8830 C   0  0  0  0  0  0  0  0  0  0  0  0
  126.6370  131.3260   64.3660 C   0  0  0  0  0  0  0  0  0  0  0  0
  125.2950  130.9590   64.4190 C   0  0  0  0  0  0  0  0  0  0  0  0
  124.9150  129.7460   64.9880 C   0  0  0  0  0  0  0  0  0  0  0  0
  125.8860  128.8920   65.5030 C   0  0  0  0  0  0  0  0  0  0  0  0
  128.9420  127.3240   65.2620 C   0  0  0  0  0  0  0  0  0  0  0  0
  128.6510  127.1410   63.8350 C   0  0  0  0  0  0  0  0  0  0  0  0
  128.4220  126.9970   62.7100 N   0  0  0  0  0  0  0  0  0  0  0  0
  123.8734  124.0968   62.1389 H   0  0  0  0  0  0  0  0  0  0  0  0
  124.4211  124.8105   60.5842 H   0  0  0  0  0  0  0  0  0  0  0  0
  123.2460  123.4519   60.5842 H   0  0  0  0  0  0  0  0  0  0  0  0
  126.3550  122.8654   59.3325 H   0  0  0  0  0  0  0  0  0  0  0  0
  126.1966  124.4881   60.0878 H   0  0  0  0  0  0  0  0  0  0  0  0
  128.0859  124.1350   61.2917 H   0  0  0  0  0  0  0  0  0  0  0  0
  127.3662  122.6615   62.0220 H   0  0  0  0  0  0  0  0  0  0  0  0
  129.1482  121.6231   62.1181 H   0  0  0  0  0  0  0  0  0  0  0  0
  129.6500  120.6926   60.6696 H   0  0  0  0  0  0  0  0  0  0  0  0
  131.0352  122.7172   59.9539 H   0  0  0  0  0  0  0  0  0  0  0  0
  130.6554  123.4710   61.5303 H   0  0  0  0  0  0  0  0  0  0  0  0
  133.6242  122.2988   62.4391 H   0  0  0  0  0  0  0  0  0  0  0  0
  133.6905  121.6772   60.7546 H   0  0  0  0  0  0  0  0  0  0  0  0
  134.0350  124.0905   60.7021 H   0  0  0  0  0  0  0  0  0  0  0  0
  132.3778  123.7013   60.0338 H   0  0  0  0  0  0  0  0  0  0  0  0
  131.5850  125.1660   61.5270 H   0  0  0  0  0  0  0  0  0  0  0  0
  132.6529  126.5632   64.4913 H   0  0  0  0  0  0  0  0  0  0  0  0
  131.3735  126.4742   63.1693 H   0  0  0  0  0  0  0  0  0  0  0  0
  129.1286  127.5108   70.0257 H   0  0  0  0  0  0  0  0  0  0  0  0
  130.8227  127.0957   69.5963 H   0  0  0  0  0  0  0  0  0  0  0  0
  130.2908  128.8114   69.5963 H   0  0  0  0  0  0  0  0  0  0  0  0
  128.1496  129.2745   67.9658 H   0  0  0  0  0  0  0  0  0  0  0  0
  128.6675  130.7588   64.8460 H   0  0  0  0  0  0  0  0  0  0  0  0
  126.9302  132.2871   63.9185 H   0  0  0  0  0  0  0  0  0  0  0  0
  124.5286  131.6326   64.0081 H   0  0  0  0  0  0  0  0  0  0  0  0
  123.8526  129.4642   65.0302 H   0  0  0  0  0  0  0  0  0  0  0  0
  125.5869  127.9351   65.9557 H   0  0  0  0  0  0  0  0  0  0  0  0
  1  2  1  0
  2  3  1  0
  3  4  1  0
  4  5  1  0
  5  6  1  0
  6  7  1  0
  7  8  1  0
  8  9  1  0
  9 10  1  0
 10 11  1  0
 11 12  1  0
 12 13  2  0
 12 14  1  0
 14 15  1  0
 15 16  1  0
 16 17  2  0
 17 18  1  0
 18 19  1  0
 18 20  2  0
 20 21  1  0
 21 22  1  0
 22 23  2  0
 23 24  1  0
 24 25  2  0
 25 26  1  0
 26 27  2  0
 21 28  2  0
 28 29  1  0
 29 30  3  0
 28 16  1  0
 27 22  1  0
  1 31  1  0
  1 32  1  0
  1 33  1  0
  3 34  1  0
  3 35  1  0
  4 36  1  0
  4 37  1  0
  6 38  1  0
  6 39  1  0
  7 40  1  0
  7 41  1  0
  9 42  1  0
  9 43  1  0
 10 44  1  0
 10 45  1  0
 11 46  1  0
 14 47  1  0
 14 48  1  0
 19 49  1  0
 19 50  1  0
 19 51  1  0
 20 52  1  0
 23 53  1  0
 24 54  1  0
 25 55  1  0
 26 56  1  0
 27 57  1  0
M  END
>  <Binding energies>  (1) 
[-6.73]

>  <Ligand effiencies>  (1) 
[-0.2170967741935484]

>  <Interactions>  (1) 
["V-A:LEU:475:CD1:4254, V-B:GLU:543:CD:9877, V-A:ARG:545:CZ:4923, H-A:ASP:366:OD2:3211, H-A:GLY:454:N:4046, V-B:TYR:539:CE2:9845, V-A:HIS:456:CE1:4066, H-A:ASP:366:OD1:3210, V-A:GLU:543:CD:4905, V-A:GLU:543:CG:4904, V-B:HIS:456:CE1:9038, V-A:GLU:543:CB:4903, V-B:ARG:545:CZ:9895, V-B:TYR:539:CZ:9846, H-B:ALA:541:N:9860, V-B:TYR:539:CD2:9843, V-B:ALA:541:CB:9861, V-A:ASP:366:CG:3209, H-A:TYR:484:OH:4344, V-B:PRO:540:CA:9852, V-B:ASN:362:C:8140, V-B:ASN:362:CB:8144"]

$$$$
4aa_Grossjean_2025
     RDKit          3D

 45 47  0  0  0  0  0  0  0  0999 V2000
  124.7740  127.7210   73.7600 C   0  0  0  0  0  0  0  0  0  0  0  0
  126.2550  128.1070   73.8330 C   0  0  0  0  0  0  0  0  0  0  0  0
  126.9460  127.5390   72.7280 O   0  0  0  0  0  0  0  0  0  0  0  0
  128.2600  127.8060   72.5110 C   0  0  0  0  0  0  0  0  0  0  0  0
  128.9890  128.3550   73.3430 O   0  0  0  0  0  0  0  0  0  0  0  0
  128.7370  127.3700   71.1560 C   0  0  0  0  0  0  0  0  0  0  0  0
  129.9650  127.8460   70.6780 C   0  0  0  0  0  0  0  0  0  0  0  0
  130.4330  127.4640   69.4230 C   0  0  0  0  0  0  0  0  0  0  0  0
  129.6900  126.5930   68.6260 C   0  0  0  0  0  0  0  0  0  0  0  0
  130.2520  126.2800   67.3740 N   0  0  0  0  0  0  0  0  0  0  0  0
  131.2030  126.9260   66.6570 C   0  0  0  0  0  0  0  0  0  0  0  0
  131.7270  127.9860   67.0000 O   0  0  0  0  0  0  0  0  0  0  0  0
  131.5730  126.2880   65.3920 C   0  0  0  0  0  0  0  0  0  0  0  0
  132.9270  125.1570   65.3280 S   0  0  0  0  0  0  0  0  0  0  0  0
  132.7200  124.9350   63.6060 C   0  0  0  0  0  0  0  0  0  0  0  0
  133.5080  124.1220   62.8990 N   0  0  0  0  0  0  0  0  0  0  0  0
  133.2430  124.0430   61.5720 C   0  0  0  0  0  0  0  0  0  0  0  0
  134.1540  123.1170   60.7860 C   0  0  0  0  0  0  0  0  0  0  0  0
  132.2190  124.7460   60.9430 C   0  0  0  0  0  0  0  0  0  0  0  0
  131.3940  125.5970   61.6870 C   0  0  0  0  0  0  0  0  0  0  0  0
  130.2880  126.3430   60.9550 C   0  0  0  0  0  0  0  0  0  0  0  0
  131.6420  125.7090   63.0810 C   0  0  0  0  0  0  0  0  0  0  0  0
  131.0080  126.4760   64.1210 C   0  0  0  0  0  0  0  0  0  0  0  0
  129.9450  127.3070   63.8720 N   0  0  0  0  0  0  0  0  0  0  0  0
  128.4570  126.1150   69.0940 C   0  0  0  0  0  0  0  0  0  0  0  0
  127.9880  126.5010   70.3480 C   0  0  0  0  0  0  0  0  0  0  0  0
  124.3718  127.6162   74.7784 H   0  0  0  0  0  0  0  0  0  0  0  0
  124.2170  128.5040   73.2246 H   0  0  0  0  0  0  0  0  0  0  0  0
  124.6700  126.7657   73.2246 H   0  0  0  0  0  0  0  0  0  0  0  0
  126.3507  129.2024   73.8020 H   0  0  0  0  0  0  0  0  0  0  0  0
  126.6876  127.7284   74.7708 H   0  0  0  0  0  0  0  0  0  0  0  0
  130.5648  128.5274   71.2993 H   0  0  0  0  0  0  0  0  0  0  0  0
  131.3953  127.8519   69.0577 H   0  0  0  0  0  0  0  0  0  0  0  0
  129.8690  125.4480   66.9460 H   0  0  0  0  0  0  0  0  0  0  0  0
  134.7505  122.5106   61.4835 H   0  0  0  0  0  0  0  0  0  0  0  0
  133.5455  122.4549   60.1525 H   0  0  0  0  0  0  0  0  0  0  0  0
  134.8260  123.7146   60.1525 H   0  0  0  0  0  0  0  0  0  0  0  0
  132.0584  124.6324   59.8607 H   0  0  0  0  0  0  0  0  0  0  0  0
  129.6079  126.8017   61.6878 H   0  0  0  0  0  0  0  0  0  0  0  0
  130.7305  127.1279   60.3240 H   0  0  0  0  0  0  0  0  0  0  0  0
  129.7261  125.6387   60.3240 H   0  0  0  0  0  0  0  0  0  0  0  0
  129.0210  127.1120   64.2290 H   0  0  0  0  0  0  0  0  0  0  0  0
  130.0510  128.1450   63.3170 H   0  0  0  0  0  0  0  0  0  0  0  0
  127.8594  125.4343   68.4699 H   0  0  0  0  0  0  0  0  0  0  0  0
  127.0208  126.1206   70.7082 H   0  0  0  0  0  0  0  0  0  0  0  0
  1  2  1  0
  2  3  1  0
  3  4  1  0
  4  5  2  0
  4  6  1  0
  6  7  2  0
  7  8  1  0
  8  9  2  0
  9 10  1  0
 10 11  1  0
 11 12  2  0
 11 13  1  0
 13 14  1  0
 14 15  1  0
 15 16  2  0
 16 17  1  0
 17 18  1  0
 17 19  2  0
 19 20  1  0
 20 21  1  0
 20 22  2  0
 22 23  1  0
 23 24  1  0
  9 25  1  0
 25 26  2  0
 26  6  1  0
 23 13  2  0
 22 15  1  0
  1 27  1  0
  1 28  1  0
  1 29  1  0
  2 30  1  0
  2 31  1  0
  7 32  1  0
  8 33  1  0
 10 34  1  0
 18 35  1  0
 18 36  1  0
 18 37  1  0
 19 38  1  0
 21 39  1  0
 21 40  1  0
 21 41  1  0
 24 42  1  0
 24 43  1  0
 25 44  1  0
 26 45  1  0
M  END
>  <Binding energies>  (1) 
[-7.22]

>  <Ligand effiencies>  (1) 
[-0.2489655172413793]

>  <Interactions>  (1) 
["H-A:GLU:543:OE1:4906, V-A:ARG:545:CZ:4923, V-A:ILE:369:CB:3232, H-A:GLU:543:OE2:4907, H-A:GLY:454:N:4046, V-A:ILE:369:CG1:3234, V-A:ILE:369:CG2:3233, V-A:HIS:456:CE1:4066, V-A:GLU:543:CD:4905, V-B:GLU:543:C:9871, V-B:GLU:543:CB:9875, V-B:HIS:456:CE1:9038, V-B:GLY:544:C:9881, V-A:HIS:456:CD2:4064, V-B:HIS:456:CD2:9036, V-A:ASP:366:CG:3209, H-A:ARG:545:NE:4921, H-A:TYR:484:OH:4344, H-B:GLU:543:OE1:9878, V-B:LYS:547:CE:9919, H-A:HIS:456:NE2:4067, V-B:HIS:456:CG:9034, V-B:HIS:456:C:9029, V-B:HIS:456:CB:9033, V-B:HIS:456:CA:9031, V-B:LYS:547:CD:9918, H-A:LYS:547:NZ:4948"]

$$$$
4ab_Grossjean_2025
     RDKit          3D

 42 44  0  0  0  0  0  0  0  0999 V2000
  128.9950  129.8450   73.0810 C   0  0  0  0  0  0  0  0  0  0  0  0
  129.0020  128.4250   73.0640 O   0  0  0  0  0  0  0  0  0  0  0  0
  128.0900  127.7300   72.3370 C   0  0  0  0  0  0  0  0  0  0  0  0
  126.9500  127.4750   72.7390 O   0  0  0  0  0  0  0  0  0  0  0  0
  128.6080  127.2950   70.9970 C   0  0  0  0  0  0  0  0  0  0  0  0
  129.8160  127.8270   70.5260 C   0  0  0  0  0  0  0  0  0  0  0  0
  130.3210  127.4450   69.2860 C   0  0  0  0  0  0  0  0  0  0  0  0
  129.6370  126.5200   68.4970 C   0  0  0  0  0  0  0  0  0  0  0  0
  130.2350  126.2120   67.2600 N   0  0  0  0  0  0  0  0  0  0  0  0
  131.2190  126.8520   66.5820 C   0  0  0  0  0  0  0  0  0  0  0  0
  131.7510  127.8980   66.9560 O   0  0  0  0  0  0  0  0  0  0  0  0
  131.6180  126.2240   65.3210 C   0  0  0  0  0  0  0  0  0  0  0  0
  132.9830  125.1050   65.2770 S   0  0  0  0  0  0  0  0  0  0  0  0
  132.8090  124.8870   63.5500 C   0  0  0  0  0  0  0  0  0  0  0  0
  133.6180  124.0870   62.8540 N   0  0  0  0  0  0  0  0  0  0  0  0
  133.3770  124.0090   61.5230 C   0  0  0  0  0  0  0  0  0  0  0  0
  134.3110  123.0970   60.7490 C   0  0  0  0  0  0  0  0  0  0  0  0
  132.3560  124.7030   60.8780 C   0  0  0  0  0  0  0  0  0  0  0  0
  131.5100  125.5430   61.6110 C   0  0  0  0  0  0  0  0  0  0  0  0
  130.4100  126.2810   60.8610 C   0  0  0  0  0  0  0  0  0  0  0  0
  131.7330  125.6540   63.0100 C   0  0  0  0  0  0  0  0  0  0  0  0
  131.0750  126.4110   64.0410 C   0  0  0  0  0  0  0  0  0  0  0  0
  130.0100  127.2350   63.7760 N   0  0  0  0  0  0  0  0  0  0  0  0
  128.4250  125.9860   68.9580 C   0  0  0  0  0  0  0  0  0  0  0  0
  127.9190  126.3710   70.1970 C   0  0  0  0  0  0  0  0  0  0  0  0
  128.9933  130.1992   74.1224 H   0  0  0  0  0  0  0  0  0  0  0  0
  129.8913  130.2223   72.5669 H   0  0  0  0  0  0  0  0  0  0  0  0
  128.0950  130.2134   72.5669 H   0  0  0  0  0  0  0  0  0  0  0  0
  130.3695  128.5520   71.1408 H   0  0  0  0  0  0  0  0  0  0  0  0
  131.2667  127.8760   68.9257 H   0  0  0  0  0  0  0  0  0  0  0  0
  129.8540  125.3930   66.8120 H   0  0  0  0  0  0  0  0  0  0  0  0
  134.9151  122.5071   61.4541 H   0  0  0  0  0  0  0  0  0  0  0  0
  133.7200  122.4188   60.1160 H   0  0  0  0  0  0  0  0  0  0  0  0
  134.9749  123.7040   60.1160 H   0  0  0  0  0  0  0  0  0  0  0  0
  132.2147  124.5909   59.7929 H   0  0  0  0  0  0  0  0  0  0  0  0
  129.7207  126.7434   61.5828 H   0  0  0  0  0  0  0  0  0  0  0  0
  130.8576  127.0623   60.2291 H   0  0  0  0  0  0  0  0  0  0  0  0
  129.8568  125.5706   60.2291 H   0  0  0  0  0  0  0  0  0  0  0  0
  129.0650  126.9790   64.0200 H   0  0  0  0  0  0  0  0  0  0  0  0
  130.1390  128.1280   63.3200 H   0  0  0  0  0  0  0  0  0  0  0  0
  127.8733  125.2621   68.3402 H   0  0  0  0  0  0  0  0  0  0  0  0
  126.9687  125.9460   70.5524 H   0  0  0  0  0  0  0  0  0  0  0  0
  1  2  1  0
  2  3  1  0
  3  4  2  0
  3  5  1  0
  5  6  2  0
  6  7  1  0
  7  8  2  0
  8  9  1  0
  9 10  1  0
 10 11  2  0
 10 12  1  0
 12 13  1  0
 13 14  1  0
 14 15  2  0
 15 16  1  0
 16 17  1  0
 16 18  2  0
 18 19  1  0
 19 20  1  0
 19 21  2  0
 21 22  1  0
 22 23  1  0
  8 24  1  0
 24 25  2  0
 25  5  1  0
 22 12  2  0
 21 14  1  0
  1 26  1  0
  1 27  1  0
  1 28  1  0
  6 29  1  0
  7 30  1  0
  9 31  1  0
 17 32  1  0
 17 33  1  0
 17 34  1  0
 18 35  1  0
 20 36  1  0
 20 37  1  0
 20 38  1  0
 23 39  1  0
 23 40  1  0
 24 41  1  0
 25 42  1  0
M  END
>  <Binding energies>  (1) 
[-7.01]

>  <Ligand effiencies>  (1) 
[-0.25035714285714283]

>  <Interactions>  (1) 
["H-A:GLU:543:OE1:4906, V-A:ARG:545:CZ:4923, V-A:ILE:369:CB:3232, H-A:GLU:543:OE2:4907, H-A:GLY:454:N:4046, V-A:ILE:369:CG1:3234, V-A:ILE:369:CG2:3233, V-A:HIS:456:CE1:4066, V-A:GLU:543:CD:4905, V-B:GLU:543:C:9871, V-B:GLU:543:CB:9875, V-B:HIS:456:CE1:9038, V-B:GLY:544:C:9881, V-A:HIS:456:CD2:4064, V-B:HIS:456:CD2:9036, V-A:ASP:366:CG:3209, H-A:ARG:545:NE:4921, H-A:TYR:484:OH:4344, H-B:GLU:543:OE1:9878, H-A:HIS:456:NE2:4067, V-B:HIS:456:CG:9034, V-A:LYS:547:CE:4947, H-A:LYS:547:NZ:4948"]

$$$$
4ac_Grossjean_2025
     RDKit          3D

 40 42  0  0  0  0  0  0  0  0999 V2000
  128.0560  127.7350   73.1130 C   0  0  0  0  0  0  0  0  0  0  0  0
  127.4120  127.2950   71.9220 O   0  0  0  0  0  0  0  0  0  0  0  0
  128.1650  127.1010   70.7810 C   0  0  0  0  0  0  0  0  0  0  0  0
  127.6270  126.2470   69.8180 C   0  0  0  0  0  0  0  0  0  0  0  0
  128.3140  125.9910   68.6340 C   0  0  0  0  0  0  0  0  0  0  0  0
  129.5480  126.5950   68.3940 C   0  0  0  0  0  0  0  0  0  0  0  0
  130.1740  126.2670   67.1770 N   0  0  0  0  0  0  0  0  0  0  0  0
  131.2430  126.8460   66.5790 C   0  0  0  0  0  0  0  0  0  0  0  0
  131.8370  127.8280   67.0300 O   0  0  0  0  0  0  0  0  0  0  0  0
  131.6690  126.2300   65.3200 C   0  0  0  0  0  0  0  0  0  0  0  0
  133.0420  125.1220   65.2880 S   0  0  0  0  0  0  0  0  0  0  0  0
  132.8730  124.8880   63.5630 C   0  0  0  0  0  0  0  0  0  0  0  0
  133.6880  124.0860   62.8760 N   0  0  0  0  0  0  0  0  0  0  0  0
  133.4500  123.9930   61.5460 C   0  0  0  0  0  0  0  0  0  0  0  0
  134.3880  123.0760   60.7830 C   0  0  0  0  0  0  0  0  0  0  0  0
  132.4270  124.6780   60.8920 C   0  0  0  0  0  0  0  0  0  0  0  0
  131.5740  125.5190   61.6150 C   0  0  0  0  0  0  0  0  0  0  0  0
  130.4730  126.2440   60.8570 C   0  0  0  0  0  0  0  0  0  0  0  0
  131.7920  125.6400   63.0140 C   0  0  0  0  0  0  0  0  0  0  0  0
  131.1210  126.3950   64.0380 C   0  0  0  0  0  0  0  0  0  0  0  0
  130.0430  127.2000   63.7660 N   0  0  0  0  0  0  0  0  0  0  0  0
  130.1030  127.4450   69.3620 C   0  0  0  0  0  0  0  0  0  0  0  0
  129.4130  127.6980   70.5450 C   0  0  0  0  0  0  0  0  0  0  0  0
  127.5055  127.3589   73.9879 H   0  0  0  0  0  0  0  0  0  0  0  0
  129.0867  127.3515   73.1357 H   0  0  0  0  0  0  0  0  0  0  0  0
  128.0734  128.8346   73.1357 H   0  0  0  0  0  0  0  0  0  0  0  0
  126.6511  125.7714   69.9955 H   0  0  0  0  0  0  0  0  0  0  0  0
  127.8820  125.3102   67.8857 H   0  0  0  0  0  0  0  0  0  0  0  0
  129.7360  125.5100   66.6710 H   0  0  0  0  0  0  0  0  0  0  0  0
  134.9875  122.4899   61.4951 H   0  0  0  0  0  0  0  0  0  0  0  0
  133.8004  122.3945   60.1504 H   0  0  0  0  0  0  0  0  0  0  0  0
  135.0561  123.6789   60.1504 H   0  0  0  0  0  0  0  0  0  0  0  0
  132.2904  124.5573   59.8072 H   0  0  0  0  0  0  0  0  0  0  0  0
  129.7758  126.7031   61.5733 H   0  0  0  0  0  0  0  0  0  0  0  0
  130.9173  127.0268   60.2247 H   0  0  0  0  0  0  0  0  0  0  0  0
  129.9295  125.5265   60.2247 H   0  0  0  0  0  0  0  0  0  0  0  0
  129.0970  126.9070   63.9570 H   0  0  0  0  0  0  0  0  0  0  0  0
  130.1640  128.1190   63.3640 H   0  0  0  0  0  0  0  0  0  0  0  0
  131.0835  127.9119   69.1867 H   0  0  0  0  0  0  0  0  0  0  0  0
  129.8489  128.3699   71.2990 H   0  0  0  0  0  0  0  0  0  0  0  0
  1  2  1  0
  2  3  1  0
  3  4  2  0
  4  5  1  0
  5  6  2  0
  6  7  1  0
  7  8  1  0
  8  9  2  0
  8 10  1  0
 10 11  1  0
 11 12  1  0
 12 13  2  0
 13 14  1  0
 14 15  1  0
 14 16  2  0
 16 17  1  0
 17 18  1  0
 17 19  2  0
 19 20  1  0
 20 21  1  0
  6 22  1  0
 22 23  2  0
 23  3  1  0
 20 10  2  0
 19 12  1  0
  1 24  1  0
  1 25  1  0
  1 26  1  0
  4 27  1  0
  5 28  1  0
  7 29  1  0
 15 30  1  0
 15 31  1  0
 15 32  1  0
 16 33  1  0
 18 34  1  0
 18 35  1  0
 18 36  1  0
 21 37  1  0
 21 38  1  0
 22 39  1  0
 23 40  1  0
M  END
>  <Binding energies>  (1) 
[-6.29]

>  <Ligand effiencies>  (1) 
[-0.24192307692307694]

>  <Interactions>  (1) 
["H-A:GLU:543:OE1:4906, V-A:ARG:545:CZ:4923, V-A:ILE:369:CB:3232, H-A:GLU:543:OE2:4907, H-A:GLY:454:N:4046, V-A:ILE:369:CG1:3234, V-A:ILE:369:CG2:3233, V-A:HIS:456:CE1:4066, V-A:GLU:543:CD:4905, V-B:GLU:543:C:9871, V-B:GLU:543:CB:9875, V-B:HIS:456:CE1:9038, V-B:GLY:544:C:9881, V-B:HIS:456:CD2:9036, V-A:ASP:366:CG:3209, H-A:ARG:545:NE:4921, H-B:GLU:543:OE1:9878, V-B:LYS:547:CE:9919"]

$$$$
4ad_Grossjean_2025
     RDKit          3D

 36 38  0  0  0  0  0  0  0  0999 V2000
  134.4020  123.0780   60.8060 C   0  0  0  0  0  0  0  0  0  0  0  0
  133.4550  123.9920   61.5590 C   0  0  0  0  0  0  0  0  0  0  0  0
  132.4300  124.6660   60.8980 C   0  0  0  0  0  0  0  0  0  0  0  0
  131.5690  125.5070   61.6130 C   0  0  0  0  0  0  0  0  0  0  0  0
  130.4670  126.2230   60.8470 C   0  0  0  0  0  0  0  0  0  0  0  0
  131.7820  125.6390   63.0120 C   0  0  0  0  0  0  0  0  0  0  0  0
  131.1050  126.3980   64.0290 C   0  0  0  0  0  0  0  0  0  0  0  0
  130.0220  127.1920   63.7480 N   0  0  0  0  0  0  0  0  0  0  0  0
  131.6520  126.2470   65.3130 C   0  0  0  0  0  0  0  0  0  0  0  0
  131.2270  126.8780   66.5640 C   0  0  0  0  0  0  0  0  0  0  0  0
  131.8230  127.8640   67.0040 O   0  0  0  0  0  0  0  0  0  0  0  0
  130.1540  126.3090   67.1670 N   0  0  0  0  0  0  0  0  0  0  0  0
  129.5300  126.6420   68.3850 C   0  0  0  0  0  0  0  0  0  0  0  0
  128.3220  125.9910   68.6510 C   0  0  0  0  0  0  0  0  0  0  0  0
  127.6340  126.2450   69.8340 C   0  0  0  0  0  0  0  0  0  0  0  0
  128.1580  127.1450   70.7570 C   0  0  0  0  0  0  0  0  0  0  0  0
  129.3670  127.7900   70.5110 C   0  0  0  0  0  0  0  0  0  0  0  0
  130.0570  127.5390   69.3280 C   0  0  0  0  0  0  0  0  0  0  0  0
  133.0300  125.1450   65.2920 S   0  0  0  0  0  0  0  0  0  0  0  0
  132.8670  124.8970   63.5690 C   0  0  0  0  0  0  0  0  0  0  0  0
  133.6880  124.0940   62.8900 N   0  0  0  0  0  0  0  0  0  0  0  0
  135.0016  122.4993   61.5241 H   0  0  0  0  0  0  0  0  0  0  0  0
  133.8220  122.3896   60.1738 H   0  0  0  0  0  0  0  0  0  0  0  0
  135.0694  123.6821   60.1738 H   0  0  0  0  0  0  0  0  0  0  0  0
  132.2973  124.5371   59.8137 H   0  0  0  0  0  0  0  0  0  0  0  0
  129.7634  126.6801   61.5584 H   0  0  0  0  0  0  0  0  0  0  0  0
  130.9097  127.0065   60.2144 H   0  0  0  0  0  0  0  0  0  0  0  0
  129.9310  125.5002   60.2144 H   0  0  0  0  0  0  0  0  0  0  0  0
  129.0760  126.8930   63.9360 H   0  0  0  0  0  0  0  0  0  0  0  0
  130.1360  128.1140   63.3470 H   0  0  0  0  0  0  0  0  0  0  0  0
  129.7200  125.5450   66.6710 H   0  0  0  0  0  0  0  0  0  0  0  0
  127.9135  125.2751   67.9225 H   0  0  0  0  0  0  0  0  0  0  0  0
  126.6802  125.7365   70.0384 H   0  0  0  0  0  0  0  0  0  0  0  0
  127.6118  127.3487   71.6898 H   0  0  0  0  0  0  0  0  0  0  0  0
  129.7759  128.4958   71.2490 H   0  0  0  0  0  0  0  0  0  0  0  0
  131.0148  128.0433   69.1322 H   0  0  0  0  0  0  0  0  0  0  0  0
  1  2  1  0
  2  3  2  0
  3  4  1  0
  4  5  1  0
  4  6  2  0
  6  7  1  0
  7  8  1  0
  7  9  2  0
  9 10  1  0
 10 11  2  0
 10 12  1  0
 12 13  1  0
 13 14  2  0
 14 15  1  0
 15 16  2  0
 16 17  1  0
 17 18  2  0
  9 19  1  0
 19 20  1  0
 20 21  2  0
 21  2  1  0
 20  6  1  0
 18 13  1  0
  1 22  1  0
  1 23  1  0
  1 24  1  0
  3 25  1  0
  5 26  1  0
  5 27  1  0
  5 28  1  0
  8 29  1  0
  8 30  1  0
 12 31  1  0
 14 32  1  0
 15 33  1  0
 16 34  1  0
 17 35  1  0
 18 36  1  0
M  END
>  <Binding energies>  (1) 
[-6.5]

>  <Ligand effiencies>  (1) 
[-0.2708333333333333]

>  <Interactions>  (1) 
["H-A:GLU:543:OE1:4906, V-A:ARG:545:CZ:4923, V-A:ILE:369:CB:3232, H-A:GLU:543:OE2:4907, H-A:GLY:454:N:4046, V-A:ILE:369:CG1:3234, V-A:ILE:369:CG2:3233, V-A:HIS:456:CE1:4066, V-A:GLU:543:CD:4905, V-B:GLU:543:C:9871, V-B:GLU:543:CB:9875, V-B:HIS:456:CE1:9038, V-B:GLY:544:C:9881, V-B:HIS:456:CD2:9036, V-A:ASP:366:CG:3209, H-A:ARG:545:NE:4921, H-B:GLU:543:OE1:9878, H-B:GLU:543:OE2:9879"]

$$$$
4ae_Grossjean_2025
     RDKit          3D

 38 40  0  0  0  0  0  0  0  0999 V2000
  127.2940  126.2500   69.2670 C   0  0  0  0  0  0  0  0  0  0  0  0
  128.1060  126.5780   68.0300 C   0  0  0  0  0  0  0  0  0  0  0  0
  129.3020  125.9140   67.7420 C   0  0  0  0  0  0  0  0  0  0  0  0
  130.0000  126.2740   66.5890 C   0  0  0  0  0  0  0  0  0  0  0  0
  129.4930  127.2780   65.7610 C   0  0  0  0  0  0  0  0  0  0  0  0
  128.2860  127.8970   66.1040 C   0  0  0  0  0  0  0  0  0  0  0  0
  127.8380  128.9140   65.2430 N   0  0  0  0  0  0  0  0  0  0  0  0
  126.5930  129.4410   65.1290 C   0  0  0  0  0  0  0  0  0  0  0  0
  125.6280  129.0730   65.8010 O   0  0  0  0  0  0  0  0  0  0  0  0
  126.4510  130.5030   64.1300 C   0  0  0  0  0  0  0  0  0  0  0  0
  127.5020  131.9190   64.1780 S   0  0  0  0  0  0  0  0  0  0  0  0
  126.6980  132.6230   62.7950 C   0  0  0  0  0  0  0  0  0  0  0  0
  127.0600  133.8050   62.2950 N   0  0  0  0  0  0  0  0  0  0  0  0
  126.3530  134.2400   61.2250 C   0  0  0  0  0  0  0  0  0  0  0  0
  126.7760  135.5910   60.6770 C   0  0  0  0  0  0  0  0  0  0  0  0
  125.3040  133.5270   60.6470 C   0  0  0  0  0  0  0  0  0  0  0  0
  124.9280  132.2860   61.1730 C   0  0  0  0  0  0  0  0  0  0  0  0
  123.7750  131.5480   60.5100 C   0  0  0  0  0  0  0  0  0  0  0  0
  125.6460  131.7970   62.2980 C   0  0  0  0  0  0  0  0  0  0  0  0
  125.5270  130.5930   63.0760 C   0  0  0  0  0  0  0  0  0  0  0  0
  124.5880  129.6310   62.7990 N   0  0  0  0  0  0  0  0  0  0  0  0
  127.6010  127.5550   67.2340 N   0  0  0  0  0  0  0  0  0  0  0  0
  127.8824  126.4877   70.1655 H   0  0  0  0  0  0  0  0  0  0  0  0
  126.3688  126.8449   69.2666 H   0  0  0  0  0  0  0  0  0  0  0  0
  127.0415  125.1794   69.2666 H   0  0  0  0  0  0  0  0  0  0  0  0
  129.6836  125.1265   68.4085 H   0  0  0  0  0  0  0  0  0  0  0  0
  130.9439  125.7702   66.3336 H   0  0  0  0  0  0  0  0  0  0  0  0
  130.0350  127.5779   64.8520 H   0  0  0  0  0  0  0  0  0  0  0  0
  128.5320  129.2540   64.5940 H   0  0  0  0  0  0  0  0  0  0  0  0
  126.9900  136.2746   61.5118 H   0  0  0  0  0  0  0  0  0  0  0  0
  127.6794  135.4703   60.0611 H   0  0  0  0  0  0  0  0  0  0  0  0
  125.9651  136.0070   60.0611 H   0  0  0  0  0  0  0  0  0  0  0  0
  124.7717  133.9399   59.7774 H   0  0  0  0  0  0  0  0  0  0  0  0
  123.1163  131.1264   61.2836 H   0  0  0  0  0  0  0  0  0  0  0  0
  123.2032  132.2484   59.8835 H   0  0  0  0  0  0  0  0  0  0  0  0
  124.1716  130.7355   59.8835 H   0  0  0  0  0  0  0  0  0  0  0  0
  123.5980  129.8080   62.8950 H   0  0  0  0  0  0  0  0  0  0  0  0
  124.8590  128.7080   62.4880 H   0  0  0  0  0  0  0  0  0  0  0  0
  1  2  1  0
  2  3  2  0
  3  4  1  0
  4  5  2  0
  5  6  1  0
  6  7  1  0
  7  8  1  0
  8  9  2  0
  8 10  1  0
 10 11  1  0
 11 12  1  0
 12 13  2  0
 13 14  1  0
 14 15  1  0
 14 16  2  0
 16 17  1  0
 17 18  1  0
 17 19  2  0
 19 20  1  0
 20 21  1  0
  6 22  2  0
 22  2  1  0
 20 10  2  0
 19 12  1  0
  1 23  1  0
  1 24  1  0
  1 25  1  0
  3 26  1  0
  4 27  1  0
  5 28  1  0
  7 29  1  0
 15 30  1  0
 15 31  1  0
 15 32  1  0
 16 33  1  0
 18 34  1  0
 18 35  1  0
 18 36  1  0
 21 37  1  0
 21 38  1  0
M  END
>  <Binding energies>  (1) 
[-6.77]

>  <Ligand effiencies>  (1) 
[-0.2708]

>  <Interactions>  (1) 
["V-B:GLU:543:CD:9877, H-A:GLU:543:OE1:4906, H-A:GLU:543:OE2:4907, V-A:HIS:456:CE1:4066, V-A:GLU:543:CD:4905, V-A:GLU:543:CG:4904, V-B:GLU:543:C:9871, V-B:GLU:543:CB:9875, V-B:HIS:456:CE1:9038, V-B:GLY:544:C:9881, V-B:ILE:369:CD1:8207, V-B:ILE:369:CG2:8205, V-B:ARG:545:CZ:9895, V-B:TRP:381:CH2:8340, V-A:ALA:541:CB:4889, H-B:TYR:484:OH:9316, V-A:TYR:539:CD2:4871, V-B:LEU:475:CD2:9227, V-B:ASP:366:CB:8180, V-B:ASP:366:CG:8181, H-B:ASP:366:OD1:8182, H-B:ASP:366:OD2:8183, V-B:TRP:381:CZ2:8338, H-B:ARG:545:NE:9893, V-B:ILE:369:CB:8204"]

$$$$
4af_Grossjean_2025
     RDKit          3D

 35 37  0  0  0  0  0  0  0  0999 V2000
  133.2330  125.2940   65.4760 C   0  0  0  0  0  0  0  0  0  0  0  0
  132.6660  124.9260   64.1170 C   0  0  0  0  0  0  0  0  0  0  0  0
  133.5020  124.5420   63.0710 C   0  0  0  0  0  0  0  0  0  0  0  0
  132.9570  124.2100   61.8250 C   0  0  0  0  0  0  0  0  0  0  0  0
  133.9100  123.7990   60.7140 C   0  0  0  0  0  0  0  0  0  0  0  0
  131.5450  124.2820   61.6780 C   0  0  0  0  0  0  0  0  0  0  0  0
  130.6710  124.0200   60.5660 C   0  0  0  0  0  0  0  0  0  0  0  0
  131.1440  123.6120   59.3440 N   0  0  0  0  0  0  0  0  0  0  0  0
  129.3110  124.2180   60.8500 C   0  0  0  0  0  0  0  0  0  0  0  0
  128.1620  124.0750   59.9530 C   0  0  0  0  0  0  0  0  0  0  0  0
  128.2910  123.5460   58.8490 O   0  0  0  0  0  0  0  0  0  0  0  0
  126.9870  124.5450   60.4380 N   0  0  0  0  0  0  0  0  0  0  0  0
  125.7230  124.6030   59.8200 C   0  0  0  0  0  0  0  0  0  0  0  0
  124.5730  123.9160   60.2500 C   0  0  0  0  0  0  0  0  0  0  0  0
  123.3820  124.0480   59.5330 C   0  0  0  0  0  0  0  0  0  0  0  0
  123.3690  124.8610   58.3990 C   0  0  0  0  0  0  0  0  0  0  0  0
  124.4670  125.5280   57.9600 N   0  0  0  0  0  0  0  0  0  0  0  0
  125.6170  125.3900   58.6660 C   0  0  0  0  0  0  0  0  0  0  0  0
  129.0790  124.7430   62.5200 S   0  0  0  0  0  0  0  0  0  0  0  0
  130.8000  124.6890   62.8250 C   0  0  0  0  0  0  0  0  0  0  0  0
  131.3160  125.0050   64.0140 N   0  0  0  0  0  0  0  0  0  0  0  0
  132.5911  124.8774   66.2662 H   0  0  0  0  0  0  0  0  0  0  0  0
  134.2484  124.8823   65.5734 H   0  0  0  0  0  0  0  0  0  0  0  0
  133.2705  126.3890   65.5734 H   0  0  0  0  0  0  0  0  0  0  0  0
  134.5905  124.4996   63.2241 H   0  0  0  0  0  0  0  0  0  0  0  0
  134.8357  123.3998   61.1540 H   0  0  0  0  0  0  0  0  0  0  0  0
  133.4362  123.0252   60.0921 H   0  0  0  0  0  0  0  0  0  0  0  0
  134.1476  124.6747   60.0921 H   0  0  0  0  0  0  0  0  0  0  0  0
  130.5250  123.3070   58.6060 H   0  0  0  0  0  0  0  0  0  0  0  0
  132.1340  123.6070   59.1400 H   0  0  0  0  0  0  0  0  0  0  0  0
  127.0060  124.9040   61.3810 H   0  0  0  0  0  0  0  0  0  0  0  0
  124.6118  123.2787   61.1457 H   0  0  0  0  0  0  0  0  0  0  0  0
  122.4718  123.5214   59.8558 H   0  0  0  0  0  0  0  0  0  0  0  0
  122.4293  124.9659   57.8369 H   0  0  0  0  0  0  0  0  0  0  0  0
  126.5124  125.9235   58.3143 H   0  0  0  0  0  0  0  0  0  0  0  0
  1  2  1  0
  2  3  2  0
  3  4  1  0
  4  5  1  0
  4  6  2  0
  6  7  1  0
  7  8  1  0
  7  9  2  0
  9 10  1  0
 10 11  2  0
 10 12  1  0
 12 13  1  0
 13 14  2  0
 14 15  1  0
 15 16  2  0
 16 17  1  0
 17 18  2  0
  9 19  1  0
 19 20  1  0
 20 21  2  0
 21  2  1  0
 20  6  1  0
 18 13  1  0
  1 22  1  0
  1 23  1  0
  1 24  1  0
  3 25  1  0
  5 26  1  0
  5 27  1  0
  5 28  1  0
  8 29  1  0
  8 30  1  0
 12 31  1  0
 14 32  1  0
 15 33  1  0
 16 34  1  0
 18 35  1  0
M  END
>  <Binding energies>  (1) 
[-6.46]

>  <Ligand effiencies>  (1) 
[-0.26916666666666667]

>  <Interactions>  (1) 
["V-B:GLU:543:CD:9877, V-A:ARG:545:CZ:4923, V-A:GLY:454:CA:4045, V-B:TYR:539:CE2:9845, V-A:HIS:456:CE1:4066, V-B:GLU:543:CG:9876, V-B:TYR:539:CZ:9846, V-B:ASP:366:CB:8180, V-A:ASP:366:CG:3209, V-A:ASP:366:CB:3208, V-A:ARG:545:CD:4920, V-B:LEU:363:CD1:8157, V-B:PRO:540:CB:9854, V-B:LEU:363:CA:8153, V-B:PRO:540:CA:9852, V-B:LEU:363:CB:8155, V-B:ASN:362:C:8140, H-B:TYR:531:OH:9764, V-A:ASP:366:CA:3206, H-B:TYR:539:OH:9847, H-B:GLU:543:OE2:9879"]

$$$$
4ag_Grossjean_2025
     RDKit          3D

 39 41  0  0  0  0  0  0  0  0999 V2000
  129.0300  126.0180   65.3550 C   0  0  0  0  0  0  0  0  0  0  0  0
  129.3170  126.5310   66.7540 C   0  0  0  0  0  0  0  0  0  0  0  0
  130.4790  127.2490   67.0300 C   0  0  0  0  0  0  0  0  0  0  0  0
  130.7230  127.7140   68.3270 C   0  0  0  0  0  0  0  0  0  0  0  0
  132.0050  128.4940   68.5780 C   0  0  0  0  0  0  0  0  0  0  0  0
  129.7560  127.4280   69.3270 C   0  0  0  0  0  0  0  0  0  0  0  0
  129.6870  127.7450   70.7280 C   0  0  0  0  0  0  0  0  0  0  0  0
  130.6700  128.4580   71.3680 N   0  0  0  0  0  0  0  0  0  0  0  0
  128.5370  127.2600   71.3650 C   0  0  0  0  0  0  0  0  0  0  0  0
  128.1430  127.4070   72.7670 C   0  0  0  0  0  0  0  0  0  0  0  0
  128.9810  127.5890   73.6530 O   0  0  0  0  0  0  0  0  0  0  0  0
  126.8220  127.3130   73.0260 N   0  0  0  0  0  0  0  0  0  0  0  0
  126.2050  127.4550   74.3440 C   0  0  0  0  0  0  0  0  0  0  0  0
  125.7530  128.8740   74.6670 C   0  0  0  0  0  0  0  0  0  0  0  0
  124.5090  129.0880   75.2660 C   0  0  0  0  0  0  0  0  0  0  0  0
  124.1040  130.3820   75.5850 C   0  0  0  0  0  0  0  0  0  0  0  0
  124.9500  131.4560   75.3140 C   0  0  0  0  0  0  0  0  0  0  0  0
  126.1970  131.2480   74.7320 C   0  0  0  0  0  0  0  0  0  0  0  0
  126.6030  129.9550   74.4130 C   0  0  0  0  0  0  0  0  0  0  0  0
  127.4930  126.3990   70.2340 S   0  0  0  0  0  0  0  0  0  0  0  0
  128.6080  126.6850   68.9170 C   0  0  0  0  0  0  0  0  0  0  0  0
  128.3720  126.2410   67.6810 N   0  0  0  0  0  0  0  0  0  0  0  0
  128.4938  125.0596   65.4187 H   0  0  0  0  0  0  0  0  0  0  0  0
  128.4102  126.7498   64.8161 H   0  0  0  0  0  0  0  0  0  0  0  0
  129.9779  125.8727   64.8161 H   0  0  0  0  0  0  0  0  0  0  0  0
  131.2046  127.4503   66.2281 H   0  0  0  0  0  0  0  0  0  0  0  0
  132.1678  128.5930   69.6614 H   0  0  0  0  0  0  0  0  0  0  0  0
  132.8539  127.9592   68.1270 H   0  0  0  0  0  0  0  0  0  0  0  0
  131.9202  129.4937   68.1270 H   0  0  0  0  0  0  0  0  0  0  0  0
  130.6190  129.4610   71.4720 H   0  0  0  0  0  0  0  0  0  0  0  0
  131.4800  127.9990   71.7620 H   0  0  0  0  0  0  0  0  0  0  0  0
  126.1880  127.2210   72.2460 H   0  0  0  0  0  0  0  0  0  0  0  0
  125.3270  126.7938   74.3880 H   0  0  0  0  0  0  0  0  0  0  0  0
  126.9730  127.1891   75.0853 H   0  0  0  0  0  0  0  0  0  0  0  0
  123.8499  128.2352   75.4855 H   0  0  0  0  0  0  0  0  0  0  0  0
  123.1216  130.5554   76.0484 H   0  0  0  0  0  0  0  0  0  0  0  0
  124.6289  132.4783   75.5626 H   0  0  0  0  0  0  0  0  0  0  0  0
  126.8591  132.1017   74.5249 H   0  0  0  0  0  0  0  0  0  0  0  0
  127.5914  129.7839   73.9616 H   0  0  0  0  0  0  0  0  0  0  0  0
  1  2  1  0
  2  3  2  0
  3  4  1  0
  4  5  1  0
  4  6  2  0
  6  7  1  0
  7  8  1  0
  7  9  2  0
  9 10  1  0
 10 11  2  0
 10 12  1  0
 12 13  1  0
 13 14  1  0
 14 15  2  0
 15 16  1  0
 16 17  2  0
 17 18  1  0
 18 19  2  0
  9 20  1  0
 20 21  1  0
 21 22  2  0
 22  2  1  0
 21  6  1  0
 19 14  1  0
  1 23  1  0
  1 24  1  0
  1 25  1  0
  3 26  1  0
  5 27  1  0
  5 28  1  0
  5 29  1  0
  8 30  1  0
  8 31  1  0
 12 32  1  0
 13 33  1  0
 13 34  1  0
 15 35  1  0
 16 36  1  0
 17 37  1  0
 18 38  1  0
 19 39  1  0
M  END
>  <Binding energies>  (1) 
[-7.81]

>  <Ligand effiencies>  (1) 
[-0.3124]

>  <Interactions>  (1) 
["V-B:GLU:543:CD:9877, V-A:ARG:545:CG:4919, V-A:HIS:456:CE1:4066, V-A:GLU:543:CD:4905, H-B:HIS:456:NE2:9039, V-B:GLU:543:C:9871, V-B:GLU:543:CB:9875, V-B:HIS:456:CE1:9038, V-B:GLY:544:C:9881, V-B:HIS:456:CD2:9036, H-A:GLU:543:O:4900, V-A:GLU:543:CB:4903, V-B:GLU:543:CG:9876, V-B:LYS:547:CE:9919, V-B:VAL:457:C:9041, V-B:ASP:473:CG:9208, H-A:HIS:456:NE2:4067, V-B:ASP:473:CB:9207, V-B:HIS:456:CG:9034, V-B:HIS:456:C:9029, V-A:GLU:543:C:4899, V-B:VAL:457:CA:9043, V-B:HIS:456:CB:9033, V-B:HIS:456:CA:9031, V-B:LYS:547:CD:9918, V-B:VAL:458:CG2:9055, H-A:LYS:547:NZ:4948, V-B:LYS:471:CE:9188, V-A:GLU:543:CA:4901, V-A:GLY:544:CA:4911, V-A:GLY:544:C:4909, V-A:ARG:545:CA:4916, H-B:GLY:544:O:9882, H-A:GLY:544:O:4910, V-B:LYS:471:CB:9185, V-A:ARG:545:CB:4918"]

$$$$
4ah_Grossjean_2025
     RDKit          3D

 51 53  0  0  0  0  0  0  0  0999 V2000
  128.0940  132.0220   62.3440 C   0  0  0  0  0  0  0  0  0  0  0  0
  126.8680  132.0600   63.0650 O   0  0  0  0  0  0  0  0  0  0  0  0
  126.5790  131.0500   63.9670 C   0  0  0  0  0  0  0  0  0  0  0  0
  127.5540  130.2940   64.6350 C   0  0  0  0  0  0  0  0  0  0  0  0
  127.1890  129.2890   65.5310 C   0  0  0  0  0  0  0  0  0  0  0  0
  128.2630  128.5090   66.2830 C   0  0  0  0  0  0  0  0  0  0  0  0
  129.1270  127.7140   65.4110 N   0  0  0  0  0  0  0  0  0  0  0  0
  130.2060  127.0090   65.8110 C   0  0  0  0  0  0  0  0  0  0  0  0
  130.5970  126.9990   66.9800 O   0  0  0  0  0  0  0  0  0  0  0  0
  130.9210  126.2800   64.7640 C   0  0  0  0  0  0  0  0  0  0  0  0
  132.2500  125.1990   65.1850 S   0  0  0  0  0  0  0  0  0  0  0  0
  132.5350  124.8220   63.5010 C   0  0  0  0  0  0  0  0  0  0  0  0
  133.4940  123.9780   63.1190 N   0  0  0  0  0  0  0  0  0  0  0  0
  133.6090  123.7710   61.7850 C   0  0  0  0  0  0  0  0  0  0  0  0
  134.7090  122.8100   61.3720 C   0  0  0  0  0  0  0  0  0  0  0  0
  132.7950  124.3800   60.8340 C   0  0  0  0  0  0  0  0  0  0  0  0
  131.7900  125.2670   61.2360 C   0  0  0  0  0  0  0  0  0  0  0  0
  130.9260  125.9080   60.1600 C   0  0  0  0  0  0  0  0  0  0  0  0
  131.6400  125.5120   62.6290 C   0  0  0  0  0  0  0  0  0  0  0  0
  130.7370  126.3460   63.3750 C   0  0  0  0  0  0  0  0  0  0  0  0
  129.7830  127.1230   62.7680 N   0  0  0  0  0  0  0  0  0  0  0  0
  125.8380  129.0520   65.7860 C   0  0  0  0  0  0  0  0  0  0  0  0
  124.8410  129.7890   65.1290 C   0  0  0  0  0  0  0  0  0  0  0  0
  123.4850  129.5970   65.3220 O   0  0  0  0  0  0  0  0  0  0  0  0
  122.9560  129.6380   66.6440 C   0  0  0  0  0  0  0  0  0  0  0  0
  125.2250  130.7810   64.2160 C   0  0  0  0  0  0  0  0  0  0  0  0
  124.2600  131.5230   63.5780 O   0  0  0  0  0  0  0  0  0  0  0  0
  124.0190  131.1270   62.2350 C   0  0  0  0  0  0  0  0  0  0  0  0
  128.9352  131.9959   63.0523 H   0  0  0  0  0  0  0  0  0  0  0  0
  128.1195  131.1226   61.7112 H   0  0  0  0  0  0  0  0  0  0  0  0
  128.1751  132.9181   61.7112 H   0  0  0  0  0  0  0  0  0  0  0  0
  128.6193  130.4962   64.4500 H   0  0  0  0  0  0  0  0  0  0  0  0
  128.8899  129.2244   66.8354 H   0  0  0  0  0  0  0  0  0  0  0  0
  127.7435  127.8060   66.9507 H   0  0  0  0  0  0  0  0  0  0  0  0
  128.8170  127.6090   64.4560 H   0  0  0  0  0  0  0  0  0  0  0  0
  135.1872  122.3922   62.2702 H   0  0  0  0  0  0  0  0  0  0  0  0
  134.2776  121.9943   60.7733 H   0  0  0  0  0  0  0  0  0  0  0  0
  135.4594  123.3471   60.7733 H   0  0  0  0  0  0  0  0  0  0  0  0
  132.9419  124.1638   59.7655 H   0  0  0  0  0  0  0  0  0  0  0  0
  130.1288  126.4994   60.6340 H   0  0  0  0  0  0  0  0  0  0  0  0
  131.5474  126.5653   59.5341 H   0  0  0  0  0  0  0  0  0  0  0  0
  130.4772  125.1227   59.5341 H   0  0  0  0  0  0  0  0  0  0  0  0
  128.9770  126.7200   62.3140 H   0  0  0  0  0  0  0  0  0  0  0  0
  129.8620  128.1310   62.7510 H   0  0  0  0  0  0  0  0  0  0  0  0
  125.5506  128.2770   66.5118 H   0  0  0  0  0  0  0  0  0  0  0  0
  123.7794  129.5742   67.3706 H   0  0  0  0  0  0  0  0  0  0  0  0
  122.4094  130.5812   66.7911 H   0  0  0  0  0  0  0  0  0  0  0  0
  122.2706  128.7903   66.7911 H   0  0  0  0  0  0  0  0  0  0  0  0
  123.4471  130.1874   62.2268 H   0  0  0  0  0  0  0  0  0  0  0  0
  123.4444  131.9104   61.7192 H   0  0  0  0  0  0  0  0  0  0  0  0
  124.9789  130.9766   61.7192 H   0  0  0  0  0  0  0  0  0  0  0  0
  1  2  1  0
  2  3  1  0
  3  4  2  0
  4  5  1  0
  5  6  1  0
  6  7  1  0
  7  8  1  0
  8  9  2  0
  8 10  1  0
 10 11  1  0
 11 12  1  0
 12 13  2  0
 13 14  1  0
 14 15  1  0
 14 16  2  0
 16 17  1  0
 17 18  1  0
 17 19  2  0
 19 20  1  0
 20 21  1  0
  5 22  2  0
 22 23  1  0
 23 24  1  0
 24 25  1  0
 23 26  2  0
 26 27  1  0
 27 28  1  0
 26  3  1  0
 20 10  2  0
 19 12  1  0
  1 29  1  0
  1 30  1  0
  1 31  1  0
  4 32  1  0
  6 33  1  0
  6 34  1  0
  7 35  1  0
 15 36  1  0
 15 37  1  0
 15 38  1  0
 16 39  1  0
 18 40  1  0
 18 41  1  0
 18 42  1  0
 21 43  1  0
 21 44  1  0
 22 45  1  0
 25 46  1  0
 25 47  1  0
 25 48  1  0
 28 49  1  0
 28 50  1  0
 28 51  1  0
M  END
>  <Binding energies>  (1) 
[-6.99]

>  <Ligand effiencies>  (1) 
[-0.22548387096774195]

>  <Interactions>  (1) 
["H-A:GLU:543:OE1:4906, V-A:ARG:545:CZ:4923, V-A:ILE:369:CB:3232, H-A:GLU:543:OE2:4907, H-A:GLY:454:N:4046, V-A:ILE:369:CG1:3234, V-A:GLY:454:CA:4045, V-A:HIS:456:CE1:4066, V-A:GLU:543:CD:4905, V-A:GLU:543:CG:4904, V-B:HIS:456:CE1:9038, V-A:GLU:543:CB:4903, V-B:ILE:369:CD1:8207, V-B:ARG:545:CZ:9895, V-A:ALA:541:CB:4889, V-B:ARG:545:CD:9892, H-B:TYR:484:OH:9316, V-B:ASP:366:CG:8181, V-A:ASP:366:CG:3209, H-B:GLU:543:OE1:9878, H-B:GLY:454:N:9018, V-A:GLY:453:C:4038, V-B:GLY:453:CA:9012, V-B:GLY:453:C:9010, V-B:ARG:545:CG:9891, V-B:ILE:455:C:9020, H-B:ARG:545:NH1:9896, H-B:ARG:545:NE:9893, H-B:GLU:543:OE2:9879"]

$$$$
4ai_Grossjean_2025
     RDKit          3D

 32 34  0  0  0  0  0  0  0  0999 V2000
  133.5680  124.9670   65.3090 C   0  0  0  0  0  0  0  0  0  0  0  0
  132.8310  124.5840   64.0390 C   0  0  0  0  0  0  0  0  0  0  0  0
  133.5190  124.3850   62.8430 C   0  0  0  0  0  0  0  0  0  0  0  0
  132.8200  124.0260   61.6850 C   0  0  0  0  0  0  0  0  0  0  0  0
  133.6150  123.8170   60.4060 C   0  0  0  0  0  0  0  0  0  0  0  0
  131.4090  123.8770   61.7810 C   0  0  0  0  0  0  0  0  0  0  0  0
  130.4040  123.5250   60.8140 C   0  0  0  0  0  0  0  0  0  0  0  0
  130.7110  123.2590   59.5030 N   0  0  0  0  0  0  0  0  0  0  0  0
  129.1020  123.4770   61.3370 C   0  0  0  0  0  0  0  0  0  0  0  0
  127.8520  123.1660   60.6410 C   0  0  0  0  0  0  0  0  0  0  0  0
  127.8580  122.4970   59.6060 O   0  0  0  0  0  0  0  0  0  0  0  0
  126.7270  123.6490   61.2250 N   0  0  0  0  0  0  0  0  0  0  0  0
  125.4170  123.4970   60.7880 C   0  0  0  0  0  0  0  0  0  0  0  0
  124.9560  124.0000   59.5720 C   0  0  0  0  0  0  0  0  0  0  0  0
  123.6270  123.6460   59.5180 C   0  0  0  0  0  0  0  0  0  0  0  0
  123.3050  122.9640   60.6430 O   0  0  0  0  0  0  0  0  0  0  0  0
  124.4480  122.8740   61.4400 N   0  0  0  0  0  0  0  0  0  0  0  0
  129.0890  123.8940   63.0520 S   0  0  0  0  0  0  0  0  0  0  0  0
  130.8250  124.1100   63.0620 C   0  0  0  0  0  0  0  0  0  0  0  0
  131.4880  124.4530   64.1670 N   0  0  0  0  0  0  0  0  0  0  0  0
  132.9759  124.6593   66.1835 H   0  0  0  0  0  0  0  0  0  0  0  0
  134.5453  124.4627   65.3320 H   0  0  0  0  0  0  0  0  0  0  0  0
  133.7170  126.0566   65.3320 H   0  0  0  0  0  0  0  0  0  0  0  0
  134.6113  124.5102   62.8095 H   0  0  0  0  0  0  0  0  0  0  0  0
  134.6505  123.5448   60.6583 H   0  0  0  0  0  0  0  0  0  0  0  0
  133.1565  123.0089   59.8172 H   0  0  0  0  0  0  0  0  0  0  0  0
  133.6132  124.7461   59.8172 H   0  0  0  0  0  0  0  0  0  0  0  0
  130.0340  122.8630   58.8680 H   0  0  0  0  0  0  0  0  0  0  0  0
  131.6310  123.4460   59.1310 H   0  0  0  0  0  0  0  0  0  0  0  0
  126.8410  124.1740   62.0790 H   0  0  0  0  0  0  0  0  0  0  0  0
  125.5304  124.5590   58.8186 H   0  0  0  0  0  0  0  0  0  0  0  0
  122.9372  123.8795   58.6936 H   0  0  0  0  0  0  0  0  0  0  0  0
  1  2  1  0
  2  3  2  0
  3  4  1  0
  4  5  1  0
  4  6  2  0
  6  7  1  0
  7  8  1  0
  7  9  2  0
  9 10  1  0
 10 11  2  0
 10 12  1  0
 12 13  1  0
 13 14  1  0
 14 15  2  0
 15 16  1  0
 16 17  1  0
  9 18  1  0
 18 19  1  0
 19 20  2  0
 20  2  1  0
 19  6  1  0
 17 13  2  0
  1 21  1  0
  1 22  1  0
  1 23  1  0
  3 24  1  0
  5 25  1  0
  5 26  1  0
  5 27  1  0
  8 28  1  0
  8 29  1  0
 12 30  1  0
 14 31  1  0
 15 32  1  0
M  END
>  <Binding energies>  (1) 
[-6.71]

>  <Ligand effiencies>  (1) 
[-0.2917391304347826]

>  <Interactions>  (1) 
["V-B:GLU:543:CD:9877, V-A:ARG:545:CZ:4923, V-A:GLY:454:CA:4045, V-B:TYR:539:CE2:9845, V-A:HIS:456:CE1:4066, V-B:GLU:543:CG:9876, V-B:TYR:539:CZ:9846, H-B:ALA:541:N:9860, V-B:TYR:539:CD2:9843, V-B:ALA:541:CB:9861, V-A:ASP:366:CG:3209, V-A:ASP:366:CB:3208, H-A:TYR:484:OH:4344, V-A:ARG:545:CD:4920, V-B:LEU:363:CD1:8157, V-B:PRO:540:CB:9854, V-B:LEU:363:CA:8153, V-B:PRO:540:CA:9852, V-B:LEU:363:CB:8155, V-B:ASN:362:C:8140, V-A:ASP:366:CA:3206, H-B:TYR:539:OH:9847, H-B:GLU:543:OE2:9879, H-B:LEU:363:N:8154"]

$$$$
4aj_Grossjean_2025
     RDKit          3D

 32 34  0  0  0  0  0  0  0  0999 V2000
  133.6780  124.8980   65.2630 C   0  0  0  0  0  0  0  0  0  0  0  0
  132.9210  124.5210   64.0030 C   0  0  0  0  0  0  0  0  0  0  0  0
  133.5820  124.3700   62.7870 C   0  0  0  0  0  0  0  0  0  0  0  0
  132.8630  124.0270   61.6360 C   0  0  0  0  0  0  0  0  0  0  0  0
  133.6320  123.8750   60.3320 C   0  0  0  0  0  0  0  0  0  0  0  0
  131.4600  123.8420   61.7610 C   0  0  0  0  0  0  0  0  0  0  0  0
  130.4390  123.4970   60.8080 C   0  0  0  0  0  0  0  0  0  0  0  0
  130.7180  123.2730   59.4840 N   0  0  0  0  0  0  0  0  0  0  0  0
  129.1520  123.4070   61.3610 C   0  0  0  0  0  0  0  0  0  0  0  0
  127.8920  123.0890   60.6860 C   0  0  0  0  0  0  0  0  0  0  0  0
  127.8650  122.2990   59.7410 O   0  0  0  0  0  0  0  0  0  0  0  0
  126.7930  123.7090   61.1840 N   0  0  0  0  0  0  0  0  0  0  0  0
  125.4860  123.5740   60.7380 C   0  0  0  0  0  0  0  0  0  0  0  0
  124.5000  122.9180   61.3120 N   0  0  0  0  0  0  0  0  0  0  0  0
  123.3870  123.0050   60.6110 C   0  0  0  0  0  0  0  0  0  0  0  0
  123.4560  123.7460   59.4340 C   0  0  0  0  0  0  0  0  0  0  0  0
  125.0730  124.3580   59.2480 S   0  0  0  0  0  0  0  0  0  0  0  0
  129.1730  123.7680   63.0880 S   0  0  0  0  0  0  0  0  0  0  0  0
  130.9030  124.0240   63.0630 C   0  0  0  0  0  0  0  0  0  0  0  0
  131.5850  124.3510   64.1610 N   0  0  0  0  0  0  0  0  0  0  0  0
  133.0901  124.6052   66.1454 H   0  0  0  0  0  0  0  0  0  0  0  0
  134.6467  124.3771   65.2785 H   0  0  0  0  0  0  0  0  0  0  0  0
  133.8459  125.9850   65.2785 H   0  0  0  0  0  0  0  0  0  0  0  0
  134.6702  124.5204   62.7307 H   0  0  0  0  0  0  0  0  0  0  0  0
  134.6893  123.6660   60.5521 H   0  0  0  0  0  0  0  0  0  0  0  0
  133.2072  123.0434   59.7506 H   0  0  0  0  0  0  0  0  0  0  0  0
  133.5555  124.8056   59.7506 H   0  0  0  0  0  0  0  0  0  0  0  0
  130.0340  122.8830   58.8530 H   0  0  0  0  0  0  0  0  0  0  0  0
  131.6250  123.4930   59.0940 H   0  0  0  0  0  0  0  0  0  0  0  0
  126.9280  124.3330   61.9660 H   0  0  0  0  0  0  0  0  0  0  0  0
  122.4556  122.5193   60.9376 H   0  0  0  0  0  0  0  0  0  0  0  0
  122.6233  123.9164   58.7357 H   0  0  0  0  0  0  0  0  0  0  0  0
  1  2  1  0
  2  3  2  0
  3  4  1  0
  4  5  1  0
  4  6  2  0
  6  7  1  0
  7  8  1  0
  7  9  2  0
  9 10  1  0
 10 11  2  0
 10 12  1  0
 12 13  1  0
 13 14  2  0
 14 15  1  0
 15 16  2  0
 16 17  1  0
  9 18  1  0
 18 19  1  0
 19 20  2  0
 20  2  1  0
 19  6  1  0
 17 13  1  0
  1 21  1  0
  1 22  1  0
  1 23  1  0
  3 24  1  0
  5 25  1  0
  5 26  1  0
  5 27  1  0
  8 28  1  0
  8 29  1  0
 12 30  1  0
 15 31  1  0
 16 32  1  0
M  END
>  <Binding energies>  (1) 
[-6.58]

>  <Ligand effiencies>  (1) 
[-0.28608695652173916]

>  <Interactions>  (1) 
["V-B:GLU:543:CD:9877, V-A:ARG:545:CZ:4923, V-A:GLY:454:CA:4045, V-B:TYR:539:CE2:9845, V-A:HIS:456:CE1:4066, V-B:GLU:543:CG:9876, V-B:TYR:539:CZ:9846, H-B:ALA:541:N:9860, V-B:TYR:539:CD2:9843, V-B:ALA:541:CB:9861, V-A:ASP:366:CG:3209, V-A:ASP:366:CB:3208, H-A:TYR:484:OH:4344, V-A:ARG:545:CD:4920, V-B:LEU:363:CD1:8157, V-B:PRO:540:CB:9854, V-B:LEU:363:CA:8153, V-B:PRO:540:CA:9852, V-B:LEU:363:CB:8155, V-B:ASN:362:C:8140, V-B:ASN:362:CB:8144, V-A:ASP:366:CA:3206, V-B:ASN:362:CA:8142, H-B:TYR:539:OH:9847, H-B:GLU:543:OE2:9879"]

$$$$
4ak_Grossjean_2025
     RDKit          3D

 50 51  0  0  0  0  0  0  0  0999 V2000
  129.0520  132.1290   72.0670 C   0  0  0  0  0  0  0  0  0  0  0  0
  129.4100  130.9300   72.7380 O   0  0  0  0  0  0  0  0  0  0  0  0
  128.8440  130.8180   74.0380 C   0  0  0  0  0  0  0  0  0  0  0  0
  127.4880  131.5360   74.0690 C   0  0  0  0  0  0  0  0  0  0  0  0
  126.4480  130.5740   74.1830 O   0  0  0  0  0  0  0  0  0  0  0  0
  125.3720  130.9880   75.0140 C   0  0  0  0  0  0  0  0  0  0  0  0
  124.6620  129.7520   75.5790 C   0  0  0  0  0  0  0  0  0  0  0  0
  124.2310  128.9270   74.5050 O   0  0  0  0  0  0  0  0  0  0  0  0
  124.7580  127.6070   74.5460 C   0  0  0  0  0  0  0  0  0  0  0  0
  126.2960  127.6740   74.5560 C   0  0  0  0  0  0  0  0  0  0  0  0
  126.8990  127.5040   73.2340 N   0  0  0  0  0  0  0  0  0  0  0  0
  128.2180  127.5720   72.9630 C   0  0  0  0  0  0  0  0  0  0  0  0
  129.0630  127.7710   73.8380 O   0  0  0  0  0  0  0  0  0  0  0  0
  128.5980  127.3880   71.5630 C   0  0  0  0  0  0  0  0  0  0  0  0
  127.5400  126.5050   70.4630 S   0  0  0  0  0  0  0  0  0  0  0  0
  128.6460  126.7510   69.1300 C   0  0  0  0  0  0  0  0  0  0  0  0
  128.3960  126.2740   67.9100 N   0  0  0  0  0  0  0  0  0  0  0  0
  129.3360  126.5320   66.9670 C   0  0  0  0  0  0  0  0  0  0  0  0
  129.0340  125.9820   65.5850 C   0  0  0  0  0  0  0  0  0  0  0  0
  130.5050  127.2490   67.2130 C   0  0  0  0  0  0  0  0  0  0  0  0
  130.7630  127.7490   68.4950 C   0  0  0  0  0  0  0  0  0  0  0  0
  132.0540  128.5220   68.7160 C   0  0  0  0  0  0  0  0  0  0  0  0
  129.8020  127.4970   69.5100 C   0  0  0  0  0  0  0  0  0  0  0  0
  129.7460  127.8530   70.9030 C   0  0  0  0  0  0  0  0  0  0  0  0
  130.7360  128.5790   71.5140 N   0  0  0  0  0  0  0  0  0  0  0  0
  128.8193  132.9083   72.8077 H   0  0  0  0  0  0  0  0  0  0  0  0
  129.8903  132.4608   71.4367 H   0  0  0  0  0  0  0  0  0  0  0  0
  128.1691  131.9469   71.4367 H   0  0  0  0  0  0  0  0  0  0  0  0
  128.7022  129.7557   74.2859 H   0  0  0  0  0  0  0  0  0  0  0  0
  129.5200  131.2790   74.7732 H   0  0  0  0  0  0  0  0  0  0  0  0
  127.4533  132.2181   74.9313 H   0  0  0  0  0  0  0  0  0  0  0  0
  127.3558  132.1125   73.1416 H   0  0  0  0  0  0  0  0  0  0  0  0
  125.7614  131.5985   75.8421 H   0  0  0  0  0  0  0  0  0  0  0  0
  124.6599  131.5841   74.4244 H   0  0  0  0  0  0  0  0  0  0  0  0
  125.3574  129.1890   76.2189 H   0  0  0  0  0  0  0  0  0  0  0  0
  123.7923  130.0663   76.1747 H   0  0  0  0  0  0  0  0  0  0  0  0
  124.4063  127.0989   75.4560 H   0  0  0  0  0  0  0  0  0  0  0  0
  124.4190  127.0470   73.6620 H   0  0  0  0  0  0  0  0  0  0  0  0
  126.5987  128.6543   74.9526 H   0  0  0  0  0  0  0  0  0  0  0  0
  126.6507  126.8415   75.1814 H   0  0  0  0  0  0  0  0  0  0  0  0
  126.2590  127.3320   72.4710 H   0  0  0  0  0  0  0  0  0  0  0  0
  128.5065  125.0214   65.6799 H   0  0  0  0  0  0  0  0  0  0  0  0
  128.4010  126.6953   65.0368 H   0  0  0  0  0  0  0  0  0  0  0  0
  129.9756  125.8307   65.0368 H   0  0  0  0  0  0  0  0  0  0  0  0
  131.2253  127.4223   66.3999 H   0  0  0  0  0  0  0  0  0  0  0  0
  132.2359  128.6309   69.7954 H   0  0  0  0  0  0  0  0  0  0  0  0
  132.8913  127.9765   68.2562 H   0  0  0  0  0  0  0  0  0  0  0  0
  131.9685  129.5176   68.2562 H   0  0  0  0  0  0  0  0  0  0  0  0
  130.6710  129.5810   71.6280 H   0  0  0  0  0  0  0  0  0  0  0  0
  131.5670  128.1320   71.8770 H   0  0  0  0  0  0  0  0  0  0  0  0
  1  2  1  0
  2  3  1  0
  3  4  1  0
  4  5  1  0
  5  6  1  0
  6  7  1  0
  7  8  1  0
  8  9  1  0
  9 10  1  0
 10 11  1  0
 11 12  1  0
 12 13  2  0
 12 14  1  0
 14 15  1  0
 15 16  1  0
 16 17  2  0
 17 18  1  0
 18 19  1  0
 18 20  2  0
 20 21  1  0
 21 22  1  0
 21 23  2  0
 23 24  1  0
 24 25  1  0
 24 14  2  0
 23 16  1  0
  1 26  1  0
  1 27  1  0
  1 28  1  0
  3 29  1  0
  3 30  1  0
  4 31  1  0
  4 32  1  0
  6 33  1  0
  6 34  1  0
  7 35  1  0
  7 36  1  0
  9 37  1  0
  9 38  1  0
 10 39  1  0
 10 40  1  0
 11 41  1  0
 19 42  1  0
 19 43  1  0
 19 44  1  0
 20 45  1  0
 22 46  1  0
 22 47  1  0
 22 48  1  0
 25 49  1  0
 25 50  1  0
M  END
>  <Binding energies>  (1) 
[-5.78]

>  <Ligand effiencies>  (1) 
[-0.20642857142857143]

>  <Interactions>  (1) 
["V-B:GLU:543:CD:9877, V-A:ARG:545:CG:4919, V-A:HIS:456:CE1:4066, V-B:GLU:543:CB:9875, V-B:HIS:456:CE1:9038, V-B:GLY:544:C:9881, V-B:HIS:456:CD2:9036, H-A:GLU:543:O:4900, V-A:GLU:543:CB:4903, V-B:GLU:543:CG:9876, V-B:LYS:547:CE:9919, V-B:LYS:547:CG:9917, V-B:ASP:473:CG:9208, V-B:ASP:473:CB:9207, V-B:HIS:456:CG:9034, V-A:LYS:547:CE:4947, V-B:HIS:456:C:9029, V-A:GLU:543:C:4899, V-B:HIS:456:CB:9033, V-B:LYS:547:CD:9918, V-B:VAL:458:CG2:9055, H-A:LYS:547:NZ:4948, V-B:LYS:471:CE:9188, V-A:GLU:543:CA:4901, V-A:GLY:544:CA:4911, V-A:GLY:544:C:4909, V-A:ARG:545:CA:4916, H-B:GLY:544:O:9882, H-A:GLY:544:O:4910, H-B:VAL:457:N:9044, V-A:ARG:545:CB:4918"]

$$$$
4al_Grossjean_2025
     RDKit          3D

 28 29  0  0  0  0  0  0  0  0999 V2000
  124.1640  131.3190   58.3010 C   0  0  0  0  0  0  0  0  0  0  0  0
  124.9750  132.1220   59.1450 O   0  0  0  0  0  0  0  0  0  0  0  0
  126.0620  131.6000   59.7690 C   0  0  0  0  0  0  0  0  0  0  0  0
  127.1800  131.5190   59.2550 O   0  0  0  0  0  0  0  0  0  0  0  0
  125.7690  131.1330   61.1420 C   0  0  0  0  0  0  0  0  0  0  0  0
  124.1390  131.2990   61.8000 S   0  0  0  0  0  0  0  0  0  0  0  0
  124.6310  130.5710   63.3120 C   0  0  0  0  0  0  0  0  0  0  0  0
  123.7770  130.3950   64.3210 N   0  0  0  0  0  0  0  0  0  0  0  0
  124.2850  129.8190   65.4380 C   0  0  0  0  0  0  0  0  0  0  0  0
  123.2970  129.6280   66.5740 C   0  0  0  0  0  0  0  0  0  0  0  0
  125.6140  129.4190   65.5680 C   0  0  0  0  0  0  0  0  0  0  0  0
  126.5080  129.6040   64.5080 C   0  0  0  0  0  0  0  0  0  0  0  0
  127.9470  129.1520   64.6960 C   0  0  0  0  0  0  0  0  0  0  0  0
  126.0100  130.2060   63.3200 C   0  0  0  0  0  0  0  0  0  0  0  0
  126.6330  130.5380   62.0690 C   0  0  0  0  0  0  0  0  0  0  0  0
  127.9580  130.2910   61.8140 N   0  0  0  0  0  0  0  0  0  0  0  0
  123.5163  130.6777   58.9168 H   0  0  0  0  0  0  0  0  0  0  0  0
  123.5417  131.9667   57.6661 H   0  0  0  0  0  0  0  0  0  0  0  0
  124.8055  130.6903   57.6661 H   0  0  0  0  0  0  0  0  0  0  0  0
  123.8205  129.7292   67.5361 H   0  0  0  0  0  0  0  0  0  0  0  0
  122.5067  130.3900   66.5046 H   0  0  0  0  0  0  0  0  0  0  0  0
  122.8477  128.6264   66.5046 H   0  0  0  0  0  0  0  0  0  0  0  0
  125.9600  128.9576   66.5047 H   0  0  0  0  0  0  0  0  0  0  0  0
  128.1717  129.0814   65.7705 H   0  0  0  0  0  0  0  0  0  0  0  0
  128.0862  128.1669   64.2268 H   0  0  0  0  0  0  0  0  0  0  0  0
  128.6245  129.8806   64.2268 H   0  0  0  0  0  0  0  0  0  0  0  0
  128.6000  130.0150   62.5430 H   0  0  0  0  0  0  0  0  0  0  0  0
  128.3390  130.3780   60.8810 H   0  0  0  0  0  0  0  0  0  0  0  0
  1  2  1  0
  2  3  1  0
  3  4  2  0
  3  5  1  0
  5  6  1  0
  6  7  1  0
  7  8  2  0
  8  9  1  0
  9 10  1  0
  9 11  2  0
 11 12  1  0
 12 13  1  0
 12 14  2  0
 14 15  1  0
 15 16  1  0
 15  5  2  0
 14  7  1  0
  1 17  1  0
  1 18  1  0
  1 19  1  0
 10 20  1  0
 10 21  1  0
 10 22  1  0
 11 23  1  0
 13 24  1  0
 13 25  1  0
 13 26  1  0
 16 27  1  0
 16 28  1  0
M  END
>  <Binding energies>  (1) 
[-4.73]

>  <Ligand effiencies>  (1) 
[-0.2627777777777778]

>  <Interactions>  (1) 
["H-A:GLU:543:OE2:4907, V-A:GLU:543:CD:4905, V-A:GLU:543:CG:4904, V-B:HIS:456:CE1:9038, V-B:ILE:369:CD1:8207, V-B:ILE:369:CG2:8205, V-B:ARG:545:CZ:9895, V-B:ARG:545:CD:9892, V-A:TYR:539:CE2:4873, H-B:TYR:484:OH:9316, V-B:ASP:366:CB:8180, V-B:ASP:366:CG:8181, H-B:GLY:454:N:9018, V-B:GLY:453:CA:9012, V-B:GLY:453:C:9010, V-B:ARG:545:CG:9891, V-B:ASP:366:CA:8178, V-B:ILE:455:C:9020"]

$$$$
4ba_Grossjean_2025
     RDKit          3D

 44 46  0  0  0  0  0  0  0  0999 V2000
  126.1580  128.5000   74.1090 C   0  0  0  0  0  0  0  0  0  0  0  0
  126.6800  127.6470   72.9380 C   0  0  0  0  0  0  0  0  0  0  0  0
  128.1810  127.8160   72.6220 C   0  0  0  0  0  0  0  0  0  0  0  0
  128.9330  128.2790   73.4820 O   0  0  0  0  0  0  0  0  0  0  0  0
  128.6590  127.3980   71.2630 C   0  0  0  0  0  0  0  0  0  0  0  0
  129.8930  127.8670   70.7930 C   0  0  0  0  0  0  0  0  0  0  0  0
  130.3600  127.4960   69.5360 C   0  0  0  0  0  0  0  0  0  0  0  0
  129.6080  126.6460   68.7240 C   0  0  0  0  0  0  0  0  0  0  0  0
  130.1710  126.3420   67.4690 N   0  0  0  0  0  0  0  0  0  0  0  0
  131.1130  127.0040   66.7530 C   0  0  0  0  0  0  0  0  0  0  0  0
  131.6250  128.0690   67.1010 O   0  0  0  0  0  0  0  0  0  0  0  0
  131.4880  126.3760   65.4840 C   0  0  0  0  0  0  0  0  0  0  0  0
  132.9010  125.3260   65.3980 S   0  0  0  0  0  0  0  0  0  0  0  0
  132.6720  125.0790   63.6840 C   0  0  0  0  0  0  0  0  0  0  0  0
  133.4980  124.3100   62.9760 N   0  0  0  0  0  0  0  0  0  0  0  0
  133.2200  124.1950   61.6580 C   0  0  0  0  0  0  0  0  0  0  0  0
  134.1790  123.3220   60.8690 C   0  0  0  0  0  0  0  0  0  0  0  0
  132.1430  124.8210   61.0360 C   0  0  0  0  0  0  0  0  0  0  0  0
  131.2680  125.6330   61.7760 C   0  0  0  0  0  0  0  0  0  0  0  0
  130.0950  126.2990   61.0490 C   0  0  0  0  0  0  0  0  0  0  0  0
  130.0590  126.0140   59.7460 F   0  0  0  0  0  0  0  0  0  0  0  0
  128.9420  125.8900   61.5800 F   0  0  0  0  0  0  0  0  0  0  0  0
  130.1880  127.6240   61.1650 F   0  0  0  0  0  0  0  0  0  0  0  0
  131.5370  125.7800   63.1700 C   0  0  0  0  0  0  0  0  0  0  0  0
  130.8860  126.5200   64.2230 C   0  0  0  0  0  0  0  0  0  0  0  0
  129.7750  127.2950   64.0050 N   0  0  0  0  0  0  0  0  0  0  0  0
  128.3680  126.1770   69.1840 C   0  0  0  0  0  0  0  0  0  0  0  0
  127.9020  126.5500   70.4410 C   0  0  0  0  0  0  0  0  0  0  0  0
  126.4454  128.0304   75.0613 H   0  0  0  0  0  0  0  0  0  0  0  0
  126.5940  129.5083   74.0511 H   0  0  0  0  0  0  0  0  0  0  0  0
  125.0618  128.5706   74.0511 H   0  0  0  0  0  0  0  0  0  0  0  0
  126.4999  126.5892   73.1803 H   0  0  0  0  0  0  0  0  0  0  0  0
  126.1386  127.9904   72.0442 H   0  0  0  0  0  0  0  0  0  0  0  0
  130.4982  128.5348   71.4238 H   0  0  0  0  0  0  0  0  0  0  0  0
  131.3290  127.8755   69.1797 H   0  0  0  0  0  0  0  0  0  0  0  0
  129.7960  125.5090   67.0410 H   0  0  0  0  0  0  0  0  0  0  0  0
  134.8093  122.7483   61.5644 H   0  0  0  0  0  0  0  0  0  0  0  0
  133.6067  122.6284   60.2354 H   0  0  0  0  0  0  0  0  0  0  0  0
  134.8159  123.9567   60.2354 H   0  0  0  0  0  0  0  0  0  0  0  0
  131.9764  124.6787   59.9580 H   0  0  0  0  0  0  0  0  0  0  0  0
  129.8210  128.1650   63.4950 H   0  0  0  0  0  0  0  0  0  0  0  0
  128.8670  127.0220   64.3560 H   0  0  0  0  0  0  0  0  0  0  0  0
  127.7629  125.5129   68.5494 H   0  0  0  0  0  0  0  0  0  0  0  0
  126.9296  126.1759   70.7939 H   0  0  0  0  0  0  0  0  0  0  0  0
  1  2  1  0
  2  3  1  0
  3  4  2  0
  3  5  1  0
  5  6  2  0
  6  7  1  0
  7  8  2  0
  8  9  1  0
  9 10  1  0
 10 11  2  0
 10 12  1  0
 12 13  1  0
 13 14  1  0
 14 15  2  0
 15 16  1  0
 16 17  1  0
 16 18  2  0
 18 19  1  0
 19 20  1  0
 20 21  1  0
 20 22  1  0
 20 23  1  0
 19 24  2  0
 24 25  1  0
 25 26  1  0
  8 27  1  0
 27 28  2  0
 28  5  1  0
 25 12  2  0
 24 14  1  0
  1 29  1  0
  1 30  1  0
  1 31  1  0
  2 32  1  0
  2 33  1  0
  6 34  1  0
  7 35  1  0
  9 36  1  0
 17 37  1  0
 17 38  1  0
 17 39  1  0
 18 40  1  0
 26 41  1  0
 26 42  1  0
 27 43  1  0
 28 44  1  0
M  END
>  <Binding energies>  (1) 
[-6.93]

>  <Ligand effiencies>  (1) 
[-0.2235483870967742]

>  <Interactions>  (1) 
["H-A:GLU:543:OE1:4906, V-A:ARG:545:CZ:4923, H-A:GLU:543:OE2:4907, H-A:GLY:454:N:4046, V-A:ILE:369:CG1:3234, V-A:HIS:456:CE1:4066, V-A:GLU:543:CD:4905, V-B:GLU:543:C:9871, V-B:GLU:543:CB:9875, V-B:HIS:456:CE1:9038, V-B:GLY:544:C:9881, V-A:HIS:456:CD2:4064, V-B:HIS:456:CD2:9036, V-A:GLU:543:CB:4903, V-A:ASP:366:CG:3209, H-A:ARG:545:NE:4921, H-B:GLU:543:OE1:9878, V-B:LYS:547:CE:9919, H-A:HIS:456:NE2:4067, V-B:HIS:456:CG:9034, V-B:HIS:456:CB:9033, H-A:LYS:547:NZ:4948, H-B:GLU:543:OE2:9879"]

$$$$
4bb_Grossjean_2025
     RDKit          3D

 41 43  0  0  0  0  0  0  0  0999 V2000
  126.8440  127.4420   72.8870 C   0  0  0  0  0  0  0  0  0  0  0  0
  128.2920  127.7550   72.5030 C   0  0  0  0  0  0  0  0  0  0  0  0
  128.9940  128.3500   73.3230 O   0  0  0  0  0  0  0  0  0  0  0  0
  128.7760  127.3310   71.1490 C   0  0  0  0  0  0  0  0  0  0  0  0
  130.0330  127.7580   70.7040 C   0  0  0  0  0  0  0  0  0  0  0  0
  130.5060  127.3790   69.4510 C   0  0  0  0  0  0  0  0  0  0  0  0
  129.7350  126.5610   68.6220 C   0  0  0  0  0  0  0  0  0  0  0  0
  130.3080  126.2410   67.3750 N   0  0  0  0  0  0  0  0  0  0  0  0
  131.2510  126.8970   66.6550 C   0  0  0  0  0  0  0  0  0  0  0  0
  131.7650  127.9610   66.9970 O   0  0  0  0  0  0  0  0  0  0  0  0
  131.6190  126.2640   65.3860 C   0  0  0  0  0  0  0  0  0  0  0  0
  132.9580  125.1200   65.3210 S   0  0  0  0  0  0  0  0  0  0  0  0
  132.7570  124.9090   63.5970 C   0  0  0  0  0  0  0  0  0  0  0  0
  133.5400  124.0880   62.9010 N   0  0  0  0  0  0  0  0  0  0  0  0
  133.2880  124.0090   61.5740 C   0  0  0  0  0  0  0  0  0  0  0  0
  134.1910  123.0670   60.8000 C   0  0  0  0  0  0  0  0  0  0  0  0
  132.2810  124.7260   60.9330 C   0  0  0  0  0  0  0  0  0  0  0  0
  131.4520  125.5930   61.6620 C   0  0  0  0  0  0  0  0  0  0  0  0
  130.3570  126.3600   60.9130 C   0  0  0  0  0  0  0  0  0  0  0  0
  130.4540  127.6840   61.0600 F   0  0  0  0  0  0  0  0  0  0  0  0
  130.4340  126.0970   59.6080 F   0  0  0  0  0  0  0  0  0  0  0  0
  129.1580  125.9950   61.3660 F   0  0  0  0  0  0  0  0  0  0  0  0
  131.6910  125.7000   63.0650 C   0  0  0  0  0  0  0  0  0  0  0  0
  131.0640  126.4670   64.1120 C   0  0  0  0  0  0  0  0  0  0  0  0
  130.0110  127.3140   63.8790 N   0  0  0  0  0  0  0  0  0  0  0  0
  128.4710  126.1360   69.0590 C   0  0  0  0  0  0  0  0  0  0  0  0
  128.0000  126.5170   70.3120 C   0  0  0  0  0  0  0  0  0  0  0  0
  126.7514  127.4220   73.9829 H   0  0  0  0  0  0  0  0  0  0  0  0
  126.1801  128.2174   72.4770 H   0  0  0  0  0  0  0  0  0  0  0  0
  126.5597  126.4616   72.4770 H   0  0  0  0  0  0  0  0  0  0  0  0
  130.6518  128.3982   71.3499 H   0  0  0  0  0  0  0  0  0  0  0  0
  131.4931  127.7259   69.1116 H   0  0  0  0  0  0  0  0  0  0  0  0
  129.9340  125.4030   66.9530 H   0  0  0  0  0  0  0  0  0  0  0  0
  134.7754  122.4574   61.5049 H   0  0  0  0  0  0  0  0  0  0  0  0
  133.5778  122.4088   60.1670 H   0  0  0  0  0  0  0  0  0  0  0  0
  134.8745  123.6518   60.1670 H   0  0  0  0  0  0  0  0  0  0  0  0
  132.1343  124.6123   59.8488 H   0  0  0  0  0  0  0  0  0  0  0  0
  129.0890  127.1370   64.2530 H   0  0  0  0  0  0  0  0  0  0  0  0
  130.1210  128.1500   63.3220 H   0  0  0  0  0  0  0  0  0  0  0  0
  127.8511  125.5003   68.4097 H   0  0  0  0  0  0  0  0  0  0  0  0
  127.0098  126.1763   70.6487 H   0  0  0  0  0  0  0  0  0  0  0  0
  1  2  1  0
  2  3  2  0
  2  4  1  0
  4  5  2  0
  5  6  1  0
  6  7  2  0
  7  8  1  0
  8  9  1  0
  9 10  2  0
  9 11  1  0
 11 12  1  0
 12 13  1  0
 13 14  2  0
 14 15  1  0
 15 16  1  0
 15 17  2  0
 17 18  1  0
 18 19  1  0
 19 20  1  0
 19 21  1  0
 19 22  1  0
 18 23  2  0
 23 24  1  0
 24 25  1  0
  7 26  1  0
 26 27  2  0
 27  4  1  0
 24 11  2  0
 23 13  1  0
  1 28  1  0
  1 29  1  0
  1 30  1  0
  5 31  1  0
  6 32  1  0
  8 33  1  0
 16 34  1  0
 16 35  1  0
 16 36  1  0
 17 37  1  0
 25 38  1  0
 25 39  1  0
 26 40  1  0
 27 41  1  0
M  END
>  <Binding energies>  (1) 
[-6.82]

>  <Ligand effiencies>  (1) 
[-0.22733333333333333]

>  <Interactions>  (1) 
["H-A:GLU:543:OE1:4906, V-A:ARG:545:CZ:4923, V-A:ILE:369:CB:3232, H-A:GLU:543:OE2:4907, H-A:GLY:454:N:4046, V-A:ILE:369:CG1:3234, V-A:ILE:369:CG2:3233, V-A:HIS:456:CE1:4066, V-A:GLU:543:CD:4905, V-B:GLU:543:C:9871, V-B:GLU:543:CB:9875, V-B:HIS:456:CE1:9038, V-B:GLY:544:C:9881, V-A:HIS:456:CD2:4064, V-B:HIS:456:CD2:9036, V-A:ASP:366:CG:3209, H-A:ARG:545:NE:4921, H-A:TYR:484:OH:4344, H-B:GLU:543:OE1:9878, V-B:LYS:547:CE:9919, H-A:HIS:456:NE2:4067, V-B:HIS:456:CG:9034, V-B:HIS:456:CB:9033, H-A:LYS:547:NZ:4948"]

$$$$
4bc_Grossjean_2025
     RDKit          3D

 40 42  0  0  0  0  0  0  0  0999 V2000
  128.0420  127.7260   73.1220 C   0  0  0  0  0  0  0  0  0  0  0  0
  127.3910  127.3020   71.9290 O   0  0  0  0  0  0  0  0  0  0  0  0
  128.1400  127.1110   70.7840 C   0  0  0  0  0  0  0  0  0  0  0  0
  127.6010  126.2550   69.8240 C   0  0  0  0  0  0  0  0  0  0  0  0
  128.2840  126.0000   68.6370 C   0  0  0  0  0  0  0  0  0  0  0  0
  129.5170  126.6090   68.3920 C   0  0  0  0  0  0  0  0  0  0  0  0
  130.1400  126.2800   67.1740 N   0  0  0  0  0  0  0  0  0  0  0  0
  131.2160  126.8510   66.5800 C   0  0  0  0  0  0  0  0  0  0  0  0
  131.8170  127.8240   67.0370 O   0  0  0  0  0  0  0  0  0  0  0  0
  131.6390  126.2370   65.3180 C   0  0  0  0  0  0  0  0  0  0  0  0
  133.0120  125.1330   65.2840 S   0  0  0  0  0  0  0  0  0  0  0  0
  132.8390  124.8970   63.5610 C   0  0  0  0  0  0  0  0  0  0  0  0
  133.6580  124.0930   62.8840 N   0  0  0  0  0  0  0  0  0  0  0  0
  133.4260  123.9920   61.5550 C   0  0  0  0  0  0  0  0  0  0  0  0
  134.3660  123.0670   60.8030 C   0  0  0  0  0  0  0  0  0  0  0  0
  132.4050  124.6700   60.8930 C   0  0  0  0  0  0  0  0  0  0  0  0
  131.5400  125.5190   61.6010 C   0  0  0  0  0  0  0  0  0  0  0  0
  130.4340  126.2450   60.8280 C   0  0  0  0  0  0  0  0  0  0  0  0
  130.4840  126.0240   59.5130 F   0  0  0  0  0  0  0  0  0  0  0  0
  129.2410  125.8350   61.2570 F   0  0  0  0  0  0  0  0  0  0  0  0
  130.5410  127.5610   61.0150 F   0  0  0  0  0  0  0  0  0  0  0  0
  131.7560  125.6460   63.0050 C   0  0  0  0  0  0  0  0  0  0  0  0
  131.0870  126.4010   64.0370 C   0  0  0  0  0  0  0  0  0  0  0  0
  130.0060  127.2060   63.7820 N   0  0  0  0  0  0  0  0  0  0  0  0
  130.0720  127.4600   69.3590 C   0  0  0  0  0  0  0  0  0  0  0  0
  129.3860  127.7120   70.5440 C   0  0  0  0  0  0  0  0  0  0  0  0
  127.4814  127.3609   73.9952 H   0  0  0  0  0  0  0  0  0  0  0  0
  129.0639  127.3198   73.1463 H   0  0  0  0  0  0  0  0  0  0  0  0
  128.0836  128.8249   73.1463 H   0  0  0  0  0  0  0  0  0  0  0  0
  126.6273  125.7766   70.0058 H   0  0  0  0  0  0  0  0  0  0  0  0
  127.8513  125.3174   67.8908 H   0  0  0  0  0  0  0  0  0  0  0  0
  129.6940  125.5310   66.6650 H   0  0  0  0  0  0  0  0  0  0  0  0
  134.9592  122.4833   61.5223 H   0  0  0  0  0  0  0  0  0  0  0  0
  133.7800  122.3836   60.1709 H   0  0  0  0  0  0  0  0  0  0  0  0
  135.0399  123.6639   60.1709 H   0  0  0  0  0  0  0  0  0  0  0  0
  132.2758  124.5392   59.8085 H   0  0  0  0  0  0  0  0  0  0  0  0
  129.0640  126.9260   64.0120 H   0  0  0  0  0  0  0  0  0  0  0  0
  130.1200  128.1150   63.3540 H   0  0  0  0  0  0  0  0  0  0  0  0
  131.0509  127.9291   69.1808 H   0  0  0  0  0  0  0  0  0  0  0  0
  129.8225  128.3855   71.2962 H   0  0  0  0  0  0  0  0  0  0  0  0
  1  2  1  0
  2  3  1  0
  3  4  2  0
  4  5  1  0
  5  6  2  0
  6  7  1  0
  7  8  1  0
  8  9  2  0
  8 10  1  0
 10 11  1  0
 11 12  1  0
 12 13  2  0
 13 14  1  0
 14 15  1  0
 14 16  2  0
 16 17  1  0
 17 18  1  0
 18 19  1  0
 18 20  1  0
 18 21  1  0
 17 22  2  0
 22 23  1  0
 23 24  1  0
  6 25  1  0
 25 26  2  0
 26  3  1  0
 23 10  2  0
 22 12  1  0
  1 27  1  0
  1 28  1  0
  1 29  1  0
  4 30  1  0
  5 31  1  0
  7 32  1  0
 15 33  1  0
 15 34  1  0
 15 35  1  0
 16 36  1  0
 24 37  1  0
 24 38  1  0
 25 39  1  0
 26 40  1  0
M  END
>  <Binding energies>  (1) 
[-5.92]

>  <Ligand effiencies>  (1) 
[-0.20413793103448274]

>  <Interactions>  (1) 
["H-A:GLU:543:OE1:4906, V-A:ARG:545:CZ:4923, V-A:ILE:369:CB:3232, H-A:GLU:543:OE2:4907, H-A:GLY:454:N:4046, V-A:ILE:369:CG1:3234, V-A:ILE:369:CG2:3233, V-A:HIS:456:CE1:4066, V-A:GLU:543:CD:4905, V-B:GLU:543:C:9871, V-B:GLU:543:CB:9875, V-B:HIS:456:CE1:9038, V-B:GLY:544:C:9881, V-B:HIS:456:CD2:9036, V-A:ASP:366:CG:3209, H-A:ARG:545:NE:4921, H-B:GLU:543:OE1:9878, V-B:LYS:547:CE:9919"]

$$$$
4bd_Grossjean_2025
     RDKit          3D

 36 38  0  0  0  0  0  0  0  0999 V2000
  133.5510  125.4960   65.4780 C   0  0  0  0  0  0  0  0  0  0  0  0
  132.9560  125.0300   64.1620 C   0  0  0  0  0  0  0  0  0  0  0  0
  133.7700  124.6020   63.1170 C   0  0  0  0  0  0  0  0  0  0  0  0
  133.2070  124.1750   61.9040 C   0  0  0  0  0  0  0  0  0  0  0  0
  134.1430  123.7160   60.7820 C   0  0  0  0  0  0  0  0  0  0  0  0
  135.4270  123.9820   61.0320 F   0  0  0  0  0  0  0  0  0  0  0  0
  134.0340  122.3980   60.6140 F   0  0  0  0  0  0  0  0  0  0  0  0
  133.8230  124.3340   59.6460 F   0  0  0  0  0  0  0  0  0  0  0  0
  131.7840  124.2020   61.8010 C   0  0  0  0  0  0  0  0  0  0  0  0
  130.8690  123.8490   60.7430 C   0  0  0  0  0  0  0  0  0  0  0  0
  131.2920  123.3690   59.5300 N   0  0  0  0  0  0  0  0  0  0  0  0
  129.5150  124.0400   61.0660 C   0  0  0  0  0  0  0  0  0  0  0  0
  128.3350  123.8030   60.2300 C   0  0  0  0  0  0  0  0  0  0  0  0
  128.4470  123.2910   59.1150 O   0  0  0  0  0  0  0  0  0  0  0  0
  127.1500  124.1710   60.7790 N   0  0  0  0  0  0  0  0  0  0  0  0
  125.8550  124.1170   60.2310 C   0  0  0  0  0  0  0  0  0  0  0  0
  125.7290  124.5640   58.9130 C   0  0  0  0  0  0  0  0  0  0  0  0
  124.4900  124.5400   58.2780 C   0  0  0  0  0  0  0  0  0  0  0  0
  123.3750  124.0620   58.9600 C   0  0  0  0  0  0  0  0  0  0  0  0
  123.4890  123.6020   60.2700 C   0  0  0  0  0  0  0  0  0  0  0  0
  124.7270  123.6240   60.9080 C   0  0  0  0  0  0  0  0  0  0  0  0
  129.3330  124.6620   62.7040 S   0  0  0  0  0  0  0  0  0  0  0  0
  131.0640  124.6650   62.9460 C   0  0  0  0  0  0  0  0  0  0  0  0
  131.6050  125.0680   64.0940 N   0  0  0  0  0  0  0  0  0  0  0  0
  132.9867  125.0541   66.3124 H   0  0  0  0  0  0  0  0  0  0  0  0
  134.6026  125.1788   65.5377 H   0  0  0  0  0  0  0  0  0  0  0  0
  133.4950  126.5929   65.5377 H   0  0  0  0  0  0  0  0  0  0  0  0
  134.8628  124.5984   63.2427 H   0  0  0  0  0  0  0  0  0  0  0  0
  132.2540  123.1070   59.3640 H   0  0  0  0  0  0  0  0  0  0  0  0
  130.6510  123.2530   58.7570 H   0  0  0  0  0  0  0  0  0  0  0  0
  127.1890  124.5210   61.7250 H   0  0  0  0  0  0  0  0  0  0  0  0
  126.6129  124.9366   58.3746 H   0  0  0  0  0  0  0  0  0  0  0  0
  124.3930  124.8972   57.2421 H   0  0  0  0  0  0  0  0  0  0  0  0
  122.3952  124.0473   58.4603 H   0  0  0  0  0  0  0  0  0  0  0  0
  122.6029  123.2221   60.7996 H   0  0  0  0  0  0  0  0  0  0  0  0
  124.8213  123.2559   61.9403 H   0  0  0  0  0  0  0  0  0  0  0  0
  1  2  1  0
  2  3  2  0
  3  4  1  0
  4  5  1  0
  5  6  1  0
  5  7  1  0
  5  8  1  0
  4  9  2  0
  9 10  1  0
 10 11  1  0
 10 12  2  0
 12 13  1  0
 13 14  2  0
 13 15  1  0
 15 16  1  0
 16 17  2  0
 17 18  1  0
 18 19  2  0
 19 20  1  0
 20 21  2  0
 12 22  1  0
 22 23  1  0
 23 24  2  0
 24  2  1  0
 23  9  1  0
 21 16  1  0
  1 25  1  0
  1 26  1  0
  1 27  1  0
  3 28  1  0
 11 29  1  0
 11 30  1  0
 15 31  1  0
 17 32  1  0
 18 33  1  0
 19 34  1  0
 20 35  1  0
 21 36  1  0
M  END
>  <Binding energies>  (1) 
[-6.23]

>  <Ligand effiencies>  (1) 
[-0.23074074074074075]

>  <Interactions>  (1) 
["V-B:GLU:543:CD:9877, V-A:ARG:545:CZ:4923, V-A:ILE:369:CB:3232, V-A:ARG:545:CG:4919, V-A:ILE:369:CG1:3234, V-A:ILE:369:CG2:3233, V-A:GLY:454:CA:4045, V-B:TYR:539:CE2:9845, V-A:HIS:456:CE1:4066, V-B:GLU:543:CG:9876, V-B:TYR:539:CZ:9846, V-A:ASP:366:CG:3209, V-A:ASP:366:CB:3208, V-A:ARG:545:CD:4920, V-A:GLY:453:C:4038, V-B:LEU:363:CD1:8157, V-B:PRO:540:CB:9854, V-B:LEU:363:CA:8153, V-B:PRO:540:CA:9852, V-A:GLY:453:CA:4040, V-B:LEU:363:CB:8155, V-B:ASN:362:C:8140, V-B:ASN:362:CB:8144, V-A:ASP:366:CA:3206, V-A:CYS:365:C:3200, H-B:TYR:539:OH:9847, H-B:GLU:543:OE2:9879"]

$$$$
4be_Grossjean_2025
     RDKit          3D

 38 40  0  0  0  0  0  0  0  0999 V2000
  127.0960  126.2500   69.1420 C   0  0  0  0  0  0  0  0  0  0  0  0
  127.9770  126.6050   67.9590 C   0  0  0  0  0  0  0  0  0  0  0  0
  129.1680  125.9220   67.7040 C   0  0  0  0  0  0  0  0  0  0  0  0
  129.9290  126.3040   66.5980 C   0  0  0  0  0  0  0  0  0  0  0  0
  129.4860  127.3480   65.7840 C   0  0  0  0  0  0  0  0  0  0  0  0
  128.2790  127.9860   66.0930 C   0  0  0  0  0  0  0  0  0  0  0  0
  127.8930  129.0340   65.2380 N   0  0  0  0  0  0  0  0  0  0  0  0
  126.6670  129.5930   65.0750 C   0  0  0  0  0  0  0  0  0  0  0  0
  125.6640  129.2410   65.6990 O   0  0  0  0  0  0  0  0  0  0  0  0
  126.5900  130.6580   64.0720 C   0  0  0  0  0  0  0  0  0  0  0  0
  127.4930  132.1550   64.2990 S   0  0  0  0  0  0  0  0  0  0  0  0
  126.8620  132.8140   62.8070 C   0  0  0  0  0  0  0  0  0  0  0  0
  127.2070  134.0290   62.3840 N   0  0  0  0  0  0  0  0  0  0  0  0
  126.6560  134.4300   61.2150 C   0  0  0  0  0  0  0  0  0  0  0  0
  127.0590  135.8170   60.7510 C   0  0  0  0  0  0  0  0  0  0  0  0
  125.7790  133.6500   60.4660 C   0  0  0  0  0  0  0  0  0  0  0  0
  125.4130  132.3680   60.9060 C   0  0  0  0  0  0  0  0  0  0  0  0
  124.4470  131.5460   60.0450 C   0  0  0  0  0  0  0  0  0  0  0  0
  124.0850  132.1730   58.9230 F   0  0  0  0  0  0  0  0  0  0  0  0
  125.0250  130.3980   59.6900 F   0  0  0  0  0  0  0  0  0  0  0  0
  123.3370  131.2860   60.7350 F   0  0  0  0  0  0  0  0  0  0  0  0
  125.9730  131.9170   62.1380 C   0  0  0  0  0  0  0  0  0  0  0  0
  125.8300  130.6960   62.8930 C   0  0  0  0  0  0  0  0  0  0  0  0
  125.0250  129.6640   62.4850 N   0  0  0  0  0  0  0  0  0  0  0  0
  127.5320  127.6210   67.1760 N   0  0  0  0  0  0  0  0  0  0  0  0
  127.6332  126.4664   70.0772 H   0  0  0  0  0  0  0  0  0  0  0  0
  126.1724  126.8461   69.1033 H   0  0  0  0  0  0  0  0  0  0  0  0
  126.8437  125.1800   69.1033 H   0  0  0  0  0  0  0  0  0  0  0  0
  129.4986  125.1025   68.3591 H   0  0  0  0  0  0  0  0  0  0  0  0
  130.8719  125.7857   66.3692 H   0  0  0  0  0  0  0  0  0  0  0  0
  130.0771  127.6648   64.9121 H   0  0  0  0  0  0  0  0  0  0  0  0
  128.6280  129.3820   64.6400 H   0  0  0  0  0  0  0  0  0  0  0  0
  127.2449  136.4568   61.6262 H   0  0  0  0  0  0  0  0  0  0  0  0
  127.9746  135.7493   60.1452 H   0  0  0  0  0  0  0  0  0  0  0  0
  126.2497  136.2505   60.1452 H   0  0  0  0  0  0  0  0  0  0  0  0
  125.3699  134.0410   59.5227 H   0  0  0  0  0  0  0  0  0  0  0  0
  125.4030  128.8020   62.1190 H   0  0  0  0  0  0  0  0  0  0  0  0
  124.0170  129.7340   62.5320 H   0  0  0  0  0  0  0  0  0  0  0  0
  1  2  1  0
  2  3  2  0
  3  4  1  0
  4  5  2  0
  5  6  1  0
  6  7  1  0
  7  8  1  0
  8  9  2  0
  8 10  1  0
 10 11  1  0
 11 12  1  0
 12 13  2  0
 13 14  1  0
 14 15  1  0
 14 16  2  0
 16 17  1  0
 17 18  1  0
 18 19  1  0
 18 20  1  0
 18 21  1  0
 17 22  2  0
 22 23  1  0
 23 24  1  0
  6 25  2  0
 25  2  1  0
 23 10  2  0
 22 12  1  0
  1 26  1  0
  1 27  1  0
  1 28  1  0
  3 29  1  0
  4 30  1  0
  5 31  1  0
  7 32  1  0
 15 33  1  0
 15 34  1  0
 15 35  1  0
 16 36  1  0
 24 37  1  0
 24 38  1  0
M  END
>  <Binding energies>  (1) 
[-6.25]

>  <Ligand effiencies>  (1) 
[-0.22321428571428573]

>  <Interactions>  (1) 
["V-B:GLU:543:CD:9877, H-A:GLU:543:OE1:4906, H-A:GLU:543:OE2:4907, V-A:HIS:456:CE1:4066, V-A:GLU:543:CD:4905, V-A:GLU:543:CG:4904, V-B:GLU:543:C:9871, V-B:GLU:543:CB:9875, V-B:HIS:456:CE1:9038, V-B:GLY:544:C:9881, V-B:ILE:369:CD1:8207, V-B:ILE:369:CG2:8205, V-B:ARG:545:CZ:9895, V-B:TRP:381:CH2:8340, V-A:ALA:541:CB:4889, V-A:TYR:539:CE2:4873, H-B:TYR:484:OH:9316, V-A:TYR:539:CD2:4871, V-B:LEU:475:CD2:9227, V-B:ASP:366:CB:8180, V-B:ASP:366:CG:8181, H-B:ASP:366:OD1:8182, H-B:ASP:366:OD2:8183, V-B:TYR:484:CE1:9313, V-B:TRP:381:CZ2:8338, V-B:ASP:366:CA:8178, V-B:ILE:369:CG1:8206, V-B:ILE:369:CB:8204"]

$$$$
4bf_Grossjean_2025
     RDKit          3D

 35 37  0  0  0  0  0  0  0  0999 V2000
  133.2140  125.4560   65.5140 C   0  0  0  0  0  0  0  0  0  0  0  0
  132.6490  125.0020   64.1800 C   0  0  0  0  0  0  0  0  0  0  0  0
  133.4830  124.5150   63.1770 C   0  0  0  0  0  0  0  0  0  0  0  0
  132.9470  124.1020   61.9470 C   0  0  0  0  0  0  0  0  0  0  0  0
  133.9040  123.5750   60.8710 C   0  0  0  0  0  0  0  0  0  0  0  0
  133.7490  124.1830   59.6920 F   0  0  0  0  0  0  0  0  0  0  0  0
  135.1650  123.7650   61.2560 F   0  0  0  0  0  0  0  0  0  0  0  0
  133.6930  122.2720   60.6780 F   0  0  0  0  0  0  0  0  0  0  0  0
  131.5340  124.2050   61.7820 C   0  0  0  0  0  0  0  0  0  0  0  0
  130.6470  123.8890   60.6900 C   0  0  0  0  0  0  0  0  0  0  0  0
  131.0950  123.3720   59.5000 N   0  0  0  0  0  0  0  0  0  0  0  0
  129.2930  124.1520   60.9540 C   0  0  0  0  0  0  0  0  0  0  0  0
  128.1390  123.9810   60.0660 C   0  0  0  0  0  0  0  0  0  0  0  0
  128.2480  123.3600   59.0080 O   0  0  0  0  0  0  0  0  0  0  0  0
  126.9810  124.5340   60.5050 N   0  0  0  0  0  0  0  0  0  0  0  0
  125.7210  124.5910   59.8800 C   0  0  0  0  0  0  0  0  0  0  0  0
  124.5670  123.9130   60.3100 C   0  0  0  0  0  0  0  0  0  0  0  0
  123.3790  124.0440   59.5860 C   0  0  0  0  0  0  0  0  0  0  0  0
  123.3770  124.8480   58.4460 C   0  0  0  0  0  0  0  0  0  0  0  0
  124.4780  125.5060   58.0060 N   0  0  0  0  0  0  0  0  0  0  0  0
  125.6260  125.3680   58.7200 C   0  0  0  0  0  0  0  0  0  0  0  0
  129.0760  124.8090   62.5740 S   0  0  0  0  0  0  0  0  0  0  0  0
  130.7930  124.7220   62.8900 C   0  0  0  0  0  0  0  0  0  0  0  0
  131.3060  125.1120   64.0560 N   0  0  0  0  0  0  0  0  0  0  0  0
  132.6401  124.9948   66.3313 H   0  0  0  0  0  0  0  0  0  0  0  0
  134.2682  125.1509   65.5886 H   0  0  0  0  0  0  0  0  0  0  0  0
  133.1431  126.5512   65.5886 H   0  0  0  0  0  0  0  0  0  0  0  0
  134.5677  124.4535   63.3493 H   0  0  0  0  0  0  0  0  0  0  0  0
  130.4680  123.1800   58.7320 H   0  0  0  0  0  0  0  0  0  0  0  0
  132.0730  123.1660   59.3520 H   0  0  0  0  0  0  0  0  0  0  0  0
  127.0130  124.9650   61.4180 H   0  0  0  0  0  0  0  0  0  0  0  0
  124.5990  123.2830   61.2112 H   0  0  0  0  0  0  0  0  0  0  0  0
  122.4647  123.5241   59.9082 H   0  0  0  0  0  0  0  0  0  0  0  0
  122.4405  124.9529   57.8787 H   0  0  0  0  0  0  0  0  0  0  0  0
  126.5260  125.8936   58.3684 H   0  0  0  0  0  0  0  0  0  0  0  0
  1  2  1  0
  2  3  2  0
  3  4  1  0
  4  5  1  0
  5  6  1  0
  5  7  1  0
  5  8  1  0
  4  9  2  0
  9 10  1  0
 10 11  1  0
 10 12  2  0
 12 13  1  0
 13 14  2  0
 13 15  1  0
 15 16  1  0
 16 17  2  0
 17 18  1  0
 18 19  2  0
 19 20  1  0
 20 21  2  0
 12 22  1  0
 22 23  1  0
 23 24  2  0
 24  2  1  0
 23  9  1  0
 21 16  1  0
  1 25  1  0
  1 26  1  0
  1 27  1  0
  3 28  1  0
 11 29  1  0
 11 30  1  0
 15 31  1  0
 17 32  1  0
 18 33  1  0
 19 34  1  0
 21 35  1  0
M  END
>  <Binding energies>  (1) 
[-6.31]

>  <Ligand effiencies>  (1) 
[-0.2337037037037037]

>  <Interactions>  (1) 
["V-B:GLU:543:CD:9877, V-A:ARG:545:CZ:4923, V-A:ILE:369:CB:3232, V-A:ARG:545:CG:4919, V-A:ILE:369:CG1:3234, V-A:ILE:369:CG2:3233, V-A:GLY:454:CA:4045, V-B:TYR:539:CE2:9845, V-A:HIS:456:CE1:4066, V-B:GLU:543:CG:9876, V-B:TYR:539:CZ:9846, V-B:ASP:366:CB:8180, V-A:ASP:366:CG:3209, V-A:ASP:366:CB:3208, V-A:ARG:545:CD:4920, V-A:GLY:453:C:4038, V-B:LEU:363:CD1:8157, V-B:PRO:540:CB:9854, V-B:LEU:363:CA:8153, V-B:PRO:540:CA:9852, V-A:GLY:453:CA:4040, V-B:LEU:363:CB:8155, V-B:ASN:362:C:8140, H-B:TYR:531:OH:9764, V-A:ASP:366:CA:3206, H-B:TYR:539:OH:9847, H-B:GLU:543:OE2:9879"]

$$$$
4bg_Grossjean_2025
     RDKit          3D

 39 41  0  0  0  0  0  0  0  0999 V2000
  134.7570  125.1200   65.8100 C   0  0  0  0  0  0  0  0  0  0  0  0
  133.4140  124.9470   65.1240 C   0  0  0  0  0  0  0  0  0  0  0  0
  132.3090  125.6990   65.5120 C   0  0  0  0  0  0  0  0  0  0  0  0
  131.0700  125.5250   64.8730 C   0  0  0  0  0  0  0  0  0  0  0  0
  129.8820  126.3750   65.3340 C   0  0  0  0  0  0  0  0  0  0  0  0
  129.2910  127.0330   64.3340 F   0  0  0  0  0  0  0  0  0  0  0  0
  128.9600  125.5940   65.8970 F   0  0  0  0  0  0  0  0  0  0  0  0
  130.2920  127.2820   66.2210 F   0  0  0  0  0  0  0  0  0  0  0  0
  131.0070  124.5570   63.8270 C   0  0  0  0  0  0  0  0  0  0  0  0
  129.9390  124.1080   62.9690 C   0  0  0  0  0  0  0  0  0  0  0  0
  128.6610  124.6010   63.0530 N   0  0  0  0  0  0  0  0  0  0  0  0
  130.3250  123.1310   62.0380 C   0  0  0  0  0  0  0  0  0  0  0  0
  129.5010  122.4380   61.0480 C   0  0  0  0  0  0  0  0  0  0  0  0
  129.4780  121.2090   60.9760 O   0  0  0  0  0  0  0  0  0  0  0  0
  128.7460  123.2260   60.2540 N   0  0  0  0  0  0  0  0  0  0  0  0
  127.8610  122.7580   59.1870 C   0  0  0  0  0  0  0  0  0  0  0  0
  126.4200  123.2280   59.3400 C   0  0  0  0  0  0  0  0  0  0  0  0
  125.6690  123.5640   58.2100 C   0  0  0  0  0  0  0  0  0  0  0  0
  124.3410  123.9570   58.3490 C   0  0  0  0  0  0  0  0  0  0  0  0
  123.7620  123.9990   59.6160 C   0  0  0  0  0  0  0  0  0  0  0  0
  124.4990  123.6480   60.7450 C   0  0  0  0  0  0  0  0  0  0  0  0
  125.8290  123.2570   60.6060 C   0  0  0  0  0  0  0  0  0  0  0  0
  132.0240  122.7060   62.2220 S   0  0  0  0  0  0  0  0  0  0  0  0
  132.2160  123.8580   63.5220 C   0  0  0  0  0  0  0  0  0  0  0  0
  133.3880  124.0260   64.1340 N   0  0  0  0  0  0  0  0  0  0  0  0
  134.6166  125.1019   66.9008 H   0  0  0  0  0  0  0  0  0  0  0  0
  135.4286  124.3009   65.5131 H   0  0  0  0  0  0  0  0  0  0  0  0
  135.1991  126.0825   65.5131 H   0  0  0  0  0  0  0  0  0  0  0  0
  132.4064  126.4344   66.3243 H   0  0  0  0  0  0  0  0  0  0  0  0
  128.4740  125.5660   63.2790 H   0  0  0  0  0  0  0  0  0  0  0  0
  127.8580  124.0060   62.8980 H   0  0  0  0  0  0  0  0  0  0  0  0
  128.8750  124.2260   60.3140 H   0  0  0  0  0  0  0  0  0  0  0  0
  128.2478  123.1292   58.2265 H   0  0  0  0  0  0  0  0  0  0  0  0
  127.8490  121.6592   59.2365 H   0  0  0  0  0  0  0  0  0  0  0  0
  126.1274  123.5178   57.2111 H   0  0  0  0  0  0  0  0  0  0  0  0
  123.7510  124.2332   57.4626 H   0  0  0  0  0  0  0  0  0  0  0  0
  122.7133  124.3122   59.7257 H   0  0  0  0  0  0  0  0  0  0  0  0
  124.0332  123.6794   61.7410 H   0  0  0  0  0  0  0  0  0  0  0  0
  126.4138  122.9711   61.4927 H   0  0  0  0  0  0  0  0  0  0  0  0
  1  2  1  0
  2  3  2  0
  3  4  1  0
  4  5  1  0
  5  6  1  0
  5  7  1  0
  5  8  1  0
  4  9  2  0
  9 10  1  0
 10 11  1  0
 10 12  2  0
 12 13  1  0
 13 14  2  0
 13 15  1  0
 15 16  1  0
 16 17  1  0
 17 18  2  0
 18 19  1  0
 19 20  2  0
 20 21  1  0
 21 22  2  0
 12 23  1  0
 23 24  1  0
 24 25  2  0
 25  2  1  0
 24  9  1  0
 22 17  1  0
  1 26  1  0
  1 27  1  0
  1 28  1  0
  3 29  1  0
 11 30  1  0
 11 31  1  0
 15 32  1  0
 16 33  1  0
 16 34  1  0
 18 35  1  0
 19 36  1  0
 20 37  1  0
 21 38  1  0
 22 39  1  0
M  END
>  <Binding energies>  (1) 
[-6.76]

>  <Ligand effiencies>  (1) 
[-0.2414285714285714]

>  <Interactions>  (1) 
["V-A:LEU:475:CD1:4254, V-B:GLU:543:CD:9877, V-A:ARG:545:CZ:4923, H-A:GLY:454:N:4046, V-A:ARG:545:CG:4919, V-A:GLY:454:CA:4045, V-B:TYR:539:CE2:9845, V-A:HIS:456:CE1:4066, V-A:GLY:454:C:4043, V-A:GLU:543:CD:4905, V-B:GLU:543:CB:9875, V-A:GLU:543:CB:4903, V-B:GLU:543:CG:9876, V-B:ALA:541:CB:9861, H-A:TYR:484:OH:4344, H-B:GLU:543:OE1:9878, V-A:ARG:545:CD:4920, V-A:GLY:453:C:4038, V-B:LEU:363:CD1:8157, V-B:PRO:540:CB:9854, V-B:LEU:363:CA:8153, V-B:PRO:540:C:9850, V-B:PRO:540:CA:9852, V-A:GLY:453:CA:4040, V-B:ASN:362:C:8140, V-B:ASN:362:CB:8144, H-B:GLU:543:OE2:9879"]

$$$$
4bh_Grossjean_2025
     RDKit          3D

 51 53  0  0  0  0  0  0  0  0999 V2000
  122.9900  129.6280   66.5830 C   0  0  0  0  0  0  0  0  0  0  0  0
  123.5740  129.6530   65.2850 O   0  0  0  0  0  0  0  0  0  0  0  0
  124.9340  129.8660   65.1560 C   0  0  0  0  0  0  0  0  0  0  0  0
  125.9110  129.1400   65.8560 C   0  0  0  0  0  0  0  0  0  0  0  0
  127.2680  129.4100   65.6780 C   0  0  0  0  0  0  0  0  0  0  0  0
  128.3160  128.5810   66.4120 C   0  0  0  0  0  0  0  0  0  0  0  0
  129.1610  127.7870   65.5200 N   0  0  0  0  0  0  0  0  0  0  0  0
  130.1890  127.0040   65.9090 C   0  0  0  0  0  0  0  0  0  0  0  0
  130.5450  126.9130   67.0860 O   0  0  0  0  0  0  0  0  0  0  0  0
  130.8950  126.2930   64.8430 C   0  0  0  0  0  0  0  0  0  0  0  0
  132.2500  125.2390   65.2330 S   0  0  0  0  0  0  0  0  0  0  0  0
  132.5090  124.8750   63.5430 C   0  0  0  0  0  0  0  0  0  0  0  0
  133.4800  124.0510   63.1500 N   0  0  0  0  0  0  0  0  0  0  0  0
  133.5800  123.8450   61.8170 C   0  0  0  0  0  0  0  0  0  0  0  0
  134.6940  122.9050   61.3910 C   0  0  0  0  0  0  0  0  0  0  0  0
  132.7410  124.4350   60.8760 C   0  0  0  0  0  0  0  0  0  0  0  0
  131.7170  125.3050   61.2830 C   0  0  0  0  0  0  0  0  0  0  0  0
  130.8170  125.9290   60.2120 C   0  0  0  0  0  0  0  0  0  0  0  0
  131.2170  125.6570   58.9680 F   0  0  0  0  0  0  0  0  0  0  0  0
  129.5740  125.4650   60.3410 F   0  0  0  0  0  0  0  0  0  0  0  0
  130.8070  127.2550   60.3470 F   0  0  0  0  0  0  0  0  0  0  0  0
  131.5860  125.5470   62.6830 C   0  0  0  0  0  0  0  0  0  0  0  0
  130.6820  126.3620   63.4570 C   0  0  0  0  0  0  0  0  0  0  0  0
  129.6990  127.1290   62.8860 N   0  0  0  0  0  0  0  0  0  0  0  0
  127.6600  130.3970   64.7710 C   0  0  0  0  0  0  0  0  0  0  0  0
  126.7050  131.1430   64.0640 C   0  0  0  0  0  0  0  0  0  0  0  0
  127.0200  132.1430   63.1610 O   0  0  0  0  0  0  0  0  0  0  0  0
  128.1230  131.9640   62.2780 C   0  0  0  0  0  0  0  0  0  0  0  0
  125.3450  130.8710   64.2700 C   0  0  0  0  0  0  0  0  0  0  0  0
  124.3990  131.5830   63.5700 O   0  0  0  0  0  0  0  0  0  0  0  0
  124.1240  131.0610   62.2770 C   0  0  0  0  0  0  0  0  0  0  0  0
  123.7843  129.6620   67.3432 H   0  0  0  0  0  0  0  0  0  0  0  0
  122.3288  130.4987   66.7044 H   0  0  0  0  0  0  0  0  0  0  0  0
  122.4056  128.7040   66.7044 H   0  0  0  0  0  0  0  0  0  0  0  0
  125.6023  128.3479   66.5540 H   0  0  0  0  0  0  0  0  0  0  0  0
  128.9602  129.2632   66.9861 H   0  0  0  0  0  0  0  0  0  0  0  0
  127.7751  127.8748   67.0591 H   0  0  0  0  0  0  0  0  0  0  0  0
  128.8720  127.7480   64.5530 H   0  0  0  0  0  0  0  0  0  0  0  0
  135.1853  122.4904   62.2836 H   0  0  0  0  0  0  0  0  0  0  0  0
  134.2726  122.0854   60.7904 H   0  0  0  0  0  0  0  0  0  0  0  0
  135.4310  123.4583   60.7904 H   0  0  0  0  0  0  0  0  0  0  0  0
  132.8812  124.2182   59.8067 H   0  0  0  0  0  0  0  0  0  0  0  0
  128.8620  126.7190   62.4940 H   0  0  0  0  0  0  0  0  0  0  0  0
  129.7820  128.1340   62.8310 H   0  0  0  0  0  0  0  0  0  0  0  0
  128.7304  130.5918   64.6090 H   0  0  0  0  0  0  0  0  0  0  0  0
  129.0417  131.8149   62.8644 H   0  0  0  0  0  0  0  0  0  0  0  0
  127.9458  131.0829   61.6438 H   0  0  0  0  0  0  0  0  0  0  0  0
  128.2335  132.8560   61.6438 H   0  0  0  0  0  0  0  0  0  0  0  0
  123.6133  130.0916   62.3740 H   0  0  0  0  0  0  0  0  0  0  0  0
  123.4783  131.7623   61.7282 H   0  0  0  0  0  0  0  0  0  0  0  0
  125.0676  130.9251   61.7282 H   0  0  0  0  0  0  0  0  0  0  0  0
  1  2  1  0
  2  3  1  0
  3  4  2  0
  4  5  1  0
  5  6  1  0
  6  7  1  0
  7  8  1  0
  8  9  2  0
  8 10  1  0
 10 11  1  0
 11 12  1  0
 12 13  2  0
 13 14  1  0
 14 15  1  0
 14 16  2  0
 16 17  1  0
 17 18  1  0
 18 19  1  0
 18 20  1  0
 18 21  1  0
 17 22  2  0
 22 23  1  0
 23 24  1  0
  5 25  2  0
 25 26  1  0
 26 27  1  0
 27 28  1  0
 26 29  2  0
 29 30  1  0
 30 31  1  0
 29  3  1  0
 23 10  2  0
 22 12  1  0
  1 32  1  0
  1 33  1  0
  1 34  1  0
  4 35  1  0
  6 36  1  0
  6 37  1  0
  7 38  1  0
 15 39  1  0
 15 40  1  0
 15 41  1  0
 16 42  1  0
 24 43  1  0
 24 44  1  0
 25 45  1  0
 28 46  1  0
 28 47  1  0
 28 48  1  0
 31 49  1  0
 31 50  1  0
 31 51  1  0
M  END
>  <Binding energies>  (1) 
[-6.55]

>  <Ligand effiencies>  (1) 
[-0.1926470588235294]

>  <Interactions>  (1) 
["H-A:GLU:543:OE1:4906, V-A:ARG:545:CZ:4923, H-A:GLU:543:OE2:4907, H-A:GLY:454:N:4046, V-A:ILE:369:CG1:3234, V-A:GLY:454:CA:4045, V-A:HIS:456:CE1:4066, V-A:GLU:543:CD:4905, V-A:GLU:543:CG:4904, V-B:HIS:456:CE1:9038, V-A:GLU:543:CB:4903, V-B:ILE:369:CD1:8207, V-B:ARG:545:CZ:9895, V-A:ALA:541:CB:4889, V-B:ARG:545:CD:9892, H-B:TYR:484:OH:9316, V-B:ASP:366:CG:8181, V-A:ASP:366:CG:3209, V-A:ASP:366:CB:3208, H-B:GLU:543:OE1:9878, H-B:GLY:454:N:9018, V-A:GLY:453:C:4038, V-B:GLY:453:CA:9012, V-B:GLY:453:C:9010, V-B:ARG:545:CG:9891, V-A:GLY:453:CA:4040, V-B:ILE:455:C:9020, H-B:ARG:545:NH1:9896, H-B:ARG:545:NE:9893, H-B:GLU:543:OE2:9879"]

$$$$
4bi_Grossjean_2025
     RDKit          3D

 32 34  0  0  0  0  0  0  0  0999 V2000
  133.4980  125.1000   65.3070 C   0  0  0  0  0  0  0  0  0  0  0  0
  132.7850  124.6860   64.0320 C   0  0  0  0  0  0  0  0  0  0  0  0
  133.4980  124.4000   62.8710 C   0  0  0  0  0  0  0  0  0  0  0  0
  132.8260  124.0140   61.7000 C   0  0  0  0  0  0  0  0  0  0  0  0
  133.6540  123.7010   60.4500 C   0  0  0  0  0  0  0  0  0  0  0  0
  134.9520  123.9730   60.6020 F   0  0  0  0  0  0  0  0  0  0  0  0
  133.5510  122.4070   60.1510 F   0  0  0  0  0  0  0  0  0  0  0  0
  133.2120  124.4270   59.4220 F   0  0  0  0  0  0  0  0  0  0  0  0
  131.4020  123.9370   61.7610 C   0  0  0  0  0  0  0  0  0  0  0  0
  130.3960  123.5900   60.7880 C   0  0  0  0  0  0  0  0  0  0  0  0
  130.7020  123.2470   59.4950 N   0  0  0  0  0  0  0  0  0  0  0  0
  129.0820  123.6270   61.2820 C   0  0  0  0  0  0  0  0  0  0  0  0
  127.8300  123.3490   60.5710 C   0  0  0  0  0  0  0  0  0  0  0  0
  127.8400  122.7790   59.4780 O   0  0  0  0  0  0  0  0  0  0  0  0
  126.6990  123.7420   61.2090 N   0  0  0  0  0  0  0  0  0  0  0  0
  125.3890  123.5930   60.7740 C   0  0  0  0  0  0  0  0  0  0  0  0
  124.8990  124.1910   59.6140 C   0  0  0  0  0  0  0  0  0  0  0  0
  123.5800  123.8040   59.5410 C   0  0  0  0  0  0  0  0  0  0  0  0
  123.2910  123.0130   60.6020 O   0  0  0  0  0  0  0  0  0  0  0  0
  124.4460  122.8880   61.3770 N   0  0  0  0  0  0  0  0  0  0  0  0
  129.0510  124.1210   62.9730 S   0  0  0  0  0  0  0  0  0  0  0  0
  130.7930  124.2560   63.0130 C   0  0  0  0  0  0  0  0  0  0  0  0
  131.4360  124.6200   64.1220 N   0  0  0  0  0  0  0  0  0  0  0  0
  132.9171  124.7627   66.1780 H   0  0  0  0  0  0  0  0  0  0  0  0
  134.4977  124.6419   65.3333 H   0  0  0  0  0  0  0  0  0  0  0  0
  133.5958  126.1953   65.3333 H   0  0  0  0  0  0  0  0  0  0  0  0
  134.5953  124.4769   62.8710 H   0  0  0  0  0  0  0  0  0  0  0  0
  131.6410  123.3240   59.1300 H   0  0  0  0  0  0  0  0  0  0  0  0
  129.9940  122.9100   58.8590 H   0  0  0  0  0  0  0  0  0  0  0  0
  126.8100  124.1880   62.1080 H   0  0  0  0  0  0  0  0  0  0  0  0
  125.4477  124.8332   58.9094 H   0  0  0  0  0  0  0  0  0  0  0  0
  122.8737  124.0911   58.7480 H   0  0  0  0  0  0  0  0  0  0  0  0
  1  2  1  0
  2  3  2  0
  3  4  1  0
  4  5  1  0
  5  6  1  0
  5  7  1  0
  5  8  1  0
  4  9  2  0
  9 10  1  0
 10 11  1  0
 10 12  2  0
 12 13  1  0
 13 14  2  0
 13 15  1  0
 15 16  1  0
 16 17  1  0
 17 18  2  0
 18 19  1  0
 19 20  1  0
 12 21  1  0
 21 22  1  0
 22 23  2  0
 23  2  1  0
 22  9  1  0
 20 16  2  0
  1 24  1  0
  1 25  1  0
  1 26  1  0
  3 27  1  0
 11 28  1  0
 11 29  1  0
 15 30  1  0
 17 31  1  0
 18 32  1  0
M  END
>  <Binding energies>  (1) 
[-6.48]

>  <Ligand effiencies>  (1) 
[-0.24923076923076926]

>  <Interactions>  (1) 
["V-B:GLU:543:CD:9877, V-A:ARG:545:CZ:4923, V-A:ILE:369:CB:3232, V-A:ILE:369:CG1:3234, V-A:ILE:369:CG2:3233, V-A:GLY:454:CA:4045, V-B:TYR:539:CE2:9845, V-A:HIS:456:CE1:4066, V-B:GLU:543:CG:9876, V-B:TYR:539:CZ:9846, H-B:ALA:541:N:9860, V-B:TYR:539:CD2:9843, V-B:ALA:541:CB:9861, V-A:ASP:366:CG:3209, V-A:ASP:366:CB:3208, H-A:TYR:484:OH:4344, V-A:ARG:545:CD:4920, V-B:LEU:363:CD1:8157, V-B:PRO:540:CB:9854, V-B:LEU:363:CA:8153, V-B:PRO:540:CA:9852, V-B:LEU:363:CB:8155, V-B:ASN:362:C:8140, V-A:ASP:366:CA:3206, H-B:TYR:539:OH:9847, H-B:GLU:543:OE2:9879, H-B:LEU:363:N:8154"]

$$$$
4bj_Grossjean_2025
     RDKit          3D

 32 34  0  0  0  0  0  0  0  0999 V2000
  133.5870  125.0810   65.2970 C   0  0  0  0  0  0  0  0  0  0  0  0
  132.8740  124.6670   64.0230 C   0  0  0  0  0  0  0  0  0  0  0  0
  133.5880  124.3630   62.8670 C   0  0  0  0  0  0  0  0  0  0  0  0
  132.9150  123.9880   61.6940 C   0  0  0  0  0  0  0  0  0  0  0  0
  133.7440  123.6660   60.4450 C   0  0  0  0  0  0  0  0  0  0  0  0
  133.3810  124.3810   59.3790 F   0  0  0  0  0  0  0  0  0  0  0  0
  135.0310  123.9210   60.6800 F   0  0  0  0  0  0  0  0  0  0  0  0
  133.6000  122.3780   60.1300 F   0  0  0  0  0  0  0  0  0  0  0  0
  131.4900  123.9320   61.7480 C   0  0  0  0  0  0  0  0  0  0  0  0
  130.4820  123.6010   60.7700 C   0  0  0  0  0  0  0  0  0  0  0  0
  130.7890  123.2510   59.4790 N   0  0  0  0  0  0  0  0  0  0  0  0
  129.1680  123.6630   61.2580 C   0  0  0  0  0  0  0  0  0  0  0  0
  127.9160  123.4030   60.5430 C   0  0  0  0  0  0  0  0  0  0  0  0
  127.9220  122.8560   59.4380 O   0  0  0  0  0  0  0  0  0  0  0  0
  126.7860  123.7890   61.1870 N   0  0  0  0  0  0  0  0  0  0  0  0
  125.4810  123.6470   60.7370 C   0  0  0  0  0  0  0  0  0  0  0  0
  124.4770  123.0510   61.3430 N   0  0  0  0  0  0  0  0  0  0  0  0
  123.3730  123.1110   60.6260 C   0  0  0  0  0  0  0  0  0  0  0  0
  123.4670  123.7700   59.4040 C   0  0  0  0  0  0  0  0  0  0  0  0
  125.0970  124.3350   59.1910 S   0  0  0  0  0  0  0  0  0  0  0  0
  129.1370  124.1580   62.9490 S   0  0  0  0  0  0  0  0  0  0  0  0
  130.8810  124.2640   62.9970 C   0  0  0  0  0  0  0  0  0  0  0  0
  131.5240  124.6220   64.1080 N   0  0  0  0  0  0  0  0  0  0  0  0
  133.0063  124.7438   66.1683 H   0  0  0  0  0  0  0  0  0  0  0  0
  134.5867  124.6229   65.3231 H   0  0  0  0  0  0  0  0  0  0  0  0
  133.6848  126.1763   65.3231 H   0  0  0  0  0  0  0  0  0  0  0  0
  134.6867  124.4171   62.8732 H   0  0  0  0  0  0  0  0  0  0  0  0
  131.7320  123.2990   59.1220 H   0  0  0  0  0  0  0  0  0  0  0  0
  130.0740  122.9370   58.8370 H   0  0  0  0  0  0  0  0  0  0  0  0
  126.8930  124.2200   62.0930 H   0  0  0  0  0  0  0  0  0  0  0  0
  122.4297  122.6650   60.9741 H   0  0  0  0  0  0  0  0  0  0  0  0
  122.6432  123.9106   58.6887 H   0  0  0  0  0  0  0  0  0  0  0  0
  1  2  1  0
  2  3  2  0
  3  4  1  0
  4  5  1  0
  5  6  1  0
  5  7  1  0
  5  8  1  0
  4  9  2  0
  9 10  1  0
 10 11  1  0
 10 12  2  0
 12 13  1  0
 13 14  2  0
 13 15  1  0
 15 16  1  0
 16 17  2  0
 17 18  1  0
 18 19  2  0
 19 20  1  0
 12 21  1  0
 21 22  1  0
 22 23  2  0
 23  2  1  0
 22  9  1  0
 20 16  1  0
  1 24  1  0
  1 25  1  0
  1 26  1  0
  3 27  1  0
 11 28  1  0
 11 29  1  0
 15 30  1  0
 18 31  1  0
 19 32  1  0
M  END
>  <Binding energies>  (1) 
[-6.31]

>  <Ligand effiencies>  (1) 
[-0.24269230769230768]

>  <Interactions>  (1) 
["V-B:GLU:543:CD:9877, V-A:ARG:545:CZ:4923, V-A:ILE:369:CB:3232, V-A:ILE:369:CG1:3234, V-A:ILE:369:CG2:3233, V-A:GLY:454:CA:4045, V-B:TYR:539:CE2:9845, V-A:HIS:456:CE1:4066, V-B:GLU:543:CG:9876, V-B:TYR:539:CZ:9846, H-B:ALA:541:N:9860, V-B:TYR:539:CD2:9843, V-B:ALA:541:CB:9861, V-A:ASP:366:CG:3209, V-A:ASP:366:CB:3208, H-A:TYR:484:OH:4344, V-A:ARG:545:CD:4920, V-B:LEU:363:CD1:8157, V-B:PRO:540:CB:9854, V-B:LEU:363:CA:8153, V-B:PRO:540:CA:9852, V-A:GLY:453:CA:4040, V-B:LEU:363:CB:8155, V-B:ASN:362:C:8140, V-B:ASN:362:CB:8144, V-A:ASP:366:CA:3206, V-B:ASN:362:CA:8142, H-B:TYR:539:OH:9847, H-B:GLU:543:OE2:9879"]

$$$$
4bk_Grossjean_2025
     RDKit          3D

 50 51  0  0  0  0  0  0  0  0999 V2000
  130.8570  122.4840   73.0050 C   0  0  0  0  0  0  0  0  0  0  0  0
  129.7880  123.4170   72.9860 O   0  0  0  0  0  0  0  0  0  0  0  0
  130.1870  124.7410   73.3170 C   0  0  0  0  0  0  0  0  0  0  0  0
  129.5570  125.7280   72.3250 C   0  0  0  0  0  0  0  0  0  0  0  0
  129.7240  127.0540   72.8090 O   0  0  0  0  0  0  0  0  0  0  0  0
  129.3770  128.0570   71.8640 C   0  0  0  0  0  0  0  0  0  0  0  0
  128.9690  127.3930   70.5410 C   0  0  0  0  0  0  0  0  0  0  0  0
  130.1370  127.0420   69.8130 O   0  0  0  0  0  0  0  0  0  0  0  0
  130.6500  128.0950   69.0050 C   0  0  0  0  0  0  0  0  0  0  0  0
  129.9120  128.1090   67.6560 C   0  0  0  0  0  0  0  0  0  0  0  0
  130.5300  127.2560   66.6390 N   0  0  0  0  0  0  0  0  0  0  0  0
  130.2540  125.9500   66.4450 C   0  0  0  0  0  0  0  0  0  0  0  0
  129.4160  125.3450   67.1160 O   0  0  0  0  0  0  0  0  0  0  0  0
  131.0040  125.2850   65.3780 C   0  0  0  0  0  0  0  0  0  0  0  0
  132.6080  125.8620   64.9340 S   0  0  0  0  0  0  0  0  0  0  0  0
  132.7720  124.6090   63.7270 C   0  0  0  0  0  0  0  0  0  0  0  0
  133.8680  124.5050   62.9770 N   0  0  0  0  0  0  0  0  0  0  0  0
  133.8800  123.4940   62.0780 C   0  0  0  0  0  0  0  0  0  0  0  0
  135.1400  123.3920   61.2370 C   0  0  0  0  0  0  0  0  0  0  0  0
  132.8300  122.5940   61.9120 C   0  0  0  0  0  0  0  0  0  0  0  0
  131.6710  122.6990   62.6960 C   0  0  0  0  0  0  0  0  0  0  0  0
  130.5420  121.6880   62.4750 C   0  0  0  0  0  0  0  0  0  0  0  0
  130.8920  120.6810   61.6710 F   0  0  0  0  0  0  0  0  0  0  0  0
  130.1740  121.1590   63.6410 F   0  0  0  0  0  0  0  0  0  0  0  0
  129.4950  122.2960   61.9180 F   0  0  0  0  0  0  0  0  0  0  0  0
  131.6270  123.7540   63.6560 C   0  0  0  0  0  0  0  0  0  0  0  0
  130.6350  124.1650   64.6180 C   0  0  0  0  0  0  0  0  0  0  0  0
  129.4360  123.5170   64.7700 N   0  0  0  0  0  0  0  0  0  0  0  0
  131.1228  122.2521   74.0469 H   0  0  0  0  0  0  0  0  0  0  0  0
  130.5479  121.5617   72.4914 H   0  0  0  0  0  0  0  0  0  0  0  0
  131.7290  122.9150   72.4914 H   0  0  0  0  0  0  0  0  0  0  0  0
  129.8511  124.9811   74.3366 H   0  0  0  0  0  0  0  0  0  0  0  0
  131.2831  124.8177   73.2646 H   0  0  0  0  0  0  0  0  0  0  0  0
  130.0495  125.6296   71.3464 H   0  0  0  0  0  0  0  0  0  0  0  0
  128.4846  125.5079   72.2181 H   0  0  0  0  0  0  0  0  0  0  0  0
  128.5358  128.6506   72.2513 H   0  0  0  0  0  0  0  0  0  0  0  0
  130.2416  128.7152   71.6931 H   0  0  0  0  0  0  0  0  0  0  0  0
  128.3804  126.4876   70.7503 H   0  0  0  0  0  0  0  0  0  0  0  0
  128.3618  128.0934   69.9487 H   0  0  0  0  0  0  0  0  0  0  0  0
  130.4986  129.0571   69.5163 H   0  0  0  0  0  0  0  0  0  0  0  0
  131.7251  127.9370   68.8342 H   0  0  0  0  0  0  0  0  0  0  0  0
  128.8810  127.7624   67.8204 H   0  0  0  0  0  0  0  0  0  0  0  0
  129.9521  129.1412   67.2779 H   0  0  0  0  0  0  0  0  0  0  0  0
  131.2270  127.6930   66.0550 H   0  0  0  0  0  0  0  0  0  0  0  0
  136.0169  123.3210   61.8974 H   0  0  0  0  0  0  0  0  0  0  0  0
  135.0855  122.4953   60.6022 H   0  0  0  0  0  0  0  0  0  0  0  0
  135.2305  124.2858   60.6022 H   0  0  0  0  0  0  0  0  0  0  0  0
  132.9100  121.7947   61.1605 H   0  0  0  0  0  0  0  0  0  0  0  0
  128.8630  123.6380   65.5950 H   0  0  0  0  0  0  0  0  0  0  0  0
  129.0800  122.8970   64.0560 H   0  0  0  0  0  0  0  0  0  0  0  0
  1  2  1  0
  2  3  1  0
  3  4  1  0
  4  5  1  0
  5  6  1  0
  6  7  1  0
  7  8  1  0
  8  9  1  0
  9 10  1  0
 10 11  1  0
 11 12  1  0
 12 13  2  0
 12 14  1  0
 14 15  1  0
 15 16  1  0
 16 17  2  0
 17 18  1  0
 18 19  1  0
 18 20  2  0
 20 21  1  0
 21 22  1  0
 22 23  1  0
 22 24  1  0
 22 25  1  0
 21 26  2  0
 26 27  1  0
 27 28  1  0
 27 14  2  0
 26 16  1  0
  1 29  1  0
  1 30  1  0
  1 31  1  0
  3 32  1  0
  3 33  1  0
  4 34  1  0
  4 35  1  0
  6 36  1  0
  6 37  1  0
  7 38  1  0
  7 39  1  0
  9 40  1  0
  9 41  1  0
 10 42  1  0
 10 43  1  0
 11 44  1  0
 19 45  1  0
 19 46  1  0
 19 47  1  0
 20 48  1  0
 28 49  1  0
 28 50  1  0
M  END
>  <Binding energies>  (1) 
[-5.75]

>  <Ligand effiencies>  (1) 
[-0.18548387096774194]

>  <Interactions>  (1) 
["V-A:LEU:475:CD1:4254, V-B:GLU:543:CD:9877, H-A:GLU:543:OE1:4906, V-A:ARG:545:CZ:4923, V-A:ILE:369:CB:3232, H-A:ARG:545:NH1:4924, H-A:GLY:454:N:4046, V-A:ILE:369:CG1:3234, V-A:GLY:454:CA:4045, V-B:TYR:539:CE2:9845, V-A:HIS:456:CE1:4066, V-A:GLU:543:CD:4905, V-B:GLU:543:CB:9875, V-B:HIS:456:CE1:9038, V-A:TYR:484:CE1:4341, V-A:HIS:456:CD2:4064, V-B:HIS:456:CD2:9036, V-A:GLU:543:CB:4903, V-B:GLU:543:CG:9876, V-B:TYR:539:CD2:9843, V-B:ALA:541:CB:9861, V-A:ARG:545:CD:4920, V-B:LYS:547:CE:9919, V-A:GLU:543:C:4899, H-A:LYS:547:NZ:4948, H-B:LYS:547:NZ:9920, V-A:LEU:475:CD2:4255, V-A:GLY:453:C:4038, V-A:GLY:453:CA:4040, V-A:LEU:475:CG:4253, V-A:TYR:484:CD2:4340, V-A:ASP:473:CB:4235, V-A:ASP:473:CG:4236"]

$$$$
4ca_Grossjean_2025
     RDKit          3D

 52 55  0  0  0  0  0  0  0  0999 V2000
  125.3090  128.4080   74.7120 C   0  0  0  0  0  0  0  0  0  0  0  0
  126.0010  127.4950   73.6950 C   0  0  0  0  0  0  0  0  0  0  0  0
  127.0020  128.2300   73.0030 O   0  0  0  0  0  0  0  0  0  0  0  0
  128.2770  127.7690   72.9150 C   0  0  0  0  0  0  0  0  0  0  0  0
  129.0310  127.6670   73.8870 O   0  0  0  0  0  0  0  0  0  0  0  0
  128.6750  127.3940   71.5180 C   0  0  0  0  0  0  0  0  0  0  0  0
  127.8600  126.5220   70.7840 C   0  0  0  0  0  0  0  0  0  0  0  0
  128.2010  126.1580   69.4840 C   0  0  0  0  0  0  0  0  0  0  0  0
  129.3640  126.6510   68.8940 C   0  0  0  0  0  0  0  0  0  0  0  0
  129.6080  126.2260   67.5730 N   0  0  0  0  0  0  0  0  0  0  0  0
  130.4420  126.7340   66.6330 C   0  0  0  0  0  0  0  0  0  0  0  0
  131.2020  127.6830   66.8240 O   0  0  0  0  0  0  0  0  0  0  0  0
  130.4070  126.0570   65.3350 C   0  0  0  0  0  0  0  0  0  0  0  0
  128.9970  126.2180   64.2900 S   0  0  0  0  0  0  0  0  0  0  0  0
  129.7440  125.2320   63.0550 C   0  0  0  0  0  0  0  0  0  0  0  0
  129.1210  124.9650   61.9100 N   0  0  0  0  0  0  0  0  0  0  0  0
  129.7860  124.2020   61.0040 C   0  0  0  0  0  0  0  0  0  0  0  0
  129.0610  123.9260   59.7180 C   0  0  0  0  0  0  0  0  0  0  0  0
  129.5170  124.4680   58.5050 C   0  0  0  0  0  0  0  0  0  0  0  0
  128.8450  124.2200   57.3110 C   0  0  0  0  0  0  0  0  0  0  0  0
  127.7030  123.4250   57.3120 C   0  0  0  0  0  0  0  0  0  0  0  0
  127.2290  122.8790   58.5000 C   0  0  0  0  0  0  0  0  0  0  0  0
  127.9030  123.1290   59.6920 C   0  0  0  0  0  0  0  0  0  0  0  0
  131.0640  123.6940   61.2620 C   0  0  0  0  0  0  0  0  0  0  0  0
  131.7270  123.9660   62.4680 C   0  0  0  0  0  0  0  0  0  0  0  0
  133.1280  123.3800   62.6830 C   0  0  0  0  0  0  0  0  0  0  0  0
  133.5670  122.6760   61.6380 F   0  0  0  0  0  0  0  0  0  0  0  0
  134.0010  124.3630   62.8970 F   0  0  0  0  0  0  0  0  0  0  0  0
  133.1170  122.5630   63.7370 F   0  0  0  0  0  0  0  0  0  0  0  0
  131.0460  124.7800   63.4180 C   0  0  0  0  0  0  0  0  0  0  0  0
  131.4000  125.2690   64.7280 C   0  0  0  0  0  0  0  0  0  0  0  0
  132.6020  124.9850   65.3250 N   0  0  0  0  0  0  0  0  0  0  0  0
  130.1850  127.5290   69.6180 C   0  0  0  0  0  0  0  0  0  0  0  0
  129.8410  127.8930   70.9170 C   0  0  0  0  0  0  0  0  0  0  0  0
  125.5593  128.0778   75.7310 H   0  0  0  0  0  0  0  0  0  0  0  0
  125.6512  129.4434   74.5676 H   0  0  0  0  0  0  0  0  0  0  0  0
  124.2196  128.3584   74.5676 H   0  0  0  0  0  0  0  0  0  0  0  0
  126.4655  126.6472   74.2198 H   0  0  0  0  0  0  0  0  0  0  0  0
  125.2590  127.1186   72.9755 H   0  0  0  0  0  0  0  0  0  0  0  0
  126.9422  126.1213   71.2390 H   0  0  0  0  0  0  0  0  0  0  0  0
  127.5482  125.4767   68.9186 H   0  0  0  0  0  0  0  0  0  0  0  0
  129.0820  125.4100   67.3000 H   0  0  0  0  0  0  0  0  0  0  0  0
  130.4187  125.0980   58.4983 H   0  0  0  0  0  0  0  0  0  0  0  0
  129.2159  124.6514   56.3695 H   0  0  0  0  0  0  0  0  0  0  0  0
  127.1727  123.2275   56.3688 H   0  0  0  0  0  0  0  0  0  0  0  0
  126.3251  122.2521   58.4977 H   0  0  0  0  0  0  0  0  0  0  0  0
  127.5234  122.6958   60.6291 H   0  0  0  0  0  0  0  0  0  0  0  0
  131.5587  123.0689   60.5040 H   0  0  0  0  0  0  0  0  0  0  0  0
  133.3980  125.6020   65.2430 H   0  0  0  0  0  0  0  0  0  0  0  0
  132.7330  124.1460   65.8730 H   0  0  0  0  0  0  0  0  0  0  0  0
  131.1008  127.9298   69.1590 H   0  0  0  0  0  0  0  0  0  0  0  0
  130.4908  128.5799   71.4790 H   0  0  0  0  0  0  0  0  0  0  0  0
  1  2  1  0
  2  3  1  0
  3  4  1  0
  4  5  2  0
  4  6  1  0
  6  7  2  0
  7  8  1  0
  8  9  2  0
  9 10  1  0
 10 11  1  0
 11 12  2  0
 11 13  1  0
 13 14  1  0
 14 15  1  0
 15 16  2  0
 16 17  1  0
 17 18  1  0
 18 19  2  0
 19 20  1  0
 20 21  2  0
 21 22  1  0
 22 23  2  0
 17 24  2  0
 24 25  1  0
 25 26  1  0
 26 27  1  0
 26 28  1  0
 26 29  1  0
 25 30  2  0
 30 31  1  0
 31 32  1  0
  9 33  1  0
 33 34  2  0
 34  6  1  0
 31 13  2  0
 30 15  1  0
 23 18  1  0
  1 35  1  0
  1 36  1  0
  1 37  1  0
  2 38  1  0
  2 39  1  0
  7 40  1  0
  8 41  1  0
 10 42  1  0
 19 43  1  0
 20 44  1  0
 21 45  1  0
 22 46  1  0
 23 47  1  0
 24 48  1  0
 32 49  1  0
 32 50  1  0
 33 51  1  0
 34 52  1  0
M  END
>  <Binding energies>  (1) 
[-6.88]

>  <Ligand effiencies>  (1) 
[-0.18594594594594593]

>  <Interactions>  (1) 
["V-A:LEU:475:CD1:4254, V-B:GLU:543:CD:9877, V-A:ARG:545:CZ:4923, V-A:GLY:454:CA:4045, V-A:HIS:456:CE1:4066, V-A:GLY:454:C:4043, V-B:GLU:543:C:9871, V-B:GLU:543:CB:9875, V-B:HIS:456:CE1:9038, V-B:GLY:544:C:9881, V-A:HIS:456:CD2:4064, V-B:HIS:456:CD2:9036, V-B:GLU:543:CG:9876, V-B:TYR:539:CZ:9846, H-A:TYR:484:OH:4344, V-B:LYS:547:CE:9919, H-A:HIS:456:NE2:4067, V-B:HIS:456:CG:9034, H-B:GLU:543:O:9872, V-B:HIS:456:CB:9033, V-B:LYS:547:CD:9918, V-B:VAL:458:CG2:9055, H-A:LYS:547:NZ:4948, V-B:PRO:540:N:9853, V-A:GLY:453:C:4038, V-B:PRO:540:CA:9852, V-A:GLY:453:CA:4040, V-B:TYR:539:CE1:9844"]

$$$$
4cb_Grossjean_2025
     RDKit          3D

 49 52  0  0  0  0  0  0  0  0999 V2000
  130.7920  123.4740   73.4010 C   0  0  0  0  0  0  0  0  0  0  0  0
  129.7450  124.2440   72.8280 O   0  0  0  0  0  0  0  0  0  0  0  0
  129.7840  125.6010   72.8470 C   0  0  0  0  0  0  0  0  0  0  0  0
  130.0330  126.2610   73.8610 O   0  0  0  0  0  0  0  0  0  0  0  0
  129.4930  126.2220   71.5100 C   0  0  0  0  0  0  0  0  0  0  0  0
  128.3860  125.7790   70.7760 C   0  0  0  0  0  0  0  0  0  0  0  0
  128.0860  126.3400   69.5380 C   0  0  0  0  0  0  0  0  0  0  0  0
  128.8890  127.3490   69.0060 C   0  0  0  0  0  0  0  0  0  0  0  0
  128.4850  127.8550   67.7550 N   0  0  0  0  0  0  0  0  0  0  0  0
  128.7400  127.3980   66.5050 C   0  0  0  0  0  0  0  0  0  0  0  0
  129.3720  126.3690   66.2610 O   0  0  0  0  0  0  0  0  0  0  0  0
  128.1890  128.2100   65.4170 C   0  0  0  0  0  0  0  0  0  0  0  0
  127.4870  129.7900   65.7580 S   0  0  0  0  0  0  0  0  0  0  0  0
  127.1540  130.0590   64.0630 C   0  0  0  0  0  0  0  0  0  0  0  0
  126.5780  131.1790   63.6370 N   0  0  0  0  0  0  0  0  0  0  0  0
  126.3690  131.3020   62.3000 C   0  0  0  0  0  0  0  0  0  0  0  0
  125.7220  132.5800   61.8500 C   0  0  0  0  0  0  0  0  0  0  0  0
  124.3870  132.8630   62.1780 C   0  0  0  0  0  0  0  0  0  0  0  0
  123.7790  134.0450   61.7600 C   0  0  0  0  0  0  0  0  0  0  0  0
  124.5020  134.9630   61.0060 C   0  0  0  0  0  0  0  0  0  0  0  0
  125.8270  134.7060   60.6650 C   0  0  0  0  0  0  0  0  0  0  0  0
  126.4280  133.5230   61.0830 C   0  0  0  0  0  0  0  0  0  0  0  0
  126.7210  130.2890   61.4020 C   0  0  0  0  0  0  0  0  0  0  0  0
  127.3260  129.1020   61.8410 C   0  0  0  0  0  0  0  0  0  0  0  0
  127.6880  128.0340   60.8020 C   0  0  0  0  0  0  0  0  0  0  0  0
  128.9300  127.5670   60.9430 F   0  0  0  0  0  0  0  0  0  0  0  0
  126.8570  126.9970   60.9140 F   0  0  0  0  0  0  0  0  0  0  0  0
  127.5900  128.5450   59.5750 F   0  0  0  0  0  0  0  0  0  0  0  0
  127.5640  128.9700   63.2390 C   0  0  0  0  0  0  0  0  0  0  0  0
  128.1580  127.9280   64.0410 C   0  0  0  0  0  0  0  0  0  0  0  0
  128.6470  126.7650   63.5020 N   0  0  0  0  0  0  0  0  0  0  0  0
  129.9980  127.8020   69.7360 C   0  0  0  0  0  0  0  0  0  0  0  0
  130.2960  127.2400   70.9740 C   0  0  0  0  0  0  0  0  0  0  0  0
  130.7252  123.5231   74.4979 H   0  0  0  0  0  0  0  0  0  0  0  0
  130.6987  122.4277   73.0744 H   0  0  0  0  0  0  0  0  0  0  0  0
  131.7629  123.8748   73.0744 H   0  0  0  0  0  0  0  0  0  0  0  0
  127.7475  124.9803   71.1815 H   0  0  0  0  0  0  0  0  0  0  0  0
  127.2098  125.9853   68.9754 H   0  0  0  0  0  0  0  0  0  0  0  0
  127.9090  128.6820   67.8120 H   0  0  0  0  0  0  0  0  0  0  0  0
  123.8114  132.1400   62.7747 H   0  0  0  0  0  0  0  0  0  0  0  0
  122.7316  134.2511   62.0253 H   0  0  0  0  0  0  0  0  0  0  0  0
  124.0241  135.8976   60.6771 H   0  0  0  0  0  0  0  0  0  0  0  0
  126.3957  135.4344   60.0683 H   0  0  0  0  0  0  0  0  0  0  0  0
  127.4741  133.3220   60.8085 H   0  0  0  0  0  0  0  0  0  0  0  0
  126.5192  130.4260   60.3294 H   0  0  0  0  0  0  0  0  0  0  0  0
  129.2190  126.1270   64.0370 H   0  0  0  0  0  0  0  0  0  0  0  0
  128.4470  126.5040   62.5460 H   0  0  0  0  0  0  0  0  0  0  0  0
  130.6332  128.6027   69.3293 H   0  0  0  0  0  0  0  0  0  0  0  0
  131.1701  127.5977   71.5380 H   0  0  0  0  0  0  0  0  0  0  0  0
  1  2  1  0
  2  3  1  0
  3  4  2  0
  3  5  1  0
  5  6  2  0
  6  7  1  0
  7  8  2  0
  8  9  1  0
  9 10  1  0
 10 11  2  0
 10 12  1  0
 12 13  1  0
 13 14  1  0
 14 15  2  0
 15 16  1  0
 16 17  1  0
 17 18  2  0
 18 19  1  0
 19 20  2  0
 20 21  1  0
 21 22  2  0
 16 23  2  0
 23 24  1  0
 24 25  1  0
 25 26  1  0
 25 27  1  0
 25 28  1  0
 24 29  2  0
 29 30  1  0
 30 31  1  0
  8 32  1  0
 32 33  2  0
 33  5  1  0
 30 12  2  0
 29 14  1  0
 22 17  1  0
  1 34  1  0
  1 35  1  0
  1 36  1  0
  6 37  1  0
  7 38  1  0
  9 39  1  0
 18 40  1  0
 19 41  1  0
 20 42  1  0
 21 43  1  0
 22 44  1  0
 23 45  1  0
 31 46  1  0
 31 47  1  0
 32 48  1  0
 33 49  1  0
M  END
>  <Binding energies>  (1) 
[-6.64]

>  <Ligand effiencies>  (1) 
[-0.18444444444444444]

>  <Interactions>  (1) 
["V-B:GLU:543:CD:9877, V-A:HIS:456:CE1:4066, V-A:GLU:543:CD:4905, H-B:HIS:456:NE2:9039, V-A:GLU:543:CG:4904, V-B:GLU:543:C:9871, V-B:HIS:456:CE1:9038, V-B:GLY:544:C:9881, V-A:HIS:456:CD2:4064, V-B:ILE:369:CD1:8207, V-B:ILE:369:CG2:8205, V-B:TRP:381:CH2:8340, V-A:TYR:539:CD2:4871, V-B:LEU:475:CD2:9227, H-B:GLU:543:OE1:9878, V-B:LYS:547:CE:9919, H-A:LYS:547:NZ:4948, H-B:LYS:547:NZ:9920, V-B:TRP:381:CZ2:8338, H-B:GLU:543:OE2:9879"]

$$$$
4cc_Grossjean_2025
     RDKit          3D

 47 50  0  0  0  0  0  0  0  0999 V2000
  134.2480  117.8480   60.9930 C   0  0  0  0  0  0  0  0  0  0  0  0
  134.5150  119.1270   60.4280 O   0  0  0  0  0  0  0  0  0  0  0  0
  133.9540  120.2500   61.0060 C   0  0  0  0  0  0  0  0  0  0  0  0
  132.5610  120.2970   61.0510 C   0  0  0  0  0  0  0  0  0  0  0  0
  131.9070  121.3880   61.6160 C   0  0  0  0  0  0  0  0  0  0  0  0
  132.6400  122.4560   62.1360 C   0  0  0  0  0  0  0  0  0  0  0  0
  131.8930  123.5060   62.7000 N   0  0  0  0  0  0  0  0  0  0  0  0
  132.3230  124.5870   63.3960 C   0  0  0  0  0  0  0  0  0  0  0  0
  133.5100  124.8370   63.6140 O   0  0  0  0  0  0  0  0  0  0  0  0
  131.2690  125.4760   63.8930 C   0  0  0  0  0  0  0  0  0  0  0  0
  130.5080  126.6410   62.8120 S   0  0  0  0  0  0  0  0  0  0  0  0
  129.4680  127.2180   64.0940 C   0  0  0  0  0  0  0  0  0  0  0  0
  128.5800  128.1870   63.8840 N   0  0  0  0  0  0  0  0  0  0  0  0
  127.8100  128.5620   64.9380 C   0  0  0  0  0  0  0  0  0  0  0  0
  126.8200  129.6590   64.6740 C   0  0  0  0  0  0  0  0  0  0  0  0
  127.2340  131.0000   64.6160 C   0  0  0  0  0  0  0  0  0  0  0  0
  126.3210  132.0240   64.3720 C   0  0  0  0  0  0  0  0  0  0  0  0
  124.9770  131.7200   64.1840 C   0  0  0  0  0  0  0  0  0  0  0  0
  124.5400  130.4000   64.2400 C   0  0  0  0  0  0  0  0  0  0  0  0
  125.4560  129.3800   64.4850 C   0  0  0  0  0  0  0  0  0  0  0  0
  127.9460  127.9740   66.2000 C   0  0  0  0  0  0  0  0  0  0  0  0
  128.8800  126.9510   66.4310 C   0  0  0  0  0  0  0  0  0  0  0  0
  128.9720  126.3470   67.8370 C   0  0  0  0  0  0  0  0  0  0  0  0
  127.9080  126.6190   68.5960 F   0  0  0  0  0  0  0  0  0  0  0  0
  129.0710  125.0200   67.7520 F   0  0  0  0  0  0  0  0  0  0  0  0
  130.0440  126.8280   68.4660 F   0  0  0  0  0  0  0  0  0  0  0  0
  129.6880  126.5440   65.3310 C   0  0  0  0  0  0  0  0  0  0  0  0
  130.7270  125.5550   65.1860 C   0  0  0  0  0  0  0  0  0  0  0  0
  131.1450  124.7620   66.2250 N   0  0  0  0  0  0  0  0  0  0  0  0
  134.0420  122.4100   62.1050 C   0  0  0  0  0  0  0  0  0  0  0  0
  134.6920  121.3170   61.5400 C   0  0  0  0  0  0  0  0  0  0  0  0
  134.2633  117.9215   62.0904 H   0  0  0  0  0  0  0  0  0  0  0  0
  133.2580  117.5006   60.6626 H   0  0  0  0  0  0  0  0  0  0  0  0
  135.0164  117.1335   60.6626 H   0  0  0  0  0  0  0  0  0  0  0  0
  131.9738  119.4644   60.6363 H   0  0  0  0  0  0  0  0  0  0  0  0
  130.8078  121.4087   61.6529 H   0  0  0  0  0  0  0  0  0  0  0  0
  130.9000  123.4500   62.5330 H   0  0  0  0  0  0  0  0  0  0  0  0
  128.2957  131.2457   64.7656 H   0  0  0  0  0  0  0  0  0  0  0  0
  126.6620  133.0689   64.3282 H   0  0  0  0  0  0  0  0  0  0  0  0
  124.2555  132.5273   63.9900 H   0  0  0  0  0  0  0  0  0  0  0  0
  123.4761  130.1634   64.0915 H   0  0  0  0  0  0  0  0  0  0  0  0
  125.1057  128.3383   64.5313 H   0  0  0  0  0  0  0  0  0  0  0  0
  127.3090  128.3196   67.0275 H   0  0  0  0  0  0  0  0  0  0  0  0
  130.5440  124.0620   66.6380 H   0  0  0  0  0  0  0  0  0  0  0  0
  132.0720  124.8530   66.6160 H   0  0  0  0  0  0  0  0  0  0  0  0
  134.6282  123.2392   62.5279 H   0  0  0  0  0  0  0  0  0  0  0  0
  135.7913  121.2894   61.5119 H   0  0  0  0  0  0  0  0  0  0  0  0
  1  2  1  0
  2  3  1  0
  3  4  2  0
  4  5  1  0
  5  6  2  0
  6  7  1  0
  7  8  1  0
  8  9  2  0
  8 10  1  0
 10 11  1  0
 11 12  1  0
 12 13  2  0
 13 14  1  0
 14 15  1  0
 15 16  2  0
 16 17  1  0
 17 18  2  0
 18 19  1  0
 19 20  2  0
 14 21  2  0
 21 22  1  0
 22 23  1  0
 23 24  1  0
 23 25  1  0
 23 26  1  0
 22 27  2  0
 27 28  1  0
 28 29  1  0
  6 30  1  0
 30 31  2  0
 31  3  1  0
 28 10  2  0
 27 12  1  0
 20 15  1  0
  1 32  1  0
  1 33  1  0
  1 34  1  0
  4 35  1  0
  5 36  1  0
  7 37  1  0
 16 38  1  0
 17 39  1  0
 18 40  1  0
 19 41  1  0
 20 42  1  0
 21 43  1  0
 29 44  1  0
 29 45  1  0
 30 46  1  0
 31 47  1  0
M  END
>  <Binding energies>  (1) 
[-7.0]

>  <Ligand effiencies>  (1) 
[-0.20588235294117646]

>  <Interactions>  (1) 
["V-A:LEU:475:CD1:4254, V-B:GLU:543:CD:9877, V-A:ILE:369:CB:3232, H-A:ARG:545:NH2:4925, H-A:ARG:545:NH1:4924, H-A:GLY:454:N:4046, V-A:ILE:369:CG1:3234, V-A:ILE:369:CG2:3233, V-A:GLY:454:CA:4045, V-B:TYR:539:CE2:9845, V-A:HIS:456:CE1:4066, V-A:GLU:543:CD:4905, V-A:GLU:543:CG:4904, V-A:TYR:484:CZ:4343, V-B:GLU:543:CA:9873, V-B:GLU:543:C:9871, V-B:GLU:543:CB:9875, V-B:HIS:456:CE1:9038, V-A:TYR:484:CE1:4341, V-B:GLU:543:CG:9876, V-B:ARG:545:CZ:9895, V-B:GLY:454:CA:9017, V-B:TYR:539:CD2:9843, H-A:TYR:484:OH:4344, H-A:HIS:456:NE2:4067, V-A:GLY:453:C:4038, V-A:ILE:369:CD1:3235, V-B:TYR:484:CE1:9313, V-B:TYR:484:CZ:9315, V-A:SER:385:C:3401, V-A:TRP:381:CH2:3368, V-A:SER:385:CA:3403, V-A:TRP:381:CZ2:3366, V-A:SER:385:CB:3405"]

$$$$
4cd_Grossjean_2025
     RDKit          3D

 43 46  0  0  0  0  0  0  0  0999 V2000
  127.1330  130.2690   66.3210 N   0  0  0  0  0  0  0  0  0  0  0  0
  127.3390  129.4570   65.2340 C   0  0  0  0  0  0  0  0  0  0  0  0
  126.7040  129.6530   63.9970 C   0  0  0  0  0  0  0  0  0  0  0  0
  125.7330  130.6850   63.6210 C   0  0  0  0  0  0  0  0  0  0  0  0
  124.5720  130.6320   64.0290 O   0  0  0  0  0  0  0  0  0  0  0  0
  126.2120  131.6690   62.8220 N   0  0  0  0  0  0  0  0  0  0  0  0
  125.5390  132.7640   62.2480 C   0  0  0  0  0  0  0  0  0  0  0  0
  126.2860  133.5460   61.3620 C   0  0  0  0  0  0  0  0  0  0  0  0
  125.7060  134.6430   60.7330 C   0  0  0  0  0  0  0  0  0  0  0  0
  124.3730  134.9570   60.9840 C   0  0  0  0  0  0  0  0  0  0  0  0
  123.6130  134.1800   61.8530 C   0  0  0  0  0  0  0  0  0  0  0  0
  124.1900  133.0800   62.4850 C   0  0  0  0  0  0  0  0  0  0  0  0
  127.2060  128.4350   62.8250 S   0  0  0  0  0  0  0  0  0  0  0  0
  128.2500  127.6710   63.9990 C   0  0  0  0  0  0  0  0  0  0  0  0
  128.9680  126.5930   63.6920 N   0  0  0  0  0  0  0  0  0  0  0  0
  129.7410  126.0610   64.6750 C   0  0  0  0  0  0  0  0  0  0  0  0
  130.5370  124.8450   64.3010 C   0  0  0  0  0  0  0  0  0  0  0  0
  131.9350  124.9090   64.1820 C   0  0  0  0  0  0  0  0  0  0  0  0
  132.6790  123.7850   63.8360 C   0  0  0  0  0  0  0  0  0  0  0  0
  132.0340  122.5750   63.6020 C   0  0  0  0  0  0  0  0  0  0  0  0
  130.6510  122.4830   63.7160 C   0  0  0  0  0  0  0  0  0  0  0  0
  129.9110  123.6090   64.0650 C   0  0  0  0  0  0  0  0  0  0  0  0
  129.8040  126.6250   65.9530 C   0  0  0  0  0  0  0  0  0  0  0  0
  129.0530  127.7640   66.2860 C   0  0  0  0  0  0  0  0  0  0  0  0
  129.1660  128.3280   67.7070 C   0  0  0  0  0  0  0  0  0  0  0  0
  128.9510  129.6450   67.7670 F   0  0  0  0  0  0  0  0  0  0  0  0
  128.2690  127.7400   68.4990 F   0  0  0  0  0  0  0  0  0  0  0  0
  130.3900  128.1030   68.1850 F   0  0  0  0  0  0  0  0  0  0  0  0
  128.2300  128.3230   65.2670 C   0  0  0  0  0  0  0  0  0  0  0  0
  126.2150  130.4080   66.7170 H   0  0  0  0  0  0  0  0  0  0  0  0
  127.8990  130.7550   66.7660 H   0  0  0  0  0  0  0  0  0  0  0  0
  127.1980  131.6310   62.6110 H   0  0  0  0  0  0  0  0  0  0  0  0
  127.3374  133.2927   61.1612 H   0  0  0  0  0  0  0  0  0  0  0  0
  126.2979  135.2595   60.0405 H   0  0  0  0  0  0  0  0  0  0  0  0
  123.9162  135.8276   60.4907 H   0  0  0  0  0  0  0  0  0  0  0  0
  122.5592  134.4334   62.0407 H   0  0  0  0  0  0  0  0  0  0  0  0
  123.5908  132.4601   63.1681 H   0  0  0  0  0  0  0  0  0  0  0  0
  132.4503  125.8634   64.3653 H   0  0  0  0  0  0  0  0  0  0  0  0
  133.7733  123.8532   63.7479 H   0  0  0  0  0  0  0  0  0  0  0  0
  132.6207  121.6866   63.3254 H   0  0  0  0  0  0  0  0  0  0  0  0
  130.1441  121.5244   63.5311 H   0  0  0  0  0  0  0  0  0  0  0  0
  128.8177  123.5302   64.1577 H   0  0  0  0  0  0  0  0  0  0  0  0
  130.4548  126.1674   66.7127 H   0  0  0  0  0  0  0  0  0  0  0  0
  1  2  1  0
  2  3  2  0
  3  4  1  0
  4  5  2  0
  4  6  1  0
  6  7  1  0
  7  8  2  0
  8  9  1  0
  9 10  2  0
 10 11  1  0
 11 12  2  0
  3 13  1  0
 13 14  1  0
 14 15  2  0
 15 16  1  0
 16 17  1  0
 17 18  2  0
 18 19  1  0
 19 20  2  0
 20 21  1  0
 21 22  2  0
 16 23  2  0
 23 24  1  0
 24 25  1  0
 25 26  1  0
 25 27  1  0
 25 28  1  0
 24 29  2  0
 29  2  1  0
 12  7  1  0
 29 14  1  0
 22 17  1  0
  1 30  1  0
  1 31  1  0
  6 32  1  0
  8 33  1  0
  9 34  1  0
 10 35  1  0
 11 36  1  0
 12 37  1  0
 18 38  1  0
 19 39  1  0
 20 40  1  0
 21 41  1  0
 22 42  1  0
 23 43  1  0
M  END
>  <Binding energies>  (1) 
[-7.18]

>  <Ligand effiencies>  (1) 
[-0.224375]

>  <Interactions>  (1) 
["V-A:LEU:475:CD1:4254, V-B:GLU:543:CD:9877, H-A:GLU:543:OE2:4907, V-A:GLY:454:CA:4045, V-A:HIS:456:CE1:4066, V-A:GLU:543:CD:4905, H-B:HIS:456:NE2:9039, V-A:GLU:543:CG:4904, V-B:HIS:456:CE1:9038, V-B:HIS:456:CD2:9036, V-A:GLU:543:CB:4903, V-B:GLU:543:CG:9876, V-B:ILE:369:CD1:8207, V-B:ILE:369:CG2:8205, V-B:TRP:381:CH2:8340, V-B:GLY:454:CA:9017, H-B:TYR:484:OH:9316, V-A:TYR:539:CD2:4871, V-B:LEU:475:CD2:9227, V-B:ALA:541:CB:9861, V-A:GLU:543:C:4899, V-A:GLU:543:CA:4901, H-B:GLY:454:N:9018, V-B:TYR:484:CE1:9313, V-B:TYR:484:CZ:9315"]

$$$$
4ce_Grossjean_2025
     RDKit          3D

 45 48  0  0  0  0  0  0  0  0999 V2000
  127.2360  135.9560   60.6190 C   0  0  0  0  0  0  0  0  0  0  0  0
  126.3400  134.8150   61.0640 C   0  0  0  0  0  0  0  0  0  0  0  0
  124.9560  134.8570   60.8750 C   0  0  0  0  0  0  0  0  0  0  0  0
  124.1940  133.7690   61.3030 C   0  0  0  0  0  0  0  0  0  0  0  0
  124.8270  132.6770   61.8990 C   0  0  0  0  0  0  0  0  0  0  0  0
  126.2170  132.7020   62.0630 C   0  0  0  0  0  0  0  0  0  0  0  0
  126.7980  131.5630   62.6490 N   0  0  0  0  0  0  0  0  0  0  0  0
  126.5660  131.0260   63.8730 C   0  0  0  0  0  0  0  0  0  0  0  0
  125.7540  131.4830   64.6780 O   0  0  0  0  0  0  0  0  0  0  0  0
  127.3560  129.8360   64.1980 C   0  0  0  0  0  0  0  0  0  0  0  0
  127.9170  128.7660   62.9140 S   0  0  0  0  0  0  0  0  0  0  0  0
  128.7330  127.7380   64.0670 C   0  0  0  0  0  0  0  0  0  0  0  0
  129.4100  126.6600   63.6780 N   0  0  0  0  0  0  0  0  0  0  0  0
  130.0250  125.9300   64.6450 C   0  0  0  0  0  0  0  0  0  0  0  0
  130.7830  124.7260   64.1730 C   0  0  0  0  0  0  0  0  0  0  0  0
  132.0900  124.8520   63.6740 C   0  0  0  0  0  0  0  0  0  0  0  0
  132.7980  123.7380   63.2280 C   0  0  0  0  0  0  0  0  0  0  0  0
  132.2070  122.4800   63.2760 C   0  0  0  0  0  0  0  0  0  0  0  0
  130.9140  122.3280   63.7640 C   0  0  0  0  0  0  0  0  0  0  0  0
  130.2090  123.4440   64.2080 C   0  0  0  0  0  0  0  0  0  0  0  0
  129.9390  126.2740   65.9990 C   0  0  0  0  0  0  0  0  0  0  0  0
  129.2230  127.4060   66.4200 C   0  0  0  0  0  0  0  0  0  0  0  0
  129.1720  127.7250   67.9180 C   0  0  0  0  0  0  0  0  0  0  0  0
  129.3750  129.0170   68.1850 F   0  0  0  0  0  0  0  0  0  0  0  0
  127.9750  127.4000   68.4070 F   0  0  0  0  0  0  0  0  0  0  0  0
  130.1130  127.0320   68.5590 F   0  0  0  0  0  0  0  0  0  0  0  0
  128.5880  128.1870   65.4120 C   0  0  0  0  0  0  0  0  0  0  0  0
  127.7920  129.3900   65.4570 C   0  0  0  0  0  0  0  0  0  0  0  0
  127.4930  130.0390   66.6270 N   0  0  0  0  0  0  0  0  0  0  0  0
  126.9690  133.7610   61.6440 N   0  0  0  0  0  0  0  0  0  0  0  0
  127.6403  136.4709   61.5030 H   0  0  0  0  0  0  0  0  0  0  0  0
  128.0650  135.5574   60.0157 H   0  0  0  0  0  0  0  0  0  0  0  0
  126.6522  136.6668   60.0157 H   0  0  0  0  0  0  0  0  0  0  0  0
  124.4786  135.7269   60.4002 H   0  0  0  0  0  0  0  0  0  0  0  0
  123.1019  133.7720   61.1716 H   0  0  0  0  0  0  0  0  0  0  0  0
  124.2415  131.8086   62.2353 H   0  0  0  0  0  0  0  0  0  0  0  0
  127.4440  131.0660   62.0540 H   0  0  0  0  0  0  0  0  0  0  0  0
  132.5616  125.8450   63.6348 H   0  0  0  0  0  0  0  0  0  0  0  0
  133.8206  123.8531   62.8394 H   0  0  0  0  0  0  0  0  0  0  0  0
  132.7660  121.5998   62.9257 H   0  0  0  0  0  0  0  0  0  0  0  0
  130.4501  121.3312   63.7992 H   0  0  0  0  0  0  0  0  0  0  0  0
  129.1859  123.3197   64.5924 H   0  0  0  0  0  0  0  0  0  0  0  0
  130.4423  125.6451   66.7481 H   0  0  0  0  0  0  0  0  0  0  0  0
  127.9770  129.8360   67.4900 H   0  0  0  0  0  0  0  0  0  0  0  0
  126.7700  130.7440   66.6670 H   0  0  0  0  0  0  0  0  0  0  0  0
  1  2  1  0
  2  3  2  0
  3  4  1  0
  4  5  2  0
  5  6  1  0
  6  7  1  0
  7  8  1  0
  8  9  2  0
  8 10  1  0
 10 11  1  0
 11 12  1  0
 12 13  2  0
 13 14  1  0
 14 15  1  0
 15 16  2  0
 16 17  1  0
 17 18  2  0
 18 19  1  0
 19 20  2  0
 14 21  2  0
 21 22  1  0
 22 23  1  0
 23 24  1  0
 23 25  1  0
 23 26  1  0
 22 27  2  0
 27 28  1  0
 28 29  1  0
  6 30  2  0
 30  2  1  0
 28 10  2  0
 27 12  1  0
 20 15  1  0
  1 31  1  0
  1 32  1  0
  1 33  1  0
  3 34  1  0
  4 35  1  0
  5 36  1  0
  7 37  1  0
 16 38  1  0
 17 39  1  0
 18 40  1  0
 19 41  1  0
 20 42  1  0
 21 43  1  0
 29 44  1  0
 29 45  1  0
M  END
>  <Binding energies>  (1) 
[-6.81]

>  <Ligand effiencies>  (1) 
[-0.20636363636363636]

>  <Interactions>  (1) 
["V-A:LEU:475:CD1:4254, V-B:GLU:543:CD:9877, H-A:GLU:543:OE2:4907, V-A:GLY:454:CA:4045, V-A:HIS:456:CE1:4066, V-A:GLU:543:CD:4905, H-B:HIS:456:NE2:9039, V-A:GLU:543:CG:4904, V-B:HIS:456:CE1:9038, V-B:HIS:456:CD2:9036, H-A:GLU:543:O:4900, V-A:GLU:543:CB:4903, V-B:GLU:543:CG:9876, V-B:ILE:369:CD1:8207, V-B:ILE:369:CG2:8205, V-B:TRP:381:CH2:8340, H-B:TYR:484:OH:9316, V-A:TYR:539:CD2:4871, V-B:LEU:475:CD2:9227, V-A:GLU:543:C:4899, V-A:GLU:543:CA:4901, V-A:LEU:475:CD2:4255, V-B:TYR:484:CE1:9313, V-B:TYR:484:CZ:9315, V-B:TRP:381:CZ2:8338, V-B:PRO:482:CG:9295"]

$$$$
4cf_Grossjean_2025
     RDKit          3D

 42 45  0  0  0  0  0  0  0  0999 V2000
  131.1320  124.7520   66.2540 N   0  0  0  0  0  0  0  0  0  0  0  0
  130.7120  125.5120   65.1920 C   0  0  0  0  0  0  0  0  0  0  0  0
  131.2350  125.3790   63.8960 C   0  0  0  0  0  0  0  0  0  0  0  0
  132.3000  124.4880   63.4270 C   0  0  0  0  0  0  0  0  0  0  0  0
  133.4830  124.7630   63.6330 O   0  0  0  0  0  0  0  0  0  0  0  0
  131.8820  123.3730   62.7820 N   0  0  0  0  0  0  0  0  0  0  0  0
  132.6360  122.3520   62.1720 C   0  0  0  0  0  0  0  0  0  0  0  0
  134.0380  122.3400   62.0390 C   0  0  0  0  0  0  0  0  0  0  0  0
  134.6610  121.2680   61.3970 C   0  0  0  0  0  0  0  0  0  0  0  0
  133.8690  120.2330   60.9010 C   0  0  0  0  0  0  0  0  0  0  0  0
  132.5160  120.2230   61.0100 N   0  0  0  0  0  0  0  0  0  0  0  0
  131.9240  121.2730   61.6360 C   0  0  0  0  0  0  0  0  0  0  0  0
  130.4640  126.5050   62.7810 S   0  0  0  0  0  0  0  0  0  0  0  0
  129.4560  127.1480   64.0560 C   0  0  0  0  0  0  0  0  0  0  0  0
  128.5800  128.1240   63.8240 N   0  0  0  0  0  0  0  0  0  0  0  0
  127.8530  128.5690   64.8830 C   0  0  0  0  0  0  0  0  0  0  0  0
  126.8800  129.6750   64.5930 C   0  0  0  0  0  0  0  0  0  0  0  0
  125.5400  129.3900   64.2880 C   0  0  0  0  0  0  0  0  0  0  0  0
  124.6310  130.4090   64.0190 C   0  0  0  0  0  0  0  0  0  0  0  0
  125.0520  131.7340   64.0550 C   0  0  0  0  0  0  0  0  0  0  0  0
  126.3730  132.0460   64.3580 C   0  0  0  0  0  0  0  0  0  0  0  0
  127.2780  131.0230   64.6260 C   0  0  0  0  0  0  0  0  0  0  0  0
  127.9910  128.0170   66.1600 C   0  0  0  0  0  0  0  0  0  0  0  0
  128.9080  126.9840   66.4130 C   0  0  0  0  0  0  0  0  0  0  0  0
  129.0110  126.4280   67.8380 C   0  0  0  0  0  0  0  0  0  0  0  0
  130.1070  126.8350   68.4820 F   0  0  0  0  0  0  0  0  0  0  0  0
  127.9580  126.8230   68.5530 F   0  0  0  0  0  0  0  0  0  0  0  0
  129.0430  125.0960   67.8010 F   0  0  0  0  0  0  0  0  0  0  0  0
  129.6890  126.5220   65.3150 C   0  0  0  0  0  0  0  0  0  0  0  0
  130.5000  124.1510   66.7640 H   0  0  0  0  0  0  0  0  0  0  0  0
  132.0950  124.7660   66.5620 H   0  0  0  0  0  0  0  0  0  0  0  0
  130.8830  123.2400   62.7270 H   0  0  0  0  0  0  0  0  0  0  0  0
  134.6387  123.1703   62.4386 H   0  0  0  0  0  0  0  0  0  0  0  0
  135.7549  121.2404   61.2847 H   0  0  0  0  0  0  0  0  0  0  0  0
  134.3624  119.3875   60.3993 H   0  0  0  0  0  0  0  0  0  0  0  0
  130.8277  121.2754   61.7264 H   0  0  0  0  0  0  0  0  0  0  0  0
  125.2025  128.3434   64.2611 H   0  0  0  0  0  0  0  0  0  0  0  0
  123.5850  130.1676   63.7792 H   0  0  0  0  0  0  0  0  0  0  0  0
  124.3352  132.5408   63.8423 H   0  0  0  0  0  0  0  0  0  0  0  0
  126.7009  133.0956   64.3857 H   0  0  0  0  0  0  0  0  0  0  0  0
  128.3216  131.2733   64.8675 H   0  0  0  0  0  0  0  0  0  0  0  0
  127.3690  128.3994   66.9828 H   0  0  0  0  0  0  0  0  0  0  0  0
  1  2  1  0
  2  3  2  0
  3  4  1  0
  4  5  2  0
  4  6  1  0
  6  7  1  0
  7  8  2  0
  8  9  1  0
  9 10  2  0
 10 11  1  0
 11 12  2  0
  3 13  1  0
 13 14  1  0
 14 15  2  0
 15 16  1  0
 16 17  1  0
 17 18  2  0
 18 19  1  0
 19 20  2  0
 20 21  1  0
 21 22  2  0
 16 23  2  0
 23 24  1  0
 24 25  1  0
 25 26  1  0
 25 27  1  0
 25 28  1  0
 24 29  2  0
 29  2  1  0
 12  7  1  0
 29 14  1  0
 22 17  1  0
  1 30  1  0
  1 31  1  0
  6 32  1  0
  8 33  1  0
  9 34  1  0
 10 35  1  0
 12 36  1  0
 18 37  1  0
 19 38  1  0
 20 39  1  0
 21 40  1  0
 22 41  1  0
 23 42  1  0
M  END
>  <Binding energies>  (1) 
[-7.01]

>  <Ligand effiencies>  (1) 
[-0.2190625]

>  <Interactions>  (1) 
["V-A:LEU:475:CD1:4254, V-B:GLU:543:CD:9877, V-A:ILE:369:CB:3232, H-A:ARG:545:NH2:4925, H-A:GLY:454:N:4046, V-A:ILE:369:CG1:3234, V-A:ILE:369:CG2:3233, V-A:GLY:454:CA:4045, V-B:TYR:539:CE2:9845, V-A:HIS:456:CE1:4066, V-A:GLU:543:CD:4905, V-A:GLU:543:CG:4904, V-A:TYR:484:CZ:4343, V-B:GLU:543:CA:9873, V-B:GLU:543:C:9871, V-B:GLU:543:CB:9875, V-B:HIS:456:CE1:9038, V-A:TYR:484:CE1:4341, V-B:GLU:543:CG:9876, V-B:ARG:545:CZ:9895, V-B:GLY:454:CA:9017, V-B:TYR:539:CD2:9843, H-A:TYR:484:OH:4344, H-A:HIS:456:NE2:4067, V-A:GLY:453:C:4038, V-A:ILE:369:CD1:3235, V-B:TYR:484:CE1:9313, V-B:TYR:484:CZ:9315"]

$$$$
4cg_Grossjean_2025
     RDKit          3D

 46 49  0  0  0  0  0  0  0  0999 V2000
  126.7720  129.9400   66.2490 N   0  0  0  0  0  0  0  0  0  0  0  0
  127.0480  129.1860   65.1370 C   0  0  0  0  0  0  0  0  0  0  0  0
  126.3240  129.2890   63.9410 C   0  0  0  0  0  0  0  0  0  0  0  0
  125.2230  130.1960   63.6170 C   0  0  0  0  0  0  0  0  0  0  0  0
  124.5750  130.7610   64.5000 O   0  0  0  0  0  0  0  0  0  0  0  0
  124.9420  130.3400   62.3040 N   0  0  0  0  0  0  0  0  0  0  0  0
  123.9040  131.2070   61.7500 C   0  0  0  0  0  0  0  0  0  0  0  0
  124.4210  132.5780   61.3280 C   0  0  0  0  0  0  0  0  0  0  0  0
  123.7410  133.7300   61.7310 C   0  0  0  0  0  0  0  0  0  0  0  0
  124.2270  134.9860   61.3740 C   0  0  0  0  0  0  0  0  0  0  0  0
  125.3970  135.0840   60.6240 C   0  0  0  0  0  0  0  0  0  0  0  0
  126.0890  133.9390   60.2340 C   0  0  0  0  0  0  0  0  0  0  0  0
  125.6040  132.6840   60.5910 C   0  0  0  0  0  0  0  0  0  0  0  0
  126.9530  128.1950   62.7130 S   0  0  0  0  0  0  0  0  0  0  0  0
  128.1660  127.5890   63.8160 C   0  0  0  0  0  0  0  0  0  0  0  0
  129.0330  126.6510   63.4470 N   0  0  0  0  0  0  0  0  0  0  0  0
  129.9440  126.2450   64.3700 C   0  0  0  0  0  0  0  0  0  0  0  0
  130.9070  125.1830   63.9220 C   0  0  0  0  0  0  0  0  0  0  0  0
  130.6470  123.8240   64.1660 C   0  0  0  0  0  0  0  0  0  0  0  0
  131.5370  122.8370   63.7550 C   0  0  0  0  0  0  0  0  0  0  0  0
  132.7080  123.1950   63.0920 C   0  0  0  0  0  0  0  0  0  0  0  0
  132.9920  124.5320   62.8400 C   0  0  0  0  0  0  0  0  0  0  0  0
  132.0990  125.5160   63.2540 C   0  0  0  0  0  0  0  0  0  0  0  0
  129.9650  126.7720   65.6660 C   0  0  0  0  0  0  0  0  0  0  0  0
  129.0540  127.7620   66.0670 C   0  0  0  0  0  0  0  0  0  0  0  0
  129.1330  128.2960   67.5020 C   0  0  0  0  0  0  0  0  0  0  0  0
  128.9750  129.6180   67.5780 F   0  0  0  0  0  0  0  0  0  0  0  0
  128.1780  127.7350   68.2440 F   0  0  0  0  0  0  0  0  0  0  0  0
  130.3230  128.0060   68.0260 F   0  0  0  0  0  0  0  0  0  0  0  0
  128.1050  128.2050   65.1010 C   0  0  0  0  0  0  0  0  0  0  0  0
  125.9800  130.5660   66.2880 H   0  0  0  0  0  0  0  0  0  0  0  0
  127.3520  129.8880   67.0760 H   0  0  0  0  0  0  0  0  0  0  0  0
  125.5610  129.9050   61.6360 H   0  0  0  0  0  0  0  0  0  0  0  0
  123.4698  130.7118   60.8689 H   0  0  0  0  0  0  0  0  0  0  0  0
  123.1603  131.3709   62.5438 H   0  0  0  0  0  0  0  0  0  0  0  0
  122.8222  133.6454   62.3299 H   0  0  0  0  0  0  0  0  0  0  0  0
  123.6900  135.8951   61.6825 H   0  0  0  0  0  0  0  0  0  0  0  0
  125.7783  136.0750   60.3368 H   0  0  0  0  0  0  0  0  0  0  0  0
  127.0148  134.0266   59.6464 H   0  0  0  0  0  0  0  0  0  0  0  0
  126.1509  131.7771   60.2936 H   0  0  0  0  0  0  0  0  0  0  0  0
  129.7243  123.5356   64.6908 H   0  0  0  0  0  0  0  0  0  0  0  0
  131.3165  121.7777   63.9530 H   0  0  0  0  0  0  0  0  0  0  0  0
  133.4121  122.4154   62.7659 H   0  0  0  0  0  0  0  0  0  0  0  0
  133.9180  124.8111   62.3159 H   0  0  0  0  0  0  0  0  0  0  0  0
  132.3296  126.5730   63.0552 H   0  0  0  0  0  0  0  0  0  0  0  0
  130.7107  126.4030   66.3855 H   0  0  0  0  0  0  0  0  0  0  0  0
  1  2  1  0
  2  3  2  0
  3  4  1  0
  4  5  2  0
  4  6  1  0
  6  7  1  0
  7  8  1  0
  8  9  2  0
  9 10  1  0
 10 11  2  0
 11 12  1  0
 12 13  2  0
  3 14  1  0
 14 15  1  0
 15 16  2  0
 16 17  1  0
 17 18  1  0
 18 19  2  0
 19 20  1  0
 20 21  2  0
 21 22  1  0
 22 23  2  0
 17 24  2  0
 24 25  1  0
 25 26  1  0
 26 27  1  0
 26 28  1  0
 26 29  1  0
 25 30  2  0
 30  2  1  0
 13  8  1  0
 30 15  1  0
 23 18  1  0
  1 31  1  0
  1 32  1  0
  6 33  1  0
  7 34  1  0
  7 35  1  0
  9 36  1  0
 10 37  1  0
 11 38  1  0
 12 39  1  0
 13 40  1  0
 19 41  1  0
 20 42  1  0
 21 43  1  0
 22 44  1  0
 23 45  1  0
 24 46  1  0
M  END
>  <Binding energies>  (1) 
[-7.27]

>  <Ligand effiencies>  (1) 
[-0.22030303030303028]

>  <Interactions>  (1) 
["V-A:LEU:475:CD1:4254, V-B:GLU:543:CD:9877, V-A:ARG:545:CZ:4923, V-A:GLY:454:CA:4045, V-A:HIS:456:CE1:4066, V-A:GLU:543:CD:4905, H-B:HIS:456:NE2:9039, V-A:GLU:543:CG:4904, V-B:HIS:456:CE1:9038, V-B:HIS:456:CD2:9036, V-A:GLU:543:CB:4903, V-B:ILE:369:CD1:8207, V-B:ILE:369:CG2:8205, V-B:TRP:381:CH2:8340, V-A:TYR:539:CE2:4873, H-B:TYR:484:OH:9316, V-A:TYR:539:CD2:4871, V-B:LEU:475:CD2:9227, V-B:ASP:366:CG:8181, H-B:ASP:366:OD1:8182, H-B:ASP:366:OD2:8183, V-A:GLU:543:C:4899, V-A:GLU:543:CA:4901, H-B:GLY:454:N:9018, V-B:TYR:484:CE1:9313, V-B:TYR:484:CZ:9315, V-B:TRP:381:CZ2:8338"]

$$$$
4ch_Grossjean_2025
     RDKit          3D

 58 61  0  0  0  0  0  0  0  0999 V2000
  129.0430  129.7970   73.0120 C   0  0  0  0  0  0  0  0  0  0  0  0
  129.3500  128.5080   73.5320 O   0  0  0  0  0  0  0  0  0  0  0  0
  129.1200  127.3900   72.7510 C   0  0  0  0  0  0  0  0  0  0  0  0
  128.3400  127.3960   71.5840 C   0  0  0  0  0  0  0  0  0  0  0  0
  128.1520  126.2280   70.8420 C   0  0  0  0  0  0  0  0  0  0  0  0
  127.2790  126.2480   69.5930 C   0  0  0  0  0  0  0  0  0  0  0  0
  128.0070  125.9990   68.3480 N   0  0  0  0  0  0  0  0  0  0  0  0
  128.4720  126.9460   67.5080 C   0  0  0  0  0  0  0  0  0  0  0  0
  128.3450  128.1520   67.7330 O   0  0  0  0  0  0  0  0  0  0  0  0
  129.1740  126.4610   66.3190 C   0  0  0  0  0  0  0  0  0  0  0  0
  130.3740  125.1810   66.4650 S   0  0  0  0  0  0  0  0  0  0  0  0
  130.6620  125.1960   64.7420 C   0  0  0  0  0  0  0  0  0  0  0  0
  131.5510  124.3810   64.1790 N   0  0  0  0  0  0  0  0  0  0  0  0
  131.7030  124.4610   62.8310 C   0  0  0  0  0  0  0  0  0  0  0  0
  132.7180  123.5330   62.2280 C   0  0  0  0  0  0  0  0  0  0  0  0
  134.0060  123.9890   61.9030 C   0  0  0  0  0  0  0  0  0  0  0  0
  134.9510  123.1340   61.3420 C   0  0  0  0  0  0  0  0  0  0  0  0
  134.6210  121.8060   61.0980 C   0  0  0  0  0  0  0  0  0  0  0  0
  133.3520  121.3280   61.4070 C   0  0  0  0  0  0  0  0  0  0  0  0
  132.4090  122.1870   61.9650 C   0  0  0  0  0  0  0  0  0  0  0  0
  130.9740  125.3700   62.0580 C   0  0  0  0  0  0  0  0  0  0  0  0
  130.0340  126.2360   62.6410 C   0  0  0  0  0  0  0  0  0  0  0  0
  129.2690  127.2080   61.7360 C   0  0  0  0  0  0  0  0  0  0  0  0
  129.3760  128.4810   62.1260 F   0  0  0  0  0  0  0  0  0  0  0  0
  129.7390  127.1310   60.4920 F   0  0  0  0  0  0  0  0  0  0  0  0
  127.9730  126.8990   61.7360 F   0  0  0  0  0  0  0  0  0  0  0  0
  129.8580  126.1510   64.0520 C   0  0  0  0  0  0  0  0  0  0  0  0
  129.0060  126.8530   64.9820 C   0  0  0  0  0  0  0  0  0  0  0  0
  128.1200  127.8250   64.5910 N   0  0  0  0  0  0  0  0  0  0  0  0
  128.7320  125.0360   71.2770 C   0  0  0  0  0  0  0  0  0  0  0  0
  129.5160  125.0000   72.4420 C   0  0  0  0  0  0  0  0  0  0  0  0
  130.1220  123.8570   72.9290 O   0  0  0  0  0  0  0  0  0  0  0  0
  130.1280  122.6760   72.1340 C   0  0  0  0  0  0  0  0  0  0  0  0
  129.7070  126.1860   73.1660 C   0  0  0  0  0  0  0  0  0  0  0  0
  130.4590  126.1620   74.3160 O   0  0  0  0  0  0  0  0  0  0  0  0
  129.6900  126.1810   75.5110 C   0  0  0  0  0  0  0  0  0  0  0  0
  128.8761  130.4976   73.8435 H   0  0  0  0  0  0  0  0  0  0  0  0
  129.8815  130.1529   72.3953 H   0  0  0  0  0  0  0  0  0  0  0  0
  128.1341  129.7367   72.3953 H   0  0  0  0  0  0  0  0  0  0  0  0
  127.8707  128.3330   71.2496 H   0  0  0  0  0  0  0  0  0  0  0  0
  126.5050  125.4739   69.7007 H   0  0  0  0  0  0  0  0  0  0  0  0
  126.8599  127.2621   69.5166 H   0  0  0  0  0  0  0  0  0  0  0  0
  128.0980  125.0310   68.0740 H   0  0  0  0  0  0  0  0  0  0  0  0
  134.2726  125.0388   62.0948 H   0  0  0  0  0  0  0  0  0  0  0  0
  135.9550  123.5081   61.0928 H   0  0  0  0  0  0  0  0  0  0  0  0
  135.3680  121.1290   60.6579 H   0  0  0  0  0  0  0  0  0  0  0  0
  133.0946  120.2765   61.2115 H   0  0  0  0  0  0  0  0  0  0  0  0
  131.4052  121.8060   62.2041 H   0  0  0  0  0  0  0  0  0  0  0  0
  131.1400  125.4077   60.9712 H   0  0  0  0  0  0  0  0  0  0  0  0
  128.4240  128.6690   64.1240 H   0  0  0  0  0  0  0  0  0  0  0  0
  127.1280  127.7260   64.7530 H   0  0  0  0  0  0  0  0  0  0  0  0
  128.5734  124.1128   70.7004 H   0  0  0  0  0  0  0  0  0  0  0  0
  130.1325  121.7927   72.7896 H   0  0  0  0  0  0  0  0  0  0  0  0
  129.2299  122.6568   71.4991 H   0  0  0  0  0  0  0  0  0  0  0  0
  131.0262  122.6660   71.4991 H   0  0  0  0  0  0  0  0  0  0  0  0
  130.3634  126.1644   76.3807 H   0  0  0  0  0  0  0  0  0  0  0  0
  129.0779  127.0945   75.5386 H   0  0  0  0  0  0  0  0  0  0  0  0
  129.0335  125.2988   75.5386 H   0  0  0  0  0  0  0  0  0  0  0  0
  1  2  1  0
  2  3  1  0
  3  4  2  0
  4  5  1  0
  5  6  1  0
  6  7  1  0
  7  8  1  0
  8  9  2  0
  8 10  1  0
 10 11  1  0
 11 12  1  0
 12 13  2  0
 13 14  1  0
 14 15  1  0
 15 16  2  0
 16 17  1  0
 17 18  2  0
 18 19  1  0
 19 20  2  0
 14 21  2  0
 21 22  1  0
 22 23  1  0
 23 24  1  0
 23 25  1  0
 23 26  1  0
 22 27  2  0
 27 28  1  0
 28 29  1  0
  5 30  2  0
 30 31  1  0
 31 32  1  0
 32 33  1  0
 31 34  2  0
 34 35  1  0
 35 36  1  0
 34  3  1  0
 28 10  2  0
 27 12  1  0
 20 15  1  0
  1 37  1  0
  1 38  1  0
  1 39  1  0
  4 40  1  0
  6 41  1  0
  6 42  1  0
  7 43  1  0
 16 44  1  0
 17 45  1  0
 18 46  1  0
 19 47  1  0
 20 48  1  0
 21 49  1  0
 29 50  1  0
 29 51  1  0
 30 52  1  0
 33 53  1  0
 33 54  1  0
 33 55  1  0
 36 56  1  0
 36 57  1  0
 36 58  1  0
M  END
>  <Binding energies>  (1) 
[-7.29]

>  <Ligand effiencies>  (1) 
[-0.18692307692307691]

>  <Interactions>  (1) 
["V-A:LEU:475:CD1:4254, V-B:GLU:543:CD:9877, H-A:GLU:543:OE1:4906, V-A:ILE:369:CB:3232, H-A:GLU:543:OE2:4907, V-A:ILE:369:CG1:3234, V-A:ILE:369:CG2:3233, V-A:GLY:454:CA:4045, V-B:TYR:539:CE2:9845, V-A:HIS:456:CE1:4066, V-A:GLU:543:CD:4905, V-A:TYR:484:CZ:4343, V-B:GLU:543:CA:9873, V-B:GLU:543:C:9871, V-B:GLU:543:CB:9875, V-B:HIS:456:CE1:9038, V-A:TYR:484:CE1:4341, V-B:GLY:544:C:9881, V-A:HIS:456:CD2:4064, V-B:HIS:456:CD2:9036, V-B:GLU:543:CG:9876, V-A:ASP:366:CG:3209, H-A:TYR:484:OH:4344, H-B:GLU:543:OE1:9878, V-B:LYS:547:CE:9919, V-A:LYS:547:CE:4947, H-B:GLU:543:O:9872, H-A:LYS:547:NZ:4948, H-B:LYS:547:NZ:9920, V-A:GLY:453:C:4038, V-A:ILE:369:CD1:3235, V-A:GLY:453:CA:4040, V-B:GLY:544:CA:9883, V-A:TYR:484:CD2:4340, V-A:TYR:484:CD1:4339, V-A:TYR:484:CG:4338, V-A:TYR:484:CB:4337, H-B:GLU:543:OE2:9879"]

$$$$
4ci_Grossjean_2025
     RDKit          3D

 39 42  0  0  0  0  0  0  0  0999 V2000
  131.1290  124.7520   66.2410 N   0  0  0  0  0  0  0  0  0  0  0  0
  130.7240  125.5460   65.2000 C   0  0  0  0  0  0  0  0  0  0  0  0
  131.2870  125.4760   63.9150 C   0  0  0  0  0  0  0  0  0  0  0  0
  132.3500  124.5910   63.4310 C   0  0  0  0  0  0  0  0  0  0  0  0
  133.5110  124.7280   63.8250 O   0  0  0  0  0  0  0  0  0  0  0  0
  131.9630  123.6510   62.5330 N   0  0  0  0  0  0  0  0  0  0  0  0
  132.7580  122.6940   61.9150 C   0  0  0  0  0  0  0  0  0  0  0  0
  134.1070  122.8930   61.6270 C   0  0  0  0  0  0  0  0  0  0  0  0
  134.5220  121.7280   61.0250 C   0  0  0  0  0  0  0  0  0  0  0  0
  133.4760  120.8700   60.9550 O   0  0  0  0  0  0  0  0  0  0  0  0
  132.3630  121.4940   61.5210 N   0  0  0  0  0  0  0  0  0  0  0  0
  130.5230  126.6280   62.8220 S   0  0  0  0  0  0  0  0  0  0  0  0
  129.4660  127.2000   64.0910 C   0  0  0  0  0  0  0  0  0  0  0  0
  128.5710  128.1600   63.8710 N   0  0  0  0  0  0  0  0  0  0  0  0
  127.7910  128.5360   64.9170 C   0  0  0  0  0  0  0  0  0  0  0  0
  126.7950  129.6250   64.6380 C   0  0  0  0  0  0  0  0  0  0  0  0
  125.4430  129.3230   64.4030 C   0  0  0  0  0  0  0  0  0  0  0  0
  124.5150  130.3280   64.1460 C   0  0  0  0  0  0  0  0  0  0  0  0
  124.9270  131.6560   64.1170 C   0  0  0  0  0  0  0  0  0  0  0  0
  126.2590  131.9840   64.3420 C   0  0  0  0  0  0  0  0  0  0  0  0
  127.1840  130.9760   64.5980 C   0  0  0  0  0  0  0  0  0  0  0  0
  127.9260  127.9580   66.1830 C   0  0  0  0  0  0  0  0  0  0  0  0
  128.8660  126.9440   66.4270 C   0  0  0  0  0  0  0  0  0  0  0  0
  128.9600  126.3540   67.8390 C   0  0  0  0  0  0  0  0  0  0  0  0
  129.0420  125.0220   67.8460 F   0  0  0  0  0  0  0  0  0  0  0  0
  130.0470  126.8240   68.4500 F   0  0  0  0  0  0  0  0  0  0  0  0
  127.8790  126.6920   68.5420 F   0  0  0  0  0  0  0  0  0  0  0  0
  129.6800  126.5330   65.3330 C   0  0  0  0  0  0  0  0  0  0  0  0
  130.4990  124.1090   66.7010 H   0  0  0  0  0  0  0  0  0  0  0  0
  132.0810  124.7770   66.5820 H   0  0  0  0  0  0  0  0  0  0  0  0
  130.9880  123.6360   62.2740 H   0  0  0  0  0  0  0  0  0  0  0  0
  134.7100  123.7889   61.8361 H   0  0  0  0  0  0  0  0  0  0  0  0
  135.5395  121.5256   60.6593 H   0  0  0  0  0  0  0  0  0  0  0  0
  125.1122  128.2741   64.4225 H   0  0  0  0  0  0  0  0  0  0  0  0
  123.4601  130.0730   63.9666 H   0  0  0  0  0  0  0  0  0  0  0  0
  124.1946  132.4514   63.9148 H   0  0  0  0  0  0  0  0  0  0  0  0
  126.5806  133.0357   64.3178 H   0  0  0  0  0  0  0  0  0  0  0  0
  128.2374  131.2405   64.7720 H   0  0  0  0  0  0  0  0  0  0  0  0
  127.2824  128.3049   67.0049 H   0  0  0  0  0  0  0  0  0  0  0  0
  1  2  1  0
  2  3  2  0
  3  4  1  0
  4  5  2  0
  4  6  1  0
  6  7  1  0
  7  8  1  0
  8  9  2  0
  9 10  1  0
 10 11  1  0
  3 12  1  0
 12 13  1  0
 13 14  2  0
 14 15  1  0
 15 16  1  0
 16 17  2  0
 17 18  1  0
 18 19  2  0
 19 20  1  0
 20 21  2  0
 15 22  2  0
 22 23  1  0
 23 24  1  0
 24 25  1  0
 24 26  1  0
 24 27  1  0
 23 28  2  0
 28  2  1  0
 11  7  2  0
 28 13  1  0
 21 16  1  0
  1 29  1  0
  1 30  1  0
  6 31  1  0
  8 32  1  0
  9 33  1  0
 17 34  1  0
 18 35  1  0
 19 36  1  0
 20 37  1  0
 21 38  1  0
 22 39  1  0
M  END
>  <Binding energies>  (1) 
[-6.98]

>  <Ligand effiencies>  (1) 
[-0.22516129032258067]

>  <Interactions>  (1) 
["V-A:LEU:475:CD1:4254, V-B:GLU:543:CD:9877, V-A:ILE:369:CB:3232, H-A:ARG:545:NH2:4925, H-A:GLY:454:N:4046, V-A:ILE:369:CG1:3234, V-A:ILE:369:CG2:3233, V-A:GLY:454:CA:4045, V-A:HIS:456:CE1:4066, V-A:GLU:543:CD:4905, V-A:GLU:543:CG:4904, V-A:TYR:484:CZ:4343, V-B:GLU:543:CA:9873, V-B:GLU:543:C:9871, V-B:GLU:543:CB:9875, V-B:HIS:456:CE1:9038, V-A:TYR:484:CE1:4341, V-B:GLU:543:CG:9876, V-B:ARG:545:CZ:9895, V-B:GLY:454:CA:9017, H-A:TYR:484:OH:4344, H-A:HIS:456:NE2:4067, V-A:ILE:369:CD1:3235, V-B:TYR:484:CZ:9315"]

$$$$
4cj_Grossjean_2025
     RDKit          3D

 39 42  0  0  0  0  0  0  0  0999 V2000
  131.1520  124.7740   66.3020 N   0  0  0  0  0  0  0  0  0  0  0  0
  130.7540  125.5740   65.2620 C   0  0  0  0  0  0  0  0  0  0  0  0
  131.3150  125.5000   63.9760 C   0  0  0  0  0  0  0  0  0  0  0  0
  132.3710  124.6080   63.4910 C   0  0  0  0  0  0  0  0  0  0  0  0
  133.5400  124.7570   63.8570 O   0  0  0  0  0  0  0  0  0  0  0  0
  131.9680  123.6450   62.6260 N   0  0  0  0  0  0  0  0  0  0  0  0
  132.7640  122.6790   62.0230 C   0  0  0  0  0  0  0  0  0  0  0  0
  132.4280  121.4520   61.6870 N   0  0  0  0  0  0  0  0  0  0  0  0
  133.4360  120.8100   61.1300 C   0  0  0  0  0  0  0  0  0  0  0  0
  134.6260  121.5220   61.0040 C   0  0  0  0  0  0  0  0  0  0  0  0
  134.4010  123.1190   61.6530 S   0  0  0  0  0  0  0  0  0  0  0  0
  130.5610  126.6590   62.8840 S   0  0  0  0  0  0  0  0  0  0  0  0
  129.5050  127.2340   64.1530 C   0  0  0  0  0  0  0  0  0  0  0  0
  128.6140  128.1960   63.9310 N   0  0  0  0  0  0  0  0  0  0  0  0
  127.8310  128.5730   64.9750 C   0  0  0  0  0  0  0  0  0  0  0  0
  126.8270  129.6520   64.6870 C   0  0  0  0  0  0  0  0  0  0  0  0
  125.4810  129.3340   64.4450 C   0  0  0  0  0  0  0  0  0  0  0  0
  124.5460  130.3290   64.1720 C   0  0  0  0  0  0  0  0  0  0  0  0
  124.9470  131.6610   64.1340 C   0  0  0  0  0  0  0  0  0  0  0  0
  126.2740  132.0030   64.3690 C   0  0  0  0  0  0  0  0  0  0  0  0
  127.2050  131.0050   64.6430 C   0  0  0  0  0  0  0  0  0  0  0  0
  127.9660  127.9980   66.2430 C   0  0  0  0  0  0  0  0  0  0  0  0
  128.9040  126.9830   66.4900 C   0  0  0  0  0  0  0  0  0  0  0  0
  128.9960  126.3950   67.9020 C   0  0  0  0  0  0  0  0  0  0  0  0
  129.0700  125.0620   67.9110 F   0  0  0  0  0  0  0  0  0  0  0  0
  130.0860  126.8590   68.5130 F   0  0  0  0  0  0  0  0  0  0  0  0
  127.9170  126.7390   68.6060 F   0  0  0  0  0  0  0  0  0  0  0  0
  129.7170  126.5680   65.3960 C   0  0  0  0  0  0  0  0  0  0  0  0
  130.5080  124.1620   66.7840 H   0  0  0  0  0  0  0  0  0  0  0  0
  132.1110  124.7670   66.6220 H   0  0  0  0  0  0  0  0  0  0  0  0
  130.9900  123.6230   62.3790 H   0  0  0  0  0  0  0  0  0  0  0  0
  133.3421  119.7700   60.7842 H   0  0  0  0  0  0  0  0  0  0  0  0
  135.5578  121.1363   60.5648 H   0  0  0  0  0  0  0  0  0  0  0  0
  125.1601  128.2822   64.4715 H   0  0  0  0  0  0  0  0  0  0  0  0
  123.4947  130.0632   63.9871 H   0  0  0  0  0  0  0  0  0  0  0  0
  124.2098  132.4480   63.9168 H   0  0  0  0  0  0  0  0  0  0  0  0
  126.5867  133.0572   64.3386 H   0  0  0  0  0  0  0  0  0  0  0  0
  128.2539  131.2799   64.8281 H   0  0  0  0  0  0  0  0  0  0  0  0
  127.3235  128.3486   67.0642 H   0  0  0  0  0  0  0  0  0  0  0  0
  1  2  1  0
  2  3  2  0
  3  4  1  0
  4  5  2  0
  4  6  1  0
  6  7  1  0
  7  8  2  0
  8  9  1  0
  9 10  2  0
 10 11  1  0
  3 12  1  0
 12 13  1  0
 13 14  2  0
 14 15  1  0
 15 16  1  0
 16 17  2  0
 17 18  1  0
 18 19  2  0
 19 20  1  0
 20 21  2  0
 15 22  2  0
 22 23  1  0
 23 24  1  0
 24 25  1  0
 24 26  1  0
 24 27  1  0
 23 28  2  0
 28  2  1  0
 11  7  1  0
 28 13  1  0
 21 16  1  0
  1 29  1  0
  1 30  1  0
  6 31  1  0
  9 32  1  0
 10 33  1  0
 17 34  1  0
 18 35  1  0
 19 36  1  0
 20 37  1  0
 21 38  1  0
 22 39  1  0
M  END
>  <Binding energies>  (1) 
[-7.0]

>  <Ligand effiencies>  (1) 
[-0.22580645161290322]

>  <Interactions>  (1) 
["V-A:LEU:475:CD1:4254, V-B:GLU:543:CD:9877, V-A:ILE:369:CB:3232, H-A:ARG:545:NH2:4925, H-A:GLY:454:N:4046, V-A:ILE:369:CG1:3234, V-A:ILE:369:CG2:3233, V-A:GLY:454:CA:4045, V-B:TYR:539:CE2:9845, V-A:HIS:456:CE1:4066, V-A:GLU:543:CD:4905, V-A:GLU:543:CG:4904, V-A:TYR:484:CZ:4343, V-B:GLU:543:CA:9873, V-B:GLU:543:C:9871, V-B:GLU:543:CB:9875, V-B:HIS:456:CE1:9038, V-A:TYR:484:CE1:4341, V-B:GLU:543:CG:9876, V-B:ARG:545:CZ:9895, V-B:GLY:454:CA:9017, H-A:TYR:484:OH:4344, H-A:HIS:456:NE2:4067, V-A:GLY:453:C:4038, V-A:ILE:369:CD1:3235, V-B:TYR:484:CZ:9315, V-A:GLY:453:CA:4040"]

$$$$
4ck_Grossjean_2025
     RDKit          3D

 57 59  0  0  0  0  0  0  0  0999 V2000
  134.8700  125.1170   66.2430 C   0  0  0  0  0  0  0  0  0  0  0  0
  133.9380  124.4920   65.3730 O   0  0  0  0  0  0  0  0  0  0  0  0
  133.0570  125.4080   64.7390 C   0  0  0  0  0  0  0  0  0  0  0  0
  133.0890  125.1670   63.2240 C   0  0  0  0  0  0  0  0  0  0  0  0
  133.8270  123.9830   62.9590 O   0  0  0  0  0  0  0  0  0  0  0  0
  133.8840  123.6470   61.5790 C   0  0  0  0  0  0  0  0  0  0  0  0
  132.7550  124.3740   60.8380 C   0  0  0  0  0  0  0  0  0  0  0  0
  131.7000  123.4530   60.5950 O   0  0  0  0  0  0  0  0  0  0  0  0
  131.9190  122.1660   61.1600 C   0  0  0  0  0  0  0  0  0  0  0  0
  130.9450  121.9430   62.3260 C   0  0  0  0  0  0  0  0  0  0  0  0
  130.4900  123.2050   62.9120 N   0  0  0  0  0  0  0  0  0  0  0  0
  130.3310  123.4530   64.2290 C   0  0  0  0  0  0  0  0  0  0  0  0
  130.5900  122.6190   65.0990 O   0  0  0  0  0  0  0  0  0  0  0  0
  129.8390  124.7870   64.5730 C   0  0  0  0  0  0  0  0  0  0  0  0
  128.9950  125.7560   63.3680 S   0  0  0  0  0  0  0  0  0  0  0  0
  128.7300  127.0400   64.5240 C   0  0  0  0  0  0  0  0  0  0  0  0
  128.0840  128.1540   64.1890 N   0  0  0  0  0  0  0  0  0  0  0  0
  127.9260  129.0970   65.1550 C   0  0  0  0  0  0  0  0  0  0  0  0
  127.1770  130.3340   64.7500 C   0  0  0  0  0  0  0  0  0  0  0  0
  127.7920  131.5950   64.7990 C   0  0  0  0  0  0  0  0  0  0  0  0
  127.1020  132.7470   64.4270 C   0  0  0  0  0  0  0  0  0  0  0  0
  125.7830  132.6520   63.9980 C   0  0  0  0  0  0  0  0  0  0  0  0
  125.1510  131.4140   63.9350 C   0  0  0  0  0  0  0  0  0  0  0  0
  125.8450  130.2660   64.3070 C   0  0  0  0  0  0  0  0  0  0  0  0
  128.4110  128.9120   66.4540 C   0  0  0  0  0  0  0  0  0  0  0  0
  129.0940  127.7410   66.8170 C   0  0  0  0  0  0  0  0  0  0  0  0
  129.6020  127.6060   68.2580 C   0  0  0  0  0  0  0  0  0  0  0  0
  129.0100  126.6180   68.9320 F   0  0  0  0  0  0  0  0  0  0  0  0
  130.9110  127.3570   68.2530 F   0  0  0  0  0  0  0  0  0  0  0  0
  129.3720  128.7370   68.9240 F   0  0  0  0  0  0  0  0  0  0  0  0
  129.2670  126.7470   65.8120 C   0  0  0  0  0  0  0  0  0  0  0  0
  129.8900  125.4450   65.8110 C   0  0  0  0  0  0  0  0  0  0  0  0
  130.4830  124.9050   66.9240 N   0  0  0  0  0  0  0  0  0  0  0  0
  134.5829  124.9245   67.2873 H   0  0  0  0  0  0  0  0  0  0  0  0
  135.8748  124.7094   66.0579 H   0  0  0  0  0  0  0  0  0  0  0  0
  134.8743  126.2013   66.0579 H   0  0  0  0  0  0  0  0  0  0  0  0
  132.0344  125.2560   65.1148 H   0  0  0  0  0  0  0  0  0  0  0  0
  133.3732  126.4387   64.9575 H   0  0  0  0  0  0  0  0  0  0  0  0
  132.0619  125.0534   62.8470 H   0  0  0  0  0  0  0  0  0  0  0  0
  133.5657  126.0219   62.7220 H   0  0  0  0  0  0  0  0  0  0  0  0
  134.8551  123.9557   61.1646 H   0  0  0  0  0  0  0  0  0  0  0  0
  133.7671  122.5600   61.4573 H   0  0  0  0  0  0  0  0  0  0  0  0
  132.3845  125.2066   61.4540 H   0  0  0  0  0  0  0  0  0  0  0  0
  133.1301  124.7732   59.8841 H   0  0  0  0  0  0  0  0  0  0  0  0
  131.7532  121.3960   60.3921 H   0  0  0  0  0  0  0  0  0  0  0  0
  132.9529  122.1005   61.5299 H   0  0  0  0  0  0  0  0  0  0  0  0
  130.0703  121.3878   61.9564 H   0  0  0  0  0  0  0  0  0  0  0  0
  131.4751  121.3783   63.1071 H   0  0  0  0  0  0  0  0  0  0  0  0
  130.3430  123.9650   62.2640 H   0  0  0  0  0  0  0  0  0  0  0  0
  128.8358  131.6750   65.1366 H   0  0  0  0  0  0  0  0  0  0  0  0
  127.5988  133.7274   64.4726 H   0  0  0  0  0  0  0  0  0  0  0  0
  125.2359  133.5607   63.7067 H   0  0  0  0  0  0  0  0  0  0  0  0
  124.1080  131.3427   63.5929 H   0  0  0  0  0  0  0  0  0  0  0  0
  125.3423  129.2891   64.2533 H   0  0  0  0  0  0  0  0  0  0  0  0
  128.2540  129.6997   67.2056 H   0  0  0  0  0  0  0  0  0  0  0  0
  130.4600  125.3670   67.8220 H   0  0  0  0  0  0  0  0  0  0  0  0
  130.9610  124.0150   66.8840 H   0  0  0  0  0  0  0  0  0  0  0  0
  1  2  1  0
  2  3  1  0
  3  4  1  0
  4  5  1  0
  5  6  1  0
  6  7  1  0
  7  8  1  0
  8  9  1  0
  9 10  1  0
 10 11  1  0
 11 12  1  0
 12 13  2  0
 12 14  1  0
 14 15  1  0
 15 16  1  0
 16 17  2  0
 17 18  1  0
 18 19  1  0
 19 20  2  0
 20 21  1  0
 21 22  2  0
 22 23  1  0
 23 24  2  0
 18 25  2  0
 25 26  1  0
 26 27  1  0
 27 28  1  0
 27 29  1  0
 27 30  1  0
 26 31  2  0
 31 32  1  0
 32 33  1  0
 32 14  2  0
 31 16  1  0
 24 19  1  0
  1 34  1  0
  1 35  1  0
  1 36  1  0
  3 37  1  0
  3 38  1  0
  4 39  1  0
  4 40  1  0
  6 41  1  0
  6 42  1  0
  7 43  1  0
  7 44  1  0
  9 45  1  0
  9 46  1  0
 10 47  1  0
 10 48  1  0
 11 49  1  0
 20 50  1  0
 21 51  1  0
 22 52  1  0
 23 53  1  0
 24 54  1  0
 25 55  1  0
 33 56  1  0
 33 57  1  0
M  END
>  <Binding energies>  (1) 
[-5.88]

>  <Ligand effiencies>  (1) 
[-0.16333333333333333]

>  <Interactions>  (1) 
["V-A:LEU:475:CD1:4254, V-B:GLU:543:CD:9877, V-A:ARG:545:CZ:4923, H-A:GLY:454:N:4046, V-A:ARG:545:CG:4919, V-A:GLY:454:CA:4045, V-B:TYR:539:CE2:9845, V-A:HIS:456:CE1:4066, V-A:GLY:454:C:4043, V-A:GLU:543:CD:4905, V-A:GLU:543:CG:4904, V-A:TYR:484:CZ:4343, V-B:GLU:543:CB:9875, V-B:HIS:456:CE1:9038, V-A:TYR:484:CE1:4341, V-B:HIS:456:CD2:9036, V-A:GLU:543:CB:4903, V-B:GLU:543:CG:9876, V-A:ALA:541:CB:4889, V-B:GLY:454:CA:9017, V-B:LEU:475:CD2:9227, V-B:TYR:539:CZ:9846, V-A:ASP:366:CG:3209, H-A:TYR:484:OH:4344, V-A:ARG:545:CD:4920, H-A:HIS:456:NE2:4067, V-A:GLU:543:C:4899, V-A:GLU:543:CA:4901, V-A:GLY:453:C:4038, V-B:TYR:484:CE1:9313, V-B:TYR:484:CZ:9315, V-A:ILE:455:C:4048, V-A:GLY:453:CA:4040, H-B:TYR:539:OH:9847"]

$$$$
4dd_Grossjean_2025
     RDKit          3D

 43 46  0  0  0  0  0  0  0  0999 V2000
  129.3270  128.5270   67.9170 C   0  0  0  0  0  0  0  0  0  0  0  0
  129.1640  127.9030   66.5390 C   0  0  0  0  0  0  0  0  0  0  0  0
  129.9120  126.7570   66.2400 C   0  0  0  0  0  0  0  0  0  0  0  0
  129.8070  126.1350   64.9900 C   0  0  0  0  0  0  0  0  0  0  0  0
  130.6000  124.9110   64.6410 C   0  0  0  0  0  0  0  0  0  0  0  0
  131.9650  125.0030   64.3260 C   0  0  0  0  0  0  0  0  0  0  0  0
  132.7080  123.8700   64.0040 C   0  0  0  0  0  0  0  0  0  0  0  0
  132.0930  122.6240   63.9900 C   0  0  0  0  0  0  0  0  0  0  0  0
  130.7420  122.5020   64.2990 C   0  0  0  0  0  0  0  0  0  0  0  0
  130.0040  123.6380   64.6230 C   0  0  0  0  0  0  0  0  0  0  0  0
  128.9900  126.6180   64.0140 N   0  0  0  0  0  0  0  0  0  0  0  0
  128.2730  127.7030   64.2990 C   0  0  0  0  0  0  0  0  0  0  0  0
  127.1710  128.4180   63.1440 S   0  0  0  0  0  0  0  0  0  0  0  0
  126.7130  129.6800   64.2900 C   0  0  0  0  0  0  0  0  0  0  0  0
  125.7210  130.6920   63.9210 C   0  0  0  0  0  0  0  0  0  0  0  0
  124.5720  130.6340   64.3610 O   0  0  0  0  0  0  0  0  0  0  0  0
  126.1670  131.6650   63.0900 N   0  0  0  0  0  0  0  0  0  0  0  0
  125.4670  132.7390   62.5110 C   0  0  0  0  0  0  0  0  0  0  0  0
  126.1830  133.5100   61.5900 C   0  0  0  0  0  0  0  0  0  0  0  0
  125.5730  134.5860   60.9510 C   0  0  0  0  0  0  0  0  0  0  0  0
  124.2430  134.8900   61.2280 C   0  0  0  0  0  0  0  0  0  0  0  0
  123.5150  134.1230   62.1340 C   0  0  0  0  0  0  0  0  0  0  0  0
  124.1210  133.0460   62.7740 C   0  0  0  0  0  0  0  0  0  0  0  0
  127.4020  129.5340   65.5040 C   0  0  0  0  0  0  0  0  0  0  0  0
  127.2470  130.3770   66.5760 N   0  0  0  0  0  0  0  0  0  0  0  0
  128.2990  128.4090   65.5350 C   0  0  0  0  0  0  0  0  0  0  0  0
  129.1289  127.7686   68.6887 H   0  0  0  0  0  0  0  0  0  0  0  0
  130.3540  128.9048   68.0293 H   0  0  0  0  0  0  0  0  0  0  0  0
  128.6160  129.3588   68.0293 H   0  0  0  0  0  0  0  0  0  0  0  0
  130.5914  126.3399   66.9979 H   0  0  0  0  0  0  0  0  0  0  0  0
  132.4562  125.9872   64.3337 H   0  0  0  0  0  0  0  0  0  0  0  0
  133.7771  123.9610   63.7618 H   0  0  0  0  0  0  0  0  0  0  0  0
  132.6780  121.7286   63.7330 H   0  0  0  0  0  0  0  0  0  0  0  0
  130.2592  121.5137   64.2875 H   0  0  0  0  0  0  0  0  0  0  0  0
  128.9366  123.5373   64.8690 H   0  0  0  0  0  0  0  0  0  0  0  0
  127.1470  131.6320   62.8540 H   0  0  0  0  0  0  0  0  0  0  0  0
  127.2325  133.2653   61.3695 H   0  0  0  0  0  0  0  0  0  0  0  0
  126.1397  135.1936   60.2301 H   0  0  0  0  0  0  0  0  0  0  0  0
  123.7630  135.7435   60.7268 H   0  0  0  0  0  0  0  0  0  0  0  0
  122.4632  134.3679   62.3434 H   0  0  0  0  0  0  0  0  0  0  0  0
  123.5465  132.4350   63.4857 H   0  0  0  0  0  0  0  0  0  0  0  0
  128.0310  130.6680   67.1440 H   0  0  0  0  0  0  0  0  0  0  0  0
  126.3400  130.7390   66.8320 H   0  0  0  0  0  0  0  0  0  0  0  0
  1  2  1  0
  2  3  2  0
  3  4  1  0
  4  5  1  0
  5  6  2  0
  6  7  1  0
  7  8  2  0
  8  9  1  0
  9 10  2  0
  4 11  2  0
 11 12  1  0
 12 13  1  0
 13 14  1  0
 14 15  1  0
 15 16  2  0
 15 17  1  0
 17 18  1  0
 18 19  2  0
 19 20  1  0
 20 21  2  0
 21 22  1  0
 22 23  2  0
 14 24  2  0
 24 25  1  0
 24 26  1  0
 26  2  1  0
 10  5  1  0
 26 12  2  0
 23 18  1  0
  1 27  1  0
  1 28  1  0
  1 29  1  0
  3 30  1  0
  6 31  1  0
  7 32  1  0
  8 33  1  0
  9 34  1  0
 10 35  1  0
 17 36  1  0
 19 37  1  0
 20 38  1  0
 21 39  1  0
 22 40  1  0
 23 41  1  0
 25 42  1  0
 25 43  1  0
M  END
>  <Binding energies>  (1) 
[-7.6]

>  <Ligand effiencies>  (1) 
[-0.26206896551724135]

>  <Interactions>  (1) 
["V-A:LEU:475:CD1:4254, V-B:GLU:543:CD:9877, H-A:GLU:543:OE2:4907, V-A:GLY:454:CA:4045, V-A:GLU:543:CD:4905, H-B:HIS:456:NE2:9039, V-A:GLU:543:CG:4904, V-A:TYR:484:CZ:4343, V-B:HIS:456:CE1:9038, V-A:TYR:484:CE1:4341, V-A:GLU:543:CB:4903, V-B:GLU:543:CG:9876, V-B:ILE:369:CD1:8207, V-B:ILE:369:CG2:8205, V-B:TRP:381:CH2:8340, V-B:GLY:454:CA:9017, H-B:TYR:484:OH:9316, V-B:LEU:475:CD2:9227, V-A:GLU:543:C:4899, V-A:LEU:475:CD2:4255, H-B:GLY:454:N:9018, V-B:TYR:484:CE1:9313, V-B:TYR:484:CZ:9315"]

$$$$
4dg_Grossjean_2025
     RDKit          3D

 46 49  0  0  0  0  0  0  0  0999 V2000
  132.1060  128.5210   68.6890 C   0  0  0  0  0  0  0  0  0  0  0  0
  130.8660  127.6930   68.3870 C   0  0  0  0  0  0  0  0  0  0  0  0
  130.6990  127.2030   67.0860 C   0  0  0  0  0  0  0  0  0  0  0  0
  129.5800  126.4350   66.7440 C   0  0  0  0  0  0  0  0  0  0  0  0
  129.3750  125.8950   65.3570 C   0  0  0  0  0  0  0  0  0  0  0  0
  129.5820  124.5350   65.0750 C   0  0  0  0  0  0  0  0  0  0  0  0
  129.3970  124.0300   63.7900 C   0  0  0  0  0  0  0  0  0  0  0  0
  129.0000  124.8810   62.7640 C   0  0  0  0  0  0  0  0  0  0  0  0
  128.7910  126.2340   63.0140 C   0  0  0  0  0  0  0  0  0  0  0  0
  128.9780  126.7340   64.2990 C   0  0  0  0  0  0  0  0  0  0  0  0
  128.6220  126.1170   67.6560 N   0  0  0  0  0  0  0  0  0  0  0  0
  128.7780  126.5830   68.8950 C   0  0  0  0  0  0  0  0  0  0  0  0
  127.6190  126.2540   70.1610 S   0  0  0  0  0  0  0  0  0  0  0  0
  128.5670  127.1750   71.3280 C   0  0  0  0  0  0  0  0  0  0  0  0
  128.0850  127.3410   72.6980 C   0  0  0  0  0  0  0  0  0  0  0  0
  128.8620  127.5500   73.6320 O   0  0  0  0  0  0  0  0  0  0  0  0
  126.7530  127.2130   72.8740 N   0  0  0  0  0  0  0  0  0  0  0  0
  126.0490  127.3610   74.1470 C   0  0  0  0  0  0  0  0  0  0  0  0
  125.7680  128.8130   74.5190 C   0  0  0  0  0  0  0  0  0  0  0  0
  124.6080  129.1350   75.2300 C   0  0  0  0  0  0  0  0  0  0  0  0
  124.3640  130.4550   75.5980 C   0  0  0  0  0  0  0  0  0  0  0  0
  125.2840  131.4470   75.2640 C   0  0  0  0  0  0  0  0  0  0  0  0
  126.4500  131.1300   74.5700 C   0  0  0  0  0  0  0  0  0  0  0  0
  126.6950  129.8100   74.2030 C   0  0  0  0  0  0  0  0  0  0  0  0
  129.7180  127.7160   70.7360 C   0  0  0  0  0  0  0  0  0  0  0  0
  130.6300  128.4890   71.4080 N   0  0  0  0  0  0  0  0  0  0  0  0
  129.8680  127.3810   69.3450 C   0  0  0  0  0  0  0  0  0  0  0  0
  132.2336  128.6062   69.7782 H   0  0  0  0  0  0  0  0  0  0  0  0
  132.9892  128.0308   68.2536 H   0  0  0  0  0  0  0  0  0  0  0  0
  131.9917  129.5247   68.2536 H   0  0  0  0  0  0  0  0  0  0  0  0
  131.4583  127.4249   66.3216 H   0  0  0  0  0  0  0  0  0  0  0  0
  129.8955  123.8570   65.8825 H   0  0  0  0  0  0  0  0  0  0  0  0
  129.5643  122.9618   63.5874 H   0  0  0  0  0  0  0  0  0  0  0  0
  128.8504  124.4825   61.7497 H   0  0  0  0  0  0  0  0  0  0  0  0
  128.4795  126.9048   62.1998 H   0  0  0  0  0  0  0  0  0  0  0  0
  128.8126  127.8043   64.4914 H   0  0  0  0  0  0  0  0  0  0  0  0
  126.1710  127.1210   72.0540 H   0  0  0  0  0  0  0  0  0  0  0  0
  125.0899  126.8267   74.0791 H   0  0  0  0  0  0  0  0  0  0  0  0
  126.7019  126.9462   74.9291 H   0  0  0  0  0  0  0  0  0  0  0  0
  123.8894  128.3465   75.4981 H   0  0  0  0  0  0  0  0  0  0  0  0
  123.4486  130.7141   76.1503 H   0  0  0  0  0  0  0  0  0  0  0  0
  125.0878  132.4906   75.5511 H   0  0  0  0  0  0  0  0  0  0  0  0
  127.1728  131.9186   74.3136 H   0  0  0  0  0  0  0  0  0  0  0  0
  127.6184  129.5514   73.6641 H   0  0  0  0  0  0  0  0  0  0  0  0
  130.5470  129.4940   71.4560 H   0  0  0  0  0  0  0  0  0  0  0  0
  131.4180  128.0730   71.8870 H   0  0  0  0  0  0  0  0  0  0  0  0
  1  2  1  0
  2  3  2  0
  3  4  1  0
  4  5  1  0
  5  6  2  0
  6  7  1  0
  7  8  2  0
  8  9  1  0
  9 10  2  0
  4 11  2  0
 11 12  1  0
 12 13  1  0
 13 14  1  0
 14 15  1  0
 15 16  2  0
 15 17  1  0
 17 18  1  0
 18 19  1  0
 19 20  2  0
 20 21  1  0
 21 22  2  0
 22 23  1  0
 23 24  2  0
 14 25  2  0
 25 26  1  0
 25 27  1  0
 27  2  1  0
 10  5  1  0
 27 12  2  0
 24 19  1  0
  1 28  1  0
  1 29  1  0
  1 30  1  0
  3 31  1  0
  6 32  1  0
  7 33  1  0
  8 34  1  0
  9 35  1  0
 10 36  1  0
 17 37  1  0
 18 38  1  0
 18 39  1  0
 20 40  1  0
 21 41  1  0
 22 42  1  0
 23 43  1  0
 24 44  1  0
 26 45  1  0
 26 46  1  0
M  END
>  <Binding energies>  (1) 
[-8.14]

>  <Ligand effiencies>  (1) 
[-0.27133333333333337]

>  <Interactions>  (1) 
["V-B:GLU:543:CD:9877, V-A:ARG:545:CG:4919, V-A:HIS:456:CE1:4066, H-B:HIS:456:NE2:9039, V-B:GLU:543:C:9871, V-B:GLU:543:CB:9875, V-B:HIS:456:CE1:9038, V-B:GLY:544:C:9881, V-B:HIS:456:CD2:9036, H-A:GLU:543:O:4900, V-A:GLU:543:CB:4903, V-B:GLU:543:CG:9876, V-B:LYS:547:CE:9919, V-B:VAL:457:C:9041, V-B:ASP:473:CG:9208, V-B:ASP:473:CB:9207, V-B:HIS:456:CG:9034, V-B:HIS:456:C:9029, V-A:GLU:543:C:4899, V-B:VAL:457:CA:9043, V-B:HIS:456:CB:9033, V-B:LYS:547:CD:9918, V-B:VAL:458:CG2:9055, H-A:LYS:547:NZ:4948, V-B:LYS:471:CE:9188, V-A:GLU:543:CA:4901, V-A:GLY:544:CA:4911, V-A:GLY:544:C:4909, V-A:ARG:545:CA:4916, V-B:GLY:544:CA:9883, H-B:GLY:544:O:9882, H-A:GLY:544:O:4910, V-B:LYS:471:CB:9185, V-A:ARG:545:CB:4918"]

$$$$
4dj_Grossjean_2025
     RDKit          3D

 39 42  0  0  0  0  0  0  0  0999 V2000
  128.3480  126.7230   67.9960 C   0  0  0  0  0  0  0  0  0  0  0  0
  128.4270  127.3040   66.5920 C   0  0  0  0  0  0  0  0  0  0  0  0
  127.5500  128.3430   66.2580 C   0  0  0  0  0  0  0  0  0  0  0  0
  127.5700  128.9190   64.9820 C   0  0  0  0  0  0  0  0  0  0  0  0
  126.6460  130.0380   64.5960 C   0  0  0  0  0  0  0  0  0  0  0  0
  127.0420  131.3790   64.7320 C   0  0  0  0  0  0  0  0  0  0  0  0
  126.1900  132.4220   64.3770 C   0  0  0  0  0  0  0  0  0  0  0  0
  124.9210  132.1370   63.8830 C   0  0  0  0  0  0  0  0  0  0  0  0
  124.5010  130.8190   63.7420 C   0  0  0  0  0  0  0  0  0  0  0  0
  125.3560  129.7800   64.0970 C   0  0  0  0  0  0  0  0  0  0  0  0
  128.4460  128.5110   64.0230 N   0  0  0  0  0  0  0  0  0  0  0  0
  129.2800  127.5220   64.3400 C   0  0  0  0  0  0  0  0  0  0  0  0
  130.4510  126.8950   63.2010 S   0  0  0  0  0  0  0  0  0  0  0  0
  131.0490  125.7300   64.3850 C   0  0  0  0  0  0  0  0  0  0  0  0
  132.1270  124.8050   64.0330 C   0  0  0  0  0  0  0  0  0  0  0  0
  132.8390  124.3050   64.9080 O   0  0  0  0  0  0  0  0  0  0  0  0
  132.2770  124.5610   62.7080 N   0  0  0  0  0  0  0  0  0  0  0  0
  133.2170  123.7310   62.1140 C   0  0  0  0  0  0  0  0  0  0  0  0
  134.5070  123.9480   61.9640 N   0  0  0  0  0  0  0  0  0  0  0  0
  135.1000  122.9410   61.3530 C   0  0  0  0  0  0  0  0  0  0  0  0
  134.2840  121.8730   60.9930 C   0  0  0  0  0  0  0  0  0  0  0  0
  132.6530  122.2160   61.4850 S   0  0  0  0  0  0  0  0  0  0  0  0
  130.3530  125.8410   65.5980 C   0  0  0  0  0  0  0  0  0  0  0  0
  130.6050  125.0570   66.6960 N   0  0  0  0  0  0  0  0  0  0  0  0
  129.3380  126.8600   65.5990 C   0  0  0  0  0  0  0  0  0  0  0  0
  128.4579  127.5313   68.7340 H   0  0  0  0  0  0  0  0  0  0  0  0
  127.3745  126.2299   68.1345 H   0  0  0  0  0  0  0  0  0  0  0  0
  129.1544  125.9878   68.1345 H   0  0  0  0  0  0  0  0  0  0  0  0
  126.8354  128.7119   67.0085 H   0  0  0  0  0  0  0  0  0  0  0  0
  128.0429  131.6094   65.1259 H   0  0  0  0  0  0  0  0  0  0  0  0
  126.5188  133.4660   64.4867 H   0  0  0  0  0  0  0  0  0  0  0  0
  124.2461  132.9590   63.6024 H   0  0  0  0  0  0  0  0  0  0  0  0
  123.4967  130.5984   63.3513 H   0  0  0  0  0  0  0  0  0  0  0  0
  125.0176  128.7393   63.9856 H   0  0  0  0  0  0  0  0  0  0  0  0
  131.6460  125.0310   62.0760 H   0  0  0  0  0  0  0  0  0  0  0  0
  136.1792  122.9451   61.1399 H   0  0  0  0  0  0  0  0  0  0  0  0
  134.6175  120.9590   60.4798 H   0  0  0  0  0  0  0  0  0  0  0  0
  130.0320  125.1010   67.5260 H   0  0  0  0  0  0  0  0  0  0  0  0
  131.3780  124.4060   66.7100 H   0  0  0  0  0  0  0  0  0  0  0  0
  1  2  1  0
  2  3  2  0
  3  4  1  0
  4  5  1  0
  5  6  2  0
  6  7  1  0
  7  8  2  0
  8  9  1  0
  9 10  2  0
  4 11  2  0
 11 12  1  0
 12 13  1  0
 13 14  1  0
 14 15  1  0
 15 16  2  0
 15 17  1  0
 17 18  1  0
 18 19  2  0
 19 20  1  0
 20 21  2  0
 21 22  1  0
 14 23  2  0
 23 24  1  0
 23 25  1  0
 25  2  1  0
 10  5  1  0
 25 12  2  0
 22 18  1  0
  1 26  1  0
  1 27  1  0
  1 28  1  0
  3 29  1  0
  6 30  1  0
  7 31  1  0
  8 32  1  0
  9 33  1  0
 10 34  1  0
 17 35  1  0
 20 36  1  0
 21 37  1  0
 24 38  1  0
 24 39  1  0
M  END
>  <Binding energies>  (1) 
[-6.92]

>  <Ligand effiencies>  (1) 
[-0.24714285714285714]

>  <Interactions>  (1) 
["V-A:LEU:475:CD1:4254, V-B:GLU:543:CD:9877, V-A:ILE:369:CB:3232, H-A:GLY:454:N:4046, V-A:ILE:369:CG1:3234, V-A:ILE:369:CG2:3233, V-A:GLY:454:CA:4045, V-B:TYR:539:CE2:9845, V-A:HIS:456:CE1:4066, V-A:GLU:543:CD:4905, V-A:GLU:543:CG:4904, V-A:TYR:484:CZ:4343, V-B:GLU:543:CB:9875, V-B:HIS:456:CE1:9038, V-A:TYR:484:CE1:4341, V-B:ARG:545:CZ:9895, V-B:GLY:454:CA:9017, V-B:LEU:475:CD2:9227, H-A:TYR:484:OH:4344, H-A:HIS:456:NE2:4067, H-B:GLU:543:O:9872, V-A:GLY:453:C:4038, V-B:TYR:484:CE1:9313, V-B:TYR:484:CZ:9315, V-A:GLY:453:CA:4040"]

$$$$
4ea_Grossjean_2025
     RDKit          3D

 52 55  0  0  0  0  0  0  0  0999 V2000
  125.0500  127.7440   74.0880 C   0  0  0  0  0  0  0  0  0  0  0  0
  126.4960  128.1750   73.8230 C   0  0  0  0  0  0  0  0  0  0  0  0
  127.1010  127.2640   72.9150 O   0  0  0  0  0  0  0  0  0  0  0  0
  128.3890  127.4210   72.5160 C   0  0  0  0  0  0  0  0  0  0  0  0
  129.3030  127.7430   73.2820 O   0  0  0  0  0  0  0  0  0  0  0  0
  128.5920  127.1660   71.0510 C   0  0  0  0  0  0  0  0  0  0  0  0
  129.7420  127.6620   70.4230 C   0  0  0  0  0  0  0  0  0  0  0  0
  129.9600  127.4420   69.0660 C   0  0  0  0  0  0  0  0  0  0  0  0
  129.0350  126.7230   68.3080 C   0  0  0  0  0  0  0  0  0  0  0  0
  129.3590  126.5630   66.9470 N   0  0  0  0  0  0  0  0  0  0  0  0
  129.8570  125.4910   66.2830 C   0  0  0  0  0  0  0  0  0  0  0  0
  130.1230  124.4110   66.8100 O   0  0  0  0  0  0  0  0  0  0  0  0
  130.0730  125.6920   64.8480 C   0  0  0  0  0  0  0  0  0  0  0  0
  129.2700  127.0160   64.0000 S   0  0  0  0  0  0  0  0  0  0  0  0
  130.0130  126.5600   62.4840 C   0  0  0  0  0  0  0  0  0  0  0  0
  129.7830  127.2350   61.3560 N   0  0  0  0  0  0  0  0  0  0  0  0
  130.4200  126.7790   60.2490 C   0  0  0  0  0  0  0  0  0  0  0  0
  130.1450  127.5600   58.9780 C   0  0  0  0  0  0  0  0  0  0  0  0
  131.2720  125.6770   60.2440 C   0  0  0  0  0  0  0  0  0  0  0  0
  131.5100  124.9720   61.4290 C   0  0  0  0  0  0  0  0  0  0  0  0
  132.4170  123.8030   61.4080 C   0  0  0  0  0  0  0  0  0  0  0  0
  133.8040  123.9890   61.3980 C   0  0  0  0  0  0  0  0  0  0  0  0
  134.6580  122.8900   61.3800 C   0  0  0  0  0  0  0  0  0  0  0  0
  134.1250  121.6030   61.3680 C   0  0  0  0  0  0  0  0  0  0  0  0
  132.7460  121.4060   61.3730 C   0  0  0  0  0  0  0  0  0  0  0  0
  131.8930  122.5070   61.3900 C   0  0  0  0  0  0  0  0  0  0  0  0
  130.8600  125.4190   62.6130 C   0  0  0  0  0  0  0  0  0  0  0  0
  130.8760  124.9430   63.9720 C   0  0  0  0  0  0  0  0  0  0  0  0
  131.6160  123.8550   64.3580 N   0  0  0  0  0  0  0  0  0  0  0  0
  127.8800  126.2210   68.9290 C   0  0  0  0  0  0  0  0  0  0  0  0
  127.6640  126.4420   70.2860 C   0  0  0  0  0  0  0  0  0  0  0  0
  124.8758  127.6921   75.1729 H   0  0  0  0  0  0  0  0  0  0  0  0
  124.3614  128.4759   73.6407 H   0  0  0  0  0  0  0  0  0  0  0  0
  124.8745  126.7545   73.6407 H   0  0  0  0  0  0  0  0  0  0  0  0
  126.5041  129.1857   73.3889 H   0  0  0  0  0  0  0  0  0  0  0  0
  127.0576  128.1788   74.7688 H   0  0  0  0  0  0  0  0  0  0  0  0
  130.4797  128.2308   71.0080 H   0  0  0  0  0  0  0  0  0  0  0  0
  130.8680  127.8378   68.5876 H   0  0  0  0  0  0  0  0  0  0  0  0
  129.1880  127.3850   66.3870 H   0  0  0  0  0  0  0  0  0  0  0  0
  129.7899  128.5684   59.2369 H   0  0  0  0  0  0  0  0  0  0  0  0
  131.0700  127.6373   58.3877 H   0  0  0  0  0  0  0  0  0  0  0  0
  129.3757  127.0407   58.3877 H   0  0  0  0  0  0  0  0  0  0  0  0
  131.7575  125.3611   59.3089 H   0  0  0  0  0  0  0  0  0  0  0  0
  134.2207  125.0070   61.4044 H   0  0  0  0  0  0  0  0  0  0  0  0
  135.7481  123.0370   61.3753 H   0  0  0  0  0  0  0  0  0  0  0  0
  134.7994  120.7341   61.3544 H   0  0  0  0  0  0  0  0  0  0  0  0
  132.3330  120.3865   61.3636 H   0  0  0  0  0  0  0  0  0  0  0  0
  130.8034  122.3563   61.3893 H   0  0  0  0  0  0  0  0  0  0  0  0
  131.5560  123.4730   65.2920 H   0  0  0  0  0  0  0  0  0  0  0  0
  132.2510  123.3960   63.7180 H   0  0  0  0  0  0  0  0  0  0  0  0
  127.1444  125.6519   68.3417 H   0  0  0  0  0  0  0  0  0  0  0  0
  126.7564  126.0451   70.7642 H   0  0  0  0  0  0  0  0  0  0  0  0
  1  2  1  0
  2  3  1  0
  3  4  1  0
  4  5  2  0
  4  6  1  0
  6  7  2  0
  7  8  1  0
  8  9  2  0
  9 10  1  0
 10 11  1  0
 11 12  2  0
 11 13  1  0
 13 14  1  0
 14 15  1  0
 15 16  2  0
 16 17  1  0
 17 18  1  0
 17 19  2  0
 19 20  1  0
 20 21  1  0
 21 22  2  0
 22 23  1  0
 23 24  2  0
 24 25  1  0
 25 26  2  0
 20 27  2  0
 27 28  1  0
 28 29  1  0
  9 30  1  0
 30 31  2  0
 31  6  1  0
 28 13  2  0
 27 15  1  0
 26 21  1  0
  1 32  1  0
  1 33  1  0
  1 34  1  0
  2 35  1  0
  2 36  1  0
  7 37  1  0
  8 38  1  0
 10 39  1  0
 18 40  1  0
 18 41  1  0
 18 42  1  0
 19 43  1  0
 22 44  1  0
 23 45  1  0
 24 46  1  0
 25 47  1  0
 26 48  1  0
 29 49  1  0
 29 50  1  0
 30 51  1  0
 31 52  1  0
M  END
>  <Binding energies>  (1) 
[-7.89]

>  <Ligand effiencies>  (1) 
[-0.23205882352941176]

>  <Interactions>  (1) 
["V-A:LEU:475:CD1:4254, V-B:GLU:543:CD:9877, H-A:GLU:543:OE1:4906, V-A:ILE:369:CG1:3234, V-A:ILE:369:CG2:3233, V-A:GLY:454:CA:4045, V-B:TYR:539:CE2:9845, V-A:HIS:456:CE1:4066, V-A:GLU:543:CD:4905, V-B:GLU:543:C:9871, V-B:GLU:543:CB:9875, V-B:HIS:456:CE1:9038, V-B:GLY:544:C:9881, V-B:HIS:456:CD2:9036, V-B:GLU:543:CG:9876, V-A:ASP:366:CG:3209, H-A:TYR:484:OH:4344, V-B:LYS:547:CE:9919, V-B:HIS:456:CG:9034, V-B:HIS:456:CB:9033, V-B:LYS:547:CD:9918, H-A:LYS:547:NZ:4948, V-A:GLY:453:C:4038"]

$$$$
4eb_Grossjean_2025
     RDKit          3D

 49 52  0  0  0  0  0  0  0  0999 V2000
  129.4150  129.8940   72.6470 C   0  0  0  0  0  0  0  0  0  0  0  0
  129.3630  128.4750   72.6330 O   0  0  0  0  0  0  0  0  0  0  0  0
  128.3880  127.8170   71.9530 C   0  0  0  0  0  0  0  0  0  0  0  0
  127.2370  127.6820   72.3770 O   0  0  0  0  0  0  0  0  0  0  0  0
  128.8510  127.2730   70.6320 C   0  0  0  0  0  0  0  0  0  0  0  0
  129.9940  127.8170   70.0310 C   0  0  0  0  0  0  0  0  0  0  0  0
  130.4480  127.3340   68.8080 C   0  0  0  0  0  0  0  0  0  0  0  0
  129.7720  126.2990   68.1600 C   0  0  0  0  0  0  0  0  0  0  0  0
  130.3220  125.8910   66.9290 N   0  0  0  0  0  0  0  0  0  0  0  0
  129.8770  126.0810   65.6630 C   0  0  0  0  0  0  0  0  0  0  0  0
  128.8440  126.6860   65.3740 O   0  0  0  0  0  0  0  0  0  0  0  0
  130.7210  125.5080   64.6110 C   0  0  0  0  0  0  0  0  0  0  0  0
  132.4800  125.5740   64.7430 S   0  0  0  0  0  0  0  0  0  0  0  0
  132.6740  124.7440   63.2150 C   0  0  0  0  0  0  0  0  0  0  0  0
  133.8770  124.4670   62.7110 N   0  0  0  0  0  0  0  0  0  0  0  0
  133.8910  123.8210   61.5210 C   0  0  0  0  0  0  0  0  0  0  0  0
  135.2710  123.5160   60.9660 C   0  0  0  0  0  0  0  0  0  0  0  0
  132.7410  123.4490   60.8280 C   0  0  0  0  0  0  0  0  0  0  0  0
  131.4800  123.7420   61.3600 C   0  0  0  0  0  0  0  0  0  0  0  0
  130.2660  123.3400   60.6120 C   0  0  0  0  0  0  0  0  0  0  0  0
  129.8040  124.1240   59.5510 C   0  0  0  0  0  0  0  0  0  0  0  0
  128.6640  123.7450   58.8460 C   0  0  0  0  0  0  0  0  0  0  0  0
  127.9850  122.5830   59.2050 C   0  0  0  0  0  0  0  0  0  0  0  0
  128.4370  121.7970   60.2630 C   0  0  0  0  0  0  0  0  0  0  0  0
  129.5760  122.1770   60.9670 C   0  0  0  0  0  0  0  0  0  0  0  0
  131.4230  124.4190   62.6090 C   0  0  0  0  0  0  0  0  0  0  0  0
  130.3260  124.8660   63.4260 C   0  0  0  0  0  0  0  0  0  0  0  0
  129.0170  124.6740   63.0640 N   0  0  0  0  0  0  0  0  0  0  0  0
  128.6270  125.7470   68.7540 C   0  0  0  0  0  0  0  0  0  0  0  0
  128.1740  126.2320   69.9780 C   0  0  0  0  0  0  0  0  0  0  0  0
  129.4281  130.2502   73.6877 H   0  0  0  0  0  0  0  0  0  0  0  0
  130.3262  130.2326   72.1321 H   0  0  0  0  0  0  0  0  0  0  0  0
  128.5311  130.2984   72.1321 H   0  0  0  0  0  0  0  0  0  0  0  0
  130.5369  128.6329   70.5306 H   0  0  0  0  0  0  0  0  0  0  0  0
  131.3466  127.7711   68.3481 H   0  0  0  0  0  0  0  0  0  0  0  0
  131.1850  125.3760   67.0160 H   0  0  0  0  0  0  0  0  0  0  0  0
  135.9744  123.3605   61.7973 H   0  0  0  0  0  0  0  0  0  0  0  0
  135.2254  122.6063   60.3493 H   0  0  0  0  0  0  0  0  0  0  0  0
  135.6130  124.3602   60.3493 H   0  0  0  0  0  0  0  0  0  0  0  0
  132.8240  122.9257   59.8640 H   0  0  0  0  0  0  0  0  0  0  0  0
  130.3418  125.0422   59.2722 H   0  0  0  0  0  0  0  0  0  0  0  0
  128.3016  124.3606   58.0095 H   0  0  0  0  0  0  0  0  0  0  0  0
  127.0846  122.2834   58.6487 H   0  0  0  0  0  0  0  0  0  0  0  0
  127.8961  120.8803   60.5406 H   0  0  0  0  0  0  0  0  0  0  0  0
  129.9342  121.5607   61.8048 H   0  0  0  0  0  0  0  0  0  0  0  0
  128.2720  125.2410   63.4430 H   0  0  0  0  0  0  0  0  0  0  0  0
  128.7530  123.9560   62.4030 H   0  0  0  0  0  0  0  0  0  0  0  0
  128.0869  124.9305   68.2524 H   0  0  0  0  0  0  0  0  0  0  0  0
  127.2755  125.7944   70.4375 H   0  0  0  0  0  0  0  0  0  0  0  0
  1  2  1  0
  2  3  1  0
  3  4  2  0
  3  5  1  0
  5  6  2  0
  6  7  1  0
  7  8  2  0
  8  9  1  0
  9 10  1  0
 10 11  2  0
 10 12  1  0
 12 13  1  0
 13 14  1  0
 14 15  2  0
 15 16  1  0
 16 17  1  0
 16 18  2  0
 18 19  1  0
 19 20  1  0
 20 21  2  0
 21 22  1  0
 22 23  2  0
 23 24  1  0
 24 25  2  0
 19 26  2  0
 26 27  1  0
 27 28  1  0
  8 29  1  0
 29 30  2  0
 30  5  1  0
 27 12  2  0
 26 14  1  0
 25 20  1  0
  1 31  1  0
  1 32  1  0
  1 33  1  0
  6 34  1  0
  7 35  1  0
  9 36  1  0
 17 37  1  0
 17 38  1  0
 17 39  1  0
 18 40  1  0
 21 41  1  0
 22 42  1  0
 23 43  1  0
 24 44  1  0
 25 45  1  0
 28 46  1  0
 28 47  1  0
 29 48  1  0
 30 49  1  0
M  END
>  <Binding energies>  (1) 
[-7.69]

>  <Ligand effiencies>  (1) 
[-0.23303030303030303]

>  <Interactions>  (1) 
["V-B:GLU:543:CD:9877, V-A:ARG:545:CZ:4923, V-A:ILE:369:CB:3232, H-A:GLY:454:N:4046, V-A:ILE:369:CG1:3234, V-B:TYR:539:CE2:9845, V-A:HIS:456:CE1:4066, V-B:GLU:543:C:9871, V-B:GLU:543:CB:9875, V-B:HIS:456:CE1:9038, V-A:HIS:456:CD2:4064, V-B:HIS:456:CD2:9036, V-B:GLU:543:CG:9876, V-B:TYR:539:CZ:9846, V-B:TYR:539:CD2:9843, V-B:ALA:541:CB:9861, V-A:ASP:366:CG:3209, V-B:TYR:539:C:9836, H-A:TYR:484:OH:4344, H-B:GLU:543:OE1:9878, H-A:HIS:456:NE2:4067, V-A:LYS:547:CE:4947, H-A:LYS:547:NZ:4948, V-A:GLY:453:C:4038, V-B:PRO:540:C:9850, V-B:PRO:540:CA:9852, V-A:GLY:453:CA:4040, V-A:ASP:366:CA:3206, H-B:GLU:543:OE2:9879"]

$$$$
8a_Ghoteimi_2023
     RDKit          3D

 67 71  0  0  0  0  0  0  0  0999 V2000
  123.8210  134.0740   62.1890 C   0  0  0  0  0  0  0  0  0  0  0  0
  124.3380  134.5480   60.8270 C   0  0  0  0  0  0  0  0  0  0  0  0
  125.2600  135.6140   61.0170 O   0  0  0  0  0  0  0  0  0  0  0  0
  126.5560  135.4980   60.6240 C   0  0  0  0  0  0  0  0  0  0  0  0
  127.2200  136.4420   60.1860 O   0  0  0  0  0  0  0  0  0  0  0  0
  127.0970  134.1050   60.7710 C   0  0  0  0  0  0  0  0  0  0  0  0
  127.3180  133.5890   62.0540 C   0  0  0  0  0  0  0  0  0  0  0  0
  127.8210  132.3020   62.2230 C   0  0  0  0  0  0  0  0  0  0  0  0
  128.1140  131.5040   61.1170 C   0  0  0  0  0  0  0  0  0  0  0  0
  128.6220  130.2230   61.4090 N   0  0  0  0  0  0  0  0  0  0  0  0
  128.0440  129.0020   61.2850 C   0  0  0  0  0  0  0  0  0  0  0  0
  126.9010  128.8140   60.8700 O   0  0  0  0  0  0  0  0  0  0  0  0
  128.8870  127.8700   61.6820 C   0  0  0  0  0  0  0  0  0  0  0  0
  129.7630  126.9420   60.4650 S   0  0  0  0  0  0  0  0  0  0  0  0
  130.4310  125.8830   61.6850 C   0  0  0  0  0  0  0  0  0  0  0  0
  131.2310  124.8660   61.3680 N   0  0  0  0  0  0  0  0  0  0  0  0
  131.6910  124.1000   62.3920 C   0  0  0  0  0  0  0  0  0  0  0  0
  132.5710  122.9520   62.0110 C   0  0  0  0  0  0  0  0  0  0  0  0
  132.0270  121.7030   61.6810 C   0  0  0  0  0  0  0  0  0  0  0  0
  132.8510  120.6350   61.3390 C   0  0  0  0  0  0  0  0  0  0  0  0
  134.2360  120.7880   61.3140 C   0  0  0  0  0  0  0  0  0  0  0  0
  134.9750  119.6730   60.9650 O   0  0  0  0  0  0  0  0  0  0  0  0
  134.2950  118.4750   60.6080 C   0  0  0  0  0  0  0  0  0  0  0  0
  134.7900  122.0350   61.6370 C   0  0  0  0  0  0  0  0  0  0  0  0
  133.9630  123.1010   61.9820 C   0  0  0  0  0  0  0  0  0  0  0  0
  131.3580  124.3570   63.7240 C   0  0  0  0  0  0  0  0  0  0  0  0
  130.5320  125.4340   64.0630 C   0  0  0  0  0  0  0  0  0  0  0  0
  130.2350  125.6810   65.4970 C   0  0  0  0  0  0  0  0  0  0  0  0
  130.4810  126.9360   66.0600 C   0  0  0  0  0  0  0  0  0  0  0  0
  130.1850  127.1780   67.3980 C   0  0  0  0  0  0  0  0  0  0  0  0
  129.6340  126.1750   68.1960 C   0  0  0  0  0  0  0  0  0  0  0  0
  129.3730  126.5060   69.5110 O   0  0  0  0  0  0  0  0  0  0  0  0
  128.0820  126.2480   70.0490 C   0  0  0  0  0  0  0  0  0  0  0  0
  129.3790  124.9150   67.6300 C   0  0  0  0  0  0  0  0  0  0  0  0
  129.6750  124.6760   66.2900 C   0  0  0  0  0  0  0  0  0  0  0  0
  130.0200  126.2360   63.0040 C   0  0  0  0  0  0  0  0  0  0  0  0
  129.1230  127.3650   62.9700 C   0  0  0  0  0  0  0  0  0  0  0  0
  128.5430  127.8790   64.1030 N   0  0  0  0  0  0  0  0  0  0  0  0
  127.8910  132.0110   59.8270 C   0  0  0  0  0  0  0  0  0  0  0  0
  127.3880  133.2990   59.6600 C   0  0  0  0  0  0  0  0  0  0  0  0
  124.3769  134.5836   62.9898 H   0  0  0  0  0  0  0  0  0  0  0  0
  122.7505  134.3110   62.2776 H   0  0  0  0  0  0  0  0  0  0  0  0
  123.9644  132.9870   62.2776 H   0  0  0  0  0  0  0  0  0  0  0  0
  124.8411  133.7145   60.3150 H   0  0  0  0  0  0  0  0  0  0  0  0
  123.4936  134.8971   60.2145 H   0  0  0  0  0  0  0  0  0  0  0  0
  127.0921  134.2062   62.9361 H   0  0  0  0  0  0  0  0  0  0  0  0
  127.9888  131.9110   63.2374 H   0  0  0  0  0  0  0  0  0  0  0  0
  129.5700  130.2260   61.7540 H   0  0  0  0  0  0  0  0  0  0  0  0
  130.9357  121.5654   61.6925 H   0  0  0  0  0  0  0  0  0  0  0  0
  132.4053  119.6616   61.0862 H   0  0  0  0  0  0  0  0  0  0  0  0
  133.9914  117.9401   61.5199 H   0  0  0  0  0  0  0  0  0  0  0  0
  133.4029  118.7228   60.0141 H   0  0  0  0  0  0  0  0  0  0  0  0
  134.9651  117.8361   60.0141 H   0  0  0  0  0  0  0  0  0  0  0  0
  135.8813  122.1716   61.6178 H   0  0  0  0  0  0  0  0  0  0  0  0
  134.4096  124.0738   62.2353 H   0  0  0  0  0  0  0  0  0  0  0  0
  131.7506  123.7037   64.5171 H   0  0  0  0  0  0  0  0  0  0  0  0
  130.9113  127.7376   65.4417 H   0  0  0  0  0  0  0  0  0  0  0  0
  130.3873  128.1690   67.8304 H   0  0  0  0  0  0  0  0  0  0  0  0
  128.1339  126.2584   71.1477 H   0  0  0  0  0  0  0  0  0  0  0  0
  127.3808  127.0238   69.7077 H   0  0  0  0  0  0  0  0  0  0  0  0
  127.7328  125.2623   69.7077 H   0  0  0  0  0  0  0  0  0  0  0  0
  128.9443  124.1146   68.2468 H   0  0  0  0  0  0  0  0  0  0  0  0
  129.4663  123.6885   65.8527 H   0  0  0  0  0  0  0  0  0  0  0  0
  127.7010  127.4780   64.4920 H   0  0  0  0  0  0  0  0  0  0  0  0
  128.9380  128.6720   64.5880 H   0  0  0  0  0  0  0  0  0  0  0  0
  128.1139  131.3901   58.9468 H   0  0  0  0  0  0  0  0  0  0  0  0
  127.2170  133.6887   58.6457 H   0  0  0  0  0  0  0  0  0  0  0  0
  1  2  1  0
  2  3  1  0
  3  4  1  0
  4  5  2  0
  4  6  1  0
  6  7  2  0
  7  8  1  0
  8  9  2  0
  9 10  1  0
 10 11  1  0
 11 12  2  0
 11 13  1  0
 13 14  1  0
 14 15  1  0
 15 16  2  0
 16 17  1  0
 17 18  1  0
 18 19  2  0
 19 20  1  0
 20 21  2  0
 21 22  1  0
 22 23  1  0
 21 24  1  0
 24 25  2  0
 17 26  2  0
 26 27  1  0
 27 28  1  0
 28 29  2  0
 29 30  1  0
 30 31  2  0
 31 32  1  0
 32 33  1  0
 31 34  1  0
 34 35  2  0
 27 36  2  0
 36 37  1  0
 37 38  1  0
  9 39  1  0
 39 40  2  0
 40  6  1  0
 37 13  2  0
 36 15  1  0
 25 18  1  0
 35 28  1  0
  1 41  1  0
  1 42  1  0
  1 43  1  0
  2 44  1  0
  2 45  1  0
  7 46  1  0
  8 47  1  0
 10 48  1  0
 19 49  1  0
 20 50  1  0
 23 51  1  0
 23 52  1  0
 23 53  1  0
 24 54  1  0
 25 55  1  0
 26 56  1  0
 29 57  1  0
 30 58  1  0
 33 59  1  0
 33 60  1  0
 33 61  1  0
 34 62  1  0
 35 63  1  0
 38 64  1  0
 38 65  1  0
 39 66  1  0
 40 67  1  0
M  END
>  <Binding energies>  (1) 
[-7.63]

>  <Ligand effiencies>  (1) 
[-0.17744186046511629]

>  <Interactions>  (1) 
["V-A:LEU:475:CD1:4254, V-B:GLU:543:CD:9877, H-A:GLU:543:OE1:4906, V-A:ILE:369:CB:3232, H-A:GLU:543:OE2:4907, V-A:ILE:369:CG1:3234, V-A:ILE:369:CG2:3233, V-A:GLY:454:CA:4045, V-B:TYR:539:CE2:9845, V-A:HIS:456:CE1:4066, V-A:GLU:543:CD:4905, V-A:TYR:484:CZ:4343, V-B:GLU:543:CA:9873, V-B:GLU:543:C:9871, V-B:GLU:543:CB:9875, V-B:HIS:456:CE1:9038, V-A:TYR:484:CE1:4341, V-B:GLY:544:C:9881, V-A:GLU:543:CB:4903, V-B:GLU:543:CG:9876, V-B:ILE:369:CD1:8207, V-B:ILE:369:CG2:8205, V-B:TRP:381:CH2:8340, V-A:ALA:541:CB:4889, V-A:TYR:539:CE2:4873, V-B:GLY:454:CA:9017, V-A:TYR:539:CD2:4871, V-B:LEU:475:CD2:9227, V-B:TYR:539:CD2:9843, H-B:GLU:543:OE1:9878, V-A:GLY:453:C:4038, V-A:ILE:369:CD1:3235, V-B:TRP:381:CZ2:8338, H-B:GLU:543:OE2:9879, V-A:SER:385:C:3401, V-A:TRP:381:CH2:3368, V-A:SER:385:CA:3403, V-A:TRP:381:CZ2:3366"]

$$$$
8b_Ghoteimi_2023
     RDKit          3D

 54 58  0  0  0  0  0  0  0  0999 V2000
  123.9140  133.7720   61.9810 C   0  0  0  0  0  0  0  0  0  0  0  0
  123.5770  132.7230   62.8830 O   0  0  0  0  0  0  0  0  0  0  0  0
  124.5700  131.8680   63.3230 C   0  0  0  0  0  0  0  0  0  0  0  0
  124.3140  130.5030   63.2060 C   0  0  0  0  0  0  0  0  0  0  0  0
  125.2560  129.5690   63.6250 C   0  0  0  0  0  0  0  0  0  0  0  0
  126.4810  129.9760   64.1730 C   0  0  0  0  0  0  0  0  0  0  0  0
  127.4960  128.9760   64.6270 C   0  0  0  0  0  0  0  0  0  0  0  0
  127.6630  128.6560   65.9780 C   0  0  0  0  0  0  0  0  0  0  0  0
  128.6190  127.7160   66.3760 C   0  0  0  0  0  0  0  0  0  0  0  0
  128.7770  127.4070   67.8160 C   0  0  0  0  0  0  0  0  0  0  0  0
  129.8140  127.9860   68.5500 C   0  0  0  0  0  0  0  0  0  0  0  0
  129.9540  127.7030   69.9050 C   0  0  0  0  0  0  0  0  0  0  0  0
  129.0660  126.8370   70.5460 C   0  0  0  0  0  0  0  0  0  0  0  0
  129.2820  126.6150   71.8920 O   0  0  0  0  0  0  0  0  0  0  0  0
  128.3170  127.0720   72.8350 C   0  0  0  0  0  0  0  0  0  0  0  0
  128.0270  126.2530   69.8040 C   0  0  0  0  0  0  0  0  0  0  0  0
  127.8860  126.5390   68.4490 C   0  0  0  0  0  0  0  0  0  0  0  0
  129.4060  127.0950   65.3690 C   0  0  0  0  0  0  0  0  0  0  0  0
  130.4500  126.1050   65.4180 C   0  0  0  0  0  0  0  0  0  0  0  0
  130.8840  125.5540   66.5960 N   0  0  0  0  0  0  0  0  0  0  0  0
  130.9690  125.7650   64.1590 C   0  0  0  0  0  0  0  0  0  0  0  0
  132.0250  124.8010   63.8390 C   0  0  0  0  0  0  0  0  0  0  0  0
  132.5370  124.1120   64.7240 O   0  0  0  0  0  0  0  0  0  0  0  0
  132.3770  124.7380   62.5300 N   0  0  0  0  0  0  0  0  0  0  0  0
  133.3370  123.9180   61.9520 C   0  0  0  0  0  0  0  0  0  0  0  0
  133.0230  122.8720   61.0860 C   0  0  0  0  0  0  0  0  0  0  0  0
  134.2340  122.3140   60.7450 C   0  0  0  0  0  0  0  0  0  0  0  0
  135.2260  122.9900   61.3700 O   0  0  0  0  0  0  0  0  0  0  0  0
  134.6460  124.0060   62.1320 N   0  0  0  0  0  0  0  0  0  0  0  0
  130.1680  126.6690   62.8730 S   0  0  0  0  0  0  0  0  0  0  0  0
  129.1460  127.4950   64.0270 C   0  0  0  0  0  0  0  0  0  0  0  0
  128.2370  128.3920   63.6460 N   0  0  0  0  0  0  0  0  0  0  0  0
  126.7330  131.3500   64.2850 C   0  0  0  0  0  0  0  0  0  0  0  0
  125.7920  132.2880   63.8680 C   0  0  0  0  0  0  0  0  0  0  0  0
  124.2017  134.6676   62.5512 H   0  0  0  0  0  0  0  0  0  0  0  0
  124.7554  133.4547   61.3475 H   0  0  0  0  0  0  0  0  0  0  0  0
  123.0452  134.0041   61.3475 H   0  0  0  0  0  0  0  0  0  0  0  0
  123.3595  130.1615   62.7790 H   0  0  0  0  0  0  0  0  0  0  0  0
  125.0368  128.4957   63.5250 H   0  0  0  0  0  0  0  0  0  0  0  0
  127.0359  129.1488   66.7356 H   0  0  0  0  0  0  0  0  0  0  0  0
  130.5220  128.6675   68.0558 H   0  0  0  0  0  0  0  0  0  0  0  0
  130.7719  128.1659   70.4766 H   0  0  0  0  0  0  0  0  0  0  0  0
  128.6891  126.8958   73.8551 H   0  0  0  0  0  0  0  0  0  0  0  0
  128.1428  128.1483   72.6891 H   0  0  0  0  0  0  0  0  0  0  0  0
  127.3740  126.5248   72.6891 H   0  0  0  0  0  0  0  0  0  0  0  0
  127.3216  125.5667   70.2953 H   0  0  0  0  0  0  0  0  0  0  0  0
  127.0686  126.0788   67.8745 H   0  0  0  0  0  0  0  0  0  0  0  0
  130.5990  125.9300   67.4890 H   0  0  0  0  0  0  0  0  0  0  0  0
  131.5060  124.7580   66.6130 H   0  0  0  0  0  0  0  0  0  0  0  0
  131.8890  125.3500   61.8940 H   0  0  0  0  0  0  0  0  0  0  0  0
  132.0237  122.5600   60.7482 H   0  0  0  0  0  0  0  0  0  0  0  0
  134.3734  121.4554   60.0717 H   0  0  0  0  0  0  0  0  0  0  0  0
  127.6885  131.6927   64.7087 H   0  0  0  0  0  0  0  0  0  0  0  0
  126.0079  133.3621   63.9664 H   0  0  0  0  0  0  0  0  0  0  0  0
  1  2  1  0
  2  3  1  0
  3  4  2  0
  4  5  1  0
  5  6  2  0
  6  7  1  0
  7  8  2  0
  8  9  1  0
  9 10  1  0
 10 11  2  0
 11 12  1  0
 12 13  2  0
 13 14  1  0
 14 15  1  0
 13 16  1  0
 16 17  2  0
  9 18  2  0
 18 19  1  0
 19 20  1  0
 19 21  2  0
 21 22  1  0
 22 23  2  0
 22 24  1  0
 24 25  1  0
 25 26  1  0
 26 27  2  0
 27 28  1  0
 28 29  1  0
 21 30  1  0
 30 31  1  0
 31 32  2  0
  6 33  1  0
 33 34  2  0
 34  3  1  0
 32  7  1  0
 17 10  1  0
 31 18  1  0
 29 25  2  0
  1 35  1  0
  1 36  1  0
  1 37  1  0
  4 38  1  0
  5 39  1  0
  8 40  1  0
 11 41  1  0
 12 42  1  0
 15 43  1  0
 15 44  1  0
 15 45  1  0
 16 46  1  0
 17 47  1  0
 20 48  1  0
 20 49  1  0
 24 50  1  0
 26 51  1  0
 27 52  1  0
 33 53  1  0
 34 54  1  0
M  END
>  <Binding energies>  (1) 
[-8.55]

>  <Ligand effiencies>  (1) 
[-0.2310810810810811]

>  <Interactions>  (1) 
["V-B:GLU:543:CD:9877, V-A:ILE:369:CB:3232, H-A:ASP:366:OD2:3211, H-A:GLY:454:N:4046, V-A:ILE:369:CG1:3234, V-A:ILE:369:CG2:3233, V-B:TYR:539:CE2:9845, V-A:HIS:456:CE1:4066, H-A:ASP:366:OD1:3210, V-A:GLU:543:CD:4905, V-A:TYR:484:CZ:4343, V-B:GLU:543:C:9871, V-B:GLU:543:CB:9875, V-B:HIS:456:CE1:9038, V-B:GLY:544:C:9881, V-B:HIS:456:CD2:9036, V-A:GLU:543:CB:4903, V-B:ILE:369:CD1:8207, V-B:ILE:369:CG2:8205, V-B:ARG:545:CZ:9895, V-B:GLY:454:CA:9017, V-B:LEU:475:CD2:9227, V-B:ASP:366:CG:8181, V-A:ASP:366:CG:3209, H-A:TYR:484:OH:4344, V-B:LYS:547:CE:9919, H-A:HIS:456:NE2:4067, H-B:GLY:454:N:9018"]

$$$$
8c_Ghoteimi_2023
     RDKit          3D

 54 58  0  0  0  0  0  0  0  0999 V2000
  124.0440  133.7300   62.0160 C   0  0  0  0  0  0  0  0  0  0  0  0
  124.1350  133.3570   63.3870 O   0  0  0  0  0  0  0  0  0  0  0  0
  124.9150  132.2710   63.7390 C   0  0  0  0  0  0  0  0  0  0  0  0
  126.1880  132.5510   64.2300 C   0  0  0  0  0  0  0  0  0  0  0  0
  127.0430  131.5200   64.6070 C   0  0  0  0  0  0  0  0  0  0  0  0
  126.6460  130.1790   64.5030 C   0  0  0  0  0  0  0  0  0  0  0  0
  127.5610  129.0660   64.9040 C   0  0  0  0  0  0  0  0  0  0  0  0
  127.8250  128.7750   66.2450 C   0  0  0  0  0  0  0  0  0  0  0  0
  128.6830  127.7260   66.5930 C   0  0  0  0  0  0  0  0  0  0  0  0
  128.9480  127.4490   68.0230 C   0  0  0  0  0  0  0  0  0  0  0  0
  130.0590  128.0140   68.6550 C   0  0  0  0  0  0  0  0  0  0  0  0
  130.3010  127.7610   70.0010 C   0  0  0  0  0  0  0  0  0  0  0  0
  129.4430  126.9390   70.7350 C   0  0  0  0  0  0  0  0  0  0  0  0
  129.7610  126.7460   72.0650 O   0  0  0  0  0  0  0  0  0  0  0  0
  129.7370  125.4280   72.6000 C   0  0  0  0  0  0  0  0  0  0  0  0
  128.3300  126.3690   70.0970 C   0  0  0  0  0  0  0  0  0  0  0  0
  128.0880  126.6240   68.7490 C   0  0  0  0  0  0  0  0  0  0  0  0
  129.2700  126.9680   65.5450 C   0  0  0  0  0  0  0  0  0  0  0  0
  130.1740  125.8480   65.5380 C   0  0  0  0  0  0  0  0  0  0  0  0
  130.6550  125.2850   66.6940 N   0  0  0  0  0  0  0  0  0  0  0  0
  130.5100  125.3950   64.2520 C   0  0  0  0  0  0  0  0  0  0  0  0
  131.3900  124.2870   63.8770 C   0  0  0  0  0  0  0  0  0  0  0  0
  131.5050  123.2990   64.6060 O   0  0  0  0  0  0  0  0  0  0  0  0
  132.0460  124.4380   62.7000 N   0  0  0  0  0  0  0  0  0  0  0  0
  132.9310  123.5430   62.1170 C   0  0  0  0  0  0  0  0  0  0  0  0
  134.2340  123.6650   61.9820 N   0  0  0  0  0  0  0  0  0  0  0  0
  134.7600  122.6180   61.3800 C   0  0  0  0  0  0  0  0  0  0  0  0
  133.8740  121.6120   61.0090 C   0  0  0  0  0  0  0  0  0  0  0  0
  132.2650  122.0740   61.4790 S   0  0  0  0  0  0  0  0  0  0  0  0
  129.7030  126.3520   63.0090 S   0  0  0  0  0  0  0  0  0  0  0  0
  128.9260  127.3510   64.2160 C   0  0  0  0  0  0  0  0  0  0  0  0
  128.1100  128.3510   63.8840 N   0  0  0  0  0  0  0  0  0  0  0  0
  125.3620  129.9060   64.0110 C   0  0  0  0  0  0  0  0  0  0  0  0
  124.5050  130.9350   63.6320 C   0  0  0  0  0  0  0  0  0  0  0  0
  123.7839  134.7963   61.9426 H   0  0  0  0  0  0  0  0  0  0  0  0
  125.0115  133.5538   61.5231 H   0  0  0  0  0  0  0  0  0  0  0  0
  123.2664  133.1281   61.5231 H   0  0  0  0  0  0  0  0  0  0  0  0
  126.5202  133.5957   64.3205 H   0  0  0  0  0  0  0  0  0  0  0  0
  128.0449  131.7603   64.9922 H   0  0  0  0  0  0  0  0  0  0  0  0
  127.3532  129.3771   67.0355 H   0  0  0  0  0  0  0  0  0  0  0  0
  130.7438  128.6604   68.0865 H   0  0  0  0  0  0  0  0  0  0  0  0
  131.1759  128.2123   70.4918 H   0  0  0  0  0  0  0  0  0  0  0  0
  129.7379  125.4783   73.6989 H   0  0  0  0  0  0  0  0  0  0  0  0
  128.8293  124.9097   72.2574 H   0  0  0  0  0  0  0  0  0  0  0  0
  130.6253  124.8770   72.2574 H   0  0  0  0  0  0  0  0  0  0  0  0
  127.6468  125.7189   70.6633 H   0  0  0  0  0  0  0  0  0  0  0  0
  127.2150  126.1730   68.2546 H   0  0  0  0  0  0  0  0  0  0  0  0
  131.1340  124.3950   66.6860 H   0  0  0  0  0  0  0  0  0  0  0  0
  130.5450  125.7370   67.5900 H   0  0  0  0  0  0  0  0  0  0  0  0
  131.8760  125.2880   62.1820 H   0  0  0  0  0  0  0  0  0  0  0  0
  135.8394  122.5435   61.1818 H   0  0  0  0  0  0  0  0  0  0  0  0
  134.1471  120.6756   60.5005 H   0  0  0  0  0  0  0  0  0  0  0  0
  125.0266  128.8621   63.9231 H   0  0  0  0  0  0  0  0  0  0  0  0
  123.5020  130.6989   63.2470 H   0  0  0  0  0  0  0  0  0  0  0  0
  1  2  1  0
  2  3  1  0
  3  4  2  0
  4  5  1  0
  5  6  2  0
  6  7  1  0
  7  8  2  0
  8  9  1  0
  9 10  1  0
 10 11  2  0
 11 12  1  0
 12 13  2  0
 13 14  1  0
 14 15  1  0
 13 16  1  0
 16 17  2  0
  9 18  2  0
 18 19  1  0
 19 20  1  0
 19 21  2  0
 21 22  1  0
 22 23  2  0
 22 24  1  0
 24 25  1  0
 25 26  2  0
 26 27  1  0
 27 28  2  0
 28 29  1  0
 21 30  1  0
 30 31  1  0
 31 32  2  0
  6 33  1  0
 33 34  2  0
 34  3  1  0
 32  7  1  0
 17 10  1  0
 31 18  1  0
 29 25  1  0
  1 35  1  0
  1 36  1  0
  1 37  1  0
  4 38  1  0
  5 39  1  0
  8 40  1  0
 11 41  1  0
 12 42  1  0
 15 43  1  0
 15 44  1  0
 15 45  1  0
 16 46  1  0
 17 47  1  0
 20 48  1  0
 20 49  1  0
 24 50  1  0
 27 51  1  0
 28 52  1  0
 33 53  1  0
 34 54  1  0
M  END
>  <Binding energies>  (1) 
[-8.69]

>  <Ligand effiencies>  (1) 
[-0.23486486486486485]

>  <Interactions>  (1) 
["V-A:LEU:475:CD1:4254, V-B:GLU:543:CD:9877, V-A:ILE:369:CB:3232, H-A:ASP:366:OD2:3211, H-A:GLY:454:N:4046, V-A:ILE:369:CG1:3234, V-A:ILE:369:CG2:3233, V-A:GLY:454:CA:4045, V-B:TYR:539:CE2:9845, V-A:HIS:456:CE1:4066, H-A:ASP:366:OD1:3210, V-A:GLU:543:CD:4905, V-A:GLU:543:CG:4904, V-A:TYR:484:CZ:4343, V-B:GLU:543:CB:9875, V-B:HIS:456:CE1:9038, V-A:TYR:484:CE1:4341, V-A:HIS:456:CD2:4064, V-A:GLU:543:CB:4903, V-B:ILE:369:CD1:8207, V-B:ILE:369:CG2:8205, V-B:ARG:545:CZ:9895, V-B:GLY:454:CA:9017, V-B:LEU:475:CD2:9227, H-A:TYR:484:OH:4344, V-B:LYS:547:CE:9919, H-A:HIS:456:NE2:4067, V-A:GLU:543:C:4899, H-A:LYS:547:NZ:4948, H-B:GLY:454:N:9018, V-A:GLY:453:C:4038, V-B:TYR:484:CE1:9313, V-B:TYR:484:CZ:9315"]

$$$$
8d_Ghoteimi_2023
     RDKit          3D

 50 53  0  0  0  0  0  0  0  0999 V2000
  132.7990  125.1190   64.2590 C   0  0  0  0  0  0  0  0  0  0  0  0
  132.2360  123.8180   64.3570 O   0  0  0  0  0  0  0  0  0  0  0  0
  130.8900  123.6420   64.3900 C   0  0  0  0  0  0  0  0  0  0  0  0
  130.3280  122.5680   64.1600 O   0  0  0  0  0  0  0  0  0  0  0  0
  130.1550  124.8800   64.7310 C   0  0  0  0  0  0  0  0  0  0  0  0
  129.3820  125.8250   63.4570 S   0  0  0  0  0  0  0  0  0  0  0  0
  128.8080  126.9960   64.6210 C   0  0  0  0  0  0  0  0  0  0  0  0
  128.0890  128.0580   64.2550 N   0  0  0  0  0  0  0  0  0  0  0  0
  127.6900  128.9060   65.2410 C   0  0  0  0  0  0  0  0  0  0  0  0
  126.8890  130.0910   64.8020 C   0  0  0  0  0  0  0  0  0  0  0  0
  125.5600  129.9500   64.3790 C   0  0  0  0  0  0  0  0  0  0  0  0
  124.8190  131.0560   63.9710 C   0  0  0  0  0  0  0  0  0  0  0  0
  125.3860  132.3290   63.9750 C   0  0  0  0  0  0  0  0  0  0  0  0
  124.5770  133.3670   63.5560 O   0  0  0  0  0  0  0  0  0  0  0  0
  124.1250  133.3930   62.2060 C   0  0  0  0  0  0  0  0  0  0  0  0
  126.7140  132.4820   64.3990 C   0  0  0  0  0  0  0  0  0  0  0  0
  127.4520  131.3730   64.8060 C   0  0  0  0  0  0  0  0  0  0  0  0
  128.0170  128.6950   66.5840 C   0  0  0  0  0  0  0  0  0  0  0  0
  128.7690  127.5800   66.9680 C   0  0  0  0  0  0  0  0  0  0  0  0
  129.0920  127.3800   68.4000 C   0  0  0  0  0  0  0  0  0  0  0  0
  130.2410  127.9550   68.9480 C   0  0  0  0  0  0  0  0  0  0  0  0
  130.5490  127.7590   70.2910 C   0  0  0  0  0  0  0  0  0  0  0  0
  129.7140  126.9930   71.1060 C   0  0  0  0  0  0  0  0  0  0  0  0
  130.1000  126.8520   72.4240 O   0  0  0  0  0  0  0  0  0  0  0  0
  130.1300  125.5540   73.0050 C   0  0  0  0  0  0  0  0  0  0  0  0
  128.5570  126.4190   70.5530 C   0  0  0  0  0  0  0  0  0  0  0  0
  128.2510  126.6150   69.2090 C   0  0  0  0  0  0  0  0  0  0  0  0
  129.1930  126.6800   65.9550 C   0  0  0  0  0  0  0  0  0  0  0  0
  129.9620  125.4660   65.9880 C   0  0  0  0  0  0  0  0  0  0  0  0
  130.4630  124.9400   67.1510 N   0  0  0  0  0  0  0  0  0  0  0  0
  132.9727  125.5203   65.2683 H   0  0  0  0  0  0  0  0  0  0  0  0
  133.7543  125.0652   63.7164 H   0  0  0  0  0  0  0  0  0  0  0  0
  132.1058  125.7786   63.7164 H   0  0  0  0  0  0  0  0  0  0  0  0
  125.0964  128.9525   64.3693 H   0  0  0  0  0  0  0  0  0  0  0  0
  123.7775  130.9238   63.6428 H   0  0  0  0  0  0  0  0  0  0  0  0
  123.0270  133.4562   62.1881 H   0  0  0  0  0  0  0  0  0  0  0  0
  124.5510  134.2681   61.6935 H   0  0  0  0  0  0  0  0  0  0  0  0
  124.4479  132.4748   61.6935 H   0  0  0  0  0  0  0  0  0  0  0  0
  127.1743  133.4810   64.4102 H   0  0  0  0  0  0  0  0  0  0  0  0
  128.4930  131.5064   65.1356 H   0  0  0  0  0  0  0  0  0  0  0  0
  127.6795  129.4130   67.3460 H   0  0  0  0  0  0  0  0  0  0  0  0
  130.9042  128.5643   68.3164 H   0  0  0  0  0  0  0  0  0  0  0  0
  131.4581  128.2116   70.7137 H   0  0  0  0  0  0  0  0  0  0  0  0
  130.1279  125.6429   74.1014 H   0  0  0  0  0  0  0  0  0  0  0  0
  129.2447  124.9869   72.6815 H   0  0  0  0  0  0  0  0  0  0  0  0
  131.0405  125.0284   72.6815 H   0  0  0  0  0  0  0  0  0  0  0  0
  127.8906  125.8126   71.1841 H   0  0  0  0  0  0  0  0  0  0  0  0
  127.3422  126.1648   68.7830 H   0  0  0  0  0  0  0  0  0  0  0  0
  130.0660  125.1740   68.0500 H   0  0  0  0  0  0  0  0  0  0  0  0
  131.2410  124.2960   67.1500 H   0  0  0  0  0  0  0  0  0  0  0  0
  1  2  1  0
  2  3  1  0
  3  4  2  0
  3  5  1  0
  5  6  1  0
  6  7  1  0
  7  8  2  0
  8  9  1  0
  9 10  1  0
 10 11  2  0
 11 12  1  0
 12 13  2  0
 13 14  1  0
 14 15  1  0
 13 16  1  0
 16 17  2  0
  9 18  2  0
 18 19  1  0
 19 20  1  0
 20 21  2  0
 21 22  1  0
 22 23  2  0
 23 24  1  0
 24 25  1  0
 23 26  1  0
 26 27  2  0
 19 28  2  0
 28 29  1  0
 29 30  1  0
 29  5  2  0
 28  7  1  0
 17 10  1  0
 27 20  1  0
  1 31  1  0
  1 32  1  0
  1 33  1  0
 11 34  1  0
 12 35  1  0
 15 36  1  0
 15 37  1  0
 15 38  1  0
 16 39  1  0
 17 40  1  0
 18 41  1  0
 21 42  1  0
 22 43  1  0
 25 44  1  0
 25 45  1  0
 25 46  1  0
 26 47  1  0
 27 48  1  0
 30 49  1  0
 30 50  1  0
M  END
>  <Binding energies>  (1) 
[-7.57]

>  <Ligand effiencies>  (1) 
[-0.2365625]

>  <Interactions>  (1) 
["V-B:GLU:543:CD:9877, V-A:ARG:545:CZ:4923, V-A:HIS:456:CE1:4066, V-A:GLU:543:CD:4905, V-A:GLU:543:CG:4904, V-A:TYR:484:CZ:4343, V-B:GLU:543:CB:9875, V-B:HIS:456:CE1:9038, V-A:TYR:484:CE1:4341, V-A:HIS:456:CD2:4064, V-A:GLU:543:CB:4903, V-B:GLU:543:CG:9876, V-B:ILE:369:CD1:8207, V-B:GLY:454:CA:9017, V-B:LEU:475:CD2:9227, H-A:TYR:484:OH:4344, V-B:LYS:547:CE:9919, H-A:HIS:456:NE2:4067, V-A:GLU:543:C:4899, H-B:GLU:543:O:9872, H-A:LYS:547:NZ:4948, H-B:GLY:454:N:9018, V-B:TYR:484:CE1:9313, V-B:TYR:484:CZ:9315, V-A:GLY:544:C:4909"]

$$$$
9a_Ghoteimi_2023
     RDKit          3D

 85 91  0  0  0  0  0  0  0  0999 V2000
  123.7050  134.2250   61.2920 C   0  0  0  0  0  0  0  0  0  0  0  0
  123.9090  135.6120   60.6740 C   0  0  0  0  0  0  0  0  0  0  0  0
  124.8720  135.5280   59.6310 O   0  0  0  0  0  0  0  0  0  0  0  0
  126.2000  135.4550   59.9060 C   0  0  0  0  0  0  0  0  0  0  0  0
  127.0260  136.2760   59.4940 O   0  0  0  0  0  0  0  0  0  0  0  0
  126.5660  134.2740   60.7570 C   0  0  0  0  0  0  0  0  0  0  0  0
  126.8010  134.4610   62.1250 C   0  0  0  0  0  0  0  0  0  0  0  0
  127.1430  133.3860   62.9390 C   0  0  0  0  0  0  0  0  0  0  0  0
  127.2570  132.1020   62.4060 C   0  0  0  0  0  0  0  0  0  0  0  0
  127.6090  131.0920   63.3230 N   0  0  0  0  0  0  0  0  0  0  0  0
  127.1260  129.8340   63.4720 C   0  0  0  0  0  0  0  0  0  0  0  0
  126.2380  129.3460   62.7720 O   0  0  0  0  0  0  0  0  0  0  0  0
  127.7440  129.0490   64.5450 C   0  0  0  0  0  0  0  0  0  0  0  0
  127.4070  129.4320   66.2340 S   0  0  0  0  0  0  0  0  0  0  0  0
  128.4350  128.1290   66.7820 C   0  0  0  0  0  0  0  0  0  0  0  0
  128.5950  127.8620   68.0780 N   0  0  0  0  0  0  0  0  0  0  0  0
  129.4060  126.8190   68.3970 C   0  0  0  0  0  0  0  0  0  0  0  0
  129.5620  126.5320   69.8560 C   0  0  0  0  0  0  0  0  0  0  0  0
  130.2790  127.4070   70.6800 C   0  0  0  0  0  0  0  0  0  0  0  0
  130.4280  127.1470   72.0400 C   0  0  0  0  0  0  0  0  0  0  0  0
  129.8540  126.0100   72.6290 C   0  0  0  0  0  0  0  0  0  0  0  0
  130.0120  125.7260   73.9890 N   0  0  0  0  0  0  0  0  0  0  0  0
  129.0980  126.2860   75.0060 C   0  0  0  0  0  0  0  0  0  0  0  0
  129.6280  126.1700   76.4500 C   0  0  0  0  0  0  0  0  0  0  0  0
  129.9490  124.8210   76.7440 O   0  0  0  0  0  0  0  0  0  0  0  0
  130.9520  124.3240   75.8710 C   0  0  0  0  0  0  0  0  0  0  0  0
  130.4560  124.3810   74.4120 C   0  0  0  0  0  0  0  0  0  0  0  0
  129.1490  125.1290   71.7950 C   0  0  0  0  0  0  0  0  0  0  0  0
  129.0030  125.3880   70.4360 C   0  0  0  0  0  0  0  0  0  0  0  0
  130.0730  126.0680   67.4270 C   0  0  0  0  0  0  0  0  0  0  0  0
  129.9230  126.3580   66.0660 C   0  0  0  0  0  0  0  0  0  0  0  0
  130.6840  125.5510   65.0770 C   0  0  0  0  0  0  0  0  0  0  0  0
  132.0390  125.8010   64.8470 C   0  0  0  0  0  0  0  0  0  0  0  0
  132.7530  125.0350   63.9300 C   0  0  0  0  0  0  0  0  0  0  0  0
  132.1350  123.9850   63.2310 C   0  0  0  0  0  0  0  0  0  0  0  0
  132.8280  123.2100   62.2990 N   0  0  0  0  0  0  0  0  0  0  0  0
  133.3790  123.8590   61.0910 C   0  0  0  0  0  0  0  0  0  0  0  0
  134.4240  122.9930   60.3560 C   0  0  0  0  0  0  0  0  0  0  0  0
  133.8710  121.7250   60.0420 O   0  0  0  0  0  0  0  0  0  0  0  0
  133.4670  121.0250   61.2080 C   0  0  0  0  0  0  0  0  0  0  0  0
  132.3960  121.8380   61.9670 C   0  0  0  0  0  0  0  0  0  0  0  0
  130.7750  123.7420   63.4730 C   0  0  0  0  0  0  0  0  0  0  0  0
  130.0600  124.5110   64.3860 C   0  0  0  0  0  0  0  0  0  0  0  0
  129.0490  127.4230   65.7060 C   0  0  0  0  0  0  0  0  0  0  0  0
  128.6170  127.9560   64.4380 C   0  0  0  0  0  0  0  0  0  0  0  0
  129.0180  127.4250   63.2390 N   0  0  0  0  0  0  0  0  0  0  0  0
  127.0200  131.9030   61.0370 C   0  0  0  0  0  0  0  0  0  0  0  0
  126.6780  132.9800   60.2230 C   0  0  0  0  0  0  0  0  0  0  0  0
  123.7171  134.3069   62.3889 H   0  0  0  0  0  0  0  0  0  0  0  0
  122.7372  133.8168   60.9654 H   0  0  0  0  0  0  0  0  0  0  0  0
  124.5143  133.5554   60.9654 H   0  0  0  0  0  0  0  0  0  0  0  0
  122.9549  135.9750   60.2641 H   0  0  0  0  0  0  0  0  0  0  0  0
  124.2645  136.3096   61.4467 H   0  0  0  0  0  0  0  0  0  0  0  0
  126.7143  135.4676   62.5600 H   0  0  0  0  0  0  0  0  0  0  0  0
  127.3250  133.5498   64.0114 H   0  0  0  0  0  0  0  0  0  0  0  0
  128.3410  131.3580   63.9640 H   0  0  0  0  0  0  0  0  0  0  0  0
  130.7308  128.3120   70.2477 H   0  0  0  0  0  0  0  0  0  0  0  0
  131.0058  127.8452   72.6635 H   0  0  0  0  0  0  0  0  0  0  0  0
  128.9377  127.3505   74.7798 H   0  0  0  0  0  0  0  0  0  0  0  0
  128.1678  125.7009   74.9580 H   0  0  0  0  0  0  0  0  0  0  0  0
  130.5300  126.7904   76.5575 H   0  0  0  0  0  0  0  0  0  0  0  0
  128.8509  126.5155   77.1477 H   0  0  0  0  0  0  0  0  0  0  0  0
  131.8594  124.9377   75.9716 H   0  0  0  0  0  0  0  0  0  0  0  0
  131.1766  123.2802   76.1357 H   0  0  0  0  0  0  0  0  0  0  0  0
  131.2773  124.0629   73.7530 H   0  0  0  0  0  0  0  0  0  0  0  0
  129.5820  123.7167   74.3427 H   0  0  0  0  0  0  0  0  0  0  0  0
  128.7044  124.2184   72.2229 H   0  0  0  0  0  0  0  0  0  0  0  0
  128.4394  124.6825   69.8077 H   0  0  0  0  0  0  0  0  0  0  0  0
  130.7248  125.2377   67.7365 H   0  0  0  0  0  0  0  0  0  0  0  0
  132.5456  126.6093   65.3947 H   0  0  0  0  0  0  0  0  0  0  0  0
  133.8157  125.2549   63.7503 H   0  0  0  0  0  0  0  0  0  0  0  0
  132.5504  124.0691   60.3987 H   0  0  0  0  0  0  0  0  0  0  0  0
  133.8886  124.7773   61.4180 H   0  0  0  0  0  0  0  0  0  0  0  0
  134.7268  123.4982   59.4270 H   0  0  0  0  0  0  0  0  0  0  0  0
  135.2990  122.8532   61.0078 H   0  0  0  0  0  0  0  0  0  0  0  0
  133.0480  120.0494   60.9205 H   0  0  0  0  0  0  0  0  0  0  0  0
  134.3395  120.8780   61.8616 H   0  0  0  0  0  0  0  0  0  0  0  0
  131.4945  121.8984   61.3396 H   0  0  0  0  0  0  0  0  0  0  0  0
  132.2067  121.3180   62.9177 H   0  0  0  0  0  0  0  0  0  0  0  0
  130.2656  122.9306   62.9325 H   0  0  0  0  0  0  0  0  0  0  0  0
  128.9957  124.2979   64.5645 H   0  0  0  0  0  0  0  0  0  0  0  0
  129.6150  127.9350   62.6030 H   0  0  0  0  0  0  0  0  0  0  0  0
  128.7290  126.5010   62.9500 H   0  0  0  0  0  0  0  0  0  0  0  0
  127.1046  130.8944   60.6062 H   0  0  0  0  0  0  0  0  0  0  0  0
  126.4938  132.8155   59.1511 H   0  0  0  0  0  0  0  0  0  0  0  0
  1  2  1  0
  2  3  1  0
  3  4  1  0
  4  5  2  0
  4  6  1  0
  6  7  2  0
  7  8  1  0
  8  9  2  0
  9 10  1  0
 10 11  1  0
 11 12  2  0
 11 13  1  0
 13 14  1  0
 14 15  1  0
 15 16  2  0
 16 17  1  0
 17 18  1  0
 18 19  2  0
 19 20  1  0
 20 21  2  0
 21 22  1  0
 22 23  1  0
 23 24  1  0
 24 25  1  0
 25 26  1  0
 26 27  1  0
 21 28  1  0
 28 29  2  0
 17 30  2  0
 30 31  1  0
 31 32  1  0
 32 33  2  0
 33 34  1  0
 34 35  2  0
 35 36  1  0
 36 37  1  0
 37 38  1  0
 38 39  1  0
 39 40  1  0
 40 41  1  0
 35 42  1  0
 42 43  2  0
 31 44  2  0
 44 45  1  0
 45 46  1  0
  9 47  1  0
 47 48  2  0
 48  6  1  0
 45 13  2  0
 44 15  1  0
 29 18  1  0
 43 32  1  0
 27 22  1  0
 41 36  1  0
  1 49  1  0
  1 50  1  0
  1 51  1  0
  2 52  1  0
  2 53  1  0
  7 54  1  0
  8 55  1  0
 10 56  1  0
 19 57  1  0
 20 58  1  0
 23 59  1  0
 23 60  1  0
 24 61  1  0
 24 62  1  0
 26 63  1  0
 26 64  1  0
 27 65  1  0
 27 66  1  0
 28 67  1  0
 29 68  1  0
 30 69  1  0
 33 70  1  0
 34 71  1  0
 37 72  1  0
 37 73  1  0
 38 74  1  0
 38 75  1  0
 40 76  1  0
 40 77  1  0
 41 78  1  0
 41 79  1  0
 42 80  1  0
 43 81  1  0
 46 82  1  0
 46 83  1  0
 47 84  1  0
 48 85  1  0
M  END
>  <Binding energies>  (1) 
[-7.72]

>  <Ligand effiencies>  (1) 
[-0.15137254901960784]

>  <Interactions>  (1) 
["V-A:LEU:475:CD1:4254, V-B:GLU:543:CD:9877, H-A:GLU:543:OE1:4906, V-A:ARG:545:CZ:4923, V-A:ILE:369:CB:3232, H-A:GLU:543:OE2:4907, V-A:ILE:369:CG1:3234, V-A:ILE:369:CG2:3233, V-B:TYR:539:CE2:9845, V-A:HIS:456:CE1:4066, V-A:GLU:543:CD:4905, V-A:GLU:543:CG:4904, V-B:GLU:543:C:9871, V-B:HIS:456:CE1:9038, V-A:HIS:456:CD2:4064, V-A:GLU:543:CB:4903, V-B:GLU:543:CG:9876, V-B:ILE:369:CD1:8207, V-B:ILE:369:CG2:8205, V-B:TRP:381:CH2:8340, V-A:ALA:541:CB:4889, V-A:TYR:539:CE2:4873, V-A:TYR:539:CD2:4871, V-B:LEU:475:CD2:9227, V-A:ASP:366:CG:3209, H-B:ARG:545:NH2:9897, H-B:GLU:543:OE1:9878, V-B:LYS:547:CE:9919, V-A:LYS:547:CE:4947, V-B:LYS:547:CD:9918, H-B:LYS:547:NZ:9920, V-B:TRP:381:CZ2:8338, V-B:TRP:381:CZ3:8339, V-B:ILE:369:CG1:8206, H-B:TYR:539:OH:9847, H-B:GLU:543:OE2:9879, V-A:TYR:539:CG:4869"]

$$$$
9b_Ghoteimi_2023
     RDKit          3D

 72 78  0  0  0  0  0  0  0  0999 V2000
  129.2280  127.8480   62.9450 N   0  0  0  0  0  0  0  0  0  0  0  0
  128.6150  128.2800   64.0940 C   0  0  0  0  0  0  0  0  0  0  0  0
  127.6480  129.2970   64.1190 C   0  0  0  0  0  0  0  0  0  0  0  0
  127.0930  130.0580   62.9960 C   0  0  0  0  0  0  0  0  0  0  0  0
  125.9560  129.8260   62.5800 O   0  0  0  0  0  0  0  0  0  0  0  0
  127.9130  131.0030   62.4710 N   0  0  0  0  0  0  0  0  0  0  0  0
  127.6510  131.8540   61.4050 C   0  0  0  0  0  0  0  0  0  0  0  0
  127.5040  133.2330   61.5500 C   0  0  0  0  0  0  0  0  0  0  0  0
  127.2620  133.7020   60.2800 C   0  0  0  0  0  0  0  0  0  0  0  0
  127.2620  132.6590   59.4150 O   0  0  0  0  0  0  0  0  0  0  0  0
  127.5100  131.4940   60.1400 N   0  0  0  0  0  0  0  0  0  0  0  0
  127.1000  129.6150   65.7640 S   0  0  0  0  0  0  0  0  0  0  0  0
  128.1790  128.4010   66.4070 C   0  0  0  0  0  0  0  0  0  0  0  0
  128.2600  128.1600   67.7140 N   0  0  0  0  0  0  0  0  0  0  0  0
  129.1430  127.2080   68.1130 C   0  0  0  0  0  0  0  0  0  0  0  0
  129.2290  126.9720   69.5860 C   0  0  0  0  0  0  0  0  0  0  0  0
  130.1660  127.6510   70.3750 C   0  0  0  0  0  0  0  0  0  0  0  0
  130.2520  127.4160   71.7430 C   0  0  0  0  0  0  0  0  0  0  0  0
  129.4120  126.4840   72.3730 C   0  0  0  0  0  0  0  0  0  0  0  0
  129.4840  126.2400   73.7490 N   0  0  0  0  0  0  0  0  0  0  0  0
  129.0030  127.2310   74.7320 C   0  0  0  0  0  0  0  0  0  0  0  0
  128.8380  126.6660   76.1580 C   0  0  0  0  0  0  0  0  0  0  0  0
  130.0510  126.0730   76.5880 O   0  0  0  0  0  0  0  0  0  0  0  0
  130.4360  125.0020   75.7420 C   0  0  0  0  0  0  0  0  0  0  0  0
  130.6470  125.5130   74.3000 C   0  0  0  0  0  0  0  0  0  0  0  0
  128.4620  125.8220   71.5820 C   0  0  0  0  0  0  0  0  0  0  0  0
  128.3740  126.0600   70.2130 C   0  0  0  0  0  0  0  0  0  0  0  0
  129.9200  126.4830   67.2050 C   0  0  0  0  0  0  0  0  0  0  0  0
  129.8230  126.7190   65.8290 C   0  0  0  0  0  0  0  0  0  0  0  0
  130.6490  125.9010   64.9030 C   0  0  0  0  0  0  0  0  0  0  0  0
  130.0390  125.0860   63.9490 C   0  0  0  0  0  0  0  0  0  0  0  0
  130.8100  124.3340   63.0680 C   0  0  0  0  0  0  0  0  0  0  0  0
  132.2120  124.3750   63.1180 C   0  0  0  0  0  0  0  0  0  0  0  0
  133.0050  123.6400   62.2330 N   0  0  0  0  0  0  0  0  0  0  0  0
  133.1030  122.1770   62.3960 C   0  0  0  0  0  0  0  0  0  0  0  0
  134.2930  121.5580   61.6320 C   0  0  0  0  0  0  0  0  0  0  0  0
  134.2210  121.9060   60.2580 O   0  0  0  0  0  0  0  0  0  0  0  0
  134.2600  123.3130   60.0690 C   0  0  0  0  0  0  0  0  0  0  0  0
  133.0730  123.9770   60.7970 C   0  0  0  0  0  0  0  0  0  0  0  0
  132.8130  125.2120   64.0690 C   0  0  0  0  0  0  0  0  0  0  0  0
  132.0420  125.9650   64.9510 C   0  0  0  0  0  0  0  0  0  0  0  0
  128.9300  127.7360   65.3920 C   0  0  0  0  0  0  0  0  0  0  0  0
  129.0040  126.9570   62.5240 H   0  0  0  0  0  0  0  0  0  0  0  0
  129.9280  128.4090   62.4780 H   0  0  0  0  0  0  0  0  0  0  0  0
  128.8210  131.1120   62.8990 H   0  0  0  0  0  0  0  0  0  0  0  0
  127.5678  133.8188   62.4789 H   0  0  0  0  0  0  0  0  0  0  0  0
  127.0952  134.7551   60.0097 H   0  0  0  0  0  0  0  0  0  0  0  0
  130.8432  128.3802   69.9062 H   0  0  0  0  0  0  0  0  0  0  0  0
  130.9905  127.9696   72.3414 H   0  0  0  0  0  0  0  0  0  0  0  0
  129.7244  128.0605   74.7692 H   0  0  0  0  0  0  0  0  0  0  0  0
  128.0057  127.5540   74.3986 H   0  0  0  0  0  0  0  0  0  0  0  0
  128.5683  127.4823   76.8442 H   0  0  0  0  0  0  0  0  0  0  0  0
  128.0449  125.9038   76.1547 H   0  0  0  0  0  0  0  0  0  0  0  0
  131.3742  124.5642   76.1136 H   0  0  0  0  0  0  0  0  0  0  0  0
  129.6418  124.2409   75.7412 H   0  0  0  0  0  0  0  0  0  0  0  0
  131.5136  126.1905   74.2954 H   0  0  0  0  0  0  0  0  0  0  0  0
  130.8016  124.6278   73.6656 H   0  0  0  0  0  0  0  0  0  0  0  0
  127.7747  125.1025   72.0510 H   0  0  0  0  0  0  0  0  0  0  0  0
  127.6216  125.5233   69.6164 H   0  0  0  0  0  0  0  0  0  0  0  0
  130.6166  125.7172   67.5768 H   0  0  0  0  0  0  0  0  0  0  0  0
  128.9415  125.0376   63.8929 H   0  0  0  0  0  0  0  0  0  0  0  0
  130.3131  123.6976   62.3209 H   0  0  0  0  0  0  0  0  0  0  0  0
  133.2195  121.9516   63.4663 H   0  0  0  0  0  0  0  0  0  0  0  0
  132.1839  121.7395   61.9790 H   0  0  0  0  0  0  0  0  0  0  0  0
  135.2347  121.9376   62.0551 H   0  0  0  0  0  0  0  0  0  0  0  0
  134.2549  120.4630   61.7298 H   0  0  0  0  0  0  0  0  0  0  0  0
  135.2030  123.7088   60.4740 H   0  0  0  0  0  0  0  0  0  0  0  0
  134.1932  123.5345   58.9936 H   0  0  0  0  0  0  0  0  0  0  0  0
  133.1698  125.0683   60.6989 H   0  0  0  0  0  0  0  0  0  0  0  0
  132.1519  123.5984   60.3299 H   0  0  0  0  0  0  0  0  0  0  0  0
  133.9101  125.2748   64.1191 H   0  0  0  0  0  0  0  0  0  0  0  0
  132.5342  126.6142   65.6901 H   0  0  0  0  0  0  0  0  0  0  0  0
  1  2  1  0
  2  3  2  0
  3  4  1  0
  4  5  2  0
  4  6  1  0
  6  7  1  0
  7  8  1  0
  8  9  2  0
  9 10  1  0
 10 11  1  0
  3 12  1  0
 12 13  1  0
 13 14  2  0
 14 15  1  0
 15 16  1  0
 16 17  2  0
 17 18  1  0
 18 19  2  0
 19 20  1  0
 20 21  1  0
 21 22  1  0
 22 23  1  0
 23 24  1  0
 24 25  1  0
 19 26  1  0
 26 27  2  0
 15 28  2  0
 28 29  1  0
 29 30  1  0
 30 31  2  0
 31 32  1  0
 32 33  2  0
 33 34  1  0
 34 35  1  0
 35 36  1  0
 36 37  1  0
 37 38  1  0
 38 39  1  0
 33 40  1  0
 40 41  2  0
 29 42  2  0
 42  2  1  0
 11  7  2  0
 42 13  1  0
 27 16  1  0
 41 30  1  0
 25 20  1  0
 39 34  1  0
  1 43  1  0
  1 44  1  0
  6 45  1  0
  8 46  1  0
  9 47  1  0
 17 48  1  0
 18 49  1  0
 21 50  1  0
 21 51  1  0
 22 52  1  0
 22 53  1  0
 24 54  1  0
 24 55  1  0
 25 56  1  0
 25 57  1  0
 26 58  1  0
 27 59  1  0
 28 60  1  0
 31 61  1  0
 32 62  1  0
 35 63  1  0
 35 64  1  0
 36 65  1  0
 36 66  1  0
 38 67  1  0
 38 68  1  0
 39 69  1  0
 39 70  1  0
 40 71  1  0
 41 72  1  0
M  END
>  <Binding energies>  (1) 
[-9.49]

>  <Ligand effiencies>  (1) 
[-0.2108888888888889]

>  <Interactions>  (1) 
["V-A:LEU:475:CD1:4254, V-B:GLU:543:CD:9877, H-A:GLU:543:OE1:4906, V-A:ARG:545:CZ:4923, V-A:ILE:369:CB:3232, H-A:GLU:543:OE2:4907, V-A:ILE:369:CG1:3234, V-A:ILE:369:CG2:3233, V-A:GLY:454:CA:4045, V-A:HIS:456:CE1:4066, V-A:GLU:543:CD:4905, V-B:GLU:543:C:9871, V-B:HIS:456:CE1:9038, V-A:HIS:456:CD2:4064, V-B:GLU:543:CG:9876, V-A:ALA:541:CB:4889, V-A:TYR:539:CD2:4871, V-A:ASP:366:CG:3209, V-B:LYS:547:CE:9919, V-A:LYS:547:CE:4947, V-B:LYS:547:CD:9918, V-A:ASP:366:CA:3206, H-B:TYR:539:OH:9847"]

$$$$
9c_Ghoteimi_2023
     RDKit          3D

 72 78  0  0  0  0  0  0  0  0999 V2000
  129.2270  127.8720   63.0080 N   0  0  0  0  0  0  0  0  0  0  0  0
  128.6120  128.2830   64.1630 C   0  0  0  0  0  0  0  0  0  0  0  0
  127.6400  129.2940   64.2050 C   0  0  0  0  0  0  0  0  0  0  0  0
  127.0840  130.0720   63.0940 C   0  0  0  0  0  0  0  0  0  0  0  0
  125.9500  129.8430   62.6680 O   0  0  0  0  0  0  0  0  0  0  0  0
  127.9000  131.0300   62.5890 N   0  0  0  0  0  0  0  0  0  0  0  0
  127.6260  131.8900   61.5350 C   0  0  0  0  0  0  0  0  0  0  0  0
  127.7400  131.6510   60.2460 N   0  0  0  0  0  0  0  0  0  0  0  0
  127.3960  132.7020   59.5260 C   0  0  0  0  0  0  0  0  0  0  0  0
  126.9910  133.8290   60.2360 C   0  0  0  0  0  0  0  0  0  0  0  0
  127.0680  133.4820   61.9380 S   0  0  0  0  0  0  0  0  0  0  0  0
  127.0900  129.5820   65.8550 S   0  0  0  0  0  0  0  0  0  0  0  0
  128.1750  128.3630   66.4780 C   0  0  0  0  0  0  0  0  0  0  0  0
  128.2560  128.1010   67.7820 N   0  0  0  0  0  0  0  0  0  0  0  0
  129.1440  127.1470   68.1650 C   0  0  0  0  0  0  0  0  0  0  0  0
  129.2290  126.8880   69.6340 C   0  0  0  0  0  0  0  0  0  0  0  0
  128.3730  125.9750   70.2600 C   0  0  0  0  0  0  0  0  0  0  0  0
  128.4500  125.7440   71.6300 C   0  0  0  0  0  0  0  0  0  0  0  0
  129.3800  126.4290   72.4290 C   0  0  0  0  0  0  0  0  0  0  0  0
  129.4750  126.2030   73.8070 N   0  0  0  0  0  0  0  0  0  0  0  0
  128.9840  127.1960   74.7840 C   0  0  0  0  0  0  0  0  0  0  0  0
  128.8460  126.6420   76.2190 C   0  0  0  0  0  0  0  0  0  0  0  0
  130.0790  126.0820   76.6410 O   0  0  0  0  0  0  0  0  0  0  0  0
  130.4760  125.0100   75.8020 C   0  0  0  0  0  0  0  0  0  0  0  0
  130.6600  125.5100   74.3530 C   0  0  0  0  0  0  0  0  0  0  0  0
  130.2480  127.3290   71.7930 C   0  0  0  0  0  0  0  0  0  0  0  0
  130.1730  127.5560   70.4220 C   0  0  0  0  0  0  0  0  0  0  0  0
  129.9250  126.4420   67.2460 C   0  0  0  0  0  0  0  0  0  0  0  0
  129.8270  126.6990   65.8740 C   0  0  0  0  0  0  0  0  0  0  0  0
  130.6550  125.9010   64.9360 C   0  0  0  0  0  0  0  0  0  0  0  0
  132.0140  126.1820   64.7810 C   0  0  0  0  0  0  0  0  0  0  0  0
  132.7970  125.4250   63.9140 C   0  0  0  0  0  0  0  0  0  0  0  0
  132.2420  124.3670   63.1770 C   0  0  0  0  0  0  0  0  0  0  0  0
  133.0120  123.5860   62.3100 N   0  0  0  0  0  0  0  0  0  0  0  0
  132.9360  122.1150   62.4060 C   0  0  0  0  0  0  0  0  0  0  0  0
  134.0980  121.3970   61.6860 C   0  0  0  0  0  0  0  0  0  0  0  0
  134.1570  121.8090   60.3290 O   0  0  0  0  0  0  0  0  0  0  0  0
  134.3660  123.2080   60.2140 C   0  0  0  0  0  0  0  0  0  0  0  0
  133.2140  123.9740   60.9010 C   0  0  0  0  0  0  0  0  0  0  0  0
  130.8800  124.0810   63.3570 C   0  0  0  0  0  0  0  0  0  0  0  0
  130.0970  124.8380   64.2230 C   0  0  0  0  0  0  0  0  0  0  0  0
  128.9290  127.7200   65.4520 C   0  0  0  0  0  0  0  0  0  0  0  0
  129.8830  128.4610   62.5140 H   0  0  0  0  0  0  0  0  0  0  0  0
  129.0430  126.9630   62.6080 H   0  0  0  0  0  0  0  0  0  0  0  0
  128.8070  131.1400   63.0190 H   0  0  0  0  0  0  0  0  0  0  0  0
  127.4275  132.6884   58.4265 H   0  0  0  0  0  0  0  0  0  0  0  0
  126.6737  134.7842   59.7922 H   0  0  0  0  0  0  0  0  0  0  0  0
  127.6281  125.4318   69.6600 H   0  0  0  0  0  0  0  0  0  0  0  0
  127.7717  125.0132   72.0946 H   0  0  0  0  0  0  0  0  0  0  0  0
  129.6886  128.0404   74.8044 H   0  0  0  0  0  0  0  0  0  0  0  0
  127.9772  127.4960   74.4579 H   0  0  0  0  0  0  0  0  0  0  0  0
  128.5644  127.4588   76.8998 H   0  0  0  0  0  0  0  0  0  0  0  0
  128.0704  125.8621   76.2331 H   0  0  0  0  0  0  0  0  0  0  0  0
  131.4271  124.5952   76.1672 H   0  0  0  0  0  0  0  0  0  0  0  0
  129.6977  124.2329   75.8184 H   0  0  0  0  0  0  0  0  0  0  0  0
  131.5102  126.2077   74.3321 H   0  0  0  0  0  0  0  0  0  0  0  0
  130.8291  124.6219   73.7264 H   0  0  0  0  0  0  0  0  0  0  0  0
  131.0015  127.8650   72.3887 H   0  0  0  0  0  0  0  0  0  0  0  0
  130.8650  128.2700   69.9515 H   0  0  0  0  0  0  0  0  0  0  0  0
  130.6263  125.6747   67.6057 H   0  0  0  0  0  0  0  0  0  0  0  0
  132.4691  127.0074   65.3481 H   0  0  0  0  0  0  0  0  0  0  0  0
  133.8662  125.6593   63.8048 H   0  0  0  0  0  0  0  0  0  0  0  0
  132.9558  121.8326   63.4690 H   0  0  0  0  0  0  0  0  0  0  0  0
  132.0036  121.8032   61.9126 H   0  0  0  0  0  0  0  0  0  0  0  0
  135.0459  121.6480   62.1844 H   0  0  0  0  0  0  0  0  0  0  0  0
  133.9314  120.3104   61.7265 H   0  0  0  0  0  0  0  0  0  0  0  0
  135.3184  123.4745   60.6955 H   0  0  0  0  0  0  0  0  0  0  0  0
  134.3961  123.4816   59.1490 H   0  0  0  0  0  0  0  0  0  0  0  0
  133.4398  125.0500   60.8644 H   0  0  0  0  0  0  0  0  0  0  0  0
  132.2895  123.7251   60.3594 H   0  0  0  0  0  0  0  0  0  0  0  0
  130.4244  123.2456   62.8051 H   0  0  0  0  0  0  0  0  0  0  0  0
  129.0308  124.5973   64.3468 H   0  0  0  0  0  0  0  0  0  0  0  0
  1  2  1  0
  2  3  2  0
  3  4  1  0
  4  5  2  0
  4  6  1  0
  6  7  1  0
  7  8  2  0
  8  9  1  0
  9 10  2  0
 10 11  1  0
  3 12  1  0
 12 13  1  0
 13 14  2  0
 14 15  1  0
 15 16  1  0
 16 17  2  0
 17 18  1  0
 18 19  2  0
 19 20  1  0
 20 21  1  0
 21 22  1  0
 22 23  1  0
 23 24  1  0
 24 25  1  0
 19 26  1  0
 26 27  2  0
 15 28  2  0
 28 29  1  0
 29 30  1  0
 30 31  2  0
 31 32  1  0
 32 33  2  0
 33 34  1  0
 34 35  1  0
 35 36  1  0
 36 37  1  0
 37 38  1  0
 38 39  1  0
 33 40  1  0
 40 41  2  0
 29 42  2  0
 42  2  1  0
 11  7  1  0
 42 13  1  0
 27 16  1  0
 41 30  1  0
 25 20  1  0
 39 34  1  0
  1 43  1  0
  1 44  1  0
  6 45  1  0
  9 46  1  0
 10 47  1  0
 17 48  1  0
 18 49  1  0
 21 50  1  0
 21 51  1  0
 22 52  1  0
 22 53  1  0
 24 54  1  0
 24 55  1  0
 25 56  1  0
 25 57  1  0
 26 58  1  0
 27 59  1  0
 28 60  1  0
 31 61  1  0
 32 62  1  0
 35 63  1  0
 35 64  1  0
 36 65  1  0
 36 66  1  0
 38 67  1  0
 38 68  1  0
 39 69  1  0
 39 70  1  0
 40 71  1  0
 41 72  1  0
M  END
>  <Binding energies>  (1) 
[-9.66]

>  <Ligand effiencies>  (1) 
[-0.21466666666666667]

>  <Interactions>  (1) 
["V-A:LEU:475:CD1:4254, V-B:GLU:543:CD:9877, H-A:GLU:543:OE1:4906, V-A:ARG:545:CZ:4923, V-A:ILE:369:CB:3232, H-A:GLU:543:OE2:4907, V-A:ILE:369:CG1:3234, V-A:ILE:369:CG2:3233, V-A:GLY:454:CA:4045, V-A:HIS:456:CE1:4066, V-A:GLU:543:CD:4905, V-B:GLU:543:C:9871, V-B:HIS:456:CE1:9038, V-B:GLY:544:C:9881, V-A:HIS:456:CD2:4064, V-B:GLU:543:CG:9876, V-A:ALA:541:CB:4889, V-A:TYR:539:CE2:4873, V-A:TYR:539:CD2:4871, V-B:LEU:475:CD2:9227, V-A:ASP:366:CG:3209, V-B:LYS:547:CE:9919, V-A:LYS:547:CE:4947, V-B:LYS:547:CD:9918, V-A:ASP:366:CA:3206, H-B:TYR:539:OH:9847"]

$$$$
9d_Ghoteimi_2023
     RDKit          3D

 68 73  0  0  0  0  0  0  0  0999 V2000
  132.7530  124.2400   64.3510 C   0  0  0  0  0  0  0  0  0  0  0  0
  132.0240  123.0300   64.1970 O   0  0  0  0  0  0  0  0  0  0  0  0
  130.7060  122.9660   64.5180 C   0  0  0  0  0  0  0  0  0  0  0  0
  130.0820  121.9110   64.6620 O   0  0  0  0  0  0  0  0  0  0  0  0
  130.0850  124.2990   64.6750 C   0  0  0  0  0  0  0  0  0  0  0  0
  129.7090  125.2660   63.2500 S   0  0  0  0  0  0  0  0  0  0  0  0
  129.0410  126.5410   64.2420 C   0  0  0  0  0  0  0  0  0  0  0  0
  128.5120  127.6390   63.7040 N   0  0  0  0  0  0  0  0  0  0  0  0
  128.0030  128.5630   64.5610 C   0  0  0  0  0  0  0  0  0  0  0  0
  127.3910  129.7750   63.9340 C   0  0  0  0  0  0  0  0  0  0  0  0
  126.7600  129.6870   62.6890 C   0  0  0  0  0  0  0  0  0  0  0  0
  126.1900  130.8100   62.0960 C   0  0  0  0  0  0  0  0  0  0  0  0
  126.2190  132.0610   62.7330 C   0  0  0  0  0  0  0  0  0  0  0  0
  125.6650  133.2020   62.1410 N   0  0  0  0  0  0  0  0  0  0  0  0
  126.2760  133.8220   60.9480 C   0  0  0  0  0  0  0  0  0  0  0  0
  125.7520  135.2410   60.6460 C   0  0  0  0  0  0  0  0  0  0  0  0
  124.3390  135.2260   60.5430 O   0  0  0  0  0  0  0  0  0  0  0  0
  123.7350  134.7920   61.7500 C   0  0  0  0  0  0  0  0  0  0  0  0
  124.1960  133.3580   62.0900 C   0  0  0  0  0  0  0  0  0  0  0  0
  126.8660  132.1460   63.9740 C   0  0  0  0  0  0  0  0  0  0  0  0
  127.4400  131.0230   64.5650 C   0  0  0  0  0  0  0  0  0  0  0  0
  128.0560  128.4020   65.9480 C   0  0  0  0  0  0  0  0  0  0  0  0
  128.6280  127.2590   66.5180 C   0  0  0  0  0  0  0  0  0  0  0  0
  128.6830  127.1510   68.0000 C   0  0  0  0  0  0  0  0  0  0  0  0
  127.7550  126.3710   68.6930 C   0  0  0  0  0  0  0  0  0  0  0  0
  127.8220  126.2580   70.0790 C   0  0  0  0  0  0  0  0  0  0  0  0
  128.8300  126.9100   70.8070 C   0  0  0  0  0  0  0  0  0  0  0  0
  128.9130  126.8200   72.1990 N   0  0  0  0  0  0  0  0  0  0  0  0
  128.4820  127.9690   73.0190 C   0  0  0  0  0  0  0  0  0  0  0  0
  128.2560  127.6070   74.5030 C   0  0  0  0  0  0  0  0  0  0  0  0
  129.4260  127.0090   75.0420 O   0  0  0  0  0  0  0  0  0  0  0  0
  129.7750  125.8210   74.3470 C   0  0  0  0  0  0  0  0  0  0  0  0
  130.0430  126.1410   72.8600 C   0  0  0  0  0  0  0  0  0  0  0  0
  129.7550  127.6920   70.1010 C   0  0  0  0  0  0  0  0  0  0  0  0
  129.6870  127.8060   68.7160 C   0  0  0  0  0  0  0  0  0  0  0  0
  129.1290  126.2600   65.6380 C   0  0  0  0  0  0  0  0  0  0  0  0
  129.7130  124.9620   65.8520 C   0  0  0  0  0  0  0  0  0  0  0  0
  129.8700  124.4120   67.0980 N   0  0  0  0  0  0  0  0  0  0  0  0
  132.8831  124.4559   65.4217 H   0  0  0  0  0  0  0  0  0  0  0  0
  133.7394  124.1369   63.8752 H   0  0  0  0  0  0  0  0  0  0  0  0
  132.2008  125.0639   63.8752 H   0  0  0  0  0  0  0  0  0  0  0  0
  126.7135  128.7175   62.1715 H   0  0  0  0  0  0  0  0  0  0  0  0
  125.7086  130.7158   61.1114 H   0  0  0  0  0  0  0  0  0  0  0  0
  127.3631  133.8801   61.1057 H   0  0  0  0  0  0  0  0  0  0  0  0
  126.0084  133.1918   60.0870 H   0  0  0  0  0  0  0  0  0  0  0  0
  126.0505  135.9197   61.4585 H   0  0  0  0  0  0  0  0  0  0  0  0
  126.1790  135.5875   59.6933 H   0  0  0  0  0  0  0  0  0  0  0  0
  124.0250  135.4702   62.5660 H   0  0  0  0  0  0  0  0  0  0  0  0
  122.6419  134.7986   61.6276 H   0  0  0  0  0  0  0  0  0  0  0  0
  123.7835  133.0844   63.0724 H   0  0  0  0  0  0  0  0  0  0  0  0
  123.8312  132.7038   61.2844 H   0  0  0  0  0  0  0  0  0  0  0  0
  126.9212  133.1161   64.4896 H   0  0  0  0  0  0  0  0  0  0  0  0
  127.9385  131.1184   65.5409 H   0  0  0  0  0  0  0  0  0  0  0  0
  127.6423  129.1846   66.6010 H   0  0  0  0  0  0  0  0  0  0  0  0
  126.9651  125.8419   68.1397 H   0  0  0  0  0  0  0  0  0  0  0  0
  127.0754  125.6499   70.6107 H   0  0  0  0  0  0  0  0  0  0  0  0
  129.2564  128.7482   72.9633 H   0  0  0  0  0  0  0  0  0  0  0  0
  127.5183  128.3144   72.6165 H   0  0  0  0  0  0  0  0  0  0  0  0
  128.0204  128.5205   75.0687 H   0  0  0  0  0  0  0  0  0  0  0  0
  127.4205  126.8954   74.5773 H   0  0  0  0  0  0  0  0  0  0  0  0
  130.6813  125.3887   74.7961 H   0  0  0  0  0  0  0  0  0  0  0  0
  128.9452  125.1025   74.4188 H   0  0  0  0  0  0  0  0  0  0  0  0
  130.9275  126.7918   72.7964 H   0  0  0  0  0  0  0  0  0  0  0  0
  130.1968  125.1828   72.3420 H   0  0  0  0  0  0  0  0  0  0  0  0
  130.5463  128.2233   70.6502 H   0  0  0  0  0  0  0  0  0  0  0  0
  130.4295  128.4165   68.1812 H   0  0  0  0  0  0  0  0  0  0  0  0
  129.0810  124.2180   67.6980 H   0  0  0  0  0  0  0  0  0  0  0  0
  130.7850  124.1770   67.4600 H   0  0  0  0  0  0  0  0  0  0  0  0
  1  2  1  0
  2  3  1  0
  3  4  2  0
  3  5  1  0
  5  6  1  0
  6  7  1  0
  7  8  2  0
  8  9  1  0
  9 10  1  0
 10 11  2  0
 11 12  1  0
 12 13  2  0
 13 14  1  0
 14 15  1  0
 15 16  1  0
 16 17  1  0
 17 18  1  0
 18 19  1  0
 13 20  1  0
 20 21  2  0
  9 22  2  0
 22 23  1  0
 23 24  1  0
 24 25  2  0
 25 26  1  0
 26 27  2  0
 27 28  1  0
 28 29  1  0
 29 30  1  0
 30 31  1  0
 31 32  1  0
 32 33  1  0
 27 34  1  0
 34 35  2  0
 23 36  2  0
 36 37  1  0
 37 38  1  0
 37  5  2  0
 36  7  1  0
 21 10  1  0
 35 24  1  0
 19 14  1  0
 33 28  1  0
  1 39  1  0
  1 40  1  0
  1 41  1  0
 11 42  1  0
 12 43  1  0
 15 44  1  0
 15 45  1  0
 16 46  1  0
 16 47  1  0
 18 48  1  0
 18 49  1  0
 19 50  1  0
 19 51  1  0
 20 52  1  0
 21 53  1  0
 22 54  1  0
 25 55  1  0
 26 56  1  0
 29 57  1  0
 29 58  1  0
 30 59  1  0
 30 60  1  0
 32 61  1  0
 32 62  1  0
 33 63  1  0
 33 64  1  0
 34 65  1  0
 35 66  1  0
 38 67  1  0
 38 68  1  0
M  END
>  <Binding energies>  (1) 
[-9.07]

>  <Ligand effiencies>  (1) 
[-0.22675]

>  <Interactions>  (1) 
["V-B:GLU:543:CD:9877, V-A:GLY:454:CA:4045, V-A:HIS:456:CE1:4066, V-A:GLU:543:CD:4905, V-A:GLU:543:CG:4904, V-A:TYR:484:CZ:4343, V-B:GLU:543:CA:9873, V-B:GLU:543:C:9871, V-B:GLU:543:CB:9875, V-B:HIS:456:CE1:9038, V-A:TYR:484:CE1:4341, V-B:GLY:544:C:9881, V-A:HIS:456:CD2:4064, V-B:HIS:456:CD2:9036, V-A:GLU:543:CB:4903, V-B:GLU:543:CG:9876, V-B:ILE:369:CD1:8207, V-B:ILE:369:CG2:8205, V-B:TRP:381:CH2:8340, V-B:GLY:454:CA:9017, V-A:TYR:539:CD2:4871, V-B:LEU:475:CD2:9227, H-A:TYR:484:OH:4344, V-B:LYS:547:CE:9919, H-A:HIS:456:NE2:4067, V-A:LYS:547:CE:4947, H-B:GLU:543:O:9872, H-A:LYS:547:NZ:4948, V-B:TRP:381:CZ2:8338, V-B:SER:385:C:8373"]

$$$$
RR10_Rahimova_2017
     RDKit          3D

 66 70  0  0  0  0  0  0  0  0999 V2000
  130.1440  134.3870   71.0120 C   0  0  0  0  0  0  0  0  0  0  0  0
  129.6910  133.6310   72.2720 C   0  0  1  0  0  0  0  0  0  0  0  0
  128.3310  132.9250   72.0620 C   0  0  0  0  0  0  0  0  0  0  0  0
  127.8780  132.2000   73.3510 C   0  0  0  0  0  0  0  0  0  0  0  0
  128.9210  131.1600   73.8340 C   0  0  1  0  0  0  0  0  0  0  0  0
  129.0050  130.0320   72.8970 N   0  0  0  0  0  0  0  0  0  0  0  0
  128.9580  128.7310   73.2360 C   0  0  0  0  0  0  0  0  0  0  0  0
  128.8160  128.3450   74.3990 O   0  0  0  0  0  0  0  0  0  0  0  0
  129.1080  127.7090   72.0900 C   0  0  1  0  0  0  0  0  0  0  0  0
  127.8020  126.8830   71.9630 C   0  0  0  0  0  0  0  0  0  0  0  0
  127.9130  125.9210   70.7550 C   0  0  0  0  0  0  0  0  0  0  0  0
  128.3270  126.6480   69.4550 C   0  0  0  0  0  0  0  0  0  0  0  0
  129.5490  127.4670   69.6770 N   0  0  0  0  0  0  0  0  0  0  0  0
  130.2850  128.1030   68.1960 S   0  0  0  0  0  0  0  0  0  0  0  0
  131.6420  128.5600   68.5200 O   0  0  0  0  0  0  0  0  0  0  0  0
  129.3240  129.0240   67.5750 O   0  0  0  0  0  0  0  0  0  0  0  0
  130.4630  126.6830   67.1170 C   0  0  0  0  0  0  0  0  0  0  0  0
  129.5840  125.6040   67.2550 C   0  0  0  0  0  0  0  0  0  0  0  0
  129.6720  124.4660   66.4470 C   0  0  0  0  0  0  0  0  0  0  0  0
  130.6860  124.4590   65.4860 C   0  0  0  0  0  0  0  0  0  0  0  0
  131.0910  123.5530   64.5350 N   0  0  0  0  0  0  0  0  0  0  0  0
  132.1680  124.0950   63.8640 C   0  0  0  0  0  0  0  0  0  0  0  0
  132.8930  123.3910   62.7530 C   0  0  0  0  0  0  0  0  0  0  0  0
  133.9580  124.0190   62.0920 C   0  0  0  0  0  0  0  0  0  0  0  0
  134.6340  123.3660   61.0640 C   0  0  0  0  0  0  0  0  0  0  0  0
  134.2470  122.0820   60.6900 C   0  0  0  0  0  0  0  0  0  0  0  0
  133.1920  121.4450   61.3360 C   0  0  0  0  0  0  0  0  0  0  0  0
  132.5170  122.0990   62.3640 C   0  0  0  0  0  0  0  0  0  0  0  0
  132.4790  125.2900   64.3140 N   0  0  0  0  0  0  0  0  0  0  0  0
  131.5830  125.5420   65.3200 C   0  0  0  0  0  0  0  0  0  0  0  0
  131.4690  126.6710   66.1430 C   0  0  0  0  0  0  0  0  0  0  0  0
  129.4040  128.4620   70.7700 C   0  0  0  0  0  0  0  0  0  0  0  0
  130.2850  131.8790   74.0240 C   0  0  0  0  0  0  0  0  0  0  0  0
  130.7450  132.5980   72.7350 C   0  0  0  0  0  0  0  0  0  0  0  0
  130.6888  135.2963   71.3060 H   0  0  0  0  0  0  0  0  0  0  0  0
  130.8040  133.7411   70.4143 H   0  0  0  0  0  0  0  0  0  0  0  0
  129.2632  134.6644   70.4143 H   0  0  0  0  0  0  0  0  0  0  0  0
  129.5749  134.3904   73.0593 H   0  0  0  0  0  0  0  0  0  0  0  0
  127.5750  133.6751   71.7866 H   0  0  0  0  0  0  0  0  0  0  0  0
  128.4433  132.1791   71.2614 H   0  0  0  0  0  0  0  0  0  0  0  0
  127.7291  132.9473   74.1443 H   0  0  0  0  0  0  0  0  0  0  0  0
  126.9443  131.6634   73.1268 H   0  0  0  0  0  0  0  0  0  0  0  0
  128.6146  130.7328   74.8002 H   0  0  0  0  0  0  0  0  0  0  0  0
  129.2290  130.2680   71.9410 H   0  0  0  0  0  0  0  0  0  0  0  0
  129.9411  127.0232   72.3034 H   0  0  0  0  0  0  0  0  0  0  0  0
  127.6465  126.2998   72.8826 H   0  0  0  0  0  0  0  0  0  0  0  0
  126.9516  127.5641   71.8114 H   0  0  0  0  0  0  0  0  0  0  0  0
  128.6657  125.1523   70.9843 H   0  0  0  0  0  0  0  0  0  0  0  0
  126.9201  125.4780   70.5884 H   0  0  0  0  0  0  0  0  0  0  0  0
  128.5297  125.9017   68.6727 H   0  0  0  0  0  0  0  0  0  0  0  0
  127.5072  127.3127   69.1450 H   0  0  0  0  0  0  0  0  0  0  0  0
  128.7985  125.6520   68.0235 H   0  0  0  0  0  0  0  0  0  0  0  0
  128.9785  123.6199   66.5622 H   0  0  0  0  0  0  0  0  0  0  0  0
  130.7090  122.6420   64.3280 H   0  0  0  0  0  0  0  0  0  0  0  0
  134.2618  125.0342   62.3872 H   0  0  0  0  0  0  0  0  0  0  0  0
  135.4700  123.8627   60.5499 H   0  0  0  0  0  0  0  0  0  0  0  0
  134.7797  121.5668   59.8771 H   0  0  0  0  0  0  0  0  0  0  0  0
  132.8925  120.4299   61.0363 H   0  0  0  0  0  0  0  0  0  0  0  0
  131.6820  121.5968   62.8744 H   0  0  0  0  0  0  0  0  0  0  0  0
  132.1521  127.5253   66.0267 H   0  0  0  0  0  0  0  0  0  0  0  0
  130.3359  129.0374   70.8729 H   0  0  0  0  0  0  0  0  0  0  0  0
  128.5804  129.1541   70.5403 H   0  0  0  0  0  0  0  0  0  0  0  0
  130.1857  132.6220   74.8290 H   0  0  0  0  0  0  0  0  0  0  0  0
  131.0382  131.1179   74.2758 H   0  0  0  0  0  0  0  0  0  0  0  0
  131.6951  133.1164   72.9315 H   0  0  0  0  0  0  0  0  0  0  0  0
  130.8734  131.8475   71.9411 H   0  0  0  0  0  0  0  0  0  0  0  0
  1  2  1  0
  2  3  1  0
  3  4  1  0
  4  5  1  0
  5  6  1  0
  6  7  1  0
  7  8  2  0
  7  9  1  0
  9 10  1  0
 10 11  1  0
 11 12  1  0
 12 13  1  0
 13 14  1  0
 14 15  2  0
 14 16  2  0
 14 17  1  0
 17 18  2  0
 18 19  1  0
 19 20  2  0
 20 21  1  0
 21 22  1  0
 22 23  1  0
 23 24  2  0
 24 25  1  0
 25 26  2  0
 26 27  1  0
 27 28  2  0
 22 29  2  0
 29 30  1  0
 30 31  2  0
 13 32  1  0
  5 33  1  0
 33 34  1  0
 34  2  1  0
 32  9  1  0
 31 17  1  0
 30 20  1  0
 28 23  1  0
  1 35  1  0
  1 36  1  0
  1 37  1  0
  2 38  1  1
  3 39  1  0
  3 40  1  0
  4 41  1  0
  4 42  1  0
  5 43  1  1
  6 44  1  0
  9 45  1  1
 10 46  1  0
 10 47  1  0
 11 48  1  0
 11 49  1  0
 12 50  1  0
 12 51  1  0
 18 52  1  0
 19 53  1  0
 21 54  1  0
 24 55  1  0
 25 56  1  0
 26 57  1  0
 27 58  1  0
 28 59  1  0
 31 60  1  0
 32 61  1  0
 32 62  1  0
 33 63  1  0
 33 64  1  0
 34 65  1  0
 34 66  1  0
M  END
>  <Binding energies>  (1) 
[-9.88]

>  <Ligand effiencies>  (1) 
[-0.2744444444444445]

>  <Interactions>  (1) 
["V-A:LEU:475:CD1:4254, V-A:ILE:369:CB:3232, H-A:ARG:545:NH2:4925, V-A:ILE:369:CG1:3234, V-A:ILE:369:CG2:3233, V-A:GLY:454:CA:4045, V-B:TYR:539:CE2:9845, V-A:HIS:456:CE1:4066, V-A:GLU:543:CD:4905, H-B:HIS:456:NE2:9039, V-A:TYR:484:CZ:4343, V-B:GLU:543:CA:9873, V-B:GLU:543:C:9871, V-B:GLU:543:CB:9875, V-B:HIS:456:CE1:9038, V-A:TYR:484:CE1:4341, V-B:GLY:544:C:9881, V-B:HIS:456:CD2:9036, H-A:GLU:543:O:4900, V-A:GLU:543:CB:4903, V-B:GLU:543:CG:9876, V-A:ASP:366:CG:3209, H-A:TYR:484:OH:4344, V-B:LYS:547:CE:9919, V-B:TYR:484:CD2:9312, V-B:TYR:484:CB:9309, V-B:TYR:484:CG:9310, V-A:LYS:547:CE:4947, V-A:GLU:543:C:4899, H-A:LYS:547:NZ:4948, V-B:TYR:484:CD1:9311, V-A:GLY:453:C:4038, V-A:GLY:453:CA:4040, V-A:GLY:544:CA:4911, V-B:GLY:544:CA:9883, H-A:ARG:545:N:4917"]

$$$$
RR11_Rahimova_2017
     RDKit          3D

 55 60  0  0  0  0  0  0  0  0999 V2000
  123.4310  133.5810   62.4730 N   0  0  0  0  0  0  0  0  0  0  0  0
  124.2610  132.6150   63.0380 C   0  0  0  0  0  0  0  0  0  0  0  0
  125.3670  133.0050   63.7900 C   0  0  0  0  0  0  0  0  0  0  0  0
  126.1940  132.0400   64.3570 C   0  0  0  0  0  0  0  0  0  0  0  0
  125.9230  130.6770   64.1780 C   0  0  0  0  0  0  0  0  0  0  0  0
  126.8120  129.6370   64.7940 C   0  0  0  0  0  0  0  0  0  0  0  0
  126.6330  129.1200   65.9900 N   0  0  0  0  0  0  0  0  0  0  0  0
  127.6490  128.2140   66.1490 C   0  0  0  0  0  0  0  0  0  0  0  0
  127.9270  127.3780   67.2380 C   0  0  0  0  0  0  0  0  0  0  0  0
  129.0270  126.5160   67.1520 C   0  0  0  0  0  0  0  0  0  0  0  0
  129.3570  125.5990   68.3220 C   0  0  0  0  0  0  0  0  0  0  0  0
  129.1350  126.2600   69.6750 C   0  0  0  0  0  0  0  0  0  0  0  0
  128.6660  125.4930   70.7470 C   0  0  0  0  0  0  0  0  0  0  0  0
  128.4550  126.0520   72.0100 C   0  0  0  0  0  0  0  0  0  0  0  0
  128.7330  127.4140   72.1840 C   0  0  0  0  0  0  0  0  0  0  0  0
  128.6050  128.1900   73.3060 N   0  0  0  0  0  0  0  0  0  0  0  0
  128.9900  129.3940   72.9420 C   0  0  0  0  0  0  0  0  0  0  0  0
  129.0040  130.5920   73.8480 C   0  0  0  0  0  0  0  0  0  0  0  0
  129.5190  131.8150   73.4010 C   0  0  0  0  0  0  0  0  0  0  0  0
  129.5420  132.9230   74.2440 C   0  0  0  0  0  0  0  0  0  0  0  0
  129.0480  132.8150   75.5430 C   0  0  0  0  0  0  0  0  0  0  0  0
  129.0750  133.9220   76.3900 N   0  0  0  0  0  0  0  0  0  0  0  0
  128.5290  131.6060   75.9990 C   0  0  0  0  0  0  0  0  0  0  0  0
  128.5070  130.4990   75.1550 C   0  0  0  0  0  0  0  0  0  0  0  0
  129.3740  129.4350   71.6180 N   0  0  0  0  0  0  0  0  0  0  0  0
  129.2190  128.1740   71.0930 C   0  0  0  0  0  0  0  0  0  0  0  0
  129.4370  127.6200   69.8290 C   0  0  0  0  0  0  0  0  0  0  0  0
  129.8420  126.5110   66.0140 C   0  0  0  0  0  0  0  0  0  0  0  0
  129.5940  127.3360   64.9140 C   0  0  0  0  0  0  0  0  0  0  0  0
  128.4840  128.1790   65.0070 C   0  0  0  0  0  0  0  0  0  0  0  0
  127.9180  129.1060   64.1630 N   0  0  0  0  0  0  0  0  0  0  0  0
  124.8080  130.2980   63.4180 C   0  0  0  0  0  0  0  0  0  0  0  0
  123.9790  131.2630   62.8500 C   0  0  0  0  0  0  0  0  0  0  0  0
  123.3950  133.6790   61.4680 H   0  0  0  0  0  0  0  0  0  0  0  0
  122.8450  134.1440   63.0720 H   0  0  0  0  0  0  0  0  0  0  0  0
  125.5861  134.0731   63.9352 H   0  0  0  0  0  0  0  0  0  0  0  0
  127.0671  132.3496   64.9502 H   0  0  0  0  0  0  0  0  0  0  0  0
  127.2963  127.3982   68.1390 H   0  0  0  0  0  0  0  0  0  0  0  0
  128.7179  124.7059   68.2588 H   0  0  0  0  0  0  0  0  0  0  0  0
  130.4248  125.3448   68.2506 H   0  0  0  0  0  0  0  0  0  0  0  0
  128.4584  124.4240   70.5917 H   0  0  0  0  0  0  0  0  0  0  0  0
  128.0812  125.4400   72.8441 H   0  0  0  0  0  0  0  0  0  0  0  0
  129.9084  131.9011   72.3759 H   0  0  0  0  0  0  0  0  0  0  0  0
  129.9486  133.8804   73.8861 H   0  0  0  0  0  0  0  0  0  0  0  0
  129.9620  134.2760   76.7180 H   0  0  0  0  0  0  0  0  0  0  0  0
  128.2080  134.3790   76.6370 H   0  0  0  0  0  0  0  0  0  0  0  0
  128.1373  131.5258   77.0238 H   0  0  0  0  0  0  0  0  0  0  0  0
  128.0966  129.5446   75.5166 H   0  0  0  0  0  0  0  0  0  0  0  0
  129.7000  130.2740   71.1600 H   0  0  0  0  0  0  0  0  0  0  0  0
  129.8268  128.2221   68.9950 H   0  0  0  0  0  0  0  0  0  0  0  0
  130.7082  125.8337   65.9847 H   0  0  0  0  0  0  0  0  0  0  0  0
  130.2383  127.3224   64.0225 H   0  0  0  0  0  0  0  0  0  0  0  0
  128.2160  129.3810   63.2380 H   0  0  0  0  0  0  0  0  0  0  0  0
  124.5859  129.2310   63.2689 H   0  0  0  0  0  0  0  0  0  0  0  0
  123.1050  130.9590   62.2553 H   0  0  0  0  0  0  0  0  0  0  0  0
  1  2  1  0
  2  3  2  0
  3  4  1  0
  4  5  2  0
  5  6  1  0
  6  7  2  0
  7  8  1  0
  8  9  2  0
  9 10  1  0
 10 11  1  0
 11 12  1  0
 12 13  2  0
 13 14  1  0
 14 15  2  0
 15 16  1  0
 16 17  2  0
 17 18  1  0
 18 19  2  0
 19 20  1  0
 20 21  2  0
 21 22  1  0
 21 23  1  0
 23 24  2  0
 17 25  1  0
 25 26  1  0
 26 27  2  0
 10 28  2  0
 28 29  1  0
 29 30  2  0
 30 31  1  0
  5 32  1  0
 32 33  2  0
 33  2  1  0
 31  6  1  0
 30  8  1  0
 27 12  1  0
 26 15  1  0
 24 18  1  0
  1 34  1  0
  1 35  1  0
  3 36  1  0
  4 37  1  0
  9 38  1  0
 11 39  1  0
 11 40  1  0
 13 41  1  0
 14 42  1  0
 19 43  1  0
 20 44  1  0
 22 45  1  0
 22 46  1  0
 23 47  1  0
 24 48  1  0
 25 49  1  0
 27 50  1  0
 28 51  1  0
 29 52  1  0
 31 53  1  0
 32 54  1  0
 33 55  1  0
M  END
>  <Binding energies>  (1) 
[-8.32]

>  <Ligand effiencies>  (1) 
[-0.21333333333333335]

>  <Interactions>  (1) 
["V-B:GLU:543:CD:9877, H-A:GLU:543:OE2:4907, V-A:HIS:456:CE1:4066, V-A:GLU:543:CD:4905, H-B:HIS:456:NE2:9039, V-A:GLU:543:CG:4904, V-B:GLU:543:C:9871, V-B:GLU:543:CB:9875, V-B:HIS:456:CE1:9038, V-A:HIS:456:CD2:4064, V-B:HIS:456:CD2:9036, H-A:GLU:543:O:4900, V-B:ILE:369:CD1:8207, V-B:GLY:454:CA:9017, H-B:TYR:484:OH:9316, V-B:LEU:475:CD2:9227, V-B:ASP:366:CG:8181, V-B:LYS:547:CE:9919, V-A:LYS:547:CE:4947, V-A:GLU:543:C:4899, H-A:LYS:547:NZ:4948, V-B:LYS:471:CE:9188, V-B:TYR:484:CZ:9315, H-B:SER:385:O:8374, H-B:ASP:473:OD1:9209, H-B:ASP:473:OD2:9210"]

$$$$
RR11_Rahimova_2017-again1
     RDKit          3D

 56 61  0  0  0  0  0  0  0  0999 V2000
  129.1140  133.8460   76.3880 N   0  0  0  0  0  0  0  0  0  0  0  0
  129.1060  132.7270   75.5560 C   0  0  0  0  0  0  0  0  0  0  0  0
  129.7170  132.7890   74.3060 C   0  0  0  0  0  0  0  0  0  0  0  0
  129.7060  131.6710   73.4740 C   0  0  0  0  0  0  0  0  0  0  0  0
  129.0850  130.4850   73.8870 C   0  0  0  0  0  0  0  0  0  0  0  0
  129.0660  129.2830   72.9870 C   0  0  0  0  0  0  0  0  0  0  0  0
  128.8800  128.0490   73.4000 N   0  0  0  0  0  0  0  0  0  0  0  0
  128.9590  127.2740   72.2720 C   0  0  0  0  0  0  0  0  0  0  0  0
  128.8390  125.8840   72.1410 C   0  0  0  0  0  0  0  0  0  0  0  0
  128.9740  125.3300   70.8670 C   0  0  0  0  0  0  0  0  0  0  0  0
  129.2270  126.1250   69.7440 C   0  0  0  0  0  0  0  0  0  0  0  0
  129.3710  125.4680   68.3780 C   0  0  0  0  0  0  0  0  0  0  0  0
  129.0820  126.4270   67.2320 C   0  0  0  0  0  0  0  0  0  0  0  0
  129.9690  126.4990   66.1520 C   0  0  0  0  0  0  0  0  0  0  0  0
  129.7580  127.3610   65.0730 C   0  0  0  0  0  0  0  0  0  0  0  0
  128.6070  128.1530   65.1200 C   0  0  0  0  0  0  0  0  0  0  0  0
  128.1030  129.1070   64.2450 N   0  0  0  0  0  0  0  0  0  0  0  0
  126.9270  129.6250   64.7380 C   0  0  0  0  0  0  0  0  0  0  0  0
  126.0800  130.6840   64.1100 C   0  0  0  0  0  0  0  0  0  0  0  0
  124.8950  130.3360   63.4510 C   0  0  0  0  0  0  0  0  0  0  0  0
  124.0970  131.3200   62.8720 C   0  0  0  0  0  0  0  0  0  0  0  0
  124.4820  132.6570   62.9490 C   0  0  0  0  0  0  0  0  0  0  0  0
  123.6800  133.6410   62.3730 N   0  0  0  0  0  0  0  0  0  0  0  0
  125.6610  133.0140   63.6020 C   0  0  0  0  0  0  0  0  0  0  0  0
  126.4570  132.0300   64.1810 C   0  0  0  0  0  0  0  0  0  0  0  0
  126.6890  128.9810   65.9300 N   0  0  0  0  0  0  0  0  0  0  0  0
  127.7050  128.0750   66.1940 C   0  0  0  0  0  0  0  0  0  0  0  0
  127.9180  127.2050   67.2680 C   0  0  0  0  0  0  0  0  0  0  0  0
  129.3270  127.5190   69.8470 C   0  0  0  0  0  0  0  0  0  0  0  0
  129.1980  128.0670   71.1250 C   0  0  0  0  0  0  0  0  0  0  0  0
  129.2540  129.3480   71.6220 N   0  0  0  0  0  0  0  0  0  0  0  0
  128.4760  130.4370   75.1480 C   0  0  0  0  0  0  0  0  0  0  0  0
  128.4870  131.5540   75.9800 C   0  0  0  0  0  0  0  0  0  0  0  0
  128.2380  134.2750   76.6510 H   0  0  0  0  0  0  0  0  0  0  0  0
  129.9960  134.2380   76.6850 H   0  0  0  0  0  0  0  0  0  0  0  0
  130.2066  133.7173   73.9765 H   0  0  0  0  0  0  0  0  0  0  0  0
  130.1881  131.7201   72.4865 H   0  0  0  0  0  0  0  0  0  0  0  0
  128.6440  125.2478   73.0169 H   0  0  0  0  0  0  0  0  0  0  0  0
  128.8791  124.2412   70.7429 H   0  0  0  0  0  0  0  0  0  0  0  0
  130.4005  125.0949   68.2736 H   0  0  0  0  0  0  0  0  0  0  0  0
  128.6353  124.6522   68.3223 H   0  0  0  0  0  0  0  0  0  0  0  0
  130.8614  125.8559   66.1527 H   0  0  0  0  0  0  0  0  0  0  0  0
  130.4618  127.4138   64.2293 H   0  0  0  0  0  0  0  0  0  0  0  0
  128.5060  129.4130   63.3710 H   0  0  0  0  0  0  0  0  0  0  0  0
  124.5925  129.2802   63.3901 H   0  0  0  0  0  0  0  0  0  0  0  0
  123.1661  131.0426   62.3558 H   0  0  0  0  0  0  0  0  0  0  0  0
  123.0010  134.1270   62.9430 H   0  0  0  0  0  0  0  0  0  0  0  0
  123.7660  133.8390   61.3870 H   0  0  0  0  0  0  0  0  0  0  0  0
  125.9613  134.0707   63.6594 H   0  0  0  0  0  0  0  0  0  0  0  0
  127.3869  132.3115   64.6969 H   0  0  0  0  0  0  0  0  0  0  0  0
  125.8800  129.1810   66.4980 H   0  0  0  0  0  0  0  0  0  0  0  0
  127.2045  127.1350   68.1023 H   0  0  0  0  0  0  0  0  0  0  0  0
  129.4989  128.1513   68.9635 H   0  0  0  0  0  0  0  0  0  0  0  0
  129.4120  130.2120   71.1240 H   0  0  0  0  0  0  0  0  0  0  0  0
  127.9859  129.5110   75.4831 H   0  0  0  0  0  0  0  0  0  0  0  0
  128.0080  131.5096   76.9693 H   0  0  0  0  0  0  0  0  0  0  0  0
  1  2  1  0
  2  3  2  0
  3  4  1  0
  4  5  2  0
  5  6  1  0
  6  7  2  0
  7  8  1  0
  8  9  2  0
  9 10  1  0
 10 11  2  0
 11 12  1  0
 12 13  1  0
 13 14  2  0
 14 15  1  0
 15 16  2  0
 16 17  1  0
 17 18  1  0
 18 19  1  0
 19 20  2  0
 20 21  1  0
 21 22  2  0
 22 23  1  0
 22 24  1  0
 24 25  2  0
 18 26  2  0
 26 27  1  0
 27 28  2  0
 11 29  1  0
 29 30  2  0
 30 31  1  0
  5 32  1  0
 32 33  2  0
 33  2  1  0
 31  6  1  0
 30  8  1  0
 28 13  1  0
 27 16  1  0
 25 19  1  0
  1 34  1  0
  1 35  1  0
  3 36  1  0
  4 37  1  0
  9 38  1  0
 10 39  1  0
 12 40  1  0
 12 41  1  0
 14 42  1  0
 15 43  1  0
 17 44  1  0
 20 45  1  0
 21 46  1  0
 23 47  1  0
 23 48  1  0
 24 49  1  0
 25 50  1  0
 26 51  1  0
 28 52  1  0
 29 53  1  0
 31 54  1  0
 32 55  1  0
 33 56  1  0
M  CHG  1  26   1
M  END
>  <Binding energies>  (1) 
[-8.98]

>  <Ligand effiencies>  (1) 
[-0.2245]

>  <Interactions>  (1) 
["V-B:GLU:543:CD:9877, H-A:GLU:543:OE1:4906, H-A:GLU:543:OE2:4907, V-A:HIS:456:CE1:4066, V-A:GLU:543:CD:4905, H-B:HIS:456:NE2:9039, V-A:GLU:543:CG:4904, V-B:GLU:543:C:9871, V-B:GLU:543:CB:9875, V-B:HIS:456:CE1:9038, V-A:HIS:456:CD2:4064, V-B:HIS:456:CD2:9036, H-A:GLU:543:O:4900, V-B:ILE:369:CD1:8207, V-B:GLY:454:CA:9017, H-B:TYR:484:OH:9316, V-B:LEU:475:CD2:9227, V-B:ASP:366:CG:8181, H-B:GLU:543:OE1:9878, V-B:LYS:547:CE:9919, V-A:LYS:547:CE:4947, V-A:GLU:543:C:4899, H-A:LYS:547:NZ:4948, V-B:LYS:471:CE:9188, V-A:GLY:544:CA:4911, H-B:SER:385:O:8374, H-B:ASP:473:OD1:9209"]

$$$$
RR11_Rahimova_2017-again2
     RDKit          3D

 57 62  0  0  0  0  0  0  0  0999 V2000
  127.4650  126.9450   72.3280 N   0  0  0  0  0  0  0  0  0  0  0  0
  127.9590  126.8370   71.0290 C   0  0  0  0  0  0  0  0  0  0  0  0
  127.1480  126.3250   70.0190 C   0  0  0  0  0  0  0  0  0  0  0  0
  127.6430  126.2120   68.7230 C   0  0  0  0  0  0  0  0  0  0  0  0
  128.9530  126.6100   68.4300 C   0  0  0  0  0  0  0  0  0  0  0  0
  129.4890  126.4790   67.0410 C   0  0  0  0  0  0  0  0  0  0  0  0
  129.1220  127.2240   65.9430 N   0  0  0  0  0  0  0  0  0  0  0  0
  129.8530  126.8270   64.8320 C   0  0  0  0  0  0  0  0  0  0  0  0
  129.8530  127.2770   63.5090 C   0  0  0  0  0  0  0  0  0  0  0  0
  130.7480  126.6590   62.6270 C   0  0  0  0  0  0  0  0  0  0  0  0
  130.7970  127.1110   61.1740 C   0  0  0  0  0  0  0  0  0  0  0  0
  130.2850  128.5310   60.9810 C   0  0  0  0  0  0  0  0  0  0  0  0
  131.1730  129.5360   60.5760 C   0  0  0  0  0  0  0  0  0  0  0  0
  130.7620  130.8570   60.3820 C   0  0  0  0  0  0  0  0  0  0  0  0
  129.4110  131.1320   60.6080 C   0  0  0  0  0  0  0  0  0  0  0  0
  128.6810  132.3100   60.5230 N   0  0  0  0  0  0  0  0  0  0  0  0
  127.3650  132.0760   60.8500 C   0  0  0  0  0  0  0  0  0  0  0  0
  126.2600  133.0810   60.8970 C   0  0  0  0  0  0  0  0  0  0  0  0
  125.0860  132.8060   61.6060 C   0  0  0  0  0  0  0  0  0  0  0  0
  124.0600  133.7460   61.6600 C   0  0  0  0  0  0  0  0  0  0  0  0
  124.2040  134.9670   61.0030 C   0  0  0  0  0  0  0  0  0  0  0  0
  123.1800  135.9110   61.0610 N   0  0  0  0  0  0  0  0  0  0  0  0
  125.3680  135.2500   60.2900 C   0  0  0  0  0  0  0  0  0  0  0  0
  126.3940  134.3100   60.2380 C   0  0  0  0  0  0  0  0  0  0  0  0
  127.2700  130.7340   61.1350 N   0  0  0  0  0  0  0  0  0  0  0  0
  128.5120  130.1270   61.0000 C   0  0  0  0  0  0  0  0  0  0  0  0
  128.9260  128.8060   61.1870 C   0  0  0  0  0  0  0  0  0  0  0  0
  131.5800  125.6170   63.0530 C   0  0  0  0  0  0  0  0  0  0  0  0
  131.5810  125.1580   64.3720 C   0  0  0  0  0  0  0  0  0  0  0  0
  130.7010  125.7900   65.2550 C   0  0  0  0  0  0  0  0  0  0  0  0
  130.4540  125.6000   66.6090 N   0  0  0  0  0  0  0  0  0  0  0  0
  129.7590  127.1270   69.4520 C   0  0  0  0  0  0  0  0  0  0  0  0
  129.2630  127.2410   70.7480 C   0  0  0  0  0  0  0  0  0  0  0  0
  126.6890  126.3670   72.6150 H   0  0  0  0  0  0  0  0  0  0  0  0
  127.8440  127.6470   72.9490 H   0  0  0  0  0  0  0  0  0  0  0  0
  126.1184  126.0106   70.2451 H   0  0  0  0  0  0  0  0  0  0  0  0
  127.0021  125.8082   67.9254 H   0  0  0  0  0  0  0  0  0  0  0  0
  128.4220  127.9500   65.9920 H   0  0  0  0  0  0  0  0  0  0  0  0
  129.1801  128.0807   63.1754 H   0  0  0  0  0  0  0  0  0  0  0  0
  131.8393  127.0628   60.8258 H   0  0  0  0  0  0  0  0  0  0  0  0
  130.1427  126.4415   60.5964 H   0  0  0  0  0  0  0  0  0  0  0  0
  132.2282  129.2765   60.4052 H   0  0  0  0  0  0  0  0  0  0  0  0
  131.4665  131.6410   60.0672 H   0  0  0  0  0  0  0  0  0  0  0  0
  129.0200  133.2270   60.2700 H   0  0  0  0  0  0  0  0  0  0  0  0
  124.9726  131.8421   62.1237 H   0  0  0  0  0  0  0  0  0  0  0  0
  123.1388  133.5257   62.2193 H   0  0  0  0  0  0  0  0  0  0  0  0
  122.6620  136.0330   61.9180 H   0  0  0  0  0  0  0  0  0  0  0  0
  122.9240  136.4160   60.2250 H   0  0  0  0  0  0  0  0  0  0  0  0
  125.4757  136.2133   59.7699 H   0  0  0  0  0  0  0  0  0  0  0  0
  127.3135  134.5334   59.6772 H   0  0  0  0  0  0  0  0  0  0  0  0
  126.3990  130.3000   61.4060 H   0  0  0  0  0  0  0  0  0  0  0  0
  128.2180  128.0177   61.4824 H   0  0  0  0  0  0  0  0  0  0  0  0
  132.2553  125.1441   62.3248 H   0  0  0  0  0  0  0  0  0  0  0  0
  132.2407  124.3408   64.6992 H   0  0  0  0  0  0  0  0  0  0  0  0
  130.8930  124.9340   67.2260 H   0  0  0  0  0  0  0  0  0  0  0  0
  130.7885  127.4444   69.2298 H   0  0  0  0  0  0  0  0  0  0  0  0
  129.8985  127.6488   71.5479 H   0  0  0  0  0  0  0  0  0  0  0  0
  1  2  1  0
  2  3  2  0
  3  4  1  0
  4  5  2  0
  5  6  1  0
  6  7  1  0
  7  8  1  0
  8  9  2  0
  9 10  1  0
 10 11  1  0
 11 12  1  0
 12 13  2  0
 13 14  1  0
 14 15  2  0
 15 16  1  0
 16 17  1  0
 17 18  1  0
 18 19  2  0
 19 20  1  0
 20 21  2  0
 21 22  1  0
 21 23  1  0
 23 24  2  0
 17 25  2  0
 25 26  1  0
 26 27  2  0
 10 28  2  0
 28 29  1  0
 29 30  2  0
 30 31  1  0
  5 32  1  0
 32 33  2  0
 33  2  1  0
 31  6  2  0
 30  8  1  0
 27 12  1  0
 26 15  1  0
 24 18  1  0
  1 34  1  0
  1 35  1  0
  3 36  1  0
  4 37  1  0
  7 38  1  0
  9 39  1  0
 11 40  1  0
 11 41  1  0
 13 42  1  0
 14 43  1  0
 16 44  1  0
 19 45  1  0
 20 46  1  0
 22 47  1  0
 22 48  1  0
 23 49  1  0
 24 50  1  0
 25 51  1  0
 27 52  1  0
 28 53  1  0
 29 54  1  0
 31 55  1  0
 32 56  1  0
 33 57  1  0
M  CHG  2  25   1  31   1
M  END
>  <Binding energies>  (1) 
[-8.86]

>  <Ligand effiencies>  (1) 
[-0.21609756097560975]

>  <Interactions>  (1) 
["V-B:GLU:543:CD:9877, V-A:HIS:456:CE1:4066, V-A:GLU:543:CD:4905, V-B:GLU:543:C:9871, V-B:GLU:543:CB:9875, V-B:HIS:456:CE1:9038, V-B:GLY:544:C:9881, V-A:HIS:456:CD2:4064, V-B:HIS:456:CD2:9036, V-B:ILE:369:CD1:8207, V-B:ILE:369:CG2:8205, V-B:TRP:381:CH2:8340, V-A:TYR:539:CE2:4873, H-A:TYR:539:O:4865, V-A:TYR:539:CD2:4871, V-B:LEU:475:CD2:9227, V-A:ASP:366:CG:3209, H-B:ASP:366:OD1:8182, H-A:TYR:484:OH:4344, H-B:GLU:543:OE1:9878, V-B:LYS:547:CE:9919, H-A:HIS:456:NE2:4067, V-B:TRP:381:CZ2:8338, V-B:GLY:544:CA:9883, V-B:TRP:381:CZ3:8339, H-B:GLY:544:O:9882, H-B:SER:385:O:8374, V-B:SER:385:C:8373, V-B:SER:385:CA:8375, V-B:SER:385:CB:8377"]

$$$$
RR12_Rahimova_2017
     RDKit          3D

 51 53  0  0  0  0  0  0  0  0999 V2000
  126.1780  131.1560   58.3760 C   0  0  0  0  0  0  0  0  0  0  0  0
  127.6450  130.9610   57.9720 C   0  0  0  0  0  0  0  0  0  0  0  0
  128.4810  132.2420   58.1450 C   0  0  0  0  0  0  0  0  0  0  0  0
  129.5620  132.0290   59.1040 N   0  0  0  0  0  0  0  0  0  0  0  0
  129.5050  132.1630   60.4830 C   0  0  0  0  0  0  0  0  0  0  0  0
  128.2680  132.6150   61.2400 C   0  0  0  0  0  0  0  0  0  0  0  0
  127.8160  134.0300   60.8340 C   0  0  0  0  0  0  0  0  0  0  0  0
  126.3220  134.2810   61.1120 C   0  0  0  0  0  0  0  0  0  0  0  0
  125.5230  133.0580   61.1940 N   0  0  0  0  0  0  0  0  0  0  0  0
  124.5020  132.8590   62.0470 C   0  0  0  0  0  0  0  0  0  0  0  0
  124.1300  133.7040   62.8650 O   0  0  0  0  0  0  0  0  0  0  0  0
  123.8050  131.4970   61.9420 C   0  0  0  0  0  0  0  0  0  0  0  0
  123.6370  130.9450   63.2490 O   0  0  0  0  0  0  0  0  0  0  0  0
  124.7200  130.3670   63.8840 C   0  0  0  0  0  0  0  0  0  0  0  0
  124.4860  129.8470   65.1590 C   0  0  0  0  0  0  0  0  0  0  0  0
  125.5150  129.2420   65.8760 C   0  0  0  0  0  0  0  0  0  0  0  0
  126.7860  129.1550   65.3160 C   0  0  0  0  0  0  0  0  0  0  0  0
  127.0370  129.6700   64.0460 C   0  0  0  0  0  0  0  0  0  0  0  0
  126.0080  130.2760   63.3300 C   0  0  0  0  0  0  0  0  0  0  0  0
  130.6350  131.8770   61.0800 N   0  0  0  0  0  0  0  0  0  0  0  0
  131.4820  131.5110   60.0720 C   0  0  0  0  0  0  0  0  0  0  0  0
  132.8200  131.0940   60.1500 C   0  0  0  0  0  0  0  0  0  0  0  0
  133.4750  130.7640   58.9630 C   0  0  0  0  0  0  0  0  0  0  0  0
  132.8270  130.8440   57.7310 C   0  0  0  0  0  0  0  0  0  0  0  0
  131.4970  131.2560   57.6200 C   0  0  0  0  0  0  0  0  0  0  0  0
  130.8400  131.5880   58.8110 C   0  0  0  0  0  0  0  0  0  0  0  0
  126.0981  131.1666   59.4730 H   0  0  0  0  0  0  0  0  0  0  0  0
  125.8103  132.1109   57.9723 H   0  0  0  0  0  0  0  0  0  0  0  0
  125.5736  130.3303   57.9723 H   0  0  0  0  0  0  0  0  0  0  0  0
  128.0807  130.1685   58.5982 H   0  0  0  0  0  0  0  0  0  0  0  0
  127.6643  130.6915   56.9057 H   0  0  0  0  0  0  0  0  0  0  0  0
  128.9114  132.5260   57.1733 H   0  0  0  0  0  0  0  0  0  0  0  0
  127.8271  133.0421   58.5220 H   0  0  0  0  0  0  0  0  0  0  0  0
  127.4497  131.9097   61.0329 H   0  0  0  0  0  0  0  0  0  0  0  0
  128.5194  132.6374   62.3107 H   0  0  0  0  0  0  0  0  0  0  0  0
  128.4073  134.7642   61.4008 H   0  0  0  0  0  0  0  0  0  0  0  0
  127.9729  134.1300   59.7499 H   0  0  0  0  0  0  0  0  0  0  0  0
  126.2326  134.8184   62.0676 H   0  0  0  0  0  0  0  0  0  0  0  0
  125.9316  134.8625   60.2638 H   0  0  0  0  0  0  0  0  0  0  0  0
  125.7680  132.3200   60.5500 H   0  0  0  0  0  0  0  0  0  0  0  0
  122.8203  131.6248   61.4688 H   0  0  0  0  0  0  0  0  0  0  0  0
  124.4193  130.8171   61.3334 H   0  0  0  0  0  0  0  0  0  0  0  0
  123.4808  129.9159   65.6003 H   0  0  0  0  0  0  0  0  0  0  0  0
  125.3242  128.8349   66.8799 H   0  0  0  0  0  0  0  0  0  0  0  0
  127.5992  128.6757   65.8807 H   0  0  0  0  0  0  0  0  0  0  0  0
  128.0446  129.5981   63.6105 H   0  0  0  0  0  0  0  0  0  0  0  0
  126.2040  130.6847   62.3277 H   0  0  0  0  0  0  0  0  0  0  0  0
  133.3371  131.0292   61.1187 H   0  0  0  0  0  0  0  0  0  0  0  0
  134.5237  130.4341   58.9999 H   0  0  0  0  0  0  0  0  0  0  0  0
  133.3799  130.5745   56.8190 H   0  0  0  0  0  0  0  0  0  0  0  0
  130.9909  131.3166   56.6452 H   0  0  0  0  0  0  0  0  0  0  0  0
  1  2  1  0
  2  3  1  0
  3  4  1  0
  4  5  1  0
  5  6  1  0
  6  7  1  0
  7  8  1  0
  8  9  1  0
  9 10  1  0
 10 11  2  0
 10 12  1  0
 12 13  1  0
 13 14  1  0
 14 15  2  0
 15 16  1  0
 16 17  2  0
 17 18  1  0
 18 19  2  0
  5 20  2  0
 20 21  1  0
 21 22  2  0
 22 23  1  0
 23 24  2  0
 24 25  1  0
 25 26  2  0
 26  4  1  0
 19 14  1  0
 26 21  1  0
  1 27  1  0
  1 28  1  0
  1 29  1  0
  2 30  1  0
  2 31  1  0
  3 32  1  0
  3 33  1  0
  6 34  1  0
  6 35  1  0
  7 36  1  0
  7 37  1  0
  8 38  1  0
  8 39  1  0
  9 40  1  0
 12 41  1  0
 12 42  1  0
 15 43  1  0
 16 44  1  0
 17 45  1  0
 18 46  1  0
 19 47  1  0
 22 48  1  0
 23 49  1  0
 24 50  1  0
 25 51  1  0
M  END
>  <Binding energies>  (1) 
[-6.93]

>  <Ligand effiencies>  (1) 
[-0.25666666666666665]

>  <Interactions>  (1) 
["V-B:HIS:456:CE1:9038, V-B:ILE:369:CD1:8207, V-B:ARG:545:CZ:9895, V-A:ALA:541:CB:4889, V-A:TYR:539:CE2:4873, V-A:TYR:539:CD2:4871, V-B:LEU:475:CD2:9227, V-B:ASP:366:CG:8181, V-A:ASP:366:CG:3209, V-A:PRO:540:CA:4880, V-A:PRO:540:N:4881, V-A:PRO:540:CB:4882, H-A:ALA:541:N:4888, V-A:TYR:539:C:4864, V-A:ASN:362:CB:3172, V-A:LEU:363:CA:3181, V-A:ASN:362:C:3168, H-B:GLY:454:N:9018, V-A:LEU:363:CD1:3185"]

$$$$
RR13_Rahimova_2017
     RDKit          3D

 84 90  0  0  0  0  0  0  0  0999 V2000
  131.7430  128.1870   68.4970 Cl  0  0  0  0  0  0  0  0  0  0  0  0
  130.2510  127.3430   68.7380 C   0  0  0  0  0  0  0  0  0  0  0  0
  129.6620  127.4100   70.0030 C   0  0  0  0  0  0  0  0  0  0  0  0
  128.4740  126.7350   70.2660 C   0  0  0  0  0  0  0  0  0  0  0  0
  127.8650  125.9840   69.2640 C   0  0  0  0  0  0  0  0  0  0  0  0
  128.4460  125.9130   67.9990 C   0  0  0  0  0  0  0  0  0  0  0  0
  129.6380  126.5960   67.7110 C   0  0  0  0  0  0  0  0  0  0  0  0
  130.2750  126.4810   66.3080 C   0  0  1  0  0  0  0  0  0  0  0  0
  130.2750  125.0240   65.8200 C   0  0  0  0  0  0  0  0  0  0  0  0
  129.3770  124.1040   66.0950 N   0  0  0  0  0  0  0  0  0  0  0  0
  129.8110  122.9450   65.4590 N   0  0  0  0  0  0  0  0  0  0  0  0
  131.0060  123.1820   64.8070 N   0  0  0  0  0  0  0  0  0  0  0  0
  131.2830  124.4640   65.0650 N   0  0  0  0  0  0  0  0  0  0  0  0
  132.4720  125.0900   64.4990 C   0  0  0  0  0  0  0  0  0  0  0  0
  132.3430  125.1930   62.9680 C   0  0  0  0  0  0  0  0  0  0  0  0
  132.8810  123.9580   62.2610 C   0  0  0  0  0  0  0  0  0  0  0  0
  134.1800  123.9590   61.7470 C   0  0  0  0  0  0  0  0  0  0  0  0
  134.6690  122.8310   61.0940 C   0  0  0  0  0  0  0  0  0  0  0  0
  133.8570  121.7060   60.9580 C   0  0  0  0  0  0  0  0  0  0  0  0
  132.5610  121.7000   61.4670 C   0  0  0  0  0  0  0  0  0  0  0  0
  132.0710  122.8280   62.1200 C   0  0  0  0  0  0  0  0  0  0  0  0
  129.6850  127.4090   65.3140 N   0  0  0  0  0  0  0  0  0  0  0  0
  128.3300  127.8170   65.7270 C   0  0  0  0  0  0  0  0  0  0  0  0
  127.7610  128.8860   64.7660 C   0  0  0  0  0  0  0  0  0  0  0  0
  127.6600  128.3530   63.3970 N   0  0  0  0  0  0  0  0  0  0  0  0
  127.0430  129.3180   62.4570 C   0  0  1  0  0  0  0  0  0  0  0  0
  126.7900  128.7880   61.0290 C   0  0  0  0  0  0  0  0  0  0  0  0
  126.7590  127.3970   60.8590 C   0  0  0  0  0  0  0  0  0  0  0  0
  126.5200  126.8290   59.6080 C   0  0  0  0  0  0  0  0  0  0  0  0
  126.3130  127.6480   58.5020 C   0  0  0  0  0  0  0  0  0  0  0  0
  126.3560  129.0320   58.6460 C   0  0  0  0  0  0  0  0  0  0  0  0
  126.5990  129.6110   59.8950 C   0  0  0  0  0  0  0  0  0  0  0  0
  126.7020  131.3380   59.9570 Cl  0  0  0  0  0  0  0  0  0  0  0  0
  125.7720  129.9670   63.0100 C   0  0  0  0  0  0  0  0  0  0  0  0
  124.5520  129.5040   62.8580 N   0  0  0  0  0  0  0  0  0  0  0  0
  123.7200  130.3910   63.5320 N   0  0  0  0  0  0  0  0  0  0  0  0
  124.4690  131.3960   64.1100 N   0  0  0  0  0  0  0  0  0  0  0  0
  125.7350  131.1010   63.7930 N   0  0  0  0  0  0  0  0  0  0  0  0
  126.8190  131.9750   64.2270 C   0  0  0  0  0  0  0  0  0  0  0  0
  127.6180  132.4840   63.0130 C   0  0  0  0  0  0  0  0  0  0  0  0
  126.8210  133.4710   62.1750 C   0  0  0  0  0  0  0  0  0  0  0  0
  127.4870  134.4150   61.3880 C   0  0  0  0  0  0  0  0  0  0  0  0
  126.7570  135.3140   60.6150 C   0  0  0  0  0  0  0  0  0  0  0  0
  125.3640  135.2670   60.6310 C   0  0  0  0  0  0  0  0  0  0  0  0
  124.6950  134.3270   61.4140 C   0  0  0  0  0  0  0  0  0  0  0  0
  125.4240  133.4270   62.1860 C   0  0  0  0  0  0  0  0  0  0  0  0
  129.0180  127.9530   62.9860 C   0  0  0  0  0  0  0  0  0  0  0  0
  129.5770  126.8760   63.9450 C   0  0  0  0  0  0  0  0  0  0  0  0
  130.1412  128.0010   70.7974 H   0  0  0  0  0  0  0  0  0  0  0  0
  128.0164  126.7946   71.2645 H   0  0  0  0  0  0  0  0  0  0  0  0
  126.9270  125.4477   69.4704 H   0  0  0  0  0  0  0  0  0  0  0  0
  127.9629  125.3124   67.2142 H   0  0  0  0  0  0  0  0  0  0  0  0
  131.3223  126.8012   66.4116 H   0  0  0  0  0  0  0  0  0  0  0  0
  132.5877  126.0987   64.9223 H   0  0  0  0  0  0  0  0  0  0  0  0
  133.3512  124.4760   64.7440 H   0  0  0  0  0  0  0  0  0  0  0  0
  131.2807  125.3145   62.7095 H   0  0  0  0  0  0  0  0  0  0  0  0
  132.9373  126.0573   62.6367 H   0  0  0  0  0  0  0  0  0  0  0  0
  134.8156  124.8499   61.8581 H   0  0  0  0  0  0  0  0  0  0  0  0
  135.6911  122.8274   60.6873 H   0  0  0  0  0  0  0  0  0  0  0  0
  134.2440  120.8141   60.4434 H   0  0  0  0  0  0  0  0  0  0  0  0
  131.9271  120.8082   61.3538 H   0  0  0  0  0  0  0  0  0  0  0  0
  131.0480  122.8296   62.5242 H   0  0  0  0  0  0  0  0  0  0  0  0
  127.6702  126.9369   65.7186 H   0  0  0  0  0  0  0  0  0  0  0  0
  128.3841  128.2457   66.7386 H   0  0  0  0  0  0  0  0  0  0  0  0
  126.7608  129.1865   65.1114 H   0  0  0  0  0  0  0  0  0  0  0  0
  128.4384  129.7527   64.7594 H   0  0  0  0  0  0  0  0  0  0  0  0
  127.8229  130.0879   62.3614 H   0  0  0  0  0  0  0  0  0  0  0  0
  126.9260  126.7423   61.7271 H   0  0  0  0  0  0  0  0  0  0  0  0
  126.4951  125.7350   59.4955 H   0  0  0  0  0  0  0  0  0  0  0  0
  126.1158  127.2025   57.5158 H   0  0  0  0  0  0  0  0  0  0  0  0
  126.1972  129.6762   57.7686 H   0  0  0  0  0  0  0  0  0  0  0  0
  126.3968  132.8341   64.7689 H   0  0  0  0  0  0  0  0  0  0  0  0
  127.4933  131.4070   64.8848 H   0  0  0  0  0  0  0  0  0  0  0  0
  128.5311  132.9808   63.3727 H   0  0  0  0  0  0  0  0  0  0  0  0
  127.8575  131.6179   62.3786 H   0  0  0  0  0  0  0  0  0  0  0  0
  128.5865  134.4476   61.3794 H   0  0  0  0  0  0  0  0  0  0  0  0
  127.2774  136.0582   59.9943 H   0  0  0  0  0  0  0  0  0  0  0  0
  124.7875  135.9776   60.0206 H   0  0  0  0  0  0  0  0  0  0  0  0
  123.5954  134.2968   61.4216 H   0  0  0  0  0  0  0  0  0  0  0  0
  124.9013  132.6821   62.8040 H   0  0  0  0  0  0  0  0  0  0  0  0
  128.9822  127.5455   61.9649 H   0  0  0  0  0  0  0  0  0  0  0  0
  129.6747  128.8349   63.0186 H   0  0  0  0  0  0  0  0  0  0  0  0
  128.9017  126.0077   63.9470 H   0  0  0  0  0  0  0  0  0  0  0  0
  130.5779  126.5777   63.5998 H   0  0  0  0  0  0  0  0  0  0  0  0
  1  2  1  0
  2  3  2  0
  3  4  1  0
  4  5  2  0
  5  6  1  0
  6  7  2  0
  7  8  1  0
  8  9  1  0
  9 10  2  0
 10 11  1  0
 11 12  2  0
 12 13  1  0
 13 14  1  0
 14 15  1  0
 15 16  1  0
 16 17  2  0
 17 18  1  0
 18 19  2  0
 19 20  1  0
 20 21  2  0
  8 22  1  0
 22 23  1  0
 23 24  1  0
 24 25  1  0
 25 26  1  0
 26 27  1  0
 27 28  2  0
 28 29  1  0
 29 30  2  0
 30 31  1  0
 31 32  2  0
 32 33  1  0
 26 34  1  0
 34 35  2  0
 35 36  1  0
 36 37  2  0
 37 38  1  0
 38 39  1  0
 39 40  1  0
 40 41  1  0
 41 42  2  0
 42 43  1  0
 43 44  2  0
 44 45  1  0
 45 46  2  0
 25 47  1  0
 47 48  1  0
  7  2  1  0
 13  9  1  0
 21 16  1  0
 48 22  1  0
 32 27  1  0
 38 34  1  0
 46 41  1  0
  3 49  1  0
  4 50  1  0
  5 51  1  0
  6 52  1  0
  8 53  1  1
 14 54  1  0
 14 55  1  0
 15 56  1  0
 15 57  1  0
 17 58  1  0
 18 59  1  0
 19 60  1  0
 20 61  1  0
 21 62  1  0
 23 63  1  0
 23 64  1  0
 24 65  1  0
 24 66  1  0
 26 67  1  6
 28 68  1  0
 29 69  1  0
 30 70  1  0
 31 71  1  0
 39 72  1  0
 39 73  1  0
 40 74  1  0
 40 75  1  0
 42 76  1  0
 43 77  1  0
 44 78  1  0
 45 79  1  0
 46 80  1  0
 47 81  1  0
 47 82  1  0
 48 83  1  0
 48 84  1  0
M  END
>  <Binding energies>  (1) 
[-11.61]

>  <Ligand effiencies>  (1) 
[-0.24187499999999998]

>  <Interactions>  (1) 
["V-A:LEU:475:CD1:4254, V-B:GLU:543:CD:9877, V-A:ARG:545:CZ:4923, V-A:ILE:369:CB:3232, V-A:ARG:545:CG:4919, V-A:ILE:369:CG1:3234, V-A:ILE:369:CG2:3233, V-B:TYR:539:CE2:9845, V-A:HIS:456:CE1:4066, V-A:GLU:543:CD:4905, V-A:TYR:484:CZ:4343, V-B:GLU:543:CA:9873, V-B:GLU:543:C:9871, V-B:GLU:543:CB:9875, V-B:HIS:456:CE1:9038, V-A:TYR:484:CE1:4341, V-B:GLY:544:C:9881, V-B:HIS:456:CD2:9036, V-A:GLU:543:CB:4903, V-B:GLU:543:CG:9876, V-B:ILE:369:CG2:8205, V-B:TRP:381:CH2:8340, V-A:ALA:541:CB:4889, H-B:TYR:484:OH:9316, V-A:TYR:539:CD2:4871, V-B:LEU:475:CD2:9227, V-B:ASP:366:CG:8181, V-A:ASP:366:CG:3209, H-B:ARG:545:NH2:9897, H-A:TYR:484:OH:4344, V-A:GLU:543:C:4899, V-A:GLU:543:CA:4901, H-B:GLY:454:N:9018, V-A:GLY:453:C:4038, V-B:TRP:381:CZ2:8338, V-A:GLY:453:CA:4040, V-A:GLY:544:C:4909, V-A:ARG:545:CA:4916, H-B:ARG:545:NH1:9896"]

$$$$
RR14_Rahimova_2017
     RDKit          3D

 76 80  0  0  0  0  0  0  0  0999 V2000
  128.4040  128.2410   74.1900 C   0  0  0  0  0  0  0  0  0  0  0  0
  129.3660  127.7150   73.2830 O   0  0  0  0  0  0  0  0  0  0  0  0
  128.9670  127.3640   72.0080 C   0  0  0  0  0  0  0  0  0  0  0  0
  129.7570  127.8320   70.9570 C   0  0  0  0  0  0  0  0  0  0  0  0
  129.4200  127.5490   69.6370 C   0  0  0  0  0  0  0  0  0  0  0  0
  128.2780  126.7960   69.3540 C   0  0  0  0  0  0  0  0  0  0  0  0
  127.8700  126.5400   67.9080 C   0  0  0  0  0  0  0  0  0  0  0  0
  128.9910  126.1650   67.0480 N   0  0  0  0  0  0  0  0  0  0  0  0
  129.7000  125.0600   67.3040 N   0  0  0  0  0  0  0  0  0  0  0  0
  130.6770  125.0350   66.3280 N   0  0  0  0  0  0  0  0  0  0  0  0
  130.5470  126.1400   65.4930 N   0  0  0  0  0  0  0  0  0  0  0  0
  129.5210  126.8160   65.9540 C   0  0  0  0  0  0  0  0  0  0  0  0
  129.0030  128.1260   65.3770 C   0  0  0  0  0  0  0  0  0  0  0  0
  128.0360  127.9180   64.2870 N   0  0  0  0  0  0  0  0  0  0  0  0
  127.0960  129.0400   64.1640 C   0  0  0  0  0  0  0  0  0  0  0  0
  126.4430  129.4410   65.5050 C   0  0  0  0  0  0  0  0  0  0  0  0
  124.9120  129.6130   65.4210 C   0  0  0  0  0  0  0  0  0  0  0  0
  124.4970  130.6790   64.5020 N   0  0  0  0  0  0  0  0  0  0  0  0
  124.1210  130.1120   63.2010 C   0  0  0  0  0  0  0  0  0  0  0  0
  123.7280  131.2130   62.1920 C   0  0  0  0  0  0  0  0  0  0  0  0
  124.7750  132.1720   62.0820 O   0  0  0  0  0  0  0  0  0  0  0  0
  125.0610  132.8030   63.3250 C   0  0  0  0  0  0  0  0  0  0  0  0
  125.4960  131.7500   64.3670 C   0  0  0  0  0  0  0  0  0  0  0  0
  128.7450  127.6990   63.0170 C   0  0  0  0  0  0  0  0  0  0  0  0
  128.0270  126.8250   61.9910 C   0  0  0  0  0  0  0  0  0  0  0  0
  128.4360  125.5570   61.7430 C   0  0  0  0  0  0  0  0  0  0  0  0
  127.7850  124.7050   60.7270 C   0  0  0  0  0  0  0  0  0  0  0  0
  128.1700  123.3800   60.4590 C   0  0  0  0  0  0  0  0  0  0  0  0
  129.3120  122.7130   61.2140 C   0  0  0  0  0  0  0  0  0  0  0  0
  127.4860  122.6590   59.4780 C   0  0  0  0  0  0  0  0  0  0  0  0
  126.4340  123.2390   58.7710 C   0  0  0  0  0  0  0  0  0  0  0  0
  126.0420  124.5560   59.0320 C   0  0  0  0  0  0  0  0  0  0  0  0
  124.8870  125.1610   58.2450 C   0  0  0  0  0  0  0  0  0  0  0  0
  126.7220  125.2900   60.0160 C   0  0  0  0  0  0  0  0  0  0  0  0
  126.3640  126.6220   60.3110 N   0  0  0  0  0  0  0  0  0  0  0  0
  126.9320  127.4390   61.2330 C   0  0  0  0  0  0  0  0  0  0  0  0
  126.5270  128.5930   61.3770 O   0  0  0  0  0  0  0  0  0  0  0  0
  127.4980  126.2980   70.3990 C   0  0  0  0  0  0  0  0  0  0  0  0
  127.8360  126.5820   71.7190 C   0  0  0  0  0  0  0  0  0  0  0  0
  128.7361  128.0594   75.2228 H   0  0  0  0  0  0  0  0  0  0  0  0
  128.2970  129.3231   74.0242 H   0  0  0  0  0  0  0  0  0  0  0  0
  127.4352  127.7471   74.0242 H   0  0  0  0  0  0  0  0  0  0  0  0
  130.6543  128.4301   71.1741 H   0  0  0  0  0  0  0  0  0  0  0  0
  130.0528  127.9182   68.8164 H   0  0  0  0  0  0  0  0  0  0  0  0
  127.1308  125.7255   67.8929 H   0  0  0  0  0  0  0  0  0  0  0  0
  127.4584  127.4811   67.5144 H   0  0  0  0  0  0  0  0  0  0  0  0
  128.5124  128.6957   66.1800 H   0  0  0  0  0  0  0  0  0  0  0  0
  129.8630  128.6717   64.9615 H   0  0  0  0  0  0  0  0  0  0  0  0
  127.6405  129.9095   63.7672 H   0  0  0  0  0  0  0  0  0  0  0  0
  126.2875  128.7150   63.4927 H   0  0  0  0  0  0  0  0  0  0  0  0
  126.6647  128.6597   66.2469 H   0  0  0  0  0  0  0  0  0  0  0  0
  126.8618  130.4181   65.7876 H   0  0  0  0  0  0  0  0  0  0  0  0
  124.4726  128.6650   65.0772 H   0  0  0  0  0  0  0  0  0  0  0  0
  124.5602  129.8932   66.4249 H   0  0  0  0  0  0  0  0  0  0  0  0
  124.9744  129.5469   62.7980 H   0  0  0  0  0  0  0  0  0  0  0  0
  123.2505  129.4564   63.3506 H   0  0  0  0  0  0  0  0  0  0  0  0
  123.5476  130.7567   61.2075 H   0  0  0  0  0  0  0  0  0  0  0  0
  122.8151  131.7153   62.5445 H   0  0  0  0  0  0  0  0  0  0  0  0
  125.8722  133.5325   63.1845 H   0  0  0  0  0  0  0  0  0  0  0  0
  124.1563  133.3141   63.6858 H   0  0  0  0  0  0  0  0  0  0  0  0
  126.4526  131.3085   64.0508 H   0  0  0  0  0  0  0  0  0  0  0  0
  125.5982  132.2508   65.3411 H   0  0  0  0  0  0  0  0  0  0  0  0
  128.9218  128.6822   62.5565 H   0  0  0  0  0  0  0  0  0  0  0  0
  129.6631  127.1533   63.2804 H   0  0  0  0  0  0  0  0  0  0  0  0
  129.2807  125.1488   62.3173 H   0  0  0  0  0  0  0  0  0  0  0  0
  129.1430  122.8117   62.2964 H   0  0  0  0  0  0  0  0  0  0  0  0
  129.3560  121.6472   60.9455 H   0  0  0  0  0  0  0  0  0  0  0  0
  130.2619  123.1983   60.9455 H   0  0  0  0  0  0  0  0  0  0  0  0
  127.7807  121.6217   59.2607 H   0  0  0  0  0  0  0  0  0  0  0  0
  125.9075  122.6559   58.0011 H   0  0  0  0  0  0  0  0  0  0  0  0
  124.1342  125.5553   58.9434 H   0  0  0  0  0  0  0  0  0  0  0  0
  125.2630  125.9779   57.6116 H   0  0  0  0  0  0  0  0  0  0  0  0
  124.4295  124.3867   57.6116 H   0  0  0  0  0  0  0  0  0  0  0  0
  125.6080  127.0390   59.7910 H   0  0  0  0  0  0  0  0  0  0  0  0
  126.6149  125.6802   70.1790 H   0  0  0  0  0  0  0  0  0  0  0  0
  127.2151  126.1926   72.5393 H   0  0  0  0  0  0  0  0  0  0  0  0
  1  2  1  0
  2  3  1  0
  3  4  2  0
  4  5  1  0
  5  6  2  0
  6  7  1  0
  7  8  1  0
  8  9  1  0
  9 10  2  0
 10 11  1  0
 11 12  2  0
 12 13  1  0
 13 14  1  0
 14 15  1  0
 15 16  1  0
 16 17  1  0
 17 18  1  0
 18 19  1  0
 19 20  1  0
 20 21  1  0
 21 22  1  0
 22 23  1  0
 14 24  1  0
 24 25  1  0
 25 26  2  0
 26 27  1  0
 27 28  2  0
 28 29  1  0
 28 30  1  0
 30 31  2  0
 31 32  1  0
 32 33  1  0
 32 34  2  0
 34 35  1  0
 35 36  1  0
 36 37  2  0
  6 38  1  0
 38 39  2  0
 39  3  1  0
 12  8  1  0
 23 18  1  0
 36 25  1  0
 34 27  1  0
  1 40  1  0
  1 41  1  0
  1 42  1  0
  4 43  1  0
  5 44  1  0
  7 45  1  0
  7 46  1  0
 13 47  1  0
 13 48  1  0
 15 49  1  0
 15 50  1  0
 16 51  1  0
 16 52  1  0
 17 53  1  0
 17 54  1  0
 19 55  1  0
 19 56  1  0
 20 57  1  0
 20 58  1  0
 22 59  1  0
 22 60  1  0
 23 61  1  0
 23 62  1  0
 24 63  1  0
 24 64  1  0
 26 65  1  0
 29 66  1  0
 29 67  1  0
 29 68  1  0
 30 69  1  0
 31 70  1  0
 33 71  1  0
 33 72  1  0
 33 73  1  0
 35 74  1  0
 38 75  1  0
 39 76  1  0
M  END
>  <Binding energies>  (1) 
[-9.7]

>  <Ligand effiencies>  (1) 
[-0.2425]

>  <Interactions>  (1) 
["V-B:GLU:543:CD:9877, V-A:GLU:543:CD:4905, V-A:GLU:543:CG:4904, V-B:GLU:543:C:9871, V-B:GLU:543:CB:9875, V-B:HIS:456:CE1:9038, V-B:GLY:544:C:9881, V-B:HIS:456:CD2:9036, V-A:GLU:543:CB:4903, V-B:GLU:543:CG:9876, V-B:ILE:369:CD1:8207, V-B:ARG:545:CZ:9895, V-B:GLY:454:CA:9017, H-B:TYR:484:OH:9316, V-B:LEU:475:CD2:9227, V-B:ALA:541:CB:9861, V-B:ASP:366:CG:8181, H-B:ASP:366:OD1:8182, H-A:TYR:484:OH:4344, V-B:LYS:547:CE:9919, V-A:LYS:547:CE:4947, H-A:LYS:547:NZ:4948, H-B:GLY:454:N:9018, V-B:PRO:540:N:9853, V-B:PRO:540:CB:9854, V-B:PRO:540:CA:9852, V-B:TYR:484:CZ:9315, V-B:GLY:544:CA:9883"]

$$$$
RR15_Rahimova_2017
     RDKit          3D

 85 89  0  0  0  0  0  0  0  0999 V2000
  127.8920  127.8770   74.6960 C   0  0  0  0  0  0  0  0  0  0  0  0
  129.0150  127.3220   74.0200 O   0  0  0  0  0  0  0  0  0  0  0  0
  128.9830  127.1850   72.6430 C   0  0  0  0  0  0  0  0  0  0  0  0
  128.4170  126.0820   71.9840 C   0  0  0  0  0  0  0  0  0  0  0  0
  128.4200  126.0060   70.5930 C   0  0  0  0  0  0  0  0  0  0  0  0
  128.9870  127.0250   69.8210 C   0  0  0  0  0  0  0  0  0  0  0  0
  128.9960  126.9400   68.3200 C   0  0  0  0  0  0  0  0  0  0  0  0
  127.8870  126.8940   67.5940 N   0  0  0  0  0  0  0  0  0  0  0  0
  128.2940  126.8110   66.2790 N   0  0  0  0  0  0  0  0  0  0  0  0
  129.6250  126.8580   66.3580 N   0  0  0  0  0  0  0  0  0  0  0  0
  130.4790  126.6350   65.1930 C   0  0  0  0  0  0  0  0  0  0  0  0
  129.7930  125.8960   64.0170 C   0  0  0  0  0  0  0  0  0  0  0  0
  129.3910  124.7460   64.2070 O   0  0  0  0  0  0  0  0  0  0  0  0
  129.6220  126.5380   62.8200 N   0  0  0  0  0  0  0  0  0  0  0  0
  128.2970  127.0280   62.3940 C   0  0  0  0  0  0  0  0  0  0  0  0
  128.0490  128.5140   62.7340 C   0  0  0  0  0  0  0  0  0  0  0  0
  127.6480  128.7850   64.2030 C   0  0  0  0  0  0  0  0  0  0  0  0
  126.4420  129.6070   64.3440 N   0  0  0  0  0  0  0  0  0  0  0  0
  125.7020  129.7850   63.0860 C   0  0  0  0  0  0  0  0  0  0  0  0
  124.3990  130.5840   63.3050 C   0  0  0  0  0  0  0  0  0  0  0  0
  123.6070  129.9650   64.3140 O   0  0  0  0  0  0  0  0  0  0  0  0
  124.2850  129.8860   65.5630 C   0  0  0  0  0  0  0  0  0  0  0  0
  125.5840  129.0650   65.4060 C   0  0  0  0  0  0  0  0  0  0  0  0
  130.7590  126.9670   61.9490 C   0  0  2  0  0  0  0  0  0  0  0  0
  130.3270  127.8110   60.7090 C   0  0  0  0  0  0  0  0  0  0  0  0
  129.8260  127.2760   59.7200 O   0  0  0  0  0  0  0  0  0  0  0  0
  130.5030  129.1390   60.8200 N   0  0  0  0  0  0  0  0  0  0  0  0
  130.0810  130.1310   59.8370 C   0  0  0  0  0  0  0  0  0  0  0  0
  131.0210  131.3510   59.8400 C   0  0  2  0  0  0  0  0  0  0  0  0
  132.3940  131.1280   59.1830 C   0  0  0  0  0  0  0  0  0  0  0  0
  133.3410  130.9310   60.3420 C   0  0  0  0  0  0  0  0  0  0  0  0
  132.7250  131.8430   61.3900 C   0  0  0  0  0  0  0  0  0  0  0  0
  131.3310  131.6130   61.2150 O   0  0  0  0  0  0  0  0  0  0  0  0
  131.7190  125.8080   61.7080 C   0  0  0  0  0  0  0  0  0  0  0  0
  131.6250  125.1130   60.4960 C   0  0  0  0  0  0  0  0  0  0  0  0
  132.4750  124.0460   60.2230 C   0  0  0  0  0  0  0  0  0  0  0  0
  133.4310  123.6660   61.1610 C   0  0  0  0  0  0  0  0  0  0  0  0
  134.2580  122.6300   60.8950 F   0  0  0  0  0  0  0  0  0  0  0  0
  133.5410  124.3460   62.3710 C   0  0  0  0  0  0  0  0  0  0  0  0
  132.6890  125.4120   62.6440 C   0  0  0  0  0  0  0  0  0  0  0  0
  130.1060  126.8970   67.6070 N   0  0  0  0  0  0  0  0  0  0  0  0
  129.5490  128.1260   70.4820 C   0  0  0  0  0  0  0  0  0  0  0  0
  129.5510  128.2190   71.8840 C   0  0  0  0  0  0  0  0  0  0  0  0
  130.0900  129.2870   72.5810 O   0  0  0  0  0  0  0  0  0  0  0  0
  129.3860  130.5230   72.6280 C   0  0  0  0  0  0  0  0  0  0  0  0
  128.0443  127.8017   75.7828 H   0  0  0  0  0  0  0  0  0  0  0  0
  127.7799  128.9343   74.4138 H   0  0  0  0  0  0  0  0  0  0  0  0
  126.9840  127.3239   74.4138 H   0  0  0  0  0  0  0  0  0  0  0  0
  127.9664  125.2691   72.5724 H   0  0  0  0  0  0  0  0  0  0  0  0
  127.9708  125.1337   70.0957 H   0  0  0  0  0  0  0  0  0  0  0  0
  130.8226  127.6142   64.8281 H   0  0  0  0  0  0  0  0  0  0  0  0
  131.2999  125.9853   65.5305 H   0  0  0  0  0  0  0  0  0  0  0  0
  128.2133  126.9018   61.3045 H   0  0  0  0  0  0  0  0  0  0  0  0
  127.5447  126.4417   62.9419 H   0  0  0  0  0  0  0  0  0  0  0  0
  128.9731  129.0722   62.5230 H   0  0  0  0  0  0  0  0  0  0  0  0
  127.1974  128.8351   62.1162 H   0  0  0  0  0  0  0  0  0  0  0  0
  127.4694  127.8190   64.6978 H   0  0  0  0  0  0  0  0  0  0  0  0
  128.4746  129.3464   64.6630 H   0  0  0  0  0  0  0  0  0  0  0  0
  126.3379  130.3271   62.3707 H   0  0  0  0  0  0  0  0  0  0  0  0
  125.4364  128.7906   62.6978 H   0  0  0  0  0  0  0  0  0  0  0  0
  124.6491  131.6088   63.6169 H   0  0  0  0  0  0  0  0  0  0  0  0
  123.8291  130.6066   62.3644 H   0  0  0  0  0  0  0  0  0  0  0  0
  124.5343  130.9005   65.9073 H   0  0  0  0  0  0  0  0  0  0  0  0
  123.6322  129.3932   66.2985 H   0  0  0  0  0  0  0  0  0  0  0  0
  126.1366  129.0862   66.3569 H   0  0  0  0  0  0  0  0  0  0  0  0
  125.3091  128.0353   65.1338 H   0  0  0  0  0  0  0  0  0  0  0  0
  131.3580  127.7121   62.4931 H   0  0  0  0  0  0  0  0  0  0  0  0
  130.8950  129.5030   61.6760 H   0  0  0  0  0  0  0  0  0  0  0  0
  130.0910  129.6725   58.8372 H   0  0  0  0  0  0  0  0  0  0  0  0
  129.0676  130.4707   60.0971 H   0  0  0  0  0  0  0  0  0  0  0  0
  130.4979  132.1427   59.2837 H   0  0  0  0  0  0  0  0  0  0  0  0
  132.3766  130.2361   58.5394 H   0  0  0  0  0  0  0  0  0  0  0  0
  132.6908  131.9690   58.5391 H   0  0  0  0  0  0  0  0  0  0  0  0
  133.3540  129.8835   60.6776 H   0  0  0  0  0  0  0  0  0  0  0  0
  134.3915  131.1591   60.1085 H   0  0  0  0  0  0  0  0  0  0  0  0
  133.0505  131.5623   62.4025 H   0  0  0  0  0  0  0  0  0  0  0  0
  133.0135  132.8986   61.2779 H   0  0  0  0  0  0  0  0  0  0  0  0
  130.8719  125.4135   59.7527 H   0  0  0  0  0  0  0  0  0  0  0  0
  132.3920  123.5044   59.2692 H   0  0  0  0  0  0  0  0  0  0  0  0
  134.2985  124.0418   63.1084 H   0  0  0  0  0  0  0  0  0  0  0  0
  132.7757  125.9488   63.6002 H   0  0  0  0  0  0  0  0  0  0  0  0
  129.9989  128.9361   69.8893 H   0  0  0  0  0  0  0  0  0  0  0  0
  129.2216  130.8117   73.6766 H   0  0  0  0  0  0  0  0  0  0  0  0
  129.9766  131.3008   72.1218 H   0  0  0  0  0  0  0  0  0  0  0  0
  128.4157  130.4118   72.1218 H   0  0  0  0  0  0  0  0  0  0  0  0
  1  2  1  0
  2  3  1  0
  3  4  2  0
  4  5  1  0
  5  6  2  0
  6  7  1  0
  7  8  1  0
  8  9  2  0
  9 10  1  0
 10 11  1  0
 11 12  1  0
 12 13  2  0
 12 14  1  0
 14 15  1  0
 15 16  1  0
 16 17  1  0
 17 18  1  0
 18 19  1  0
 19 20  1  0
 20 21  1  0
 21 22  1  0
 22 23  1  0
 14 24  1  0
 24 25  1  0
 25 26  2  0
 25 27  1  0
 27 28  1  0
 28 29  1  0
 29 30  1  0
 30 31  1  0
 31 32  1  0
 32 33  1  0
 24 34  1  0
 34 35  2  0
 35 36  1  0
 36 37  2  0
 37 38  1  0
 37 39  1  0
 39 40  2  0
 10 41  1  0
  6 42  1  0
 42 43  2  0
 43 44  1  0
 44 45  1  0
 43  3  1  0
 41  7  2  0
 23 18  1  0
 33 29  1  0
 40 34  1  0
  1 46  1  0
  1 47  1  0
  1 48  1  0
  4 49  1  0
  5 50  1  0
 11 51  1  0
 11 52  1  0
 15 53  1  0
 15 54  1  0
 16 55  1  0
 16 56  1  0
 17 57  1  0
 17 58  1  0
 19 59  1  0
 19 60  1  0
 20 61  1  0
 20 62  1  0
 22 63  1  0
 22 64  1  0
 23 65  1  0
 23 66  1  0
 24 67  1  1
 27 68  1  0
 28 69  1  0
 28 70  1  0
 29 71  1  6
 30 72  1  0
 30 73  1  0
 31 74  1  0
 31 75  1  0
 32 76  1  0
 32 77  1  0
 35 78  1  0
 36 79  1  0
 39 80  1  0
 40 81  1  0
 42 82  1  0
 45 83  1  0
 45 84  1  0
 45 85  1  0
M  END
>  <Binding energies>  (1) 
[-10.27]

>  <Ligand effiencies>  (1) 
[-0.22326086956521737]

>  <Interactions>  (1) 
["V-B:GLU:543:CD:9877, H-A:GLU:543:OE1:4906, V-A:ARG:545:CZ:4923, V-A:ILE:369:CB:3232, H-A:GLU:543:OE2:4907, V-A:ILE:369:CG1:3234, V-A:ILE:369:CG2:3233, V-B:TYR:539:CE2:9845, H-A:ASP:366:OD1:3210, V-A:GLU:543:CD:4905, V-B:GLU:543:C:9871, V-B:HIS:456:CE1:9038, V-B:HIS:456:CD2:9036, V-B:ARG:545:CZ:9895, V-B:ARG:545:CD:9892, V-B:ASP:366:CG:8181, V-A:ASP:366:CG:3209, V-A:PRO:540:CA:4880, V-A:PRO:540:CB:4882, H-A:ALA:541:N:4888, H-B:ARG:545:NH2:9897, V-A:ASN:362:CB:3172, V-A:LEU:363:CA:3181, V-A:ASN:362:C:3168, V-B:LYS:547:CE:9919, V-A:LYS:547:CE:4947, H-A:LYS:547:NZ:4948, H-B:GLY:454:N:9018, V-A:GLY:544:CA:4911, H-B:ARG:545:NH1:9896, H-B:ARG:545:NE:9893, V-A:PRO:540:C:4878"]

$$$$
RR16_Rahimova_2017
     RDKit          3D

 80 85  0  0  0  0  0  0  0  0999 V2000
  125.4320  130.1800   62.3050 O   0  0  0  0  0  0  0  0  0  0  0  0
  125.3730  130.3220   63.7640 S   0  0  0  0  0  0  0  0  0  0  0  0
  124.1570  129.9660   64.5060 O   0  0  0  0  0  0  0  0  0  0  0  0
  125.7820  131.9940   64.1530 N   0  0  0  0  0  0  0  0  0  0  0  0
  125.7940  133.0390   63.1020 C   0  0  0  0  0  0  0  0  0  0  0  0
  127.1220  132.9460   62.3070 C   0  0  0  0  0  0  0  0  0  0  0  0
  127.1780  133.6520   60.9380 C   0  0  0  0  0  0  0  0  0  0  0  0
  126.4060  134.9820   60.8910 C   0  0  0  0  0  0  0  0  0  0  0  0
  124.9010  134.8690   60.5710 C   0  0  0  0  0  0  0  0  0  0  0  0
  123.9980  134.2240   61.6410 C   0  0  0  0  0  0  0  0  0  0  0  0
  124.5000  132.9070   62.2650 C   0  0  0  0  0  0  0  0  0  0  0  0
  126.7270  129.3650   64.4340 C   0  0  0  0  0  0  0  0  0  0  0  0
  127.5780  128.6560   63.5830 C   0  0  0  0  0  0  0  0  0  0  0  0
  128.5510  127.8190   64.1220 C   0  0  0  0  0  0  0  0  0  0  0  0
  128.6690  127.6940   65.5080 C   0  0  0  0  0  0  0  0  0  0  0  0
  129.8220  126.5130   66.2020 S   0  0  0  0  0  0  0  0  0  0  0  0
  131.1760  126.9600   65.8460 O   0  0  0  0  0  0  0  0  0  0  0  0
  129.3610  125.1720   65.8210 O   0  0  0  0  0  0  0  0  0  0  0  0
  129.6210  126.6890   67.9560 N   0  0  0  0  0  0  0  0  0  0  0  0
  130.2490  127.9080   68.5280 C   0  0  0  0  0  0  0  0  0  0  0  0
  130.2970  127.8190   70.0670 C   0  0  0  0  0  0  0  0  0  0  0  0
  128.9020  127.5180   70.6690 C   0  0  0  0  0  0  0  0  0  0  0  0
  128.9360  127.3790   72.1930 C   0  0  0  0  0  0  0  0  0  0  0  0
  129.6550  126.3290   72.7800 C   0  0  0  0  0  0  0  0  0  0  0  0
  129.7200  126.1690   74.1650 C   0  0  0  0  0  0  0  0  0  0  0  0
  130.4310  125.1370   74.7220 O   0  0  0  0  0  0  0  0  0  0  0  0
  129.0430  127.0970   74.9710 C   0  0  0  0  0  0  0  0  0  0  0  0
  128.9450  127.2020   76.3290 N   0  0  0  0  0  0  0  0  0  0  0  0
  128.1830  128.3160   76.6040 N   0  0  0  0  0  0  0  0  0  0  0  0
  127.7840  128.8580   75.4370 N   0  0  0  0  0  0  0  0  0  0  0  0
  127.0300  130.1050   75.4280 C   0  0  0  0  0  0  0  0  0  0  0  0
  127.6460  131.1570   74.5170 C   0  0  0  0  0  0  0  0  0  0  0  0
  126.8410  131.8640   73.6160 C   0  0  0  0  0  0  0  0  0  0  0  0
  127.3990  132.8440   72.7950 C   0  0  0  0  0  0  0  0  0  0  0  0
  128.7640  133.1250   72.8710 C   0  0  0  0  0  0  0  0  0  0  0  0
  129.5710  132.4260   73.7680 C   0  0  0  0  0  0  0  0  0  0  0  0
  131.2570  132.7770   73.8720 Cl  0  0  0  0  0  0  0  0  0  0  0  0
  129.0140  131.4410   74.5870 C   0  0  0  0  0  0  0  0  0  0  0  0
  128.3130  128.1500   74.3710 C   0  0  0  0  0  0  0  0  0  0  0  0
  128.2440  128.3090   72.9830 C   0  0  0  0  0  0  0  0  0  0  0  0
  128.2070  126.3190   69.9720 C   0  0  0  0  0  0  0  0  0  0  0  0
  128.2350  126.4500   68.4360 C   0  0  0  0  0  0  0  0  0  0  0  0
  127.8440  128.4360   66.3570 C   0  0  0  0  0  0  0  0  0  0  0  0
  126.8700  129.2700   65.8190 C   0  0  0  0  0  0  0  0  0  0  0  0
  125.5940  132.3090   65.1080 H   0  0  0  0  0  0  0  0  0  0  0  0
  125.7799  134.0583   63.5152 H   0  0  0  0  0  0  0  0  0  0  0  0
  127.9140  133.3799   62.9350 H   0  0  0  0  0  0  0  0  0  0  0  0
  127.2393  131.8765   62.0779 H   0  0  0  0  0  0  0  0  0  0  0  0
  128.2317  133.8543   60.6954 H   0  0  0  0  0  0  0  0  0  0  0  0
  126.6993  132.9789   60.2115 H   0  0  0  0  0  0  0  0  0  0  0  0
  126.5076  135.4670   61.8731 H   0  0  0  0  0  0  0  0  0  0  0  0
  126.8471  135.5565   60.0631 H   0  0  0  0  0  0  0  0  0  0  0  0
  124.5242  135.8865   60.3901 H   0  0  0  0  0  0  0  0  0  0  0  0
  124.8457  134.1897   59.7075 H   0  0  0  0  0  0  0  0  0  0  0  0
  123.8728  134.9527   62.4554 H   0  0  0  0  0  0  0  0  0  0  0  0
  123.0685  133.9601   61.1153 H   0  0  0  0  0  0  0  0  0  0  0  0
  123.7077  132.5142   62.9191 H   0  0  0  0  0  0  0  0  0  0  0  0
  124.7404  132.2379   61.4256 H   0  0  0  0  0  0  0  0  0  0  0  0
  127.4798  128.7586   62.4922 H   0  0  0  0  0  0  0  0  0  0  0  0
  129.2250  127.2577   63.4582 H   0  0  0  0  0  0  0  0  0  0  0  0
  131.2733  128.0042   68.1388 H   0  0  0  0  0  0  0  0  0  0  0  0
  129.6504  128.7850   68.2407 H   0  0  0  0  0  0  0  0  0  0  0  0
  130.9905  127.0155   70.3558 H   0  0  0  0  0  0  0  0  0  0  0  0
  130.6348  128.7911   70.4556 H   0  0  0  0  0  0  0  0  0  0  0  0
  128.2770  128.3991   70.4615 H   0  0  0  0  0  0  0  0  0  0  0  0
  130.1817  125.6125   72.1325 H   0  0  0  0  0  0  0  0  0  0  0  0
  130.4740  125.1800   75.6800 H   0  0  0  0  0  0  0  0  0  0  0  0
  126.0071  129.8953   75.0821 H   0  0  0  0  0  0  0  0  0  0  0  0
  127.0388  130.5061   76.4522 H   0  0  0  0  0  0  0  0  0  0  0  0
  125.7645  131.6460   73.5552 H   0  0  0  0  0  0  0  0  0  0  0  0
  126.7628  133.3957   72.0872 H   0  0  0  0  0  0  0  0  0  0  0  0
  129.2033  133.8980   72.2232 H   0  0  0  0  0  0  0  0  0  0  0  0
  129.6535  130.8866   75.2896 H   0  0  0  0  0  0  0  0  0  0  0  0
  127.6701  129.1304   72.5291 H   0  0  0  0  0  0  0  0  0  0  0  0
  128.7250  125.3921   70.2591 H   0  0  0  0  0  0  0  0  0  0  0  0
  127.1550  126.3019   70.2930 H   0  0  0  0  0  0  0  0  0  0  0  0
  127.8521  125.5216   67.9871 H   0  0  0  0  0  0  0  0  0  0  0  0
  127.6060  127.3030   68.1416 H   0  0  0  0  0  0  0  0  0  0  0  0
  127.9646  128.3607   67.4478 H   0  0  0  0  0  0  0  0  0  0  0  0
  126.2145  129.8528   66.4828 H   0  0  0  0  0  0  0  0  0  0  0  0
  1  2  2  0
  2  3  2  0
  2  4  1  0
  4  5  1  0
  5  6  1  0
  6  7  1  0
  7  8  1  0
  8  9  1  0
  9 10  1  0
 10 11  1  0
  2 12  1  0
 12 13  2  0
 13 14  1  0
 14 15  2  0
 15 16  1  0
 16 17  2  0
 16 18  2  0
 16 19  1  0
 19 20  1  0
 20 21  1  0
 21 22  1  0
 22 23  1  0
 23 24  2  0
 24 25  1  0
 25 26  1  0
 25 27  2  0
 27 28  1  0
 28 29  2  0
 29 30  1  0
 30 31  1  0
 31 32  1  0
 32 33  2  0
 33 34  1  0
 34 35  2  0
 35 36  1  0
 36 37  1  0
 36 38  2  0
 30 39  1  0
 39 40  2  0
 22 41  1  0
 41 42  1  0
 15 43  1  0
 43 44  2  0
 11  5  1  0
 44 12  1  0
 42 19  1  0
 40 23  1  0
 39 27  1  0
 38 32  1  0
  4 45  1  0
  5 46  1  0
  6 47  1  0
  6 48  1  0
  7 49  1  0
  7 50  1  0
  8 51  1  0
  8 52  1  0
  9 53  1  0
  9 54  1  0
 10 55  1  0
 10 56  1  0
 11 57  1  0
 11 58  1  0
 13 59  1  0
 14 60  1  0
 20 61  1  0
 20 62  1  0
 21 63  1  0
 21 64  1  0
 22 65  1  0
 24 66  1  0
 26 67  1  0
 31 68  1  0
 31 69  1  0
 33 70  1  0
 34 71  1  0
 35 72  1  0
 38 73  1  0
 40 74  1  0
 41 75  1  0
 41 76  1  0
 42 77  1  0
 42 78  1  0
 43 79  1  0
 44 80  1  0
M  END
>  <Binding energies>  (1) 
[-9.82]

>  <Ligand effiencies>  (1) 
[-0.20458333333333334]

>  <Interactions>  (1) 
["V-B:GLU:543:CD:9877, V-A:HIS:456:CE1:4066, V-A:GLU:543:CD:4905, V-B:GLU:543:C:9871, V-B:GLU:543:CB:9875, V-B:HIS:456:CE1:9038, V-A:HIS:456:CD2:4064, V-B:HIS:456:CD2:9036, V-A:GLU:543:CB:4903, V-B:ILE:369:CD1:8207, V-B:ILE:369:CG2:8205, V-B:TRP:381:CH2:8340, V-A:ALA:541:CB:4889, V-B:GLY:454:CA:9017, H-B:TYR:484:OH:9316, V-A:TYR:539:CD2:4871, V-B:LEU:475:CD2:9227, H-B:ARG:545:NH2:9897, V-B:LYS:547:CE:9919, V-B:TYR:484:CD2:9312, V-B:TYR:484:CB:9309, V-B:ASP:473:CG:9208, V-B:ASP:473:CB:9207, V-B:TYR:484:CG:9310, V-B:HIS:456:CG:9034, V-A:LYS:547:CE:4947, V-A:GLU:543:C:4899, V-B:HIS:456:CB:9033, H-A:LYS:547:NZ:4948, H-B:LYS:547:NZ:9920, V-B:LYS:471:CE:9188, H-B:GLY:454:N:9018, V-A:GLY:544:CA:4911"]

$$$$
RR17_Rahimova_2017
     RDKit          3D

 63 66  0  0  0  0  0  0  0  0999 V2000
  127.5860  136.0520   60.9810 C   0  0  0  0  0  0  0  0  0  0  0  0
  127.1640  134.6570   60.5120 C   0  0  0  0  0  0  0  0  0  0  0  0
  127.9060  133.6840   61.2440 O   0  0  0  0  0  0  0  0  0  0  0  0
  127.2520  132.8810   62.1600 C   0  0  0  0  0  0  0  0  0  0  0  0
  126.8260  131.6350   61.7030 C   0  0  0  0  0  0  0  0  0  0  0  0
  126.1590  130.7590   62.5530 C   0  0  0  0  0  0  0  0  0  0  0  0
  125.9000  131.1140   63.8840 C   0  0  0  0  0  0  0  0  0  0  0  0
  125.1780  130.1470   64.7780 C   0  0  0  0  0  0  0  0  0  0  0  0
  123.9510  130.0150   64.7550 O   0  0  0  0  0  0  0  0  0  0  0  0
  126.0400  129.3200   65.7570 C   0  0  0  0  0  0  0  0  0  0  0  0
  127.8240  129.6810   65.5790 S   0  0  0  0  0  0  0  0  0  0  0  0
  128.4050  128.0930   65.0540 C   0  0  0  0  0  0  0  0  0  0  0  0
  128.4720  127.6820   63.8090 N   0  0  0  0  0  0  0  0  0  0  0  0
  128.9860  126.3910   63.8140 N   0  0  0  0  0  0  0  0  0  0  0  0
  129.2140  126.0720   65.0630 C   0  0  0  0  0  0  0  0  0  0  0  0
  129.7940  124.7420   65.5230 C   0  0  0  0  0  0  0  0  0  0  0  0
  131.2540  124.7000   65.5120 N   0  0  0  0  0  0  0  0  0  0  0  0
  132.0170  124.3370   64.3870 C   0  0  0  0  0  0  0  0  0  0  0  0
  131.7430  123.1040   63.7960 C   0  0  0  0  0  0  0  0  0  0  0  0
  132.4630  122.6810   62.6830 C   0  0  0  0  0  0  0  0  0  0  0  0
  133.4670  123.4910   62.1440 C   0  0  0  0  0  0  0  0  0  0  0  0
  134.2530  123.0090   60.9260 C   0  0  0  0  0  0  0  0  0  0  0  0
  134.3860  121.6810   60.9020 F   0  0  0  0  0  0  0  0  0  0  0  0
  133.6410  123.3800   59.8000 F   0  0  0  0  0  0  0  0  0  0  0  0
  135.4710  123.5510   60.9490 F   0  0  0  0  0  0  0  0  0  0  0  0
  133.7380  124.7320   62.7300 C   0  0  0  0  0  0  0  0  0  0  0  0
  133.0160  125.1540   63.8420 C   0  0  0  0  0  0  0  0  0  0  0  0
  128.8560  127.1050   65.9050 N   0  0  0  0  0  0  0  0  0  0  0  0
  128.9590  127.1500   67.3040 C   0  0  0  0  0  0  0  0  0  0  0  0
  127.9600  126.5690   68.0850 C   0  0  0  0  0  0  0  0  0  0  0  0
  128.0610  126.6170   69.4730 C   0  0  0  0  0  0  0  0  0  0  0  0
  129.1590  127.2450   70.0820 C   0  0  0  0  0  0  0  0  0  0  0  0
  129.3420  127.3400   71.4480 O   0  0  0  0  0  0  0  0  0  0  0  0
  128.9400  126.2560   72.2800 C   0  0  0  0  0  0  0  0  0  0  0  0
  130.1490  127.8220   69.2830 C   0  0  0  0  0  0  0  0  0  0  0  0
  130.0550  127.7770   67.8950 C   0  0  0  0  0  0  0  0  0  0  0  0
  126.3290  132.3680   64.3430 C   0  0  0  0  0  0  0  0  0  0  0  0
  126.9980  133.2430   63.4910 C   0  0  0  0  0  0  0  0  0  0  0  0
  127.5951  136.0820   62.0806 H   0  0  0  0  0  0  0  0  0  0  0  0
  128.5927  136.2781   60.5997 H   0  0  0  0  0  0  0  0  0  0  0  0
  126.8734  136.7982   60.5997 H   0  0  0  0  0  0  0  0  0  0  0  0
  126.0883  134.5153   60.6933 H   0  0  0  0  0  0  0  0  0  0  0  0
  127.3628  134.5477   59.4357 H   0  0  0  0  0  0  0  0  0  0  0  0
  127.0191  131.3417   60.6605 H   0  0  0  0  0  0  0  0  0  0  0  0
  125.8317  129.7784   62.1771 H   0  0  0  0  0  0  0  0  0  0  0  0
  125.7317  129.5553   66.7864 H   0  0  0  0  0  0  0  0  0  0  0  0
  125.8858  128.2554   65.5270 H   0  0  0  0  0  0  0  0  0  0  0  0
  129.4493  124.5499   66.5498 H   0  0  0  0  0  0  0  0  0  0  0  0
  129.4462  123.9779   64.8122 H   0  0  0  0  0  0  0  0  0  0  0  0
  131.7250  124.7320   66.4040 H   0  0  0  0  0  0  0  0  0  0  0  0
  130.9528  122.4619   64.2123 H   0  0  0  0  0  0  0  0  0  0  0  0
  132.2414  121.7055   62.2254 H   0  0  0  0  0  0  0  0  0  0  0  0
  134.5245  125.3764   62.3103 H   0  0  0  0  0  0  0  0  0  0  0  0
  133.2305  126.1332   64.2950 H   0  0  0  0  0  0  0  0  0  0  0  0
  127.0994  126.0769   67.6084 H   0  0  0  0  0  0  0  0  0  0  0  0
  127.2769  126.1608   70.0951 H   0  0  0  0  0  0  0  0  0  0  0  0
  129.0472  126.5449   73.3360 H   0  0  0  0  0  0  0  0  0  0  0  0
  127.8891  126.0053   72.0733 H   0  0  0  0  0  0  0  0  0  0  0  0
  129.5733  125.3807   72.0733 H   0  0  0  0  0  0  0  0  0  0  0  0
  131.0108  128.3165   69.7551 H   0  0  0  0  0  0  0  0  0  0  0  0
  130.8380  128.2318   67.2704 H   0  0  0  0  0  0  0  0  0  0  0  0
  126.1353  132.6628   65.3849 H   0  0  0  0  0  0  0  0  0  0  0  0
  127.3291  134.2235   63.8639 H   0  0  0  0  0  0  0  0  0  0  0  0
  1  2  1  0
  2  3  1  0
  3  4  1  0
  4  5  2  0
  5  6  1  0
  6  7  2  0
  7  8  1  0
  8  9  2  0
  8 10  1  0
 10 11  1  0
 11 12  1  0
 12 13  2  0
 13 14  1  0
 14 15  2  0
 15 16  1  0
 16 17  1  0
 17 18  1  0
 18 19  2  0
 19 20  1  0
 20 21  2  0
 21 22  1  0
 22 23  1  0
 22 24  1  0
 22 25  1  0
 21 26  1  0
 26 27  2  0
 15 28  1  0
 28 29  1  0
 29 30  2  0
 30 31  1  0
 31 32  2  0
 32 33  1  0
 33 34  1  0
 32 35  1  0
 35 36  2  0
  7 37  1  0
 37 38  2  0
 38  4  1  0
 28 12  1  0
 36 29  1  0
 27 18  1  0
  1 39  1  0
  1 40  1  0
  1 41  1  0
  2 42  1  0
  2 43  1  0
  5 44  1  0
  6 45  1  0
 10 46  1  0
 10 47  1  0
 16 48  1  0
 16 49  1  0
 17 50  1  0
 19 51  1  0
 20 52  1  0
 26 53  1  0
 27 54  1  0
 30 55  1  0
 31 56  1  0
 34 57  1  0
 34 58  1  0
 34 59  1  0
 35 60  1  0
 36 61  1  0
 37 62  1  0
 38 63  1  0
M  END
>  <Binding energies>  (1) 
[-8.65]

>  <Ligand effiencies>  (1) 
[-0.2217948717948718]

>  <Interactions>  (1) 
["V-A:LEU:475:CD1:4254, V-B:GLU:543:CD:9877, V-A:ARG:545:CZ:4923, V-A:ILE:369:CB:3232, V-A:ILE:369:CG1:3234, V-A:ILE:369:CG2:3233, V-A:GLY:454:CA:4045, V-B:TYR:539:CE2:9845, V-A:HIS:456:CE1:4066, V-A:GLU:543:CD:4905, V-A:TYR:484:CZ:4343, V-B:GLU:543:CB:9875, V-B:HIS:456:CE1:9038, V-A:TYR:484:CE1:4341, V-B:HIS:456:CD2:9036, V-A:GLU:543:CB:4903, V-B:GLU:543:CG:9876, V-B:TRP:381:CH2:8340, V-A:ALA:541:CB:4889, H-B:TYR:484:OH:9316, V-A:TYR:539:CD2:4871, V-B:LEU:475:CD2:9227, V-B:TYR:539:CZ:9846, V-A:ASP:366:CG:3209, V-A:ASP:366:CB:3208, H-A:TYR:484:OH:4344, V-B:LYS:547:CE:9919, H-A:HIS:456:NE2:4067, V-A:GLU:543:C:4899, H-B:GLY:454:N:9018, V-A:GLY:453:C:4038, V-A:ILE:369:CD1:3235, V-B:TYR:484:CE1:9313, V-B:TYR:484:CZ:9315, V-B:TRP:381:CZ2:8338, V-B:PRO:482:CG:9295, V-B:PRO:482:CB:9294, V-A:GLY:453:CA:4040, V-A:ASP:366:CA:3206, H-B:ARG:545:NH1:9896"]

$$$$
RR18_Rahimova_2017
     RDKit          3D

 56 61  0  0  0  0  0  0  0  0999 V2000
  131.6360  131.4800   60.6690 C   0  0  0  0  0  0  0  0  0  0  0  0
  130.8990  130.4120   59.9010 C   0  0  0  0  0  0  0  0  0  0  0  0
  131.2140  129.6110   58.8150 C   0  0  0  0  0  0  0  0  0  0  0  0
  130.0990  128.8100   58.5690 C   0  0  0  0  0  0  0  0  0  0  0  0
  129.1440  129.1500   59.5120 C   0  0  0  0  0  0  0  0  0  0  0  0
  127.7280  128.6620   59.8070 C   0  0  1  0  0  0  0  0  0  0  0  0
  126.6650  129.4740   59.0080 C   0  0  0  0  0  0  0  0  0  0  0  0
  126.4710  130.8970   59.2720 C   0  0  0  0  0  0  0  0  0  0  0  0
  127.1770  131.7580   58.7450 O   0  0  0  0  0  0  0  0  0  0  0  0
  125.4530  131.1690   60.1200 N   0  0  0  0  0  0  0  0  0  0  0  0
  124.9850  132.4040   60.6190 C   0  0  0  0  0  0  0  0  0  0  0  0
  125.2510  133.6400   60.0010 C   0  0  0  0  0  0  0  0  0  0  0  0
  124.7650  134.8260   60.5480 C   0  0  0  0  0  0  0  0  0  0  0  0
  124.0150  134.7980   61.7200 C   0  0  0  0  0  0  0  0  0  0  0  0
  123.7540  133.5830   62.3490 C   0  0  0  0  0  0  0  0  0  0  0  0
  124.2340  132.3850   61.8110 C   0  0  0  0  0  0  0  0  0  0  0  0
  123.9240  131.0810   62.5420 C   0  0  0  0  0  0  0  0  0  0  0  0
  126.0030  128.8540   57.9960 C   0  0  0  0  0  0  0  0  0  0  0  0
  126.1090  127.5300   57.6950 N   0  0  0  0  0  0  0  0  0  0  0  0
  126.8130  126.7670   58.4460 C   0  0  0  0  0  0  0  0  0  0  0  0
  126.9200  125.0310   58.2740 S   0  0  0  0  0  0  0  0  0  0  0  0
  128.0110  124.9050   59.6900 C   0  0  0  0  0  0  0  0  0  0  0  0
  128.5630  123.7580   60.2170 C   0  0  0  0  0  0  0  0  0  0  0  0
  128.2110  122.4430   59.6620 C   0  0  0  0  0  0  0  0  0  0  0  0
  127.4710  122.1520   58.7230 O   0  0  0  0  0  0  0  0  0  0  0  0
  128.8440  121.5190   60.3930 N   0  0  0  0  0  0  0  0  0  0  0  0
  129.6230  122.0580   61.3710 C   0  0  0  0  0  0  0  0  0  0  0  0
  130.4220  121.3860   62.2950 C   0  0  0  0  0  0  0  0  0  0  0  0
  131.1730  122.1300   63.2010 C   0  0  0  0  0  0  0  0  0  0  0  0
  131.1200  123.5220   63.1620 C   0  0  0  0  0  0  0  0  0  0  0  0
  130.3110  124.1720   62.2270 C   0  0  0  0  0  0  0  0  0  0  0  0
  129.5260  123.4380   61.3180 C   0  0  0  0  0  0  0  0  0  0  0  0
  128.2180  126.2530   60.2220 C   0  0  0  0  0  0  0  0  0  0  0  0
  128.8650  126.5520   61.2210 O   0  0  0  0  0  0  0  0  0  0  0  0
  127.5740  127.1980   59.4850 N   0  0  0  0  0  0  0  0  0  0  0  0
  129.6380  130.1260   60.3190 O   0  0  0  0  0  0  0  0  0  0  0  0
  131.5152  131.3049   61.7482 H   0  0  0  0  0  0  0  0  0  0  0  0
  132.7044  131.4470   60.4095 H   0  0  0  0  0  0  0  0  0  0  0  0
  131.2260  132.4672   60.4095 H   0  0  0  0  0  0  0  0  0  0  0  0
  132.1608  129.6075   58.2550 H   0  0  0  0  0  0  0  0  0  0  0  0
  129.9978  128.0530   57.7773 H   0  0  0  0  0  0  0  0  0  0  0  0
  127.5604  128.8150   60.8833 H   0  0  0  0  0  0  0  0  0  0  0  0
  124.9010  130.3770   60.4130 H   0  0  0  0  0  0  0  0  0  0  0  0
  125.8481  133.6702   59.0776 H   0  0  0  0  0  0  0  0  0  0  0  0
  124.9745  135.7856   60.0528 H   0  0  0  0  0  0  0  0  0  0  0  0
  123.6288  135.7343   62.1491 H   0  0  0  0  0  0  0  0  0  0  0  0
  123.1647  133.5658   63.2777 H   0  0  0  0  0  0  0  0  0  0  0  0
  123.9644  131.2509   63.6280 H   0  0  0  0  0  0  0  0  0  0  0  0
  122.9183  130.7340   62.2623 H   0  0  0  0  0  0  0  0  0  0  0  0
  124.6659  130.3185   62.2623 H   0  0  0  0  0  0  0  0  0  0  0  0
  125.3327  129.4661   57.3747 H   0  0  0  0  0  0  0  0  0  0  0  0
  128.7640  120.5280   60.2180 H   0  0  0  0  0  0  0  0  0  0  0  0
  130.4584  120.2867   62.3080 H   0  0  0  0  0  0  0  0  0  0  0  0
  131.8051  121.6216   63.9439 H   0  0  0  0  0  0  0  0  0  0  0  0
  131.7186  124.1122   63.8715 H   0  0  0  0  0  0  0  0  0  0  0  0
  130.2871  125.2714   62.2007 H   0  0  0  0  0  0  0  0  0  0  0  0
  1  2  1  0
  2  3  2  0
  3  4  1  0
  4  5  2  0
  5  6  1  0
  6  7  1  0
  7  8  1  0
  8  9  2  0
  8 10  1  0
 10 11  1  0
 11 12  2  0
 12 13  1  0
 13 14  2  0
 14 15  1  0
 15 16  2  0
 16 17  1  0
  7 18  2  0
 18 19  1  0
 19 20  2  0
 20 21  1  0
 21 22  1  0
 22 23  2  0
 23 24  1  0
 24 25  2  0
 24 26  1  0
 26 27  1  0
 27 28  2  0
 28 29  1  0
 29 30  2  0
 30 31  1  0
 31 32  2  0
 22 33  1  0
 33 34  2  0
 33 35  1  0
  5 36  1  0
 36  2  1  0
 35  6  1  0
 16 11  1  0
 35 20  1  0
 32 23  1  0
 32 27  1  0
  1 37  1  0
  1 38  1  0
  1 39  1  0
  3 40  1  0
  4 41  1  0
  6 42  1  1
 10 43  1  0
 12 44  1  0
 13 45  1  0
 14 46  1  0
 15 47  1  0
 17 48  1  0
 17 49  1  0
 17 50  1  0
 18 51  1  0
 26 52  1  0
 28 53  1  0
 29 54  1  0
 30 55  1  0
 31 56  1  0
M  END
>  <Binding energies>  (1) 
[-7.69]

>  <Ligand effiencies>  (1) 
[-0.2023684210526316]

>  <Interactions>  (1) 
["V-A:LEU:475:CD1:4254, V-B:TYR:539:CE2:9845, V-B:ILE:369:CD1:8207, V-B:ILE:369:CG2:8205, V-B:TRP:381:CH2:8340, V-A:TYR:539:CE2:4873, V-B:GLY:454:CA:9017, V-A:TYR:539:CD2:4871, V-B:LEU:475:CD2:9227, V-B:ASP:366:CB:8180, V-B:TYR:539:CD2:9843, V-B:ALA:541:CB:9861, V-B:ASP:366:CG:8181, V-B:TYR:539:C:9836, V-A:PRO:540:CA:4880, V-A:PRO:540:CB:4882, H-B:ASP:366:OD1:8182, H-B:ASP:366:OD2:8183, V-B:PRO:540:CA:9852, H-B:TYR:531:OH:9764, H-B:TYR:539:O:9837"]

$$$$
RR19_Rahimova_2017
     RDKit          3D

 72 77  0  0  0  0  0  0  0  0999 V2000
  129.8600  121.1440   61.5650 O   0  0  0  0  0  0  0  0  0  0  0  0
  129.6980  122.3550   61.3900 C   0  0  0  0  0  0  0  0  0  0  0  0
  129.7310  123.3100   62.3540 N   0  0  0  0  0  0  0  0  0  0  0  0
  130.1390  123.3020   63.6660 C   0  0  0  0  0  0  0  0  0  0  0  0
  130.9930  122.0540   64.4250 S   0  0  0  0  0  0  0  0  0  0  0  0
  129.7390  124.4760   64.2560 N   0  0  0  0  0  0  0  0  0  0  0  0
  129.9960  125.0350   65.4660 C   0  0  0  0  0  0  0  0  0  0  0  0
  130.8420  124.6600   66.2810 O   0  0  0  0  0  0  0  0  0  0  0  0
  129.0890  126.2450   65.8030 C   0  0  2  0  0  0  0  0  0  0  0  0
  129.2270  127.4550   64.8340 C   0  0  0  0  0  0  0  0  0  0  0  0
  127.9530  128.2530   64.6090 C   0  0  0  0  0  0  0  0  0  0  0  0
  127.2790  128.2070   63.3690 C   0  0  0  0  0  0  0  0  0  0  0  0
  126.0760  128.8790   63.2070 C   0  0  0  0  0  0  0  0  0  0  0  0
  125.5190  129.5850   64.2670 C   0  0  0  0  0  0  0  0  0  0  0  0
  126.1560  129.6150   65.5010 C   0  0  0  0  0  0  0  0  0  0  0  0
  127.3590  128.9470   65.6840 C   0  0  0  0  0  0  0  0  0  0  0  0
  129.2480  126.6610   67.2230 N   0  0  0  0  0  0  0  0  0  0  0  0
  130.4180  127.1930   67.6790 C   0  0  0  0  0  0  0  0  0  0  0  0
  131.4570  127.3700   67.0400 O   0  0  0  0  0  0  0  0  0  0  0  0
  130.1770  127.5180   69.1070 C   0  0  0  0  0  0  0  0  0  0  0  0
  131.0150  128.0760   70.0720 C   0  0  0  0  0  0  0  0  0  0  0  0
  130.5100  128.2810   71.3610 C   0  0  0  0  0  0  0  0  0  0  0  0
  129.1870  127.9320   71.6640 C   0  0  0  0  0  0  0  0  0  0  0  0
  128.3610  127.3750   70.6810 C   0  0  0  0  0  0  0  0  0  0  0  0
  128.8850  127.1770   69.4030 C   0  0  0  0  0  0  0  0  0  0  0  0
  128.2650  126.6250   68.1720 C   0  0  0  0  0  0  0  0  0  0  0  0
  127.1070  126.2290   68.0380 O   0  0  0  0  0  0  0  0  0  0  0  0
  129.4130  122.8920   59.9630 C   0  0  2  0  0  0  0  0  0  0  0  0
  130.4150  123.9830   59.4880 C   0  0  0  0  0  0  0  0  0  0  0  0
  131.6150  124.1570   60.4010 C   0  0  0  0  0  0  0  0  0  0  0  0
  131.6390  125.2050   61.3470 C   0  0  0  0  0  0  0  0  0  0  0  0
  132.6900  125.3020   62.2500 C   0  0  0  0  0  0  0  0  0  0  0  0
  133.7060  124.3550   62.2460 C   0  0  0  0  0  0  0  0  0  0  0  0
  133.6760  123.2960   61.3470 C   0  0  0  0  0  0  0  0  0  0  0  0
  132.6340  123.1820   60.4350 C   0  0  0  0  0  0  0  0  0  0  0  0
  128.0000  123.3240   59.7650 N   0  0  0  0  0  0  0  0  0  0  0  0
  127.4020  124.2210   60.5980 C   0  0  0  0  0  0  0  0  0  0  0  0
  127.8940  124.7640   61.5880 O   0  0  0  0  0  0  0  0  0  0  0  0
  126.0320  124.4060   60.0580 C   0  0  0  0  0  0  0  0  0  0  0  0
  124.9720  125.1980   60.5040 C   0  0  0  0  0  0  0  0  0  0  0  0
  123.7720  125.1780   59.7850 C   0  0  0  0  0  0  0  0  0  0  0  0
  123.6470  124.3780   58.6410 C   0  0  0  0  0  0  0  0  0  0  0  0
  124.7220  123.5920   58.2100 C   0  0  0  0  0  0  0  0  0  0  0  0
  125.9100  123.6240   58.9420 C   0  0  0  0  0  0  0  0  0  0  0  0
  127.1970  122.9190   58.7360 C   0  0  0  0  0  0  0  0  0  0  0  0
  127.4820  122.1340   57.8310 O   0  0  0  0  0  0  0  0  0  0  0  0
  129.4970  124.2300   62.0110 H   0  0  0  0  0  0  0  0  0  0  0  0
  129.0440  124.9790   63.7250 H   0  0  0  0  0  0  0  0  0  0  0  0
  128.0616  125.8819   65.6530 H   0  0  0  0  0  0  0  0  0  0  0  0
  129.9866  128.1357   65.2458 H   0  0  0  0  0  0  0  0  0  0  0  0
  129.4993  127.0327   63.8555 H   0  0  0  0  0  0  0  0  0  0  0  0
  127.7080  127.6380   62.5310 H   0  0  0  0  0  0  0  0  0  0  0  0
  125.5607  128.8530   62.2355 H   0  0  0  0  0  0  0  0  0  0  0  0
  124.5694  130.1224   64.1279 H   0  0  0  0  0  0  0  0  0  0  0  0
  125.7053  130.1704   66.3367 H   0  0  0  0  0  0  0  0  0  0  0  0
  127.8497  128.9588   66.6684 H   0  0  0  0  0  0  0  0  0  0  0  0
  132.0515  128.3494   69.8251 H   0  0  0  0  0  0  0  0  0  0  0  0
  131.1537  128.7175   72.1389 H   0  0  0  0  0  0  0  0  0  0  0  0
  128.7960  128.0966   72.6789 H   0  0  0  0  0  0  0  0  0  0  0  0
  127.3212  127.0993   70.9109 H   0  0  0  0  0  0  0  0  0  0  0  0
  129.5751  122.0204   59.3118 H   0  0  0  0  0  0  0  0  0  0  0  0
  130.7787  123.7068   58.4873 H   0  0  0  0  0  0  0  0  0  0  0  0
  129.8707  124.9389   59.4913 H   0  0  0  0  0  0  0  0  0  0  0  0
  130.8252  125.9448   61.3689 H   0  0  0  0  0  0  0  0  0  0  0  0
  132.7178  126.1322   62.9712 H   0  0  0  0  0  0  0  0  0  0  0  0
  134.5392  124.4439   62.9587 H   0  0  0  0  0  0  0  0  0  0  0  0
  134.4799  122.5453   61.3573 H   0  0  0  0  0  0  0  0  0  0  0  0
  132.6036  122.3308   59.7389 H   0  0  0  0  0  0  0  0  0  0  0  0
  125.0782  125.8245   61.4019 H   0  0  0  0  0  0  0  0  0  0  0  0
  122.9231  125.7927   60.1189 H   0  0  0  0  0  0  0  0  0  0  0  0
  122.7009  124.3678   58.0800 H   0  0  0  0  0  0  0  0  0  0  0  0
  124.6324  122.9620   57.3128 H   0  0  0  0  0  0  0  0  0  0  0  0
  1  2  2  0
  2  3  1  0
  3  4  1  0
  4  5  2  0
  4  6  1  0
  6  7  1  0
  7  8  2  0
  7  9  1  0
  9 10  1  0
 10 11  1  0
 11 12  2  0
 12 13  1  0
 13 14  2  0
 14 15  1  0
 15 16  2  0
  9 17  1  0
 17 18  1  0
 18 19  2  0
 18 20  1  0
 20 21  2  0
 21 22  1  0
 22 23  2  0
 23 24  1  0
 24 25  2  0
 25 26  1  0
 26 27  2  0
  2 28  1  0
 28 29  1  0
 29 30  1  0
 30 31  2  0
 31 32  1  0
 32 33  2  0
 33 34  1  0
 34 35  2  0
 28 36  1  0
 36 37  1  0
 37 38  2  0
 37 39  1  0
 39 40  2  0
 40 41  1  0
 41 42  2  0
 42 43  1  0
 43 44  2  0
 44 45  1  0
 45 46  2  0
 16 11  1  0
 26 17  1  0
 35 30  1  0
 45 36  1  0
 25 20  1  0
 44 39  1  0
  3 47  1  0
  6 48  1  0
  9 49  1  1
 10 50  1  0
 10 51  1  0
 12 52  1  0
 13 53  1  0
 14 54  1  0
 15 55  1  0
 16 56  1  0
 21 57  1  0
 22 58  1  0
 23 59  1  0
 24 60  1  0
 28 61  1  6
 29 62  1  0
 29 63  1  0
 31 64  1  0
 32 65  1  0
 33 66  1  0
 34 67  1  0
 35 68  1  0
 40 69  1  0
 41 70  1  0
 42 71  1  0
 43 72  1  0
M  END
>  <Binding energies>  (1) 
[-11.15]

>  <Ligand effiencies>  (1) 
[-0.23229166666666667]

>  <Interactions>  (1) 
["V-A:LEU:475:CD1:4254, V-B:GLU:543:CD:9877, V-A:ARG:545:CZ:4923, V-B:TYR:539:CE2:9845, V-A:HIS:456:CE1:4066, V-A:GLU:543:CD:4905, V-A:TYR:484:CZ:4343, V-B:GLU:543:CB:9875, V-B:HIS:456:CE1:9038, V-A:TYR:484:CE1:4341, V-A:HIS:456:CD2:4064, V-B:HIS:456:CD2:9036, V-A:GLU:543:CB:4903, V-B:GLU:543:CG:9876, V-B:ARG:545:CZ:9895, V-B:TYR:539:CZ:9846, V-B:ASP:366:CB:8180, V-B:TYR:539:CD2:9843, V-B:ALA:541:CB:9861, V-B:ASP:366:CG:8181, V-A:ASP:366:CG:3209, H-A:TYR:484:OH:4344, H-B:GLU:543:OE1:9878, V-A:GLU:543:C:4899, V-A:LEU:475:CD2:4255, V-B:PRO:540:N:9853, V-B:LEU:363:CD1:8157, V-B:PRO:540:CB:9854, V-B:LEU:363:CA:8153, V-B:PRO:540:CA:9852, V-A:LEU:475:CG:4253, V-B:LEU:363:CB:8155, V-B:ASN:362:C:8140, V-A:GLY:544:CA:4911, V-A:GLY:544:C:4909, H-B:GLU:543:OE2:9879"]

$$$$
RR19_Rahimova_2017-again1
     RDKit          3D

 71 76  0  0  0  0  0  0  0  0999 V2000
  131.9860  127.7240   67.2170 O   0  0  0  0  0  0  0  0  0  0  0  0
  130.9700  127.1970   66.7580 C   0  0  0  0  0  0  0  0  0  0  0  0
  130.9390  126.2100   65.8300 N   0  0  0  0  0  0  0  0  0  0  0  0
  131.9150  125.4410   65.2610 C   0  0  0  0  0  0  0  0  0  0  0  0
  133.5860  125.5100   65.4250 S   0  0  0  0  0  0  0  0  0  0  0  0
  131.2680  124.4620   64.5270 N   0  0  0  0  0  0  0  0  0  0  0  0
  130.8970  124.4810   63.2880 C   0  0  0  0  0  0  0  0  0  0  0  0
  131.0870  125.3360   62.4010 O   0  0  0  0  0  0  0  0  0  0  0  0
  130.0590  123.2440   62.8200 C   0  0  2  0  0  0  0  0  0  0  0  0
  130.9840  122.0480   62.4160 C   0  0  0  0  0  0  0  0  0  0  0  0
  132.2570  122.4520   61.6770 C   0  0  0  0  0  0  0  0  0  0  0  0
  132.1790  123.2890   60.5610 C   0  0  0  0  0  0  0  0  0  0  0  0
  133.3400  123.6700   59.8940 C   0  0  0  0  0  0  0  0  0  0  0  0
  134.5770  123.2100   60.3450 C   0  0  0  0  0  0  0  0  0  0  0  0
  134.6610  122.3710   61.4540 C   0  0  0  0  0  0  0  0  0  0  0  0
  133.5000  121.9890   62.1190 C   0  0  0  0  0  0  0  0  0  0  0  0
  129.0010  123.5830   61.8110 N   0  0  0  0  0  0  0  0  0  0  0  0
  128.5700  122.6710   60.8940 C   0  0  0  0  0  0  0  0  0  0  0  0
  128.9630  121.5130   60.7500 O   0  0  0  0  0  0  0  0  0  0  0  0
  127.5270  123.3710   60.1020 C   0  0  0  0  0  0  0  0  0  0  0  0
  126.7470  122.9350   59.0300 C   0  0  0  0  0  0  0  0  0  0  0  0
  125.8270  123.8260   58.4670 C   0  0  0  0  0  0  0  0  0  0  0  0
  125.6970  125.1250   58.9760 C   0  0  0  0  0  0  0  0  0  0  0  0
  126.4880  125.5420   60.0510 C   0  0  0  0  0  0  0  0  0  0  0  0
  127.4020  124.6400   60.5980 C   0  0  0  0  0  0  0  0  0  0  0  0
  128.3580  124.7870   61.7210 C   0  0  0  0  0  0  0  0  0  0  0  0
  128.5330  125.7840   62.4200 O   0  0  0  0  0  0  0  0  0  0  0  0
  129.5690  127.6670   67.2490 C   0  0  2  0  0  0  0  0  0  0  0  0
  128.7860  126.5800   68.0410 C   0  0  0  0  0  0  0  0  0  0  0  0
  128.8580  126.7430   69.5490 C   0  0  0  0  0  0  0  0  0  0  0  0
  129.8640  127.5470   70.1260 C   0  0  0  0  0  0  0  0  0  0  0  0
  129.8700  127.7750   71.4960 C   0  0  0  0  0  0  0  0  0  0  0  0
  128.8720  127.2360   72.3000 C   0  0  0  0  0  0  0  0  0  0  0  0
  127.8550  126.4740   71.7400 C   0  0  0  0  0  0  0  0  0  0  0  0
  127.8310  126.2350   70.3720 C   0  0  0  0  0  0  0  0  0  0  0  0
  128.7310  128.2990   66.1860 N   0  0  0  0  0  0  0  0  0  0  0  0
  128.3490  127.6110   65.0730 C   0  0  0  0  0  0  0  0  0  0  0  0
  128.6790  126.4690   64.7520 O   0  0  0  0  0  0  0  0  0  0  0  0
  127.4430  128.5240   64.3340 C   0  0  0  0  0  0  0  0  0  0  0  0
  126.7460  128.3500   63.1370 C   0  0  0  0  0  0  0  0  0  0  0  0
  125.9330  129.3920   62.6780 C   0  0  0  0  0  0  0  0  0  0  0  0
  125.8300  130.5820   63.4110 C   0  0  0  0  0  0  0  0  0  0  0  0
  126.5380  130.7390   64.6070 C   0  0  0  0  0  0  0  0  0  0  0  0
  127.3420  129.6870   65.0490 C   0  0  0  0  0  0  0  0  0  0  0  0
  128.1740  129.5440   66.2690 C   0  0  0  0  0  0  0  0  0  0  0  0
  128.3210  130.3710   67.1700 O   0  0  0  0  0  0  0  0  0  0  0  0
  130.0070  125.9280   65.5670 H   0  0  0  0  0  0  0  0  0  0  0  0
  129.4796  122.8978   63.6886 H   0  0  0  0  0  0  0  0  0  0  0  0
  131.2741  121.5135   63.3326 H   0  0  0  0  0  0  0  0  0  0  0  0
  130.4030  121.4254   61.7197 H   0  0  0  0  0  0  0  0  0  0  0  0
  131.2001  123.6470   60.2094 H   0  0  0  0  0  0  0  0  0  0  0  0
  133.2821  124.3302   59.0161 H   0  0  0  0  0  0  0  0  0  0  0  0
  135.4951  123.5125   59.8200 H   0  0  0  0  0  0  0  0  0  0  0  0
  135.6407  122.0122   61.8024 H   0  0  0  0  0  0  0  0  0  0  0  0
  133.5601  121.3229   62.9923 H   0  0  0  0  0  0  0  0  0  0  0  0
  126.8532  121.9133   58.6364 H   0  0  0  0  0  0  0  0  0  0  0  0
  125.2024  123.5051   57.6203 H   0  0  0  0  0  0  0  0  0  0  0  0
  124.9703  125.8190   58.5284 H   0  0  0  0  0  0  0  0  0  0  0  0
  126.3919  126.5597   60.4572 H   0  0  0  0  0  0  0  0  0  0  0  0
  129.7971  128.4679   67.9677 H   0  0  0  0  0  0  0  0  0  0  0  0
  127.7295  126.6252   67.7382 H   0  0  0  0  0  0  0  0  0  0  0  0
  129.2539  125.6134   67.8026 H   0  0  0  0  0  0  0  0  0  0  0  0
  130.6434  127.9931   69.4907 H   0  0  0  0  0  0  0  0  0  0  0  0
  130.6673  128.3843   71.9466 H   0  0  0  0  0  0  0  0  0  0  0  0
  128.8880  127.4141   73.3854 H   0  0  0  0  0  0  0  0  0  0  0  0
  127.0651  126.0579   72.3826 H   0  0  0  0  0  0  0  0  0  0  0  0
  127.0111  125.6496   69.9303 H   0  0  0  0  0  0  0  0  0  0  0  0
  126.8341  127.4135   62.5668 H   0  0  0  0  0  0  0  0  0  0  0  0
  125.3727  129.2768   61.7385 H   0  0  0  0  0  0  0  0  0  0  0  0
  125.1889  131.3969   63.0438 H   0  0  0  0  0  0  0  0  0  0  0  0
  126.4629  131.6709   65.1865 H   0  0  0  0  0  0  0  0  0  0  0  0
  1  2  2  0
  2  3  1  0
  3  4  1  0
  4  5  2  0
  4  6  1  0
  6  7  2  0
  7  8  1  0
  7  9  1  0
  9 10  1  0
 10 11  1  0
 11 12  2  0
 12 13  1  0
 13 14  2  0
 14 15  1  0
 15 16  2  0
  9 17  1  0
 17 18  1  0
 18 19  2  0
 18 20  1  0
 20 21  2  0
 21 22  1  0
 22 23  2  0
 23 24  1  0
 24 25  2  0
 25 26  1  0
 26 27  2  0
  2 28  1  0
 28 29  1  0
 29 30  1  0
 30 31  2  0
 31 32  1  0
 32 33  2  0
 33 34  1  0
 34 35  2  0
 28 36  1  0
 36 37  1  0
 37 38  2  0
 37 39  1  0
 39 40  2  0
 40 41  1  0
 41 42  2  0
 42 43  1  0
 43 44  2  0
 44 45  1  0
 45 46  2  0
 16 11  1  0
 26 17  1  0
 35 30  1  0
 45 36  1  0
 25 20  1  0
 44 39  1  0
  3 47  1  0
  9 48  1  1
 10 49  1  0
 10 50  1  0
 12 51  1  0
 13 52  1  0
 14 53  1  0
 15 54  1  0
 16 55  1  0
 21 56  1  0
 22 57  1  0
 23 58  1  0
 24 59  1  0
 28 60  1  1
 29 61  1  0
 29 62  1  0
 31 63  1  0
 32 64  1  0
 33 65  1  0
 34 66  1  0
 35 67  1  0
 40 68  1  0
 41 69  1  0
 42 70  1  0
 43 71  1  0
M  CHG  1   8  -1
M  END
>  <Binding energies>  (1) 
[-10.06]

>  <Ligand effiencies>  (1) 
[-0.21404255319148938]

>  <Interactions>  (1) 
["V-A:LEU:475:CD1:4254, V-B:GLU:543:CD:9877, V-A:ARG:545:CZ:4923, V-A:ILE:369:CB:3232, V-A:ARG:545:CG:4919, V-A:ILE:369:CG1:3234, V-A:ILE:369:CG2:3233, V-A:GLY:454:CA:4045, V-B:TYR:539:CE2:9845, V-A:HIS:456:CE1:4066, V-A:GLU:543:CD:4905, V-A:GLU:543:CG:4904, V-B:GLU:543:C:9871, V-B:GLU:543:CB:9875, V-B:HIS:456:CE1:9038, V-B:GLY:544:C:9881, V-B:HIS:456:CD2:9036, V-A:GLU:543:CB:4903, H-B:TYR:484:OH:9316, V-B:TYR:539:CZ:9846, V-B:ALA:541:CB:9861, V-B:ASP:366:CG:8181, V-A:ASP:366:CG:3209, V-A:ASP:366:CB:3208, H-A:ARG:545:NE:4921, H-A:TYR:484:OH:4344, V-A:ARG:545:CD:4920, V-B:LYS:547:CE:9919, V-B:PRO:540:N:9853, V-A:GLY:453:C:4038, V-B:PRO:540:CB:9854, V-B:PRO:540:CA:9852, V-A:ASP:366:CA:3206"]

$$$$
RR1_Rahimova_2017
     RDKit          3D

 68 71  0  0  0  0  0  0  0  0999 V2000
  133.1210  124.1000   61.3680 C   0  0  0  0  0  0  0  0  0  0  0  0
  133.7050  124.0240   62.6640 O   0  0  0  0  0  0  0  0  0  0  0  0
  133.2240  124.8400   63.6690 C   0  0  0  0  0  0  0  0  0  0  0  0
  133.8630  125.0360   64.9040 C   0  0  0  0  0  0  0  0  0  0  0  0
  133.2980  125.8720   65.8620 C   0  0  0  0  0  0  0  0  0  0  0  0
  132.0940  126.5290   65.6040 C   0  0  0  0  0  0  0  0  0  0  0  0
  131.5800  127.3160   66.6520 N   0  0  0  0  0  0  0  0  0  0  0  0
  130.6880  126.9870   67.6110 C   0  0  0  0  0  0  0  0  0  0  0  0
  130.1010  125.9070   67.6820 O   0  0  0  0  0  0  0  0  0  0  0  0
  130.4320  128.0890   68.6520 C   0  0  0  0  0  0  0  0  0  0  0  0
  131.0810  127.7520   70.3260 S   0  0  0  0  0  0  0  0  0  0  0  0
  129.5360  127.6080   71.1590 C   0  0  0  0  0  0  0  0  0  0  0  0
  129.2460  128.2140   72.2830 N   0  0  0  0  0  0  0  0  0  0  0  0
  127.9960  127.8380   72.5340 C   0  0  0  0  0  0  0  0  0  0  0  0
  127.2410  128.3140   73.7420 C   0  0  0  0  0  0  0  0  0  0  0  0
  125.9100  127.9320   73.9740 C   0  0  0  0  0  0  0  0  0  0  0  0
  125.2320  128.3930   75.1040 C   0  0  0  0  0  0  0  0  0  0  0  0
  125.9070  129.2360   75.9850 C   0  0  0  0  0  0  0  0  0  0  0  0
  127.1930  129.6260   75.7920 N   0  0  0  0  0  0  0  0  0  0  0  0
  127.8340  129.1650   74.6880 C   0  0  0  0  0  0  0  0  0  0  0  0
  127.4620  127.0200   71.6460 N   0  0  0  0  0  0  0  0  0  0  0  0
  128.4520  126.8690   70.7610 N   0  0  0  0  0  0  0  0  0  0  0  0
  128.2650  126.0370   69.5720 C   0  0  0  0  0  0  0  0  0  0  0  0
  127.2700  126.5920   68.5390 C   0  0  0  0  0  0  0  0  0  0  0  0
  126.0540  126.4130   68.6700 O   0  0  0  0  0  0  0  0  0  0  0  0
  127.8310  127.2640   67.5150 N   0  0  0  0  0  0  0  0  0  0  0  0
  126.9910  127.9190   66.6240 N   0  0  0  0  0  0  0  0  0  0  0  0
  127.3710  129.1360   66.1780 C   0  0  0  0  0  0  0  0  0  0  0  0
  128.4630  129.6560   66.4310 O   0  0  0  0  0  0  0  0  0  0  0  0
  126.3690  129.8530   65.2960 C   0  0  0  0  0  0  0  0  0  0  0  0
  125.1300  129.2630   65.0240 C   0  0  0  0  0  0  0  0  0  0  0  0
  124.2010  129.8970   64.2070 C   0  0  0  0  0  0  0  0  0  0  0  0
  124.4860  131.1440   63.6270 C   0  0  0  0  0  0  0  0  0  0  0  0
  123.6130  131.8220   62.7950 O   0  0  0  0  0  0  0  0  0  0  0  0
  123.7790  131.7350   61.3850 C   0  0  0  0  0  0  0  0  0  0  0  0
  125.7250  131.7480   63.8810 C   0  0  0  0  0  0  0  0  0  0  0  0
  125.9660  132.9670   63.2700 O   0  0  0  0  0  0  0  0  0  0  0  0
  127.0830  133.1100   62.4010 C   0  0  0  0  0  0  0  0  0  0  0  0
  126.6530  131.0990   64.7150 C   0  0  0  0  0  0  0  0  0  0  0  0
  131.4520  126.3360   64.3710 C   0  0  0  0  0  0  0  0  0  0  0  0
  132.0210  125.4990   63.4160 C   0  0  0  0  0  0  0  0  0  0  0  0
  132.0343  124.2414   61.4632 H   0  0  0  0  0  0  0  0  0  0  0  0
  133.5546  124.9493   60.8197 H   0  0  0  0  0  0  0  0  0  0  0  0
  133.3228  123.1680   60.8197 H   0  0  0  0  0  0  0  0  0  0  0  0
  134.8146  124.5262   65.1150 H   0  0  0  0  0  0  0  0  0  0  0  0
  133.8032  126.0160   66.8284 H   0  0  0  0  0  0  0  0  0  0  0  0
  131.9100  128.2710   66.6560 H   0  0  0  0  0  0  0  0  0  0  0  0
  130.8992  129.0156   68.2871 H   0  0  0  0  0  0  0  0  0  0  0  0
  129.3393  128.1570   68.7587 H   0  0  0  0  0  0  0  0  0  0  0  0
  125.3992  127.2666   73.2624 H   0  0  0  0  0  0  0  0  0  0  0  0
  124.1896  128.0978   75.2945 H   0  0  0  0  0  0  0  0  0  0  0  0
  125.3746  129.6013   76.8756 H   0  0  0  0  0  0  0  0  0  0  0  0
  128.8766  129.4756   74.5254 H   0  0  0  0  0  0  0  0  0  0  0  0
  129.2414  125.9234   69.0782 H   0  0  0  0  0  0  0  0  0  0  0  0
  127.8409  125.0859   69.9265 H   0  0  0  0  0  0  0  0  0  0  0  0
  128.7850  127.5990   67.4960 H   0  0  0  0  0  0  0  0  0  0  0  0
  126.0210  127.7070   66.8070 H   0  0  0  0  0  0  0  0  0  0  0  0
  124.8875  128.2838   65.4627 H   0  0  0  0  0  0  0  0  0  0  0  0
  123.2310  129.4162   64.0124 H   0  0  0  0  0  0  0  0  0  0  0  0
  124.7324  131.2353   61.1582 H   0  0  0  0  0  0  0  0  0  0  0  0
  122.9496  131.1557   60.9532 H   0  0  0  0  0  0  0  0  0  0  0  0
  123.7834  132.7467   60.9532 H   0  0  0  0  0  0  0  0  0  0  0  0
  127.9994  133.2273   62.9980 H   0  0  0  0  0  0  0  0  0  0  0  0
  127.1708  132.2158   61.7665 H   0  0  0  0  0  0  0  0  0  0  0  0
  126.9427  133.9975   61.7665 H   0  0  0  0  0  0  0  0  0  0  0  0
  127.6225  131.5781   64.9164 H   0  0  0  0  0  0  0  0  0  0  0  0
  130.5003  126.8457   64.1598 H   0  0  0  0  0  0  0  0  0  0  0  0
  131.5158  125.3553   62.4495 H   0  0  0  0  0  0  0  0  0  0  0  0
  1  2  1  0
  2  3  1  0
  3  4  2  0
  4  5  1  0
  5  6  2  0
  6  7  1  0
  7  8  1  0
  8  9  2  0
  8 10  1  0
 10 11  1  0
 11 12  1  0
 12 13  2  0
 13 14  1  0
 14 15  1  0
 15 16  2  0
 16 17  1  0
 17 18  2  0
 18 19  1  0
 19 20  2  0
 14 21  2  0
 21 22  1  0
 22 23  1  0
 23 24  1  0
 24 25  2  0
 24 26  1  0
 26 27  1  0
 27 28  1  0
 28 29  2  0
 28 30  1  0
 30 31  2  0
 31 32  1  0
 32 33  2  0
 33 34  1  0
 34 35  1  0
 33 36  1  0
 36 37  1  0
 37 38  1  0
 36 39  2  0
  6 40  1  0
 40 41  2  0
 41  3  1  0
 22 12  1  0
 39 30  1  0
 20 15  1  0
  1 42  1  0
  1 43  1  0
  1 44  1  0
  4 45  1  0
  5 46  1  0
  7 47  1  0
 10 48  1  0
 10 49  1  0
 16 50  1  0
 17 51  1  0
 18 52  1  0
 20 53  1  0
 23 54  1  0
 23 55  1  0
 26 56  1  0
 27 57  1  0
 31 58  1  0
 32 59  1  0
 35 60  1  0
 35 61  1  0
 35 62  1  0
 38 63  1  0
 38 64  1  0
 38 65  1  0
 39 66  1  0
 40 67  1  0
 41 68  1  0
M  END
>  <Binding energies>  (1) 
[-8.98]

>  <Ligand effiencies>  (1) 
[-0.2040909090909091]

>  <Interactions>  (1) 
["V-B:GLU:543:CD:9877, H-A:GLU:543:OE1:4906, V-A:ARG:545:CZ:4923, H-A:GLY:454:N:4046, V-A:ARG:545:CG:4919, V-A:GLY:454:CA:4045, V-A:HIS:456:CE1:4066, V-A:GLU:543:CD:4905, H-B:HIS:456:NE2:9039, V-B:GLU:543:C:9871, V-B:GLU:543:CB:9875, V-B:HIS:456:CE1:9038, V-B:HIS:456:CD2:9036, V-A:GLU:543:CB:4903, V-B:ILE:369:CD1:8207, V-B:ARG:545:CZ:9895, V-A:ALA:541:CB:4889, V-B:GLY:454:CA:9017, V-B:LEU:475:CD2:9227, V-B:ASP:366:CG:8181, V-A:ASP:366:CG:3209, H-B:GLU:543:OE1:9878, V-A:ARG:545:CD:4920, V-B:LYS:547:CE:9919, V-B:HIS:456:CG:9034, V-A:LYS:547:CE:4947, V-A:GLU:543:C:4899, V-B:HIS:456:CB:9033, V-B:LYS:547:CD:9918, V-B:VAL:458:CG2:9055, H-A:LYS:547:NZ:4948, V-B:LYS:471:CE:9188, H-B:GLY:454:N:9018, V-A:GLY:453:C:4038, V-A:GLY:453:CA:4040, H-B:ARG:545:N:9889, H-B:HIS:456:ND1:9035"]

$$$$
RR20_Rahimova_2017
     RDKit          3D

 68 73  0  0  0  0  0  0  0  0999 V2000
  127.1210  122.5950   58.8740 C   0  0  0  0  0  0  0  0  0  0  0  0
  128.4360  122.4600   59.6200 C   0  0  0  0  0  0  0  0  0  0  0  0
  129.4440  123.4050   59.4280 C   0  0  0  0  0  0  0  0  0  0  0  0
  130.6470  123.2880   60.1180 C   0  0  0  0  0  0  0  0  0  0  0  0
  130.8580  122.2180   60.9960 C   0  0  0  0  0  0  0  0  0  0  0  0
  132.1640  122.1210   61.7520 C   0  0  0  0  0  0  0  0  0  0  0  0
  132.8960  121.1590   61.5060 O   0  0  0  0  0  0  0  0  0  0  0  0
  132.4880  123.0910   62.6560 N   0  0  0  0  0  0  0  0  0  0  0  0
  133.6130  124.0130   62.4270 C   0  0  0  0  0  0  0  0  0  0  0  0
  133.5670  125.0320   63.5540 C   0  0  0  0  0  0  0  0  0  0  0  0
  132.1950  124.8360   64.1250 C   0  0  0  0  0  0  0  0  0  0  0  0
  131.5520  125.5550   65.1330 C   0  0  0  0  0  0  0  0  0  0  0  0
  130.3260  125.1180   65.6500 C   0  0  0  0  0  0  0  0  0  0  0  0
  129.6280  125.8960   66.7300 C   0  0  0  0  0  0  0  0  0  0  0  0
  129.7180  125.4610   67.9770 N   0  0  0  0  0  0  0  0  0  0  0  0
  129.0910  126.2250   68.8350 C   0  0  0  0  0  0  0  0  0  0  0  0
  128.9900  126.0630   70.2080 N   0  0  0  0  0  0  0  0  0  0  0  0
  129.5680  126.8310   71.1630 C   0  0  0  0  0  0  0  0  0  0  0  0
  130.2660  127.8190   70.9250 O   0  0  0  0  0  0  0  0  0  0  0  0
  129.3170  126.4610   72.6440 C   0  0  0  0  0  0  0  0  0  0  0  0
  128.6290  127.5280   73.3960 N   0  0  0  0  0  0  0  0  0  0  0  0
  128.9790  128.8710   72.9110 C   0  0  0  0  0  0  0  0  0  0  0  0
  128.4510  129.9450   73.8900 C   0  0  0  0  0  0  0  0  0  0  0  0
  127.0070  129.6970   74.3250 C   0  0  0  0  0  0  0  0  0  0  0  0
  126.2730  130.6890   74.9860 C   0  0  0  0  0  0  0  0  0  0  0  0
  124.9700  130.4510   75.4170 C   0  0  0  0  0  0  0  0  0  0  0  0
  124.3820  129.2100   75.1880 C   0  0  0  0  0  0  0  0  0  0  0  0
  125.0980  128.2170   74.5230 C   0  0  0  0  0  0  0  0  0  0  0  0
  126.4080  128.4430   74.0860 C   0  0  0  0  0  0  0  0  0  0  0  0
  127.1720  127.3740   73.3060 C   0  0  0  0  0  0  0  0  0  0  0  0
  128.3030  127.5840   68.1330 S   0  0  0  0  0  0  0  0  0  0  0  0
  128.8620  127.0690   66.5600 C   0  0  0  0  0  0  0  0  0  0  0  0
  128.4770  127.8450   65.3180 C   0  0  0  0  0  0  0  0  0  0  0  0
  129.7890  123.9130   65.1700 C   0  0  0  0  0  0  0  0  0  0  0  0
  130.4390  123.1830   64.1750 C   0  0  0  0  0  0  0  0  0  0  0  0
  131.6210  123.6750   63.6070 C   0  0  0  0  0  0  0  0  0  0  0  0
  129.8300  121.2900   61.2060 C   0  0  0  0  0  0  0  0  0  0  0  0
  128.6260  121.4070   60.5170 C   0  0  0  0  0  0  0  0  0  0  0  0
  126.2963  122.6797   59.5970 H   0  0  0  0  0  0  0  0  0  0  0  0
  127.1486  123.4950   58.2422 H   0  0  0  0  0  0  0  0  0  0  0  0
  126.9651  121.7081   58.2422 H   0  0  0  0  0  0  0  0  0  0  0  0
  129.2881  124.2421   58.7317 H   0  0  0  0  0  0  0  0  0  0  0  0
  131.4363  124.0403   59.9728 H   0  0  0  0  0  0  0  0  0  0  0  0
  134.5658  123.4638   62.4490 H   0  0  0  0  0  0  0  0  0  0  0  0
  133.5359  124.5008   61.4441 H   0  0  0  0  0  0  0  0  0  0  0  0
  134.3423  124.8254   64.3065 H   0  0  0  0  0  0  0  0  0  0  0  0
  133.7547  126.0621   63.2169 H   0  0  0  0  0  0  0  0  0  0  0  0
  132.0123  126.4738   65.5254 H   0  0  0  0  0  0  0  0  0  0  0  0
  128.4300  125.2830   70.5220 H   0  0  0  0  0  0  0  0  0  0  0  0
  128.6976  125.5526   72.6783 H   0  0  0  0  0  0  0  0  0  0  0  0
  130.2987  126.3065   73.1156 H   0  0  0  0  0  0  0  0  0  0  0  0
  130.0730  128.9560   72.8335 H   0  0  0  0  0  0  0  0  0  0  0  0
  128.5200  129.0277   71.9237 H   0  0  0  0  0  0  0  0  0  0  0  0
  129.0910  129.9490   74.7846 H   0  0  0  0  0  0  0  0  0  0  0  0
  128.4753  130.9108   73.3639 H   0  0  0  0  0  0  0  0  0  0  0  0
  126.7324  131.6718   75.1679 H   0  0  0  0  0  0  0  0  0  0  0  0
  124.4076  131.2408   75.9365 H   0  0  0  0  0  0  0  0  0  0  0  0
  123.3554  129.0141   75.5310 H   0  0  0  0  0  0  0  0  0  0  0  0
  124.6264  127.2405   74.3387 H   0  0  0  0  0  0  0  0  0  0  0  0
  126.8988  126.3863   73.7058 H   0  0  0  0  0  0  0  0  0  0  0  0
  126.8954  127.4798   72.2466 H   0  0  0  0  0  0  0  0  0  0  0  0
  128.0057  128.7949   65.6105 H   0  0  0  0  0  0  0  0  0  0  0  0
  129.3774  128.0511   64.7206 H   0  0  0  0  0  0  0  0  0  0  0  0
  127.7682  127.2527   64.7206 H   0  0  0  0  0  0  0  0  0  0  0  0
  128.8414  123.5389   65.5848 H   0  0  0  0  0  0  0  0  0  0  0  0
  130.0239  122.2221   63.8368 H   0  0  0  0  0  0  0  0  0  0  0  0
  129.9748  120.4648   61.9188 H   0  0  0  0  0  0  0  0  0  0  0  0
  127.8251  120.6706   60.6791 H   0  0  0  0  0  0  0  0  0  0  0  0
  1  2  1  0
  2  3  2  0
  3  4  1  0
  4  5  2  0
  5  6  1  0
  6  7  2  0
  6  8  1  0
  8  9  1  0
  9 10  1  0
 10 11  1  0
 11 12  2  0
 12 13  1  0
 13 14  1  0
 14 15  1  0
 15 16  2  0
 16 17  1  0
 17 18  1  0
 18 19  2  0
 18 20  1  0
 20 21  1  0
 21 22  1  0
 22 23  1  0
 23 24  1  0
 24 25  2  0
 25 26  1  0
 26 27  2  0
 27 28  1  0
 28 29  2  0
 29 30  1  0
 16 31  1  0
 31 32  1  0
 32 33  1  0
 13 34  2  0
 34 35  1  0
 35 36  2  0
  5 37  1  0
 37 38  2  0
 38  2  1  0
 36  8  1  0
 36 11  1  0
 32 14  2  0
 30 21  1  0
 29 24  1  0
  1 39  1  0
  1 40  1  0
  1 41  1  0
  3 42  1  0
  4 43  1  0
  9 44  1  0
  9 45  1  0
 10 46  1  0
 10 47  1  0
 12 48  1  0
 17 49  1  0
 20 50  1  0
 20 51  1  0
 22 52  1  0
 22 53  1  0
 23 54  1  0
 23 55  1  0
 25 56  1  0
 26 57  1  0
 27 58  1  0
 28 59  1  0
 30 60  1  0
 30 61  1  0
 33 62  1  0
 33 63  1  0
 33 64  1  0
 34 65  1  0
 35 66  1  0
 37 67  1  0
 38 68  1  0
M  END
>  <Binding energies>  (1) 
[-10.76]

>  <Ligand effiencies>  (1) 
[-0.27589743589743587]

>  <Interactions>  (1) 
["V-A:LEU:475:CD1:4254, V-B:GLU:543:CD:9877, V-A:ARG:545:CZ:4923, V-A:GLY:454:CA:4045, V-B:TYR:539:CE2:9845, V-A:HIS:456:CE1:4066, V-A:GLU:543:CD:4905, V-A:TYR:484:CZ:4343, V-B:GLU:543:CB:9875, V-B:HIS:456:CE1:9038, V-A:TYR:484:CE1:4341, V-A:HIS:456:CD2:4064, V-B:HIS:456:CD2:9036, V-B:GLU:543:CG:9876, V-B:TYR:539:CZ:9846, V-B:TYR:539:CD2:9843, V-B:ALA:541:CB:9861, V-B:TYR:539:C:9836, V-B:LYS:547:CE:9919, V-B:VAL:457:C:9041, H-A:HIS:456:NE2:4067, V-B:HIS:456:CG:9034, V-A:LYS:547:CE:4947, V-B:HIS:456:C:9029, H-B:GLU:543:O:9872, V-B:VAL:457:CA:9043, V-B:HIS:456:CB:9033, V-B:HIS:456:CA:9031, V-B:LYS:547:CD:9918, V-B:VAL:458:CG2:9055, H-A:LYS:547:NZ:4948, V-B:LYS:471:CE:9188, V-B:PRO:540:N:9853, V-B:PRO:540:CB:9854, V-B:PRO:540:C:9850, V-B:PRO:540:CA:9852, V-B:ALA:541:CA:9859"]

$$$$
RR20_Rahimova_2017-again1
     RDKit          3D

 68 73  0  0  0  0  0  0  0  0999 V2000
  134.0830  123.3090   60.6370 C   0  0  0  0  0  0  0  0  0  0  0  0
  133.1400  124.1160   61.5120 C   0  0  0  0  0  0  0  0  0  0  0  0
  131.9100  124.5370   61.0060 C   0  0  0  0  0  0  0  0  0  0  0  0
  131.0420  125.2700   61.8100 C   0  0  0  0  0  0  0  0  0  0  0  0
  131.4020  125.6000   63.1220 C   0  0  0  0  0  0  0  0  0  0  0  0
  130.4380  126.3830   63.9870 C   0  0  0  0  0  0  0  0  0  0  0  0
  130.1320  127.5190   63.6190 O   0  0  0  0  0  0  0  0  0  0  0  0
  129.9280  125.8010   65.1120 N   0  0  0  0  0  0  0  0  0  0  0  0
  129.8710  124.3370   65.2600 C   0  0  0  0  0  0  0  0  0  0  0  0
  129.3930  124.0690   66.6780 C   0  0  0  0  0  0  0  0  0  0  0  0
  129.5740  125.3980   67.3470 C   0  0  0  0  0  0  0  0  0  0  0  0
  129.3770  125.7420   68.6850 C   0  0  0  0  0  0  0  0  0  0  0  0
  129.4360  127.0840   69.0940 C   0  0  0  0  0  0  0  0  0  0  0  0
  129.2170  127.4550   70.5330 C   0  0  0  0  0  0  0  0  0  0  0  0
  129.5690  128.6700   70.9260 N   0  0  0  0  0  0  0  0  0  0  0  0
  129.3510  128.9050   72.1970 C   0  0  0  0  0  0  0  0  0  0  0  0
  129.6350  130.0290   72.9270 N   0  0  0  0  0  0  0  0  0  0  0  0
  128.8660  130.5390   73.8290 C   0  0  0  0  0  0  0  0  0  0  0  0
  127.7830  130.1510   74.3080 O   0  0  0  0  0  0  0  0  0  0  0  0
  129.3930  131.8610   74.4250 C   0  0  0  0  0  0  0  0  0  0  0  0
  128.4660  133.0380   74.0050 N   0  0  2  0  0  0  0  0  0  0  0  0
  127.8670  132.8470   72.5960 C   0  0  0  0  0  0  0  0  0  0  0  0
  128.9860  132.8880   71.5390 C   0  0  0  0  0  0  0  0  0  0  0  0
  129.9230  134.0820   71.7020 C   0  0  0  0  0  0  0  0  0  0  0  0
  130.7090  134.4990   70.6220 C   0  0  0  0  0  0  0  0  0  0  0  0
  131.6100  135.5530   70.7470 C   0  0  0  0  0  0  0  0  0  0  0  0
  131.7340  136.2100   71.9650 C   0  0  0  0  0  0  0  0  0  0  0  0
  130.9490  135.8160   73.0450 C   0  0  0  0  0  0  0  0  0  0  0  0
  130.0320  134.7640   72.9370 C   0  0  0  0  0  0  0  0  0  0  0  0
  129.1600  134.4140   74.1490 C   0  0  0  0  0  0  0  0  0  0  0  0
  128.6840  127.5530   73.0340 S   0  0  0  0  0  0  0  0  0  0  0  0
  128.6670  126.6420   71.5430 C   0  0  0  0  0  0  0  0  0  0  0  0
  128.1010  125.2380   71.5070 C   0  0  0  0  0  0  0  0  0  0  0  0
  129.6520  128.0690   68.1220 C   0  0  0  0  0  0  0  0  0  0  0  0
  129.8320  127.7290   66.7800 C   0  0  0  0  0  0  0  0  0  0  0  0
  129.8480  126.3820   66.3970 C   0  0  0  0  0  0  0  0  0  0  0  0
  132.6260  125.1470   63.6320 C   0  0  0  0  0  0  0  0  0  0  0  0
  133.4930  124.4140   62.8290 C   0  0  0  0  0  0  0  0  0  0  0  0
  134.7647  122.7256   61.2734 H   0  0  0  0  0  0  0  0  0  0  0  0
  133.4997  122.6260   60.0019 H   0  0  0  0  0  0  0  0  0  0  0  0
  134.6677  123.9908   60.0019 H   0  0  0  0  0  0  0  0  0  0  0  0
  131.6264  124.2898   59.9723 H   0  0  0  0  0  0  0  0  0  0  0  0
  130.0681  125.5917   61.4125 H   0  0  0  0  0  0  0  0  0  0  0  0
  129.1657  123.9080   64.5330 H   0  0  0  0  0  0  0  0  0  0  0  0
  130.8538  123.8783   65.0763 H   0  0  0  0  0  0  0  0  0  0  0  0
  128.3371  123.7608   66.6885 H   0  0  0  0  0  0  0  0  0  0  0  0
  129.9395  123.2537   67.1747 H   0  0  0  0  0  0  0  0  0  0  0  0
  129.1737  124.9548   69.4259 H   0  0  0  0  0  0  0  0  0  0  0  0
  129.4113  131.7847   75.5222 H   0  0  0  0  0  0  0  0  0  0  0  0
  130.4094  132.0483   74.0483 H   0  0  0  0  0  0  0  0  0  0  0  0
  127.6870  133.0230   74.6510 H   0  0  0  0  0  0  0  0  0  0  0  0
  127.3545  131.8750   72.5466 H   0  0  0  0  0  0  0  0  0  0  0  0
  127.1502  133.6569   72.3951 H   0  0  0  0  0  0  0  0  0  0  0  0
  129.5784  131.9648   71.6209 H   0  0  0  0  0  0  0  0  0  0  0  0
  128.5033  132.9829   70.5551 H   0  0  0  0  0  0  0  0  0  0  0  0
  130.6131  133.9837   69.6549 H   0  0  0  0  0  0  0  0  0  0  0  0
  132.2203  135.8639   69.8863 H   0  0  0  0  0  0  0  0  0  0  0  0
  132.4496  137.0381   72.0754 H   0  0  0  0  0  0  0  0  0  0  0  0
  131.0517  136.3433   74.0049 H   0  0  0  0  0  0  0  0  0  0  0  0
  129.7954  134.3960   75.0468 H   0  0  0  0  0  0  0  0  0  0  0  0
  128.3725  135.1782   74.2248 H   0  0  0  0  0  0  0  0  0  0  0  0
  127.9547  124.8752   72.5351 H   0  0  0  0  0  0  0  0  0  0  0  0
  127.1355  125.2453   70.9799 H   0  0  0  0  0  0  0  0  0  0  0  0
  128.8016  124.5736   70.9799 H   0  0  0  0  0  0  0  0  0  0  0  0
  129.6803  129.1273   68.4208 H   0  0  0  0  0  0  0  0  0  0  0  0
  129.9611  128.5180   66.0245 H   0  0  0  0  0  0  0  0  0  0  0  0
  132.9024  125.3723   64.6726 H   0  0  0  0  0  0  0  0  0  0  0  0
  134.4568  124.0691   63.2317 H   0  0  0  0  0  0  0  0  0  0  0  0
  1  2  1  0
  2  3  2  0
  3  4  1  0
  4  5  2  0
  5  6  1  0
  6  7  2  0
  6  8  1  0
  8  9  1  0
  9 10  1  0
 10 11  1  0
 11 12  2  0
 12 13  1  0
 13 14  1  0
 14 15  1  0
 15 16  2  0
 16 17  1  0
 17 18  2  0
 18 19  1  0
 18 20  1  0
 20 21  1  0
 21 22  1  0
 22 23  1  0
 23 24  1  0
 24 25  2  0
 25 26  1  0
 26 27  2  0
 27 28  1  0
 28 29  2  0
 29 30  1  0
 16 31  1  0
 31 32  1  0
 32 33  1  0
 13 34  2  0
 34 35  1  0
 35 36  2  0
  5 37  1  0
 37 38  2  0
 38  2  1  0
 36  8  1  0
 36 11  1  0
 32 14  2  0
 30 21  1  0
 29 24  1  0
  1 39  1  0
  1 40  1  0
  1 41  1  0
  3 42  1  0
  4 43  1  0
  9 44  1  0
  9 45  1  0
 10 46  1  0
 10 47  1  0
 12 48  1  0
 20 49  1  0
 20 50  1  0
 21 51  1  1
 22 52  1  0
 22 53  1  0
 23 54  1  0
 23 55  1  0
 25 56  1  0
 26 57  1  0
 27 58  1  0
 28 59  1  0
 30 60  1  0
 30 61  1  0
 33 62  1  0
 33 63  1  0
 33 64  1  0
 34 65  1  0
 35 66  1  0
 37 67  1  0
 38 68  1  0
M  CHG  2  19  -1  21   1
M  END
>  <Binding energies>  (1) 
[-9.75]

>  <Ligand effiencies>  (1) 
[-0.25]

>  <Interactions>  (1) 
["V-B:GLU:543:CD:9877, V-A:ARG:545:CZ:4923, V-A:ILE:369:CB:3232, H-A:ARG:545:NH2:4925, V-A:ILE:369:CG1:3234, V-A:ILE:369:CG2:3233, V-A:GLY:454:CA:4045, V-A:HIS:456:CE1:4066, V-A:GLU:543:CD:4905, V-A:TYR:484:CZ:4343, V-B:GLU:543:CA:9873, V-B:GLU:543:C:9871, V-B:GLU:543:CB:9875, V-B:HIS:456:CE1:9038, V-A:TYR:484:CE1:4341, V-B:GLY:544:C:9881, V-A:HIS:456:CD2:4064, V-B:HIS:456:CD2:9036, V-A:GLU:543:CB:4903, V-B:GLU:543:CG:9876, V-A:ASP:366:CG:3209, V-B:LYS:547:CE:9919, V-B:TYR:484:CD2:9312, V-B:TYR:484:CB:9309, V-B:ASP:473:CG:9208, V-B:TYR:484:CG:9310, V-A:LYS:547:CE:4947, V-A:VAL:542:C:4891, V-A:GLU:543:C:4899, H-A:LYS:547:NZ:4948, V-B:TYR:484:CD1:9311, V-A:GLU:543:CA:4901, V-A:GLY:544:CA:4911, V-B:GLY:544:CA:9883, H-B:ASP:473:OD1:9209, V-A:VAL:542:CG1:4896, V-A:VAL:542:CB:4895"]

$$$$
RR21_Rahimova_2017
     RDKit          3D

 62 67  0  0  0  0  0  0  0  0999 V2000
  124.2180  130.0280   65.2240 C   0  0  0  0  0  0  0  0  0  0  0  0
  125.5460  130.5210   65.0780 O   0  0  0  0  0  0  0  0  0  0  0  0
  126.6060  129.6350   65.1300 C   0  0  0  0  0  0  0  0  0  0  0  0
  127.5120  129.5480   66.2000 C   0  0  0  0  0  0  0  0  0  0  0  0
  128.5540  128.6220   66.1750 C   0  0  0  0  0  0  0  0  0  0  0  0
  128.7160  127.7580   65.0860 C   0  0  0  0  0  0  0  0  0  0  0  0
  129.8330  126.7600   65.0640 C   0  0  0  0  0  0  0  0  0  0  0  0
  130.0290  126.0190   63.9910 N   0  0  0  0  0  0  0  0  0  0  0  0
  131.0820  125.2310   64.2540 N   0  0  0  0  0  0  0  0  0  0  0  0
  131.5800  124.3130   63.2930 C   0  0  0  0  0  0  0  0  0  0  0  0
  132.7430  124.6000   62.5620 C   0  0  0  0  0  0  0  0  0  0  0  0
  133.2240  123.6890   61.6250 C   0  0  0  0  0  0  0  0  0  0  0  0
  132.5450  122.4910   61.4150 C   0  0  0  0  0  0  0  0  0  0  0  0
  131.3880  122.1960   62.1320 C   0  0  0  0  0  0  0  0  0  0  0  0
  130.9050  123.1050   63.0690 C   0  0  0  0  0  0  0  0  0  0  0  0
  131.5680  125.4930   65.5110 C   0  0  0  0  0  0  0  0  0  0  0  0
  130.7720  126.4760   66.0810 C   0  0  0  0  0  0  0  0  0  0  0  0
  130.9230  127.1120   67.3810 C   0  0  0  0  0  0  0  0  0  0  0  0
  130.0620  127.0980   68.4250 C   0  0  0  0  0  0  0  0  0  0  0  0
  128.4740  126.3050   68.5200 S   0  0  0  0  0  0  0  0  0  0  0  0
  128.3050  126.8740   70.1750 C   0  0  0  0  0  0  0  0  0  0  0  0
  127.3210  126.6610   70.9930 N   0  0  0  0  0  0  0  0  0  0  0  0
  127.3140  127.1730   72.3190 C   0  0  0  0  0  0  0  0  0  0  0  0
  126.4320  126.9990   73.1600 O   0  0  0  0  0  0  0  0  0  0  0  0
  128.5320  127.9860   72.6640 C   0  0  0  0  0  0  0  0  0  0  0  0
  128.6270  128.6070   74.0630 C   0  0  0  0  0  0  0  0  0  0  0  0
  127.3620  129.3340   74.5160 C   0  0  0  0  0  0  0  0  0  0  0  0
  126.4240  128.6750   75.3150 C   0  0  0  0  0  0  0  0  0  0  0  0
  125.2790  129.3440   75.7420 C   0  0  0  0  0  0  0  0  0  0  0  0
  125.0710  130.6740   75.3720 C   0  0  0  0  0  0  0  0  0  0  0  0
  123.8270  131.4020   75.8490 C   0  0  0  0  0  0  0  0  0  0  0  0
  126.0120  131.3380   74.5820 C   0  0  0  0  0  0  0  0  0  0  0  0
  127.1560  130.6700   74.1560 C   0  0  0  0  0  0  0  0  0  0  0  0
  129.5030  128.1950   71.8360 N   0  0  0  0  0  0  0  0  0  0  0  0
  129.3860  127.6210   70.5630 N   0  0  0  0  0  0  0  0  0  0  0  0
  130.3840  127.7940   69.6630 C   0  0  0  0  0  0  0  0  0  0  0  0
  131.4170  128.4430   69.8710 O   0  0  0  0  0  0  0  0  0  0  0  0
  127.8180  127.8480   64.0170 C   0  0  0  0  0  0  0  0  0  0  0  0
  126.7750  128.7740   64.0400 C   0  0  0  0  0  0  0  0  0  0  0  0
  125.9220  128.8350   62.9900 F   0  0  0  0  0  0  0  0  0  0  0  0
  123.9758  129.9381   66.2932 H   0  0  0  0  0  0  0  0  0  0  0  0
  123.5136  130.7246   64.7458 H   0  0  0  0  0  0  0  0  0  0  0  0
  124.1388  129.0406   64.7458 H   0  0  0  0  0  0  0  0  0  0  0  0
  127.3983  130.2168   67.0659 H   0  0  0  0  0  0  0  0  0  0  0  0
  129.2562  128.5700   67.0201 H   0  0  0  0  0  0  0  0  0  0  0  0
  133.2763  125.5474   62.7296 H   0  0  0  0  0  0  0  0  0  0  0  0
  134.1362  123.9145   61.0531 H   0  0  0  0  0  0  0  0  0  0  0  0
  132.9262  121.7711   60.6758 H   0  0  0  0  0  0  0  0  0  0  0  0
  130.8578  121.2480   61.9584 H   0  0  0  0  0  0  0  0  0  0  0  0
  129.9907  122.8747   63.6355 H   0  0  0  0  0  0  0  0  0  0  0  0
  132.4356  125.0088   65.9830 H   0  0  0  0  0  0  0  0  0  0  0  0
  131.8551  127.6756   67.5346 H   0  0  0  0  0  0  0  0  0  0  0  0
  128.8386  127.8028   74.7831 H   0  0  0  0  0  0  0  0  0  0  0  0
  129.4253  129.3624   74.0185 H   0  0  0  0  0  0  0  0  0  0  0  0
  126.5897  127.6275   75.6070 H   0  0  0  0  0  0  0  0  0  0  0  0
  124.5398  128.8250   76.3699 H   0  0  0  0  0  0  0  0  0  0  0  0
  123.8078  131.4132   76.9488 H   0  0  0  0  0  0  0  0  0  0  0  0
  123.8396  132.4353   75.4719 H   0  0  0  0  0  0  0  0  0  0  0  0
  122.9323  130.8849   75.4719 H   0  0  0  0  0  0  0  0  0  0  0  0
  125.8490  132.3878   74.2968 H   0  0  0  0  0  0  0  0  0  0  0  0
  127.8989  131.1929   73.5357 H   0  0  0  0  0  0  0  0  0  0  0  0
  127.9356  127.1818   63.1496 H   0  0  0  0  0  0  0  0  0  0  0  0
  1  2  1  0
  2  3  1  0
  3  4  2  0
  4  5  1  0
  5  6  2  0
  6  7  1  0
  7  8  2  0
  8  9  1  0
  9 10  1  0
 10 11  2  0
 11 12  1  0
 12 13  2  0
 13 14  1  0
 14 15  2  0
  9 16  1  0
 16 17  2  0
 17 18  1  0
 18 19  2  0
 19 20  1  0
 20 21  1  0
 21 22  2  0
 22 23  1  0
 23 24  2  0
 23 25  1  0
 25 26  1  0
 26 27  1  0
 27 28  2  0
 28 29  1  0
 29 30  2  0
 30 31  1  0
 30 32  1  0
 32 33  2  0
 25 34  2  0
 34 35  1  0
 35 36  1  0
 36 37  2  0
  6 38  1  0
 38 39  2  0
 39 40  1  0
 39  3  1  0
 17  7  1  0
 36 19  1  0
 15 10  1  0
 35 21  1  0
 33 27  1  0
  1 41  1  0
  1 42  1  0
  1 43  1  0
  4 44  1  0
  5 45  1  0
 11 46  1  0
 12 47  1  0
 13 48  1  0
 14 49  1  0
 15 50  1  0
 16 51  1  0
 18 52  1  0
 26 53  1  0
 26 54  1  0
 28 55  1  0
 29 56  1  0
 31 57  1  0
 31 58  1  0
 31 59  1  0
 32 60  1  0
 33 61  1  0
 38 62  1  0
M  END
>  <Binding energies>  (1) 
[-9.75]

>  <Ligand effiencies>  (1) 
[-0.24375]

>  <Interactions>  (1) 
["V-A:LEU:475:CD1:4254, V-B:GLU:543:CD:9877, V-B:TYR:539:CE2:9845, V-A:HIS:456:CE1:4066, V-A:GLU:543:CD:4905, V-A:GLU:543:CG:4904, V-B:GLU:543:CB:9875, V-B:HIS:456:CE1:9038, V-B:GLY:544:C:9881, V-B:HIS:456:CD2:9036, V-A:GLU:543:CB:4903, V-B:ARG:545:CZ:9895, V-B:GLY:454:CA:9017, H-B:TYR:484:OH:9316, V-B:ASP:366:CG:8181, V-B:LYS:547:CE:9919, V-B:ASP:473:CG:9208, V-B:ASP:473:CB:9207, V-B:HIS:456:CG:9034, V-A:LYS:547:CE:4947, V-B:HIS:456:C:9029, V-A:GLU:543:C:4899, V-B:VAL:457:CA:9043, V-B:HIS:456:CB:9033, V-B:VAL:458:CG2:9055, H-A:LYS:547:NZ:4948, V-B:LYS:471:CE:9188, H-A:ARG:545:N:4917, V-B:LYS:471:CB:9185, H-A:GLY:544:N:4912, V-B:LYS:471:C:9181"]

$$$$
RR22_Rahimova_2017
     RDKit          3D

 49 54  0  0  0  0  0  0  0  0999 V2000
  130.0080  129.6220   60.5620 O   0  0  0  0  0  0  0  0  0  0  0  0
  129.8770  128.4230   60.7950 C   0  0  0  0  0  0  0  0  0  0  0  0
  130.8740  127.5010   61.0650 N   0  0  0  0  0  0  0  0  0  0  0  0
  130.5460  126.1440   61.3770 C   0  0  1  0  0  0  0  0  0  0  0  0
  131.2710  125.3550   60.4300 O   0  0  0  0  0  0  0  0  0  0  0  0
  132.1970  124.4280   60.9100 C   0  0  0  0  0  0  0  0  0  0  0  0
  133.1340  123.9520   59.9920 C   0  0  0  0  0  0  0  0  0  0  0  0
  134.0660  122.9920   60.3880 C   0  0  0  0  0  0  0  0  0  0  0  0
  134.0550  122.5050   61.6950 C   0  0  0  0  0  0  0  0  0  0  0  0
  133.1170  122.9810   62.6130 C   0  0  0  0  0  0  0  0  0  0  0  0
  132.1930  123.9610   62.2380 C   0  0  0  0  0  0  0  0  0  0  0  0
  131.1120  124.5090   63.1420 C   0  0  1  0  0  0  0  0  0  0  0  0
  131.2950  124.6460   64.6400 C   0  0  0  0  0  0  0  0  0  0  0  0
  130.3900  125.8530   64.9050 C   0  0  0  0  0  0  0  0  0  0  0  0
  129.8870  126.1920   66.2510 C   0  0  0  0  0  0  0  0  0  0  0  0
  129.4730  125.1840   67.1330 C   0  0  0  0  0  0  0  0  0  0  0  0
  129.0000  125.5090   68.4010 C   0  0  0  0  0  0  0  0  0  0  0  0
  128.9370  126.8430   68.7950 C   0  0  0  0  0  0  0  0  0  0  0  0
  129.3450  127.8560   67.9310 C   0  0  0  0  0  0  0  0  0  0  0  0
  129.8190  127.5320   66.6620 C   0  0  0  0  0  0  0  0  0  0  0  0
  130.1690  126.5090   63.8280 N   0  0  0  0  0  0  0  0  0  0  0  0
  130.8660  125.8740   62.7870 N   0  0  0  0  0  0  0  0  0  0  0  0
  129.0670  125.9700   61.0630 C   0  0  0  0  0  0  0  0  0  0  0  0
  128.4840  124.7590   60.9080 C   0  0  0  0  0  0  0  0  0  0  0  0
  127.0690  124.4490   60.6240 C   0  0  0  0  0  0  0  0  0  0  0  0
  126.2230  125.3090   59.9100 C   0  0  0  0  0  0  0  0  0  0  0  0
  124.8950  124.9490   59.6800 C   0  0  0  0  0  0  0  0  0  0  0  0
  124.4400  123.7300   60.1800 C   0  0  0  0  0  0  0  0  0  0  0  0
  125.2320  122.8810   60.8820 N   0  0  0  0  0  0  0  0  0  0  0  0
  126.5220  123.2490   61.0940 C   0  0  0  0  0  0  0  0  0  0  0  0
  128.2860  127.5430   60.8400 S   0  0  0  0  0  0  0  0  0  0  0  0
  131.8470  127.7590   61.0030 H   0  0  0  0  0  0  0  0  0  0  0  0
  133.1379  124.3322   58.9598 H   0  0  0  0  0  0  0  0  0  0  0  0
  134.8100  122.6189   59.6688 H   0  0  0  0  0  0  0  0  0  0  0  0
  134.7871  121.7441   62.0032 H   0  0  0  0  0  0  0  0  0  0  0  0
  133.1048  122.5824   63.6382 H   0  0  0  0  0  0  0  0  0  0  0  0
  130.3528  123.7299   62.9788 H   0  0  0  0  0  0  0  0  0  0  0  0
  130.9501  123.7505   65.1777 H   0  0  0  0  0  0  0  0  0  0  0  0
  132.3370  124.7644   64.9721 H   0  0  0  0  0  0  0  0  0  0  0  0
  129.5223  124.1303   66.8212 H   0  0  0  0  0  0  0  0  0  0  0  0
  128.6770  124.7145   69.0897 H   0  0  0  0  0  0  0  0  0  0  0  0
  128.5619  127.0988   69.7969 H   0  0  0  0  0  0  0  0  0  0  0  0
  129.2932  128.9076   68.2494 H   0  0  0  0  0  0  0  0  0  0  0  0
  130.1418  128.3309   65.9782 H   0  0  0  0  0  0  0  0  0  0  0  0
  129.1525  123.8910   61.0066 H   0  0  0  0  0  0  0  0  0  0  0  0
  126.6064  126.2679   59.5310 H   0  0  0  0  0  0  0  0  0  0  0  0
  124.2220  125.6122   59.1167 H   0  0  0  0  0  0  0  0  0  0  0  0
  123.3936  123.4440   59.9976 H   0  0  0  0  0  0  0  0  0  0  0  0
  127.1710  122.5686   61.6649 H   0  0  0  0  0  0  0  0  0  0  0  0
  1  2  2  0
  2  3  1  0
  3  4  1  0
  4  5  1  6
  5  6  1  0
  6  7  2  0
  7  8  1  0
  8  9  2  0
  9 10  1  0
 10 11  2  0
 11 12  1  0
 12 13  1  0
 13 14  1  0
 14 15  1  0
 15 16  2  0
 16 17  1  0
 17 18  2  0
 18 19  1  0
 19 20  2  0
 14 21  2  0
 21 22  1  0
  4 23  1  0
 23 24  2  0
 24 25  1  0
 25 26  2  0
 26 27  1  0
 27 28  2  0
 28 29  1  0
 29 30  2  0
 23 31  1  0
 31  2  1  0
 22  4  1  0
 30 25  1  0
 11  6  1  0
 22 12  1  0
 20 15  1  0
  3 32  1  0
  7 33  1  0
  8 34  1  0
  9 35  1  0
 10 36  1  0
 12 37  1  1
 13 38  1  0
 13 39  1  0
 16 40  1  0
 17 41  1  0
 18 42  1  0
 19 43  1  0
 20 44  1  0
 24 45  1  0
 26 46  1  0
 27 47  1  0
 28 48  1  0
 30 49  1  0
M  END
>  <Binding energies>  (1) 
[-8.97]

>  <Ligand effiencies>  (1) 
[-0.2803125]

>  <Interactions>  (1) 
["V-A:LEU:475:CD1:4254, V-B:GLU:543:CD:9877, V-A:ILE:369:CB:3232, H-A:ASP:366:OD2:3211, V-A:ILE:369:CG1:3234, V-A:ILE:369:CG2:3233, V-A:GLY:454:CA:4045, V-A:HIS:456:CE1:4066, H-A:ASP:366:OD1:3210, V-A:GLU:543:CD:4905, V-B:GLU:543:CA:9873, V-B:GLU:543:C:9871, V-B:GLU:543:CB:9875, V-B:HIS:456:CE1:9038, V-A:TYR:484:CE1:4341, V-A:GLU:543:CB:4903, V-B:GLU:543:CG:9876, V-B:TYR:539:CZ:9846, H-B:ALA:541:N:9860, V-B:ALA:541:CB:9861, V-A:ASP:366:CG:3209, V-A:ASP:366:CB:3208, V-B:PRO:540:CB:9854, V-B:PRO:540:CA:9852, V-A:ASP:366:CA:3206, V-B:ALA:541:CA:9859"]

$$$$
RR23_Rahimova_2017
     RDKit          3D

 65 70  0  0  0  0  0  0  0  0999 V2000
  128.6890  133.9830   73.3770 C   0  0  0  0  0  0  0  0  0  0  0  0
  128.7500  132.4670   73.3630 C   0  0  0  0  0  0  0  0  0  0  0  0
  129.7510  131.8150   72.6410 C   0  0  0  0  0  0  0  0  0  0  0  0
  129.8120  130.4240   72.6360 C   0  0  0  0  0  0  0  0  0  0  0  0
  128.8660  129.6730   73.3440 C   0  0  0  0  0  0  0  0  0  0  0  0
  128.9620  128.1640   73.3430 C   0  0  0  0  0  0  0  0  0  0  0  0
  129.3700  127.6170   74.3700 O   0  0  0  0  0  0  0  0  0  0  0  0
  128.5850  127.4690   72.2280 N   0  0  0  0  0  0  0  0  0  0  0  0
  127.2470  126.8660   72.1130 C   0  0  0  0  0  0  0  0  0  0  0  0
  127.1460  126.3160   70.7000 C   0  0  0  0  0  0  0  0  0  0  0  0
  128.2930  126.9810   70.0010 C   0  0  0  0  0  0  0  0  0  0  0  0
  128.6510  126.9260   68.6540 C   0  0  0  0  0  0  0  0  0  0  0  0
  129.8600  127.4910   68.2180 C   0  0  0  0  0  0  0  0  0  0  0  0
  130.2920  127.4530   66.7440 C   0  0  2  0  0  0  0  0  0  0  0  0
  129.3330  128.1020   65.8760 N   0  0  0  0  0  0  0  0  0  0  0  0
  129.2930  127.5610   64.7260 C   0  0  0  0  0  0  0  0  0  0  0  0
  128.4960  127.8880   63.6720 N   0  0  0  0  0  0  0  0  0  0  0  0
  127.4660  128.7670   63.6370 C   0  0  0  0  0  0  0  0  0  0  0  0
  127.0920  129.4710   64.5780 O   0  0  0  0  0  0  0  0  0  0  0  0
  126.7220  128.8630   62.2950 C   0  0  0  0  0  0  0  0  0  0  0  0
  125.9310  130.1130   62.2670 N   0  0  0  0  0  0  0  0  0  0  0  0
  124.8250  130.1370   63.1060 N   0  0  0  0  0  0  0  0  0  0  0  0
  124.0500  131.1720   63.1740 N   0  0  0  0  0  0  0  0  0  0  0  0
  124.3230  132.2970   62.3920 C   0  0  0  0  0  0  0  0  0  0  0  0
  123.4660  133.3960   62.4870 C   0  0  0  0  0  0  0  0  0  0  0  0
  123.7120  134.5340   61.7170 C   0  0  0  0  0  0  0  0  0  0  0  0
  124.8100  134.5750   60.8550 C   0  0  0  0  0  0  0  0  0  0  0  0
  125.6670  133.4770   60.7580 C   0  0  0  0  0  0  0  0  0  0  0  0
  125.4210  132.3360   61.5310 C   0  0  0  0  0  0  0  0  0  0  0  0
  126.3340  131.1360   61.4380 C   0  0  0  0  0  0  0  0  0  0  0  0
  127.3190  131.0790   60.6950 O   0  0  0  0  0  0  0  0  0  0  0  0
  130.4000  126.1880   64.4370 S   0  0  0  0  0  0  0  0  0  0  0  0
  130.6340  126.0400   66.2170 C   0  0  2  0  0  0  0  0  0  0  0  0
  129.7680  124.8760   66.7430 C   0  0  0  0  0  0  0  0  0  0  0  0
  130.7170  128.0640   69.1640 C   0  0  0  0  0  0  0  0  0  0  0  0
  130.3690  128.1000   70.5150 C   0  0  0  0  0  0  0  0  0  0  0  0
  129.1250  127.6070   70.9300 C   0  0  0  0  0  0  0  0  0  0  0  0
  127.8810  130.3350   74.0890 C   0  0  0  0  0  0  0  0  0  0  0  0
  127.8210  131.7260   74.0950 C   0  0  0  0  0  0  0  0  0  0  0  0
  128.6746  134.3398   74.4174 H   0  0  0  0  0  0  0  0  0  0  0  0
  129.5715  134.3902   72.8619 H   0  0  0  0  0  0  0  0  0  0  0  0
  127.7766  134.3180   72.8619 H   0  0  0  0  0  0  0  0  0  0  0  0
  130.4916  132.4001   72.0760 H   0  0  0  0  0  0  0  0  0  0  0  0
  130.6070  129.9128   72.0733 H   0  0  0  0  0  0  0  0  0  0  0  0
  127.1308  126.0546   72.8466 H   0  0  0  0  0  0  0  0  0  0  0  0
  126.4572  127.6056   72.3111 H   0  0  0  0  0  0  0  0  0  0  0  0
  127.2580  125.2217   70.6920 H   0  0  0  0  0  0  0  0  0  0  0  0
  126.1737  126.5130   70.2249 H   0  0  0  0  0  0  0  0  0  0  0  0
  127.9827  126.4375   67.9297 H   0  0  0  0  0  0  0  0  0  0  0  0
  131.2310  128.0254   66.7196 H   0  0  0  0  0  0  0  0  0  0  0  0
  128.6630  127.3780   62.8180 H   0  0  0  0  0  0  0  0  0  0  0  0
  127.4498  128.8694   61.4702 H   0  0  0  0  0  0  0  0  0  0  0  0
  126.0518  127.9983   62.1807 H   0  0  0  0  0  0  0  0  0  0  0  0
  122.6009  133.3648   63.1657 H   0  0  0  0  0  0  0  0  0  0  0  0
  123.0390  135.4011   61.7894 H   0  0  0  0  0  0  0  0  0  0  0  0
  125.0001  135.4745   60.2510 H   0  0  0  0  0  0  0  0  0  0  0  0
  126.5309  133.5083   60.0778 H   0  0  0  0  0  0  0  0  0  0  0  0
  131.6453  125.7721   66.5568 H   0  0  0  0  0  0  0  0  0  0  0  0
  129.7732  124.8830   67.8430 H   0  0  0  0  0  0  0  0  0  0  0  0
  128.7361  124.9937   66.3805 H   0  0  0  0  0  0  0  0  0  0  0  0
  130.1773  123.9215   66.3805 H   0  0  0  0  0  0  0  0  0  0  0  0
  131.6770  128.4914   68.8388 H   0  0  0  0  0  0  0  0  0  0  0  0
  131.0708  128.5151   71.2534 H   0  0  0  0  0  0  0  0  0  0  0  0
  127.1518  129.7530   74.6718 H   0  0  0  0  0  0  0  0  0  0  0  0
  127.0418  132.2407   74.6764 H   0  0  0  0  0  0  0  0  0  0  0  0
  1  2  1  0
  2  3  2  0
  3  4  1  0
  4  5  2  0
  5  6  1  0
  6  7  2  0
  6  8  1  0
  8  9  1  0
  9 10  1  0
 10 11  1  0
 11 12  2  0
 12 13  1  0
 13 14  1  0
 14 15  1  0
 15 16  2  0
 16 17  1  0
 17 18  1  0
 18 19  2  0
 18 20  1  0
 20 21  1  0
 21 22  1  0
 22 23  2  0
 23 24  1  0
 24 25  2  0
 25 26  1  0
 26 27  2  0
 27 28  1  0
 28 29  2  0
 29 30  1  0
 30 31  2  0
 16 32  1  0
 32 33  1  0
 33 34  1  0
 13 35  2  0
 35 36  1  0
 36 37  2  0
  5 38  1  0
 38 39  2  0
 39  2  1  0
 37  8  1  0
 37 11  1  0
 33 14  1  0
 30 21  1  0
 29 24  1  0
  1 40  1  0
  1 41  1  0
  1 42  1  0
  3 43  1  0
  4 44  1  0
  9 45  1  0
  9 46  1  0
 10 47  1  0
 10 48  1  0
 12 49  1  0
 14 50  1  1
 17 51  1  0
 20 52  1  0
 20 53  1  0
 25 54  1  0
 26 55  1  0
 27 56  1  0
 28 57  1  0
 33 58  1  6
 34 59  1  0
 34 60  1  0
 34 61  1  0
 35 62  1  0
 36 63  1  0
 38 64  1  0
 39 65  1  0
M  END
>  <Binding energies>  (1) 
[-10.02]

>  <Ligand effiencies>  (1) 
[-0.2505]

>  <Interactions>  (1) 
["V-B:GLU:543:CD:9877, H-A:GLU:543:OE2:4907, V-A:HIS:456:CE1:4066, V-A:GLU:543:CD:4905, V-A:TYR:484:CZ:4343, V-B:GLU:543:C:9871, V-B:GLU:543:CB:9875, V-B:HIS:456:CE1:9038, V-A:TYR:484:CE1:4341, V-B:GLY:544:C:9881, V-B:HIS:456:CD2:9036, V-A:GLU:543:CB:4903, V-B:GLU:543:CG:9876, V-B:ILE:369:CD1:8207, V-B:ILE:369:CG2:8205, V-B:TRP:381:CH2:8340, V-B:GLY:454:CA:9017, V-B:LEU:475:CD2:9227, V-B:ASP:366:CG:8181, H-B:ARG:545:NH2:9897, V-B:LYS:547:CE:9919, V-B:TYR:484:CB:9309, V-B:TYR:484:CG:9310, V-B:HIS:456:CG:9034, V-A:LYS:547:CE:4947, V-A:GLU:543:C:4899, H-A:LYS:547:NZ:4948, H-B:GLY:454:N:9018, V-A:GLY:544:CA:4911, V-A:GLY:544:C:4909, V-B:GLY:544:CA:9883, H-B:GLU:543:OE2:9879"]

$$$$
RR24_Rahimova_2017
     RDKit          3D

 65 71  0  0  0  0  0  0  0  0999 V2000
  129.6840  129.2880   72.2460 C   0  0  0  0  0  0  0  0  0  0  0  0
  128.6840  128.2240   72.7200 C   0  0  2  0  0  0  0  0  0  0  0  0
  128.2020  127.2820   71.5770 C   0  0  0  0  0  0  0  0  0  0  0  0
  127.0040  127.0810   71.3540 O   0  0  0  0  0  0  0  0  0  0  0  0
  129.2390  126.7080   70.9000 O   0  0  0  0  0  0  0  0  0  0  0  0
  129.3330  126.8680   69.5360 C   0  0  0  0  0  0  0  0  0  0  0  0
  130.2740  127.7570   69.0140 C   0  0  0  0  0  0  0  0  0  0  0  0
  130.3840  127.9200   67.6370 C   0  0  0  0  0  0  0  0  0  0  0  0
  129.5600  127.1910   66.7750 C   0  0  0  0  0  0  0  0  0  0  0  0
  129.6730  127.3890   65.2590 C   0  0  1  0  0  0  0  0  0  0  0  0
  130.0770  126.0840   64.5330 C   0  0  0  0  0  0  0  0  0  0  0  0
  129.4010  125.5990   63.4770 C   0  0  0  0  0  0  0  0  0  0  0  0
  128.2940  126.2290   62.9630 N   0  0  0  0  0  0  0  0  0  0  0  0
  127.8190  127.3970   63.5110 C   0  0  0  0  0  0  0  0  0  0  0  0
  126.7240  127.8970   62.8820 N   0  0  0  0  0  0  0  0  0  0  0  0
  126.0690  129.0020   63.3300 C   0  0  0  0  0  0  0  0  0  0  0  0
  124.9240  129.2270   62.9310 O   0  0  0  0  0  0  0  0  0  0  0  0
  126.7300  129.6800   64.3420 N   0  0  0  0  0  0  0  0  0  0  0  0
  126.1060  130.9390   64.8020 C   0  0  0  0  0  0  0  0  0  0  0  0
  127.8440  129.2640   65.0500 C   0  0  0  0  0  0  0  0  0  0  0  0
  128.3520  129.8990   65.9790 O   0  0  0  0  0  0  0  0  0  0  0  0
  128.4040  127.9910   64.5840 C   0  0  0  0  0  0  0  0  0  0  0  0
  130.0020  124.3640   63.0000 C   0  0  0  0  0  0  0  0  0  0  0  0
  129.6830  123.4900   61.9600 C   0  0  0  0  0  0  0  0  0  0  0  0
  130.4770  122.3590   61.7530 C   0  0  0  0  0  0  0  0  0  0  0  0
  131.5780  122.1110   62.5770 C   0  0  0  0  0  0  0  0  0  0  0  0
  131.8930  122.9900   63.6170 C   0  0  0  0  0  0  0  0  0  0  0  0
  131.0950  124.1180   63.8200 C   0  0  0  0  0  0  0  0  0  0  0  0
  131.1980  125.1970   64.8250 C   0  0  0  0  0  0  0  0  0  0  0  0
  132.0220  125.3590   65.7250 O   0  0  0  0  0  0  0  0  0  0  0  0
  128.6310  126.2870   67.3000 C   0  0  0  0  0  0  0  0  0  0  0  0
  128.5220  126.1220   68.6780 C   0  0  0  0  0  0  0  0  0  0  0  0
  127.5470  128.8210   73.4810 N   0  0  0  0  0  0  0  0  0  0  0  0
  127.5250  130.1430   73.8090 C   0  0  0  0  0  0  0  0  0  0  0  0
  128.3820  130.9920   73.5530 O   0  0  0  0  0  0  0  0  0  0  0  0
  126.2490  130.3480   74.5390 C   0  0  0  0  0  0  0  0  0  0  0  0
  125.6980  131.4960   75.1100 C   0  0  0  0  0  0  0  0  0  0  0  0
  124.4550  131.3960   75.7450 C   0  0  0  0  0  0  0  0  0  0  0  0
  123.7870  130.1660   75.8010 C   0  0  0  0  0  0  0  0  0  0  0  0
  124.3560  129.0270   75.2220 C   0  0  0  0  0  0  0  0  0  0  0  0
  125.5970  129.1460   74.5940 C   0  0  0  0  0  0  0  0  0  0  0  0
  126.4370  128.1390   73.9000 C   0  0  0  0  0  0  0  0  0  0  0  0
  126.1850  126.9450   73.7330 O   0  0  0  0  0  0  0  0  0  0  0  0
  130.1421  129.7755   73.1192 H   0  0  0  0  0  0  0  0  0  0  0  0
  130.4677  128.8104   71.6396 H   0  0  0  0  0  0  0  0  0  0  0  0
  129.1587  130.0406   71.6396 H   0  0  0  0  0  0  0  0  0  0  0  0
  129.2365  127.5814   73.4213 H   0  0  0  0  0  0  0  0  0  0  0  0
  130.9274  128.3277   69.6903 H   0  0  0  0  0  0  0  0  0  0  0  0
  131.1216  128.6246   67.2253 H   0  0  0  0  0  0  0  0  0  0  0  0
  130.4723  128.1367   65.1488 H   0  0  0  0  0  0  0  0  0  0  0  0
  127.8180  125.8310   62.1660 H   0  0  0  0  0  0  0  0  0  0  0  0
  126.3420  127.4400   62.0670 H   0  0  0  0  0  0  0  0  0  0  0  0
  126.0945  130.9621   65.9017 H   0  0  0  0  0  0  0  0  0  0  0  0
  126.6843  131.7946   64.4233 H   0  0  0  0  0  0  0  0  0  0  0  0
  125.0749  130.9969   64.4233 H   0  0  0  0  0  0  0  0  0  0  0  0
  128.8173  123.6889   61.3112 H   0  0  0  0  0  0  0  0  0  0  0  0
  130.2344  121.6611   60.9381 H   0  0  0  0  0  0  0  0  0  0  0  0
  132.1997  121.2198   62.4063 H   0  0  0  0  0  0  0  0  0  0  0  0
  132.7586  122.7958   64.2674 H   0  0  0  0  0  0  0  0  0  0  0  0
  127.9863  125.7062   66.6239 H   0  0  0  0  0  0  0  0  0  0  0  0
  127.7976  125.4045   69.0908 H   0  0  0  0  0  0  0  0  0  0  0  0
  126.2290  132.4582   75.0620 H   0  0  0  0  0  0  0  0  0  0  0  0
  124.0004  132.2873   76.2022 H   0  0  0  0  0  0  0  0  0  0  0  0
  122.8106  130.0956   76.3026 H   0  0  0  0  0  0  0  0  0  0  0  0
  123.8366  128.0581   75.2607 H   0  0  0  0  0  0  0  0  0  0  0  0
  1  2  1  0
  2  3  1  0
  3  4  2  0
  3  5  1  0
  5  6  1  0
  6  7  2  0
  7  8  1  0
  8  9  2  0
  9 10  1  0
 10 11  1  0
 11 12  2  0
 12 13  1  0
 13 14  1  0
 14 15  1  0
 15 16  1  0
 16 17  2  0
 16 18  1  0
 18 19  1  0
 18 20  1  0
 20 21  2  0
 20 22  1  0
 12 23  1  0
 23 24  2  0
 24 25  1  0
 25 26  2  0
 26 27  1  0
 27 28  2  0
 28 29  1  0
 29 30  2  0
  9 31  1  0
 31 32  2  0
  2 33  1  0
 33 34  1  0
 34 35  2  0
 34 36  1  0
 36 37  2  0
 37 38  1  0
 38 39  2  0
 39 40  1  0
 40 41  2  0
 41 42  1  0
 42 43  2  0
 32  6  1  0
 42 33  1  0
 22 10  1  0
 28 23  1  0
 41 36  1  0
 29 11  1  0
 22 14  2  0
  1 44  1  0
  1 45  1  0
  1 46  1  0
  2 47  1  1
  7 48  1  0
  8 49  1  0
 10 50  1  1
 13 51  1  0
 15 52  1  0
 19 53  1  0
 19 54  1  0
 19 55  1  0
 24 56  1  0
 25 57  1  0
 26 58  1  0
 27 59  1  0
 31 60  1  0
 32 61  1  0
 37 62  1  0
 38 63  1  0
 39 64  1  0
 40 65  1  0
M  END
>  <Binding energies>  (1) 
[-9.6]

>  <Ligand effiencies>  (1) 
[-0.21333333333333332]

>  <Interactions>  (1) 
["V-A:LEU:475:CD1:4254, V-B:GLU:543:CD:9877, V-B:TYR:539:CE2:9845, V-A:HIS:456:CE1:4066, V-A:GLU:543:CD:4905, V-A:GLU:543:CG:4904, V-B:GLU:543:C:9871, V-B:GLU:543:CB:9875, V-B:HIS:456:CD2:9036, V-A:GLU:543:CB:4903, V-B:GLU:543:CG:9876, V-B:ARG:545:CZ:9895, V-B:ALA:541:CB:9861, H-B:ASP:366:OD1:8182, H-B:ARG:545:NH2:9897, H-A:TYR:484:OH:4344, H-B:GLU:543:OE1:9878, V-B:LYS:547:CE:9919, V-B:VAL:457:C:9041, V-B:ASP:473:CG:9208, V-B:ASP:473:CB:9207, V-B:HIS:456:CG:9034, V-A:LYS:547:CE:4947, V-B:HIS:456:C:9029, V-A:GLU:543:C:4899, V-B:VAL:457:CA:9043, V-B:HIS:456:CB:9033, V-B:HIS:456:CA:9031, V-B:VAL:458:CG2:9055, V-B:LYS:471:CE:9188, V-B:TYR:484:CZ:9315, H-B:GLU:543:OE2:9879, V-B:LYS:471:CB:9185"]

$$$$
RR24_Rahimova_2017-again1
     RDKit          3D

 63 69  0  0  0  0  0  0  0  0999 V2000
  127.8860  134.2390   60.6780 C   0  0  0  0  0  0  0  0  0  0  0  0
  127.7650  132.8480   60.0420 C   0  0  2  0  0  0  0  0  0  0  0  0
  127.0020  131.8260   60.9350 C   0  0  0  0  0  0  0  0  0  0  0  0
  125.7810  131.8990   61.1170 O   0  0  0  0  0  0  0  0  0  0  0  0
  127.8290  130.8910   61.4900 O   0  0  0  0  0  0  0  0  0  0  0  0
  127.8730  129.6220   60.9600 C   0  0  0  0  0  0  0  0  0  0  0  0
  128.1720  128.5400   61.7900 C   0  0  0  0  0  0  0  0  0  0  0  0
  128.1990  127.2510   61.2670 C   0  0  0  0  0  0  0  0  0  0  0  0
  127.9190  127.0350   59.9140 C   0  0  0  0  0  0  0  0  0  0  0  0
  127.9480  125.6140   59.3320 C   0  0  1  0  0  0  0  0  0  0  0  0
  129.2360  124.8640   59.7440 C   0  0  0  0  0  0  0  0  0  0  0  0
  130.5420  125.0850   59.4740 C   0  0  0  0  0  0  0  0  0  0  0  0
  130.9910  126.0330   58.7240 O   0  0  0  0  0  0  0  0  0  0  0  0
  131.3770  124.1120   60.1780 C   0  0  0  0  0  0  0  0  0  0  0  0
  132.7640  123.9250   60.2380 C   0  0  0  0  0  0  0  0  0  0  0  0
  133.2860  122.8920   61.0180 C   0  0  0  0  0  0  0  0  0  0  0  0
  132.4300  122.0500   61.7300 C   0  0  0  0  0  0  0  0  0  0  0  0
  131.0480  122.2390   61.6650 C   0  0  0  0  0  0  0  0  0  0  0  0
  130.5270  123.2760   60.8880 C   0  0  0  0  0  0  0  0  0  0  0  0
  129.1660  123.7030   60.6150 C   0  0  0  0  0  0  0  0  0  0  0  0
  128.0540  123.2080   61.0110 N   0  0  0  0  0  0  0  0  0  0  0  0
  126.8590  123.6730   60.5490 C   0  0  0  0  0  0  0  0  0  0  0  0
  125.7970  122.9180   60.9560 N   0  0  0  0  0  0  0  0  0  0  0  0
  124.6090  123.2600   60.6030 C   0  0  0  0  0  0  0  0  0  0  0  0
  123.7210  122.5040   61.0340 O   0  0  0  0  0  0  0  0  0  0  0  0
  124.3590  124.3760   59.8060 N   0  0  0  0  0  0  0  0  0  0  0  0
  123.0020  124.7960   59.3850 C   0  0  0  0  0  0  0  0  0  0  0  0
  125.3720  125.1880   59.3340 C   0  0  0  0  0  0  0  0  0  0  0  0
  125.1970  126.1710   58.6070 O   0  0  0  0  0  0  0  0  0  0  0  0
  126.7150  124.7840   59.7610 C   0  0  0  0  0  0  0  0  0  0  0  0
  127.6070  128.1200   59.0890 C   0  0  0  0  0  0  0  0  0  0  0  0
  127.5780  129.4090   59.6110 C   0  0  0  0  0  0  0  0  0  0  0  0
  129.0860  132.3240   59.5840 N   0  0  0  0  0  0  0  0  0  0  0  0
  130.0980  132.0770   60.4620 C   0  0  0  0  0  0  0  0  0  0  0  0
  130.0870  132.2370   61.6840 O   0  0  0  0  0  0  0  0  0  0  0  0
  131.2230  131.5720   59.6350 C   0  0  0  0  0  0  0  0  0  0  0  0
  132.5100  131.1650   59.9920 C   0  0  0  0  0  0  0  0  0  0  0  0
  133.3770  130.7280   58.9850 C   0  0  0  0  0  0  0  0  0  0  0  0
  132.9530  130.7010   57.6500 C   0  0  0  0  0  0  0  0  0  0  0  0
  131.6590  131.1120   57.3120 C   0  0  0  0  0  0  0  0  0  0  0  0
  130.8100  131.5460   58.3310 C   0  0  0  0  0  0  0  0  0  0  0  0
  129.4070  132.0310   58.2870 C   0  0  0  0  0  0  0  0  0  0  0  0
  128.6880  132.1430   57.2950 O   0  0  0  0  0  0  0  0  0  0  0  0
  127.8777  134.1431   61.7738 H   0  0  0  0  0  0  0  0  0  0  0  0
  128.8283  134.7077   60.3581 H   0  0  0  0  0  0  0  0  0  0  0  0
  127.0388  134.8634   60.3581 H   0  0  0  0  0  0  0  0  0  0  0  0
  127.1418  132.9806   59.1453 H   0  0  0  0  0  0  0  0  0  0  0  0
  128.3860  128.7064   62.8561 H   0  0  0  0  0  0  0  0  0  0  0  0
  128.4413  126.3993   61.9197 H   0  0  0  0  0  0  0  0  0  0  0  0
  127.9278  125.7282   58.2381 H   0  0  0  0  0  0  0  0  0  0  0  0
  133.4371  124.5877   59.6743 H   0  0  0  0  0  0  0  0  0  0  0  0
  134.3743  122.7410   61.0718 H   0  0  0  0  0  0  0  0  0  0  0  0
  132.8448  121.2364   62.3432 H   0  0  0  0  0  0  0  0  0  0  0  0
  130.3726  121.5740   62.2233 H   0  0  0  0  0  0  0  0  0  0  0  0
  122.3846  124.9871   60.2752 H   0  0  0  0  0  0  0  0  0  0  0  0
  123.0725  125.7144   58.7836 H   0  0  0  0  0  0  0  0  0  0  0  0
  122.5414  123.9984   58.7836 H   0  0  0  0  0  0  0  0  0  0  0  0
  127.3840  127.9538   58.0247 H   0  0  0  0  0  0  0  0  0  0  0  0
  127.3230  130.2600   58.9623 H   0  0  0  0  0  0  0  0  0  0  0  0
  132.8352  131.1875   61.0426 H   0  0  0  0  0  0  0  0  0  0  0  0
  134.3962  130.4041   59.2425 H   0  0  0  0  0  0  0  0  0  0  0  0
  133.6405  130.3551   56.8640 H   0  0  0  0  0  0  0  0  0  0  0  0
  131.3184  131.0934   56.2662 H   0  0  0  0  0  0  0  0  0  0  0  0
  1  2  1  0
  2  3  1  0
  3  4  2  0
  3  5  1  0
  5  6  1  0
  6  7  2  0
  7  8  1  0
  8  9  2  0
  9 10  1  0
 10 11  1  0
 11 12  2  0
 12 13  1  0
 12 14  1  0
 14 15  2  0
 15 16  1  0
 16 17  2  0
 17 18  1  0
 18 19  2  0
 19 20  1  0
 20 21  2  0
 21 22  1  0
 22 23  1  0
 23 24  2  0
 24 25  1  0
 24 26  1  0
 26 27  1  0
 26 28  1  0
 28 29  2  0
 28 30  1  0
  9 31  1  0
 31 32  2  0
  2 33  1  0
 33 34  1  0
 34 35  2  0
 34 36  1  0
 36 37  2  0
 37 38  1  0
 38 39  2  0
 39 40  1  0
 40 41  2  0
 41 42  1  0
 42 43  2  0
 32  6  1  0
 42 33  1  0
 30 10  1  0
 41 36  1  0
 20 11  1  0
 30 22  2  0
 19 14  1  0
  1 44  1  0
  1 45  1  0
  1 46  1  0
  2 47  1  6
  7 48  1  0
  8 49  1  0
 10 50  1  6
 15 51  1  0
 16 52  1  0
 17 53  1  0
 18 54  1  0
 27 55  1  0
 27 56  1  0
 27 57  1  0
 31 58  1  0
 32 59  1  0
 37 60  1  0
 38 61  1  0
 39 62  1  0
 40 63  1  0
M  CHG  2  13  -1  25  -1
M  END
>  <Binding energies>  (1) 
[-8.48]

>  <Ligand effiencies>  (1) 
[-0.1972093023255814]

>  <Interactions>  (1) 
["V-A:LEU:475:CD1:4254, V-B:TYR:539:CE2:9845, V-A:ALA:541:CB:4889, V-A:TYR:539:CD2:4871, V-B:TYR:539:CZ:9846, H-B:ALA:541:N:9860, V-B:ASP:366:CB:8180, V-B:ASP:366:CG:8181, V-A:ASP:366:CG:3209, V-A:PRO:540:CA:4880, V-A:PRO:540:N:4881, V-A:PRO:540:CB:4882, H-A:ALA:541:N:4888, V-A:TYR:539:C:4864, V-A:LEU:363:CA:3181, V-A:ASN:362:C:3168, V-B:LEU:363:CD1:8157, V-B:PRO:540:CB:9854, V-B:LEU:363:CA:8153, V-B:PRO:540:C:9850, V-B:PRO:540:CA:9852, V-B:LEU:363:CB:8155, V-B:ASN:362:C:8140, H-B:TYR:531:OH:9764, V-A:LEU:363:CD1:3185, V-A:PRO:540:C:4878"]

$$$$
RR25_Rahimova_2017
     RDKit          3D

 63 68  0  0  0  0  0  0  0  0999 V2000
  134.0350  124.7080   65.5320 O   0  0  0  0  0  0  0  0  0  0  0  0
  133.3360  124.9640   64.5510 C   0  0  0  0  0  0  0  0  0  0  0  0
  133.9060  124.7340   63.3230 O   0  0  0  0  0  0  0  0  0  0  0  0
  133.1510  124.7420   62.1640 C   0  0  0  0  0  0  0  0  0  0  0  0
  133.6340  123.9890   61.0960 C   0  0  0  0  0  0  0  0  0  0  0  0
  132.9280  123.9590   59.8950 C   0  0  0  0  0  0  0  0  0  0  0  0
  131.7360  124.6830   59.7430 C   0  0  0  0  0  0  0  0  0  0  0  0
  130.9820  124.6430   58.4660 N   0  0  0  0  0  0  0  0  0  0  0  0
  129.9340  124.0040   58.4220 O   0  0  0  0  0  0  0  0  0  0  0  0
  131.4330  125.2490   57.4990 O   0  0  0  0  0  0  0  0  0  0  0  0
  131.2730  125.4450   60.8280 C   0  0  0  0  0  0  0  0  0  0  0  0
  131.9730  125.4920   62.0370 C   0  0  0  0  0  0  0  0  0  0  0  0
  131.5090  126.2920   63.2410 C   0  0  0  0  0  0  0  0  0  0  0  0
  131.8890  125.5390   64.5470 C   0  0  2  0  0  0  0  0  0  0  0  0
  131.5170  126.3760   65.8050 C   0  0  0  0  0  0  0  0  0  0  0  0
  132.4480  126.6570   66.5660 O   0  0  0  0  0  0  0  0  0  0  0  0
  130.2610  126.8830   65.9970 N   0  0  0  0  0  0  0  0  0  0  0  0
  129.0670  126.3400   65.3150 C   0  0  0  0  0  0  0  0  0  0  0  0
  128.1130  127.5040   64.9720 C   0  0  0  0  0  0  0  0  0  0  0  0
  127.7800  128.2920   66.1620 N   0  0  0  0  0  0  0  0  0  0  0  0
  126.7710  129.3170   65.8640 C   0  0  0  0  0  0  0  0  0  0  0  0
  126.0660  129.0900   64.4990 C   0  0  0  0  0  0  0  0  0  0  0  0
  126.0500  130.2550   63.5670 N   0  0  0  0  0  0  0  0  0  0  0  0
  124.8710  130.9690   63.5380 C   0  0  0  0  0  0  0  0  0  0  0  0
  123.8750  130.6590   64.2020 O   0  0  0  0  0  0  0  0  0  0  0  0
  124.8930  132.1880   62.6350 C   0  0  0  0  0  0  0  0  0  0  0  0
  123.7560  133.0010   62.5500 C   0  0  0  0  0  0  0  0  0  0  0  0
  123.7440  134.1330   61.7370 C   0  0  0  0  0  0  0  0  0  0  0  0
  124.8650  134.4900   60.9890 C   0  0  0  0  0  0  0  0  0  0  0  0
  126.0370  133.6980   61.0440 C   0  0  0  0  0  0  0  0  0  0  0  0
  127.2100  134.0030   60.3130 C   0  0  0  0  0  0  0  0  0  0  0  0
  128.3310  133.1820   60.4150 C   0  0  0  0  0  0  0  0  0  0  0  0
  128.3200  132.0530   61.2320 C   0  0  0  0  0  0  0  0  0  0  0  0
  127.1820  131.7120   61.9740 C   0  0  0  0  0  0  0  0  0  0  0  0
  126.0370  132.5440   61.8760 C   0  0  0  0  0  0  0  0  0  0  0  0
  127.2120  130.4800   62.8580 C   0  0  0  0  0  0  0  0  0  0  0  0
  128.2100  129.7560   62.9400 O   0  0  0  0  0  0  0  0  0  0  0  0
  128.9970  128.8790   66.7260 C   0  0  0  0  0  0  0  0  0  0  0  0
  130.0180  127.7920   67.1390 C   0  0  0  0  0  0  0  0  0  0  0  0
  134.5696  123.4200   61.2005 H   0  0  0  0  0  0  0  0  0  0  0  0
  133.3102  123.3599   59.0553 H   0  0  0  0  0  0  0  0  0  0  0  0
  130.3393  126.0172   60.7242 H   0  0  0  0  0  0  0  0  0  0  0  0
  131.9943  127.2791   63.2334 H   0  0  0  0  0  0  0  0  0  0  0  0
  130.4171  126.4175   63.1968 H   0  0  0  0  0  0  0  0  0  0  0  0
  131.2691  124.6312   64.5874 H   0  0  0  0  0  0  0  0  0  0  0  0
  129.3712  125.8275   64.3904 H   0  0  0  0  0  0  0  0  0  0  0  0
  128.5564  125.6221   65.9737 H   0  0  0  0  0  0  0  0  0  0  0  0
  128.5987  128.1589   64.2337 H   0  0  0  0  0  0  0  0  0  0  0  0
  127.1825  127.0804   64.5662 H   0  0  0  0  0  0  0  0  0  0  0  0
  126.0106  129.3029   66.6587 H   0  0  0  0  0  0  0  0  0  0  0  0
  127.2892  130.2859   65.8115 H   0  0  0  0  0  0  0  0  0  0  0  0
  126.5777  128.2597   63.9904 H   0  0  0  0  0  0  0  0  0  0  0  0
  125.0116  128.8902   64.7405 H   0  0  0  0  0  0  0  0  0  0  0  0
  122.8598  132.7426   63.1331 H   0  0  0  0  0  0  0  0  0  0  0  0
  122.8372  134.7535   61.6848 H   0  0  0  0  0  0  0  0  0  0  0  0
  124.8387  135.3886   60.3551 H   0  0  0  0  0  0  0  0  0  0  0  0
  127.2366  134.8900   59.6630 H   0  0  0  0  0  0  0  0  0  0  0  0
  129.2375  133.4284   59.8426 H   0  0  0  0  0  0  0  0  0  0  0  0
  129.2179  131.4206   61.2950 H   0  0  0  0  0  0  0  0  0  0  0  0
  129.4589  129.5343   65.9729 H   0  0  0  0  0  0  0  0  0  0  0  0
  128.7186  129.4477   67.6255 H   0  0  0  0  0  0  0  0  0  0  0  0
  130.9635  128.2705   67.4342 H   0  0  0  0  0  0  0  0  0  0  0  0
  129.6176  127.2164   67.9866 H   0  0  0  0  0  0  0  0  0  0  0  0
  1  2  2  0
  2  3  1  0
  3  4  1  0
  4  5  2  0
  5  6  1  0
  6  7  2  0
  7  8  1  0
  8  9  2  0
  8 10  1  0
  7 11  1  0
 11 12  2  0
 12 13  1  0
 13 14  1  0
 14 15  1  0
 15 16  2  0
 15 17  1  0
 17 18  1  0
 18 19  1  0
 19 20  1  0
 20 21  1  0
 21 22  1  0
 22 23  1  0
 23 24  1  0
 24 25  2  0
 24 26  1  0
 26 27  2  0
 27 28  1  0
 28 29  2  0
 29 30  1  0
 30 31  2  0
 31 32  1  0
 32 33  2  0
 33 34  1  0
 34 35  2  0
 34 36  1  0
 36 37  2  0
 20 38  1  0
 38 39  1  0
 14  2  1  0
 39 17  1  0
 12  4  1  0
 36 23  1  0
 35 26  1  0
 35 30  1  0
  5 40  1  0
  6 41  1  0
 11 42  1  0
 13 43  1  0
 13 44  1  0
 14 45  1  1
 18 46  1  0
 18 47  1  0
 19 48  1  0
 19 49  1  0
 21 50  1  0
 21 51  1  0
 22 52  1  0
 22 53  1  0
 27 54  1  0
 28 55  1  0
 29 56  1  0
 31 57  1  0
 32 58  1  0
 33 59  1  0
 38 60  1  0
 38 61  1  0
 39 62  1  0
 39 63  1  0
M  CHG  2   8   1  10  -1
M  END
>  <Binding energies>  (1) 
[-10.04]

>  <Ligand effiencies>  (1) 
[-0.2574358974358974]

>  <Interactions>  (1) 
["V-B:GLU:543:CD:9877, V-A:ARG:545:CZ:4923, H-A:ARG:545:NH2:4925, H-A:ARG:545:NH1:4924, H-A:GLY:454:N:4046, V-B:TYR:539:CE2:9845, V-A:HIS:456:CE1:4066, V-A:GLU:543:CD:4905, V-A:GLU:543:CG:4904, V-B:GLU:543:CB:9875, V-B:HIS:456:CE1:9038, V-A:GLU:543:CB:4903, V-B:GLU:543:CG:9876, V-B:ILE:369:CD1:8207, V-B:ILE:369:CG2:8205, V-B:ARG:545:CZ:9895, V-B:TRP:381:CH2:8340, V-A:ALA:541:CB:4889, V-B:GLY:454:CA:9017, H-B:TYR:484:OH:9316, V-A:TYR:539:CD2:4871, V-B:LEU:475:CD2:9227, V-B:TYR:539:CZ:9846, V-A:ASP:366:CG:3209, V-A:ASP:366:CB:3208, H-A:ARG:545:NE:4921, H-A:TYR:484:OH:4344, H-A:HIS:456:ND1:4063, H-B:GLY:454:N:9018, H-B:TYR:539:OH:9847"]

$$$$
RR26_Rahimova_2017
     RDKit          3D

 59 65  0  0  0  0  0  0  0  0999 V2000
  127.5420  133.8050   60.7000 C   0  0  0  0  0  0  0  0  0  0  0  0
  126.0930  134.0170   61.1180 C   0  0  0  0  0  0  0  0  0  0  0  0
  125.3890  135.0860   60.5530 C   0  0  0  0  0  0  0  0  0  0  0  0
  124.0500  135.3030   60.8680 C   0  0  0  0  0  0  0  0  0  0  0  0
  123.3980  134.4460   61.7490 C   0  0  0  0  0  0  0  0  0  0  0  0
  124.0870  133.3770   62.3180 C   0  0  0  0  0  0  0  0  0  0  0  0
  125.4390  133.1480   62.0190 C   0  0  0  0  0  0  0  0  0  0  0  0
  126.1110  131.9830   62.6870 C   0  0  0  0  0  0  0  0  0  0  0  0
  126.3390  131.9500   63.9980 N   0  0  0  0  0  0  0  0  0  0  0  0
  126.9120  130.7860   64.1420 C   0  0  0  0  0  0  0  0  0  0  0  0
  127.5610  129.8810   65.4600 S   0  0  0  0  0  0  0  0  0  0  0  0
  127.9840  128.5560   64.3120 C   0  0  0  0  0  0  0  0  0  0  0  0
  128.5900  127.3810   64.5920 C   0  0  0  0  0  0  0  0  0  0  0  0
  129.0420  126.8910   65.8840 C   0  0  0  0  0  0  0  0  0  0  0  0
  128.7540  127.3980   67.1420 C   0  0  0  0  0  0  0  0  0  0  0  0
  129.3610  126.5930   68.0720 N   0  0  0  0  0  0  0  0  0  0  0  0
  129.3410  126.7150   69.4850 C   0  0  0  0  0  0  0  0  0  0  0  0
  128.5320  125.8770   70.2670 C   0  0  0  0  0  0  0  0  0  0  0  0
  128.5190  126.0090   71.6530 C   0  0  0  0  0  0  0  0  0  0  0  0
  129.3160  126.9750   72.2620 C   0  0  0  0  0  0  0  0  0  0  0  0
  130.1270  127.8110   71.4970 C   0  0  0  0  0  0  0  0  0  0  0  0
  130.1400  127.6840   70.1110 C   0  0  0  0  0  0  0  0  0  0  0  0
  129.9990  125.5810   67.4650 N   0  0  0  0  0  0  0  0  0  0  0  0
  129.8240  125.7480   66.1690 C   0  0  0  0  0  0  0  0  0  0  0  0
  130.4290  124.7760   65.2030 C   0  0  0  0  0  0  0  0  0  0  0  0
  129.7470  123.5990   64.8580 C   0  0  0  0  0  0  0  0  0  0  0  0
  130.3040  122.6860   63.9620 C   0  0  0  0  0  0  0  0  0  0  0  0
  131.5540  122.9430   63.4020 C   0  0  0  0  0  0  0  0  0  0  0  0
  132.2370  124.1250   63.7240 C   0  0  0  0  0  0  0  0  0  0  0  0
  131.6810  125.0330   64.6250 C   0  0  0  0  0  0  0  0  0  0  0  0
  133.4970  124.4010   63.2290 O   0  0  0  0  0  0  0  0  0  0  0  0
  133.8440  123.6480   62.0630 C   0  0  0  0  0  0  0  0  0  0  0  0
  133.4520  122.1610   62.2390 C   0  0  0  0  0  0  0  0  0  0  0  0
  132.0460  122.0380   62.4840 O   0  0  0  0  0  0  0  0  0  0  0  0
  127.6080  128.8720   62.9370 C   0  0  0  0  0  0  0  0  0  0  0  0
  127.7560  128.1970   61.9170 O   0  0  0  0  0  0  0  0  0  0  0  0
  127.0160  130.1430   62.9650 N   0  0  0  0  0  0  0  0  0  0  0  0
  126.4920  130.9130   62.0070 N   0  0  0  0  0  0  0  0  0  0  0  0
  128.1725  133.7127   61.5966 H   0  0  0  0  0  0  0  0  0  0  0  0
  127.6200  132.8859   60.1007 H   0  0  0  0  0  0  0  0  0  0  0  0
  127.8801  134.6632   60.1007 H   0  0  0  0  0  0  0  0  0  0  0  0
  125.8991  135.7629   59.8519 H   0  0  0  0  0  0  0  0  0  0  0  0
  123.5090  136.1502   60.4212 H   0  0  0  0  0  0  0  0  0  0  0  0
  122.3391  134.6123   61.9962 H   0  0  0  0  0  0  0  0  0  0  0  0
  123.5636  132.7026   63.0118 H   0  0  0  0  0  0  0  0  0  0  0  0
  128.7628  126.7122   63.7359 H   0  0  0  0  0  0  0  0  0  0  0  0
  128.1457  128.2891   67.3565 H   0  0  0  0  0  0  0  0  0  0  0  0
  127.9057  125.1129   69.7834 H   0  0  0  0  0  0  0  0  0  0  0  0
  127.8819  125.3530   72.2644 H   0  0  0  0  0  0  0  0  0  0  0  0
  129.3053  127.0791   73.3570 H   0  0  0  0  0  0  0  0  0  0  0  0
  130.7553  128.5693   71.9872 H   0  0  0  0  0  0  0  0  0  0  0  0
  130.7778  128.3445   69.5052 H   0  0  0  0  0  0  0  0  0  0  0  0
  128.7607  123.3936   65.2996 H   0  0  0  0  0  0  0  0  0  0  0  0
  129.7590  121.7675   63.6988 H   0  0  0  0  0  0  0  0  0  0  0  0
  132.2258  125.9531   64.8830 H   0  0  0  0  0  0  0  0  0  0  0  0
  133.3119  124.0618   61.1937 H   0  0  0  0  0  0  0  0  0  0  0  0
  134.9313  123.7126   61.9094 H   0  0  0  0  0  0  0  0  0  0  0  0
  133.7096  121.6080   61.3236 H   0  0  0  0  0  0  0  0  0  0  0  0
  134.0002  121.7481   63.0987 H   0  0  0  0  0  0  0  0  0  0  0  0
  1  2  1  0
  2  3  2  0
  3  4  1  0
  4  5  2  0
  5  6  1  0
  6  7  2  0
  7  8  1  0
  8  9  1  0
  9 10  2  0
 10 11  1  0
 11 12  1  0
 12 13  2  0
 13 14  1  0
 14 15  2  0
 15 16  1  0
 16 17  1  0
 17 18  2  0
 18 19  1  0
 19 20  2  0
 20 21  1  0
 21 22  2  0
 16 23  1  0
 23 24  2  0
 24 25  1  0
 25 26  2  0
 26 27  1  0
 27 28  2  0
 28 29  1  0
 29 30  2  0
 29 31  1  0
 31 32  1  0
 32 33  1  0
 33 34  1  0
 12 35  1  0
 35 36  2  0
 35 37  1  0
 37 38  1  0
  7  2  1  0
 38  8  2  0
 37 10  1  0
 24 14  1  0
 30 25  1  0
 22 17  1  0
 34 28  1  0
  1 39  1  0
  1 40  1  0
  1 41  1  0
  3 42  1  0
  4 43  1  0
  5 44  1  0
  6 45  1  0
 13 46  1  0
 15 47  1  0
 18 48  1  0
 19 49  1  0
 20 50  1  0
 21 51  1  0
 22 52  1  0
 26 53  1  0
 27 54  1  0
 30 55  1  0
 32 56  1  0
 32 57  1  0
 33 58  1  0
 33 59  1  0
M  END
>  <Binding energies>  (1) 
[-10.52]

>  <Ligand effiencies>  (1) 
[-0.2768421052631579]

>  <Interactions>  (1) 
["V-A:LEU:475:CD1:4254, V-B:GLU:543:CD:9877, H-A:GLY:454:N:4046, V-A:GLY:454:CA:4045, V-A:HIS:456:CE1:4066, V-A:GLU:543:CD:4905, V-A:GLU:543:CG:4904, V-B:GLU:543:C:9871, V-B:GLU:543:CB:9875, V-B:HIS:456:CE1:9038, V-A:TYR:484:CE1:4341, V-A:HIS:456:CD2:4064, V-B:GLU:543:CG:9876, V-B:ILE:369:CD1:8207, V-B:ILE:369:CG2:8205, V-B:TRP:381:CH2:8340, V-A:ALA:541:CB:4889, V-B:GLY:454:CA:9017, H-B:TYR:484:OH:9316, V-A:TYR:539:CD2:4871, V-B:LEU:475:CD2:9227, V-B:ALA:541:CB:9861, H-A:TYR:484:OH:4344, V-B:LYS:547:CE:9919, V-B:TRP:381:CZ2:8338, V-B:ILE:369:CG1:8206, V-B:SER:385:C:8373"]

$$$$
RR27_Rahimova_2017
     RDKit          3D

 66 71  0  0  0  0  0  0  0  0999 V2000
  129.8790  132.3280   61.2890 O   0  0  0  0  0  0  0  0  0  0  0  0
  129.0120  131.4790   61.0630 C   0  0  0  0  0  0  0  0  0  0  0  0
  127.5850  131.7090   61.6410 C   0  0  0  0  0  0  0  0  0  0  0  0
  127.0070  133.0920   61.2910 C   0  0  0  0  0  0  0  0  0  0  0  0
  125.6450  133.2750   61.0050 C   0  0  0  0  0  0  0  0  0  0  0  0
  125.1540  134.5400   60.6950 C   0  0  0  0  0  0  0  0  0  0  0  0
  126.0220  135.6280   60.6680 C   0  0  0  0  0  0  0  0  0  0  0  0
  127.3760  135.4620   60.9460 C   0  0  0  0  0  0  0  0  0  0  0  0
  127.8660  134.1970   61.2560 C   0  0  0  0  0  0  0  0  0  0  0  0
  127.5050  131.3300   63.1320 C   0  0  0  0  0  0  0  0  0  0  0  0
  127.8640  132.2320   64.1420 C   0  0  0  0  0  0  0  0  0  0  0  0
  127.7910  131.8540   65.4810 C   0  0  0  0  0  0  0  0  0  0  0  0
  127.3640  130.5710   65.8130 C   0  0  0  0  0  0  0  0  0  0  0  0
  127.0140  129.6610   64.8190 C   0  0  0  0  0  0  0  0  0  0  0  0
  127.0890  130.0390   63.4820 C   0  0  0  0  0  0  0  0  0  0  0  0
  129.2340  130.4410   60.2070 N   0  0  0  0  0  0  0  0  0  0  0  0
  128.3430  129.2760   60.0970 C   0  0  0  0  0  0  0  0  0  0  0  0
  128.8100  128.2540   61.1570 C   0  0  0  0  0  0  0  0  0  0  0  0
  130.3220  127.8880   61.0170 C   0  0  0  0  0  0  0  0  0  0  0  0
  130.8660  126.9590   62.1180 C   0  0  0  0  0  0  0  0  0  0  0  0
  132.0100  126.2750   61.8240 N   0  0  0  0  0  0  0  0  0  0  0  0
  132.5480  125.4600   62.7740 C   0  0  0  0  0  0  0  0  0  0  0  0
  133.6930  124.7270   62.5990 O   0  0  0  0  0  0  0  0  0  0  0  0
  131.9000  125.3540   64.0190 C   0  0  0  0  0  0  0  0  0  0  0  0
  132.1630  124.6550   65.1610 N   0  0  0  0  0  0  0  0  0  0  0  0
  131.1570  124.9470   66.0620 N   0  0  0  0  0  0  0  0  0  0  0  0
  130.2970  125.8150   65.4900 N   0  0  0  0  0  0  0  0  0  0  0  0
  129.1170  126.2780   66.2160 C   0  0  0  0  0  0  0  0  0  0  0  0
  129.4210  126.7850   67.6190 C   0  0  0  0  0  0  0  0  0  0  0  0
  130.4880  127.6640   67.8340 C   0  0  0  0  0  0  0  0  0  0  0  0
  130.7600  128.1380   69.1190 C   0  0  0  0  0  0  0  0  0  0  0  0
  129.9650  127.7390   70.1930 C   0  0  0  0  0  0  0  0  0  0  0  0
  128.8930  126.8700   69.9840 C   0  0  0  0  0  0  0  0  0  0  0  0
  127.8910  126.3960   71.3080 Cl  0  0  0  0  0  0  0  0  0  0  0  0
  128.6260  126.3900   68.7010 C   0  0  0  0  0  0  0  0  0  0  0  0
  130.7160  126.1010   64.2010 C   0  0  0  0  0  0  0  0  0  0  0  0
  130.1640  126.9010   63.2850 N   0  0  0  0  0  0  0  0  0  0  0  0
  131.2070  129.1510   60.7810 C   0  0  0  0  0  0  0  0  0  0  0  0
  130.5990  130.1370   59.7510 C   0  0  0  0  0  0  0  0  0  0  0  0
  126.9072  131.0097   61.1295 H   0  0  0  0  0  0  0  0  0  0  0  0
  124.9615  132.4134   61.0260 H   0  0  0  0  0  0  0  0  0  0  0  0
  124.0858  134.6792   60.4725 H   0  0  0  0  0  0  0  0  0  0  0  0
  125.6344  136.6283   60.4247 H   0  0  0  0  0  0  0  0  0  0  0  0
  128.0553  136.3268   60.9207 H   0  0  0  0  0  0  0  0  0  0  0  0
  128.9358  134.0643   61.4751 H   0  0  0  0  0  0  0  0  0  0  0  0
  128.2052  133.2435   63.8766 H   0  0  0  0  0  0  0  0  0  0  0  0
  128.0694  132.5658   66.2721 H   0  0  0  0  0  0  0  0  0  0  0  0
  127.3026  130.2736   66.8703 H   0  0  0  0  0  0  0  0  0  0  0  0
  126.6799  128.6484   65.0893 H   0  0  0  0  0  0  0  0  0  0  0  0
  126.8199  129.3194   62.6948 H   0  0  0  0  0  0  0  0  0  0  0  0
  127.3027  129.5753   60.2923 H   0  0  0  0  0  0  0  0  0  0  0  0
  128.3835  128.8427   59.0868 H   0  0  0  0  0  0  0  0  0  0  0  0
  128.6427  128.6822   62.1563 H   0  0  0  0  0  0  0  0  0  0  0  0
  128.2298  127.3316   61.0072 H   0  0  0  0  0  0  0  0  0  0  0  0
  130.3882  127.2741   60.1066 H   0  0  0  0  0  0  0  0  0  0  0  0
  134.3650  125.2010   62.1050 H   0  0  0  0  0  0  0  0  0  0  0  0
  128.6560  127.0963   65.6434 H   0  0  0  0  0  0  0  0  0  0  0  0
  128.4469  125.4125   66.3253 H   0  0  0  0  0  0  0  0  0  0  0  0
  131.1147  127.9828   66.9880 H   0  0  0  0  0  0  0  0  0  0  0  0
  131.6018  128.8265   69.2842 H   0  0  0  0  0  0  0  0  0  0  0  0
  130.1829  128.1094   71.2056 H   0  0  0  0  0  0  0  0  0  0  0  0
  127.7865  125.6978   68.5394 H   0  0  0  0  0  0  0  0  0  0  0  0
  131.3286  129.6771   61.7394 H   0  0  0  0  0  0  0  0  0  0  0  0
  132.1693  128.8055   60.3752 H   0  0  0  0  0  0  0  0  0  0  0  0
  131.1983  131.0585   59.7097 H   0  0  0  0  0  0  0  0  0  0  0  0
  130.5892  129.6976   58.7426 H   0  0  0  0  0  0  0  0  0  0  0  0
  1  2  2  0
  2  3  1  0
  3  4  1  0
  4  5  2  0
  5  6  1  0
  6  7  2  0
  7  8  1  0
  8  9  2  0
  3 10  1  0
 10 11  2  0
 11 12  1  0
 12 13  2  0
 13 14  1  0
 14 15  2  0
  2 16  1  0
 16 17  1  0
 17 18  1  0
 18 19  1  0
 19 20  1  0
 20 21  2  0
 21 22  1  0
 22 23  1  0
 22 24  2  0
 24 25  1  0
 25 26  2  0
 26 27  1  0
 27 28  1  0
 28 29  1  0
 29 30  2  0
 30 31  1  0
 31 32  2  0
 32 33  1  0
 33 34  1  0
 33 35  2  0
 27 36  1  0
 36 37  2  0
 19 38  1  0
 38 39  1  0
  9  4  1  0
 15 10  1  0
 39 16  1  0
 37 20  1  0
 36 24  1  0
 35 29  1  0
  3 40  1  0
  5 41  1  0
  6 42  1  0
  7 43  1  0
  8 44  1  0
  9 45  1  0
 11 46  1  0
 12 47  1  0
 13 48  1  0
 14 49  1  0
 15 50  1  0
 17 51  1  0
 17 52  1  0
 18 53  1  0
 18 54  1  0
 19 55  1  0
 23 56  1  0
 28 57  1  0
 28 58  1  0
 30 59  1  0
 31 60  1  0
 32 61  1  0
 35 62  1  0
 38 63  1  0
 38 64  1  0
 39 65  1  0
 39 66  1  0
M  END
>  <Binding energies>  (1) 
[-9.71]

>  <Ligand effiencies>  (1) 
[-0.24275000000000002]

>  <Interactions>  (1) 
["V-B:GLU:543:CD:9877, V-A:ARG:545:CZ:4923, H-A:ARG:545:NH2:4925, H-A:ARG:545:NH1:4924, H-A:ASP:366:OD2:3211, H-A:GLY:454:N:4046, V-A:HIS:456:CE1:4066, H-A:ASP:366:OD1:3210, V-A:GLU:543:CD:4905, V-A:GLU:543:CG:4904, V-B:GLU:543:CB:9875, V-B:HIS:456:CE1:9038, V-B:GLY:544:C:9881, V-B:HIS:456:CD2:9036, V-A:GLU:543:CB:4903, V-B:GLU:543:CG:9876, V-B:ILE:369:CG2:8205, V-B:TRP:381:CH2:8340, V-A:ALA:541:CB:4889, V-A:TYR:539:CD2:4871, V-B:LEU:475:CD2:9227, V-A:ASP:366:CG:3209, V-A:ALA:541:CA:4887, H-A:ALA:541:N:4888, H-A:TYR:484:OH:4344, V-B:LYS:547:CE:9919, V-A:GLU:543:C:4899, V-B:TYR:484:CE1:9313, V-B:TYR:484:CZ:9315, V-B:TRP:381:CZ2:8338, V-A:GLY:544:C:4909, V-B:TRP:381:CZ3:8339"]

$$$$
RR27_Rahimova_2017-again1
     RDKit          3D

 66 71  0  0  0  0  0  0  0  0999 V2000
  129.7220  132.2290   61.7100 O   0  0  0  0  0  0  0  0  0  0  0  0
  128.9020  131.4410   61.2280 C   0  0  0  0  0  0  0  0  0  0  0  0
  127.4320  131.5030   61.7410 C   0  0  0  0  0  0  0  0  0  0  0  0
  126.7530  132.8500   61.4250 C   0  0  0  0  0  0  0  0  0  0  0  0
  127.4770  133.9590   60.9620 C   0  0  0  0  0  0  0  0  0  0  0  0
  126.8270  135.1590   60.6860 C   0  0  0  0  0  0  0  0  0  0  0  0
  125.4510  135.2570   60.8720 C   0  0  0  0  0  0  0  0  0  0  0  0
  124.7190  134.1660   61.3290 C   0  0  0  0  0  0  0  0  0  0  0  0
  125.3680  132.9660   61.6050 C   0  0  0  0  0  0  0  0  0  0  0  0
  127.3170  131.0840   63.2190 C   0  0  0  0  0  0  0  0  0  0  0  0
  127.8560  131.8720   64.2470 C   0  0  0  0  0  0  0  0  0  0  0  0
  127.7580  131.4620   65.5750 C   0  0  0  0  0  0  0  0  0  0  0  0
  127.1190  130.2640   65.8810 C   0  0  0  0  0  0  0  0  0  0  0  0
  126.5810  129.4710   64.8720 C   0  0  0  0  0  0  0  0  0  0  0  0
  126.6850  129.8760   63.5440 C   0  0  0  0  0  0  0  0  0  0  0  0
  129.2220  130.6500   60.1620 N   0  0  0  0  0  0  0  0  0  0  0  0
  128.4090  129.5100   59.7200 C   0  0  0  0  0  0  0  0  0  0  0  0
  128.8280  128.2790   60.5580 C   0  0  0  0  0  0  0  0  0  0  0  0
  130.3680  128.0840   60.7540 C   0  0  0  0  0  0  0  0  0  0  0  0
  130.7280  127.2990   62.0190 C   0  0  0  0  0  0  0  0  0  0  0  0
  130.0730  127.4880   63.1210 N   0  0  0  0  0  0  0  0  0  0  0  0
  130.4830  126.7410   64.1830 C   0  0  0  0  0  0  0  0  0  0  0  0
  131.5180  125.8190   64.1880 C   0  0  0  0  0  0  0  0  0  0  0  0
  131.6520  125.2820   65.3880 N   0  0  0  0  0  0  0  0  0  0  0  0
  130.6840  125.8520   66.2090 N   0  0  0  0  0  0  0  0  0  0  0  0
  129.9800  126.7170   65.4580 N   0  0  0  0  0  0  0  0  0  0  0  0
  128.8960  127.5010   66.0350 C   0  0  0  0  0  0  0  0  0  0  0  0
  128.6420  127.1900   67.5030 C   0  0  0  0  0  0  0  0  0  0  0  0
  127.4610  126.5450   67.8890 C   0  0  0  0  0  0  0  0  0  0  0  0
  127.2210  126.2680   69.2350 C   0  0  0  0  0  0  0  0  0  0  0  0
  128.1600  126.6300   70.2010 C   0  0  0  0  0  0  0  0  0  0  0  0
  129.3410  127.2680   69.8220 C   0  0  0  0  0  0  0  0  0  0  0  0
  130.5000  127.7190   71.0170 Cl  0  0  0  0  0  0  0  0  0  0  0  0
  129.5830  127.5450   68.4760 C   0  0  0  0  0  0  0  0  0  0  0  0
  132.2690  125.5810   62.9550 C   0  0  0  0  0  0  0  0  0  0  0  0
  133.2070  124.8090   62.7650 O   0  0  0  0  0  0  0  0  0  0  0  0
  131.7720  126.3810   61.9480 N   0  0  0  0  0  0  0  0  0  0  0  0
  131.2480  129.3630   60.5820 C   0  0  0  0  0  0  0  0  0  0  0  0
  130.6260  130.5110   59.7490 C   0  0  0  0  0  0  0  0  0  0  0  0
  126.8609  130.7531   61.1740 H   0  0  0  0  0  0  0  0  0  0  0  0
  128.5644  133.8800   60.8162 H   0  0  0  0  0  0  0  0  0  0  0  0
  127.3984  136.0258   60.3225 H   0  0  0  0  0  0  0  0  0  0  0  0
  124.9379  136.2056   60.6557 H   0  0  0  0  0  0  0  0  0  0  0  0
  123.6316  134.2513   61.4717 H   0  0  0  0  0  0  0  0  0  0  0  0
  124.7899  132.1029   61.9668 H   0  0  0  0  0  0  0  0  0  0  0  0
  128.3591  132.8193   64.0031 H   0  0  0  0  0  0  0  0  0  0  0  0
  128.1836  132.0821   66.3777 H   0  0  0  0  0  0  0  0  0  0  0  0
  127.0386  129.9413   66.9295 H   0  0  0  0  0  0  0  0  0  0  0  0
  126.0751  128.5270   65.1229 H   0  0  0  0  0  0  0  0  0  0  0  0
  126.2688  129.2443   62.7454 H   0  0  0  0  0  0  0  0  0  0  0  0
  127.3424  129.7264   59.8799 H   0  0  0  0  0  0  0  0  0  0  0  0
  128.5663  129.3177   58.6484 H   0  0  0  0  0  0  0  0  0  0  0  0
  128.3702  128.3762   61.5535 H   0  0  0  0  0  0  0  0  0  0  0  0
  128.4840  127.4003   59.9927 H   0  0  0  0  0  0  0  0  0  0  0  0
  130.6390  127.4555   59.8929 H   0  0  0  0  0  0  0  0  0  0  0  0
  129.1494  128.5675   65.9430 H   0  0  0  0  0  0  0  0  0  0  0  0
  127.9792  127.2432   65.4845 H   0  0  0  0  0  0  0  0  0  0  0  0
  126.7203  126.2558   67.1289 H   0  0  0  0  0  0  0  0  0  0  0  0
  126.2905  125.7637   69.5349 H   0  0  0  0  0  0  0  0  0  0  0  0
  127.9690  126.4122   71.2622 H   0  0  0  0  0  0  0  0  0  0  0  0
  130.5170  128.0443   68.1786 H   0  0  0  0  0  0  0  0  0  0  0  0
  132.2390  126.2800   61.0590 H   0  0  0  0  0  0  0  0  0  0  0  0
  131.4682  129.7568   61.5852 H   0  0  0  0  0  0  0  0  0  0  0  0
  132.1357  129.0375   60.0199 H   0  0  0  0  0  0  0  0  0  0  0  0
  131.1678  131.4491   59.9400 H   0  0  0  0  0  0  0  0  0  0  0  0
  130.6920  130.2877   58.6739 H   0  0  0  0  0  0  0  0  0  0  0  0
  1  2  2  0
  2  3  1  0
  3  4  1  0
  4  5  2  0
  5  6  1  0
  6  7  2  0
  7  8  1  0
  8  9  2  0
  3 10  1  0
 10 11  2  0
 11 12  1  0
 12 13  2  0
 13 14  1  0
 14 15  2  0
  2 16  1  0
 16 17  1  0
 17 18  1  0
 18 19  1  0
 19 20  1  0
 20 21  2  0
 21 22  1  0
 22 23  2  0
 23 24  1  0
 24 25  2  0
 25 26  1  0
 26 27  1  0
 27 28  1  0
 28 29  2  0
 29 30  1  0
 30 31  2  0
 31 32  1  0
 32 33  1  0
 32 34  2  0
 23 35  1  0
 35 36  2  0
 35 37  1  0
 19 38  1  0
 38 39  1  0
  9  4  1  0
 15 10  1  0
 39 16  1  0
 37 20  1  0
 26 22  1  0
 34 28  1  0
  3 40  1  0
  5 41  1  0
  6 42  1  0
  7 43  1  0
  8 44  1  0
  9 45  1  0
 11 46  1  0
 12 47  1  0
 13 48  1  0
 14 49  1  0
 15 50  1  0
 17 51  1  0
 17 52  1  0
 18 53  1  0
 18 54  1  0
 19 55  1  0
 27 56  1  0
 27 57  1  0
 29 58  1  0
 30 59  1  0
 31 60  1  0
 34 61  1  0
 37 62  1  0
 38 63  1  0
 38 64  1  0
 39 65  1  0
 39 66  1  0
M  END
>  <Binding energies>  (1) 
[-9.86]

>  <Ligand effiencies>  (1) 
[-0.2465]

>  <Interactions>  (1) 
["V-B:GLU:543:CD:9877, V-A:ARG:545:CZ:4923, H-A:ARG:545:NH2:4925, H-A:ASP:366:OD2:3211, V-A:HIS:456:CE1:4066, H-A:ASP:366:OD1:3210, V-A:GLU:543:CD:4905, V-A:GLU:543:CG:4904, V-B:GLU:543:C:9871, V-B:GLU:543:CB:9875, V-B:HIS:456:CE1:9038, V-B:GLY:544:C:9881, V-A:HIS:456:CD2:4064, V-B:HIS:456:CD2:9036, V-A:GLU:543:CB:4903, V-B:GLU:543:CG:9876, V-B:ILE:369:CG2:8205, V-B:TRP:381:CH2:8340, V-A:ALA:541:CB:4889, V-A:TYR:539:CD2:4871, V-B:LEU:475:CD2:9227, V-A:ASP:366:CG:3209, H-A:ALA:541:N:4888, H-A:TYR:484:OH:4344, V-B:TYR:484:CE1:9313, V-B:TYR:484:CZ:9315, V-B:TRP:381:CZ2:8338, V-A:GLY:544:C:4909"]

$$$$
RR28_Rahimova_2017
     RDKit          3D

 82 85  0  0  0  0  0  0  0  0999 V2000
  123.3630  130.0800   66.7190 C   0  0  0  0  0  0  0  0  0  0  0  0
  124.1640  129.9430   65.4290 C   0  0  0  0  0  0  0  0  0  0  0  0
  123.5940  129.6040   64.3940 O   0  0  0  0  0  0  0  0  0  0  0  0
  125.4830  130.2110   65.5140 N   0  0  0  0  0  0  0  0  0  0  0  0
  126.4990  130.1540   64.4390 C   0  0  0  0  0  0  0  0  0  0  0  0
  127.4130  128.9220   64.6990 C   0  0  0  0  0  0  0  0  0  0  0  0
  127.6710  128.5230   66.0200 C   0  0  0  0  0  0  0  0  0  0  0  0
  128.4870  127.4290   66.2900 C   0  0  0  0  0  0  0  0  0  0  0  0
  129.0670  126.7080   65.2440 C   0  0  0  0  0  0  0  0  0  0  0  0
  129.9640  125.5120   65.5610 C   0  0  0  0  0  0  0  0  0  0  0  0
  129.7210  125.0020   66.7700 F   0  0  0  0  0  0  0  0  0  0  0  0
  129.7810  124.5460   64.6610 F   0  0  0  0  0  0  0  0  0  0  0  0
  131.2400  125.8990   65.5220 F   0  0  0  0  0  0  0  0  0  0  0  0
  128.8200  127.0960   63.9250 C   0  0  0  0  0  0  0  0  0  0  0  0
  128.0030  128.1910   63.6560 C   0  0  0  0  0  0  0  0  0  0  0  0
  127.2810  131.5130   64.3480 C   0  0  0  0  0  0  0  0  0  0  0  0
  126.3930  132.7030   63.9030 C   0  0  0  0  0  0  0  0  0  0  0  0
  125.8420  132.3420   62.5870 N   0  0  0  0  0  0  0  0  0  0  0  0
  126.4730  132.7330   61.4460 C   0  0  0  0  0  0  0  0  0  0  0  0
  127.4140  133.5300   61.4600 O   0  0  0  0  0  0  0  0  0  0  0  0
  125.8910  132.2940   60.0810 C   0  0  0  0  0  0  0  0  0  0  0  0
  125.3490  130.8400   60.0100 C   0  0  0  0  0  0  0  0  0  0  0  0
  125.9800  129.9580   58.9070 C   0  0  0  0  0  0  0  0  0  0  0  0
  125.5130  130.0360   57.7670 O   0  0  0  0  0  0  0  0  0  0  0  0
  127.1020  129.2330   59.1800 N   0  0  0  0  0  0  0  0  0  0  0  0
  127.5070  128.8540   60.5380 C   0  0  0  0  0  0  0  0  0  0  0  0
  126.7530  127.5490   60.8760 C   0  0  0  0  0  0  0  0  0  0  0  0
  126.9930  126.3730   59.8650 C   0  0  0  0  0  0  0  0  0  0  0  0
  125.9410  125.3510   60.0530 N   0  0  0  0  0  0  0  0  0  0  0  0
  124.8310  125.1540   59.3150 C   0  0  0  0  0  0  0  0  0  0  0  0
  123.9120  124.0230   59.7640 C   0  0  0  0  0  0  0  0  0  0  0  0
  124.5320  125.8250   58.3270 O   0  0  0  0  0  0  0  0  0  0  0  0
  128.3620  125.7140   60.2310 C   0  0  0  0  0  0  0  0  0  0  0  0
  129.5530  126.0010   59.5430 C   0  0  0  0  0  0  0  0  0  0  0  0
  130.7530  125.3920   59.9010 C   0  0  0  0  0  0  0  0  0  0  0  0
  130.7920  124.4770   60.9550 C   0  0  0  0  0  0  0  0  0  0  0  0
  132.1020  123.8030   61.3620 C   0  0  0  0  0  0  0  0  0  0  0  0
  131.8910  122.5290   61.6980 F   0  0  0  0  0  0  0  0  0  0  0  0
  132.9500  123.8370   60.3340 F   0  0  0  0  0  0  0  0  0  0  0  0
  132.6790  124.4110   62.4000 F   0  0  0  0  0  0  0  0  0  0  0  0
  129.6160  124.1740   61.6420 C   0  0  0  0  0  0  0  0  0  0  0  0
  128.4190  124.7850   61.2820 C   0  0  0  0  0  0  0  0  0  0  0  0
  126.9500  126.9430   58.3940 C   0  0  0  0  0  0  0  0  0  0  0  0
  127.6470  128.3120   58.1740 C   0  0  0  0  0  0  0  0  0  0  0  0
  124.9300  131.1890   62.6330 C   0  0  0  0  0  0  0  0  0  0  0  0
  125.7710  129.9610   63.0680 C   0  0  0  0  0  0  0  0  0  0  0  0
  124.0353  129.9650   67.5820 H   0  0  0  0  0  0  0  0  0  0  0  0
  122.8893  131.0722   66.7529 H   0  0  0  0  0  0  0  0  0  0  0  0
  122.5865  129.3016   66.7529 H   0  0  0  0  0  0  0  0  0  0  0  0
  125.8430  130.4600   66.4230 H   0  0  0  0  0  0  0  0  0  0  0  0
  127.2217  129.0832   66.8533 H   0  0  0  0  0  0  0  0  0  0  0  0
  128.6761  127.1307   67.3317 H   0  0  0  0  0  0  0  0  0  0  0  0
  129.2730  126.5339   63.0950 H   0  0  0  0  0  0  0  0  0  0  0  0
  127.8176  128.4869   62.6129 H   0  0  0  0  0  0  0  0  0  0  0  0
  127.7001  131.7416   65.3390 H   0  0  0  0  0  0  0  0  0  0  0  0
  128.0639  131.3878   63.5855 H   0  0  0  0  0  0  0  0  0  0  0  0
  125.5790  132.8612   64.6257 H   0  0  0  0  0  0  0  0  0  0  0  0
  126.9740  133.6355   63.8495 H   0  0  0  0  0  0  0  0  0  0  0  0
  125.0632  132.9746   59.8331 H   0  0  0  0  0  0  0  0  0  0  0  0
  126.7318  132.3329   59.3728 H   0  0  0  0  0  0  0  0  0  0  0  0
  125.5372  130.3583   60.9808 H   0  0  0  0  0  0  0  0  0  0  0  0
  124.2805  130.9230   59.7622 H   0  0  0  0  0  0  0  0  0  0  0  0
  128.5933  128.6855   60.5769 H   0  0  0  0  0  0  0  0  0  0  0  0
  127.2670  129.6488   61.2596 H   0  0  0  0  0  0  0  0  0  0  0  0
  127.0759  127.2150   61.8731 H   0  0  0  0  0  0  0  0  0  0  0  0
  125.6804  127.7878   60.8262 H   0  0  0  0  0  0  0  0  0  0  0  0
  126.0660  124.7580   60.8600 H   0  0  0  0  0  0  0  0  0  0  0  0
  123.8836  123.9880   60.8631 H   0  0  0  0  0  0  0  0  0  0  0  0
  122.8977  124.1989   59.3764 H   0  0  0  0  0  0  0  0  0  0  0  0
  124.2918  123.0662   59.3764 H   0  0  0  0  0  0  0  0  0  0  0  0
  129.5372  126.7178   58.7088 H   0  0  0  0  0  0  0  0  0  0  0  0
  131.6746  125.6329   59.3509 H   0  0  0  0  0  0  0  0  0  0  0  0
  129.6353  123.4503   62.4702 H   0  0  0  0  0  0  0  0  0  0  0  0
  127.4994  124.5353   61.8316 H   0  0  0  0  0  0  0  0  0  0  0  0
  127.4351  126.2086   57.7342 H   0  0  0  0  0  0  0  0  0  0  0  0
  125.8860  127.1132   58.1730 H   0  0  0  0  0  0  0  0  0  0  0  0
  128.7343  128.2086   58.3050 H   0  0  0  0  0  0  0  0  0  0  0  0
  127.4659  128.6877   57.1561 H   0  0  0  0  0  0  0  0  0  0  0  0
  124.1257  131.3726   63.3606 H   0  0  0  0  0  0  0  0  0  0  0  0
  124.4650  131.0176   61.6510 H   0  0  0  0  0  0  0  0  0  0  0  0
  125.1013  129.0921   63.1492 H   0  0  0  0  0  0  0  0  0  0  0  0
  126.5513  129.8183   62.3059 H   0  0  0  0  0  0  0  0  0  0  0  0
  1  2  1  0
  2  3  2  0
  2  4  1  0
  4  5  1  0
  5  6  1  0
  6  7  2  0
  7  8  1  0
  8  9  2  0
  9 10  1  0
 10 11  1  0
 10 12  1  0
 10 13  1  0
  9 14  1  0
 14 15  2  0
  5 16  1  0
 16 17  1  0
 17 18  1  0
 18 19  1  0
 19 20  2  0
 19 21  1  0
 21 22  1  0
 22 23  1  0
 23 24  2  0
 23 25  1  0
 25 26  1  0
 26 27  1  0
 27 28  1  0
 28 29  1  0
 29 30  1  0
 30 31  1  0
 30 32  2  0
 28 33  1  0
 33 34  2  0
 34 35  1  0
 35 36  2  0
 36 37  1  0
 37 38  1  0
 37 39  1  0
 37 40  1  0
 36 41  1  0
 41 42  2  0
 28 43  1  0
 43 44  1  0
 18 45  1  0
 45 46  1  0
 46  5  1  0
 15  6  1  0
 44 25  1  0
 42 33  1  0
  1 47  1  0
  1 48  1  0
  1 49  1  0
  4 50  1  0
  7 51  1  0
  8 52  1  0
 14 53  1  0
 15 54  1  0
 16 55  1  0
 16 56  1  0
 17 57  1  0
 17 58  1  0
 21 59  1  0
 21 60  1  0
 22 61  1  0
 22 62  1  0
 26 63  1  0
 26 64  1  0
 27 65  1  0
 27 66  1  0
 29 67  1  0
 31 68  1  0
 31 69  1  0
 31 70  1  0
 34 71  1  0
 35 72  1  0
 41 73  1  0
 42 74  1  0
 43 75  1  0
 43 76  1  0
 44 77  1  0
 44 78  1  0
 45 79  1  0
 45 80  1  0
 46 81  1  0
 46 82  1  0
M  END
>  <Binding energies>  (1) 
[-8.91]

>  <Ligand effiencies>  (1) 
[-0.185625]

>  <Interactions>  (1) 
["V-A:LEU:475:CD1:4254, V-B:GLU:543:CD:9877, V-B:TYR:539:CE2:9845, V-A:HIS:456:CE1:4066, V-A:GLU:543:CD:4905, H-B:HIS:456:NE2:9039, V-A:GLU:543:CG:4904, V-A:TYR:484:CZ:4343, V-B:GLU:543:CB:9875, V-B:HIS:456:CE1:9038, V-A:TYR:484:CE1:4341, V-B:GLU:543:CG:9876, V-B:ARG:545:CZ:9895, V-B:ARG:545:CD:9892, V-B:GLY:454:CA:9017, H-B:TYR:484:OH:9316, V-B:LEU:475:CD2:9227, V-B:ASP:366:CB:8180, V-B:ASP:366:CG:8181, V-A:ASP:366:CG:3209, H-B:ARG:545:NH2:9897, H-B:GLY:454:N:9018, V-B:PRO:540:CB:9854, V-B:LEU:363:CA:8153, V-B:TYR:484:CZ:9315, V-B:GLY:453:CA:9012, V-B:GLY:453:C:9010, V-B:ARG:545:CG:9891, V-B:ILE:455:C:9020, V-B:ASN:362:C:8140, H-B:TYR:531:OH:9764, H-B:ARG:545:NH1:9896, H-B:ARG:545:NE:9893, H-B:GLU:543:OE2:9879, V-B:GLY:454:C:9015"]

$$$$
RR29_Rahimova_2017
     RDKit          3D

 35 36  0  0  0  0  0  0  0  0999 V2000
  129.3600  125.3790   65.9280 C   0  0  0  0  0  0  0  0  0  0  0  0
  129.2470  126.7630   65.3040 C   0  0  0  0  0  0  0  0  0  0  0  0
  129.2840  127.9000   66.3490 C   0  0  0  0  0  0  0  0  0  0  0  0
  130.2620  127.5860   67.5010 C   0  0  0  0  0  0  0  0  0  0  0  0
  129.5390  127.3030   68.8090 C   0  0  0  0  0  0  0  0  0  0  0  0
  128.3120  126.6110   68.8000 C   0  0  0  0  0  0  0  0  0  0  0  0
  127.6300  126.3380   69.9940 C   0  0  0  0  0  0  0  0  0  0  0  0
  128.2040  126.7870   71.1780 C   0  0  0  0  0  0  0  0  0  0  0  0
  129.3930  127.4600   71.1930 C   0  0  0  0  0  0  0  0  0  0  0  0
  130.0960  127.7350   70.0260 C   0  0  0  0  0  0  0  0  0  0  0  0
  129.7320  127.7460   72.4780 O   0  0  0  0  0  0  0  0  0  0  0  0
  128.6070  127.4150   73.2490 C   0  0  0  0  0  0  0  0  0  0  0  0
  127.7610  126.6280   72.4540 O   0  0  0  0  0  0  0  0  0  0  0  0
  129.1280  126.8540   64.0320 N   0  0  0  0  0  0  0  0  0  0  0  0
  128.9400  128.0990   63.4720 N   0  0  0  0  0  0  0  0  0  0  0  0
  127.8740  128.4360   62.7280 C   0  0  0  0  0  0  0  0  0  0  0  0
  126.8530  127.6250   62.4480 N   0  0  0  0  0  0  0  0  0  0  0  0
  127.8290  129.6650   62.2350 N   0  0  0  0  0  0  0  0  0  0  0  0
  129.3526  125.4693   67.0243 H   0  0  0  0  0  0  0  0  0  0  0  0
  128.5093  124.7607   65.6053 H   0  0  0  0  0  0  0  0  0  0  0  0
  130.2997  124.9069   65.6053 H   0  0  0  0  0  0  0  0  0  0  0  0
  129.6032  128.8289   65.8538 H   0  0  0  0  0  0  0  0  0  0  0  0
  128.2755  128.0065   66.7752 H   0  0  0  0  0  0  0  0  0  0  0  0
  130.8587  126.7031   67.2281 H   0  0  0  0  0  0  0  0  0  0  0  0
  130.8995  128.4696   67.6524 H   0  0  0  0  0  0  0  0  0  0  0  0
  127.8830  126.2802   67.8426 H   0  0  0  0  0  0  0  0  0  0  0  0
  126.6767  125.7892   69.9941 H   0  0  0  0  0  0  0  0  0  0  0  0
  131.0555  128.2723   70.0533 H   0  0  0  0  0  0  0  0  0  0  0  0
  128.9169  126.8493   74.1400 H   0  0  0  0  0  0  0  0  0  0  0  0
  128.0864  128.3254   73.5810 H   0  0  0  0  0  0  0  0  0  0  0  0
  129.6740  128.7780   63.6200 H   0  0  0  0  0  0  0  0  0  0  0  0
  125.9620  128.0080   62.1670 H   0  0  0  0  0  0  0  0  0  0  0  0
  126.9750  126.6260   62.5310 H   0  0  0  0  0  0  0  0  0  0  0  0
  128.6790  130.2010   62.1370 H   0  0  0  0  0  0  0  0  0  0  0  0
  126.9450  130.0610   61.9530 H   0  0  0  0  0  0  0  0  0  0  0  0
  1  2  1  0
  2  3  1  0
  3  4  1  0
  4  5  1  0
  5  6  2  0
  6  7  1  0
  7  8  2  0
  8  9  1  0
  9 10  2  0
  9 11  1  0
 11 12  1  0
 12 13  1  0
  2 14  2  0
 14 15  1  0
 15 16  1  0
 16 17  1  0
 16 18  2  0
 10  5  1  0
 13  8  1  0
  1 19  1  0
  1 20  1  0
  1 21  1  0
  3 22  1  0
  3 23  1  0
  4 24  1  0
  4 25  1  0
  6 26  1  0
  7 27  1  0
 10 28  1  0
 12 29  1  0
 12 30  1  0
 15 31  1  0
 17 32  1  0
 17 33  1  0
 18 34  1  0
 18 35  1  0
M  CHG  1  18   1
M  END
>  <Binding energies>  (1) 
[-7.3]

>  <Ligand effiencies>  (1) 
[-0.3173913043478261]

>  <Interactions>  (1) 
["V-B:GLU:543:CD:9877, H-A:GLU:543:OE1:4906, H-A:GLU:543:OE2:4907, V-A:HIS:456:CE1:4066, V-A:GLU:543:CD:4905, V-A:GLU:543:CG:4904, V-B:GLU:543:C:9871, V-B:GLU:543:CB:9875, V-B:HIS:456:CE1:9038, V-B:GLY:544:C:9881, V-B:HIS:456:CD2:9036, V-A:GLU:543:CB:4903, V-B:GLU:543:CG:9876, H-B:ASP:366:OD1:8182, H-B:GLU:543:OE1:9878, V-B:LYS:547:CE:9919, H-A:LYS:547:NZ:4948, H-B:GLU:543:OE2:9879"]

$$$$
RR29_Rahimova_2017-again1
     RDKit          3D

 34 35  0  0  0  0  0  0  0  0999 V2000
  129.8550  124.7720   66.5030 C   0  0  0  0  0  0  0  0  0  0  0  0
  129.8520  126.0040   65.6110 C   0  0  0  0  0  0  0  0  0  0  0  0
  129.4840  127.3010   66.3560 C   0  0  0  0  0  0  0  0  0  0  0  0
  130.3660  127.5060   67.6050 C   0  0  0  0  0  0  0  0  0  0  0  0
  129.6050  127.2490   68.8970 C   0  0  0  0  0  0  0  0  0  0  0  0
  128.3730  126.5660   68.8630 C   0  0  0  0  0  0  0  0  0  0  0  0
  127.6560  126.3170   70.0410 C   0  0  0  0  0  0  0  0  0  0  0  0
  128.2000  126.7760   71.2360 C   0  0  0  0  0  0  0  0  0  0  0  0
  129.3940  127.4410   71.2740 C   0  0  0  0  0  0  0  0  0  0  0  0
  130.1310  127.6920   70.1230 C   0  0  0  0  0  0  0  0  0  0  0  0
  129.6990  127.7410   72.5640 O   0  0  0  0  0  0  0  0  0  0  0  0
  128.5500  127.4310   73.3060 C   0  0  0  0  0  0  0  0  0  0  0  0
  127.7210  126.6380   72.4990 O   0  0  0  0  0  0  0  0  0  0  0  0
  130.1250  125.8740   64.3600 N   0  0  0  0  0  0  0  0  0  0  0  0
  130.0830  126.9420   63.6300 N   0  0  0  0  0  0  0  0  0  0  0  0
  130.8760  126.9990   62.6230 C   0  0  0  0  0  0  0  0  0  0  0  0
  131.8180  126.0240   62.1930 N   0  0  0  0  0  0  0  0  0  0  0  0
  130.8940  128.1230   61.7690 N   0  0  0  0  0  0  0  0  0  0  0  0
  129.8542  125.0832   67.5581 H   0  0  0  0  0  0  0  0  0  0  0  0
  128.9583  124.1687   66.2980 H   0  0  0  0  0  0  0  0  0  0  0  0
  130.7546  124.1731   66.2980 H   0  0  0  0  0  0  0  0  0  0  0  0
  129.6226  128.1549   65.6766 H   0  0  0  0  0  0  0  0  0  0  0  0
  128.4362  127.2259   66.6823 H   0  0  0  0  0  0  0  0  0  0  0  0
  131.2192  126.8137   67.5532 H   0  0  0  0  0  0  0  0  0  0  0  0
  130.6995  128.5542   67.6134 H   0  0  0  0  0  0  0  0  0  0  0  0
  127.9687  126.2237   67.8990 H   0  0  0  0  0  0  0  0  0  0  0  0
  126.6974  125.7779   70.0213 H   0  0  0  0  0  0  0  0  0  0  0  0
  131.0947  128.2202   70.1697 H   0  0  0  0  0  0  0  0  0  0  0  0
  128.8291  126.8771   74.2144 H   0  0  0  0  0  0  0  0  0  0  0  0
  128.0273  128.3505   73.6081 H   0  0  0  0  0  0  0  0  0  0  0  0
  131.9510  125.1530   62.6870 H   0  0  0  0  0  0  0  0  0  0  0  0
  132.4070  126.1580   61.3850 H   0  0  0  0  0  0  0  0  0  0  0  0
  130.2950  128.9200   61.9190 H   0  0  0  0  0  0  0  0  0  0  0  0
  131.5120  128.1890   60.9740 H   0  0  0  0  0  0  0  0  0  0  0  0
  1  2  1  0
  2  3  1  0
  3  4  1  0
  4  5  1  0
  5  6  2  0
  6  7  1  0
  7  8  2  0
  8  9  1  0
  9 10  2  0
  9 11  1  0
 11 12  1  0
 12 13  1  0
  2 14  2  0
 14 15  1  0
 15 16  2  0
 16 17  1  0
 16 18  1  0
 10  5  1  0
 13  8  1  0
  1 19  1  0
  1 20  1  0
  1 21  1  0
  3 22  1  0
  3 23  1  0
  4 24  1  0
  4 25  1  0
  6 26  1  0
  7 27  1  0
 10 28  1  0
 12 29  1  0
 12 30  1  0
 17 31  1  0
 17 32  1  0
 18 33  1  0
 18 34  1  0
M  END
>  <Binding energies>  (1) 
[-5.87]

>  <Ligand effiencies>  (1) 
[-0.26681818181818184]

>  <Interactions>  (1) 
["V-B:GLU:543:CD:9877, H-A:GLU:543:OE1:4906, V-A:ARG:545:CZ:4923, H-A:ASP:366:OD2:3211, H-A:GLU:543:OE2:4907, V-A:HIS:456:CE1:4066, H-A:ASP:366:OD1:3210, V-A:GLU:543:CD:4905, V-A:TYR:484:CZ:4343, V-B:GLU:543:C:9871, V-B:GLU:543:CB:9875, V-B:HIS:456:CE1:9038, V-A:TYR:484:CE1:4341, V-B:GLY:544:C:9881, V-A:HIS:456:CD2:4064, V-B:HIS:456:CD2:9036, V-A:GLU:543:CB:4903, V-B:GLU:543:CG:9876, V-A:ASP:366:CG:3209, V-B:LYS:547:CE:9919, H-A:LYS:547:NZ:4948"]

$$$$
RR2_Rahimova_2017
     RDKit          3D

 76 80  0  0  0  0  0  0  0  0999 V2000
  126.9630  126.2440   69.0900 C   0  0  0  0  0  0  0  0  0  0  0  0
  128.1260  127.0480   68.9210 O   0  0  0  0  0  0  0  0  0  0  0  0
  129.0910  126.6550   68.0130 C   0  0  0  0  0  0  0  0  0  0  0  0
  130.0450  127.5140   67.4510 C   0  0  0  0  0  0  0  0  0  0  0  0
  130.9790  127.0280   66.5400 C   0  0  0  0  0  0  0  0  0  0  0  0
  130.9790  125.6770   66.1670 C   0  0  0  0  0  0  0  0  0  0  0  0
  132.0030  125.1750   65.1670 C   0  0  0  0  0  0  0  0  0  0  0  0
  132.9490  125.8940   64.8280 O   0  0  0  0  0  0  0  0  0  0  0  0
  131.7930  123.9280   64.6850 N   0  0  0  0  0  0  0  0  0  0  0  0
  132.6490  123.4540   63.6960 N   0  0  0  0  0  0  0  0  0  0  0  0
  132.2010  122.4800   62.8780 C   0  0  0  0  0  0  0  0  0  0  0  0
  131.1560  121.8450   63.0430 O   0  0  0  0  0  0  0  0  0  0  0  0
  133.0790  122.1910   61.6520 C   0  0  0  0  0  0  0  0  0  0  0  0
  132.8750  123.3610   60.2600 S   0  0  0  0  0  0  0  0  0  0  0  0
  132.0330  124.6870   61.0690 C   0  0  0  0  0  0  0  0  0  0  0  0
  132.6210  125.4940   61.9160 N   0  0  0  0  0  0  0  0  0  0  0  0
  131.6540  126.3590   62.4090 N   0  0  0  0  0  0  0  0  0  0  0  0
  130.5210  126.0610   61.8170 C   0  0  0  0  0  0  0  0  0  0  0  0
  129.2430  126.7910   62.0760 C   0  0  0  0  0  0  0  0  0  0  0  0
  128.8840  127.1200   63.3860 C   0  0  0  0  0  0  0  0  0  0  0  0
  127.6920  127.7920   63.6380 C   0  0  0  0  0  0  0  0  0  0  0  0
  126.8540  128.1580   62.5780 C   0  0  0  0  0  0  0  0  0  0  0  0
  125.6360  128.8270   62.7730 N   0  0  0  0  0  0  0  0  0  0  0  0
  125.4010  130.1990   63.8780 S   0  0  0  0  0  0  0  0  0  0  0  0
  126.4000  130.0370   64.9410 O   0  0  0  0  0  0  0  0  0  0  0  0
  123.9710  130.2870   64.1970 O   0  0  0  0  0  0  0  0  0  0  0  0
  125.8780  131.6460   62.9370 C   0  0  0  0  0  0  0  0  0  0  0  0
  124.9140  132.5490   62.4830 C   0  0  0  0  0  0  0  0  0  0  0  0
  125.3040  133.6590   61.7390 C   0  0  0  0  0  0  0  0  0  0  0  0
  126.6560  133.8700   61.4550 C   0  0  0  0  0  0  0  0  0  0  0  0
  127.0780  135.0730   60.6320 C   0  0  0  0  0  0  0  0  0  0  0  0
  127.6170  132.9630   61.9070 C   0  0  0  0  0  0  0  0  0  0  0  0
  127.2280  131.8520   62.6500 C   0  0  0  0  0  0  0  0  0  0  0  0
  127.2150  127.8310   61.2700 C   0  0  0  0  0  0  0  0  0  0  0  0
  128.4040  127.1530   61.0180 C   0  0  0  0  0  0  0  0  0  0  0  0
  130.6910  124.9960   60.9490 N   0  0  0  0  0  0  0  0  0  0  0  0
  129.7200  124.3450   60.1600 C   0  0  0  0  0  0  0  0  0  0  0  0
  129.0060  123.2660   60.6820 C   0  0  0  0  0  0  0  0  0  0  0  0
  128.0460  122.6310   59.9000 C   0  0  0  0  0  0  0  0  0  0  0  0
  127.7920  123.0630   58.5970 C   0  0  0  0  0  0  0  0  0  0  0  0
  126.8220  122.3700   57.8990 O   0  0  0  0  0  0  0  0  0  0  0  0
  125.7610  123.0910   57.2810 C   0  0  0  0  0  0  0  0  0  0  0  0
  128.5150  124.1500   58.0790 C   0  0  0  0  0  0  0  0  0  0  0  0
  129.4740  124.7890   58.8580 C   0  0  0  0  0  0  0  0  0  0  0  0
  130.0250  124.8220   66.7380 C   0  0  0  0  0  0  0  0  0  0  0  0
  129.0930  125.3100   67.6500 C   0  0  0  0  0  0  0  0  0  0  0  0
  126.7648  126.1070   70.1633 H   0  0  0  0  0  0  0  0  0  0  0  0
  126.1022  126.7408   68.6186 H   0  0  0  0  0  0  0  0  0  0  0  0
  127.1236  125.2632   68.6186 H   0  0  0  0  0  0  0  0  0  0  0  0
  130.0560  128.5777   67.7310 H   0  0  0  0  0  0  0  0  0  0  0  0
  131.7249  127.7117   66.1084 H   0  0  0  0  0  0  0  0  0  0  0  0
  130.8620  123.5490   64.5850 H   0  0  0  0  0  0  0  0  0  0  0  0
  133.3610  124.1200   63.4310 H   0  0  0  0  0  0  0  0  0  0  0  0
  134.1312  122.2211   61.9714 H   0  0  0  0  0  0  0  0  0  0  0  0
  132.7645  121.2069   61.2744 H   0  0  0  0  0  0  0  0  0  0  0  0
  129.5461  126.8467   64.2208 H   0  0  0  0  0  0  0  0  0  0  0  0
  127.4075  128.0362   64.6721 H   0  0  0  0  0  0  0  0  0  0  0  0
  124.8420  128.5240   62.2280 H   0  0  0  0  0  0  0  0  0  0  0  0
  123.8510  132.3837   62.7124 H   0  0  0  0  0  0  0  0  0  0  0  0
  124.5480  134.3701   61.3746 H   0  0  0  0  0  0  0  0  0  0  0  0
  127.3662  135.8945   61.3044 H   0  0  0  0  0  0  0  0  0  0  0  0
  127.9344  134.8010   59.9975 H   0  0  0  0  0  0  0  0  0  0  0  0
  126.2394  135.3956   59.9975 H   0  0  0  0  0  0  0  0  0  0  0  0
  128.6800  133.1264   61.6762 H   0  0  0  0  0  0  0  0  0  0  0  0
  127.9832  131.1379   63.0102 H   0  0  0  0  0  0  0  0  0  0  0  0
  126.5566  128.1105   60.4343 H   0  0  0  0  0  0  0  0  0  0  0  0
  128.6841  126.9015   59.9844 H   0  0  0  0  0  0  0  0  0  0  0  0
  129.2011  122.9187   61.7073 H   0  0  0  0  0  0  0  0  0  0  0  0
  127.4823  121.7811   60.3122 H   0  0  0  0  0  0  0  0  0  0  0  0
  125.1155  123.5297   58.0562 H   0  0  0  0  0  0  0  0  0  0  0  0
  126.1787  123.8930   56.6547 H   0  0  0  0  0  0  0  0  0  0  0  0
  125.1691  122.4073   56.6547 H   0  0  0  0  0  0  0  0  0  0  0  0
  128.3221  124.4974   57.0533 H   0  0  0  0  0  0  0  0  0  0  0  0
  130.0372  125.6414   58.4503 H   0  0  0  0  0  0  0  0  0  0  0  0
  130.0130  123.7570   66.4630 H   0  0  0  0  0  0  0  0  0  0  0  0
  128.3508  124.6267   68.0883 H   0  0  0  0  0  0  0  0  0  0  0  0
  1  2  1  0
  2  3  1  0
  3  4  2  0
  4  5  1  0
  5  6  2  0
  6  7  1  0
  7  8  2  0
  7  9  1  0
  9 10  1  0
 10 11  1  0
 11 12  2  0
 11 13  1  0
 13 14  1  0
 14 15  1  0
 15 16  2  0
 16 17  1  0
 17 18  2  0
 18 19  1  0
 19 20  2  0
 20 21  1  0
 21 22  2  0
 22 23  1  0
 23 24  1  0
 24 25  2  0
 24 26  2  0
 24 27  1  0
 27 28  2  0
 28 29  1  0
 29 30  2  0
 30 31  1  0
 30 32  1  0
 32 33  2  0
 22 34  1  0
 34 35  2  0
 18 36  1  0
 36 37  1  0
 37 38  2  0
 38 39  1  0
 39 40  2  0
 40 41  1  0
 41 42  1  0
 40 43  1  0
 43 44  2  0
  6 45  1  0
 45 46  2  0
 46  3  1  0
 36 15  1  0
 44 37  1  0
 35 19  1  0
 33 27  1  0
  1 47  1  0
  1 48  1  0
  1 49  1  0
  4 50  1  0
  5 51  1  0
  9 52  1  0
 10 53  1  0
 13 54  1  0
 13 55  1  0
 20 56  1  0
 21 57  1  0
 23 58  1  0
 28 59  1  0
 29 60  1  0
 31 61  1  0
 31 62  1  0
 31 63  1  0
 32 64  1  0
 33 65  1  0
 34 66  1  0
 35 67  1  0
 38 68  1  0
 39 69  1  0
 42 70  1  0
 42 71  1  0
 42 72  1  0
 43 73  1  0
 44 74  1  0
 45 75  1  0
 46 76  1  0
M  END
>  <Binding energies>  (1) 
[-9.75]

>  <Ligand effiencies>  (1) 
[-0.1989795918367347]

>  <Interactions>  (1) 
["V-A:LEU:475:CD1:4254, V-B:GLU:543:CD:9877, H-A:ARG:545:NH2:4925, V-A:GLY:454:CA:4045, V-B:TYR:539:CE2:9845, V-A:HIS:456:CE1:4066, V-A:GLU:543:CD:4905, V-A:TYR:484:CZ:4343, V-B:GLU:543:CA:9873, V-B:GLU:543:C:9871, V-B:GLU:543:CB:9875, V-B:HIS:456:CE1:9038, V-A:TYR:484:CE1:4341, V-B:GLY:544:C:9881, V-A:GLU:543:CB:4903, V-B:GLU:543:CG:9876, V-B:ARG:545:CZ:9895, V-B:TRP:381:CH2:8340, V-A:ALA:541:CB:4889, H-B:TYR:484:OH:9316, V-A:TYR:539:CD2:4871, V-B:LEU:475:CD2:9227, V-B:ASP:366:CG:8181, V-A:ASP:366:CG:3209, H-B:ASP:366:OD1:8182, H-B:ASP:366:OD2:8183, H-A:ARG:545:NE:4921, H-A:TYR:484:OH:4344, H-B:GLY:454:N:9018, V-B:PRO:540:N:9853, V-B:PRO:540:CB:9854, V-B:PRO:540:CA:9852, H-B:TYR:539:OH:9847"]

$$$$
RR30_Rahimova_2017
     RDKit          3D

 29 30  0  0  0  0  0  0  0  0999 V2000
  134.9280  125.0920   66.2050 C   0  0  0  0  0  0  0  0  0  0  0  0
  133.5610  125.5180   65.6510 C   0  0  0  0  0  0  0  0  0  0  0  0
  133.1010  124.6320   64.5140 C   0  0  0  0  0  0  0  0  0  0  0  0
  133.7080  124.3930   63.3780 N   0  0  0  0  0  0  0  0  0  0  0  0
  132.8750  123.5250   62.6760 N   0  0  0  0  0  0  0  0  0  0  0  0
  131.8340  123.3230   63.4420 C   0  0  0  0  0  0  0  0  0  0  0  0
  130.4350  122.3020   63.1100 S   0  0  0  0  0  0  0  0  0  0  0  0
  130.3550  122.4620   61.2970 C   0  0  0  0  0  0  0  0  0  0  0  0
  128.9170  122.4110   60.7750 C   0  0  0  0  0  0  0  0  0  0  0  0
  128.6330  121.6240   59.8700 O   0  0  0  0  0  0  0  0  0  0  0  0
  128.0520  123.2830   61.3390 N   0  0  0  0  0  0  0  0  0  0  0  0
  126.7070  123.4260   61.0320 C   0  0  0  0  0  0  0  0  0  0  0  0
  125.6730  122.8800   61.6310 N   0  0  0  0  0  0  0  0  0  0  0  0
  124.4680  123.2490   61.0460 N   0  0  0  0  0  0  0  0  0  0  0  0
  124.6130  124.0600   60.0240 C   0  0  0  0  0  0  0  0  0  0  0  0
  123.4500  124.5970   59.2220 C   0  0  0  0  0  0  0  0  0  0  0  0
  126.2800  124.4460   59.6940 S   0  0  0  0  0  0  0  0  0  0  0  0
  131.9120  123.9890   64.6230 O   0  0  0  0  0  0  0  0  0  0  0  0
  134.8972  125.1016   67.3045 H   0  0  0  0  0  0  0  0  0  0  0  0
  135.1659  124.0771   65.8537 H   0  0  0  0  0  0  0  0  0  0  0  0
  135.7003  125.7921   65.8537 H   0  0  0  0  0  0  0  0  0  0  0  0
  132.8192  125.4670   66.4617 H   0  0  0  0  0  0  0  0  0  0  0  0
  133.6600  126.5418   65.2611 H   0  0  0  0  0  0  0  0  0  0  0  0
  130.8036  123.4233   61.0061 H   0  0  0  0  0  0  0  0  0  0  0  0
  130.9036  121.6153   60.8587 H   0  0  0  0  0  0  0  0  0  0  0  0
  128.4100  123.9020   62.0530 H   0  0  0  0  0  0  0  0  0  0  0  0
  122.6682  124.9580   59.9065 H   0  0  0  0  0  0  0  0  0  0  0  0
  123.7942  125.4273   58.5879 H   0  0  0  0  0  0  0  0  0  0  0  0
  123.0412  123.7965   58.5879 H   0  0  0  0  0  0  0  0  0  0  0  0
  1  2  1  0
  2  3  1  0
  3  4  2  0
  4  5  1  0
  5  6  2  0
  6  7  1  0
  7  8  1  0
  8  9  1  0
  9 10  2  0
  9 11  1  0
 11 12  1  0
 12 13  2  0
 13 14  1  0
 14 15  2  0
 15 16  1  0
 15 17  1  0
  6 18  1  0
 18  3  1  0
 17 12  1  0
  1 19  1  0
  1 20  1  0
  1 21  1  0
  2 22  1  0
  2 23  1  0
  8 24  1  0
  8 25  1  0
 11 26  1  0
 16 27  1  0
 16 28  1  0
 16 29  1  0
M  END
>  <Binding energies>  (1) 
[-6.42]

>  <Ligand effiencies>  (1) 
[-0.33789473684210525]

>  <Interactions>  (1) 
["V-B:GLU:543:CD:9877, V-A:ARG:545:CZ:4923, H-A:GLY:454:N:4046, V-A:ARG:545:CG:4919, V-A:GLY:454:CA:4045, V-B:TYR:539:CE2:9845, V-A:HIS:456:CE1:4066, V-A:GLY:454:C:4043, H-B:ALA:541:N:9860, V-B:ASP:366:CB:8180, V-B:ALA:541:CB:9861, H-A:TYR:484:OH:4344, V-A:ARG:545:CD:4920, V-A:GLY:453:C:4038, V-B:LEU:363:CD1:8157, V-B:PRO:540:CB:9854, V-B:LEU:363:CA:8153, V-B:PRO:540:CA:9852, V-A:ILE:455:C:4048, V-A:GLY:453:CA:4040, V-B:LEU:363:CB:8155, V-B:ASN:362:C:8140, H-B:GLU:543:OE2:9879"]

$$$$
RR31_Rahimova_2017
     RDKit          3D

 44 45  0  0  0  0  0  0  0  0999 V2000
  127.9020  127.0800   71.8470 C   0  0  0  0  0  0  0  0  0  0  0  0
  128.4050  126.9670   70.4140 C   0  0  0  0  0  0  0  0  0  0  0  0
  127.5940  126.3610   69.4540 C   0  0  0  0  0  0  0  0  0  0  0  0
  128.0230  126.2450   68.1340 C   0  0  0  0  0  0  0  0  0  0  0  0
  129.2740  126.7400   67.7310 C   0  0  0  0  0  0  0  0  0  0  0  0
  129.7230  126.6230   66.4140 N   0  0  0  0  0  0  0  0  0  0  0  0
  128.9980  127.2340   65.2830 C   0  0  0  0  0  0  0  0  0  0  0  0
  129.3940  126.6680   63.8990 C   0  0  0  0  0  0  0  0  0  0  0  0
  130.8370  126.7880   63.6780 N   0  0  0  0  0  0  0  0  0  0  0  0
  131.2390  126.2910   62.3590 C   0  0  0  0  0  0  0  0  0  0  0  0
  130.0990  126.3430   61.3220 C   0  0  0  0  0  0  0  0  0  0  0  0
  129.9290  127.7430   60.7120 C   0  0  0  0  0  0  0  0  0  0  0  0
  130.9000  128.7250   61.3750 N   0  0  0  0  0  0  0  0  0  0  0  0
  131.5060  126.0110   64.7220 C   0  0  0  0  0  0  0  0  0  0  0  0
  131.1700  126.5700   66.1230 C   0  0  0  0  0  0  0  0  0  0  0  0
  130.0830  127.3400   68.7080 C   0  0  0  0  0  0  0  0  0  0  0  0
  129.6640  127.4610   70.0380 C   0  0  0  0  0  0  0  0  0  0  0  0
  130.5910  128.1200   71.0520 C   0  0  0  0  0  0  0  0  0  0  0  0
  128.7330  126.8933   72.5431 H   0  0  0  0  0  0  0  0  0  0  0  0
  127.5017  128.0905   72.0165 H   0  0  0  0  0  0  0  0  0  0  0  0
  127.1080  126.3379   72.0165 H   0  0  0  0  0  0  0  0  0  0  0  0
  126.6066  125.9712   69.7423 H   0  0  0  0  0  0  0  0  0  0  0  0
  127.3708  125.7573   67.3945 H   0  0  0  0  0  0  0  0  0  0  0  0
  127.9213  127.0638   65.4306 H   0  0  0  0  0  0  0  0  0  0  0  0
  129.2625  128.3017   65.2764 H   0  0  0  0  0  0  0  0  0  0  0  0
  129.1092  125.6067   63.8491 H   0  0  0  0  0  0  0  0  0  0  0  0
  128.8705  127.2435   63.1213 H   0  0  0  0  0  0  0  0  0  0  0  0
  132.0744  126.9057   61.9926 H   0  0  0  0  0  0  0  0  0  0  0  0
  131.5268  125.2361   62.4788 H   0  0  0  0  0  0  0  0  0  0  0  0
  130.3224  125.6301   60.5146 H   0  0  0  0  0  0  0  0  0  0  0  0
  129.1625  126.0848   61.8381 H   0  0  0  0  0  0  0  0  0  0  0  0
  130.1370  127.6978   59.6328 H   0  0  0  0  0  0  0  0  0  0  0  0
  128.8976  128.0868   60.8792 H   0  0  0  0  0  0  0  0  0  0  0  0
  130.5510  129.6700   61.2910 H   0  0  0  0  0  0  0  0  0  0  0  0
  131.8050  128.6730   60.9310 H   0  0  0  0  0  0  0  0  0  0  0  0
  131.0060  128.5040   62.3550 H   0  0  0  0  0  0  0  0  0  0  0  0
  131.1728  124.9644   64.6620 H   0  0  0  0  0  0  0  0  0  0  0  0
  132.5932  126.0763   64.5679 H   0  0  0  0  0  0  0  0  0  0  0  0
  131.6517  125.9294   66.8764 H   0  0  0  0  0  0  0  0  0  0  0  0
  131.5399  127.6056   66.1511 H   0  0  0  0  0  0  0  0  0  0  0  0
  131.0725  127.7254   68.4211 H   0  0  0  0  0  0  0  0  0  0  0  0
  130.2516  127.8787   72.0701 H   0  0  0  0  0  0  0  0  0  0  0  0
  131.6157  127.7465   70.9089 H   0  0  0  0  0  0  0  0  0  0  0  0
  130.5749  129.2105   70.9089 H   0  0  0  0  0  0  0  0  0  0  0  0
  1  2  1  0
  2  3  2  0
  3  4  1  0
  4  5  2  0
  5  6  1  0
  6  7  1  0
  7  8  1  0
  8  9  1  0
  9 10  1  0
 10 11  1  0
 11 12  1  0
 12 13  1  0
  9 14  1  0
 14 15  1  0
  5 16  1  0
 16 17  2  0
 17 18  1  0
 17  2  1  0
 15  6  1  0
  1 19  1  0
  1 20  1  0
  1 21  1  0
  3 22  1  0
  4 23  1  0
  7 24  1  0
  7 25  1  0
  8 26  1  0
  8 27  1  0
 10 28  1  0
 10 29  1  0
 11 30  1  0
 11 31  1  0
 12 32  1  0
 12 33  1  0
 13 34  1  0
 13 35  1  0
 13 36  1  0
 14 37  1  0
 14 38  1  0
 15 39  1  0
 15 40  1  0
 16 41  1  0
 18 42  1  0
 18 43  1  0
 18 44  1  0
M  CHG  1  13   1
M  END
>  <Binding energies>  (1) 
[-6.69]

>  <Ligand effiencies>  (1) 
[-0.3185714285714286]

>  <Interactions>  (1) 
["V-B:GLU:543:CD:9877, H-A:GLU:543:OE1:4906, V-A:ARG:545:CZ:4923, H-A:ARG:545:NH2:4925, H-A:GLU:543:OE2:4907, V-A:HIS:456:CE1:4066, H-A:ASP:366:OD1:3210, V-A:GLU:543:CD:4905, V-B:GLU:543:C:9871, V-B:GLU:543:CB:9875, V-B:HIS:456:CE1:9038, V-B:GLY:544:C:9881, V-B:HIS:456:CD2:9036, V-B:LYS:547:CE:9919, V-A:GLU:543:C:4899, V-A:GLY:544:C:4909"]

$$$$
RR32_Rahimova_2017
     RDKit          3D

 37 39  0  0  0  0  0  0  0  0999 V2000
  125.7200  129.0140   74.9240 C   0  0  0  0  0  0  0  0  0  0  0  0
  127.0430  128.9910   74.1660 C   0  0  0  0  0  0  0  0  0  0  0  0
  127.6030  127.7510   73.8540 C   0  0  0  0  0  0  0  0  0  0  0  0
  128.8080  127.6910   73.1600 C   0  0  0  0  0  0  0  0  0  0  0  0
  129.3600  126.4600   72.8530 N   0  0  0  0  0  0  0  0  0  0  0  0
  129.8550  125.6420   73.9750 C   0  0  0  0  0  0  0  0  0  0  0  0
  130.6140  124.3730   73.5180 C   0  0  0  0  0  0  0  0  0  0  0  0
  129.7500  123.5420   72.6800 N   0  0  0  0  0  0  0  0  0  0  0  0
  130.4550  122.3310   72.2750 C   0  0  0  0  0  0  0  0  0  0  0  0
  129.3720  124.3250   71.5050 C   0  0  0  0  0  0  0  0  0  0  0  0
  128.5980  125.5940   71.9320 C   0  0  0  0  0  0  0  0  0  0  0  0
  129.4820  128.8020   72.7660 N   0  0  0  0  0  0  0  0  0  0  0  0
  128.9630  130.0260   73.0590 C   0  0  0  0  0  0  0  0  0  0  0  0
  129.6890  131.1670   72.6380 C   0  0  0  0  0  0  0  0  0  0  0  0
  129.2070  132.4420   72.9090 C   0  0  0  0  0  0  0  0  0  0  0  0
  128.0100  132.6130   73.5940 C   0  0  0  0  0  0  0  0  0  0  0  0
  127.2720  131.5120   74.0220 C   0  0  0  0  0  0  0  0  0  0  0  0
  127.7280  130.1860   73.7670 C   0  0  0  0  0  0  0  0  0  0  0  0
  125.9173  129.0106   76.0062 H   0  0  0  0  0  0  0  0  0  0  0  0
  125.1598  129.9220   74.6563 H   0  0  0  0  0  0  0  0  0  0  0  0
  125.1286  128.1260   74.6563 H   0  0  0  0  0  0  0  0  0  0  0  0
  127.0935  126.8240   74.1557 H   0  0  0  0  0  0  0  0  0  0  0  0
  130.5360  126.2569   74.5818 H   0  0  0  0  0  0  0  0  0  0  0  0
  128.9771  125.3085   74.5478 H   0  0  0  0  0  0  0  0  0  0  0  0
  131.5031  124.6691   72.9419 H   0  0  0  0  0  0  0  0  0  0  0  0
  130.9160  123.7965   74.4048 H   0  0  0  0  0  0  0  0  0  0  0  0
  130.7771  121.7777   73.1695 H   0  0  0  0  0  0  0  0  0  0  0  0
  129.7836  121.6991   71.6750 H   0  0  0  0  0  0  0  0  0  0  0  0
  131.3360  122.6029   71.6750 H   0  0  0  0  0  0  0  0  0  0  0  0
  130.2797  124.6203   70.9584 H   0  0  0  0  0  0  0  0  0  0  0  0
  128.7259  123.7121   70.8593 H   0  0  0  0  0  0  0  0  0  0  0  0
  128.3531  126.1738   71.0298 H   0  0  0  0  0  0  0  0  0  0  0  0
  127.6969  125.2613   72.4680 H   0  0  0  0  0  0  0  0  0  0  0  0
  130.6375  131.0435   72.0947 H   0  0  0  0  0  0  0  0  0  0  0  0
  129.7774  133.3227   72.5787 H   0  0  0  0  0  0  0  0  0  0  0  0
  127.6414  133.6287   73.8004 H   0  0  0  0  0  0  0  0  0  0  0  0
  126.3268  131.6676   74.5628 H   0  0  0  0  0  0  0  0  0  0  0  0
  1  2  1  0
  2  3  2  0
  3  4  1  0
  4  5  1  0
  5  6  1  0
  6  7  1  0
  7  8  1  0
  8  9  1  0
  8 10  1  0
 10 11  1  0
  4 12  2  0
 12 13  1  0
 13 14  2  0
 14 15  1  0
 15 16  2  0
 16 17  1  0
 17 18  2  0
 18  2  1  0
 11  5  1  0
 18 13  1  0
  1 19  1  0
  1 20  1  0
  1 21  1  0
  3 22  1  0
  6 23  1  0
  6 24  1  0
  7 25  1  0
  7 26  1  0
  9 27  1  0
  9 28  1  0
  9 29  1  0
 10 30  1  0
 10 31  1  0
 11 32  1  0
 11 33  1  0
 14 34  1  0
 15 35  1  0
 16 36  1  0
 17 37  1  0
M  END
>  <Binding energies>  (1) 
[-5.72]

>  <Ligand effiencies>  (1) 
[-0.31777777777777777]

>  <Interactions>  (1) 
["V-B:GLU:543:C:9871, V-A:HIS:456:CD2:4064, V-B:HIS:456:CD2:9036, V-B:LYS:547:CE:9919, V-B:ASP:473:CG:9208, V-B:HIS:456:CG:9034, V-A:LYS:547:CE:4947, V-A:GLU:543:C:4899, V-B:HIS:456:CB:9033, V-B:VAL:458:CG2:9055, H-A:LYS:547:NZ:4948, H-B:LYS:547:NZ:9920, V-A:GLY:544:CA:4911, V-A:TYR:484:CD2:4340, V-A:TYR:484:CD1:4339, V-A:TYR:484:CG:4338, V-A:TYR:484:CB:4337, V-A:TYR:484:CE2:4342"]

$$$$
RR32_Rahimova_2017-again1
     RDKit          3D

 38 40  0  0  0  0  0  0  0  0999 V2000
  128.5390  132.6050   61.0010 C   0  0  0  0  0  0  0  0  0  0  0  0
  127.1990  132.2690   61.6380 C   0  0  0  0  0  0  0  0  0  0  0  0
  127.0290  131.0690   62.3290 C   0  0  0  0  0  0  0  0  0  0  0  0
  125.7970  130.7640   62.9170 C   0  0  0  0  0  0  0  0  0  0  0  0
  125.6010  129.5620   63.6060 N   0  0  0  0  0  0  0  0  0  0  0  0
  126.3510  128.3500   63.2210 C   0  0  0  0  0  0  0  0  0  0  0  0
  127.7340  128.2640   63.9090 C   0  0  0  0  0  0  0  0  0  0  0  0
  127.5210  128.2140   65.4350 N   0  0  0  0  0  0  0  0  0  0  0  0
  128.8710  128.1440   66.1740 C   0  0  0  0  0  0  0  0  0  0  0  0
  126.7280  129.4660   65.8640 C   0  0  0  0  0  0  0  0  0  0  0  0
  125.4010  129.5060   65.0700 C   0  0  0  0  0  0  0  0  0  0  0  0
  124.7330  131.6070   62.8100 N   0  0  0  0  0  0  0  0  0  0  0  0
  124.8690  132.7860   62.1450 C   0  0  0  0  0  0  0  0  0  0  0  0
  123.7470  133.6450   62.0670 C   0  0  0  0  0  0  0  0  0  0  0  0
  123.8420  134.8630   61.3980 C   0  0  0  0  0  0  0  0  0  0  0  0
  125.0370  135.2490   60.7990 C   0  0  0  0  0  0  0  0  0  0  0  0
  126.1580  134.4240   60.8570 C   0  0  0  0  0  0  0  0  0  0  0  0
  126.1000  133.1740   61.5320 C   0  0  0  0  0  0  0  0  0  0  0  0
  129.2832  132.7916   61.7893 H   0  0  0  0  0  0  0  0  0  0  0  0
  128.8698  131.7620   60.3766 H   0  0  0  0  0  0  0  0  0  0  0  0
  128.4329  133.5044   60.3766 H   0  0  0  0  0  0  0  0  0  0  0  0
  127.8664  130.3605   62.4117 H   0  0  0  0  0  0  0  0  0  0  0  0
  125.7610  127.4657   63.5037 H   0  0  0  0  0  0  0  0  0  0  0  0
  126.5207  128.3935   62.1350 H   0  0  0  0  0  0  0  0  0  0  0  0
  128.2570  127.3548   63.5777 H   0  0  0  0  0  0  0  0  0  0  0  0
  128.3418  129.1413   63.6426 H   0  0  0  0  0  0  0  0  0  0  0  0
  126.9710  127.3960   65.6550 H   0  0  0  0  0  0  0  0  0  0  0  0
  128.6955  128.1531   67.2599 H   0  0  0  0  0  0  0  0  0  0  0  0
  129.3942  127.2175   65.8949 H   0  0  0  0  0  0  0  0  0  0  0  0
  129.4872  129.0114   65.8949 H   0  0  0  0  0  0  0  0  0  0  0  0
  126.5136  129.4175   66.9418 H   0  0  0  0  0  0  0  0  0  0  0  0
  127.3165  130.3723   65.6581 H   0  0  0  0  0  0  0  0  0  0  0  0
  124.8225  128.6016   65.3097 H   0  0  0  0  0  0  0  0  0  0  0  0
  124.8714  130.4244   65.3635 H   0  0  0  0  0  0  0  0  0  0  0  0
  122.7969  133.3498   62.5362 H   0  0  0  0  0  0  0  0  0  0  0  0
  122.9652  135.5250   61.3428 H   0  0  0  0  0  0  0  0  0  0  0  0
  125.0971  136.2143   60.2749 H   0  0  0  0  0  0  0  0  0  0  0  0
  127.0952  134.7421   60.3769 H   0  0  0  0  0  0  0  0  0  0  0  0
  1  2  1  0
  2  3  2  0
  3  4  1  0
  4  5  1  0
  5  6  1  0
  6  7  1  0
  7  8  1  0
  8  9  1  0
  8 10  1  0
 10 11  1  0
  4 12  2  0
 12 13  1  0
 13 14  2  0
 14 15  1  0
 15 16  2  0
 16 17  1  0
 17 18  2  0
 18  2  1  0
 11  5  1  0
 18 13  1  0
  1 19  1  0
  1 20  1  0
  1 21  1  0
  3 22  1  0
  6 23  1  0
  6 24  1  0
  7 25  1  0
  7 26  1  0
  8 27  1  0
  9 28  1  0
  9 29  1  0
  9 30  1  0
 10 31  1  0
 10 32  1  0
 11 33  1  0
 11 34  1  0
 14 35  1  0
 15 36  1  0
 16 37  1  0
 17 38  1  0
M  CHG  1   8   1
M  END
>  <Binding energies>  (1) 
[-6.47]

>  <Ligand effiencies>  (1) 
[-0.3405263157894737]

>  <Interactions>  (1) 
["V-B:GLU:543:CD:9877, V-A:GLU:543:CD:4905, V-A:GLU:543:CG:4904, V-B:HIS:456:CE1:9038, V-A:GLU:543:CB:4903, V-B:ILE:369:CD1:8207, V-B:ILE:369:CG2:8205, V-B:ARG:545:CZ:9895, V-B:TRP:381:CH2:8340, V-A:ALA:541:CB:4889, V-B:GLY:454:CA:9017, V-A:TYR:539:CD2:4871, V-B:LEU:475:CD2:9227, H-B:GLU:543:OE1:9878, V-B:TRP:381:CZ2:8338, H-B:GLU:543:OE2:9879"]

$$$$
RR32_Rahimova_2017-again2
     RDKit          3D

 39 41  0  0  0  0  0  0  0  0999 V2000
  128.1560  122.4890   59.6640 C   0  0  0  0  0  0  0  0  0  0  0  0
  127.4480  123.8230   59.8630 C   0  0  0  0  0  0  0  0  0  0  0  0
  127.9490  124.7540   60.7780 C   0  0  0  0  0  0  0  0  0  0  0  0
  127.3080  125.9830   60.9800 C   0  0  0  0  0  0  0  0  0  0  0  0
  127.7910  126.9830   61.8990 N   0  0  0  0  0  0  0  0  0  0  0  0
  129.2020  126.9690   62.3680 C   0  0  0  0  0  0  0  0  0  0  0  0
  130.1230  127.7080   61.3600 C   0  0  0  0  0  0  0  0  0  0  0  0
  129.6480  129.1730   61.2060 N   0  0  0  0  0  0  0  0  0  0  0  0
  130.5040  129.9250   60.1690 C   0  0  0  0  0  0  0  0  0  0  0  0
  128.1500  129.2110   60.8200 C   0  0  0  0  0  0  0  0  0  0  0  0
  127.3330  128.3950   61.8580 C   0  0  0  0  0  0  0  0  0  0  0  0
  126.1990  126.2430   60.2570 N   0  0  0  0  0  0  0  0  0  0  0  0
  125.6350  125.3910   59.3350 C   0  0  0  0  0  0  0  0  0  0  0  0
  124.4680  125.7620   58.6310 C   0  0  0  0  0  0  0  0  0  0  0  0
  123.9270  124.8760   57.7030 C   0  0  0  0  0  0  0  0  0  0  0  0
  124.5250  123.6400   57.4690 C   0  0  0  0  0  0  0  0  0  0  0  0
  125.6780  123.2610   58.1580 C   0  0  0  0  0  0  0  0  0  0  0  0
  126.2690  124.1320   59.1160 C   0  0  0  0  0  0  0  0  0  0  0  0
  128.3899  122.0482   60.6443 H   0  0  0  0  0  0  0  0  0  0  0  0
  127.5013  121.8067   59.1020 H   0  0  0  0  0  0  0  0  0  0  0  0
  129.0880  122.6488   59.1020 H   0  0  0  0  0  0  0  0  0  0  0  0
  128.8599  124.5178   61.3476 H   0  0  0  0  0  0  0  0  0  0  0  0
  129.2624  127.4691   63.3459 H   0  0  0  0  0  0  0  0  0  0  0  0
  129.5363  125.9244   62.4521 H   0  0  0  0  0  0  0  0  0  0  0  0
  131.1582  127.6953   61.7317 H   0  0  0  0  0  0  0  0  0  0  0  0
  130.0779  127.2032   60.3837 H   0  0  0  0  0  0  0  0  0  0  0  0
  129.7450  129.6250   62.1060 H   0  0  0  0  0  0  0  0  0  0  0  0
  131.2322  130.5647   60.6892 H   0  0  0  0  0  0  0  0  0  0  0  0
  131.0383  129.1989   59.5387 H   0  0  0  0  0  0  0  0  0  0  0  0
  129.8527  130.5484   59.5387 H   0  0  0  0  0  0  0  0  0  0  0  0
  127.7985  130.2533   60.8128 H   0  0  0  0  0  0  0  0  0  0  0  0
  128.0157  128.7746   59.8193 H   0  0  0  0  0  0  0  0  0  0  0  0
  127.4630  128.8451   62.8532 H   0  0  0  0  0  0  0  0  0  0  0  0
  126.2730  128.4129   61.5645 H   0  0  0  0  0  0  0  0  0  0  0  0
  125.7520  127.1360   60.4000 H   0  0  0  0  0  0  0  0  0  0  0  0
  123.9931  126.7373   58.8133 H   0  0  0  0  0  0  0  0  0  0  0  0
  123.0184  125.1549   57.1492 H   0  0  0  0  0  0  0  0  0  0  0  0
  124.0828  122.9538   56.7317 H   0  0  0  0  0  0  0  0  0  0  0  0
  126.1342  122.2801   57.9588 H   0  0  0  0  0  0  0  0  0  0  0  0
  1  2  1  0
  2  3  2  0
  3  4  1  0
  4  5  1  0
  5  6  1  0
  6  7  1  0
  7  8  1  0
  8  9  1  0
  8 10  1  0
 10 11  1  0
  4 12  2  0
 12 13  1  0
 13 14  2  0
 14 15  1  0
 15 16  2  0
 16 17  1  0
 17 18  2  0
 18  2  1  0
 11  5  1  0
 18 13  1  0
  1 19  1  0
  1 20  1  0
  1 21  1  0
  3 22  1  0
  6 23  1  0
  6 24  1  0
  7 25  1  0
  7 26  1  0
  8 27  1  0
  9 28  1  0
  9 29  1  0
  9 30  1  0
 10 31  1  0
 10 32  1  0
 11 33  1  0
 11 34  1  0
 12 35  1  0
 14 36  1  0
 15 37  1  0
 16 38  1  0
 17 39  1  0
M  CHG  2   8   1  12   1
M  END
>  <Binding energies>  (1) 
[-7.4]

>  <Ligand effiencies>  (1) 
[-0.37]

>  <Interactions>  (1) 
["V-B:GLU:543:CD:9877, H-A:GLU:543:OE1:4906, H-A:GLU:543:OE2:4907, V-B:TYR:539:CE2:9845, V-A:GLU:543:CD:4905, V-B:ASP:366:CB:8180, V-B:ASP:366:CG:8181, H-B:ASP:366:OD1:8182, V-B:PRO:540:N:9853, V-B:LEU:363:CD1:8157, V-B:PRO:540:CB:9854, V-B:LEU:363:CA:8153, V-B:PRO:540:CA:9852, H-B:GLU:543:OE2:9879, V-B:TYR:531:CE2:9762"]

$$$$
RR33_Rahimova_2017
     RDKit          3D

 36 37  0  0  0  0  0  0  0  0999 V2000
  134.8780  125.1280   66.1300 C   0  0  0  0  0  0  0  0  0  0  0  0
  133.5840  125.1310   65.3100 C   0  0  0  0  0  0  0  0  0  0  0  0
  133.8300  124.4810   64.0660 O   0  0  0  0  0  0  0  0  0  0  0  0
  132.7760  124.2470   63.2030 C   0  0  0  0  0  0  0  0  0  0  0  0
  131.6390  123.6590   63.7560 C   0  0  0  0  0  0  0  0  0  0  0  0
  130.5280  123.3830   62.9640 C   0  0  0  0  0  0  0  0  0  0  0  0
  130.5390  123.6920   61.6000 C   0  0  0  0  0  0  0  0  0  0  0  0
  129.3460  123.3940   60.7500 C   0  0  0  0  0  0  0  0  0  0  0  0
  128.0810  123.5870   61.0470 N   0  0  0  0  0  0  0  0  0  0  0  0
  127.4050  123.1740   59.9860 C   0  0  0  0  0  0  0  0  0  0  0  0
  125.8940  123.2500   59.9470 C   0  0  0  0  0  0  0  0  0  0  0  0
  125.3450  123.2470   61.2950 N   0  0  0  0  0  0  0  0  0  0  0  0
  124.1200  124.0270   61.3520 C   0  0  0  0  0  0  0  0  0  0  0  0
  128.2910  122.7170   59.0180 C   0  0  0  0  0  0  0  0  0  0  0  0
  128.1600  122.1410   57.6290 C   0  0  0  0  0  0  0  0  0  0  0  0
  129.5410  122.8600   59.5160 O   0  0  0  0  0  0  0  0  0  0  0  0
  131.6760  124.2860   61.0430 C   0  0  0  0  0  0  0  0  0  0  0  0
  132.7880  124.5620   61.8350 C   0  0  0  0  0  0  0  0  0  0  0  0
  134.6326  125.1286   67.2023 H   0  0  0  0  0  0  0  0  0  0  0  0
  135.4632  124.2285   65.8883 H   0  0  0  0  0  0  0  0  0  0  0  0
  135.4674  126.0248   65.8883 H   0  0  0  0  0  0  0  0  0  0  0  0
  132.7966  124.5938   65.8590 H   0  0  0  0  0  0  0  0  0  0  0  0
  133.2544  126.1655   65.1336 H   0  0  0  0  0  0  0  0  0  0  0  0
  131.6198  123.4111   64.8275 H   0  0  0  0  0  0  0  0  0  0  0  0
  129.6371  122.9196   63.4131 H   0  0  0  0  0  0  0  0  0  0  0  0
  125.5919  124.1760   59.4359 H   0  0  0  0  0  0  0  0  0  0  0  0
  125.5091  122.3731   59.4058 H   0  0  0  0  0  0  0  0  0  0  0  0
  126.0200  123.6510   61.9300 H   0  0  0  0  0  0  0  0  0  0  0  0
  123.8453  124.2019   62.4027 H   0  0  0  0  0  0  0  0  0  0  0  0
  124.2762  124.9923   60.8482 H   0  0  0  0  0  0  0  0  0  0  0  0
  123.3114  123.4771   60.8482 H   0  0  0  0  0  0  0  0  0  0  0  0
  127.9165  121.0705   57.6975 H   0  0  0  0  0  0  0  0  0  0  0  0
  127.3582  122.6656   57.0886 H   0  0  0  0  0  0  0  0  0  0  0  0
  129.1098  122.2672   57.0886 H   0  0  0  0  0  0  0  0  0  0  0  0
  131.6922  124.5369   59.9721 H   0  0  0  0  0  0  0  0  0  0  0  0
  133.6781  125.0281   61.3873 H   0  0  0  0  0  0  0  0  0  0  0  0
  1  2  1  0
  2  3  1  0
  3  4  1  0
  4  5  2  0
  5  6  1  0
  6  7  2  0
  7  8  1  0
  8  9  2  0
  9 10  1  0
 10 11  1  0
 11 12  1  0
 12 13  1  0
 10 14  2  0
 14 15  1  0
 14 16  1  0
  7 17  1  0
 17 18  2  0
 18  4  1  0
 16  8  1  0
  1 19  1  0
  1 20  1  0
  1 21  1  0
  2 22  1  0
  2 23  1  0
  5 24  1  0
  6 25  1  0
 11 26  1  0
 11 27  1  0
 12 28  1  0
 13 29  1  0
 13 30  1  0
 13 31  1  0
 15 32  1  0
 15 33  1  0
 15 34  1  0
 17 35  1  0
 18 36  1  0
M  END
>  <Binding energies>  (1) 
[-5.87]

>  <Ligand effiencies>  (1) 
[-0.30894736842105264]

>  <Interactions>  (1) 
["V-B:GLU:543:CD:9877, V-A:ARG:545:CZ:4923, H-A:GLY:454:N:4046, V-A:ARG:545:CG:4919, V-A:GLY:454:CA:4045, V-B:TYR:539:CE2:9845, V-A:HIS:456:CE1:4066, V-A:GLY:454:C:4043, V-B:ARG:545:CZ:9895, V-B:TYR:539:CZ:9846, H-B:ALA:541:N:9860, V-B:TYR:539:CD2:9843, V-A:ASP:366:CG:3209, V-B:TYR:539:C:9836, V-A:ARG:545:CD:4920, V-B:PRO:540:N:9853, V-A:GLY:453:C:4038, V-B:PRO:540:CB:9854, V-B:PRO:540:C:9850, V-B:PRO:540:CA:9852, V-A:GLY:453:CA:4040, V-B:ASN:362:C:8140, V-B:ASN:362:CB:8144, V-B:TYR:539:CD1:9842, V-B:TYR:539:CG:9841, V-B:TYR:539:CE1:9844, H-B:TYR:539:OH:9847, H-B:GLU:543:OE2:9879"]

$$$$
RR33_Rahimova_2017-again1
     RDKit          3D

 37 38  0  0  0  0  0  0  0  0999 V2000
  127.0920  127.7530   73.7760 C   0  0  0  0  0  0  0  0  0  0  0  0
  128.5080  128.3280   73.6720 C   0  0  0  0  0  0  0  0  0  0  0  0
  129.3420  127.3770   73.0170 O   0  0  0  0  0  0  0  0  0  0  0  0
  129.3050  127.2770   71.6390 C   0  0  0  0  0  0  0  0  0  0  0  0
  130.3960  127.8050   70.9480 C   0  0  0  0  0  0  0  0  0  0  0  0
  130.4490  127.7500   69.5580 C   0  0  0  0  0  0  0  0  0  0  0  0
  129.4040  127.1640   68.8360 C   0  0  0  0  0  0  0  0  0  0  0  0
  129.4580  127.1020   67.3430 C   0  0  0  0  0  0  0  0  0  0  0  0
  128.6190  127.6430   66.4870 N   0  0  0  0  0  0  0  0  0  0  0  0
  129.0800  127.3180   65.2880 C   0  0  0  0  0  0  0  0  0  0  0  0
  128.3630  127.7580   64.0260 C   0  0  0  0  0  0  0  0  0  0  0  0
  126.9130  128.1320   64.3750 N   0  0  0  0  0  0  0  0  0  0  0  0
  126.5380  129.5680   63.9830 C   0  0  0  0  0  0  0  0  0  0  0  0
  130.2300  126.5500   65.4260 C   0  0  0  0  0  0  0  0  0  0  0  0
  131.1970  125.8830   64.4800 C   0  0  0  0  0  0  0  0  0  0  0  0
  130.4690  126.4160   66.7520 O   0  0  0  0  0  0  0  0  0  0  0  0
  128.3090  126.6330   69.5250 C   0  0  0  0  0  0  0  0  0  0  0  0
  128.2580  126.6880   70.9150 C   0  0  0  0  0  0  0  0  0  0  0  0
  126.8183  127.6419   74.8356 H   0  0  0  0  0  0  0  0  0  0  0  0
  126.3825  128.4343   73.2835 H   0  0  0  0  0  0  0  0  0  0  0  0
  127.0584  126.7700   73.2835 H   0  0  0  0  0  0  0  0  0  0  0  0
  128.4861  129.2623   73.0918 H   0  0  0  0  0  0  0  0  0  0  0  0
  128.9005  128.5398   74.6775 H   0  0  0  0  0  0  0  0  0  0  0  0
  131.2221  128.2691   71.5068 H   0  0  0  0  0  0  0  0  0  0  0  0
  131.3157  128.1688   69.0256 H   0  0  0  0  0  0  0  0  0  0  0  0
  128.8755  128.6316   63.5968 H   0  0  0  0  0  0  0  0  0  0  0  0
  128.3678  126.9384   63.2924 H   0  0  0  0  0  0  0  0  0  0  0  0
  126.2890  127.4900   63.9080 H   0  0  0  0  0  0  0  0  0  0  0  0
  126.7840  128.0210   65.3720 H   0  0  0  0  0  0  0  0  0  0  0  0
  126.3815  130.1672   64.8921 H   0  0  0  0  0  0  0  0  0  0  0  0
  127.3509  130.0098   63.3880 H   0  0  0  0  0  0  0  0  0  0  0  0
  125.6129  129.5560   63.3880 H   0  0  0  0  0  0  0  0  0  0  0  0
  131.9675  125.3515   65.0578 H   0  0  0  0  0  0  0  0  0  0  0  0
  130.6544  125.1662   63.8462 H   0  0  0  0  0  0  0  0  0  0  0  0
  131.6743  126.6448   63.8462 H   0  0  0  0  0  0  0  0  0  0  0  0
  127.4833  126.1692   68.9654 H   0  0  0  0  0  0  0  0  0  0  0  0
  127.3925  126.2676   71.4481 H   0  0  0  0  0  0  0  0  0  0  0  0
  1  2  1  0
  2  3  1  0
  3  4  1  0
  4  5  2  0
  5  6  1  0
  6  7  2  0
  7  8  1  0
  8  9  2  0
  9 10  1  0
 10 11  1  0
 11 12  1  0
 12 13  1  0
 10 14  2  0
 14 15  1  0
 14 16  1  0
  7 17  1  0
 17 18  2  0
 18  4  1  0
 16  8  1  0
  1 19  1  0
  1 20  1  0
  1 21  1  0
  2 22  1  0
  2 23  1  0
  5 24  1  0
  6 25  1  0
 11 26  1  0
 11 27  1  0
 12 28  1  0
 12 29  1  0
 13 30  1  0
 13 31  1  0
 13 32  1  0
 15 33  1  0
 15 34  1  0
 15 35  1  0
 17 36  1  0
 18 37  1  0
M  CHG  1  12   1
M  END
>  <Binding energies>  (1) 
[-6.42]

>  <Ligand effiencies>  (1) 
[-0.321]

>  <Interactions>  (1) 
["V-B:GLU:543:CD:9877, V-A:HIS:456:CE1:4066, V-A:GLU:543:CD:4905, V-B:HIS:456:CE1:9038, V-A:HIS:456:CD2:4064, V-B:HIS:456:CD2:9036, H-B:GLU:543:OE1:9878, V-B:LYS:547:CE:9919, V-A:LYS:547:CE:4947, V-A:GLU:543:C:4899, V-B:LYS:547:CD:9918, H-A:LYS:547:NZ:4948, V-A:GLY:544:C:4909, H-B:GLU:543:OE2:9879"]

$$$$
RR3_Rahimova_2017
     RDKit          3D

 63 69  0  0  0  0  0  0  0  0999 V2000
  123.9800  132.7320   62.8540 C   0  0  0  0  0  0  0  0  0  0  0  0
  123.8030  131.4540   62.3340 C   0  0  0  0  0  0  0  0  0  0  0  0
  124.7080  130.4470   62.6570 C   0  0  0  0  0  0  0  0  0  0  0  0
  125.7980  130.7020   63.5020 C   0  0  0  0  0  0  0  0  0  0  0  0
  126.7690  129.6170   63.8500 C   0  0  0  0  0  0  0  0  0  0  0  0
  127.2050  129.4360   65.1690 C   0  0  0  0  0  0  0  0  0  0  0  0
  128.1110  128.4290   65.4910 C   0  0  0  0  0  0  0  0  0  0  0  0
  128.6090  127.5840   64.4960 C   0  0  0  0  0  0  0  0  0  0  0  0
  129.5880  126.5030   64.8340 C   0  0  0  0  0  0  0  0  0  0  0  0
  130.1510  125.7890   63.8660 N   0  0  0  0  0  0  0  0  0  0  0  0
  130.9840  124.9600   64.4470 C   0  0  0  0  0  0  0  0  0  0  0  0
  131.8210  123.9840   63.7540 C   0  0  0  0  0  0  0  0  0  0  0  0
  132.3770  122.8480   64.3180 C   0  0  0  0  0  0  0  0  0  0  0  0
  133.0950  122.1560   63.3770 N   0  0  0  0  0  0  0  0  0  0  0  0
  133.0380  122.8130   62.1680 C   0  0  0  0  0  0  0  0  0  0  0  0
  133.6070  122.4960   60.9290 C   0  0  0  0  0  0  0  0  0  0  0  0
  133.3620  123.3770   59.8770 C   0  0  0  0  0  0  0  0  0  0  0  0
  132.5890  124.5210   60.0420 C   0  0  0  0  0  0  0  0  0  0  0  0
  132.0210  124.8360   61.2750 C   0  0  0  0  0  0  0  0  0  0  0  0
  132.2370  123.9810   62.3710 C   0  0  0  0  0  0  0  0  0  0  0  0
  130.9680  125.1220   65.8050 N   0  0  0  0  0  0  0  0  0  0  0  0
  130.0540  126.1010   66.0980 C   0  0  0  0  0  0  0  0  0  0  0  0
  129.7220  126.5080   67.4960 C   0  0  0  0  0  0  0  0  0  0  0  0
  128.7030  125.8550   68.1920 C   0  0  0  0  0  0  0  0  0  0  0  0
  128.3820  126.2400   69.4890 C   0  0  0  0  0  0  0  0  0  0  0  0
  129.0740  127.2810   70.1250 C   0  0  0  0  0  0  0  0  0  0  0  0
  128.7130  127.7050   71.5130 C   0  0  0  0  0  0  0  0  0  0  0  0
  129.3310  128.8140   72.1110 C   0  0  0  0  0  0  0  0  0  0  0  0
  128.9920  129.2110   73.4030 C   0  0  0  0  0  0  0  0  0  0  0  0
  128.0270  128.5020   74.1110 C   0  0  0  0  0  0  0  0  0  0  0  0
  127.4000  127.4000   73.5370 C   0  0  0  0  0  0  0  0  0  0  0  0
  127.7430  127.0050   72.2470 C   0  0  0  0  0  0  0  0  0  0  0  0
  130.1060  127.9170   69.4210 C   0  0  0  0  0  0  0  0  0  0  0  0
  130.4300  127.5350   68.1230 C   0  0  0  0  0  0  0  0  0  0  0  0
  128.1710  127.7480   63.1810 C   0  0  0  0  0  0  0  0  0  0  0  0
  127.2650  128.7560   62.8620 C   0  0  0  0  0  0  0  0  0  0  0  0
  125.9570  131.9980   64.0140 C   0  0  0  0  0  0  0  0  0  0  0  0
  125.0540  133.0080   63.6940 C   0  0  0  0  0  0  0  0  0  0  0  0
  123.2663  133.5294   62.5994 H   0  0  0  0  0  0  0  0  0  0  0  0
  122.9519  131.2402   61.6707 H   0  0  0  0  0  0  0  0  0  0  0  0
  124.5664  129.4374   62.2439 H   0  0  0  0  0  0  0  0  0  0  0  0
  126.8263  130.0986   65.9612 H   0  0  0  0  0  0  0  0  0  0  0  0
  128.4362  128.2981   66.5336 H   0  0  0  0  0  0  0  0  0  0  0  0
  132.2596  122.5447   65.3688 H   0  0  0  0  0  0  0  0  0  0  0  0
  133.5770  121.2950   63.5890 H   0  0  0  0  0  0  0  0  0  0  0  0
  134.2196  121.5927   60.7918 H   0  0  0  0  0  0  0  0  0  0  0  0
  133.7925  123.1611   58.8880 H   0  0  0  0  0  0  0  0  0  0  0  0
  132.4229  125.1892   59.1841 H   0  0  0  0  0  0  0  0  0  0  0  0
  131.4102  125.7436   61.3900 H   0  0  0  0  0  0  0  0  0  0  0  0
  131.5090  124.5940   66.4740 H   0  0  0  0  0  0  0  0  0  0  0  0
  128.1519  125.0327   67.7124 H   0  0  0  0  0  0  0  0  0  0  0  0
  127.5734  125.7205   70.0241 H   0  0  0  0  0  0  0  0  0  0  0  0
  130.0931  129.3773   71.5525 H   0  0  0  0  0  0  0  0  0  0  0  0
  129.4852  130.0811   73.8610 H   0  0  0  0  0  0  0  0  0  0  0  0
  127.7578  128.8143   75.1308 H   0  0  0  0  0  0  0  0  0  0  0  0
  126.6365  126.8434   74.1004 H   0  0  0  0  0  0  0  0  0  0  0  0
  127.2471  126.1324   71.7968 H   0  0  0  0  0  0  0  0  0  0  0  0
  130.6684  128.7307   69.9023 H   0  0  0  0  0  0  0  0  0  0  0  0
  131.2463  128.0436   67.5892 H   0  0  0  0  0  0  0  0  0  0  0  0
  128.5435  127.0775   62.3926 H   0  0  0  0  0  0  0  0  0  0  0  0
  126.9341  128.8781   61.8201 H   0  0  0  0  0  0  0  0  0  0  0  0
  126.8063  132.2193   64.6771 H   0  0  0  0  0  0  0  0  0  0  0  0
  125.1891  134.0199   64.1036 H   0  0  0  0  0  0  0  0  0  0  0  0
  1  2  2  0
  2  3  1  0
  3  4  2  0
  4  5  1  0
  5  6  2  0
  6  7  1  0
  7  8  2  0
  8  9  1  0
  9 10  1  0
 10 11  2  0
 11 12  1  0
 12 13  2  0
 13 14  1  0
 14 15  1  0
 15 16  2  0
 16 17  1  0
 17 18  2  0
 18 19  1  0
 19 20  2  0
 11 21  1  0
 21 22  1  0
 22 23  1  0
 23 24  2  0
 24 25  1  0
 25 26  2  0
 26 27  1  0
 27 28  2  0
 28 29  1  0
 29 30  2  0
 30 31  1  0
 31 32  2  0
 26 33  1  0
 33 34  2  0
  8 35  1  0
 35 36  2  0
  4 37  1  0
 37 38  2  0
 38  1  1  0
 36  5  1  0
 22  9  2  0
 34 23  1  0
 20 12  1  0
 32 27  1  0
 20 15  1  0
  1 39  1  0
  2 40  1  0
  3 41  1  0
  6 42  1  0
  7 43  1  0
 13 44  1  0
 14 45  1  0
 16 46  1  0
 17 47  1  0
 18 48  1  0
 19 49  1  0
 21 50  1  0
 24 51  1  0
 25 52  1  0
 28 53  1  0
 29 54  1  0
 30 55  1  0
 31 56  1  0
 32 57  1  0
 33 58  1  0
 34 59  1  0
 35 60  1  0
 36 61  1  0
 37 62  1  0
 38 63  1  0
M  END
>  <Binding energies>  (1) 
[-10.22]

>  <Ligand effiencies>  (1) 
[-0.2555]

>  <Interactions>  (1) 
["V-A:LEU:475:CD1:4254, V-B:GLU:543:CD:9877, V-A:ILE:369:CB:3232, V-A:ILE:369:CG2:3233, V-A:GLY:454:CA:4045, V-B:TYR:539:CE2:9845, V-A:HIS:456:CE1:4066, V-A:GLU:543:CD:4905, V-A:TYR:484:CZ:4343, V-B:GLU:543:C:9871, V-B:GLU:543:CB:9875, V-B:HIS:456:CE1:9038, V-B:HIS:456:CD2:9036, V-A:GLU:543:CB:4903, V-B:ILE:369:CD1:8207, V-B:GLY:454:CA:9017, V-B:LEU:475:CD2:9227, V-B:TYR:539:CZ:9846, V-B:ASP:366:CG:8181, V-A:ASP:366:CG:3209, V-A:ASP:366:CB:3208, H-A:TYR:484:OH:4344, V-B:LYS:547:CE:9919, H-A:HIS:456:NE2:4067, V-A:LYS:547:CE:4947, V-A:GLU:543:C:4899, V-B:LYS:547:CD:9918, V-A:LEU:475:CG:4253"]

$$$$
RR4_Rahimova_2017
     RDKit          3D

 66 70  0  0  0  0  0  0  0  0999 V2000
  127.9720  127.7320   73.8600 C   0  0  0  0  0  0  0  0  0  0  0  0
  129.1560  127.3070   73.1960 O   0  0  0  0  0  0  0  0  0  0  0  0
  129.1660  127.2350   71.8160 C   0  0  0  0  0  0  0  0  0  0  0  0
  130.2800  127.7660   71.1690 C   0  0  0  0  0  0  0  0  0  0  0  0
  130.3760  127.7360   69.7820 C   0  0  0  0  0  0  0  0  0  0  0  0
  129.3580  127.1760   68.9970 C   0  0  0  0  0  0  0  0  0  0  0  0
  129.4640  127.1460   67.4990 C   0  0  0  0  0  0  0  0  0  0  0  0
  128.5840  127.8400   66.6630 C   0  0  0  0  0  0  0  0  0  0  0  0
  128.7280  127.7840   65.2700 C   0  0  0  0  0  0  0  0  0  0  0  0
  127.7670  128.5740   64.4420 C   0  0  0  0  0  0  0  0  0  0  0  0
  127.4450  129.8870   64.8010 C   0  0  0  0  0  0  0  0  0  0  0  0
  126.5600  130.6340   64.0280 C   0  0  0  0  0  0  0  0  0  0  0  0
  125.9860  130.0870   62.8810 C   0  0  0  0  0  0  0  0  0  0  0  0
  125.1200  130.9020   62.1770 O   0  0  0  0  0  0  0  0  0  0  0  0
  123.8030  131.1120   62.6760 C   0  0  0  0  0  0  0  0  0  0  0  0
  126.3100  128.7730   62.5140 C   0  0  0  0  0  0  0  0  0  0  0  0
  127.1960  128.0280   63.2880 C   0  0  0  0  0  0  0  0  0  0  0  0
  129.7670  126.9870   64.7310 C   0  0  0  0  0  0  0  0  0  0  0  0
  129.9630  126.8940   63.2810 C   0  0  0  0  0  0  0  0  0  0  0  0
  130.1170  126.8210   62.1360 N   0  0  0  0  0  0  0  0  0  0  0  0
  130.6020  126.2890   65.6330 C   0  0  0  0  0  0  0  0  0  0  0  0
  131.9460  125.2340   65.1340 S   0  0  0  0  0  0  0  0  0  0  0  0
  131.2490  123.5940   64.7430 C   0  0  0  0  0  0  0  0  0  0  0  0
  130.8450  123.4070   63.2740 C   0  0  0  0  0  0  0  0  0  0  0  0
  131.6710  123.0260   62.4410 O   0  0  0  0  0  0  0  0  0  0  0  0
  129.5530  123.7040   63.0000 N   0  0  0  0  0  0  0  0  0  0  0  0
  128.8880  123.6350   61.7740 C   0  0  0  0  0  0  0  0  0  0  0  0
  127.9550  124.9570   61.1250 S   0  0  0  0  0  0  0  0  0  0  0  0
  127.5350  124.0410   59.7110 C   0  0  0  0  0  0  0  0  0  0  0  0
  128.0950  122.7540   59.7450 C   0  0  0  0  0  0  0  0  0  0  0  0
  128.8730  122.5320   60.9070 C   0  0  0  0  0  0  0  0  0  0  0  0
  129.5790  121.2820   61.1750 C   0  0  0  0  0  0  0  0  0  0  0  0
  130.1370  120.2910   61.3870 N   0  0  0  0  0  0  0  0  0  0  0  0
  127.9000  121.7640   58.5910 C   0  0  0  0  0  0  0  0  0  0  0  0
  127.4020  122.4940   57.3240 C   0  0  0  0  0  0  0  0  0  0  0  0
  126.2600  123.4790   57.6320 C   0  0  0  0  0  0  0  0  0  0  0  0
  126.7170  124.6210   58.5640 C   0  0  0  0  0  0  0  0  0  0  0  0
  130.4600  126.3860   66.9760 N   0  0  0  0  0  0  0  0  0  0  0  0
  128.2400  126.6410   69.6570 C   0  0  0  0  0  0  0  0  0  0  0  0
  128.1400  126.6690   71.0450 C   0  0  0  0  0  0  0  0  0  0  0  0
  128.1225  127.6780   74.9483 H   0  0  0  0  0  0  0  0  0  0  0  0
  127.7424  128.7687   73.5726 H   0  0  0  0  0  0  0  0  0  0  0  0
  127.1355  127.0780   73.5726 H   0  0  0  0  0  0  0  0  0  0  0  0
  131.0917  128.2135   71.7614 H   0  0  0  0  0  0  0  0  0  0  0  0
  131.2657  128.1588   69.2924 H   0  0  0  0  0  0  0  0  0  0  0  0
  127.7707  128.4358   67.1029 H   0  0  0  0  0  0  0  0  0  0  0  0
  127.8943  130.3327   65.7007 H   0  0  0  0  0  0  0  0  0  0  0  0
  126.3117  131.6638   64.3245 H   0  0  0  0  0  0  0  0  0  0  0  0
  123.8228  131.1088   63.7758 H   0  0  0  0  0  0  0  0  0  0  0  0
  123.4258  132.0816   62.3188 H   0  0  0  0  0  0  0  0  0  0  0  0
  123.1430  130.3077   62.3188 H   0  0  0  0  0  0  0  0  0  0  0  0
  125.8630  128.3294   61.6121 H   0  0  0  0  0  0  0  0  0  0  0  0
  127.4492  127.0002   62.9889 H   0  0  0  0  0  0  0  0  0  0  0  0
  132.0028  122.8324   64.9915 H   0  0  0  0  0  0  0  0  0  0  0  0
  130.3272  123.4969   65.3354 H   0  0  0  0  0  0  0  0  0  0  0  0
  128.9840  124.0050   63.7770 H   0  0  0  0  0  0  0  0  0  0  0  0
  128.8591  121.2723   58.3710 H   0  0  0  0  0  0  0  0  0  0  0  0
  127.1481  121.0180   58.8881 H   0  0  0  0  0  0  0  0  0  0  0  0
  128.2416  123.0515   56.8832 H   0  0  0  0  0  0  0  0  0  0  0  0
  127.0154  121.7357   56.6271 H   0  0  0  0  0  0  0  0  0  0  0  0
  125.9014  123.9136   56.6873 H   0  0  0  0  0  0  0  0  0  0  0  0
  125.4603  122.9229   58.1430 H   0  0  0  0  0  0  0  0  0  0  0  0
  127.3341  125.3332   57.9965 H   0  0  0  0  0  0  0  0  0  0  0  0
  125.8357  125.1412   58.9674 H   0  0  0  0  0  0  0  0  0  0  0  0
  127.4283  126.1915   69.0662 H   0  0  0  0  0  0  0  0  0  0  0  0
  127.2531  126.2457   71.5391 H   0  0  0  0  0  0  0  0  0  0  0  0
  1  2  1  0
  2  3  1  0
  3  4  2  0
  4  5  1  0
  5  6  2  0
  6  7  1  0
  7  8  2  0
  8  9  1  0
  9 10  1  0
 10 11  2  0
 11 12  1  0
 12 13  2  0
 13 14  1  0
 14 15  1  0
 13 16  1  0
 16 17  2  0
  9 18  2  0
 18 19  1  0
 19 20  3  0
 18 21  1  0
 21 22  1  0
 22 23  1  0
 23 24  1  0
 24 25  2  0
 24 26  1  0
 26 27  1  0
 27 28  1  0
 28 29  1  0
 29 30  2  0
 30 31  1  0
 31 32  1  0
 32 33  3  0
 30 34  1  0
 34 35  1  0
 35 36  1  0
 36 37  1  0
 21 38  2  0
  6 39  1  0
 39 40  2  0
 40  3  1  0
 38  7  1  0
 17 10  1  0
 31 27  2  0
 37 29  1  0
  1 41  1  0
  1 42  1  0
  1 43  1  0
  4 44  1  0
  5 45  1  0
  8 46  1  0
 11 47  1  0
 12 48  1  0
 15 49  1  0
 15 50  1  0
 15 51  1  0
 16 52  1  0
 17 53  1  0
 23 54  1  0
 23 55  1  0
 26 56  1  0
 34 57  1  0
 34 58  1  0
 35 59  1  0
 35 60  1  0
 36 61  1  0
 36 62  1  0
 37 63  1  0
 37 64  1  0
 39 65  1  0
 40 66  1  0
M  END
>  <Binding energies>  (1) 
[-9.88]

>  <Ligand effiencies>  (1) 
[-0.24097560975609758]

>  <Interactions>  (1) 
["V-B:GLU:543:CD:9877, V-B:TYR:539:CE2:9845, V-A:HIS:456:CE1:4066, V-A:GLU:543:CD:4905, V-A:GLU:543:CG:4904, V-A:TYR:484:CZ:4343, V-B:HIS:456:CE1:9038, V-A:TYR:484:CE1:4341, V-A:HIS:456:CD2:4064, V-B:HIS:456:CD2:9036, V-B:GLU:543:CG:9876, V-B:ILE:369:CD1:8207, V-B:GLY:454:CA:9017, V-B:TYR:539:CZ:9846, V-B:TYR:539:CD2:9843, V-B:ALA:541:CB:9861, V-B:ASP:366:CG:8181, V-B:TYR:539:C:9836, H-A:TYR:484:OH:4344, V-B:LYS:547:CE:9919, V-A:GLU:543:C:4899, H-A:LYS:547:NZ:4948, V-B:PRO:540:N:9853, V-B:PRO:540:CA:9852, V-B:TYR:539:CD1:9842, V-B:TYR:539:CG:9841, H-B:GLU:543:OE2:9879, V-B:TYR:539:CA:9838"]

$$$$
RR5_Rahimova_2017
     RDKit          3D

 77 82  0  0  0  0  0  0  0  0999 V2000
  128.2200  131.7140   57.8080 O   0  0  0  0  0  0  0  0  0  0  0  0
  128.8320  131.4310   58.8380 C   0  0  0  0  0  0  0  0  0  0  0  0
  130.3010  130.9770   58.7520 C   0  0  0  0  0  0  0  0  0  0  0  0
  130.8860  130.4440   60.1080 C   0  0  2  0  0  0  0  0  0  0  0  0
  129.9480  129.6410   60.9180 N   0  0  0  0  0  0  0  0  0  0  0  0
  129.4210  128.4450   60.4480 C   0  0  0  0  0  0  0  0  0  0  0  0
  129.6830  127.8960   59.3750 O   0  0  0  0  0  0  0  0  0  0  0  0
  128.5500  127.9790   61.3600 O   0  0  0  0  0  0  0  0  0  0  0  0
  128.8400  126.8230   62.1410 C   0  0  0  0  0  0  0  0  0  0  0  0
  130.0160  127.0950   63.1060 C   0  0  0  0  0  0  0  0  0  0  0  0
  129.6320  127.0100   64.5730 C   0  0  0  0  0  0  0  0  0  0  0  0
  128.6650  127.7280   65.2820 C   0  0  0  0  0  0  0  0  0  0  0  0
  128.4610  127.4680   66.6380 C   0  0  0  0  0  0  0  0  0  0  0  0
  129.2220  126.4940   67.2870 C   0  0  0  0  0  0  0  0  0  0  0  0
  130.1910  125.7770   66.5820 C   0  0  0  0  0  0  0  0  0  0  0  0
  130.3920  126.0390   65.2260 C   0  0  0  0  0  0  0  0  0  0  0  0
  131.3310  125.4530   64.2560 C   0  0  0  0  0  0  0  0  0  0  0  0
  132.3070  124.4650   64.4030 C   0  0  0  0  0  0  0  0  0  0  0  0
  133.0920  124.1020   63.3070 C   0  0  0  0  0  0  0  0  0  0  0  0
  132.9000  124.7220   62.0710 C   0  0  0  0  0  0  0  0  0  0  0  0
  131.9210  125.7060   61.9280 C   0  0  0  0  0  0  0  0  0  0  0  0
  131.1310  126.0700   63.0200 C   0  0  0  0  0  0  0  0  0  0  0  0
  131.4450  131.6090   60.9620 C   0  0  0  0  0  0  0  0  0  0  0  0
  132.6120  131.9450   60.9940 O   0  0  0  0  0  0  0  0  0  0  0  0
  130.4270  132.2050   61.6490 O   0  0  0  0  0  0  0  0  0  0  0  0
  128.3210  131.5160   60.0860 N   0  0  0  0  0  0  0  0  0  0  0  0
  126.9830  131.9040   60.6250 C   0  0  0  0  0  0  0  0  0  0  0  0
  126.0190  131.4050   59.4960 C   0  0  0  0  0  0  0  0  0  0  0  0
  125.0170  132.2360   58.9680 C   0  0  0  0  0  0  0  0  0  0  0  0
  124.1660  131.7820   57.9630 C   0  0  0  0  0  0  0  0  0  0  0  0
  124.2970  130.4860   57.4770 C   0  0  0  0  0  0  0  0  0  0  0  0
  125.2810  129.6420   57.9800 C   0  0  0  0  0  0  0  0  0  0  0  0
  126.1370  130.1000   58.9770 C   0  0  0  0  0  0  0  0  0  0  0  0
  126.7810  131.1340   61.9730 C   0  0  0  0  0  0  0  0  0  0  0  0
  125.7900  130.1500   62.1190 C   0  0  0  0  0  0  0  0  0  0  0  0
  125.6150  129.4910   63.3340 C   0  0  0  0  0  0  0  0  0  0  0  0
  126.4270  129.8090   64.4170 C   0  0  0  0  0  0  0  0  0  0  0  0
  127.4170  130.7770   64.2960 C   0  0  0  0  0  0  0  0  0  0  0  0
  127.5970  131.4280   63.0800 C   0  0  0  0  0  0  0  0  0  0  0  0
  127.0040  133.4640   60.7610 C   0  0  0  0  0  0  0  0  0  0  0  0
  128.2190  134.1640   60.8720 C   0  0  0  0  0  0  0  0  0  0  0  0
  128.2440  135.5500   61.0010 C   0  0  0  0  0  0  0  0  0  0  0  0
  127.0510  136.2630   61.0170 C   0  0  0  0  0  0  0  0  0  0  0  0
  125.8360  135.6010   60.8950 C   0  0  0  0  0  0  0  0  0  0  0  0
  125.8150  134.2150   60.7660 C   0  0  0  0  0  0  0  0  0  0  0  0
  130.3710  130.1724   58.0052 H   0  0  0  0  0  0  0  0  0  0  0  0
  130.8920  131.8631   58.4773 H   0  0  0  0  0  0  0  0  0  0  0  0
  131.6946  129.7592   59.8127 H   0  0  0  0  0  0  0  0  0  0  0  0
  129.5560  130.0580   61.7500 H   0  0  0  0  0  0  0  0  0  0  0  0
  127.9492  126.5498   62.7257 H   0  0  0  0  0  0  0  0  0  0  0  0
  129.1205  126.0016   61.4652 H   0  0  0  0  0  0  0  0  0  0  0  0
  130.3254  128.1022   62.7900 H   0  0  0  0  0  0  0  0  0  0  0  0
  128.0657  128.4967   64.7722 H   0  0  0  0  0  0  0  0  0  0  0  0
  127.6991  128.0316   67.1964 H   0  0  0  0  0  0  0  0  0  0  0  0
  129.0580  126.2910   68.3556 H   0  0  0  0  0  0  0  0  0  0  0  0
  130.7923  125.0102   67.0924 H   0  0  0  0  0  0  0  0  0  0  0  0
  132.4564  123.9756   65.3767 H   0  0  0  0  0  0  0  0  0  0  0  0
  133.8635  123.3257   63.4176 H   0  0  0  0  0  0  0  0  0  0  0  0
  133.5207  124.4347   61.2095 H   0  0  0  0  0  0  0  0  0  0  0  0
  131.7716  126.1952   60.9542 H   0  0  0  0  0  0  0  0  0  0  0  0
  130.0310  131.6170   62.2960 H   0  0  0  0  0  0  0  0  0  0  0  0
  128.9290  131.1520   60.8050 H   0  0  0  0  0  0  0  0  0  0  0  0
  124.9028  133.2598   59.3537 H   0  0  0  0  0  0  0  0  0  0  0  0
  123.3915  132.4478   57.5545 H   0  0  0  0  0  0  0  0  0  0  0  0
  123.6181  130.1261   56.6898 H   0  0  0  0  0  0  0  0  0  0  0  0
  125.3822  128.6177   57.5919 H   0  0  0  0  0  0  0  0  0  0  0  0
  126.9192  129.4320   59.3667 H   0  0  0  0  0  0  0  0  0  0  0  0
  125.1448  129.8967   61.2648 H   0  0  0  0  0  0  0  0  0  0  0  0
  124.8362  128.7209   63.4363 H   0  0  0  0  0  0  0  0  0  0  0  0
  126.2848  129.2906   65.3767 H   0  0  0  0  0  0  0  0  0  0  0  0
  128.0545  131.0269   65.1569 H   0  0  0  0  0  0  0  0  0  0  0  0
  128.3898  132.1844   62.9828 H   0  0  0  0  0  0  0  0  0  0  0  0
  129.1669  133.6060   60.8566 H   0  0  0  0  0  0  0  0  0  0  0  0
  129.2044  136.0789   61.0899 H   0  0  0  0  0  0  0  0  0  0  0  0
  127.0691  137.3573   61.1269 H   0  0  0  0  0  0  0  0  0  0  0  0
  124.8943  136.1695   60.9003 H   0  0  0  0  0  0  0  0  0  0  0  0
  124.8496  133.6972   60.6660 H   0  0  0  0  0  0  0  0  0  0  0  0
  1  2  2  0
  2  3  1  0
  3  4  1  0
  4  5  1  0
  5  6  1  0
  6  7  2  0
  6  8  1  0
  8  9  1  0
  9 10  1  0
 10 11  1  0
 11 12  2  0
 12 13  1  0
 13 14  2  0
 14 15  1  0
 15 16  2  0
 16 17  1  0
 17 18  2  0
 18 19  1  0
 19 20  2  0
 20 21  1  0
 21 22  2  0
  4 23  1  0
 23 24  2  0
 23 25  1  0
  2 26  1  0
 26 27  1  0
 27 28  1  0
 28 29  2  0
 29 30  1  0
 30 31  2  0
 31 32  1  0
 32 33  2  0
 27 34  1  0
 34 35  2  0
 35 36  1  0
 36 37  2  0
 37 38  1  0
 38 39  2  0
 27 40  1  0
 40 41  2  0
 41 42  1  0
 42 43  2  0
 43 44  1  0
 44 45  2  0
 22 10  1  0
 33 28  1  0
 39 34  1  0
 45 40  1  0
 16 11  1  0
 22 17  1  0
  3 46  1  0
  3 47  1  0
  4 48  1  6
  5 49  1  0
  9 50  1  0
  9 51  1  0
 10 52  1  0
 12 53  1  0
 13 54  1  0
 14 55  1  0
 15 56  1  0
 18 57  1  0
 19 58  1  0
 20 59  1  0
 21 60  1  0
 25 61  1  0
 26 62  1  0
 29 63  1  0
 30 64  1  0
 31 65  1  0
 32 66  1  0
 33 67  1  0
 35 68  1  0
 36 69  1  0
 37 70  1  0
 38 71  1  0
 39 72  1  0
 41 73  1  0
 42 74  1  0
 43 75  1  0
 44 76  1  0
 45 77  1  0
M  END
>  <Binding energies>  (1) 
[-10.5]

>  <Ligand effiencies>  (1) 
[-0.21875]

>  <Interactions>  (1) 
["V-B:GLU:543:CD:9877, H-A:GLU:543:OE2:4907, V-A:GLY:454:CA:4045, V-A:HIS:456:CE1:4066, V-A:GLU:543:CD:4905, V-A:GLU:543:CG:4904, V-B:GLU:543:CB:9875, V-B:HIS:456:CE1:9038, V-B:ILE:369:CG2:8205, V-B:ARG:545:CZ:9895, V-B:TRP:381:CH2:8340, V-A:ALA:541:CB:4889, V-A:TYR:539:CE2:4873, V-A:TYR:539:CD2:4871, V-B:LEU:475:CD2:9227, V-B:ASP:366:CB:8180, V-B:ASP:366:CG:8181, V-A:ASP:366:CG:3209, V-A:ALA:541:CA:4887, V-A:PRO:540:CA:4880, V-A:PRO:540:CB:4882, H-A:ALA:541:N:4888, V-A:TYR:539:C:4864, V-B:TRP:381:CZ2:8338, V-B:PRO:482:CG:9295, V-B:PRO:482:CB:9294, V-B:ASP:366:C:8176, V-A:TYR:539:CZ:4874, V-B:ASP:366:CA:8178, V-B:TRP:381:CZ3:8339, V-B:ILE:369:CB:8204, V-A:PRO:540:C:4878, V-B:TYR:531:CZ:9763"]

$$$$
RR5_Rahimova_2017-again1
     RDKit          3D

 76 81  0  0  0  0  0  0  0  0999 V2000
  128.8990  132.2400   59.2170 O   0  0  0  0  0  0  0  0  0  0  0  0
  129.3220  131.8200   60.2950 C   0  0  0  0  0  0  0  0  0  0  0  0
  130.8440  131.8150   60.5440 C   0  0  0  0  0  0  0  0  0  0  0  0
  131.6250  130.5380   60.0930 C   0  0  2  0  0  0  0  0  0  0  0  0
  131.2660  129.4120   60.9820 N   0  0  0  0  0  0  0  0  0  0  0  0
  130.5050  128.3400   60.5310 C   0  0  0  0  0  0  0  0  0  0  0  0
  130.0320  128.2000   59.3990 O   0  0  0  0  0  0  0  0  0  0  0  0
  130.3590  127.4590   61.5390 O   0  0  0  0  0  0  0  0  0  0  0  0
  129.5570  127.7710   62.6730 C   0  0  0  0  0  0  0  0  0  0  0  0
  129.6570  126.6450   63.7190 C   0  0  0  0  0  0  0  0  0  0  0  0
  131.0500  126.0520   63.8400 C   0  0  0  0  0  0  0  0  0  0  0  0
  131.8370  125.4190   62.8740 C   0  0  0  0  0  0  0  0  0  0  0  0
  133.1120  124.9580   63.2070 C   0  0  0  0  0  0  0  0  0  0  0  0
  133.6010  125.1230   64.5040 C   0  0  0  0  0  0  0  0  0  0  0  0
  132.8150  125.7500   65.4730 C   0  0  0  0  0  0  0  0  0  0  0  0
  131.5410  126.2110   65.1370 C   0  0  0  0  0  0  0  0  0  0  0  0
  130.5120  126.8850   65.9450 C   0  0  0  0  0  0  0  0  0  0  0  0
  130.5010  127.2620   67.2890 C   0  0  0  0  0  0  0  0  0  0  0  0
  129.3720  127.8860   67.8220 C   0  0  0  0  0  0  0  0  0  0  0  0
  128.2600  128.1320   67.0130 C   0  0  0  0  0  0  0  0  0  0  0  0
  128.2750  127.7550   65.6690 C   0  0  0  0  0  0  0  0  0  0  0  0
  129.4050  127.1320   65.1320 C   0  0  0  0  0  0  0  0  0  0  0  0
  133.1880  130.7810   60.0530 C   0  0  0  0  0  0  0  0  0  0  0  0
  133.5910  131.3830   59.0300 O   0  0  0  0  0  0  0  0  0  0  0  0
  133.8480  130.3890   61.0460 O   0  0  0  0  0  0  0  0  0  0  0  0
  128.5100  131.4790   61.3180 N   0  0  0  0  0  0  0  0  0  0  0  0
  127.0270  131.4120   61.3670 C   0  0  0  0  0  0  0  0  0  0  0  0
  126.5600  130.8850   62.7610 C   0  0  0  0  0  0  0  0  0  0  0  0
  127.2640  131.2180   63.9320 C   0  0  0  0  0  0  0  0  0  0  0  0
  126.8430  130.7600   65.1770 C   0  0  0  0  0  0  0  0  0  0  0  0
  125.7060  129.9640   65.2700 C   0  0  0  0  0  0  0  0  0  0  0  0
  124.9890  129.6230   64.1280 C   0  0  0  0  0  0  0  0  0  0  0  0
  125.4120  130.0810   62.8830 C   0  0  0  0  0  0  0  0  0  0  0  0
  126.2930  132.7850   61.2290 C   0  0  0  0  0  0  0  0  0  0  0  0
  126.9800  133.9280   60.7830 C   0  0  0  0  0  0  0  0  0  0  0  0
  126.3290  135.1530   60.6590 C   0  0  0  0  0  0  0  0  0  0  0  0
  124.9780  135.2500   60.9760 C   0  0  0  0  0  0  0  0  0  0  0  0
  124.2740  134.1310   61.4100 C   0  0  0  0  0  0  0  0  0  0  0  0
  124.9270  132.9080   61.5320 C   0  0  0  0  0  0  0  0  0  0  0  0
  126.6510  130.3930   60.2370 C   0  0  0  0  0  0  0  0  0  0  0  0
  127.1430  129.0760   60.2360 C   0  0  0  0  0  0  0  0  0  0  0  0
  126.7850  128.1770   59.2360 C   0  0  0  0  0  0  0  0  0  0  0  0
  125.9170  128.5780   58.2260 C   0  0  0  0  0  0  0  0  0  0  0  0
  125.3970  129.8680   58.2160 C   0  0  0  0  0  0  0  0  0  0  0  0
  125.7570  130.7650   59.2170 C   0  0  0  0  0  0  0  0  0  0  0  0
  131.2723  132.6745   60.0075 H   0  0  0  0  0  0  0  0  0  0  0  0
  130.9582  131.8526   61.6374 H   0  0  0  0  0  0  0  0  0  0  0  0
  131.3323  130.2888   59.0624 H   0  0  0  0  0  0  0  0  0  0  0  0
  131.6420  129.3970   61.9200 H   0  0  0  0  0  0  0  0  0  0  0  0
  129.9081  128.7135   63.1185 H   0  0  0  0  0  0  0  0  0  0  0  0
  128.5091  127.8744   62.3549 H   0  0  0  0  0  0  0  0  0  0  0  0
  128.9097  125.9238   63.3565 H   0  0  0  0  0  0  0  0  0  0  0  0
  131.4522  125.2841   61.8524 H   0  0  0  0  0  0  0  0  0  0  0  0
  133.7328  124.4635   62.4454 H   0  0  0  0  0  0  0  0  0  0  0  0
  134.6062  124.7589   64.7629 H   0  0  0  0  0  0  0  0  0  0  0  0
  133.1979  125.8800   66.4960 H   0  0  0  0  0  0  0  0  0  0  0  0
  131.3776  127.0683   67.9247 H   0  0  0  0  0  0  0  0  0  0  0  0
  129.3578  128.1845   68.8806 H   0  0  0  0  0  0  0  0  0  0  0  0
  127.3713  128.6235   67.4357 H   0  0  0  0  0  0  0  0  0  0  0  0
  127.3983  127.9481   65.0332 H   0  0  0  0  0  0  0  0  0  0  0  0
  128.9640  131.0890   62.1310 H   0  0  0  0  0  0  0  0  0  0  0  0
  128.1614  131.8503   63.8629 H   0  0  0  0  0  0  0  0  0  0  0  0
  127.4068  131.0262   66.0833 H   0  0  0  0  0  0  0  0  0  0  0  0
  125.3717  129.6018   66.2534 H   0  0  0  0  0  0  0  0  0  0  0  0
  124.0905  128.9934   64.2081 H   0  0  0  0  0  0  0  0  0  0  0  0
  124.8408  129.8105   61.9827 H   0  0  0  0  0  0  0  0  0  0  0  0
  128.0475  133.8535   60.5282 H   0  0  0  0  0  0  0  0  0  0  0  0
  126.8804  136.0394   60.3121 H   0  0  0  0  0  0  0  0  0  0  0  0
  124.4629  136.2175   60.8830 H   0  0  0  0  0  0  0  0  0  0  0  0
  123.2049  134.2127   61.6558 H   0  0  0  0  0  0  0  0  0  0  0  0
  124.3652  132.0250   61.8706 H   0  0  0  0  0  0  0  0  0  0  0  0
  127.8217  128.7511   61.0384 H   0  0  0  0  0  0  0  0  0  0  0  0
  127.1870  127.1531   59.2443 H   0  0  0  0  0  0  0  0  0  0  0  0
  125.6401  127.8707   57.4303 H   0  0  0  0  0  0  0  0  0  0  0  0
  124.7039  130.1779   57.4200 H   0  0  0  0  0  0  0  0  0  0  0  0
  125.3357  131.7811   59.2104 H   0  0  0  0  0  0  0  0  0  0  0  0
  1  2  2  0
  2  3  1  0
  3  4  1  0
  4  5  1  0
  5  6  1  0
  6  7  2  0
  6  8  1  0
  8  9  1  0
  9 10  1  0
 10 11  1  0
 11 12  2  0
 12 13  1  0
 13 14  2  0
 14 15  1  0
 15 16  2  0
 16 17  1  0
 17 18  2  0
 18 19  1  0
 19 20  2  0
 20 21  1  0
 21 22  2  0
  4 23  1  0
 23 24  2  0
 23 25  1  0
  2 26  1  0
 26 27  1  0
 27 28  1  0
 28 29  2  0
 29 30  1  0
 30 31  2  0
 31 32  1  0
 32 33  2  0
 27 34  1  0
 34 35  2  0
 35 36  1  0
 36 37  2  0
 37 38  1  0
 38 39  2  0
 27 40  1  0
 40 41  2  0
 41 42  1  0
 42 43  2  0
 43 44  1  0
 44 45  2  0
 22 10  1  0
 33 28  1  0
 39 34  1  0
 45 40  1  0
 16 11  1  0
 22 17  1  0
  3 46  1  0
  3 47  1  0
  4 48  1  6
  5 49  1  0
  9 50  1  0
  9 51  1  0
 10 52  1  0
 12 53  1  0
 13 54  1  0
 14 55  1  0
 15 56  1  0
 18 57  1  0
 19 58  1  0
 20 59  1  0
 21 60  1  0
 26 61  1  0
 29 62  1  0
 30 63  1  0
 31 64  1  0
 32 65  1  0
 33 66  1  0
 35 67  1  0
 36 68  1  0
 37 69  1  0
 38 70  1  0
 39 71  1  0
 41 72  1  0
 42 73  1  0
 43 74  1  0
 44 75  1  0
 45 76  1  0
M  CHG  1  25  -1
M  END
>  <Binding energies>  (1) 
[-9.56]

>  <Ligand effiencies>  (1) 
[-0.20340425531914894]

>  <Interactions>  (1) 
["V-B:GLU:543:CD:9877, H-A:GLU:543:OE1:4906, V-A:ARG:545:CZ:4923, H-A:ARG:545:NH2:4925, H-A:GLU:543:OE2:4907, V-A:ARG:545:CG:4919, V-A:HIS:456:CE1:4066, H-A:ASP:366:OD1:3210, V-A:GLU:543:CD:4905, V-A:GLU:543:CG:4904, V-B:HIS:456:CE1:9038, V-A:GLU:543:CB:4903, V-B:ILE:369:CD1:8207, V-B:ILE:369:CG2:8205, V-B:ARG:545:CZ:9895, V-B:TRP:381:CH2:8340, V-A:TYR:539:CD2:4871, V-B:LEU:475:CD2:9227, V-B:ASP:366:CB:8180, V-B:ASP:366:CG:8181, V-A:ASP:366:CG:3209, V-A:PRO:540:CA:4880, V-A:PRO:540:CB:4882, V-A:ARG:545:CD:4920, H-A:LEU:363:N:3182, V-A:ASN:362:CB:3172, V-A:LEU:363:CA:3181, V-A:ASN:362:C:3168, V-B:TYR:484:CE1:9313, V-B:TYR:484:CZ:9315, V-B:TRP:381:CZ2:8338, V-A:PRO:540:C:4878"]

$$$$
RR6_Rahimova_2017
     RDKit          3D

 63 66  0  0  0  0  0  0  0  0999 V2000
  127.4860  136.1580   61.0160 C   0  0  0  0  0  0  0  0  0  0  0  0
  127.0000  135.2870   60.0030 O   0  0  0  0  0  0  0  0  0  0  0  0
  126.1560  134.2670   60.3050 C   0  0  0  0  0  0  0  0  0  0  0  0
  124.9290  134.3950   60.3620 O   0  0  0  0  0  0  0  0  0  0  0  0
  126.8630  132.9670   60.5610 C   0  0  0  0  0  0  0  0  0  0  0  0
  126.2120  131.7310   60.4380 C   0  0  0  0  0  0  0  0  0  0  0  0
  126.8940  130.5420   60.6900 C   0  0  0  0  0  0  0  0  0  0  0  0
  128.2430  130.5720   61.0740 C   0  0  0  0  0  0  0  0  0  0  0  0
  129.0160  129.4370   61.3790 N   0  0  0  0  0  0  0  0  0  0  0  0
  128.8880  128.1690   60.9310 C   0  0  0  0  0  0  0  0  0  0  0  0
  128.0370  127.7760   60.1320 O   0  0  0  0  0  0  0  0  0  0  0  0
  129.8620  127.1520   61.5360 C   0  0  0  0  0  0  0  0  0  0  0  0
  129.1080  126.0790   62.8040 S   0  0  0  0  0  0  0  0  0  0  0  0
  128.6990  127.1260   64.1850 C   0  0  0  0  0  0  0  0  0  0  0  0
  127.9420  128.2030   63.8630 N   0  0  0  0  0  0  0  0  0  0  0  0
  127.5420  129.0600   64.8360 C   0  0  0  0  0  0  0  0  0  0  0  0
  126.6560  130.1920   64.4050 C   0  0  0  0  0  0  0  0  0  0  0  0
  125.3660  129.9510   63.9080 C   0  0  0  0  0  0  0  0  0  0  0  0
  124.5490  131.0010   63.4960 C   0  0  0  0  0  0  0  0  0  0  0  0
  125.0070  132.3150   63.5790 C   0  0  0  0  0  0  0  0  0  0  0  0
  124.1170  133.4550   63.1200 C   0  0  0  0  0  0  0  0  0  0  0  0
  126.2840  132.5760   64.0720 C   0  0  0  0  0  0  0  0  0  0  0  0
  127.0950  131.5230   64.4830 C   0  0  0  0  0  0  0  0  0  0  0  0
  127.9120  128.8510   66.1690 C   0  0  0  0  0  0  0  0  0  0  0  0
  128.6980  127.7470   66.5260 C   0  0  0  0  0  0  0  0  0  0  0  0
  129.0410  127.5750   67.9690 C   0  0  0  0  0  0  0  0  0  0  0  0
  130.2180  128.1290   68.4830 C   0  0  0  0  0  0  0  0  0  0  0  0
  130.5380  127.9870   69.8310 C   0  0  0  0  0  0  0  0  0  0  0  0
  129.6870  127.2950   70.6910 C   0  0  0  0  0  0  0  0  0  0  0  0
  130.0830  127.2070   72.0120 O   0  0  0  0  0  0  0  0  0  0  0  0
  129.7520  126.0410   72.7590 C   0  0  0  0  0  0  0  0  0  0  0  0
  128.5020  126.7420   70.1820 C   0  0  0  0  0  0  0  0  0  0  0  0
  128.1850  126.8860   68.8340 C   0  0  0  0  0  0  0  0  0  0  0  0
  129.1120  126.8570   65.5050 C   0  0  0  0  0  0  0  0  0  0  0  0
  129.9590  125.6980   65.8060 C   0  0  0  0  0  0  0  0  0  0  0  0
  130.6260  124.7830   66.0430 N   0  0  0  0  0  0  0  0  0  0  0  0
  128.8980  131.8000   61.1800 C   0  0  0  0  0  0  0  0  0  0  0  0
  128.2140  132.9870   60.9310 C   0  0  0  0  0  0  0  0  0  0  0  0
  127.2513  135.7373   62.0049 H   0  0  0  0  0  0  0  0  0  0  0  0
  128.5757  136.2677   60.9135 H   0  0  0  0  0  0  0  0  0  0  0  0
  127.0071  137.1429   60.9135 H   0  0  0  0  0  0  0  0  0  0  0  0
  125.1536  131.6997   60.1400 H   0  0  0  0  0  0  0  0  0  0  0  0
  126.3736  129.5783   60.5876 H   0  0  0  0  0  0  0  0  0  0  0  0
  129.7090  129.5860   62.0970 H   0  0  0  0  0  0  0  0  0  0  0  0
  130.2464  126.5149   60.7259 H   0  0  0  0  0  0  0  0  0  0  0  0
  130.6584  127.7257   62.0326 H   0  0  0  0  0  0  0  0  0  0  0  0
  124.9946  128.9176   63.8429 H   0  0  0  0  0  0  0  0  0  0  0  0
  123.5420  130.7934   63.1050 H   0  0  0  0  0  0  0  0  0  0  0  0
  123.7089  133.9778   63.9976 H   0  0  0  0  0  0  0  0  0  0  0  0
  124.7064  134.1595   62.5148 H   0  0  0  0  0  0  0  0  0  0  0  0
  123.2905  133.0541   62.5148 H   0  0  0  0  0  0  0  0  0  0  0  0
  126.6497  133.6115   64.1360 H   0  0  0  0  0  0  0  0  0  0  0  0
  128.0995  131.7376   64.8766 H   0  0  0  0  0  0  0  0  0  0  0  0
  127.5831  129.5594   66.9436 H   0  0  0  0  0  0  0  0  0  0  0  0
  130.8968  128.6816   67.8168 H   0  0  0  0  0  0  0  0  0  0  0  0
  131.4694  128.4243   70.2199 H   0  0  0  0  0  0  0  0  0  0  0  0
  129.8154  126.2642   73.8343 H   0  0  0  0  0  0  0  0  0  0  0  0
  128.7285  125.7243   72.5099 H   0  0  0  0  0  0  0  0  0  0  0  0
  130.4565  125.2337   72.5099 H   0  0  0  0  0  0  0  0  0  0  0  0
  127.8217  126.1932   70.8499 H   0  0  0  0  0  0  0  0  0  0  0  0
  127.2514  126.4533   68.4453 H   0  0  0  0  0  0  0  0  0  0  0  0
  129.9608  131.8302   61.4619 H   0  0  0  0  0  0  0  0  0  0  0  0
  128.7391  133.9489   61.0257 H   0  0  0  0  0  0  0  0  0  0  0  0
  1  2  1  0
  2  3  1  0
  3  4  2  0
  3  5  1  0
  5  6  2  0
  6  7  1  0
  7  8  2  0
  8  9  1  0
  9 10  1  0
 10 11  2  0
 10 12  1  0
 12 13  1  0
 13 14  1  0
 14 15  2  0
 15 16  1  0
 16 17  1  0
 17 18  2  0
 18 19  1  0
 19 20  2  0
 20 21  1  0
 20 22  1  0
 22 23  2  0
 16 24  2  0
 24 25  1  0
 25 26  1  0
 26 27  2  0
 27 28  1  0
 28 29  2  0
 29 30  1  0
 30 31  1  0
 29 32  1  0
 32 33  2  0
 25 34  2  0
 34 35  1  0
 35 36  3  0
  8 37  1  0
 37 38  2  0
 38  5  1  0
 34 14  1  0
 23 17  1  0
 33 26  1  0
  1 39  1  0
  1 40  1  0
  1 41  1  0
  6 42  1  0
  7 43  1  0
  9 44  1  0
 12 45  1  0
 12 46  1  0
 18 47  1  0
 19 48  1  0
 21 49  1  0
 21 50  1  0
 21 51  1  0
 22 52  1  0
 23 53  1  0
 24 54  1  0
 27 55  1  0
 28 56  1  0
 31 57  1  0
 31 58  1  0
 31 59  1  0
 32 60  1  0
 33 61  1  0
 37 62  1  0
 38 63  1  0
M  END
>  <Binding energies>  (1) 
[-8.89]

>  <Ligand effiencies>  (1) 
[-0.22794871794871796]

>  <Interactions>  (1) 
["V-B:GLU:543:CD:9877, H-A:GLU:543:OE1:4906, H-A:GLU:543:OE2:4907, V-A:HIS:456:CE1:4066, V-A:GLU:543:CD:4905, V-A:GLU:543:CG:4904, V-B:HIS:456:CE1:9038, V-A:HIS:456:CD2:4064, V-B:HIS:456:CD2:9036, V-A:GLU:543:CB:4903, V-B:GLU:543:CG:9876, V-B:ILE:369:CD1:8207, V-B:TRP:381:CH2:8340, V-A:ALA:541:CB:4889, V-A:TYR:539:CE2:4873, V-B:GLY:454:CA:9017, V-A:TYR:539:CD2:4871, V-B:LEU:475:CD2:9227, H-A:TYR:484:OH:4344, V-B:LYS:547:CE:9919, V-A:GLU:543:C:4899, H-A:LYS:547:NZ:4948, V-B:TRP:381:CZ2:8338, V-B:PRO:482:CG:9295, V-B:PRO:482:CB:9294, V-A:GLY:544:C:4909"]

$$$$
RR7_Rahimova_2017
     RDKit          3D

 80 86  0  0  0  0  0  0  0  0999 V2000
  124.3790  124.7830   58.1050 C   0  0  0  0  0  0  0  0  0  0  0  0
  125.4650  125.6460   57.7780 O   0  0  0  0  0  0  0  0  0  0  0  0
  125.9830  126.4750   58.7540 C   0  0  0  0  0  0  0  0  0  0  0  0
  126.2140  125.8990   60.0020 C   0  0  0  0  0  0  0  0  0  0  0  0
  126.7390  126.6540   61.0450 C   0  0  0  0  0  0  0  0  0  0  0  0
  127.0370  128.0130   60.8680 C   0  0  0  0  0  0  0  0  0  0  0  0
  127.6570  128.8760   62.0110 C   0  0  0  0  0  0  0  0  0  0  0  0
  128.7570  128.1080   62.5490 O   0  0  0  0  0  0  0  0  0  0  0  0
  128.5400  127.2200   63.6510 C   0  0  0  0  0  0  0  0  0  0  0  0
  129.8990  126.8320   64.2560 C   0  0  1  0  0  0  0  0  0  0  0  0
  129.9070  127.3170   65.5960 O   0  0  0  0  0  0  0  0  0  0  0  0
  130.0980  126.2880   66.5240 C   0  0  1  0  0  0  0  0  0  0  0  0
  129.3770  126.5790   67.7480 N   0  0  0  0  0  0  0  0  0  0  0  0
  128.0160  126.4880   67.9780 C   0  0  0  0  0  0  0  0  0  0  0  0
  127.6220  126.8580   69.1710 N   0  0  0  0  0  0  0  0  0  0  0  0
  128.7750  127.2720   69.7820 C   0  0  0  0  0  0  0  0  0  0  0  0
  129.0260  127.7970   71.0640 C   0  0  0  0  0  0  0  0  0  0  0  0
  127.9480  127.9460   71.9560 N   0  0  0  0  0  0  0  0  0  0  0  0
  127.9680  128.2710   73.2710 C   0  0  0  0  0  0  0  0  0  0  0  0
  128.9960  128.4770   73.9200 O   0  0  0  0  0  0  0  0  0  0  0  0
  126.6160  128.3420   73.9480 C   0  0  0  0  0  0  0  0  0  0  0  0
  126.3380  129.3930   74.8360 C   0  0  0  0  0  0  0  0  0  0  0  0
  125.1000  129.4800   75.4650 C   0  0  0  0  0  0  0  0  0  0  0  0
  124.1260  128.5200   75.2100 C   0  0  0  0  0  0  0  0  0  0  0  0
  124.3800  127.4720   74.3290 C   0  0  0  0  0  0  0  0  0  0  0  0
  125.6190  127.3830   73.7000 C   0  0  0  0  0  0  0  0  0  0  0  0
  130.3040  128.1480   71.4030 N   0  0  0  0  0  0  0  0  0  0  0  0
  131.2780  127.9710   70.4730 C   0  0  0  0  0  0  0  0  0  0  0  0
  131.1470  127.4730   69.2140 N   0  0  0  0  0  0  0  0  0  0  0  0
  129.8870  127.1310   68.9130 C   0  0  0  0  0  0  0  0  0  0  0  0
  129.6620  125.0160   65.8070 C   0  0  0  0  0  0  0  0  0  0  0  0
  130.1380  125.3220   64.3980 C   0  0  2  0  0  0  0  0  0  0  0  0
  131.4980  124.9700   64.2080 O   0  0  0  0  0  0  0  0  0  0  0  0
  128.2510  130.2110   61.4870 C   0  0  0  0  0  0  0  0  0  0  0  0
  127.6500  131.4340   61.8250 C   0  0  0  0  0  0  0  0  0  0  0  0
  128.1660  132.6360   61.3500 C   0  0  0  0  0  0  0  0  0  0  0  0
  129.2880  132.6270   60.5280 C   0  0  0  0  0  0  0  0  0  0  0  0
  129.8990  131.4260   60.1790 C   0  0  0  0  0  0  0  0  0  0  0  0
  129.3830  130.2240   60.6540 C   0  0  0  0  0  0  0  0  0  0  0  0
  126.6890  129.2730   63.1610 C   0  0  0  0  0  0  0  0  0  0  0  0
  125.3010  129.2810   62.9510 C   0  0  0  0  0  0  0  0  0  0  0  0
  124.4270  129.6440   63.9710 C   0  0  0  0  0  0  0  0  0  0  0  0
  124.9340  130.0120   65.2140 C   0  0  0  0  0  0  0  0  0  0  0  0
  126.3070  130.0230   65.4410 C   0  0  0  0  0  0  0  0  0  0  0  0
  127.1790  129.6600   64.4190 C   0  0  0  0  0  0  0  0  0  0  0  0
  126.8160  128.5840   59.6060 C   0  0  0  0  0  0  0  0  0  0  0  0
  126.2910  127.8290   58.5610 C   0  0  0  0  0  0  0  0  0  0  0  0
  124.2859  124.7090   59.1986 H   0  0  0  0  0  0  0  0  0  0  0  0
  123.4477  125.1901   57.6844 H   0  0  0  0  0  0  0  0  0  0  0  0
  124.5652  123.7838   57.6844 H   0  0  0  0  0  0  0  0  0  0  0  0
  125.9787  124.8367   60.1634 H   0  0  0  0  0  0  0  0  0  0  0  0
  126.9228  126.1798   62.0204 H   0  0  0  0  0  0  0  0  0  0  0  0
  127.9265  127.7218   64.4137 H   0  0  0  0  0  0  0  0  0  0  0  0
  128.0165  126.3172   63.3034 H   0  0  0  0  0  0  0  0  0  0  0  0
  130.6627  127.2449   63.5805 H   0  0  0  0  0  0  0  0  0  0  0  0
  131.1414  126.1727   66.8528 H   0  0  0  0  0  0  0  0  0  0  0  0
  127.3130  126.1295   67.2116 H   0  0  0  0  0  0  0  0  0  0  0  0
  127.0400  127.7830   71.5460 H   0  0  0  0  0  0  0  0  0  0  0  0
  127.1059  130.1547   75.0364 H   0  0  0  0  0  0  0  0  0  0  0  0
  124.8920  130.3054   76.1618 H   0  0  0  0  0  0  0  0  0  0  0  0
  123.1477  128.5893   75.7081 H   0  0  0  0  0  0  0  0  0  0  0  0
  123.6047  126.7173   74.1307 H   0  0  0  0  0  0  0  0  0  0  0  0
  125.8191  126.5555   73.0034 H   0  0  0  0  0  0  0  0  0  0  0  0
  132.2942  128.2656   70.7739 H   0  0  0  0  0  0  0  0  0  0  0  0
  130.1585  124.1255   66.2199 H   0  0  0  0  0  0  0  0  0  0  0  0
  128.5899  124.7847   65.8907 H   0  0  0  0  0  0  0  0  0  0  0  0
  129.6033  124.7400   63.6329 H   0  0  0  0  0  0  0  0  0  0  0  0
  132.0420  125.7390   64.3950 H   0  0  0  0  0  0  0  0  0  0  0  0
  126.7610  131.4422   62.4728 H   0  0  0  0  0  0  0  0  0  0  0  0
  127.6888  133.5887   61.6233 H   0  0  0  0  0  0  0  0  0  0  0  0
  129.6957  133.5765   60.1508 H   0  0  0  0  0  0  0  0  0  0  0  0
  130.7870  131.4270   59.5298 H   0  0  0  0  0  0  0  0  0  0  0  0
  129.8654  129.2756   60.3750 H   0  0  0  0  0  0  0  0  0  0  0  0
  124.8991  128.9966   61.9673 H   0  0  0  0  0  0  0  0  0  0  0  0
  123.3410  129.6402   63.7960 H   0  0  0  0  0  0  0  0  0  0  0  0
  124.2445  130.2961   66.0226 H   0  0  0  0  0  0  0  0  0  0  0  0
  126.7015  130.3175   66.4247 H   0  0  0  0  0  0  0  0  0  0  0  0
  128.2641  129.6764   64.5985 H   0  0  0  0  0  0  0  0  0  0  0  0
  127.0610  129.6434   59.4398 H   0  0  0  0  0  0  0  0  0  0  0  0
  126.1172  128.2963   57.5805 H   0  0  0  0  0  0  0  0  0  0  0  0
  1  2  1  0
  2  3  1  0
  3  4  2  0
  4  5  1  0
  5  6  2  0
  6  7  1  0
  7  8  1  0
  8  9  1  0
  9 10  1  0
 10 11  1  0
 11 12  1  0
 12 13  1  0
 13 14  1  0
 14 15  2  0
 15 16  1  0
 16 17  2  0
 17 18  1  0
 18 19  1  0
 19 20  2  0
 19 21  1  0
 21 22  2  0
 22 23  1  0
 23 24  2  0
 24 25  1  0
 25 26  2  0
 17 27  1  0
 27 28  2  0
 28 29  1  0
 29 30  2  0
 12 31  1  0
 31 32  1  0
 32 33  1  0
  7 34  1  0
 34 35  2  0
 35 36  1  0
 36 37  2  0
 37 38  1  0
 38 39  2  0
  7 40  1  0
 40 41  2  0
 41 42  1  0
 42 43  2  0
 43 44  1  0
 44 45  2  0
  6 46  1  0
 46 47  2  0
 47  3  1  0
 32 10  1  0
 39 34  1  0
 45 40  1  0
 30 13  1  0
 30 16  1  0
 26 21  1  0
  1 48  1  0
  1 49  1  0
  1 50  1  0
  4 51  1  0
  5 52  1  0
  9 53  1  0
  9 54  1  0
 10 55  1  6
 12 56  1  1
 14 57  1  0
 18 58  1  0
 22 59  1  0
 23 60  1  0
 24 61  1  0
 25 62  1  0
 26 63  1  0
 28 64  1  0
 31 65  1  0
 31 66  1  0
 32 67  1  6
 33 68  1  0
 35 69  1  0
 36 70  1  0
 37 71  1  0
 38 72  1  0
 39 73  1  0
 41 74  1  0
 42 75  1  0
 43 76  1  0
 44 77  1  0
 45 78  1  0
 46 79  1  0
 47 80  1  0
M  END
>  <Binding energies>  (1) 
[-8.27]

>  <Ligand effiencies>  (1) 
[-0.16877551020408163]

>  <Interactions>  (1) 
["V-B:GLU:543:CD:9877, H-A:GLU:543:OE1:4906, V-A:HIS:456:CE1:4066, V-A:GLU:543:CD:4905, H-B:HIS:456:NE2:9039, V-B:GLU:543:CB:9875, V-B:HIS:456:CE1:9038, V-B:GLY:544:C:9881, V-A:HIS:456:CD2:4064, V-B:HIS:456:CD2:9036, V-B:GLU:543:CG:9876, V-B:ARG:545:CZ:9895, V-A:ALA:541:CB:4889, V-B:ASP:366:CB:8180, V-B:ASP:366:CG:8181, V-A:PRO:540:CA:4880, V-B:LYS:547:CE:9919, V-B:VAL:457:C:9041, V-B:LYS:547:CG:9917, V-B:HIS:456:CG:9034, V-B:HIS:456:C:9029, V-A:GLU:543:C:4899, V-B:VAL:457:CA:9043, V-B:HIS:456:CB:9033, V-B:LYS:547:CD:9918, V-B:VAL:458:CG2:9055, H-A:LYS:547:NZ:4948, V-B:LYS:471:CE:9188, V-B:LEU:363:CD1:8157, V-A:GLY:544:CA:4911, V-A:GLY:544:C:4909, H-B:TYR:531:OH:9764, H-B:GLY:544:O:9882, V-A:PRO:540:C:4878"]

$$$$
RR8_A_Rahimova_2017
     RDKit          3D

 73 77  0  0  0  0  0  0  0  0999 V2000
  130.3970  127.3340   65.9860 O   0  0  0  0  0  0  0  0  0  0  0  0
  129.6060  127.8380   66.7910 C   0  0  0  0  0  0  0  0  0  0  0  0
  128.7320  128.8470   66.4870 O   0  0  0  0  0  0  0  0  0  0  0  0
  127.6360  128.5330   65.6720 C   0  0  1  0  0  0  0  0  0  0  0  0
  126.7630  129.6180   65.5410 O   0  0  0  0  0  0  0  0  0  0  0  0
  126.2300  129.7120   64.2230 C   0  0  2  0  0  0  0  0  0  0  0  0
  124.6940  129.7060   64.3140 C   0  0  0  0  0  0  0  0  0  0  0  0
  124.2130  131.0130   64.0330 O   0  0  0  0  0  0  0  0  0  0  0  0
  125.1540  132.0450   64.2990 C   0  0  0  0  0  0  0  0  0  0  0  0
  125.3830  132.8710   63.0410 C   0  0  0  0  0  0  0  0  0  0  0  0
  126.6640  133.3420   62.7410 C   0  0  0  0  0  0  0  0  0  0  0  0
  126.8780  134.0930   61.5870 C   0  0  0  0  0  0  0  0  0  0  0  0
  125.8100  134.3670   60.7350 C   0  0  0  0  0  0  0  0  0  0  0  0
  124.5310  133.8970   61.0240 C   0  0  0  0  0  0  0  0  0  0  0  0
  124.3180  133.1450   62.1770 C   0  0  0  0  0  0  0  0  0  0  0  0
  126.8520  128.5150   63.4910 C   0  0  1  0  0  0  0  0  0  0  0  0
  127.2150  128.8100   62.1430 O   0  0  0  0  0  0  0  0  0  0  0  0
  126.4270  129.8010   61.4950 C   0  0  0  0  0  0  0  0  0  0  0  0
  127.3130  130.6790   60.6220 C   0  0  0  0  0  0  0  0  0  0  0  0
  126.8240  131.1660   59.4060 C   0  0  0  0  0  0  0  0  0  0  0  0
  127.6320  131.9620   58.5980 C   0  0  0  0  0  0  0  0  0  0  0  0
  128.9290  132.2670   59.0060 C   0  0  0  0  0  0  0  0  0  0  0  0
  129.4270  131.7800   60.2120 C   0  0  0  0  0  0  0  0  0  0  0  0
  128.6200  130.9830   61.0200 C   0  0  0  0  0  0  0  0  0  0  0  0
  128.1370  128.2650   64.2600 C   0  0  2  0  0  0  0  0  0  0  0  0
  128.5900  126.9290   64.0570 O   0  0  0  0  0  0  0  0  0  0  0  0
  129.6440  126.7720   63.1130 C   0  0  0  0  0  0  0  0  0  0  0  0
  130.5650  125.6420   63.5480 C   0  0  0  0  0  0  0  0  0  0  0  0
  130.0300  124.4280   63.9900 C   0  0  0  0  0  0  0  0  0  0  0  0
  130.8770  123.3930   64.3770 C   0  0  0  0  0  0  0  0  0  0  0  0
  132.2570  123.5730   64.3180 C   0  0  0  0  0  0  0  0  0  0  0  0
  132.7990  124.7770   63.8740 C   0  0  0  0  0  0  0  0  0  0  0  0
  131.9520  125.8130   63.4860 C   0  0  0  0  0  0  0  0  0  0  0  0
  129.4950  127.3870   68.2180 C   0  0  0  0  0  0  0  0  0  0  0  0
  128.6390  126.3430   68.6030 C   0  0  0  0  0  0  0  0  0  0  0  0
  128.5590  125.9490   69.9360 C   0  0  0  0  0  0  0  0  0  0  0  0
  129.3280  126.5870   70.9170 C   0  0  0  0  0  0  0  0  0  0  0  0
  129.2420  126.1660   72.3370 N   0  0  0  0  0  0  0  0  0  0  0  0
  129.3750  127.0150   73.2120 O   0  0  0  0  0  0  0  0  0  0  0  0
  129.0410  124.9800   72.5870 O   0  0  0  0  0  0  0  0  0  0  0  0
  130.1800  127.6310   70.5330 C   0  0  0  0  0  0  0  0  0  0  0  0
  130.2620  128.0260   69.2010 C   0  0  0  0  0  0  0  0  0  0  0  0
  127.1272  127.6727   66.1314 H   0  0  0  0  0  0  0  0  0  0  0  0
  126.4675  130.6342   63.6725 H   0  0  0  0  0  0  0  0  0  0  0  0
  124.2831  128.9956   63.5816 H   0  0  0  0  0  0  0  0  0  0  0  0
  124.3809  129.4018   65.3237 H   0  0  0  0  0  0  0  0  0  0  0  0
  124.7669  132.6952   65.0973 H   0  0  0  0  0  0  0  0  0  0  0  0
  126.1063  131.5951   64.6164 H   0  0  0  0  0  0  0  0  0  0  0  0
  127.5036  133.1198   63.4160 H   0  0  0  0  0  0  0  0  0  0  0  0
  127.8847  134.4676   61.3498 H   0  0  0  0  0  0  0  0  0  0  0  0
  125.9787  134.9608   59.8245 H   0  0  0  0  0  0  0  0  0  0  0  0
  123.6939  134.1184   60.3456 H   0  0  0  0  0  0  0  0  0  0  0  0
  123.3114  132.7664   62.4081 H   0  0  0  0  0  0  0  0  0  0  0  0
  126.1419  127.6758   63.4515 H   0  0  0  0  0  0  0  0  0  0  0  0
  125.6681  129.3107   60.8676 H   0  0  0  0  0  0  0  0  0  0  0  0
  125.9345  130.4257   62.2548 H   0  0  0  0  0  0  0  0  0  0  0  0
  125.8003  130.9202   59.0873 H   0  0  0  0  0  0  0  0  0  0  0  0
  127.2482  132.3482   57.6422 H   0  0  0  0  0  0  0  0  0  0  0  0
  129.5658  132.8987   58.3692 H   0  0  0  0  0  0  0  0  0  0  0  0
  130.4530  132.0238   60.5249 H   0  0  0  0  0  0  0  0  0  0  0  0
  129.0099  130.5922   61.9714 H   0  0  0  0  0  0  0  0  0  0  0  0
  129.0095  128.8719   63.9764 H   0  0  0  0  0  0  0  0  0  0  0  0
  129.2180  126.5361   62.1267 H   0  0  0  0  0  0  0  0  0  0  0  0
  130.2205  127.7070   63.0552 H   0  0  0  0  0  0  0  0  0  0  0  0
  128.9394  124.2907   64.0320 H   0  0  0  0  0  0  0  0  0  0  0  0
  130.4586  122.4380   64.7276 H   0  0  0  0  0  0  0  0  0  0  0  0
  132.9260  122.7557   64.6253 H   0  0  0  0  0  0  0  0  0  0  0  0
  133.8901  124.9091   63.8299 H   0  0  0  0  0  0  0  0  0  0  0  0
  132.3738  126.7649   63.1311 H   0  0  0  0  0  0  0  0  0  0  0  0
  128.0266  125.8321   67.8454 H   0  0  0  0  0  0  0  0  0  0  0  0
  127.8848  125.1281   70.2214 H   0  0  0  0  0  0  0  0  0  0  0  0
  130.7899  128.1433   71.2916 H   0  0  0  0  0  0  0  0  0  0  0  0
  130.9356  128.8480   68.9172 H   0  0  0  0  0  0  0  0  0  0  0  0
  1  2  2  0
  2  3  1  0
  3  4  1  0
  4  5  1  0
  5  6  1  0
  6  7  1  0
  7  8  1  0
  8  9  1  0
  9 10  1  0
 10 11  2  0
 11 12  1  0
 12 13  2  0
 13 14  1  0
 14 15  2  0
  6 16  1  0
 16 17  1  0
 17 18  1  0
 18 19  1  0
 19 20  2  0
 20 21  1  0
 21 22  2  0
 22 23  1  0
 23 24  2  0
 16 25  1  0
 25 26  1  0
 26 27  1  0
 27 28  1  0
 28 29  2  0
 29 30  1  0
 30 31  2  0
 31 32  1  0
 32 33  2  0
  2 34  1  0
 34 35  2  0
 35 36  1  0
 36 37  2  0
 37 38  1  0
 38 39  2  0
 38 40  1  0
 37 41  1  0
 41 42  2  0
 25  4  1  0
 33 28  1  0
 42 34  1  0
 15 10  1  0
 24 19  1  0
  4 43  1  1
  6 44  1  6
  7 45  1  0
  7 46  1  0
  9 47  1  0
  9 48  1  0
 11 49  1  0
 12 50  1  0
 13 51  1  0
 14 52  1  0
 15 53  1  0
 16 54  1  6
 18 55  1  0
 18 56  1  0
 20 57  1  0
 21 58  1  0
 22 59  1  0
 23 60  1  0
 24 61  1  0
 25 62  1  6
 27 63  1  0
 27 64  1  0
 29 65  1  0
 30 66  1  0
 31 67  1  0
 32 68  1  0
 33 69  1  0
 35 70  1  0
 36 71  1  0
 41 72  1  0
 42 73  1  0
M  CHG  2  38   1  40  -1
M  END
>  <Binding energies>  (1) 
[-9.17]

>  <Ligand effiencies>  (1) 
[-0.21833333333333332]

>  <Interactions>  (1) 
["V-B:GLU:543:CD:9877, V-A:ARG:545:CZ:4923, V-A:GLY:454:CA:4045, V-A:HIS:456:CE1:4066, V-A:GLU:543:CD:4905, V-A:GLU:543:CG:4904, V-A:TYR:484:CZ:4343, V-B:GLU:543:C:9871, V-B:GLU:543:CB:9875, V-B:HIS:456:CE1:9038, V-A:TYR:484:CE1:4341, V-A:HIS:456:CD2:4064, V-A:GLU:543:CB:4903, V-B:GLU:543:CG:9876, V-B:ILE:369:CD1:8207, V-B:ILE:369:CG2:8205, V-B:ARG:545:CZ:9895, V-A:ALA:541:CB:4889, V-A:TYR:539:CE2:4873, V-B:GLY:454:CA:9017, H-B:TYR:484:OH:9316, V-A:TYR:539:CD2:4871, V-B:LEU:475:CD2:9227, V-B:ASP:366:CG:8181, V-A:PRO:540:CA:4880, V-A:TYR:539:C:4864, V-B:LYS:547:CE:9919, V-A:GLU:543:C:4899, H-A:LYS:547:NZ:4948, H-B:LYS:547:NZ:9920, H-B:GLY:454:N:9018, V-B:TYR:484:CZ:9315"]

$$$$
RR8_B_Rahimova_2017
     RDKit          3D

 73 77  0  0  0  0  0  0  0  0999 V2000
  130.6000  127.5120   63.0080 O   0  0  0  0  0  0  0  0  0  0  0  0
  129.4460  127.1050   62.8410 C   0  0  0  0  0  0  0  0  0  0  0  0
  129.1120  126.0200   62.0780 O   0  0  0  0  0  0  0  0  0  0  0  0
  128.6300  124.8720   62.7310 C   0  0  2  0  0  0  0  0  0  0  0  0
  129.4770  124.4680   63.7700 O   0  0  0  0  0  0  0  0  0  0  0  0
  130.4460  123.5230   63.3150 C   0  0  2  0  0  0  0  0  0  0  0  0
  131.8600  124.0670   63.5870 C   0  0  0  0  0  0  0  0  0  0  0  0
  131.9530  124.4690   64.9480 O   0  0  0  0  0  0  0  0  0  0  0  0
  131.8910  125.8710   65.1630 C   0  0  0  0  0  0  0  0  0  0  0  0
  130.8810  126.1650   66.2620 C   0  0  0  0  0  0  0  0  0  0  0  0
  130.9230  127.3910   66.9330 C   0  0  0  0  0  0  0  0  0  0  0  0
  130.0170  127.6580   67.9560 C   0  0  0  0  0  0  0  0  0  0  0  0
  129.0690  126.6960   68.3040 C   0  0  0  0  0  0  0  0  0  0  0  0
  129.0170  125.4760   67.6350 C   0  0  0  0  0  0  0  0  0  0  0  0
  129.9250  125.2080   66.6140 C   0  0  0  0  0  0  0  0  0  0  0  0
  130.0970  123.3020   61.8390 C   0  0  1  0  0  0  0  0  0  0  0  0
  130.3410  121.9390   61.4810 O   0  0  0  0  0  0  0  0  0  0  0  0
  131.5970  121.3790   61.8710 C   0  0  0  0  0  0  0  0  0  0  0  0
  132.7790  122.1840   61.3370 C   0  0  0  0  0  0  0  0  0  0  0  0
  134.0490  122.0200   61.8980 C   0  0  0  0  0  0  0  0  0  0  0  0
  135.1310  122.7320   61.3870 C   0  0  0  0  0  0  0  0  0  0  0  0
  134.9390  123.6090   60.3220 C   0  0  0  0  0  0  0  0  0  0  0  0
  133.6750  123.7820   59.7620 C   0  0  0  0  0  0  0  0  0  0  0  0
  132.5920  123.0670   60.2700 C   0  0  0  0  0  0  0  0  0  0  0  0
  128.6260  123.6950   61.7570 C   0  0  2  0  0  0  0  0  0  0  0  0
  128.2820  124.0560   60.4210 O   0  0  0  0  0  0  0  0  0  0  0  0
  127.4880  123.1140   59.7160 C   0  0  0  0  0  0  0  0  0  0  0  0
  126.0640  123.6380   59.6610 C   0  0  0  0  0  0  0  0  0  0  0  0
  125.5870  124.2640   58.5060 C   0  0  0  0  0  0  0  0  0  0  0  0
  124.2850  124.7580   58.4730 C   0  0  0  0  0  0  0  0  0  0  0  0
  123.4670  124.6260   59.5930 C   0  0  0  0  0  0  0  0  0  0  0  0
  123.9370  124.0020   60.7480 C   0  0  0  0  0  0  0  0  0  0  0  0
  125.2370  123.5070   60.7810 C   0  0  0  0  0  0  0  0  0  0  0  0
  128.2440  127.7800   63.4350 C   0  0  0  0  0  0  0  0  0  0  0  0
  128.1890  128.1360   64.7910 C   0  0  0  0  0  0  0  0  0  0  0  0
  127.0590  128.7530   65.3150 C   0  0  0  0  0  0  0  0  0  0  0  0
  125.9510  129.0210   64.5020 C   0  0  0  0  0  0  0  0  0  0  0  0
  124.7350  129.6550   65.0700 N   0  0  0  0  0  0  0  0  0  0  0  0
  124.4810  129.4810   66.2580 O   0  0  0  0  0  0  0  0  0  0  0  0
  124.0280  130.3370   64.3310 O   0  0  0  0  0  0  0  0  0  0  0  0
  126.0080  128.6710   63.1470 C   0  0  0  0  0  0  0  0  0  0  0  0
  127.1410  128.0600   62.6200 C   0  0  0  0  0  0  0  0  0  0  0  0
  127.6303  125.1284   63.1116 H   0  0  0  0  0  0  0  0  0  0  0  0
  130.4323  122.5539   63.8353 H   0  0  0  0  0  0  0  0  0  0  0  0
  132.6020  123.2806   63.3842 H   0  0  0  0  0  0  0  0  0  0  0  0
  132.0562  124.9294   62.9329 H   0  0  0  0  0  0  0  0  0  0  0  0
  132.8818  126.2409   65.4655 H   0  0  0  0  0  0  0  0  0  0  0  0
  131.5831  126.3738   64.2343 H   0  0  0  0  0  0  0  0  0  0  0  0
  131.6727  128.1455   66.6523 H   0  0  0  0  0  0  0  0  0  0  0  0
  130.0487  128.6213   68.4862 H   0  0  0  0  0  0  0  0  0  0  0  0
  128.3553  126.9032   69.1150 H   0  0  0  0  0  0  0  0  0  0  0  0
  128.2611  124.7264   67.9121 H   0  0  0  0  0  0  0  0  0  0  0  0
  129.8900  124.2442   66.0850 H   0  0  0  0  0  0  0  0  0  0  0  0
  130.7025  123.8912   61.1346 H   0  0  0  0  0  0  0  0  0  0  0  0
  131.6498  121.3587   62.9695 H   0  0  0  0  0  0  0  0  0  0  0  0
  131.6604  120.3656   61.4479 H   0  0  0  0  0  0  0  0  0  0  0  0
  134.1933  121.3294   62.7420 H   0  0  0  0  0  0  0  0  0  0  0  0
  136.1328  122.6025   61.8224 H   0  0  0  0  0  0  0  0  0  0  0  0
  135.7944  124.1709   59.9188 H   0  0  0  0  0  0  0  0  0  0  0  0
  133.5326  124.4793   58.9233 H   0  0  0  0  0  0  0  0  0  0  0  0
  131.5915  123.1974   59.8318 H   0  0  0  0  0  0  0  0  0  0  0  0
  127.8889  122.9175   62.0063 H   0  0  0  0  0  0  0  0  0  0  0  0
  127.8780  122.9886   58.6951 H   0  0  0  0  0  0  0  0  0  0  0  0
  127.5141  122.1394   60.2253 H   0  0  0  0  0  0  0  0  0  0  0  0
  126.2381  124.3663   57.6253 H   0  0  0  0  0  0  0  0  0  0  0  0
  123.9041  125.2504   57.5661 H   0  0  0  0  0  0  0  0  0  0  0  0
  122.4396  125.0181   59.5659 H   0  0  0  0  0  0  0  0  0  0  0  0
  123.2841  123.9017   61.6276 H   0  0  0  0  0  0  0  0  0  0  0  0
  125.6143  123.0125   61.6883 H   0  0  0  0  0  0  0  0  0  0  0  0
  129.0477  127.9250   65.4453 H   0  0  0  0  0  0  0  0  0  0  0  0
  127.0350  129.0334   66.3784 H   0  0  0  0  0  0  0  0  0  0  0  0
  125.1486  128.8813   62.4934 H   0  0  0  0  0  0  0  0  0  0  0  0
  127.1705  127.7944   61.5530 H   0  0  0  0  0  0  0  0  0  0  0  0
  1  2  2  0
  2  3  1  0
  3  4  1  0
  4  5  1  0
  5  6  1  0
  6  7  1  0
  7  8  1  0
  8  9  1  0
  9 10  1  0
 10 11  2  0
 11 12  1  0
 12 13  2  0
 13 14  1  0
 14 15  2  0
  6 16  1  0
 16 17  1  0
 17 18  1  0
 18 19  1  0
 19 20  2  0
 20 21  1  0
 21 22  2  0
 22 23  1  0
 23 24  2  0
 16 25  1  0
 25 26  1  0
 26 27  1  0
 27 28  1  0
 28 29  2  0
 29 30  1  0
 30 31  2  0
 31 32  1  0
 32 33  2  0
  2 34  1  0
 34 35  2  0
 35 36  1  0
 36 37  2  0
 37 38  1  0
 38 39  2  0
 38 40  1  0
 37 41  1  0
 41 42  2  0
 25  4  1  0
 33 28  1  0
 42 34  1  0
 15 10  1  0
 24 19  1  0
  4 43  1  1
  6 44  1  1
  7 45  1  0
  7 46  1  0
  9 47  1  0
  9 48  1  0
 11 49  1  0
 12 50  1  0
 13 51  1  0
 14 52  1  0
 15 53  1  0
 16 54  1  6
 18 55  1  0
 18 56  1  0
 20 57  1  0
 21 58  1  0
 22 59  1  0
 23 60  1  0
 24 61  1  0
 25 62  1  1
 27 63  1  0
 27 64  1  0
 29 65  1  0
 30 66  1  0
 31 67  1  0
 32 68  1  0
 33 69  1  0
 35 70  1  0
 36 71  1  0
 41 72  1  0
 42 73  1  0
M  CHG  2  38   1  40  -1
M  END
>  <Binding energies>  (1) 
[-9.47]

>  <Ligand effiencies>  (1) 
[-0.2254761904761905]

>  <Interactions>  (1) 
["V-A:LEU:475:CD1:4254, V-B:GLU:543:CD:9877, V-A:ARG:545:CZ:4923, V-A:ILE:369:CB:3232, H-A:ARG:545:NH2:4925, V-A:ILE:369:CG1:3234, V-A:ILE:369:CG2:3233, V-A:GLY:454:CA:4045, V-B:TYR:539:CE2:9845, V-A:HIS:456:CE1:4066, V-A:GLU:543:CD:4905, V-A:TYR:484:CZ:4343, V-B:GLU:543:CA:9873, V-B:GLU:543:C:9871, V-B:GLU:543:CB:9875, V-B:HIS:456:CE1:9038, V-A:TYR:484:CE1:4341, V-A:GLU:543:CB:4903, V-B:GLU:543:CG:9876, V-B:ARG:545:CZ:9895, H-B:TYR:484:OH:9316, V-B:TYR:539:CZ:9846, V-B:ASP:366:CB:8180, V-B:ALA:541:CB:9861, V-B:ASP:366:CG:8181, V-A:ASP:366:CG:3209, V-A:ASP:366:CB:3208, H-A:TYR:484:OH:4344, H-B:GLY:454:N:9018, V-A:GLY:453:C:4038, V-B:LEU:363:CD1:8157, V-B:PRO:540:CB:9854, V-B:LEU:363:CA:8153, V-B:PRO:540:CA:9852, V-A:GLY:453:CA:4040, V-B:ASN:362:C:8140, V-B:ASN:362:CB:8144, V-A:ASP:366:CA:3206, H-B:ARG:545:NE:9893, H-B:HIS:456:ND1:9035"]

$$$$
RR9_Rahimova_2017
     RDKit          3D

 64 68  0  0  0  0  0  0  0  0999 V2000
  127.8530  129.2180   74.1140 C   0  0  0  0  0  0  0  0  0  0  0  0
  128.2240  127.7660   74.4300 C   0  0  0  0  0  0  0  0  0  0  0  0
  129.3650  127.4060   73.6560 O   0  0  0  0  0  0  0  0  0  0  0  0
  129.2400  127.2670   72.2870 C   0  0  0  0  0  0  0  0  0  0  0  0
  130.2400  127.8460   71.5080 C   0  0  0  0  0  0  0  0  0  0  0  0
  130.1960  127.7590   70.1200 C   0  0  0  0  0  0  0  0  0  0  0  0
  129.1490  127.0890   69.4710 C   0  0  0  0  0  0  0  0  0  0  0  0
  129.0940  126.9960   67.9750 C   0  0  0  0  0  0  0  0  0  0  0  0
  128.3030  127.8690   67.2110 C   0  0  0  0  0  0  0  0  0  0  0  0
  128.2660  127.7860   65.8080 C   0  0  0  0  0  0  0  0  0  0  0  0
  127.4780  128.8140   65.0410 C   0  0  0  0  0  0  0  0  0  0  0  0
  128.0500  129.7640   64.5060 O   0  0  0  0  0  0  0  0  0  0  0  0
  126.1440  128.6280   65.0130 N   0  0  0  0  0  0  0  0  0  0  0  0
  125.1590  129.5550   64.4470 C   0  0  0  0  0  0  0  0  0  0  0  0
  125.2790  129.7040   62.9120 C   0  0  0  0  0  0  0  0  0  0  0  0
  124.8890  131.0760   62.3730 C   0  0  0  0  0  0  0  0  0  0  0  0
  124.8730  131.3100   60.9940 C   0  0  0  0  0  0  0  0  0  0  0  0
  124.4840  132.5530   60.5040 C   0  0  0  0  0  0  0  0  0  0  0  0
  124.1160  133.5600   61.3930 C   0  0  0  0  0  0  0  0  0  0  0  0
  124.1340  133.3370   62.7690 C   0  0  0  0  0  0  0  0  0  0  0  0
  124.5230  132.0920   63.2600 C   0  0  0  0  0  0  0  0  0  0  0  0
  129.0400  126.7560   65.2190 C   0  0  0  0  0  0  0  0  0  0  0  0
  129.3230  126.2240   63.9070 C   0  0  0  0  0  0  0  0  0  0  0  0
  128.7470  126.6060   62.5840 C   0  0  0  0  0  0  0  0  0  0  0  0
  128.6960  127.9500   62.2010 C   0  0  0  0  0  0  0  0  0  0  0  0
  128.1440  128.3060   60.9730 C   0  0  0  0  0  0  0  0  0  0  0  0
  127.6440  127.3190   60.1220 C   0  0  0  0  0  0  0  0  0  0  0  0
  127.0260  127.7090   58.7910 C   0  0  0  0  0  0  0  0  0  0  0  0
  127.6920  125.9770   60.5010 C   0  0  0  0  0  0  0  0  0  0  0  0
  128.2460  125.6230   61.7280 C   0  0  0  0  0  0  0  0  0  0  0  0
  130.2060  125.2530   63.9840 N   0  0  0  0  0  0  0  0  0  0  0  0
  130.4950  125.0590   65.2800 N   0  0  0  0  0  0  0  0  0  0  0  0
  129.8060  125.9370   66.0830 C   0  0  0  0  0  0  0  0  0  0  0  0
  129.8560  126.0160   67.4120 N   0  0  0  0  0  0  0  0  0  0  0  0
  128.1460  126.5110   70.2610 C   0  0  0  0  0  0  0  0  0  0  0  0
  128.1880  126.5950   71.6510 C   0  0  0  0  0  0  0  0  0  0  0  0
  127.7112  129.7729   75.0531 H   0  0  0  0  0  0  0  0  0  0  0  0
  128.6609  129.6843   73.5310 H   0  0  0  0  0  0  0  0  0  0  0  0
  126.9205  129.2396   73.5310 H   0  0  0  0  0  0  0  0  0  0  0  0
  128.4574  127.6684   75.5005 H   0  0  0  0  0  0  0  0  0  0  0  0
  127.3813  127.1026   74.1854 H   0  0  0  0  0  0  0  0  0  0  0  0
  131.0716  128.3766   71.9948 H   0  0  0  0  0  0  0  0  0  0  0  0
  130.9948  128.2229   69.5227 H   0  0  0  0  0  0  0  0  0  0  0  0
  127.6994  128.6342   67.7210 H   0  0  0  0  0  0  0  0  0  0  0  0
  125.7740  127.7750   65.4060 H   0  0  0  0  0  0  0  0  0  0  0  0
  124.1513  129.1836   64.6851 H   0  0  0  0  0  0  0  0  0  0  0  0
  125.3478  130.5446   64.8887 H   0  0  0  0  0  0  0  0  0  0  0  0
  126.3241  129.5092   62.6294 H   0  0  0  0  0  0  0  0  0  0  0  0
  124.5712  128.9851   62.4736 H   0  0  0  0  0  0  0  0  0  0  0  0
  125.1678  130.5116   60.2971 H   0  0  0  0  0  0  0  0  0  0  0  0
  124.4672  132.7393   59.4200 H   0  0  0  0  0  0  0  0  0  0  0  0
  123.8078  134.5421   61.0051 H   0  0  0  0  0  0  0  0  0  0  0  0
  123.8429  134.1391   63.4632 H   0  0  0  0  0  0  0  0  0  0  0  0
  124.5419  131.9093   64.3446 H   0  0  0  0  0  0  0  0  0  0  0  0
  129.0925  128.7273   62.8708 H   0  0  0  0  0  0  0  0  0  0  0  0
  128.1021  129.3638   60.6740 H   0  0  0  0  0  0  0  0  0  0  0  0
  126.1080  128.2883   58.9687 H   0  0  0  0  0  0  0  0  0  0  0  0
  127.7405  128.3201   58.2200 H   0  0  0  0  0  0  0  0  0  0  0  0
  126.7818  126.8010   58.2200 H   0  0  0  0  0  0  0  0  0  0  0  0
  127.2930  125.2006   59.8317 H   0  0  0  0  0  0  0  0  0  0  0  0
  128.2893  124.5646   62.0245 H   0  0  0  0  0  0  0  0  0  0  0  0
  131.1490  124.3420   65.5600 H   0  0  0  0  0  0  0  0  0  0  0  0
  127.3122  125.9825   69.7757 H   0  0  0  0  0  0  0  0  0  0  0  0
  127.3916  126.1316   72.2518 H   0  0  0  0  0  0  0  0  0  0  0  0
  1  2  1  0
  2  3  1  0
  3  4  1  0
  4  5  2  0
  5  6  1  0
  6  7  2  0
  7  8  1  0
  8  9  2  0
  9 10  1  0
 10 11  1  0
 11 12  2  0
 11 13  1  0
 13 14  1  0
 14 15  1  0
 15 16  1  0
 16 17  2  0
 17 18  1  0
 18 19  2  0
 19 20  1  0
 20 21  2  0
 10 22  2  0
 22 23  1  0
 23 24  1  0
 24 25  2  0
 25 26  1  0
 26 27  2  0
 27 28  1  0
 27 29  1  0
 29 30  2  0
 23 31  2  0
 31 32  1  0
 32 33  1  0
 33 34  2  0
  7 35  1  0
 35 36  2  0
 36  4  1  0
 34  8  1  0
 21 16  1  0
 33 22  1  0
 30 24  1  0
  1 37  1  0
  1 38  1  0
  1 39  1  0
  2 40  1  0
  2 41  1  0
  5 42  1  0
  6 43  1  0
  9 44  1  0
 13 45  1  0
 14 46  1  0
 14 47  1  0
 15 48  1  0
 15 49  1  0
 17 50  1  0
 18 51  1  0
 19 52  1  0
 20 53  1  0
 21 54  1  0
 25 55  1  0
 26 56  1  0
 28 57  1  0
 28 58  1  0
 28 59  1  0
 29 60  1  0
 30 61  1  0
 32 62  1  0
 35 63  1  0
 36 64  1  0
M  END
>  <Binding energies>  (1) 
[-8.76]

>  <Ligand effiencies>  (1) 
[-0.2305263157894737]

>  <Interactions>  (1) 
["V-B:GLU:543:CD:9877, V-A:HIS:456:CE1:4066, V-A:GLU:543:CD:4905, V-B:HIS:456:CE1:9038, V-B:HIS:456:CD2:9036, V-B:GLU:543:CG:9876, V-B:ILE:369:CD1:8207, V-B:ILE:369:CG2:8205, V-B:ARG:545:CZ:9895, V-B:GLY:454:CA:9017, V-B:LEU:475:CD2:9227, V-B:ASP:366:CG:8181, H-A:TYR:484:OH:4344, H-B:GLU:543:OE1:9878, V-B:LYS:547:CE:9919, V-A:LYS:547:CE:4947, H-A:LYS:547:NZ:4948, H-B:GLU:543:OE2:9879"]

$$$$
