1a_Ghoteimi_2023
     RDKit          3D

 67 70  0  0  0  0  0  0  0  0999 V2000
  133.2280  120.2760   60.2800 C   0  0  0  0  0  0  0  0  0  0  0  0
  132.3910  121.2760   59.4780 C   0  0  0  0  0  0  0  0  0  0  0  0
  133.2300  121.9610   58.5560 O   0  0  0  0  0  0  0  0  0  0  0  0
  133.3600  123.3120   58.5950 C   0  0  0  0  0  0  0  0  0  0  0  0
  133.6880  123.9930   57.6180 O   0  0  0  0  0  0  0  0  0  0  0  0
  133.0620  123.8960   59.9460 C   0  0  0  0  0  0  0  0  0  0  0  0
  131.9970  124.7860   60.1500 C   0  0  0  0  0  0  0  0  0  0  0  0
  131.7470  125.3150   61.4140 C   0  0  0  0  0  0  0  0  0  0  0  0
  132.5580  124.9570   62.5010 C   0  0  0  0  0  0  0  0  0  0  0  0
  132.3990  125.4330   63.8170 N   0  0  0  0  0  0  0  0  0  0  0  0
  133.2880  125.4780   64.8330 C   0  0  0  0  0  0  0  0  0  0  0  0
  134.4590  125.1050   64.7780 O   0  0  0  0  0  0  0  0  0  0  0  0
  132.7560  126.0560   66.1450 C   0  0  0  0  0  0  0  0  0  0  0  0
  131.1620  125.3170   66.6090 S   0  0  0  0  0  0  0  0  0  0  0  0
  130.0620  126.6750   66.9350 C   0  0  0  0  0  0  0  0  0  0  0  0
  129.9530  126.9920   68.2470 N   0  0  0  0  0  0  0  0  0  0  0  0
  129.1470  128.0160   68.6300 C   0  0  0  0  0  0  0  0  0  0  0  0
  129.0960  128.3190   70.1000 C   0  0  0  0  0  0  0  0  0  0  0  0
  127.9270  128.1060   70.8490 C   0  0  0  0  0  0  0  0  0  0  0  0
  127.8830  128.3870   72.2110 C   0  0  0  0  0  0  0  0  0  0  0  0
  129.0040  128.8900   72.8680 C   0  0  0  0  0  0  0  0  0  0  0  0
  128.8700  129.1370   74.2210 O   0  0  0  0  0  0  0  0  0  0  0  0
  127.8980  130.0780   74.6620 C   0  0  0  0  0  0  0  0  0  0  0  0
  130.1770  129.1120   72.1330 C   0  0  0  0  0  0  0  0  0  0  0  0
  130.2170  128.8300   70.7710 C   0  0  0  0  0  0  0  0  0  0  0  0
  128.4240  128.7470   67.6790 C   0  0  0  0  0  0  0  0  0  0  0  0
  128.5010  128.4220   66.3180 C   0  0  0  0  0  0  0  0  0  0  0  0
  127.6780  129.2260   65.3640 C   0  0  0  0  0  0  0  0  0  0  0  0
  128.2470  130.2720   64.6300 C   0  0  0  0  0  0  0  0  0  0  0  0
  127.4770  131.0060   63.7330 C   0  0  0  0  0  0  0  0  0  0  0  0
  126.1280  130.7050   63.5450 C   0  0  0  0  0  0  0  0  0  0  0  0
  125.4440  131.4860   62.6340 O   0  0  0  0  0  0  0  0  0  0  0  0
  124.2930  130.9520   61.9880 C   0  0  0  0  0  0  0  0  0  0  0  0
  125.5550  129.6510   64.2730 C   0  0  0  0  0  0  0  0  0  0  0  0
  126.3280  128.9190   65.1710 C   0  0  0  0  0  0  0  0  0  0  0  0
  129.3470  127.3570   65.9260 C   0  0  0  0  0  0  0  0  0  0  0  0
  129.4810  126.9800   64.5150 C   0  0  0  0  0  0  0  0  0  0  0  0
  129.5860  126.6840   63.4020 N   0  0  0  0  0  0  0  0  0  0  0  0
  133.6200  124.0750   62.3000 C   0  0  0  0  0  0  0  0  0  0  0  0
  133.8700  123.5480   61.0350 C   0  0  0  0  0  0  0  0  0  0  0  0
  133.0798  120.4531   61.3555 H   0  0  0  0  0  0  0  0  0  0  0  0
  132.9141  119.2517   60.0304 H   0  0  0  0  0  0  0  0  0  0  0  0
  134.2916  120.4047   60.0304 H   0  0  0  0  0  0  0  0  0  0  0  0
  131.6038  120.7387   58.9288 H   0  0  0  0  0  0  0  0  0  0  0  0
  131.9284  122.0015   60.1634 H   0  0  0  0  0  0  0  0  0  0  0  0
  131.3534  125.0687   59.3039 H   0  0  0  0  0  0  0  0  0  0  0  0
  130.9114  126.0153   61.5602 H   0  0  0  0  0  0  0  0  0  0  0  0
  131.4890  125.8260   64.0050 H   0  0  0  0  0  0  0  0  0  0  0  0
  133.4863  125.8583   66.9435 H   0  0  0  0  0  0  0  0  0  0  0  0
  132.6051  127.1368   66.0068 H   0  0  0  0  0  0  0  0  0  0  0  0
  127.0303  127.7100   70.3499 H   0  0  0  0  0  0  0  0  0  0  0  0
  126.9548  128.2104   72.7742 H   0  0  0  0  0  0  0  0  0  0  0  0
  127.8785  130.0969   75.7617 H   0  0  0  0  0  0  0  0  0  0  0  0
  128.1568  131.0776   74.2826 H   0  0  0  0  0  0  0  0  0  0  0  0
  126.9074  129.7870   74.2826 H   0  0  0  0  0  0  0  0  0  0  0  0
  131.0703  129.5112   72.6356 H   0  0  0  0  0  0  0  0  0  0  0  0
  131.1455  129.0112   70.2096 H   0  0  0  0  0  0  0  0  0  0  0  0
  127.7893  129.5847   68.0037 H   0  0  0  0  0  0  0  0  0  0  0  0
  129.3113  130.5162   64.7629 H   0  0  0  0  0  0  0  0  0  0  0  0
  127.9359  131.8304   63.1675 H   0  0  0  0  0  0  0  0  0  0  0  0
  123.5698  130.6165   62.7458 H   0  0  0  0  0  0  0  0  0  0  0  0
  123.8320  131.7282   61.3595 H   0  0  0  0  0  0  0  0  0  0  0  0
  124.5880  130.0988   61.3595 H   0  0  0  0  0  0  0  0  0  0  0  0
  124.4925  129.4023   64.1340 H   0  0  0  0  0  0  0  0  0  0  0  0
  125.8718  128.0913   65.7338 H   0  0  0  0  0  0  0  0  0  0  0  0
  134.2643  123.7938   63.1461 H   0  0  0  0  0  0  0  0  0  0  0  0
  134.7097  122.8523   60.8905 H   0  0  0  0  0  0  0  0  0  0  0  0
  1  2  1  0
  2  3  1  0
  3  4  1  0
  4  5  2  0
  4  6  1  0
  6  7  2  0
  7  8  1  0
  8  9  2  0
  9 10  1  0
 10 11  1  0
 11 12  2  0
 11 13  1  0
 13 14  1  0
 14 15  1  0
 15 16  2  0
 16 17  1  0
 17 18  1  0
 18 19  2  0
 19 20  1  0
 20 21  2  0
 21 22  1  0
 22 23  1  0
 21 24  1  0
 24 25  2  0
 17 26  2  0
 26 27  1  0
 27 28  1  0
 28 29  2  0
 29 30  1  0
 30 31  2  0
 31 32  1  0
 32 33  1  0
 31 34  1  0
 34 35  2  0
 27 36  2  0
 36 37  1  0
 37 38  3  0
  9 39  1  0
 39 40  2  0
 40  6  1  0
 36 15  1  0
 25 18  1  0
 35 28  1  0
  1 41  1  0
  1 42  1  0
  1 43  1  0
  2 44  1  0
  2 45  1  0
  7 46  1  0
  8 47  1  0
 10 48  1  0
 13 49  1  0
 13 50  1  0
 19 51  1  0
 20 52  1  0
 23 53  1  0
 23 54  1  0
 23 55  1  0
 24 56  1  0
 25 57  1  0
 26 58  1  0
 29 59  1  0
 30 60  1  0
 33 61  1  0
 33 62  1  0
 33 63  1  0
 34 64  1  0
 35 65  1  0
 39 66  1  0
 40 67  1  0
M  END
>  <Binding energies>  (1) 
[-8.83]

>  <Ligand effiencies>  (1) 
[-0.21536585365853658]

>  <Interactions>  (1) 
["V-A:ARG:545:CD:4918, H-A:TYR:484:OH:4343, V-A:ARG:545:CZ:4921, V-A:ARG:545:CG:4917, H-A:GLY:454:N:4045, V-A:ASP:366:CG:3208, V-A:GLU:543:CD:4903, V-A:GLU:543:CG:4902, V-A:GLY:544:C:4907, V-A:HIS:456:CE1:4064, V-B:HIS:456:CE1:9037, H-A:GLU:543:OE1:4904, V-B:GLU:543:CD:9876, V-A:GLU:543:C:4897, V-A:LEU:475:CD2:4254, V-B:TYR:539:CD2:9842, V-A:TRP:381:CH2:3367, V-B:TYR:539:CE2:9844, V-A:ASP:366:CB:3207, V-A:ILE:369:CD1:3234, H-B:LYS:547:NZ:9919, V-B:HIS:456:CD2:9035, H-A:LYS:547:NZ:4946, H-A:HIS:456:NE2:4065, H-A:ARG:545:NE:4919, V-B:HIS:456:CG:9033, V-A:LYS:547:CE:4945, V-A:ILE:369:CG2:3232, H-A:ARG:545:NH1:4922, V-A:ILE:369:CB:3231, H-B:TYR:539:OH:9846"]

$$$$
1a_Grossjean_2025
     RDKit          3D

 45 46  0  0  0  0  0  0  0  0999 V2000
  131.5010  125.9800   74.1130 C   0  0  0  0  0  0  0  0  0  0  0  0
  130.4820  125.7470   72.9940 C   0  0  0  0  0  0  0  0  0  0  0  0
  129.3780  126.6260   73.1670 O   0  0  0  0  0  0  0  0  0  0  0  0
  129.4540  127.9290   72.7900 C   0  0  0  0  0  0  0  0  0  0  0  0
  129.4460  128.8700   73.5890 O   0  0  0  0  0  0  0  0  0  0  0  0
  129.5310  128.1120   71.3010 C   0  0  0  0  0  0  0  0  0  0  0  0
  128.4660  127.6740   70.5030 C   0  0  0  0  0  0  0  0  0  0  0  0
  128.5100  127.8260   69.1200 C   0  0  0  0  0  0  0  0  0  0  0  0
  129.6160  128.4140   68.5060 C   0  0  0  0  0  0  0  0  0  0  0  0
  129.5550  128.5140   67.1030 N   0  0  0  0  0  0  0  0  0  0  0  0
  128.7350  129.2470   66.3190 C   0  0  0  0  0  0  0  0  0  0  0  0
  127.8490  130.0010   66.7200 O   0  0  0  0  0  0  0  0  0  0  0  0
  128.9620  129.0980   64.8140 C   0  0  0  0  0  0  0  0  0  0  0  0
  127.6370  128.1440   64.0120 S   0  0  0  0  0  0  0  0  0  0  0  0
  126.1150  129.0290   64.2630 C   0  0  0  0  0  0  0  0  0  0  0  0
  125.7430  129.7910   63.2040 N   0  0  0  0  0  0  0  0  0  0  0  0
  124.6000  130.5110   63.2900 C   0  0  0  0  0  0  0  0  0  0  0  0
  124.2550  131.3490   62.0720 C   0  0  0  0  0  0  0  0  0  0  0  0
  123.7840  130.4960   64.4190 C   0  0  0  0  0  0  0  0  0  0  0  0
  124.1470  129.6980   65.5090 C   0  0  0  0  0  0  0  0  0  0  0  0
  123.2300  129.6840   66.7290 C   0  0  0  0  0  0  0  0  0  0  0  0
  125.3350  128.9330   65.4400 C   0  0  0  0  0  0  0  0  0  0  0  0
  125.7110  128.0530   66.5500 C   0  0  0  0  0  0  0  0  0  0  0  0
  126.0050  127.3590   67.4280 N   0  0  0  0  0  0  0  0  0  0  0  0
  130.6840  128.8630   69.2990 C   0  0  0  0  0  0  0  0  0  0  0  0
  130.6390  128.7100   70.6820 C   0  0  0  0  0  0  0  0  0  0  0  0
  131.0062  125.8669   75.0889 H   0  0  0  0  0  0  0  0  0  0  0  0
  132.3146  125.2447   74.0270 H   0  0  0  0  0  0  0  0  0  0  0  0
  131.9142  126.9958   74.0270 H   0  0  0  0  0  0  0  0  0  0  0  0
  130.9559  125.9409   72.0205 H   0  0  0  0  0  0  0  0  0  0  0  0
  130.1302  124.7054   73.0299 H   0  0  0  0  0  0  0  0  0  0  0  0
  127.5882  127.2064   70.9730 H   0  0  0  0  0  0  0  0  0  0  0  0
  127.6655  127.4795   68.5061 H   0  0  0  0  0  0  0  0  0  0  0  0
  130.2570  127.9710   66.6230 H   0  0  0  0  0  0  0  0  0  0  0  0
  129.0020  130.0994   64.3607 H   0  0  0  0  0  0  0  0  0  0  0  0
  129.9069  128.5545   64.6666 H   0  0  0  0  0  0  0  0  0  0  0  0
  123.8549  132.3208   62.3969 H   0  0  0  0  0  0  0  0  0  0  0  0
  125.1606  131.5086   61.4683 H   0  0  0  0  0  0  0  0  0  0  0  0
  123.4995  130.8248   61.4683 H   0  0  0  0  0  0  0  0  0  0  0  0
  122.8673  131.1030   64.4528 H   0  0  0  0  0  0  0  0  0  0  0  0
  123.8386  129.6933   67.6453 H   0  0  0  0  0  0  0  0  0  0  0  0
  122.5815  130.5723   66.7105 H   0  0  0  0  0  0  0  0  0  0  0  0
  122.6090  128.7763   66.7105 H   0  0  0  0  0  0  0  0  0  0  0  0
  131.5575  129.3363   68.8269 H   0  0  0  0  0  0  0  0  0  0  0  0
  131.4812  129.0617   71.2960 H   0  0  0  0  0  0  0  0  0  0  0  0
  1  2  1  0
  2  3  1  0
  3  4  1  0
  4  5  2  0
  4  6  1  0
  6  7  2  0
  7  8  1  0
  8  9  2  0
  9 10  1  0
 10 11  1  0
 11 12  2  0
 11 13  1  0
 13 14  1  0
 14 15  1  0
 15 16  2  0
 16 17  1  0
 17 18  1  0
 17 19  2  0
 19 20  1  0
 20 21  1  0
 20 22  2  0
 22 23  1  0
 23 24  3  0
  9 25  1  0
 25 26  2  0
 26  6  1  0
 22 15  1  0
  1 27  1  0
  1 28  1  0
  1 29  1  0
  2 30  1  0
  2 31  1  0
  7 32  1  0
  8 33  1  0
 10 34  1  0
 13 35  1  0
 13 36  1  0
 18 37  1  0
 18 38  1  0
 18 39  1  0
 19 40  1  0
 21 41  1  0
 21 42  1  0
 21 43  1  0
 25 44  1  0
 26 45  1  0
M  END
>  <Binding energies>  (1) 
[-6.81]

>  <Ligand effiencies>  (1) 
[-0.2522222222222222]

>  <Interactions>  (1) 
["V-A:GLU:543:CD:4903, V-A:GLU:543:CG:4902, V-A:GLY:544:C:4907, V-A:GLU:543:CB:4901, V-A:GLU:543:CA:4899, V-A:HIS:456:CE1:4064, V-B:HIS:456:CE1:9037, H-A:GLU:543:OE1:4904, V-A:GLU:543:C:4897, V-B:ARG:545:CZ:9894, H-B:TYR:484:OH:9315, V-B:ARG:545:CD:9891, V-B:ARG:545:CG:9890, H-B:LYS:547:NZ:9919, H-A:LYS:547:NZ:4946, V-A:LYS:547:CE:4945, V-B:GLY:453:CA:9011, V-B:ARG:545:CB:9889"]

$$$$
1aa_Ghoteimi_2023
     RDKit          3D

 67 70  0  0  0  0  0  0  0  0999 V2000
  129.4000  117.6330   59.8930 C   0  0  0  0  0  0  0  0  0  0  0  0
  130.1330  118.6640   60.7570 C   0  0  0  0  0  0  0  0  0  0  0  0
  130.5490  119.7530   59.9430 O   0  0  0  0  0  0  0  0  0  0  0  0
  131.8030  120.2640   60.0430 C   0  0  0  0  0  0  0  0  0  0  0  0
  132.7430  119.9050   59.3270 O   0  0  0  0  0  0  0  0  0  0  0  0
  131.9350  121.3100   61.1120 C   0  0  0  0  0  0  0  0  0  0  0  0
  133.1440  121.9840   61.3460 C   0  0  0  0  0  0  0  0  0  0  0  0
  133.2370  122.9500   62.3450 C   0  0  0  0  0  0  0  0  0  0  0  0
  132.1170  123.2620   63.1290 C   0  0  0  0  0  0  0  0  0  0  0  0
  132.0920  124.2160   64.1630 N   0  0  0  0  0  0  0  0  0  0  0  0
  133.1050  124.8790   64.7680 C   0  0  0  0  0  0  0  0  0  0  0  0
  134.2970  124.7500   64.4890 O   0  0  0  0  0  0  0  0  0  0  0  0
  132.7320  125.8660   65.8860 C   0  0  0  0  0  0  0  0  0  0  0  0
  131.5220  125.4540   66.5350 O   0  0  0  0  0  0  0  0  0  0  0  0
  130.5280  126.3800   66.8200 C   0  0  0  0  0  0  0  0  0  0  0  0
  130.3580  126.7600   68.1160 N   0  0  0  0  0  0  0  0  0  0  0  0
  129.3850  127.6540   68.4360 C   0  0  0  0  0  0  0  0  0  0  0  0
  129.2640  128.0220   69.8870 C   0  0  0  0  0  0  0  0  0  0  0  0
  130.3330  128.6180   70.5730 C   0  0  0  0  0  0  0  0  0  0  0  0
  130.2230  128.9580   71.9180 C   0  0  0  0  0  0  0  0  0  0  0  0
  129.0440  128.7160   72.6190 C   0  0  0  0  0  0  0  0  0  0  0  0
  129.0270  129.0860   73.9500 O   0  0  0  0  0  0  0  0  0  0  0  0
  128.2230  130.1890   74.3540 C   0  0  0  0  0  0  0  0  0  0  0  0
  127.9650  128.1260   71.9470 C   0  0  0  0  0  0  0  0  0  0  0  0
  128.0770  127.7870   70.6010 C   0  0  0  0  0  0  0  0  0  0  0  0
  128.5680  128.2050   67.4430 C   0  0  0  0  0  0  0  0  0  0  0  0
  128.7290  127.8400   66.0990 C   0  0  0  0  0  0  0  0  0  0  0  0
  127.8330  128.4710   65.0860 C   0  0  0  0  0  0  0  0  0  0  0  0
  126.4720  128.1510   65.0550 C   0  0  0  0  0  0  0  0  0  0  0  0
  125.6270  128.7430   64.1190 C   0  0  0  0  0  0  0  0  0  0  0  0
  126.1220  129.6690   63.2020 C   0  0  0  0  0  0  0  0  0  0  0  0
  125.2120  130.2040   62.3120 O   0  0  0  0  0  0  0  0  0  0  0  0
  123.8360  130.2530   62.6710 C   0  0  0  0  0  0  0  0  0  0  0  0
  127.4860  129.9990   63.2350 C   0  0  0  0  0  0  0  0  0  0  0  0
  128.3290  129.4050   64.1710 C   0  0  0  0  0  0  0  0  0  0  0  0
  129.7320  126.8940   65.7820 C   0  0  0  0  0  0  0  0  0  0  0  0
  129.9460  126.4190   64.4140 C   0  0  0  0  0  0  0  0  0  0  0  0
  130.1160  126.0430   63.3330 N   0  0  0  0  0  0  0  0  0  0  0  0
  130.9140  122.5920   62.9000 C   0  0  0  0  0  0  0  0  0  0  0  0
  130.8230  121.6260   61.9020 C   0  0  0  0  0  0  0  0  0  0  0  0
  128.8856  116.9095   60.5426 H   0  0  0  0  0  0  0  0  0  0  0  0
  128.6620  118.1450   59.2580 H   0  0  0  0  0  0  0  0  0  0  0  0
  130.1260  117.1042   59.2580 H   0  0  0  0  0  0  0  0  0  0  0  0
  129.4568  119.0310   61.5432 H   0  0  0  0  0  0  0  0  0  0  0  0
  131.0133  118.1950   61.2208 H   0  0  0  0  0  0  0  0  0  0  0  0
  134.0268  121.7468   60.7342 H   0  0  0  0  0  0  0  0  0  0  0  0
  134.1909  123.4692   62.5194 H   0  0  0  0  0  0  0  0  0  0  0  0
  131.1640  124.4380   64.4960 H   0  0  0  0  0  0  0  0  0  0  0  0
  133.5459  125.9004   66.6252 H   0  0  0  0  0  0  0  0  0  0  0  0
  132.5785  126.8621   65.4452 H   0  0  0  0  0  0  0  0  0  0  0  0
  131.2733  128.8198   70.0390 H   0  0  0  0  0  0  0  0  0  0  0  0
  131.0765  129.4229   72.4331 H   0  0  0  0  0  0  0  0  0  0  0  0
  128.1893  130.2353   75.4525 H   0  0  0  0  0  0  0  0  0  0  0  0
  128.6550  131.1211   73.9608 H   0  0  0  0  0  0  0  0  0  0  0  0
  127.2034  130.0630   73.9608 H   0  0  0  0  0  0  0  0  0  0  0  0
  127.0258  127.9299   72.4849 H   0  0  0  0  0  0  0  0  0  0  0  0
  127.2202  127.3267   70.0872 H   0  0  0  0  0  0  0  0  0  0  0  0
  127.7908  128.9326   67.7198 H   0  0  0  0  0  0  0  0  0  0  0  0
  126.0654  127.4260   65.7755 H   0  0  0  0  0  0  0  0  0  0  0  0
  124.5597  128.4774   64.1033 H   0  0  0  0  0  0  0  0  0  0  0  0
  123.7429  130.2563   63.7670 H   0  0  0  0  0  0  0  0  0  0  0  0
  123.3826  131.1679   62.2617 H   0  0  0  0  0  0  0  0  0  0  0  0
  123.3187  129.3727   62.2617 H   0  0  0  0  0  0  0  0  0  0  0  0
  127.8905  130.7295   62.5189 H   0  0  0  0  0  0  0  0  0  0  0  0
  129.3956  129.6732   64.1907 H   0  0  0  0  0  0  0  0  0  0  0  0
  130.0317  122.8291   63.5126 H   0  0  0  0  0  0  0  0  0  0  0  0
  129.8686  121.1060   61.7324 H   0  0  0  0  0  0  0  0  0  0  0  0
  1  2  1  0
  2  3  1  0
  3  4  1  0
  4  5  2  0
  4  6  1  0
  6  7  2  0
  7  8  1  0
  8  9  2  0
  9 10  1  0
 10 11  1  0
 11 12  2  0
 11 13  1  0
 13 14  1  0
 14 15  1  0
 15 16  2  0
 16 17  1  0
 17 18  1  0
 18 19  2  0
 19 20  1  0
 20 21  2  0
 21 22  1  0
 22 23  1  0
 21 24  1  0
 24 25  2  0
 17 26  2  0
 26 27  1  0
 27 28  1  0
 28 29  2  0
 29 30  1  0
 30 31  2  0
 31 32  1  0
 32 33  1  0
 31 34  1  0
 34 35  2  0
 27 36  2  0
 36 37  1  0
 37 38  3  0
  9 39  1  0
 39 40  2  0
 40  6  1  0
 36 15  1  0
 25 18  1  0
 35 28  1  0
  1 41  1  0
  1 42  1  0
  1 43  1  0
  2 44  1  0
  2 45  1  0
  7 46  1  0
  8 47  1  0
 10 48  1  0
 13 49  1  0
 13 50  1  0
 19 51  1  0
 20 52  1  0
 23 53  1  0
 23 54  1  0
 23 55  1  0
 24 56  1  0
 25 57  1  0
 26 58  1  0
 29 59  1  0
 30 60  1  0
 33 61  1  0
 33 62  1  0
 33 63  1  0
 34 64  1  0
 35 65  1  0
 39 66  1  0
 40 67  1  0
M  END
>  <Binding energies>  (1) 
[-9.38]

>  <Ligand effiencies>  (1) 
[-0.22878048780487806]

>  <Interactions>  (1) 
["V-A:ARG:545:CD:4918, H-A:TYR:484:OH:4343, V-A:ARG:545:CZ:4921, V-A:ARG:545:CG:4917, H-A:GLY:454:N:4045, V-A:GLU:543:CD:4903, V-A:GLU:543:CG:4902, V-A:GLY:544:C:4907, V-A:HIS:456:CE1:4064, V-B:HIS:456:CE1:9037, V-B:GLU:543:CD:9876, V-A:GLU:543:C:4897, V-A:PRO:482:CB:4321, V-A:LEU:475:CD2:4254, V-B:TYR:539:CD2:9842, V-A:TRP:381:CZ3:3366, V-A:TRP:381:CZ2:3365, V-A:PRO:482:CG:4322, V-A:TRP:381:CH2:3367, V-B:TYR:539:CE2:9844, V-B:ALA:541:CB:9860, V-B:ARG:545:CZ:9894, V-A:ILE:369:CD1:3234, H-B:LYS:547:NZ:9919, V-B:HIS:456:CD2:9035, H-A:LYS:547:NZ:4946, H-A:HIS:456:NE2:4065, V-B:TYR:539:C:9835, H-A:ARG:545:NH1:4922, V-A:TRP:381:CE3:3363, V-B:TYR:539:CA:9837, V-B:TYR:539:CB:9839, V-A:TRP:381:CD2:3360, V-A:TRP:381:CE2:3362"]

$$$$
1b_Ghoteimi_2023
     RDKit          3D

 54 57  0  0  0  0  0  0  0  0999 V2000
  130.4830  126.6140   74.2590 C   0  0  0  0  0  0  0  0  0  0  0  0
  129.9310  127.7900   73.6780 O   0  0  0  0  0  0  0  0  0  0  0  0
  129.7280  127.8350   72.3120 C   0  0  0  0  0  0  0  0  0  0  0  0
  129.2160  126.6820   71.7190 C   0  0  0  0  0  0  0  0  0  0  0  0
  128.9800  126.6340   70.3480 C   0  0  0  0  0  0  0  0  0  0  0  0
  129.2460  127.7410   69.5280 C   0  0  0  0  0  0  0  0  0  0  0  0
  128.9920  127.6850   68.0470 C   0  0  0  0  0  0  0  0  0  0  0  0
  127.9560  128.3890   67.4250 C   0  0  0  0  0  0  0  0  0  0  0  0
  127.7640  128.3050   66.0400 C   0  0  0  0  0  0  0  0  0  0  0  0
  126.6340  129.0800   65.4460 C   0  0  0  0  0  0  0  0  0  0  0  0
  125.3230  128.8560   65.8740 C   0  0  0  0  0  0  0  0  0  0  0  0
  124.2650  129.5690   65.3170 C   0  0  0  0  0  0  0  0  0  0  0  0
  124.4970  130.5160   64.3180 C   0  0  0  0  0  0  0  0  0  0  0  0
  123.3880  131.1750   63.8240 O   0  0  0  0  0  0  0  0  0  0  0  0
  122.8160  130.7450   62.5930 C   0  0  0  0  0  0  0  0  0  0  0  0
  125.8110  130.7390   63.8800 C   0  0  0  0  0  0  0  0  0  0  0  0
  126.8650  130.0230   64.4390 C   0  0  0  0  0  0  0  0  0  0  0  0
  128.6520  127.5010   65.2840 C   0  0  0  0  0  0  0  0  0  0  0  0
  128.5540  127.4560   63.8220 C   0  0  0  0  0  0  0  0  0  0  0  0
  128.4750  127.4220   62.6680 N   0  0  0  0  0  0  0  0  0  0  0  0
  129.6650  126.8000   65.9760 C   0  0  0  0  0  0  0  0  0  0  0  0
  130.8620  125.7390   65.1930 S   0  0  0  0  0  0  0  0  0  0  0  0
  130.4560  124.0150   65.6310 C   0  0  0  0  0  0  0  0  0  0  0  0
  130.2300  123.0780   64.4370 C   0  0  0  0  0  0  0  0  0  0  0  0
  130.7760  121.9730   64.3910 O   0  0  0  0  0  0  0  0  0  0  0  0
  129.4080  123.5690   63.4820 N   0  0  0  0  0  0  0  0  0  0  0  0
  129.0250  122.9460   62.3000 C   0  0  0  0  0  0  0  0  0  0  0  0
  129.9350  122.3870   61.4050 C   0  0  0  0  0  0  0  0  0  0  0  0
  129.1650  121.8790   60.3830 C   0  0  0  0  0  0  0  0  0  0  0  0
  127.8590  122.1180   60.6510 O   0  0  0  0  0  0  0  0  0  0  0  0
  127.7830  122.7950   61.8690 N   0  0  0  0  0  0  0  0  0  0  0  0
  129.8360  126.9100   67.3160 N   0  0  0  0  0  0  0  0  0  0  0  0
  129.7640  128.8960   70.1350 C   0  0  0  0  0  0  0  0  0  0  0  0
  130.0020  128.9470   71.5050 C   0  0  0  0  0  0  0  0  0  0  0  0
  130.4453  126.6943   75.3554 H   0  0  0  0  0  0  0  0  0  0  0  0
  129.9021  125.7377   73.9353 H   0  0  0  0  0  0  0  0  0  0  0  0
  131.5282  126.5010   73.9353 H   0  0  0  0  0  0  0  0  0  0  0  0
  128.9963  125.8014   72.3406 H   0  0  0  0  0  0  0  0  0  0  0  0
  128.5784  125.7131   69.9001 H   0  0  0  0  0  0  0  0  0  0  0  0
  127.2844  129.0157   68.0301 H   0  0  0  0  0  0  0  0  0  0  0  0
  125.1252  128.1099   66.6577 H   0  0  0  0  0  0  0  0  0  0  0  0
  123.2385  129.3848   65.6667 H   0  0  0  0  0  0  0  0  0  0  0  0
  121.9520  130.0955   62.7972 H   0  0  0  0  0  0  0  0  0  0  0  0
  122.4874  131.6216   62.0154 H   0  0  0  0  0  0  0  0  0  0  0  0
  123.5667  130.1857   62.0154 H   0  0  0  0  0  0  0  0  0  0  0  0
  126.0085  131.4816   63.0929 H   0  0  0  0  0  0  0  0  0  0  0  0
  127.8913  130.2005   64.0851 H   0  0  0  0  0  0  0  0  0  0  0  0
  131.2856  123.6107   66.2297 H   0  0  0  0  0  0  0  0  0  0  0  0
  129.5015  124.0533   66.1764 H   0  0  0  0  0  0  0  0  0  0  0  0
  129.0120  124.4840   63.6390 H   0  0  0  0  0  0  0  0  0  0  0  0
  131.0309  122.3579   61.4954 H   0  0  0  0  0  0  0  0  0  0  0  0
  129.5490  121.3617   59.4914 H   0  0  0  0  0  0  0  0  0  0  0  0
  129.9860  129.7776   69.5157 H   0  0  0  0  0  0  0  0  0  0  0  0
  130.4071  129.8646   71.9565 H   0  0  0  0  0  0  0  0  0  0  0  0
  1  2  1  0
  2  3  1  0
  3  4  2  0
  4  5  1  0
  5  6  2  0
  6  7  1  0
  7  8  2  0
  8  9  1  0
  9 10  1  0
 10 11  2  0
 11 12  1  0
 12 13  2  0
 13 14  1  0
 14 15  1  0
 13 16  1  0
 16 17  2  0
  9 18  2  0
 18 19  1  0
 19 20  3  0
 18 21  1  0
 21 22  1  0
 22 23  1  0
 23 24  1  0
 24 25  2  0
 24 26  1  0
 26 27  1  0
 27 28  1  0
 28 29  2  0
 29 30  1  0
 30 31  1  0
 21 32  2  0
  6 33  1  0
 33 34  2  0
 34  3  1  0
 32  7  1  0
 17 10  1  0
 31 27  2  0
  1 35  1  0
  1 36  1  0
  1 37  1  0
  4 38  1  0
  5 39  1  0
  8 40  1  0
 11 41  1  0
 12 42  1  0
 15 43  1  0
 15 44  1  0
 15 45  1  0
 16 46  1  0
 17 47  1  0
 23 48  1  0
 23 49  1  0
 26 50  1  0
 28 51  1  0
 29 52  1  0
 33 53  1  0
 34 54  1  0
M  END
>  <Binding energies>  (1) 
[-8.97]

>  <Ligand effiencies>  (1) 
[-0.2562857142857143]

>  <Interactions>  (1) 
["H-A:TYR:484:OH:4343, V-A:GLU:543:CD:4903, V-B:GLU:543:CG:9875, V-A:HIS:456:CE1:4064, V-B:HIS:456:CE1:9037, V-B:GLU:543:CD:9876, V-A:GLU:543:C:4897, H-B:GLU:543:OE2:9878, V-A:TYR:484:CE1:4340, V-A:TYR:484:CZ:4342, V-B:ALA:541:CB:9860, V-B:ARG:545:CZ:9894, V-B:ARG:545:CD:9891, V-B:ARG:545:CG:9890, H-B:GLY:454:N:9017, H-B:LYS:547:NZ:9919, H-A:LYS:547:NZ:4946, V-B:LYS:547:CE:9918, V-A:LYS:547:CE:4945, V-B:ILE:369:CD1:8206, V-B:GLY:453:CA:9011, V-B:GLY:453:C:9009, H-B:ALA:541:N:9859"]

$$$$
1b_Grossjean_2025
     RDKit          3D

 42 43  0  0  0  0  0  0  0  0999 V2000
  122.5890  130.2320   66.9800 C   0  0  0  0  0  0  0  0  0  0  0  0
  123.5000  131.0200   66.2250 O   0  0  0  0  0  0  0  0  0  0  0  0
  124.1190  130.5120   65.1290 C   0  0  0  0  0  0  0  0  0  0  0  0
  123.7630  130.7550   63.9720 O   0  0  0  0  0  0  0  0  0  0  0  0
  125.2890  129.6310   65.4630 C   0  0  0  0  0  0  0  0  0  0  0  0
  125.1470  128.4720   66.2410 C   0  0  0  0  0  0  0  0  0  0  0  0
  126.2510  127.6780   66.5330 C   0  0  0  0  0  0  0  0  0  0  0  0
  127.5160  128.0200   66.0570 C   0  0  0  0  0  0  0  0  0  0  0  0
  128.5600  127.1450   66.4150 N   0  0  0  0  0  0  0  0  0  0  0  0
  128.8010  126.5110   67.5830 C   0  0  0  0  0  0  0  0  0  0  0  0
  128.1070  126.5890   68.5960 O   0  0  0  0  0  0  0  0  0  0  0  0
  130.0470  125.6240   67.6020 C   0  0  0  0  0  0  0  0  0  0  0  0
  131.5200  126.4980   66.9910 S   0  0  0  0  0  0  0  0  0  0  0  0
  131.7740  125.9950   65.3030 C   0  0  0  0  0  0  0  0  0  0  0  0
  130.7070  126.2240   64.4980 N   0  0  0  0  0  0  0  0  0  0  0  0
  130.7920  125.8800   63.1920 C   0  0  0  0  0  0  0  0  0  0  0  0
  129.5660  126.1800   62.3490 C   0  0  0  0  0  0  0  0  0  0  0  0
  131.9280  125.2890   62.6420 C   0  0  0  0  0  0  0  0  0  0  0  0
  133.0250  125.0290   63.4690 C   0  0  0  0  0  0  0  0  0  0  0  0
  134.2540  124.3650   62.8480 C   0  0  0  0  0  0  0  0  0  0  0  0
  132.9600  125.3790   64.8370 C   0  0  0  0  0  0  0  0  0  0  0  0
  134.0790  125.0750   65.7310 C   0  0  0  0  0  0  0  0  0  0  0  0
  134.9650  124.8340   66.4350 N   0  0  0  0  0  0  0  0  0  0  0  0
  127.6670  129.1770   65.2770 C   0  0  0  0  0  0  0  0  0  0  0  0
  126.5620  129.9710   64.9850 C   0  0  0  0  0  0  0  0  0  0  0  0
  122.7706  130.3891   68.0535 H   0  0  0  0  0  0  0  0  0  0  0  0
  121.5582  130.5279   66.7354 H   0  0  0  0  0  0  0  0  0  0  0  0
  122.7333  129.1693   66.7354 H   0  0  0  0  0  0  0  0  0  0  0  0
  124.1550  128.1892   66.6229 H   0  0  0  0  0  0  0  0  0  0  0  0
  126.1250  126.7725   67.1447 H   0  0  0  0  0  0  0  0  0  0  0  0
  129.2310  126.9850   65.6780 H   0  0  0  0  0  0  0  0  0  0  0  0
  130.2328  125.2958   68.6353 H   0  0  0  0  0  0  0  0  0  0  0  0
  129.8623  124.7671   66.9375 H   0  0  0  0  0  0  0  0  0  0  0  0
  128.7103  126.3894   63.0078 H   0  0  0  0  0  0  0  0  0  0  0  0
  129.7631  127.0564   61.7141 H   0  0  0  0  0  0  0  0  0  0  0  0
  129.3361  125.3116   61.7141 H   0  0  0  0  0  0  0  0  0  0  0  0
  131.9611  125.0309   61.5732 H   0  0  0  0  0  0  0  0  0  0  0  0
  134.9194  124.0055   63.6467 H   0  0  0  0  0  0  0  0  0  0  0  0
  133.9365  123.5157   62.2252 H   0  0  0  0  0  0  0  0  0  0  0  0
  134.7904  125.0961   62.2252 H   0  0  0  0  0  0  0  0  0  0  0  0
  128.6603  129.4566   64.8959 H   0  0  0  0  0  0  0  0  0  0  0  0
  126.6891  130.8756   64.3722 H   0  0  0  0  0  0  0  0  0  0  0  0
  1  2  1  0
  2  3  1  0
  3  4  2  0
  3  5  1  0
  5  6  2  0
  6  7  1  0
  7  8  2  0
  8  9  1  0
  9 10  1  0
 10 11  2  0
 10 12  1  0
 12 13  1  0
 13 14  1  0
 14 15  2  0
 15 16  1  0
 16 17  1  0
 16 18  2  0
 18 19  1  0
 19 20  1  0
 19 21  2  0
 21 22  1  0
 22 23  3  0
  8 24  1  0
 24 25  2  0
 25  5  1  0
 21 14  1  0
  1 26  1  0
  1 27  1  0
  1 28  1  0
  6 29  1  0
  7 30  1  0
  9 31  1  0
 12 32  1  0
 12 33  1  0
 17 34  1  0
 17 35  1  0
 17 36  1  0
 18 37  1  0
 20 38  1  0
 20 39  1  0
 20 40  1  0
 24 41  1  0
 25 42  1  0
M  END
>  <Binding energies>  (1) 
[-6.39]

>  <Ligand effiencies>  (1) 
[-0.24576923076923077]

>  <Interactions>  (1) 
["V-A:ARG:545:CD:4918, H-A:TYR:484:OH:4343, V-A:ARG:545:CZ:4921, H-A:GLY:454:N:4045, V-A:ASP:366:CG:3208, V-A:GLU:543:CD:4903, V-B:GLU:543:CG:9875, V-A:HIS:456:CE1:4064, V-B:HIS:456:CE1:9037, H-A:GLU:543:OE1:4904, V-B:GLU:543:CD:9876, V-B:GLU:543:CB:9874, H-B:GLU:543:OE2:9878, V-B:ARG:545:CZ:9894, H-B:TYR:484:OH:9315, V-B:ARG:545:CD:9891, V-B:ARG:545:CG:9890, H-B:GLY:454:N:9017, V-A:ILE:369:CD1:3234, V-A:GLY:453:C:4037, V-A:GLY:453:CA:4039, H-A:HIS:456:NE2:4065, V-B:GLY:453:CA:9011, V-B:GLY:453:C:9009, V-B:GLY:454:CA:9016, H-B:ILE:455:N:9022, V-B:GLY:454:C:9014, V-B:ILE:455:C:9019, H-A:ILE:455:N:4050"]

$$$$
1c_Ghoteimi_2023
     RDKit          3D

 54 57  0  0  0  0  0  0  0  0999 V2000
  124.1300  132.1940   61.7730 C   0  0  0  0  0  0  0  0  0  0  0  0
  124.8720  132.5460   62.9360 O   0  0  0  0  0  0  0  0  0  0  0  0
  125.6160  131.5770   63.5820 C   0  0  0  0  0  0  0  0  0  0  0  0
  124.9080  130.6430   64.3330 C   0  0  0  0  0  0  0  0  0  0  0  0
  125.5770  129.6330   65.0200 C   0  0  0  0  0  0  0  0  0  0  0  0
  126.9760  129.5280   64.9750 C   0  0  0  0  0  0  0  0  0  0  0  0
  127.7020  128.4440   65.7180 C   0  0  0  0  0  0  0  0  0  0  0  0
  128.8140  127.7790   65.1900 C   0  0  0  0  0  0  0  0  0  0  0  0
  129.4750  126.7930   65.9320 C   0  0  0  0  0  0  0  0  0  0  0  0
  130.6940  126.1730   65.3340 C   0  0  0  0  0  0  0  0  0  0  0  0
  131.8590  126.0220   66.0910 C   0  0  0  0  0  0  0  0  0  0  0  0
  133.0020  125.4640   65.5260 C   0  0  0  0  0  0  0  0  0  0  0  0
  133.0030  125.0510   64.1940 C   0  0  0  0  0  0  0  0  0  0  0  0
  134.1820  124.5080   63.7170 O   0  0  0  0  0  0  0  0  0  0  0  0
  134.2230  123.9940   62.3900 C   0  0  0  0  0  0  0  0  0  0  0  0
  131.8370  125.2070   63.4280 C   0  0  0  0  0  0  0  0  0  0  0  0
  130.6960  125.7660   63.9960 C   0  0  0  0  0  0  0  0  0  0  0  0
  128.9720  126.4640   67.2130 C   0  0  0  0  0  0  0  0  0  0  0  0
  129.5990  125.4160   68.0260 C   0  0  0  0  0  0  0  0  0  0  0  0
  130.0950  124.5890   68.6660 N   0  0  0  0  0  0  0  0  0  0  0  0
  127.8590  127.1850   67.6910 C   0  0  0  0  0  0  0  0  0  0  0  0
  127.2290  126.9960   69.3450 S   0  0  0  0  0  0  0  0  0  0  0  0
  128.3760  127.9490   70.3920 C   0  0  0  0  0  0  0  0  0  0  0  0
  128.9830  127.0950   71.5100 C   0  0  0  0  0  0  0  0  0  0  0  0
  129.2110  127.6030   72.6090 O   0  0  0  0  0  0  0  0  0  0  0  0
  129.1870  125.7960   71.1960 N   0  0  0  0  0  0  0  0  0  0  0  0
  129.5760  124.7860   72.0610 C   0  0  0  0  0  0  0  0  0  0  0  0
  129.3960  124.7240   73.3630 N   0  0  0  0  0  0  0  0  0  0  0  0
  129.8600  123.5940   73.8610 C   0  0  0  0  0  0  0  0  0  0  0  0
  130.4310  122.7090   72.9520 C   0  0  0  0  0  0  0  0  0  0  0  0
  130.3540  123.4040   71.3600 S   0  0  0  0  0  0  0  0  0  0  0  0
  127.2480  128.1520   66.9660 N   0  0  0  0  0  0  0  0  0  0  0  0
  127.6780  130.4710   64.2100 C   0  0  0  0  0  0  0  0  0  0  0  0
  127.0140  131.4830   63.5240 C   0  0  0  0  0  0  0  0  0  0  0  0
  123.1735  131.7402   62.0717 H   0  0  0  0  0  0  0  0  0  0  0  0
  123.9367  133.0964   61.1744 H   0  0  0  0  0  0  0  0  0  0  0  0
  124.7066  131.4734   61.1744 H   0  0  0  0  0  0  0  0  0  0  0  0
  123.8108  130.7032   64.3843 H   0  0  0  0  0  0  0  0  0  0  0  0
  124.9990  128.9049   65.6081 H   0  0  0  0  0  0  0  0  0  0  0  0
  129.1725  128.0335   64.1817 H   0  0  0  0  0  0  0  0  0  0  0  0
  131.8727  126.3468   67.1419 H   0  0  0  0  0  0  0  0  0  0  0  0
  133.9110  125.3479   66.1344 H   0  0  0  0  0  0  0  0  0  0  0  0
  134.3104  122.8980   62.4239 H   0  0  0  0  0  0  0  0  0  0  0  0
  133.2998  124.2720   61.8604 H   0  0  0  0  0  0  0  0  0  0  0  0
  135.0904  124.4148   61.8604 H   0  0  0  0  0  0  0  0  0  0  0  0
  131.8251  124.8865   62.3758 H   0  0  0  0  0  0  0  0  0  0  0  0
  129.7880  125.8887   63.3873 H   0  0  0  0  0  0  0  0  0  0  0  0
  129.1894  128.3391   69.7626 H   0  0  0  0  0  0  0  0  0  0  0  0
  127.8068  128.7651   70.8611 H   0  0  0  0  0  0  0  0  0  0  0  0
  128.9660  125.5060   70.2550 H   0  0  0  0  0  0  0  0  0  0  0  0
  129.7989  123.3643   74.9350 H   0  0  0  0  0  0  0  0  0  0  0  0
  130.8617  121.7278   73.2004 H   0  0  0  0  0  0  0  0  0  0  0  0
  128.7747  130.4092   64.1513 H   0  0  0  0  0  0  0  0  0  0  0  0
  127.5880  132.2124   62.9337 H   0  0  0  0  0  0  0  0  0  0  0  0
  1  2  1  0
  2  3  1  0
  3  4  2  0
  4  5  1  0
  5  6  2  0
  6  7  1  0
  7  8  2  0
  8  9  1  0
  9 10  1  0
 10 11  2  0
 11 12  1  0
 12 13  2  0
 13 14  1  0
 14 15  1  0
 13 16  1  0
 16 17  2  0
  9 18  2  0
 18 19  1  0
 19 20  3  0
 18 21  1  0
 21 22  1  0
 22 23  1  0
 23 24  1  0
 24 25  2  0
 24 26  1  0
 26 27  1  0
 27 28  2  0
 28 29  1  0
 29 30  2  0
 30 31  1  0
 21 32  2  0
  6 33  1  0
 33 34  2  0
 34  3  1  0
 32  7  1  0
 17 10  1  0
 31 27  1  0
  1 35  1  0
  1 36  1  0
  1 37  1  0
  4 38  1  0
  5 39  1  0
  8 40  1  0
 11 41  1  0
 12 42  1  0
 15 43  1  0
 15 44  1  0
 15 45  1  0
 16 46  1  0
 17 47  1  0
 23 48  1  0
 23 49  1  0
 26 50  1  0
 29 51  1  0
 30 52  1  0
 33 53  1  0
 34 54  1  0
M  END
>  <Binding energies>  (1) 
[-8.44]

>  <Ligand effiencies>  (1) 
[-0.24114285714285713]

>  <Interactions>  (1) 
["V-A:ARG:545:CZ:4921, H-A:GLY:454:N:4045, V-A:ASP:366:CG:3208, V-A:GLU:543:CD:4903, V-B:GLU:543:CG:9875, V-A:HIS:456:CE1:4064, V-B:HIS:456:CE1:9037, V-B:GLU:543:CD:9876, V-B:GLU:543:CB:9874, V-A:ILE:369:CD1:3234, V-A:HIS:456:CD2:4063, V-B:GLU:543:C:9870, V-B:GLU:543:CA:9872, H-B:GLU:543:O:9871, H-B:LYS:547:NZ:9919, V-B:HIS:456:CD2:9035, V-A:HIS:456:CG:4061, H-A:HIS:456:NE2:4065, V-B:LYS:547:CE:9918, V-B:ILE:369:CD1:8206"]

$$$$
1c_Grossjean_2025
     RDKit          3D

 40 41  0  0  0  0  0  0  0  0999 V2000
  122.6590  129.9890   66.9680 C   0  0  0  0  0  0  0  0  0  0  0  0
  122.7200  129.9830   65.5460 O   0  0  0  0  0  0  0  0  0  0  0  0
  123.9120  130.2960   64.9210 C   0  0  0  0  0  0  0  0  0  0  0  0
  124.9610  129.3930   65.0930 C   0  0  0  0  0  0  0  0  0  0  0  0
  126.2010  129.6200   64.5020 C   0  0  0  0  0  0  0  0  0  0  0  0
  126.4040  130.7660   63.7190 C   0  0  0  0  0  0  0  0  0  0  0  0
  127.6180  131.0990   63.0860 N   0  0  0  0  0  0  0  0  0  0  0  0
  128.6060  131.9170   63.5050 C   0  0  0  0  0  0  0  0  0  0  0  0
  128.6230  132.5290   64.5720 O   0  0  0  0  0  0  0  0  0  0  0  0
  129.7890  132.0620   62.5440 C   0  0  0  0  0  0  0  0  0  0  0  0
  129.3400  133.0010   61.0540 S   0  0  0  0  0  0  0  0  0  0  0  0
  127.5770  132.8860   60.8280 C   0  0  0  0  0  0  0  0  0  0  0  0
  127.1650  131.6630   60.4060 N   0  0  0  0  0  0  0  0  0  0  0  0
  125.8440  131.4560   60.1990 C   0  0  0  0  0  0  0  0  0  0  0  0
  125.4600  130.0620   59.7390 C   0  0  0  0  0  0  0  0  0  0  0  0
  124.8880  132.4510   60.3890 C   0  0  0  0  0  0  0  0  0  0  0  0
  125.3030  133.7220   60.7990 C   0  0  0  0  0  0  0  0  0  0  0  0
  124.2380  134.8020   60.9840 C   0  0  0  0  0  0  0  0  0  0  0  0
  126.6790  133.9630   61.0200 C   0  0  0  0  0  0  0  0  0  0  0  0
  127.1380  135.3030   61.3970 C   0  0  0  0  0  0  0  0  0  0  0  0
  127.4990  136.3600   61.6950 N   0  0  0  0  0  0  0  0  0  0  0  0
  125.3610  131.6780   63.5540 C   0  0  0  0  0  0  0  0  0  0  0  0
  124.1230  131.4470   64.1470 C   0  0  0  0  0  0  0  0  0  0  0  0
  123.6744  129.8891   67.3790 H   0  0  0  0  0  0  0  0  0  0  0  0
  122.2156  130.9351   67.3120 H   0  0  0  0  0  0  0  0  0  0  0  0
  122.0398  129.1474   67.3120 H   0  0  0  0  0  0  0  0  0  0  0  0
  124.8068  128.4907   65.7029 H   0  0  0  0  0  0  0  0  0  0  0  0
  127.0207  128.9013   64.6489 H   0  0  0  0  0  0  0  0  0  0  0  0
  127.7810  130.6120   62.2180 H   0  0  0  0  0  0  0  0  0  0  0  0
  130.6059  132.5859   63.0619 H   0  0  0  0  0  0  0  0  0  0  0  0
  130.0999  131.0543   62.2313 H   0  0  0  0  0  0  0  0  0  0  0  0
  125.2837  129.4220   60.6161 H   0  0  0  0  0  0  0  0  0  0  0  0
  124.5431  130.1152   59.1337 H   0  0  0  0  0  0  0  0  0  0  0  0
  126.2748  129.6382   59.1337 H   0  0  0  0  0  0  0  0  0  0  0  0
  123.8219  132.2401   60.2190 H   0  0  0  0  0  0  0  0  0  0  0  0
  124.0706  134.9718   62.0579 H   0  0  0  0  0  0  0  0  0  0  0  0
  124.5779  135.7365   60.5137 H   0  0  0  0  0  0  0  0  0  0  0  0
  123.2988  134.4752   60.5137 H   0  0  0  0  0  0  0  0  0  0  0  0
  125.5180  132.5850   62.9517 H   0  0  0  0  0  0  0  0  0  0  0  0
  123.3061  132.1704   64.0081 H   0  0  0  0  0  0  0  0  0  0  0  0
  1  2  1  0
  2  3  1  0
  3  4  2  0
  4  5  1  0
  5  6  2  0
  6  7  1  0
  7  8  1  0
  8  9  2  0
  8 10  1  0
 10 11  1  0
 11 12  1  0
 12 13  2  0
 13 14  1  0
 14 15  1  0
 14 16  2  0
 16 17  1  0
 17 18  1  0
 17 19  2  0
 19 20  1  0
 20 21  3  0
  6 22  1  0
 22 23  2  0
 23  3  1  0
 19 12  1  0
  1 24  1  0
  1 25  1  0
  1 26  1  0
  4 27  1  0
  5 28  1  0
  7 29  1  0
 10 30  1  0
 10 31  1  0
 15 32  1  0
 15 33  1  0
 15 34  1  0
 16 35  1  0
 18 36  1  0
 18 37  1  0
 18 38  1  0
 22 39  1  0
 23 40  1  0
M  END
>  <Binding energies>  (1) 
[-6.62]

>  <Ligand effiencies>  (1) 
[-0.2758333333333333]

>  <Interactions>  (1) 
["V-A:GLU:543:CD:4903, V-A:GLU:543:CG:4902, V-B:HIS:456:CE1:9037, V-B:ARG:545:CZ:9894, H-B:TYR:484:OH:9315, H-A:ALA:541:N:4886, V-B:ARG:545:CD:9891, V-A:ALA:541:CB:4887, V-B:ARG:545:CG:9890, V-A:TYR:539:CE2:4871, H-B:GLY:454:N:9017, H-B:ARG:545:NE:9892, V-B:ASP:366:CG:8180, V-B:ILE:369:CD1:8206, V-B:ILE:369:CG2:8204, V-B:LEU:475:CD2:9226, V-A:TYR:539:CD2:4869, H-B:ARG:545:NH1:9895, V-B:GLY:453:CA:9011, V-B:TRP:381:CH2:8339, V-B:GLY:453:C:9009, V-B:GLY:454:CA:9016, V-B:ARG:545:CB:9889, V-B:ILE:455:C:9019"]

$$$$
1d_Ghoteimi_2023
     RDKit          3D

 50 52  0  0  0  0  0  0  0  0999 V2000
  123.8010  129.9900   63.5580 C   0  0  0  0  0  0  0  0  0  0  0  0
  123.9160  130.6880   64.7880 O   0  0  0  0  0  0  0  0  0  0  0  0
  124.0170  130.0130   65.9520 C   0  0  0  0  0  0  0  0  0  0  0  0
  123.3820  130.2390   66.9830 O   0  0  0  0  0  0  0  0  0  0  0  0
  125.0450  128.8860   65.8810 C   0  0  0  0  0  0  0  0  0  0  0  0
  126.6330  129.6240   65.3920 S   0  0  0  0  0  0  0  0  0  0  0  0
  127.9150  128.6400   66.1350 C   0  0  0  0  0  0  0  0  0  0  0  0
  127.9980  128.7760   67.4800 N   0  0  0  0  0  0  0  0  0  0  0  0
  128.9360  128.0840   68.1750 C   0  0  0  0  0  0  0  0  0  0  0  0
  128.9570  128.2870   69.6620 C   0  0  0  0  0  0  0  0  0  0  0  0
  127.8710  127.9050   70.4650 C   0  0  0  0  0  0  0  0  0  0  0  0
  127.8900  128.1000   71.8430 C   0  0  0  0  0  0  0  0  0  0  0  0
  128.9920  128.6850   72.4620 C   0  0  0  0  0  0  0  0  0  0  0  0
  128.9220  128.8420   73.8320 O   0  0  0  0  0  0  0  0  0  0  0  0
  128.1360  129.9020   74.3690 C   0  0  0  0  0  0  0  0  0  0  0  0
  130.0840  129.0720   71.6740 C   0  0  0  0  0  0  0  0  0  0  0  0
  130.0630  128.8750   70.2960 C   0  0  0  0  0  0  0  0  0  0  0  0
  129.8170  127.2190   67.5150 C   0  0  0  0  0  0  0  0  0  0  0  0
  129.7640  127.0700   66.1240 C   0  0  0  0  0  0  0  0  0  0  0  0
  130.7390  126.1350   65.4830 C   0  0  0  0  0  0  0  0  0  0  0  0
  132.0800  126.1360   65.8810 C   0  0  0  0  0  0  0  0  0  0  0  0
  132.9930  125.2680   65.2890 C   0  0  0  0  0  0  0  0  0  0  0  0
  132.5860  124.3800   64.2940 C   0  0  0  0  0  0  0  0  0  0  0  0
  133.5620  123.5610   63.7590 O   0  0  0  0  0  0  0  0  0  0  0  0
  134.0730  123.8460   62.4610 C   0  0  0  0  0  0  0  0  0  0  0  0
  131.2390  124.3670   63.9010 C   0  0  0  0  0  0  0  0  0  0  0  0
  130.3270  125.2350   64.4950 C   0  0  0  0  0  0  0  0  0  0  0  0
  128.7990  127.8160   65.4020 C   0  0  0  0  0  0  0  0  0  0  0  0
  128.7670  127.7780   63.9370 C   0  0  0  0  0  0  0  0  0  0  0  0
  128.7430  127.7480   62.7810 N   0  0  0  0  0  0  0  0  0  0  0  0
  123.6251  128.9226   63.7572 H   0  0  0  0  0  0  0  0  0  0  0  0
  122.9582  130.3992   62.9816 H   0  0  0  0  0  0  0  0  0  0  0  0
  124.7306  130.1071   62.9816 H   0  0  0  0  0  0  0  0  0  0  0  0
  125.1422  128.4039   66.8649 H   0  0  0  0  0  0  0  0  0  0  0  0
  124.7326  128.1222   65.1536 H   0  0  0  0  0  0  0  0  0  0  0  0
  126.9891  127.4433   69.9969 H   0  0  0  0  0  0  0  0  0  0  0  0
  127.0263  127.7891   72.4490 H   0  0  0  0  0  0  0  0  0  0  0  0
  128.1665  129.8608   75.4678 H   0  0  0  0  0  0  0  0  0  0  0  0
  128.5387  130.8668   74.0269 H   0  0  0  0  0  0  0  0  0  0  0  0
  127.0958  129.7968   74.0269 H   0  0  0  0  0  0  0  0  0  0  0  0
  130.9630  129.5342   72.1469 H   0  0  0  0  0  0  0  0  0  0  0  0
  130.9289  129.1858   69.6929 H   0  0  0  0  0  0  0  0  0  0  0  0
  130.5586  126.6505   68.0954 H   0  0  0  0  0  0  0  0  0  0  0  0
  132.4155  126.8279   66.6676 H   0  0  0  0  0  0  0  0  0  0  0  0
  134.0453  125.2827   65.6091 H   0  0  0  0  0  0  0  0  0  0  0  0
  135.0303  124.3799   62.5529 H   0  0  0  0  0  0  0  0  0  0  0  0
  134.2292  122.9047   61.9136 H   0  0  0  0  0  0  0  0  0  0  0  0
  133.3543  124.4735   61.9136 H   0  0  0  0  0  0  0  0  0  0  0  0
  130.9025  123.6684   63.1208 H   0  0  0  0  0  0  0  0  0  0  0  0
  129.2720  125.2128   64.1842 H   0  0  0  0  0  0  0  0  0  0  0  0
  1  2  1  0
  2  3  1  0
  3  4  2  0
  3  5  1  0
  5  6  1  0
  6  7  1  0
  7  8  2  0
  8  9  1  0
  9 10  1  0
 10 11  2  0
 11 12  1  0
 12 13  2  0
 13 14  1  0
 14 15  1  0
 13 16  1  0
 16 17  2  0
  9 18  2  0
 18 19  1  0
 19 20  1  0
 20 21  2  0
 21 22  1  0
 22 23  2  0
 23 24  1  0
 24 25  1  0
 23 26  1  0
 26 27  2  0
 19 28  2  0
 28 29  1  0
 29 30  3  0
 28  7  1  0
 17 10  1  0
 27 20  1  0
  1 31  1  0
  1 32  1  0
  1 33  1  0
  5 34  1  0
  5 35  1  0
 11 36  1  0
 12 37  1  0
 15 38  1  0
 15 39  1  0
 15 40  1  0
 16 41  1  0
 17 42  1  0
 18 43  1  0
 21 44  1  0
 22 45  1  0
 25 46  1  0
 25 47  1  0
 25 48  1  0
 26 49  1  0
 27 50  1  0
M  END
>  <Binding energies>  (1) 
[-7.61]

>  <Ligand effiencies>  (1) 
[-0.25366666666666665]

>  <Interactions>  (1) 
["H-A:TYR:484:OH:4343, V-A:ARG:545:CZ:4921, H-A:GLY:454:N:4045, V-A:ASP:366:CG:3208, V-A:GLU:543:CD:4903, V-B:GLU:543:CG:9875, V-A:HIS:456:CE1:4064, V-B:HIS:456:CE1:9037, V-B:GLU:543:CD:9876, V-A:GLU:543:C:4897, V-B:ARG:545:CZ:9894, H-B:TYR:484:OH:9315, V-B:ARG:545:CD:9891, V-B:ARG:545:CG:9890, H-B:GLY:454:N:9017, V-A:ILE:369:CD1:3234, H-B:LYS:547:NZ:9919, V-B:HIS:456:CD2:9035, H-A:LYS:547:NZ:4946, H-B:HIS:456:ND1:9034, H-B:ILE:455:N:9022"]

$$$$
1d_Grossjean_2025
     RDKit          3D

 36 37  0  0  0  0  0  0  0  0999 V2000
  127.8250  132.2320   58.3870 C   0  0  0  0  0  0  0  0  0  0  0  0
  126.8780  132.0290   59.5530 C   0  0  0  0  0  0  0  0  0  0  0  0
  125.5450  131.6750   59.3580 C   0  0  0  0  0  0  0  0  0  0  0  0
  124.7190  131.4920   60.4720 C   0  0  0  0  0  0  0  0  0  0  0  0
  123.2650  131.0880   60.2330 C   0  0  0  0  0  0  0  0  0  0  0  0
  125.2540  131.6790   61.7670 C   0  0  0  0  0  0  0  0  0  0  0  0
  124.4210  131.4460   62.9490 C   0  0  0  0  0  0  0  0  0  0  0  0
  123.7610  131.2610   63.8810 N   0  0  0  0  0  0  0  0  0  0  0  0
  126.6120  132.0620   61.8710 C   0  0  0  0  0  0  0  0  0  0  0  0
  127.4460  132.3410   63.4170 S   0  0  0  0  0  0  0  0  0  0  0  0
  129.0260  131.4430   63.3510 C   0  0  0  0  0  0  0  0  0  0  0  0
  129.8720  131.8530   62.1440 C   0  0  0  0  0  0  0  0  0  0  0  0
  129.7830  133.0020   61.7100 O   0  0  0  0  0  0  0  0  0  0  0  0
  130.6880  130.8930   61.6580 N   0  0  0  0  0  0  0  0  0  0  0  0
  131.5720  130.9300   60.5640 C   0  0  0  0  0  0  0  0  0  0  0  0
  132.9250  130.7630   60.8710 C   0  0  0  0  0  0  0  0  0  0  0  0
  133.8830  130.7770   59.8620 C   0  0  0  0  0  0  0  0  0  0  0  0
  133.4880  130.9530   58.5380 C   0  0  0  0  0  0  0  0  0  0  0  0
  132.1430  131.1120   58.2160 C   0  0  0  0  0  0  0  0  0  0  0  0
  131.1820  131.1000   59.2240 C   0  0  0  0  0  0  0  0  0  0  0  0
  127.4100  132.2170   60.7840 N   0  0  0  0  0  0  0  0  0  0  0  0
  128.8341  132.4483   58.7676 H   0  0  0  0  0  0  0  0  0  0  0  0
  127.8523  131.3193   57.7736 H   0  0  0  0  0  0  0  0  0  0  0  0
  127.4758  133.0757   57.7736 H   0  0  0  0  0  0  0  0  0  0  0  0
  125.1471  131.5411   58.3413 H   0  0  0  0  0  0  0  0  0  0  0  0
  122.7598  130.9476   61.2000 H   0  0  0  0  0  0  0  0  0  0  0  0
  122.7538  131.8781   59.6635 H   0  0  0  0  0  0  0  0  0  0  0  0
  123.2347  130.1474   59.6635 H   0  0  0  0  0  0  0  0  0  0  0  0
  129.5928  131.6548   64.2696 H   0  0  0  0  0  0  0  0  0  0  0  0
  128.8018  130.3701   63.2583 H   0  0  0  0  0  0  0  0  0  0  0  0
  130.6840  130.0140   62.1540 H   0  0  0  0  0  0  0  0  0  0  0  0
  133.2346  130.6196   61.9167 H   0  0  0  0  0  0  0  0  0  0  0  0
  134.9474  130.6497   60.1088 H   0  0  0  0  0  0  0  0  0  0  0  0
  134.2451  130.9665   57.7401 H   0  0  0  0  0  0  0  0  0  0  0  0
  131.8398  131.2469   57.1673 H   0  0  0  0  0  0  0  0  0  0  0  0
  130.1184  131.2235   58.9718 H   0  0  0  0  0  0  0  0  0  0  0  0
  1  2  1  0
  2  3  2  0
  3  4  1  0
  4  5  1  0
  4  6  2  0
  6  7  1  0
  7  8  3  0
  6  9  1  0
  9 10  1  0
 10 11  1  0
 11 12  1  0
 12 13  2  0
 12 14  1  0
 14 15  1  0
 15 16  2  0
 16 17  1  0
 17 18  2  0
 18 19  1  0
 19 20  2  0
  9 21  2  0
 21  2  1  0
 20 15  1  0
  1 22  1  0
  1 23  1  0
  1 24  1  0
  3 25  1  0
  5 26  1  0
  5 27  1  0
  5 28  1  0
 11 29  1  0
 11 30  1  0
 14 31  1  0
 16 32  1  0
 17 33  1  0
 18 34  1  0
 19 35  1  0
 20 36  1  0
M  END
>  <Binding energies>  (1) 
[-6.52]

>  <Ligand effiencies>  (1) 
[-0.29636363636363633]

>  <Interactions>  (1) 
["V-A:LEU:363:CA:3180, V-A:ASN:362:CB:3171, V-A:ASN:362:C:3167, H-A:GLU:543:OE2:4905, V-A:PRO:540:CA:4878, V-A:GLU:543:CD:4903, V-A:PRO:540:CB:4880, V-A:GLU:543:CG:4902, H-B:TYR:484:OH:9315, H-A:ALA:541:N:4886, V-A:TYR:539:CZ:4872, V-A:TYR:539:CE2:4871, H-B:GLY:454:N:9017, V-A:LEU:363:CD1:3184, V-A:LEU:363:CB:3182, V-B:ASP:366:CB:8179, V-B:ASP:366:CG:8180, V-B:ILE:369:CD1:8206, V-B:ILE:369:CB:8203, V-B:ASP:366:CA:8177, V-A:TYR:539:CD2:4869, V-A:TYR:539:CE1:4870"]

$$$$
1e_Grossjean_2025
     RDKit          3D

 38 39  0  0  0  0  0  0  0  0999 V2000
  135.0310  124.8900   66.5250 C   0  0  0  0  0  0  0  0  0  0  0  0
  133.8700  125.1180   65.5760 C   0  0  0  0  0  0  0  0  0  0  0  0
  132.6330  125.5830   66.0320 C   0  0  0  0  0  0  0  0  0  0  0  0
  131.6100  125.7660   65.1010 C   0  0  0  0  0  0  0  0  0  0  0  0
  131.8430  125.4830   63.7530 C   0  0  0  0  0  0  0  0  0  0  0  0
  133.1070  125.0250   63.3630 C   0  0  0  0  0  0  0  0  0  0  0  0
  133.2790  124.7460   61.9960 N   0  0  0  0  0  0  0  0  0  0  0  0
  133.6320  123.5790   61.4140 C   0  0  0  0  0  0  0  0  0  0  0  0
  133.8810  122.5350   62.0180 O   0  0  0  0  0  0  0  0  0  0  0  0
  133.7500  123.6050   59.8890 C   0  0  0  0  0  0  0  0  0  0  0  0
  133.1220  122.0760   59.1320 S   0  0  0  0  0  0  0  0  0  0  0  0
  131.5620  121.6640   59.8880 C   0  0  0  0  0  0  0  0  0  0  0  0
  131.3840  120.3290   60.0640 N   0  0  0  0  0  0  0  0  0  0  0  0
  130.2330  119.8930   60.6280 C   0  0  0  0  0  0  0  0  0  0  0  0
  130.1090  118.3920   60.7990 C   0  0  0  0  0  0  0  0  0  0  0  0
  129.2160  120.7590   61.0260 C   0  0  0  0  0  0  0  0  0  0  0  0
  129.3790  122.1340   60.8270 C   0  0  0  0  0  0  0  0  0  0  0  0
  128.2410  123.0600   61.2560 C   0  0  0  0  0  0  0  0  0  0  0  0
  130.5710  122.6120   60.2370 C   0  0  0  0  0  0  0  0  0  0  0  0
  130.7310  124.0430   59.9680 C   0  0  0  0  0  0  0  0  0  0  0  0
  130.8560  125.1740   59.7570 N   0  0  0  0  0  0  0  0  0  0  0  0
  134.1120  124.8400   64.2700 N   0  0  0  0  0  0  0  0  0  0  0  0
  134.6749  124.9599   67.5634 H   0  0  0  0  0  0  0  0  0  0  0  0
  135.4570  123.8910   66.3499 H   0  0  0  0  0  0  0  0  0  0  0  0
  135.8031  125.6537   66.3499 H   0  0  0  0  0  0  0  0  0  0  0  0
  132.4702  125.7992   67.0982 H   0  0  0  0  0  0  0  0  0  0  0  0
  130.6249  126.1313   65.4269 H   0  0  0  0  0  0  0  0  0  0  0  0
  131.0445  125.6181   63.0086 H   0  0  0  0  0  0  0  0  0  0  0  0
  133.1700  125.5430   61.3850 H   0  0  0  0  0  0  0  0  0  0  0  0
  133.1710  124.4567   59.5023 H   0  0  0  0  0  0  0  0  0  0  0  0
  134.8154  123.6991   59.6319 H   0  0  0  0  0  0  0  0  0  0  0  0
  130.0886  118.1455   61.8708 H   0  0  0  0  0  0  0  0  0  0  0  0
  129.1791  118.0446   60.3251 H   0  0  0  0  0  0  0  0  0  0  0  0
  130.9693  117.8967   60.3251 H   0  0  0  0  0  0  0  0  0  0  0  0
  128.2988  120.3670   61.4897 H   0  0  0  0  0  0  0  0  0  0  0  0
  128.1938  123.0984   62.3543 H   0  0  0  0  0  0  0  0  0  0  0  0
  128.4220  124.0706   60.8612 H   0  0  0  0  0  0  0  0  0  0  0  0
  127.2883  122.6773   60.8612 H   0  0  0  0  0  0  0  0  0  0  0  0
  1  2  1  0
  2  3  2  0
  3  4  1  0
  4  5  2  0
  5  6  1  0
  6  7  1  0
  7  8  1  0
  8  9  2  0
  8 10  1  0
 10 11  1  0
 11 12  1  0
 12 13  2  0
 13 14  1  0
 14 15  1  0
 14 16  2  0
 16 17  1  0
 17 18  1  0
 17 19  2  0
 19 20  1  0
 20 21  3  0
  6 22  2  0
 22  2  1  0
 19 12  1  0
  1 23  1  0
  1 24  1  0
  1 25  1  0
  3 26  1  0
  4 27  1  0
  5 28  1  0
  7 29  1  0
 10 30  1  0
 10 31  1  0
 15 32  1  0
 15 33  1  0
 15 34  1  0
 16 35  1  0
 18 36  1  0
 18 37  1  0
 18 38  1  0
M  END
>  <Binding energies>  (1) 
[-7.2]

>  <Ligand effiencies>  (1) 
[-0.3130434782608696]

>  <Interactions>  (1) 
["H-A:ASP:366:OD2:3210, V-A:ARG:545:CD:4918, H-A:TYR:484:OH:4343, V-A:ARG:545:CZ:4921, V-A:ARG:545:CG:4917, H-A:GLY:454:N:4045, H-A:ASP:366:OD1:3209, V-A:ASP:366:CG:3208, V-A:GLY:454:CA:4044, V-A:PRO:482:CB:4321, V-A:LEU:475:CD2:4254, V-B:TYR:539:CD2:9842, V-A:TRP:381:CZ3:3366, V-A:TRP:381:CZ2:3365, V-A:PRO:482:CG:4322, V-A:TRP:381:CH2:3367, V-B:TYR:539:CE2:9844, V-B:ALA:541:CB:9860, V-A:ASP:366:CB:3207, V-A:ILE:369:CD1:3234, V-A:HIS:456:CD2:4063, V-A:GLY:453:C:4037, V-A:GLY:453:CA:4039, V-B:PRO:540:C:9849, V-B:ALA:541:CA:9858, V-B:TYR:539:C:9835, H-A:ARG:545:NH1:4922, V-A:TRP:381:CE2:3362, V-A:ASP:366:CA:3205"]

$$$$
1f_Grossjean_2025
     RDKit          3D

 35 36  0  0  0  0  0  0  0  0999 V2000
  132.6240  124.4830   58.3800 C   0  0  0  0  0  0  0  0  0  0  0  0
  132.1450  123.2220   59.0760 C   0  0  0  0  0  0  0  0  0  0  0  0
  133.0100  122.1660   59.3480 C   0  0  0  0  0  0  0  0  0  0  0  0
  132.5080  121.0230   59.9800 C   0  0  0  0  0  0  0  0  0  0  0  0
  133.4730  119.8690   60.2510 C   0  0  0  0  0  0  0  0  0  0  0  0
  131.1410  120.9730   60.3350 C   0  0  0  0  0  0  0  0  0  0  0  0
  130.5850  119.7630   60.9470 C   0  0  0  0  0  0  0  0  0  0  0  0
  130.1480  118.8070   61.4310 N   0  0  0  0  0  0  0  0  0  0  0  0
  130.3420  122.1030   60.0460 C   0  0  0  0  0  0  0  0  0  0  0  0
  128.6030  122.2230   60.4170 S   0  0  0  0  0  0  0  0  0  0  0  0
  128.4190  122.6430   62.1840 C   0  0  0  0  0  0  0  0  0  0  0  0
  129.7380  122.7480   62.9640 C   0  0  0  0  0  0  0  0  0  0  0  0
  130.4030  121.7400   63.2070 O   0  0  0  0  0  0  0  0  0  0  0  0
  130.0580  123.9990   63.3590 N   0  0  0  0  0  0  0  0  0  0  0  0
  131.1810  124.4560   64.0750 C   0  0  0  0  0  0  0  0  0  0  0  0
  131.1450  125.2840   65.2130 C   0  0  0  0  0  0  0  0  0  0  0  0
  132.3410  125.6600   65.8310 C   0  0  0  0  0  0  0  0  0  0  0  0
  133.5440  125.1970   65.2980 C   0  0  0  0  0  0  0  0  0  0  0  0
  133.6050  124.3950   64.2060 N   0  0  0  0  0  0  0  0  0  0  0  0
  132.4350  124.0370   63.6160 C   0  0  0  0  0  0  0  0  0  0  0  0
  130.8330  123.1970   59.4100 N   0  0  0  0  0  0  0  0  0  0  0  0
  132.9086  125.2322   59.1335 H   0  0  0  0  0  0  0  0  0  0  0  0
  133.4949  124.2464   57.7511 H   0  0  0  0  0  0  0  0  0  0  0  0
  131.8157  124.8843   57.7511 H   0  0  0  0  0  0  0  0  0  0  0  0
  134.0725  122.2291   59.0702 H   0  0  0  0  0  0  0  0  0  0  0  0
  133.5865  119.7332   61.3367 H   0  0  0  0  0  0  0  0  0  0  0  0
  133.0745  118.9455   59.8057 H   0  0  0  0  0  0  0  0  0  0  0  0
  134.4525  120.0978   59.8057 H   0  0  0  0  0  0  0  0  0  0  0  0
  127.9030  123.6120   62.2531 H   0  0  0  0  0  0  0  0  0  0  0  0
  127.8552  121.8162   62.6407 H   0  0  0  0  0  0  0  0  0  0  0  0
  129.3940  124.7230   63.1240 H   0  0  0  0  0  0  0  0  0  0  0  0
  130.1817  125.6329   65.6133 H   0  0  0  0  0  0  0  0  0  0  0  0
  132.3337  126.3080   66.7198 H   0  0  0  0  0  0  0  0  0  0  0  0
  134.4843  125.4954   65.7846 H   0  0  0  0  0  0  0  0  0  0  0  0
  132.4752  123.3840   62.7317 H   0  0  0  0  0  0  0  0  0  0  0  0
  1  2  1  0
  2  3  2  0
  3  4  1  0
  4  5  1  0
  4  6  2  0
  6  7  1  0
  7  8  3  0
  6  9  1  0
  9 10  1  0
 10 11  1  0
 11 12  1  0
 12 13  2  0
 12 14  1  0
 14 15  1  0
 15 16  2  0
 16 17  1  0
 17 18  2  0
 18 19  1  0
 19 20  2  0
  9 21  2  0
 21  2  1  0
 20 15  1  0
  1 22  1  0
  1 23  1  0
  1 24  1  0
  3 25  1  0
  5 26  1  0
  5 27  1  0
  5 28  1  0
 11 29  1  0
 11 30  1  0
 14 31  1  0
 16 32  1  0
 17 33  1  0
 18 34  1  0
 20 35  1  0
M  END
>  <Binding energies>  (1) 
[-6.77]

>  <Ligand effiencies>  (1) 
[-0.3077272727272727]

>  <Interactions>  (1) 
["V-A:ARG:545:CD:4918, H-A:TYR:484:OH:4343, V-A:ARG:545:CZ:4921, H-A:GLY:454:N:4045, V-A:ASP:366:CG:3208, V-B:GLU:543:CG:9875, V-B:GLU:543:CD:9876, H-B:GLU:543:OE2:9878, V-A:LEU:475:CD2:4254, V-B:TYR:539:CD2:9842, V-A:TRP:381:CZ2:3365, V-A:TRP:381:CH2:3367, V-B:TYR:539:CE2:9844, V-B:ALA:541:CB:9860, V-A:ASP:366:CB:3207, V-A:ILE:369:CD1:3234, V-A:ILE:369:CG2:3232, V-B:ALA:541:CA:9858, H-B:ALA:541:N:9859"]

$$$$
1g_Grossjean_2025
     RDKit          3D

 39 40  0  0  0  0  0  0  0  0999 V2000
  128.2410  123.4050   61.3100 C   0  0  0  0  0  0  0  0  0  0  0  0
  129.4390  122.4980   61.1010 C   0  0  0  0  0  0  0  0  0  0  0  0
  129.2980  121.1150   61.0010 C   0  0  0  0  0  0  0  0  0  0  0  0
  130.4400  120.3270   60.8240 C   0  0  0  0  0  0  0  0  0  0  0  0
  130.2620  118.8120   60.7330 C   0  0  0  0  0  0  0  0  0  0  0  0
  131.7050  120.9510   60.7430 C   0  0  0  0  0  0  0  0  0  0  0  0
  132.9200  120.1430   60.6100 C   0  0  0  0  0  0  0  0  0  0  0  0
  133.8780  119.5010   60.5070 N   0  0  0  0  0  0  0  0  0  0  0  0
  131.7510  122.3630   60.8280 C   0  0  0  0  0  0  0  0  0  0  0  0
  133.2540  123.3100   60.7350 S   0  0  0  0  0  0  0  0  0  0  0  0
  133.9630  123.3640   62.4080 C   0  0  0  0  0  0  0  0  0  0  0  0
  133.4950  124.5930   63.1890 C   0  0  0  0  0  0  0  0  0  0  0  0
  134.2180  125.0860   64.0560 O   0  0  0  0  0  0  0  0  0  0  0  0
  132.2790  125.0710   62.8730 N   0  0  0  0  0  0  0  0  0  0  0  0
  131.6600  126.2650   63.4490 C   0  0  0  0  0  0  0  0  0  0  0  0
  130.8570  126.0050   64.7200 C   0  0  0  0  0  0  0  0  0  0  0  0
  131.2200  124.9580   65.5730 C   0  0  0  0  0  0  0  0  0  0  0  0
  130.4870  124.7210   66.7330 C   0  0  0  0  0  0  0  0  0  0  0  0
  129.3970  125.5340   67.0390 C   0  0  0  0  0  0  0  0  0  0  0  0
  129.0340  126.5820   66.1960 C   0  0  0  0  0  0  0  0  0  0  0  0
  129.7650  126.8190   65.0350 C   0  0  0  0  0  0  0  0  0  0  0  0
  130.6400  123.1170   61.0230 N   0  0  0  0  0  0  0  0  0  0  0  0
  128.0654  123.5380   62.3877 H   0  0  0  0  0  0  0  0  0  0  0  0
  128.4366  124.3834   60.8469 H   0  0  0  0  0  0  0  0  0  0  0  0
  127.3524  122.9513   60.8469 H   0  0  0  0  0  0  0  0  0  0  0  0
  128.3029  120.6499   61.0604 H   0  0  0  0  0  0  0  0  0  0  0  0
  130.2121  118.3872   61.7464 H   0  0  0  0  0  0  0  0  0  0  0  0
  129.3309  118.5840   60.1935 H   0  0  0  0  0  0  0  0  0  0  0  0
  131.1149  118.3743   60.1935 H   0  0  0  0  0  0  0  0  0  0  0  0
  133.6566  122.4590   62.9530 H   0  0  0  0  0  0  0  0  0  0  0  0
  135.0574  123.4190   62.3117 H   0  0  0  0  0  0  0  0  0  0  0  0
  131.7610  124.6170   62.1340 H   0  0  0  0  0  0  0  0  0  0  0  0
  132.4565  126.9857   63.6861 H   0  0  0  0  0  0  0  0  0  0  0  0
  130.9496  126.6442   62.6996 H   0  0  0  0  0  0  0  0  0  0  0  0
  132.0836  124.3223   65.3279 H   0  0  0  0  0  0  0  0  0  0  0  0
  130.7669  123.8961   67.4047 H   0  0  0  0  0  0  0  0  0  0  0  0
  128.8177  125.3463   67.9551 H   0  0  0  0  0  0  0  0  0  0  0  0
  128.1734  127.2196   66.4466 H   0  0  0  0  0  0  0  0  0  0  0  0
  129.4836  127.6458   64.3663 H   0  0  0  0  0  0  0  0  0  0  0  0
  1  2  1  0
  2  3  2  0
  3  4  1  0
  4  5  1  0
  4  6  2  0
  6  7  1  0
  7  8  3  0
  6  9  1  0
  9 10  1  0
 10 11  1  0
 11 12  1  0
 12 13  2  0
 12 14  1  0
 14 15  1  0
 15 16  1  0
 16 17  2  0
 17 18  1  0
 18 19  2  0
 19 20  1  0
 20 21  2  0
  9 22  2  0
 22  2  1  0
 21 16  1  0
  1 23  1  0
  1 24  1  0
  1 25  1  0
  3 26  1  0
  5 27  1  0
  5 28  1  0
  5 29  1  0
 11 30  1  0
 11 31  1  0
 14 32  1  0
 15 33  1  0
 15 34  1  0
 17 35  1  0
 18 36  1  0
 19 37  1  0
 20 38  1  0
 21 39  1  0
M  END
>  <Binding energies>  (1) 
[-6.13]

>  <Ligand effiencies>  (1) 
[-0.26652173913043475]

>  <Interactions>  (1) 
["H-A:GLY:454:N:4045, V-A:GLU:543:CD:4903, V-B:GLU:543:CG:9875, V-A:GLY:454:CA:4044, V-B:GLU:543:CD:9876, V-B:GLU:543:CB:9874, V-A:PRO:482:CB:4321, V-A:LEU:475:CD2:4254, V-B:TYR:539:CD2:9842, V-A:TRP:381:CZ3:3366, V-A:TRP:381:CZ2:3365, V-A:TYR:484:CE1:4340, V-A:TYR:484:CZ:4342, V-A:TRP:381:CH2:3367, V-B:ALA:541:CB:9860, V-A:ILE:369:CD1:3234, V-B:GLU:543:CA:9872, H-A:ARG:545:NE:4919, V-A:ILE:369:CG2:3232, V-B:PRO:540:C:9849, H-A:ARG:545:NH1:4922, H-A:ARG:545:NH2:4923"]

$$$$
1h_Grossjean_2025
     RDKit          3D

 51 52  0  0  0  0  0  0  0  0999 V2000
  130.1530  131.1470   73.1200 C   0  0  0  0  0  0  0  0  0  0  0  0
  130.1270  129.7420   73.3450 O   0  0  0  0  0  0  0  0  0  0  0  0
  129.7900  128.8940   72.3060 C   0  0  0  0  0  0  0  0  0  0  0  0
  129.6890  129.2990   70.9660 C   0  0  0  0  0  0  0  0  0  0  0  0
  129.3290  128.3900   69.9700 C   0  0  0  0  0  0  0  0  0  0  0  0
  129.2450  128.8380   68.5140 C   0  0  0  0  0  0  0  0  0  0  0  0
  130.1060  128.0790   67.6070 N   0  0  0  0  0  0  0  0  0  0  0  0
  129.8270  126.8600   67.1100 C   0  0  0  0  0  0  0  0  0  0  0  0
  128.7870  126.2480   67.3460 O   0  0  0  0  0  0  0  0  0  0  0  0
  130.8920  126.2320   66.2100 C   0  0  0  0  0  0  0  0  0  0  0  0
  130.6820  124.4320   66.0620 S   0  0  0  0  0  0  0  0  0  0  0  0
  130.9170  123.9860   64.3500 C   0  0  0  0  0  0  0  0  0  0  0  0
  129.8270  123.4760   63.7180 N   0  0  0  0  0  0  0  0  0  0  0  0
  129.9350  123.1210   62.4160 C   0  0  0  0  0  0  0  0  0  0  0  0
  128.6750  122.5660   61.7790 C   0  0  0  0  0  0  0  0  0  0  0  0
  131.1200  123.2540   61.6960 C   0  0  0  0  0  0  0  0  0  0  0  0
  132.2500  123.7750   62.3360 C   0  0  0  0  0  0  0  0  0  0  0  0
  133.5380  123.9140   61.5270 C   0  0  0  0  0  0  0  0  0  0  0  0
  132.1600  124.1530   63.6950 C   0  0  0  0  0  0  0  0  0  0  0  0
  133.3270  124.6980   64.3920 C   0  0  0  0  0  0  0  0  0  0  0  0
  134.2500  125.1300   64.9420 N   0  0  0  0  0  0  0  0  0  0  0  0
  129.1030  127.0550   70.3050 C   0  0  0  0  0  0  0  0  0  0  0  0
  129.2030  126.6210   71.6360 C   0  0  0  0  0  0  0  0  0  0  0  0
  128.9910  125.3150   72.0410 O   0  0  0  0  0  0  0  0  0  0  0  0
  129.8320  124.2820   71.5390 C   0  0  0  0  0  0  0  0  0  0  0  0
  129.5360  127.5530   72.6290 C   0  0  0  0  0  0  0  0  0  0  0  0
  129.6430  127.1410   73.9360 O   0  0  0  0  0  0  0  0  0  0  0  0
  130.7930  126.3500   74.2010 C   0  0  0  0  0  0  0  0  0  0  0  0
  130.1627  131.6729   74.0861 H   0  0  0  0  0  0  0  0  0  0  0  0
  131.0562  131.4104   72.5500 H   0  0  0  0  0  0  0  0  0  0  0  0
  129.2602  131.4436   72.5500 H   0  0  0  0  0  0  0  0  0  0  0  0
  129.8961  130.3454   70.6975 H   0  0  0  0  0  0  0  0  0  0  0  0
  128.2038  128.7260   68.1772 H   0  0  0  0  0  0  0  0  0  0  0  0
  129.5908  129.8818   68.4819 H   0  0  0  0  0  0  0  0  0  0  0  0
  130.9900  128.5050   67.3720 H   0  0  0  0  0  0  0  0  0  0  0  0
  130.8210  126.6815   65.2086 H   0  0  0  0  0  0  0  0  0  0  0  0
  131.8760  126.4236   66.6628 H   0  0  0  0  0  0  0  0  0  0  0  0
  127.9719  122.2563   62.5663 H   0  0  0  0  0  0  0  0  0  0  0  0
  128.2077  123.3416   61.1544 H   0  0  0  0  0  0  0  0  0  0  0  0
  128.9318  121.6977   61.1544 H   0  0  0  0  0  0  0  0  0  0  0  0
  131.1668  122.9536   60.6389 H   0  0  0  0  0  0  0  0  0  0  0  0
  134.3934  124.0063   62.2124 H   0  0  0  0  0  0  0  0  0  0  0  0
  133.6705  123.0249   60.8930 H   0  0  0  0  0  0  0  0  0  0  0  0
  133.4778  124.8109   60.8930 H   0  0  0  0  0  0  0  0  0  0  0  0
  128.8432  126.3335   69.5164 H   0  0  0  0  0  0  0  0  0  0  0  0
  130.2795  123.7323   72.3802 H   0  0  0  0  0  0  0  0  0  0  0  0
  129.2367  123.5907   70.9245 H   0  0  0  0  0  0  0  0  0  0  0  0
  130.6297  124.7248   70.9245 H   0  0  0  0  0  0  0  0  0  0  0  0
  130.9304  126.2555   75.2883 H   0  0  0  0  0  0  0  0  0  0  0  0
  130.6605  125.3510   73.7599 H   0  0  0  0  0  0  0  0  0  0  0  0
  131.6785  126.8310   73.7599 H   0  0  0  0  0  0  0  0  0  0  0  0
  1  2  1  0
  2  3  1  0
  3  4  2  0
  4  5  1  0
  5  6  1  0
  6  7  1  0
  7  8  1  0
  8  9  2  0
  8 10  1  0
 10 11  1  0
 11 12  1  0
 12 13  2  0
 13 14  1  0
 14 15  1  0
 14 16  2  0
 16 17  1  0
 17 18  1  0
 17 19  2  0
 19 20  1  0
 20 21  3  0
  5 22  2  0
 22 23  1  0
 23 24  1  0
 24 25  1  0
 23 26  2  0
 26 27  1  0
 27 28  1  0
 26  3  1  0
 19 12  1  0
  1 29  1  0
  1 30  1  0
  1 31  1  0
  4 32  1  0
  6 33  1  0
  6 34  1  0
  7 35  1  0
 10 36  1  0
 10 37  1  0
 15 38  1  0
 15 39  1  0
 15 40  1  0
 16 41  1  0
 18 42  1  0
 18 43  1  0
 18 44  1  0
 22 45  1  0
 25 46  1  0
 25 47  1  0
 25 48  1  0
 28 49  1  0
 28 50  1  0
 28 51  1  0
M  END
>  <Binding energies>  (1) 
[-7.3]

>  <Ligand effiencies>  (1) 
[-0.2517241379310345]

>  <Interactions>  (1) 
["H-A:TYR:484:OH:4343, V-A:ARG:545:CZ:4921, H-A:GLY:454:N:4045, V-A:ASP:366:CG:3208, V-A:GLU:543:CD:4903, V-A:GLU:543:CG:4902, V-A:GLU:543:CB:4901, V-A:HIS:456:CE1:4064, V-A:GLY:544:CA:4909, V-B:HIS:456:CE1:9037, H-A:GLU:543:OE1:4904, V-A:GLU:543:C:4897, V-B:ALA:541:CB:9860, V-A:ILE:369:CD1:3234, H-B:LYS:547:NZ:9919, V-B:HIS:456:CD2:9035, H-A:LYS:547:NZ:4946, H-A:ARG:545:NE:4919, V-A:LYS:547:CE:4945, H-A:ARG:545:NH1:4922"]

$$$$
1i_Grossjean_2025
     RDKit          3D

 32 33  0  0  0  0  0  0  0  0999 V2000
  130.7510  126.5940   59.5910 C   0  0  0  0  0  0  0  0  0  0  0  0
  131.3050  125.1840   59.5220 C   0  0  0  0  0  0  0  0  0  0  0  0
  132.4330  124.8790   58.7640 C   0  0  0  0  0  0  0  0  0  0  0  0
  132.9050  123.5620   58.7460 C   0  0  0  0  0  0  0  0  0  0  0  0
  134.1540  123.2560   57.9200 C   0  0  0  0  0  0  0  0  0  0  0  0
  132.2220  122.5730   59.4910 C   0  0  0  0  0  0  0  0  0  0  0  0
  132.7290  121.1990   59.5260 C   0  0  0  0  0  0  0  0  0  0  0  0
  133.1310  120.1140   59.5540 N   0  0  0  0  0  0  0  0  0  0  0  0
  131.0710  122.9680   60.2120 C   0  0  0  0  0  0  0  0  0  0  0  0
  130.0930  121.8570   61.1990 S   0  0  0  0  0  0  0  0  0  0  0  0
  129.4520  122.7990   62.6160 C   0  0  0  0  0  0  0  0  0  0  0  0
  130.5510  123.1400   63.6250 C   0  0  0  0  0  0  0  0  0  0  0  0
  130.5250  122.6240   64.7430 O   0  0  0  0  0  0  0  0  0  0  0  0
  131.4930  124.0060   63.1900 N   0  0  0  0  0  0  0  0  0  0  0  0
  132.5870  124.4830   63.8980 C   0  0  0  0  0  0  0  0  0  0  0  0
  132.4690  125.2310   65.0680 C   0  0  0  0  0  0  0  0  0  0  0  0
  133.7620  125.5040   65.4500 C   0  0  0  0  0  0  0  0  0  0  0  0
  134.6150  124.9510   64.5550 O   0  0  0  0  0  0  0  0  0  0  0  0
  133.8580  124.3070   63.5750 N   0  0  0  0  0  0  0  0  0  0  0  0
  130.6330  124.2520   60.2390 N   0  0  0  0  0  0  0  0  0  0  0  0
  130.6343  126.8910   60.6437 H   0  0  0  0  0  0  0  0  0  0  0  0
  131.4444  127.2853   59.0897 H   0  0  0  0  0  0  0  0  0  0  0  0
  129.7725  126.6284   59.0897 H   0  0  0  0  0  0  0  0  0  0  0  0
  132.9458  125.6629   58.1873 H   0  0  0  0  0  0  0  0  0  0  0  0
  134.9980  123.0492   58.5944 H   0  0  0  0  0  0  0  0  0  0  0  0
  133.9677  122.3769   57.2855 H   0  0  0  0  0  0  0  0  0  0  0  0
  134.3952  124.1216   57.2855 H   0  0  0  0  0  0  0  0  0  0  0  0
  129.0061  123.7346   62.2475 H   0  0  0  0  0  0  0  0  0  0  0  0
  128.7043  122.1749   63.1274 H   0  0  0  0  0  0  0  0  0  0  0  0
  131.3820  124.3810   62.2590 H   0  0  0  0  0  0  0  0  0  0  0  0
  131.5425  125.5369   65.5760 H   0  0  0  0  0  0  0  0  0  0  0  0
  134.0562  126.0795   66.3401 H   0  0  0  0  0  0  0  0  0  0  0  0
  1  2  1  0
  2  3  2  0
  3  4  1  0
  4  5  1  0
  4  6  2  0
  6  7  1  0
  7  8  3  0
  6  9  1  0
  9 10  1  0
 10 11  1  0
 11 12  1  0
 12 13  2  0
 12 14  1  0
 14 15  1  0
 15 16  1  0
 16 17  2  0
 17 18  1  0
 18 19  1  0
  9 20  2  0
 20  2  1  0
 19 15  2  0
  1 21  1  0
  1 22  1  0
  1 23  1  0
  3 24  1  0
  5 25  1  0
  5 26  1  0
  5 27  1  0
 11 28  1  0
 11 29  1  0
 14 30  1  0
 16 31  1  0
 17 32  1  0
M  END
>  <Binding energies>  (1) 
[-6.2]

>  <Ligand effiencies>  (1) 
[-0.29523809523809524]

>  <Interactions>  (1) 
["V-A:ARG:545:CD:4918, H-A:TYR:484:OH:4343, V-A:ARG:545:CZ:4921, V-A:ARG:545:CG:4917, H-A:GLY:454:N:4045, V-A:ASP:366:CG:3208, V-B:GLU:543:CD:9876, V-B:TYR:539:CD2:9842, V-B:TYR:539:CE2:9844, V-B:ALA:541:CB:9860, V-A:ASP:366:CB:3207, V-A:ILE:369:CD1:3234, H-A:ARG:545:NE:4919, V-A:ILE:369:CG2:3232, H-A:ARG:545:NH1:4922, V-A:ILE:369:CB:3231, V-A:ASP:366:C:3203, V-A:ASP:366:CA:3205, V-A:ILE:369:CG1:3233"]

$$$$
1j_Grossjean_2025
     RDKit          3D

 32 33  0  0  0  0  0  0  0  0999 V2000
  127.6850  123.1970   61.0390 C   0  0  0  0  0  0  0  0  0  0  0  0
  128.9780  122.4130   60.9040 C   0  0  0  0  0  0  0  0  0  0  0  0
  129.0050  121.0260   61.0260 C   0  0  0  0  0  0  0  0  0  0  0  0
  130.2230  120.3550   60.8780 C   0  0  0  0  0  0  0  0  0  0  0  0
  130.2260  118.8320   61.0000 C   0  0  0  0  0  0  0  0  0  0  0  0
  131.3950  121.1000   60.6170 C   0  0  0  0  0  0  0  0  0  0  0  0
  132.6730  120.4140   60.4070 C   0  0  0  0  0  0  0  0  0  0  0  0
  133.6800  119.8690   60.2400 N   0  0  0  0  0  0  0  0  0  0  0  0
  131.2780  122.5080   60.5350 C   0  0  0  0  0  0  0  0  0  0  0  0
  132.6470  123.6000   60.2160 S   0  0  0  0  0  0  0  0  0  0  0  0
  133.8670  123.3580   61.5420 C   0  0  0  0  0  0  0  0  0  0  0  0
  133.3750  123.9080   62.8820 C   0  0  0  0  0  0  0  0  0  0  0  0
  134.1880  124.3870   63.6740 O   0  0  0  0  0  0  0  0  0  0  0  0
  132.0430  123.8240   63.0930 N   0  0  0  0  0  0  0  0  0  0  0  0
  131.3550  124.2420   64.2230 C   0  0  0  0  0  0  0  0  0  0  0  0
  130.4940  123.5560   64.9440 N   0  0  0  0  0  0  0  0  0  0  0  0
  130.0320  124.2690   65.9520 C   0  0  0  0  0  0  0  0  0  0  0  0
  130.5220  125.5670   66.0660 C   0  0  0  0  0  0  0  0  0  0  0  0
  131.6510  125.8590   64.7760 S   0  0  0  0  0  0  0  0  0  0  0  0
  130.0880  123.1480   60.6580 N   0  0  0  0  0  0  0  0  0  0  0  0
  127.4516  123.3385   62.1046 H   0  0  0  0  0  0  0  0  0  0  0  0
  127.7989  124.1783   60.5551 H   0  0  0  0  0  0  0  0  0  0  0  0
  126.8676  122.6423   60.5551 H   0  0  0  0  0  0  0  0  0  0  0  0
  128.0816  120.4663   61.2358 H   0  0  0  0  0  0  0  0  0  0  0  0
  130.2266  118.5493   62.0631 H   0  0  0  0  0  0  0  0  0  0  0  0
  129.3287  118.4233   60.5124 H   0  0  0  0  0  0  0  0  0  0  0  0
  131.1249  118.4269   60.5124 H   0  0  0  0  0  0  0  0  0  0  0  0
  134.0639  122.2813   61.6510 H   0  0  0  0  0  0  0  0  0  0  0  0
  134.7811  123.9042   61.2660 H   0  0  0  0  0  0  0  0  0  0  0  0
  131.4830  123.3860   62.3760 H   0  0  0  0  0  0  0  0  0  0  0  0
  129.2995  123.8607   66.6639 H   0  0  0  0  0  0  0  0  0  0  0  0
  130.2407  126.2904   66.8455 H   0  0  0  0  0  0  0  0  0  0  0  0
  1  2  1  0
  2  3  2  0
  3  4  1  0
  4  5  1  0
  4  6  2  0
  6  7  1  0
  7  8  3  0
  6  9  1  0
  9 10  1  0
 10 11  1  0
 11 12  1  0
 12 13  2  0
 12 14  1  0
 14 15  1  0
 15 16  2  0
 16 17  1  0
 17 18  2  0
 18 19  1  0
  9 20  2  0
 20  2  1  0
 19 15  1  0
  1 21  1  0
  1 22  1  0
  1 23  1  0
  3 24  1  0
  5 25  1  0
  5 26  1  0
  5 27  1  0
 11 28  1  0
 11 29  1  0
 14 30  1  0
 17 31  1  0
 18 32  1  0
M  END
>  <Binding energies>  (1) 
[-5.88]

>  <Ligand effiencies>  (1) 
[-0.27999999999999997]

>  <Interactions>  (1) 
["H-A:TYR:484:OH:4343, H-A:GLY:454:N:4045, V-A:ASP:366:CG:3208, V-B:GLU:543:CG:9875, V-B:GLU:543:CD:9876, V-B:GLU:543:CB:9874, V-A:PRO:482:CB:4321, V-A:LEU:475:CD2:4254, V-B:TYR:539:CD2:9842, V-A:TRP:381:CZ2:3365, V-A:TYR:484:CE1:4340, V-A:TYR:484:CZ:4342, V-A:TRP:381:CH2:3367, V-B:ALA:541:CB:9860, V-A:ILE:369:CD1:3234, V-B:PRO:540:CA:9851, V-A:ILE:369:CG2:3232, V-B:PRO:540:C:9849, V-B:ALA:541:CA:9858, V-B:TYR:539:C:9835"]

$$$$
1k_Grossjean_2025
     RDKit          3D

 50 50  0  0  0  0  0  0  0  0999 V2000
  123.8900  130.8190   63.2190 C   0  0  0  0  0  0  0  0  0  0  0  0
  123.3440  130.4350   64.4710 O   0  0  0  0  0  0  0  0  0  0  0  0
  124.3200  130.2860   65.4930 C   0  0  0  0  0  0  0  0  0  0  0  0
  125.0420  128.9420   65.3200 C   0  0  0  0  0  0  0  0  0  0  0  0
  125.2580  128.3540   66.5960 O   0  0  0  0  0  0  0  0  0  0  0  0
  126.4090  127.5220   66.6540 C   0  0  0  0  0  0  0  0  0  0  0  0
  127.3380  127.8550   65.4800 C   0  0  0  0  0  0  0  0  0  0  0  0
  128.6900  127.6520   65.8720 O   0  0  0  0  0  0  0  0  0  0  0  0
  128.8300  126.8990   67.0690 C   0  0  0  0  0  0  0  0  0  0  0  0
  129.9670  125.8730   66.9030 C   0  0  0  0  0  0  0  0  0  0  0  0
  130.6240  125.9180   65.5960 N   0  0  0  0  0  0  0  0  0  0  0  0
  131.8930  125.5480   65.3530 C   0  0  0  0  0  0  0  0  0  0  0  0
  132.6470  125.1170   66.2280 O   0  0  0  0  0  0  0  0  0  0  0  0
  132.3610  125.7000   63.8970 C   0  0  0  0  0  0  0  0  0  0  0  0
  133.5870  124.4710   63.3280 S   0  0  0  0  0  0  0  0  0  0  0  0
  132.9040  123.5530   61.9550 C   0  0  0  0  0  0  0  0  0  0  0  0
  133.5360  123.7110   60.7630 N   0  0  0  0  0  0  0  0  0  0  0  0
  133.0640  123.0530   59.6800 C   0  0  0  0  0  0  0  0  0  0  0  0
  133.8170  123.2880   58.3860 C   0  0  0  0  0  0  0  0  0  0  0  0
  131.9570  122.2080   59.7380 C   0  0  0  0  0  0  0  0  0  0  0  0
  131.3020  122.0300   60.9610 C   0  0  0  0  0  0  0  0  0  0  0  0
  130.0910  121.1010   61.0020 C   0  0  0  0  0  0  0  0  0  0  0  0
  131.7760  122.7130   62.1030 C   0  0  0  0  0  0  0  0  0  0  0  0
  131.1070  122.5490   63.3970 C   0  0  0  0  0  0  0  0  0  0  0  0
  130.5770  122.4180   64.4180 N   0  0  0  0  0  0  0  0  0  0  0  0
  124.7797  131.4447   63.3834 H   0  0  0  0  0  0  0  0  0  0  0  0
  124.1735  129.9204   62.6515 H   0  0  0  0  0  0  0  0  0  0  0  0
  123.1401  131.3897   62.6515 H   0  0  0  0  0  0  0  0  0  0  0  0
  125.0502  131.1058   65.4248 H   0  0  0  0  0  0  0  0  0  0  0  0
  123.8279  130.3137   66.4764 H   0  0  0  0  0  0  0  0  0  0  0  0
  124.4243  128.2700   64.7061 H   0  0  0  0  0  0  0  0  0  0  0  0
  126.0094  129.1061   64.8227 H   0  0  0  0  0  0  0  0  0  0  0  0
  126.9393  127.6948   67.6021 H   0  0  0  0  0  0  0  0  0  0  0  0
  126.1033  126.4671   66.5928 H   0  0  0  0  0  0  0  0  0  0  0  0
  127.1012  127.2006   64.6281 H   0  0  0  0  0  0  0  0  0  0  0  0
  127.1954  128.9055   65.1866 H   0  0  0  0  0  0  0  0  0  0  0  0
  129.0670  127.5767   67.9024 H   0  0  0  0  0  0  0  0  0  0  0  0
  127.8887  126.3707   67.2809 H   0  0  0  0  0  0  0  0  0  0  0  0
  130.7238  126.0672   67.6773 H   0  0  0  0  0  0  0  0  0  0  0  0
  129.5117  124.8760   66.9959 H   0  0  0  0  0  0  0  0  0  0  0  0
  130.0660  126.2640   64.8290 H   0  0  0  0  0  0  0  0  0  0  0  0
  131.4767  125.6212   63.2476 H   0  0  0  0  0  0  0  0  0  0  0  0
  132.8668  126.6754   63.8444 H   0  0  0  0  0  0  0  0  0  0  0  0
  134.8445  123.6087   58.6127 H   0  0  0  0  0  0  0  0  0  0  0  0
  133.8441  122.3556   57.8030 H   0  0  0  0  0  0  0  0  0  0  0  0
  133.3090  124.0703   57.8030 H   0  0  0  0  0  0  0  0  0  0  0  0
  131.6036  121.6886   58.8350 H   0  0  0  0  0  0  0  0  0  0  0  0
  129.8223  120.8949   62.0486 H   0  0  0  0  0  0  0  0  0  0  0  0
  129.2425  121.5820   60.4935 H   0  0  0  0  0  0  0  0  0  0  0  0
  130.3358  120.1568   60.4935 H   0  0  0  0  0  0  0  0  0  0  0  0
  1  2  1  0
  2  3  1  0
  3  4  1  0
  4  5  1  0
  5  6  1  0
  6  7  1  0
  7  8  1  0
  8  9  1  0
  9 10  1  0
 10 11  1  0
 11 12  1  0
 12 13  2  0
 12 14  1  0
 14 15  1  0
 15 16  1  0
 16 17  2  0
 17 18  1  0
 18 19  1  0
 18 20  2  0
 20 21  1  0
 21 22  1  0
 21 23  2  0
 23 24  1  0
 24 25  3  0
 23 16  1  0
  1 26  1  0
  1 27  1  0
  1 28  1  0
  3 29  1  0
  3 30  1  0
  4 31  1  0
  4 32  1  0
  6 33  1  0
  6 34  1  0
  7 35  1  0
  7 36  1  0
  9 37  1  0
  9 38  1  0
 10 39  1  0
 10 40  1  0
 11 41  1  0
 14 42  1  0
 14 43  1  0
 19 44  1  0
 19 45  1  0
 19 46  1  0
 20 47  1  0
 22 48  1  0
 22 49  1  0
 22 50  1  0
M  END
>  <Binding energies>  (1) 
[-5.75]

>  <Ligand effiencies>  (1) 
[-0.22115384615384615]

>  <Interactions>  (1) 
["H-A:TYR:484:OH:4343, V-A:ARG:545:CZ:4921, H-A:GLY:454:N:4045, V-B:GLU:543:CG:9875, V-A:HIS:456:CE1:4064, V-B:HIS:456:CE1:9037, H-A:GLU:543:OE1:4904, V-B:GLU:543:CD:9876, V-B:GLU:543:CB:9874, H-B:GLU:543:OE2:9878, V-B:TYR:539:CE2:9844, V-B:ALA:541:CB:9860, V-B:ARG:545:CZ:9894, V-B:ARG:545:CD:9891, V-A:ASP:366:CB:3207, V-B:ARG:545:CG:9890, H-B:GLY:454:N:9017, V-A:ILE:369:CD1:3234, H-A:HIS:456:NE2:4065, H-B:ARG:545:NE:9892, H-B:ARG:545:NH1:9895, V-A:ILE:369:CG2:3232, V-A:ILE:369:CB:3231, V-A:ASP:366:CA:3205"]

$$$$
1l_Grossjean_2025
     RDKit          3D

 30 30  0  0  0  0  0  0  0  0999 V2000
  133.5430  125.2750   65.1740 C   0  0  0  0  0  0  0  0  0  0  0  0
  134.3950  124.7670   64.1570 O   0  0  0  0  0  0  0  0  0  0  0  0
  133.8550  125.0450   62.9020 N   0  0  0  0  0  0  0  0  0  0  0  0
  133.4170  124.0270   62.1390 C   0  0  0  0  0  0  0  0  0  0  0  0
  133.2500  122.8790   62.5600 O   0  0  0  0  0  0  0  0  0  0  0  0
  133.1140  124.3900   60.6780 C   0  0  0  0  0  0  0  0  0  0  0  0
  132.8930  122.9650   59.5580 S   0  0  0  0  0  0  0  0  0  0  0  0
  131.4970  122.0150   60.1370 C   0  0  0  0  0  0  0  0  0  0  0  0
  130.3010  122.6580   60.1280 N   0  0  0  0  0  0  0  0  0  0  0  0
  129.2000  121.9960   60.5560 C   0  0  0  0  0  0  0  0  0  0  0  0
  127.9020  122.7800   60.5150 C   0  0  0  0  0  0  0  0  0  0  0  0
  129.2430  120.6780   61.0050 C   0  0  0  0  0  0  0  0  0  0  0  0
  130.4680  120.0050   61.0180 C   0  0  0  0  0  0  0  0  0  0  0  0
  130.4920  118.5600   61.5130 C   0  0  0  0  0  0  0  0  0  0  0  0
  131.6300  120.6780   60.5770 C   0  0  0  0  0  0  0  0  0  0  0  0
  132.9280  119.9960   60.5790 C   0  0  0  0  0  0  0  0  0  0  0  0
  133.9520  119.4570   60.5820 N   0  0  0  0  0  0  0  0  0  0  0  0
  133.9608  125.0259   66.1606 H   0  0  0  0  0  0  0  0  0  0  0  0
  133.4642  126.3676   65.0744 H   0  0  0  0  0  0  0  0  0  0  0  0
  132.5443  124.8248   65.0744 H   0  0  0  0  0  0  0  0  0  0  0  0
  134.1880  125.9240   62.5300 H   0  0  0  0  0  0  0  0  0  0  0  0
  132.1892  124.9853   60.6592 H   0  0  0  0  0  0  0  0  0  0  0  0
  133.9938  124.9374   60.3087 H   0  0  0  0  0  0  0  0  0  0  0  0
  127.5643  122.9840   61.5418 H   0  0  0  0  0  0  0  0  0  0  0  0
  128.0646  123.7310   59.9867 H   0  0  0  0  0  0  0  0  0  0  0  0
  127.1359  122.1935   59.9867 H   0  0  0  0  0  0  0  0  0  0  0  0
  128.3260  120.1741   61.3445 H   0  0  0  0  0  0  0  0  0  0  0  0
  130.4922  118.5492   62.6129 H   0  0  0  0  0  0  0  0  0  0  0  0
  129.6025  118.0302   61.1412 H   0  0  0  0  0  0  0  0  0  0  0  0
  131.3986  118.0601   61.1412 H   0  0  0  0  0  0  0  0  0  0  0  0
  1  2  1  0
  2  3  1  0
  3  4  1  0
  4  5  2  0
  4  6  1  0
  6  7  1  0
  7  8  1  0
  8  9  2  0
  9 10  1  0
 10 11  1  0
 10 12  2  0
 12 13  1  0
 13 14  1  0
 13 15  2  0
 15 16  1  0
 16 17  3  0
 15  8  1  0
  1 18  1  0
  1 19  1  0
  1 20  1  0
  3 21  1  0
  6 22  1  0
  6 23  1  0
 11 24  1  0
 11 25  1  0
 11 26  1  0
 12 27  1  0
 14 28  1  0
 14 29  1  0
 14 30  1  0
M  END
>  <Binding energies>  (1) 
[-5.82]

>  <Ligand effiencies>  (1) 
[-0.32333333333333336]

>  <Interactions>  (1) 
["H-A:ASP:366:OD2:3210, V-A:ARG:545:CD:4918, H-A:TYR:484:OH:4343, V-A:ARG:545:CZ:4921, H-A:GLY:454:N:4045, H-A:ASP:366:OD1:3209, V-A:ASP:366:CG:3208, V-A:PRO:482:CB:4321, V-A:LEU:475:CD2:4254, V-B:TYR:539:CD2:9842, V-A:TRP:381:CZ2:3365, V-A:TRP:381:CH2:3367, V-A:LEU:475:CD1:4253, V-B:TYR:539:CE2:9844, V-B:ALA:541:CB:9860, V-A:ASP:366:CB:3207, V-A:ILE:369:CD1:3234, V-B:PRO:540:CA:9851, V-A:ILE:369:CG2:3232, V-B:PRO:540:C:9849, V-B:ALA:541:CA:9858, V-B:TYR:539:C:9835, H-A:ARG:545:NH1:4922, V-A:TRP:381:CE2:3362, V-A:LEU:475:CG:4252"]

$$$$
1m_Grossjean_2025
     RDKit          3D

 35 35  0  0  0  0  0  0  0  0999 V2000
  129.7440  122.4570   64.1630 C   0  0  0  0  0  0  0  0  0  0  0  0
  130.8430  123.1430   64.7470 O   0  0  0  0  0  0  0  0  0  0  0  0
  130.7480  124.4530   65.0550 C   0  0  0  0  0  0  0  0  0  0  0  0
  130.2170  124.9150   66.0690 O   0  0  0  0  0  0  0  0  0  0  0  0
  131.4040  125.3370   63.9740 C   0  0  0  0  0  0  0  0  0  0  0  0
  132.1580  124.5580   62.9810 N   0  0  0  0  0  0  0  0  0  0  0  0
  133.4800  124.3050   63.0190 C   0  0  0  0  0  0  0  0  0  0  0  0
  134.2190  124.7270   63.9110 O   0  0  0  0  0  0  0  0  0  0  0  0
  134.0240  123.4530   61.8650 C   0  0  0  0  0  0  0  0  0  0  0  0
  133.0130  123.4930   60.3460 S   0  0  0  0  0  0  0  0  0  0  0  0
  131.5940  122.4480   60.6010 C   0  0  0  0  0  0  0  0  0  0  0  0
  130.4310  123.1360   60.7350 N   0  0  0  0  0  0  0  0  0  0  0  0
  129.2840  122.4450   60.9270 C   0  0  0  0  0  0  0  0  0  0  0  0
  128.0240  123.2800   61.0480 C   0  0  0  0  0  0  0  0  0  0  0  0
  129.2480  121.0540   61.0070 C   0  0  0  0  0  0  0  0  0  0  0  0
  130.4440  120.3360   60.8970 C   0  0  0  0  0  0  0  0  0  0  0  0
  130.3830  118.8140   61.0030 C   0  0  0  0  0  0  0  0  0  0  0  0
  131.6560  121.0370   60.6960 C   0  0  0  0  0  0  0  0  0  0  0  0
  132.9250  120.3090   60.6280 C   0  0  0  0  0  0  0  0  0  0  0  0
  133.9270  119.7330   60.5740 N   0  0  0  0  0  0  0  0  0  0  0  0
  129.0989  122.0543   64.9578 H   0  0  0  0  0  0  0  0  0  0  0  0
  129.1656  123.1547   63.5396 H   0  0  0  0  0  0  0  0  0  0  0  0
  130.1168  121.6309   63.5396 H   0  0  0  0  0  0  0  0  0  0  0  0
  130.6149  125.8996   63.4537 H   0  0  0  0  0  0  0  0  0  0  0  0
  132.1159  126.0055   64.4802 H   0  0  0  0  0  0  0  0  0  0  0  0
  131.6240  124.1990   62.2020 H   0  0  0  0  0  0  0  0  0  0  0  0
  135.0317  123.8169   61.6157 H   0  0  0  0  0  0  0  0  0  0  0  0
  134.0153  122.4109   62.2169 H   0  0  0  0  0  0  0  0  0  0  0  0
  127.7883  123.4362   62.1110 H   0  0  0  0  0  0  0  0  0  0  0  0
  128.1810  124.2534   60.5604 H   0  0  0  0  0  0  0  0  0  0  0  0
  127.1887  122.7561   60.5604 H   0  0  0  0  0  0  0  0  0  0  0  0
  128.2931  120.5282   61.1545 H   0  0  0  0  0  0  0  0  0  0  0  0
  130.3712  118.5205   62.0630 H   0  0  0  0  0  0  0  0  0  0  0  0
  129.4695  118.4485   60.5112 H   0  0  0  0  0  0  0  0  0  0  0  0
  131.2643  118.3766   60.5112 H   0  0  0  0  0  0  0  0  0  0  0  0
  1  2  1  0
  2  3  1  0
  3  4  2  0
  3  5  1  0
  5  6  1  0
  6  7  1  0
  7  8  2  0
  7  9  1  0
  9 10  1  0
 10 11  1  0
 11 12  2  0
 12 13  1  0
 13 14  1  0
 13 15  2  0
 15 16  1  0
 16 17  1  0
 16 18  2  0
 18 19  1  0
 19 20  3  0
 18 11  1  0
  1 21  1  0
  1 22  1  0
  1 23  1  0
  5 24  1  0
  5 25  1  0
  6 26  1  0
  9 27  1  0
  9 28  1  0
 14 29  1  0
 14 30  1  0
 14 31  1  0
 15 32  1  0
 17 33  1  0
 17 34  1  0
 17 35  1  0
M  END
>  <Binding energies>  (1) 
[-5.47]

>  <Ligand effiencies>  (1) 
[-0.2604761904761905]

>  <Interactions>  (1) 
["H-A:TYR:484:OH:4343, H-A:GLY:454:N:4045, V-A:ASP:366:CG:3208, V-B:GLU:543:CG:9875, V-B:GLU:543:CD:9876, V-A:PRO:482:CB:4321, V-A:LEU:475:CD2:4254, V-A:TRP:381:CZ2:3365, V-A:TYR:484:CE1:4340, V-A:TRP:381:CH2:3367, V-B:ALA:541:CB:9860, V-A:ILE:369:CD1:3234, V-A:ILE:369:CG2:3232, V-B:PRO:540:C:9849, V-B:ALA:541:CA:9858, H-A:ARG:545:NH1:4922"]

$$$$
1n_Grossjean_2025
     RDKit          3D

 48 49  0  0  0  0  0  0  0  0999 V2000
  130.4690  128.7030   71.3470 C   0  0  0  0  0  0  0  0  0  0  0  0
  129.2740  128.4530   72.2720 C   0  0  0  0  0  0  0  0  0  0  0  0
  128.5730  127.2940   71.8360 O   0  0  0  0  0  0  0  0  0  0  0  0
  127.6460  127.3670   70.8470 C   0  0  0  0  0  0  0  0  0  0  0  0
  126.4780  127.7190   71.0340 O   0  0  0  0  0  0  0  0  0  0  0  0
  128.1870  126.9880   69.4980 C   0  0  0  0  0  0  0  0  0  0  0  0
  129.3390  126.1980   69.3540 C   0  0  0  0  0  0  0  0  0  0  0  0
  129.8150  125.8680   68.0900 C   0  0  0  0  0  0  0  0  0  0  0  0
  129.1600  126.3220   66.9450 C   0  0  0  0  0  0  0  0  0  0  0  0
  129.7300  125.9330   65.7170 N   0  0  0  0  0  0  0  0  0  0  0  0
  130.9940  125.5490   65.4360 C   0  0  0  0  0  0  0  0  0  0  0  0
  131.9120  125.4610   66.2520 O   0  0  0  0  0  0  0  0  0  0  0  0
  131.2680  125.1970   63.9680 C   0  0  0  0  0  0  0  0  0  0  0  0
  132.7200  125.4960   63.5340 C   0  0  0  0  0  0  0  0  0  0  0  0
  133.7300  124.0190   63.2120 S   0  0  0  0  0  0  0  0  0  0  0  0
  132.9550  123.1120   61.8920 C   0  0  0  0  0  0  0  0  0  0  0  0
  133.5280  123.3220   60.6800 N   0  0  0  0  0  0  0  0  0  0  0  0
  133.0300  122.6700   59.6040 C   0  0  0  0  0  0  0  0  0  0  0  0
  133.7270  122.9440   58.2850 C   0  0  0  0  0  0  0  0  0  0  0  0
  131.9480  121.7960   59.6880 C   0  0  0  0  0  0  0  0  0  0  0  0
  131.3360  121.5890   60.9300 C   0  0  0  0  0  0  0  0  0  0  0  0
  130.1440  120.6380   60.9950 C   0  0  0  0  0  0  0  0  0  0  0  0
  131.8360  122.2640   62.0670 C   0  0  0  0  0  0  0  0  0  0  0  0
  131.1810  122.1020   63.3660 C   0  0  0  0  0  0  0  0  0  0  0  0
  130.6600  121.9740   64.3910 N   0  0  0  0  0  0  0  0  0  0  0  0
  128.0020  127.1030   67.0800 C   0  0  0  0  0  0  0  0  0  0  0  0
  127.5250  127.4300   68.3460 C   0  0  0  0  0  0  0  0  0  0  0  0
  131.3681  128.8911   71.9522 H   0  0  0  0  0  0  0  0  0  0  0  0
  130.6325  127.8196   70.7123 H   0  0  0  0  0  0  0  0  0  0  0  0
  130.2646  129.5778   70.7123 H   0  0  0  0  0  0  0  0  0  0  0  0
  129.6320  128.3000   73.3008 H   0  0  0  0  0  0  0  0  0  0  0  0
  128.6001  129.3220   72.2446 H   0  0  0  0  0  0  0  0  0  0  0  0
  129.8689  125.8375   70.2480 H   0  0  0  0  0  0  0  0  0  0  0  0
  130.7154  125.2438   67.9920 H   0  0  0  0  0  0  0  0  0  0  0  0
  129.0760  125.9060   64.9490 H   0  0  0  0  0  0  0  0  0  0  0  0
  131.0732  124.1241   63.8230 H   0  0  0  0  0  0  0  0  0  0  0  0
  130.6059  125.8229   63.3516 H   0  0  0  0  0  0  0  0  0  0  0  0
  132.6865  126.0968   62.6132 H   0  0  0  0  0  0  0  0  0  0  0  0
  133.1955  126.0230   64.3744 H   0  0  0  0  0  0  0  0  0  0  0  0
  134.7348  123.3402   58.4782 H   0  0  0  0  0  0  0  0  0  0  0  0
  133.8044  122.0094   57.7101 H   0  0  0  0  0  0  0  0  0  0  0  0
  133.1472  123.6811   57.7101 H   0  0  0  0  0  0  0  0  0  0  0  0
  131.5800  121.2761   58.7912 H   0  0  0  0  0  0  0  0  0  0  0  0
  129.8922  120.4371   62.0468 H   0  0  0  0  0  0  0  0  0  0  0  0
  129.2802  121.0978   60.4925 H   0  0  0  0  0  0  0  0  0  0  0  0
  130.4005  119.6937   60.4925 H   0  0  0  0  0  0  0  0  0  0  0  0
  127.4707  127.4572   66.1843 H   0  0  0  0  0  0  0  0  0  0  0  0
  126.6169  128.0431   68.4428 H   0  0  0  0  0  0  0  0  0  0  0  0
  1  2  1  0
  2  3  1  0
  3  4  1  0
  4  5  2  0
  4  6  1  0
  6  7  2  0
  7  8  1  0
  8  9  2  0
  9 10  1  0
 10 11  1  0
 11 12  2  0
 11 13  1  0
 13 14  1  0
 14 15  1  0
 15 16  1  0
 16 17  2  0
 17 18  1  0
 18 19  1  0
 18 20  2  0
 20 21  1  0
 21 22  1  0
 21 23  2  0
 23 24  1  0
 24 25  3  0
  9 26  1  0
 26 27  2  0
 27  6  1  0
 23 16  1  0
  1 28  1  0
  1 29  1  0
  1 30  1  0
  2 31  1  0
  2 32  1  0
  7 33  1  0
  8 34  1  0
 10 35  1  0
 13 36  1  0
 13 37  1  0
 14 38  1  0
 14 39  1  0
 19 40  1  0
 19 41  1  0
 19 42  1  0
 20 43  1  0
 22 44  1  0
 22 45  1  0
 22 46  1  0
 26 47  1  0
 27 48  1  0
M  END
>  <Binding energies>  (1) 
[-7.69]

>  <Ligand effiencies>  (1) 
[-0.27464285714285713]

>  <Interactions>  (1) 
["H-A:TYR:484:OH:4343, V-A:ARG:545:CZ:4921, H-A:GLY:454:N:4045, V-A:GLY:544:C:4907, V-B:GLU:543:CG:9875, V-A:HIS:456:CE1:4064, V-B:HIS:456:CE1:9037, V-B:GLU:543:CD:9876, V-B:GLU:543:CB:9874, H-B:GLU:543:OE2:9878, V-A:LEU:475:CD2:4254, V-B:TYR:539:CD2:9842, V-B:TYR:539:CE2:9844, V-B:ALA:541:CB:9860, V-A:ILE:369:CD1:3234, V-B:GLU:543:C:9870, H-B:LYS:547:NZ:9919, V-B:HIS:456:CD2:9035, H-A:HIS:456:NE2:4065, V-A:ILE:369:CG2:3232, V-B:GLY:544:C:9880, H-B:HIS:456:ND1:9034, H-B:ARG:545:N:9888, V-A:ILE:369:CB:3231"]

$$$$
1o_Grossjean_2025
     RDKit          3D

 45 46  0  0  0  0  0  0  0  0999 V2000
  129.7530  130.4550   73.3530 C   0  0  0  0  0  0  0  0  0  0  0  0
  129.3860  129.0830   73.3140 O   0  0  0  0  0  0  0  0  0  0  0  0
  128.4730  128.6280   72.4180 C   0  0  0  0  0  0  0  0  0  0  0  0
  127.2670  128.5340   72.6640 O   0  0  0  0  0  0  0  0  0  0  0  0
  129.0760  128.2530   71.0940 C   0  0  0  0  0  0  0  0  0  0  0  0
  130.2310  128.8780   70.6010 C   0  0  0  0  0  0  0  0  0  0  0  0
  130.7660  128.5050   69.3700 C   0  0  0  0  0  0  0  0  0  0  0  0
  130.1570  127.5070   68.6070 C   0  0  0  0  0  0  0  0  0  0  0  0
  130.7860  127.2030   67.3840 N   0  0  0  0  0  0  0  0  0  0  0  0
  130.9730  126.0080   66.7810 C   0  0  0  0  0  0  0  0  0  0  0  0
  130.5610  124.9280   67.2030 O   0  0  0  0  0  0  0  0  0  0  0  0
  131.7380  126.0530   65.4500 C   0  0  0  0  0  0  0  0  0  0  0  0
  131.6420  124.7400   64.6460 C   0  0  0  0  0  0  0  0  0  0  0  0
  133.1600  124.3180   63.7400 S   0  0  0  0  0  0  0  0  0  0  0  0
  132.7240  123.2660   62.3690 C   0  0  0  0  0  0  0  0  0  0  0  0
  133.3580  123.5920   61.2150 N   0  0  0  0  0  0  0  0  0  0  0  0
  133.1120  122.8560   60.1060 C   0  0  0  0  0  0  0  0  0  0  0  0
  133.8690  123.2710   58.8580 C   0  0  0  0  0  0  0  0  0  0  0  0
  132.2230  121.7840   60.0980 C   0  0  0  0  0  0  0  0  0  0  0  0
  131.5440  121.4550   61.2750 C   0  0  0  0  0  0  0  0  0  0  0  0
  130.5640  120.2840   61.2370 C   0  0  0  0  0  0  0  0  0  0  0  0
  131.7820  122.2120   62.4450 C   0  0  0  0  0  0  0  0  0  0  0  0
  131.0360  121.9200   63.6720 C   0  0  0  0  0  0  0  0  0  0  0  0
  130.4470  121.6860   64.6400 N   0  0  0  0  0  0  0  0  0  0  0  0
  129.0050  126.8740   69.0970 C   0  0  0  0  0  0  0  0  0  0  0  0
  128.4720  127.2480   70.3280 C   0  0  0  0  0  0  0  0  0  0  0  0
  129.8404  130.7816   74.3998 H   0  0  0  0  0  0  0  0  0  0  0  0
  130.7190  130.5907   72.8447 H   0  0  0  0  0  0  0  0  0  0  0  0
  128.9838  131.0549   72.8447 H   0  0  0  0  0  0  0  0  0  0  0  0
  130.7179  129.6686   71.1908 H   0  0  0  0  0  0  0  0  0  0  0  0
  131.6745  129.0002   68.9966 H   0  0  0  0  0  0  0  0  0  0  0  0
  131.1250  128.0110   66.8820 H   0  0  0  0  0  0  0  0  0  0  0  0
  131.3254  126.8683   64.8376 H   0  0  0  0  0  0  0  0  0  0  0  0
  132.7998  126.2111   65.6899 H   0  0  0  0  0  0  0  0  0  0  0  0
  131.4173  123.9213   65.3455 H   0  0  0  0  0  0  0  0  0  0  0  0
  130.8513  124.8829   63.8948 H   0  0  0  0  0  0  0  0  0  0  0  0
  134.7998  123.7813   59.1464 H   0  0  0  0  0  0  0  0  0  0  0  0
  134.1097  122.3787   58.2614 H   0  0  0  0  0  0  0  0  0  0  0  0
  133.2462  123.9538   58.2614 H   0  0  0  0  0  0  0  0  0  0  0  0
  132.0573  121.2040   59.1781 H   0  0  0  0  0  0  0  0  0  0  0  0
  130.3122  119.9831   62.2646 H   0  0  0  0  0  0  0  0  0  0  0  0
  129.6483  120.5892   60.7095 H   0  0  0  0  0  0  0  0  0  0  0  0
  131.0258  119.4364   60.7095 H   0  0  0  0  0  0  0  0  0  0  0  0
  128.5218  126.0807   68.5078 H   0  0  0  0  0  0  0  0  0  0  0  0
  127.5665  126.7485   70.7029 H   0  0  0  0  0  0  0  0  0  0  0  0
  1  2  1  0
  2  3  1  0
  3  4  2  0
  3  5  1  0
  5  6  2  0
  6  7  1  0
  7  8  2  0
  8  9  1  0
  9 10  1  0
 10 11  2  0
 10 12  1  0
 12 13  1  0
 13 14  1  0
 14 15  1  0
 15 16  2  0
 16 17  1  0
 17 18  1  0
 17 19  2  0
 19 20  1  0
 20 21  1  0
 20 22  2  0
 22 23  1  0
 23 24  3  0
  8 25  1  0
 25 26  2  0
 26  5  1  0
 22 15  1  0
  1 27  1  0
  1 28  1  0
  1 29  1  0
  6 30  1  0
  7 31  1  0
  9 32  1  0
 12 33  1  0
 12 34  1  0
 13 35  1  0
 13 36  1  0
 18 37  1  0
 18 38  1  0
 18 39  1  0
 19 40  1  0
 21 41  1  0
 21 42  1  0
 21 43  1  0
 25 44  1  0
 26 45  1  0
M  END
>  <Binding energies>  (1) 
[-7.64]

>  <Ligand effiencies>  (1) 
[-0.28296296296296297]

>  <Interactions>  (1) 
["H-A:TYR:484:OH:4343, H-A:GLY:454:N:4045, V-A:ASP:366:CG:3208, V-A:GLU:543:CD:4903, V-A:GLY:544:C:4907, V-A:GLU:543:CB:4901, V-A:HIS:456:CE1:4064, H-A:GLU:543:OE1:4904, V-A:GLU:543:C:4897, V-A:LEU:475:CD2:4254, V-A:TYR:484:CE1:4340, V-A:LEU:475:CD1:4253, V-B:TYR:539:CE2:9844, V-B:ALA:541:CB:9860, V-A:ASP:366:CB:3207, V-A:ILE:369:CD1:3234, H-B:LYS:547:NZ:9919, V-B:HIS:456:CD2:9035, H-A:LYS:547:NZ:4946, H-A:HIS:456:NE2:4065, V-A:LYS:547:CE:4945, V-A:ILE:369:CG2:3232, V-A:ILE:369:CB:3231, V-A:ASP:366:CA:3205, V-A:ILE:369:CG1:3233"]

$$$$
1p_Grossjean_2025
     RDKit          3D

 35 36  0  0  0  0  0  0  0  0999 V2000
  134.3120  124.9450   66.2010 C   0  0  0  0  0  0  0  0  0  0  0  0
  133.0390  125.4480   65.5480 C   0  0  0  0  0  0  0  0  0  0  0  0
  132.9370  125.5890   64.1650 C   0  0  0  0  0  0  0  0  0  0  0  0
  131.7430  126.0700   63.6170 C   0  0  0  0  0  0  0  0  0  0  0  0
  131.6580  126.2310   62.1010 C   0  0  0  0  0  0  0  0  0  0  0  0
  130.6690  126.3930   64.4770 C   0  0  0  0  0  0  0  0  0  0  0  0
  129.4260  126.9430   63.9330 C   0  0  0  0  0  0  0  0  0  0  0  0
  128.4440  127.3780   63.5010 N   0  0  0  0  0  0  0  0  0  0  0  0
  130.8540  126.1970   65.8670 C   0  0  0  0  0  0  0  0  0  0  0  0
  129.6050  126.5420   67.0840 S   0  0  0  0  0  0  0  0  0  0  0  0
  128.8840  128.1540   66.6560 C   0  0  0  0  0  0  0  0  0  0  0  0
  127.4960  128.3990   67.2790 C   0  0  0  0  0  0  0  0  0  0  0  0
  126.3540  128.3990   66.2520 C   0  0  0  0  0  0  0  0  0  0  0  0
  125.8830  127.3270   65.8670 O   0  0  0  0  0  0  0  0  0  0  0  0
  125.9320  129.6180   65.8470 N   0  0  0  0  0  0  0  0  0  0  0  0
  124.9230  129.8980   64.9350 C   0  0  0  0  0  0  0  0  0  0  0  0
  125.0400  129.6460   63.5680 C   0  0  0  0  0  0  0  0  0  0  0  0
  123.8450  130.0570   63.0240 C   0  0  0  0  0  0  0  0  0  0  0  0
  123.0500  130.5330   64.0110 O   0  0  0  0  0  0  0  0  0  0  0  0
  123.7450  130.4290   65.2180 N   0  0  0  0  0  0  0  0  0  0  0  0
  132.0230  125.7490   66.3900 N   0  0  0  0  0  0  0  0  0  0  0  0
  134.2045  124.9875   67.2949 H   0  0  0  0  0  0  0  0  0  0  0  0
  134.4974  123.9060   65.8909 H   0  0  0  0  0  0  0  0  0  0  0  0
  135.1575  125.5766   65.8909 H   0  0  0  0  0  0  0  0  0  0  0  0
  133.7834  125.3258   63.5136 H   0  0  0  0  0  0  0  0  0  0  0  0
  131.1568  127.1802   61.8606 H   0  0  0  0  0  0  0  0  0  0  0  0
  132.6722  126.2337   61.6751 H   0  0  0  0  0  0  0  0  0  0  0  0
  131.0837  125.3950   61.6751 H   0  0  0  0  0  0  0  0  0  0  0  0
  129.5657  128.9430   67.0064 H   0  0  0  0  0  0  0  0  0  0  0  0
  128.7520  128.1664   65.5640 H   0  0  0  0  0  0  0  0  0  0  0  0
  127.3008  127.6066   68.0165 H   0  0  0  0  0  0  0  0  0  0  0  0
  127.5191  129.3990   67.7367 H   0  0  0  0  0  0  0  0  0  0  0  0
  126.4010  130.4230   66.2370 H   0  0  0  0  0  0  0  0  0  0  0  0
  125.9016  129.2124   63.0392 H   0  0  0  0  0  0  0  0  0  0  0  0
  123.5783  130.0069   61.9580 H   0  0  0  0  0  0  0  0  0  0  0  0
  1  2  1  0
  2  3  2  0
  3  4  1  0
  4  5  1  0
  4  6  2  0
  6  7  1  0
  7  8  3  0
  6  9  1  0
  9 10  1  0
 10 11  1  0
 11 12  1  0
 12 13  1  0
 13 14  2  0
 13 15  1  0
 15 16  1  0
 16 17  1  0
 17 18  2  0
 18 19  1  0
 19 20  1  0
  9 21  2  0
 21  2  1  0
 20 16  2  0
  1 22  1  0
  1 23  1  0
  1 24  1  0
  3 25  1  0
  5 26  1  0
  5 27  1  0
  5 28  1  0
 11 29  1  0
 11 30  1  0
 12 31  1  0
 12 32  1  0
 15 33  1  0
 17 34  1  0
 18 35  1  0
M  END
>  <Binding energies>  (1) 
[-6.59]

>  <Ligand effiencies>  (1) 
[-0.29954545454545456]

>  <Interactions>  (1) 
["V-A:ARG:545:CD:4918, H-A:TYR:484:OH:4343, V-A:ARG:545:CZ:4921, V-A:ARG:545:CG:4917, V-A:ASP:366:CG:3208, V-A:GLU:543:CD:4903, V-B:HIS:456:CE1:9037, V-B:GLU:543:CD:9876, V-B:ARG:545:CZ:9894, H-B:TYR:484:OH:9315, H-B:GLY:454:N:9017, V-A:HIS:456:CD2:4063, H-A:HIS:456:NE2:4065, H-B:HIS:456:NE2:9038, H-B:ARG:545:NE:9892, H-B:ARG:545:NH1:9895"]

$$$$
1q_Grossjean_2025
     RDKit          3D

 38 38  0  0  0  0  0  0  0  0999 V2000
  123.7300  130.0690   63.0620 C   0  0  0  0  0  0  0  0  0  0  0  0
  123.3310  130.4060   64.3830 O   0  0  0  0  0  0  0  0  0  0  0  0
  124.2070  130.3080   65.4130 C   0  0  0  0  0  0  0  0  0  0  0  0
  124.1080  130.8900   66.4950 O   0  0  0  0  0  0  0  0  0  0  0  0
  125.4200  129.3990   65.1230 C   0  0  0  0  0  0  0  0  0  0  0  0
  126.4650  129.4880   66.1540 N   0  0  0  0  0  0  0  0  0  0  0  0
  127.2870  128.4910   66.5320 C   0  0  0  0  0  0  0  0  0  0  0  0
  127.2520  127.3630   66.0350 O   0  0  0  0  0  0  0  0  0  0  0  0
  128.3070  128.8390   67.6260 C   0  0  0  0  0  0  0  0  0  0  0  0
  129.7390  128.3460   67.3380 C   0  0  0  0  0  0  0  0  0  0  0  0
  129.8820  126.5360   67.2470 S   0  0  0  0  0  0  0  0  0  0  0  0
  131.1340  126.1250   66.0490 C   0  0  0  0  0  0  0  0  0  0  0  0
  132.2720  125.6360   66.6050 N   0  0  0  0  0  0  0  0  0  0  0  0
  133.2980  125.2900   65.7930 C   0  0  0  0  0  0  0  0  0  0  0  0
  134.5410  124.7670   66.4890 C   0  0  0  0  0  0  0  0  0  0  0  0
  133.2310  125.4040   64.4060 C   0  0  0  0  0  0  0  0  0  0  0  0
  132.0550  125.8830   63.8210 C   0  0  0  0  0  0  0  0  0  0  0  0
  132.0000  125.9820   62.2970 C   0  0  0  0  0  0  0  0  0  0  0  0
  130.9690  126.2490   64.6480 C   0  0  0  0  0  0  0  0  0  0  0  0
  129.7100  126.6980   64.0490 C   0  0  0  0  0  0  0  0  0  0  0  0
  128.7170  127.0520   63.5720 N   0  0  0  0  0  0  0  0  0  0  0  0
  124.5698  129.3597   63.1023 H   0  0  0  0  0  0  0  0  0  0  0  0
  122.8851  129.6070   62.5304 H   0  0  0  0  0  0  0  0  0  0  0  0
  124.0441  130.9793   62.5304 H   0  0  0  0  0  0  0  0  0  0  0  0
  125.0716  128.3572   65.0662 H   0  0  0  0  0  0  0  0  0  0  0  0
  125.8641  129.7360   64.1748 H   0  0  0  0  0  0  0  0  0  0  0  0
  126.5420  130.3750   66.6300 H   0  0  0  0  0  0  0  0  0  0  0  0
  128.3348  129.9332   67.7356 H   0  0  0  0  0  0  0  0  0  0  0  0
  127.9752  128.3261   68.5408 H   0  0  0  0  0  0  0  0  0  0  0  0
  130.0656  128.7693   66.3767 H   0  0  0  0  0  0  0  0  0  0  0  0
  130.3687  128.6772   68.1769 H   0  0  0  0  0  0  0  0  0  0  0  0
  134.4029  124.8251   67.5788 H   0  0  0  0  0  0  0  0  0  0  0  0
  134.7122  123.7206   66.1964 H   0  0  0  0  0  0  0  0  0  0  0  0
  135.4089  125.3763   66.1964 H   0  0  0  0  0  0  0  0  0  0  0  0
  134.0906  125.1213   63.7805 H   0  0  0  0  0  0  0  0  0  0  0  0
  131.4845  126.9098   62.0082 H   0  0  0  0  0  0  0  0  0  0  0  0
  133.0231  125.9899   61.8929 H   0  0  0  0  0  0  0  0  0  0  0  0
  131.4528  125.1175   61.8929 H   0  0  0  0  0  0  0  0  0  0  0  0
  1  2  1  0
  2  3  1  0
  3  4  2  0
  3  5  1  0
  5  6  1  0
  6  7  1  0
  7  8  2  0
  7  9  1  0
  9 10  1  0
 10 11  1  0
 11 12  1  0
 12 13  2  0
 13 14  1  0
 14 15  1  0
 14 16  2  0
 16 17  1  0
 17 18  1  0
 17 19  2  0
 19 20  1  0
 20 21  3  0
 19 12  1  0
  1 22  1  0
  1 23  1  0
  1 24  1  0
  5 25  1  0
  5 26  1  0
  6 27  1  0
  9 28  1  0
  9 29  1  0
 10 30  1  0
 10 31  1  0
 15 32  1  0
 15 33  1  0
 15 34  1  0
 16 35  1  0
 18 36  1  0
 18 37  1  0
 18 38  1  0
M  END
>  <Binding energies>  (1) 
[-5.42]

>  <Ligand effiencies>  (1) 
[-0.24636363636363637]

>  <Interactions>  (1) 
["V-A:ARG:545:CD:4918, H-A:TYR:484:OH:4343, V-A:ARG:545:CZ:4921, V-A:ARG:545:CG:4917, V-A:ASP:366:CG:3208, V-A:GLU:543:CD:4903, V-A:GLU:543:CG:4902, V-A:GLU:543:CB:4901, V-B:HIS:456:CE1:9037, V-A:GLY:454:CA:4044, V-B:GLU:543:CD:9876, V-A:TYR:484:CZ:4342, V-B:ARG:545:CZ:9894, H-B:TYR:484:OH:9315, H-B:GLY:454:N:9017, V-A:HIS:456:CD2:4063, V-A:GLY:453:C:4037, H-A:HIS:456:NE2:4065, H-B:HIS:456:NE2:9038, H-B:ARG:545:NH1:9895, H-B:HIS:456:ND1:9034"]

$$$$
2a_Ghoteimi_2023
     RDKit          3D

 85 90  0  0  0  0  0  0  0  0999 V2000
  127.1780  133.6110   60.6440 C   0  0  0  0  0  0  0  0  0  0  0  0
  128.6410  133.3870   60.2500 C   0  0  0  0  0  0  0  0  0  0  0  0
  128.7210  133.1390   58.8520 O   0  0  0  0  0  0  0  0  0  0  0  0
  129.8150  132.5480   58.3060 C   0  0  0  0  0  0  0  0  0  0  0  0
  130.4850  133.0600   57.4040 O   0  0  0  0  0  0  0  0  0  0  0  0
  130.1310  131.2110   58.9130 C   0  0  0  0  0  0  0  0  0  0  0  0
  129.1640  130.2030   59.0340 C   0  0  0  0  0  0  0  0  0  0  0  0
  129.4910  128.9750   59.6000 C   0  0  0  0  0  0  0  0  0  0  0  0
  130.7880  128.7250   60.0520 C   0  0  0  0  0  0  0  0  0  0  0  0
  131.0060  127.4510   60.6100 N   0  0  0  0  0  0  0  0  0  0  0  0
  130.7090  126.2280   60.1190 C   0  0  0  0  0  0  0  0  0  0  0  0
  130.1200  126.0140   59.0580 O   0  0  0  0  0  0  0  0  0  0  0  0
  131.1220  125.0490   61.0100 C   0  0  0  0  0  0  0  0  0  0  0  0
  131.9610  125.5300   62.5540 S   0  0  0  0  0  0  0  0  0  0  0  0
  130.7370  126.3850   63.5190 C   0  0  0  0  0  0  0  0  0  0  0  0
  129.7740  126.9820   62.7780 N   0  0  0  0  0  0  0  0  0  0  0  0
  128.7870  127.6740   63.4000 C   0  0  0  0  0  0  0  0  0  0  0  0
  127.7640  128.3150   62.5180 C   0  0  0  0  0  0  0  0  0  0  0  0
  127.4980  129.6880   62.5940 C   0  0  0  0  0  0  0  0  0  0  0  0
  126.5360  130.2760   61.7780 C   0  0  0  0  0  0  0  0  0  0  0  0
  125.8090  129.5170   60.8500 C   0  0  0  0  0  0  0  0  0  0  0  0
  124.8250  130.1180   60.0580 N   0  0  0  0  0  0  0  0  0  0  0  0
  125.0320  130.3480   58.6140 C   0  0  0  0  0  0  0  0  0  0  0  0
  123.7360  130.6750   57.8420 C   0  0  0  0  0  0  0  0  0  0  0  0
  123.0770  131.7780   58.4430 O   0  0  0  0  0  0  0  0  0  0  0  0
  122.7220  131.4980   59.7880 C   0  0  0  0  0  0  0  0  0  0  0  0
  123.9850  131.1970   60.6200 C   0  0  0  0  0  0  0  0  0  0  0  0
  126.0720  128.1390   60.7860 C   0  0  0  0  0  0  0  0  0  0  0  0
  127.0350  127.5510   61.6000 C   0  0  0  0  0  0  0  0  0  0  0  0
  128.7390  127.7710   64.7930 C   0  0  0  0  0  0  0  0  0  0  0  0
  129.7250  127.1610   65.5810 C   0  0  0  0  0  0  0  0  0  0  0  0
  129.6170  127.3100   67.0640 C   0  0  0  0  0  0  0  0  0  0  0  0
  128.6160  126.6330   67.7670 C   0  0  0  0  0  0  0  0  0  0  0  0
  128.4950  126.7810   69.1450 C   0  0  0  0  0  0  0  0  0  0  0  0
  129.3730  127.6060   69.8640 C   0  0  0  0  0  0  0  0  0  0  0  0
  129.2570  127.7820   71.2460 N   0  0  0  0  0  0  0  0  0  0  0  0
  128.7450  129.0640   71.7710 C   0  0  0  0  0  0  0  0  0  0  0  0
  128.3040  128.9850   73.2480 C   0  0  0  0  0  0  0  0  0  0  0  0
  129.3720  128.5020   74.0490 O   0  0  0  0  0  0  0  0  0  0  0  0
  129.7870  127.2070   73.6460 C   0  0  0  0  0  0  0  0  0  0  0  0
  130.2620  127.2370   72.1780 C   0  0  0  0  0  0  0  0  0  0  0  0
  130.3670  128.2910   69.1490 C   0  0  0  0  0  0  0  0  0  0  0  0
  130.4870  128.1450   67.7700 C   0  0  0  0  0  0  0  0  0  0  0  0
  130.7550  126.4390   64.9300 C   0  0  0  0  0  0  0  0  0  0  0  0
  131.7830  125.7330   65.7030 C   0  0  0  0  0  0  0  0  0  0  0  0
  132.5930  125.1780   66.3150 N   0  0  0  0  0  0  0  0  0  0  0  0
  131.7590  129.7310   59.9410 C   0  0  0  0  0  0  0  0  0  0  0  0
  131.4310  130.9590   59.3730 C   0  0  0  0  0  0  0  0  0  0  0  0
  127.0915  133.6242   61.7405 H   0  0  0  0  0  0  0  0  0  0  0  0
  126.8318  134.5726   60.2372 H   0  0  0  0  0  0  0  0  0  0  0  0
  126.5600  132.7970   60.2372 H   0  0  0  0  0  0  0  0  0  0  0  0
  129.2292  134.2828   60.4981 H   0  0  0  0  0  0  0  0  0  0  0  0
  129.0414  132.5226   60.8000 H   0  0  0  0  0  0  0  0  0  0  0  0
  128.1389  130.3846   58.6787 H   0  0  0  0  0  0  0  0  0  0  0  0
  128.7213  128.1946   59.6922 H   0  0  0  0  0  0  0  0  0  0  0  0
  131.4270  127.4700   61.5270 H   0  0  0  0  0  0  0  0  0  0  0  0
  130.2164  124.4825   61.2727 H   0  0  0  0  0  0  0  0  0  0  0  0
  131.8457  124.4565   60.4310 H   0  0  0  0  0  0  0  0  0  0  0  0
  128.0571  130.3101   63.3084 H   0  0  0  0  0  0  0  0  0  0  0  0
  126.3426  131.3555   61.8627 H   0  0  0  0  0  0  0  0  0  0  0  0
  125.7290  131.1904   58.4936 H   0  0  0  0  0  0  0  0  0  0  0  0
  125.4266  129.4110   58.1942 H   0  0  0  0  0  0  0  0  0  0  0  0
  123.9859  130.9239   56.8001 H   0  0  0  0  0  0  0  0  0  0  0  0
  123.0704  129.7996   57.8678 H   0  0  0  0  0  0  0  0  0  0  0  0
  122.2039  132.3689   60.2160 H   0  0  0  0  0  0  0  0  0  0  0  0
  122.0601  130.6197   59.8093 H   0  0  0  0  0  0  0  0  0  0  0  0
  124.5899  132.1140   60.6767 H   0  0  0  0  0  0  0  0  0  0  0  0
  123.6443  130.8565   61.6089 H   0  0  0  0  0  0  0  0  0  0  0  0
  125.5066  127.5134   60.0797 H   0  0  0  0  0  0  0  0  0  0  0  0
  127.2259  126.4706   61.5208 H   0  0  0  0  0  0  0  0  0  0  0  0
  127.9226  128.3294   65.2743 H   0  0  0  0  0  0  0  0  0  0  0  0
  127.9179  125.9775   67.2258 H   0  0  0  0  0  0  0  0  0  0  0  0
  127.6983  126.2427   69.6793 H   0  0  0  0  0  0  0  0  0  0  0  0
  129.5396  129.8196   71.6836 H   0  0  0  0  0  0  0  0  0  0  0  0
  127.8563  129.3275   71.1788 H   0  0  0  0  0  0  0  0  0  0  0  0
  128.0128  129.9873   73.5952 H   0  0  0  0  0  0  0  0  0  0  0  0
  127.4495  128.2975   73.3332 H   0  0  0  0  0  0  0  0  0  0  0  0
  130.6142  126.8730   74.2896 H   0  0  0  0  0  0  0  0  0  0  0  0
  128.9392  126.5120   73.7367 H   0  0  0  0  0  0  0  0  0  0  0  0
  131.1669  127.8595   72.1174 H   0  0  0  0  0  0  0  0  0  0  0  0
  130.4513  126.1959   71.8776 H   0  0  0  0  0  0  0  0  0  0  0  0
  131.0618  128.9533   69.6862 H   0  0  0  0  0  0  0  0  0  0  0  0
  131.2743  128.6922   67.2308 H   0  0  0  0  0  0  0  0  0  0  0  0
  132.7816  129.5494   60.3034 H   0  0  0  0  0  0  0  0  0  0  0  0
  132.2004  131.7401   59.2842 H   0  0  0  0  0  0  0  0  0  0  0  0
  1  2  1  0
  2  3  1  0
  3  4  1  0
  4  5  2  0
  4  6  1  0
  6  7  2  0
  7  8  1  0
  8  9  2  0
  9 10  1  0
 10 11  1  0
 11 12  2  0
 11 13  1  0
 13 14  1  0
 14 15  1  0
 15 16  2  0
 16 17  1  0
 17 18  1  0
 18 19  2  0
 19 20  1  0
 20 21  2  0
 21 22  1  0
 22 23  1  0
 23 24  1  0
 24 25  1  0
 25 26  1  0
 26 27  1  0
 21 28  1  0
 28 29  2  0
 17 30  2  0
 30 31  1  0
 31 32  1  0
 32 33  2  0
 33 34  1  0
 34 35  2  0
 35 36  1  0
 36 37  1  0
 37 38  1  0
 38 39  1  0
 39 40  1  0
 40 41  1  0
 35 42  1  0
 42 43  2  0
 31 44  2  0
 44 45  1  0
 45 46  3  0
  9 47  1  0
 47 48  2  0
 48  6  1  0
 44 15  1  0
 29 18  1  0
 43 32  1  0
 27 22  1  0
 41 36  1  0
  1 49  1  0
  1 50  1  0
  1 51  1  0
  2 52  1  0
  2 53  1  0
  7 54  1  0
  8 55  1  0
 10 56  1  0
 13 57  1  0
 13 58  1  0
 19 59  1  0
 20 60  1  0
 23 61  1  0
 23 62  1  0
 24 63  1  0
 24 64  1  0
 26 65  1  0
 26 66  1  0
 27 67  1  0
 27 68  1  0
 28 69  1  0
 29 70  1  0
 30 71  1  0
 33 72  1  0
 34 73  1  0
 37 74  1  0
 37 75  1  0
 38 76  1  0
 38 77  1  0
 40 78  1  0
 40 79  1  0
 41 80  1  0
 41 81  1  0
 42 82  1  0
 43 83  1  0
 47 84  1  0
 48 85  1  0
M  END
>  <Binding energies>  (1) 
[-9.05]

>  <Ligand effiencies>  (1) 
[-0.18469387755102043]

>  <Interactions>  (1) 
["H-A:ASP:366:OD2:3210, H-A:TYR:484:OH:4343, H-A:GLU:543:OE2:4905, V-A:PRO:540:CA:4878, V-A:GLU:543:CD:4903, V-A:PRO:540:CB:4880, V-A:GLU:543:CG:4902, V-A:GLU:543:CB:4901, V-A:HIS:456:CE1:4064, V-B:GLU:543:CD:9876, V-B:GLU:543:CB:9874, V-A:TYR:539:CZ:4872, V-A:TYR:539:CE2:4871, V-A:PRO:540:N:4879, V-B:GLU:543:C:9870, H-B:LYS:547:NZ:9919, V-B:HIS:456:CD2:9035, H-A:LYS:547:NZ:4946, H-A:HIS:456:NE2:4065, V-B:LYS:547:CE:9918, V-B:ASP:366:CB:8179, V-A:LYS:547:CE:4945, V-B:ASP:366:CG:8180, V-B:ILE:369:CG1:8205, V-B:ILE:369:CD1:8206, V-B:ILE:369:CG2:8204, V-B:ILE:369:CB:8203, V-B:ASP:366:CA:8177, V-A:TYR:539:CD2:4869, H-A:TYR:539:OH:4873, H-A:ARG:545:NH2:4923, V-A:TYR:539:C:4862, V-B:ASP:366:C:8175, H-A:TYR:539:N:4865"]

$$$$
2a_Grossjean_2025
     RDKit          3D

 45 46  0  0  0  0  0  0  0  0999 V2000
  130.0230  128.5920   71.9470 C   0  0  0  0  0  0  0  0  0  0  0  0
  130.0730  127.0960   72.2700 C   0  0  0  0  0  0  0  0  0  0  0  0
  128.9130  126.4620   71.7430 O   0  0  0  0  0  0  0  0  0  0  0  0
  128.2330  127.0030   70.6990 C   0  0  0  0  0  0  0  0  0  0  0  0
  127.1650  127.6100   70.8230 O   0  0  0  0  0  0  0  0  0  0  0  0
  128.9230  126.8060   69.3790 C   0  0  0  0  0  0  0  0  0  0  0  0
  129.1330  127.8680   68.4870 C   0  0  0  0  0  0  0  0  0  0  0  0
  129.7740  127.6520   67.2710 C   0  0  0  0  0  0  0  0  0  0  0  0
  130.2100  126.3740   66.9170 C   0  0  0  0  0  0  0  0  0  0  0  0
  130.8320  126.2700   65.6590 N   0  0  0  0  0  0  0  0  0  0  0  0
  132.0050  125.6950   65.3160 C   0  0  0  0  0  0  0  0  0  0  0  0
  132.7910  125.1540   66.0940 O   0  0  0  0  0  0  0  0  0  0  0  0
  132.3530  125.7460   63.8240 C   0  0  0  0  0  0  0  0  0  0  0  0
  133.5860  124.4960   63.3280 S   0  0  0  0  0  0  0  0  0  0  0  0
  132.9430  123.5170   61.9760 C   0  0  0  0  0  0  0  0  0  0  0  0
  133.5700  123.6770   60.7830 N   0  0  0  0  0  0  0  0  0  0  0  0
  133.1290  122.9780   59.7130 C   0  0  0  0  0  0  0  0  0  0  0  0
  133.8620  123.2320   58.4090 C   0  0  0  0  0  0  0  0  0  0  0  0
  132.0590  122.0900   59.7860 C   0  0  0  0  0  0  0  0  0  0  0  0
  131.4020  121.9010   61.0110 C   0  0  0  0  0  0  0  0  0  0  0  0
  130.2210  120.9140   61.0750 C   0  0  0  0  0  0  0  0  0  0  0  0
  129.0800  121.5770   61.2630 F   0  0  0  0  0  0  0  0  0  0  0  0
  130.1400  120.2270   59.9350 F   0  0  0  0  0  0  0  0  0  0  0  0
  130.3410  120.0310   62.0690 F   0  0  0  0  0  0  0  0  0  0  0  0
  131.8520  122.6320   62.1400 C   0  0  0  0  0  0  0  0  0  0  0  0
  131.1990  122.4760   63.4440 C   0  0  0  0  0  0  0  0  0  0  0  0
  130.6840  122.3530   64.4730 N   0  0  0  0  0  0  0  0  0  0  0  0
  130.0110  125.3090   67.8070 C   0  0  0  0  0  0  0  0  0  0  0  0
  129.3730  125.5280   69.0260 C   0  0  0  0  0  0  0  0  0  0  0  0
  130.0037  129.1688   72.8834 H   0  0  0  0  0  0  0  0  0  0  0  0
  130.9123  128.8709   71.3628 H   0  0  0  0  0  0  0  0  0  0  0  0
  129.1170  128.8109   71.3628 H   0  0  0  0  0  0  0  0  0  0  0  0
  130.9720  126.6522   71.8174 H   0  0  0  0  0  0  0  0  0  0  0  0
  130.1065  126.9554   73.3605 H   0  0  0  0  0  0  0  0  0  0  0  0
  128.7885  128.8788   68.7507 H   0  0  0  0  0  0  0  0  0  0  0  0
  129.9384  128.4947   66.5834 H   0  0  0  0  0  0  0  0  0  0  0  0
  130.2880  126.6480   64.8990 H   0  0  0  0  0  0  0  0  0  0  0  0
  131.4330  125.5780   63.2449 H   0  0  0  0  0  0  0  0  0  0  0  0
  132.7928  126.7345   63.6254 H   0  0  0  0  0  0  0  0  0  0  0  0
  134.8813  123.5852   58.6241 H   0  0  0  0  0  0  0  0  0  0  0  0
  133.9121  122.2988   57.8288 H   0  0  0  0  0  0  0  0  0  0  0  0
  133.3240  123.9961   57.8288 H   0  0  0  0  0  0  0  0  0  0  0  0
  131.7316  121.5413   58.8906 H   0  0  0  0  0  0  0  0  0  0  0  0
  130.3590  124.2996   67.5425 H   0  0  0  0  0  0  0  0  0  0  0  0
  129.2211  124.6874   69.7190 H   0  0  0  0  0  0  0  0  0  0  0  0
  1  2  1  0
  2  3  1  0
  3  4  1  0
  4  5  2  0
  4  6  1  0
  6  7  2  0
  7  8  1  0
  8  9  2  0
  9 10  1  0
 10 11  1  0
 11 12  2  0
 11 13  1  0
 13 14  1  0
 14 15  1  0
 15 16  2  0
 16 17  1  0
 17 18  1  0
 17 19  2  0
 19 20  1  0
 20 21  1  0
 21 22  1  0
 21 23  1  0
 21 24  1  0
 20 25  2  0
 25 26  1  0
 26 27  3  0
  9 28  1  0
 28 29  2  0
 29  6  1  0
 25 15  1  0
  1 30  1  0
  1 31  1  0
  1 32  1  0
  2 33  1  0
  2 34  1  0
  7 35  1  0
  8 36  1  0
 10 37  1  0
 13 38  1  0
 13 39  1  0
 18 40  1  0
 18 41  1  0
 18 42  1  0
 19 43  1  0
 28 44  1  0
 29 45  1  0
M  END
>  <Binding energies>  (1) 
[-7.25]

>  <Ligand effiencies>  (1) 
[-0.24166666666666667]

>  <Interactions>  (1) 
["H-A:TYR:484:OH:4343, V-A:ARG:545:CZ:4921, H-A:GLY:454:N:4045, V-A:GLU:543:CD:4903, V-A:GLU:543:CB:4901, V-A:HIS:456:CE1:4064, H-A:GLU:543:OE1:4904, V-B:GLU:543:CB:9874, V-A:LEU:475:CD2:4254, V-B:TYR:539:CD2:9842, V-A:LEU:475:CD1:4253, V-B:TYR:539:CE2:9844, V-B:ALA:541:CB:9860, V-A:ASP:366:CB:3207, V-A:ILE:369:CD1:3234, V-B:GLU:543:C:9870, V-B:GLU:543:CA:9872, H-B:LYS:547:NZ:9919, H-A:HIS:456:NE2:4065, V-A:ILE:369:CG2:3232, V-B:PRO:540:C:9849, V-B:ALA:541:CA:9858, V-B:TYR:539:C:9835, V-A:ILE:369:CB:3231, V-A:ASP:366:CA:3205, V-A:ILE:369:CG1:3233"]

$$$$
2aa_Ghoteimi_2023
     RDKit          3D

 85 90  0  0  0  0  0  0  0  0999 V2000
  134.5730  126.5820   74.5240 C   0  0  0  0  0  0  0  0  0  0  0  0
  134.1460  125.3580   75.3420 C   0  0  0  0  0  0  0  0  0  0  0  0
  132.8700  125.6010   75.9210 O   0  0  0  0  0  0  0  0  0  0  0  0
  131.7940  124.8420   75.5930 C   0  0  0  0  0  0  0  0  0  0  0  0
  131.3800  123.9100   76.2910 O   0  0  0  0  0  0  0  0  0  0  0  0
  131.1450  125.2570   74.3030 C   0  0  0  0  0  0  0  0  0  0  0  0
  131.0670  126.6030   73.9140 C   0  0  0  0  0  0  0  0  0  0  0  0
  130.4640  126.9560   72.7110 C   0  0  0  0  0  0  0  0  0  0  0  0
  129.9200  125.9770   71.8780 C   0  0  0  0  0  0  0  0  0  0  0  0
  129.3370  126.4460   70.6840 N   0  0  0  0  0  0  0  0  0  0  0  0
  128.1130  126.9760   70.4690 C   0  0  0  0  0  0  0  0  0  0  0  0
  127.2640  127.1740   71.3400 O   0  0  0  0  0  0  0  0  0  0  0  0
  127.8320  127.3590   69.0100 C   0  0  0  0  0  0  0  0  0  0  0  0
  129.0610  127.6840   68.3520 O   0  0  0  0  0  0  0  0  0  0  0  0
  129.1380  127.6560   66.9660 C   0  0  0  0  0  0  0  0  0  0  0  0
  128.7130  128.7530   66.2780 N   0  0  0  0  0  0  0  0  0  0  0  0
  128.7780  128.7600   64.9230 C   0  0  0  0  0  0  0  0  0  0  0  0
  128.2900  129.9960   64.2360 C   0  0  0  0  0  0  0  0  0  0  0  0
  129.1770  130.8260   63.5450 C   0  0  0  0  0  0  0  0  0  0  0  0
  128.7270  131.9750   62.8980 C   0  0  0  0  0  0  0  0  0  0  0  0
  127.3690  132.3280   62.9070 C   0  0  0  0  0  0  0  0  0  0  0  0
  126.9020  133.4850   62.2730 N   0  0  0  0  0  0  0  0  0  0  0  0
  127.8260  134.5540   61.8430 C   0  0  0  0  0  0  0  0  0  0  0  0
  127.1230  135.8830   61.4970 C   0  0  0  0  0  0  0  0  0  0  0  0
  126.1170  135.6600   60.5220 O   0  0  0  0  0  0  0  0  0  0  0  0
  125.1290  134.7570   60.9930 C   0  0  0  0  0  0  0  0  0  0  0  0
  125.7730  133.3940   61.3240 C   0  0  0  0  0  0  0  0  0  0  0  0
  126.4870  131.5030   63.6200 C   0  0  0  0  0  0  0  0  0  0  0  0
  126.9380  130.3570   64.2690 C   0  0  0  0  0  0  0  0  0  0  0  0
  129.2590  127.6530   64.2170 C   0  0  0  0  0  0  0  0  0  0  0  0
  129.6910  126.5080   64.8990 C   0  0  0  0  0  0  0  0  0  0  0  0
  130.1700  125.3470   64.0890 C   0  0  0  0  0  0  0  0  0  0  0  0
  129.8110  124.0440   64.4420 C   0  0  0  0  0  0  0  0  0  0  0  0
  130.2700  122.9570   63.7040 C   0  0  0  0  0  0  0  0  0  0  0  0
  131.1140  123.1410   62.5980 C   0  0  0  0  0  0  0  0  0  0  0  0
  131.5850  122.0650   61.8410 N   0  0  0  0  0  0  0  0  0  0  0  0
  132.8530  122.1480   61.0910 C   0  0  0  0  0  0  0  0  0  0  0  0
  133.3780  120.7760   60.6170 C   0  0  0  0  0  0  0  0  0  0  0  0
  132.3810  120.1130   59.8540 O   0  0  0  0  0  0  0  0  0  0  0  0
  131.2020  119.8940   60.6120 C   0  0  0  0  0  0  0  0  0  0  0  0
  130.6190  121.2420   61.0840 C   0  0  0  0  0  0  0  0  0  0  0  0
  131.4640  124.4520   62.2480 C   0  0  0  0  0  0  0  0  0  0  0  0
  131.0050  125.5390   62.9850 C   0  0  0  0  0  0  0  0  0  0  0  0
  129.6420  126.5170   66.3130 C   0  0  0  0  0  0  0  0  0  0  0  0
  130.1190  125.3850   67.1100 C   0  0  0  0  0  0  0  0  0  0  0  0
  130.4970  124.4900   67.7400 N   0  0  0  0  0  0  0  0  0  0  0  0
  130.0000  124.6300   72.2570 C   0  0  0  0  0  0  0  0  0  0  0  0
  130.6070  124.2780   73.4590 C   0  0  0  0  0  0  0  0  0  0  0  0
  134.8574  127.3973   75.2054 H   0  0  0  0  0  0  0  0  0  0  0  0
  135.4320  126.3177   73.8898 H   0  0  0  0  0  0  0  0  0  0  0  0
  133.7360  126.9094   73.8898 H   0  0  0  0  0  0  0  0  0  0  0  0
  134.0894  124.4781   74.6843 H   0  0  0  0  0  0  0  0  0  0  0  0
  134.8822  125.1718   76.1379 H   0  0  0  0  0  0  0  0  0  0  0  0
  131.4857  127.3846   74.5650 H   0  0  0  0  0  0  0  0  0  0  0  0
  130.4156  128.0141   72.4142 H   0  0  0  0  0  0  0  0  0  0  0  0
  129.9510  126.4090   69.8840 H   0  0  0  0  0  0  0  0  0  0  0  0
  127.3542  126.5125   68.4951 H   0  0  0  0  0  0  0  0  0  0  0  0
  127.1629  128.2317   68.9845 H   0  0  0  0  0  0  0  0  0  0  0  0
  130.2459  130.5684   63.5114 H   0  0  0  0  0  0  0  0  0  0  0  0
  129.4488  132.6164   62.3711 H   0  0  0  0  0  0  0  0  0  0  0  0
  128.5417  134.7419   62.6569 H   0  0  0  0  0  0  0  0  0  0  0  0
  128.3168  134.2024   60.9235 H   0  0  0  0  0  0  0  0  0  0  0  0
  126.6638  136.2996   62.4056 H   0  0  0  0  0  0  0  0  0  0  0  0
  127.8642  136.5900   61.0960 H   0  0  0  0  0  0  0  0  0  0  0  0
  124.6620  135.1688   61.8998 H   0  0  0  0  0  0  0  0  0  0  0  0
  124.3676  134.6159   60.2118 H   0  0  0  0  0  0  0  0  0  0  0  0
  125.0023  132.7432   61.7627 H   0  0  0  0  0  0  0  0  0  0  0  0
  126.1760  132.9920   60.3828 H   0  0  0  0  0  0  0  0  0  0  0  0
  125.4200  131.7661   63.6672 H   0  0  0  0  0  0  0  0  0  0  0  0
  126.2216  129.7261   64.8156 H   0  0  0  0  0  0  0  0  0  0  0  0
  129.2985  127.6814   63.1181 H   0  0  0  0  0  0  0  0  0  0  0  0
  129.1591  123.8754   65.3118 H   0  0  0  0  0  0  0  0  0  0  0  0
  129.9670  121.9394   63.9916 H   0  0  0  0  0  0  0  0  0  0  0  0
  132.6943  122.7843   60.2078 H   0  0  0  0  0  0  0  0  0  0  0  0
  133.6071  122.5647   61.7748 H   0  0  0  0  0  0  0  0  0  0  0  0
  134.2741  120.9233   59.9963 H   0  0  0  0  0  0  0  0  0  0  0  0
  133.6294  120.1623   61.4945 H   0  0  0  0  0  0  0  0  0  0  0  0
  130.4595  119.3745   59.9884 H   0  0  0  0  0  0  0  0  0  0  0  0
  131.4472  119.2796   61.4908 H   0  0  0  0  0  0  0  0  0  0  0  0
  130.2939  121.8102   60.2000 H   0  0  0  0  0  0  0  0  0  0  0  0
  129.7832  121.0153   61.7622 H   0  0  0  0  0  0  0  0  0  0  0  0
  132.1123  124.6244   61.3762 H   0  0  0  0  0  0  0  0  0  0  0  0
  131.3018  126.5581   62.6963 H   0  0  0  0  0  0  0  0  0  0  0  0
  129.5824  123.8499   71.6035 H   0  0  0  0  0  0  0  0  0  0  0  0
  130.6647  123.2185   73.7492 H   0  0  0  0  0  0  0  0  0  0  0  0
  1  2  1  0
  2  3  1  0
  3  4  1  0
  4  5  2  0
  4  6  1  0
  6  7  2  0
  7  8  1  0
  8  9  2  0
  9 10  1  0
 10 11  1  0
 11 12  2  0
 11 13  1  0
 13 14  1  0
 14 15  1  0
 15 16  2  0
 16 17  1  0
 17 18  1  0
 18 19  2  0
 19 20  1  0
 20 21  2  0
 21 22  1  0
 22 23  1  0
 23 24  1  0
 24 25  1  0
 25 26  1  0
 26 27  1  0
 21 28  1  0
 28 29  2  0
 17 30  2  0
 30 31  1  0
 31 32  1  0
 32 33  2  0
 33 34  1  0
 34 35  2  0
 35 36  1  0
 36 37  1  0
 37 38  1  0
 38 39  1  0
 39 40  1  0
 40 41  1  0
 35 42  1  0
 42 43  2  0
 31 44  2  0
 44 45  1  0
 45 46  3  0
  9 47  1  0
 47 48  2  0
 48  6  1  0
 44 15  1  0
 29 18  1  0
 43 32  1  0
 27 22  1  0
 41 36  1  0
  1 49  1  0
  1 50  1  0
  1 51  1  0
  2 52  1  0
  2 53  1  0
  7 54  1  0
  8 55  1  0
 10 56  1  0
 13 57  1  0
 13 58  1  0
 19 59  1  0
 20 60  1  0
 23 61  1  0
 23 62  1  0
 24 63  1  0
 24 64  1  0
 26 65  1  0
 26 66  1  0
 27 67  1  0
 27 68  1  0
 28 69  1  0
 29 70  1  0
 30 71  1  0
 33 72  1  0
 34 73  1  0
 37 74  1  0
 37 75  1  0
 38 76  1  0
 38 77  1  0
 40 78  1  0
 40 79  1  0
 41 80  1  0
 41 81  1  0
 42 82  1  0
 43 83  1  0
 47 84  1  0
 48 85  1  0
M  END
>  <Binding energies>  (1) 
[-8.97]

>  <Ligand effiencies>  (1) 
[-0.18306122448979592]

>  <Interactions>  (1) 
["H-A:TYR:484:OH:4343, V-A:GLU:543:CD:4903, V-A:GLU:543:CG:4902, V-B:GLU:543:CG:9875, V-A:HIS:456:CE1:4064, V-B:HIS:456:CE1:9037, V-B:GLU:543:CD:9876, V-B:GLU:543:CB:9874, V-A:LEU:475:CD2:4254, V-B:TYR:539:CD2:9842, V-A:TRP:381:CZ2:3365, V-A:TRP:381:CH2:3367, V-B:ALA:541:CB:9860, V-A:ALA:541:CB:4887, V-A:TYR:539:CE2:4871, V-A:ILE:369:CD1:3234, V-B:GLU:543:C:9870, H-B:GLU:543:O:9871, H-A:HIS:456:ND1:4062, H-B:LYS:547:NZ:9919, H-A:HIS:456:NE2:4065, V-A:LYS:547:CE:4945, V-B:LEU:475:CG:9224, V-B:LEU:475:CD2:9226, V-A:TYR:539:CD2:4869, V-A:ILE:369:CG2:3232, V-B:TRP:381:CH2:8339, V-A:HIS:456:CB:4060, V-A:LYS:547:CG:4943, V-A:LYS:547:CD:4944, V-B:TRP:381:CZ2:8337, V-A:VAL:458:CG2:4082, V-B:LEU:475:CD1:9225"]

$$$$
2b_Ghoteimi_2023
     RDKit          3D

 72 77  0  0  0  0  0  0  0  0999 V2000
  130.2590  124.1880   67.7510 N   0  0  0  0  0  0  0  0  0  0  0  0
  129.9630  125.1270   67.1430 C   0  0  0  0  0  0  0  0  0  0  0  0
  129.5900  126.3130   66.3680 C   0  0  0  0  0  0  0  0  0  0  0  0
  129.7650  126.3390   64.9610 C   0  0  0  0  0  0  0  0  0  0  0  0
  130.3230  125.2000   64.1730 C   0  0  0  0  0  0  0  0  0  0  0  0
  131.3700  125.4120   63.2750 C   0  0  0  0  0  0  0  0  0  0  0  0
  131.8940  124.3540   62.5370 C   0  0  0  0  0  0  0  0  0  0  0  0
  131.3720  123.0570   62.6650 C   0  0  0  0  0  0  0  0  0  0  0  0
  131.8880  121.9780   61.9460 N   0  0  0  0  0  0  0  0  0  0  0  0
  131.0120  121.2580   61.0000 C   0  0  0  0  0  0  0  0  0  0  0  0
  131.5730  119.8870   60.5690 C   0  0  0  0  0  0  0  0  0  0  0  0
  132.8810  120.0380   60.0390 O   0  0  0  0  0  0  0  0  0  0  0  0
  133.7710  120.5980   60.9920 C   0  0  0  0  0  0  0  0  0  0  0  0
  133.2700  121.9910   61.4250 C   0  0  0  0  0  0  0  0  0  0  0  0
  130.3190  122.8550   63.5680 C   0  0  0  0  0  0  0  0  0  0  0  0
  129.7980  123.9120   64.3080 C   0  0  0  0  0  0  0  0  0  0  0  0
  129.3890  127.4930   64.2630 C   0  0  0  0  0  0  0  0  0  0  0  0
  128.8250  128.5780   64.9400 C   0  0  0  0  0  0  0  0  0  0  0  0
  128.3800  129.8210   64.2380 C   0  0  0  0  0  0  0  0  0  0  0  0
  127.0430  130.2320   64.2920 C   0  0  0  0  0  0  0  0  0  0  0  0
  126.6250  131.3960   63.6540 C   0  0  0  0  0  0  0  0  0  0  0  0
  127.5260  132.1880   62.9250 C   0  0  0  0  0  0  0  0  0  0  0  0
  127.1260  133.3770   62.3040 N   0  0  0  0  0  0  0  0  0  0  0  0
  128.1260  134.4220   62.0040 C   0  0  0  0  0  0  0  0  0  0  0  0
  127.5040  135.8010   61.6910 C   0  0  0  0  0  0  0  0  0  0  0  0
  126.5610  135.6800   60.6370 O   0  0  0  0  0  0  0  0  0  0  0  0
  125.5050  134.7990   60.9830 C   0  0  0  0  0  0  0  0  0  0  0  0
  126.0660  133.3910   61.2780 C   0  0  0  0  0  0  0  0  0  0  0  0
  128.8660  131.7760   62.8790 C   0  0  0  0  0  0  0  0  0  0  0  0
  129.2840  130.6130   63.5200 C   0  0  0  0  0  0  0  0  0  0  0  0
  128.6570  128.5510   66.2870 N   0  0  0  0  0  0  0  0  0  0  0  0
  129.0440  127.4590   66.9880 C   0  0  0  0  0  0  0  0  0  0  0  0
  128.7550  127.5980   68.7390 S   0  0  0  0  0  0  0  0  0  0  0  0
  130.2420  128.3340   69.4840 C   0  0  0  0  0  0  0  0  0  0  0  0
  130.1060  128.4960   70.9980 C   0  0  0  0  0  0  0  0  0  0  0  0
  130.4440  127.5700   71.7380 O   0  0  0  0  0  0  0  0  0  0  0  0
  129.6040  129.6790   71.4140 N   0  0  0  0  0  0  0  0  0  0  0  0
  129.3880  130.0900   72.7210 C   0  0  0  0  0  0  0  0  0  0  0  0
  129.4970  131.4190   73.1290 C   0  0  0  0  0  0  0  0  0  0  0  0
  129.2110  131.4050   74.4740 C   0  0  0  0  0  0  0  0  0  0  0  0
  128.9420  130.1340   74.8560 O   0  0  0  0  0  0  0  0  0  0  0  0
  129.0560  129.3090   73.7350 N   0  0  0  0  0  0  0  0  0  0  0  0
  131.7846  126.4231   63.1492 H   0  0  0  0  0  0  0  0  0  0  0  0
  132.7285  124.5369   61.8441 H   0  0  0  0  0  0  0  0  0  0  0  0
  130.0352  121.0998   61.4804 H   0  0  0  0  0  0  0  0  0  0  0  0
  130.9339  121.8767   60.0939 H   0  0  0  0  0  0  0  0  0  0  0  0
  131.6094  119.2185   61.4418 H   0  0  0  0  0  0  0  0  0  0  0  0
  130.9191  119.4585   59.7952 H   0  0  0  0  0  0  0  0  0  0  0  0
  133.8240  119.9400   61.8719 H   0  0  0  0  0  0  0  0  0  0  0  0
  134.7690  120.6970   60.5402 H   0  0  0  0  0  0  0  0  0  0  0  0
  133.9366  122.3727   62.2124 H   0  0  0  0  0  0  0  0  0  0  0  0
  133.2756  122.6320   60.5311 H   0  0  0  0  0  0  0  0  0  0  0  0
  129.8985  121.8463   63.6934 H   0  0  0  0  0  0  0  0  0  0  0  0
  128.9661  123.7322   65.0049 H   0  0  0  0  0  0  0  0  0  0  0  0
  129.5385  127.5461   63.1745 H   0  0  0  0  0  0  0  0  0  0  0  0
  126.3118  129.6259   64.8470 H   0  0  0  0  0  0  0  0  0  0  0  0
  125.5703  131.7007   63.7221 H   0  0  0  0  0  0  0  0  0  0  0  0
  128.7891  134.5292   62.8751 H   0  0  0  0  0  0  0  0  0  0  0  0
  128.6683  134.1005   61.1026 H   0  0  0  0  0  0  0  0  0  0  0  0
  126.9989  136.1852   62.5895 H   0  0  0  0  0  0  0  0  0  0  0  0
  128.3004  136.4954   61.3852 H   0  0  0  0  0  0  0  0  0  0  0  0
  124.9906  135.1807   61.8772 H   0  0  0  0  0  0  0  0  0  0  0  0
  124.7974  134.7367   60.1431 H   0  0  0  0  0  0  0  0  0  0  0  0
  125.2392  132.7535   61.6244 H   0  0  0  0  0  0  0  0  0  0  0  0
  126.5176  133.0233   60.3448 H   0  0  0  0  0  0  0  0  0  0  0  0
  129.5992  132.3823   62.3269 H   0  0  0  0  0  0  0  0  0  0  0  0
  130.3404  130.3119   63.4615 H   0  0  0  0  0  0  0  0  0  0  0  0
  131.1037  127.6837   69.2728 H   0  0  0  0  0  0  0  0  0  0  0  0
  130.3805  129.3340   69.0472 H   0  0  0  0  0  0  0  0  0  0  0  0
  129.3790  130.3610   70.7040 H   0  0  0  0  0  0  0  0  0  0  0  0
  129.7558  132.2901   72.5091 H   0  0  0  0  0  0  0  0  0  0  0  0
  129.2022  132.2851   75.1338 H   0  0  0  0  0  0  0  0  0  0  0  0
  1  2  3  0
  2  3  1  0
  3  4  2  0
  4  5  1  0
  5  6  2  0
  6  7  1  0
  7  8  2  0
  8  9  1  0
  9 10  1  0
 10 11  1  0
 11 12  1  0
 12 13  1  0
 13 14  1  0
  8 15  1  0
 15 16  2  0
  4 17  1  0
 17 18  2  0
 18 19  1  0
 19 20  2  0
 20 21  1  0
 21 22  2  0
 22 23  1  0
 23 24  1  0
 24 25  1  0
 25 26  1  0
 26 27  1  0
 27 28  1  0
 22 29  1  0
 29 30  2  0
 18 31  1  0
 31 32  2  0
 32 33  1  0
 33 34  1  0
 34 35  1  0
 35 36  2  0
 35 37  1  0
 37 38  1  0
 38 39  1  0
 39 40  2  0
 40 41  1  0
 41 42  1  0
 32  3  1  0
 42 38  2  0
 16  5  1  0
 30 19  1  0
 14  9  1  0
 28 23  1  0
  6 43  1  0
  7 44  1  0
 10 45  1  0
 10 46  1  0
 11 47  1  0
 11 48  1  0
 13 49  1  0
 13 50  1  0
 14 51  1  0
 14 52  1  0
 15 53  1  0
 16 54  1  0
 17 55  1  0
 20 56  1  0
 21 57  1  0
 24 58  1  0
 24 59  1  0
 25 60  1  0
 25 61  1  0
 27 62  1  0
 27 63  1  0
 28 64  1  0
 28 65  1  0
 29 66  1  0
 30 67  1  0
 34 68  1  0
 34 69  1  0
 37 70  1  0
 39 71  1  0
 40 72  1  0
M  END
>  <Binding energies>  (1) 
[-9.86]

>  <Ligand effiencies>  (1) 
[-0.22930232558139532]

>  <Interactions>  (1) 
["H-A:TYR:484:OH:4343, V-A:GLU:543:CD:4903, V-A:GLU:543:CG:4902, V-A:GLU:543:CB:4901, V-B:GLU:543:CG:9875, V-A:HIS:456:CE1:4064, V-B:GLU:543:CD:9876, V-A:GLU:543:C:4897, V-B:GLU:543:CB:9874, V-A:LEU:475:CD2:4254, V-B:TYR:539:CD2:9842, V-A:TRP:381:CZ2:3365, V-A:TRP:381:CH2:3367, V-B:ALA:541:CB:9860, V-A:ALA:541:CB:4887, V-A:ALA:541:CA:4885, V-A:TYR:539:CE2:4871, V-A:ILE:369:CD1:3234, V-B:HIS:456:CD2:9035, H-A:LYS:547:NZ:4946, H-A:HIS:456:NE2:4065, H-A:GLU:543:O:4898, H-B:HIS:456:NE2:9038, V-A:LYS:547:CE:4945, V-B:LEU:475:CD2:9226, V-A:TYR:539:CD2:4869, V-A:ILE:369:CG2:3232, V-B:TRP:381:CH2:8339, V-B:LEU:475:CD1:9225, V-B:PRO:482:CB:9293"]

$$$$
2b_Grossjean_2025
     RDKit          3D

 42 43  0  0  0  0  0  0  0  0999 V2000
  130.3400  125.3850   72.6610 C   0  0  0  0  0  0  0  0  0  0  0  0
  129.3740  126.3630   73.0160 O   0  0  0  0  0  0  0  0  0  0  0  0
  129.4970  127.6510   72.6030 C   0  0  0  0  0  0  0  0  0  0  0  0
  129.8340  128.5750   73.3490 O   0  0  0  0  0  0  0  0  0  0  0  0
  129.1790  127.8390   71.1470 C   0  0  0  0  0  0  0  0  0  0  0  0
  129.9430  128.6790   70.3240 C   0  0  0  0  0  0  0  0  0  0  0  0
  129.6210  128.8330   68.9780 C   0  0  0  0  0  0  0  0  0  0  0  0
  128.5370  128.1490   68.4280 C   0  0  0  0  0  0  0  0  0  0  0  0
  128.2960  128.3820   67.0600 N   0  0  0  0  0  0  0  0  0  0  0  0
  127.1750  128.1810   66.3360 C   0  0  0  0  0  0  0  0  0  0  0  0
  126.1220  127.7090   66.7680 O   0  0  0  0  0  0  0  0  0  0  0  0
  127.2740  128.5690   64.8570 C   0  0  0  0  0  0  0  0  0  0  0  0
  128.3040  130.0460   64.5710 S   0  0  0  0  0  0  0  0  0  0  0  0
  127.3870  131.2570   63.6290 C   0  0  0  0  0  0  0  0  0  0  0  0
  126.0370  131.2090   63.7640 N   0  0  0  0  0  0  0  0  0  0  0  0
  125.2800  132.0920   63.0770 C   0  0  0  0  0  0  0  0  0  0  0  0
  123.7810  131.9640   63.2720 C   0  0  0  0  0  0  0  0  0  0  0  0
  125.8280  133.0590   62.2390 C   0  0  0  0  0  0  0  0  0  0  0  0
  127.2210  133.1320   62.0890 C   0  0  0  0  0  0  0  0  0  0  0  0
  127.8120  134.2110   61.1620 C   0  0  0  0  0  0  0  0  0  0  0  0
  126.8310  134.9400   60.6280 F   0  0  0  0  0  0  0  0  0  0  0  0
  128.6220  135.0160   61.8520 F   0  0  0  0  0  0  0  0  0  0  0  0
  128.5220  133.6960   60.1560 F   0  0  0  0  0  0  0  0  0  0  0  0
  128.0280  132.2070   62.8000 C   0  0  0  0  0  0  0  0  0  0  0  0
  129.4890  132.2340   62.6770 C   0  0  0  0  0  0  0  0  0  0  0  0
  130.6420  132.2550   62.5800 N   0  0  0  0  0  0  0  0  0  0  0  0
  127.7630  127.3130   69.2460 C   0  0  0  0  0  0  0  0  0  0  0  0
  128.0860  127.1610   70.5910 C   0  0  0  0  0  0  0  0  0  0  0  0
  130.7717  124.9479   73.5735 H   0  0  0  0  0  0  0  0  0  0  0  0
  129.8594  124.5935   72.0672 H   0  0  0  0  0  0  0  0  0  0  0  0
  131.1374  125.8558   72.0672 H   0  0  0  0  0  0  0  0  0  0  0  0
  130.8031  129.2203   70.7449 H   0  0  0  0  0  0  0  0  0  0  0  0
  130.2256  129.4985   68.3443 H   0  0  0  0  0  0  0  0  0  0  0  0
  129.1040  128.7030   66.5470 H   0  0  0  0  0  0  0  0  0  0  0  0
  127.7106  127.7253   64.3024 H   0  0  0  0  0  0  0  0  0  0  0  0
  126.2570  128.8072   64.5121 H   0  0  0  0  0  0  0  0  0  0  0  0
  123.5515  131.9444   64.3476 H   0  0  0  0  0  0  0  0  0  0  0  0
  123.2759  132.8223   62.8049 H   0  0  0  0  0  0  0  0  0  0  0  0
  123.4287  131.0325   62.8049 H   0  0  0  0  0  0  0  0  0  0  0  0
  125.1744  133.7599   61.6990 H   0  0  0  0  0  0  0  0  0  0  0  0
  126.9000  126.7771   68.8241 H   0  0  0  0  0  0  0  0  0  0  0  0
  127.4761  126.5008   71.2252 H   0  0  0  0  0  0  0  0  0  0  0  0
  1  2  1  0
  2  3  1  0
  3  4  2  0
  3  5  1  0
  5  6  2  0
  6  7  1  0
  7  8  2  0
  8  9  1  0
  9 10  1  0
 10 11  2  0
 10 12  1  0
 12 13  1  0
 13 14  1  0
 14 15  2  0
 15 16  1  0
 16 17  1  0
 16 18  2  0
 18 19  1  0
 19 20  1  0
 20 21  1  0
 20 22  1  0
 20 23  1  0
 19 24  2  0
 24 25  1  0
 25 26  3  0
  8 27  1  0
 27 28  2  0
 28  5  1  0
 24 14  1  0
  1 29  1  0
  1 30  1  0
  1 31  1  0
  6 32  1  0
  7 33  1  0
  9 34  1  0
 12 35  1  0
 12 36  1  0
 17 37  1  0
 17 38  1  0
 17 39  1  0
 18 40  1  0
 27 41  1  0
 28 42  1  0
M  END
>  <Binding energies>  (1) 
[-6.76]

>  <Ligand effiencies>  (1) 
[-0.23310344827586207]

>  <Interactions>  (1) 
["V-A:PRO:540:CA:4878, V-A:GLU:543:CG:4902, V-A:GLU:543:CB:4901, V-A:HIS:456:CE1:4064, V-B:HIS:456:CE1:9037, H-A:GLU:543:OE1:4904, H-B:TYR:484:OH:9315, V-A:PRO:540:C:4876, H-A:ALA:541:N:4886, V-A:ALA:541:CB:4887, V-A:ALA:541:CA:4885, V-A:TYR:539:CE2:4871, V-A:PRO:540:N:4879, H-B:LYS:547:NZ:9919, H-A:LYS:547:NZ:4946, H-B:ARG:545:NE:9892, V-B:ILE:369:CD1:8206, V-B:LEU:475:CD2:9226, V-A:TYR:539:CD2:4869, V-A:TYR:539:C:4862, V-B:TRP:381:CH2:8339, V-B:GLY:454:CA:9016"]

$$$$
2c_Ghoteimi_2023
     RDKit          3D

 72 77  0  0  0  0  0  0  0  0999 V2000
  131.5670  126.6450   74.5030 N   0  0  0  0  0  0  0  0  0  0  0  0
  131.0010  126.8270   73.5110 C   0  0  0  0  0  0  0  0  0  0  0  0
  130.2810  127.0520   72.2540 C   0  0  0  0  0  0  0  0  0  0  0  0
  129.7050  125.9670   71.5480 C   0  0  0  0  0  0  0  0  0  0  0  0
  129.7810  124.5460   72.0020 C   0  0  0  0  0  0  0  0  0  0  0  0
  129.2460  124.1730   73.2360 C   0  0  0  0  0  0  0  0  0  0  0  0
  129.3080  122.8500   73.6640 C   0  0  0  0  0  0  0  0  0  0  0  0
  129.9200  121.8630   72.8750 C   0  0  0  0  0  0  0  0  0  0  0  0
  129.9750  120.5260   73.2760 N   0  0  0  0  0  0  0  0  0  0  0  0
  131.1570  120.0430   74.0170 C   0  0  0  0  0  0  0  0  0  0  0  0
  131.2660  118.5030   74.0520 C   0  0  0  0  0  0  0  0  0  0  0  0
  130.0740  117.9430   74.5800 O   0  0  0  0  0  0  0  0  0  0  0  0
  128.9420  118.2830   73.7940 C   0  0  0  0  0  0  0  0  0  0  0  0
  128.7720  119.8160   73.7510 C   0  0  0  0  0  0  0  0  0  0  0  0
  130.4570  122.2480   71.6390 C   0  0  0  0  0  0  0  0  0  0  0  0
  130.3930  123.5710   71.2100 C   0  0  0  0  0  0  0  0  0  0  0  0
  129.0240  126.2350   70.3530 C   0  0  0  0  0  0  0  0  0  0  0  0
  128.8970  127.5480   69.8900 C   0  0  0  0  0  0  0  0  0  0  0  0
  128.1660  127.8870   68.6310 C   0  0  0  0  0  0  0  0  0  0  0  0
  127.0370  127.1590   68.2420 C   0  0  0  0  0  0  0  0  0  0  0  0
  126.3480  127.4740   67.0730 C   0  0  0  0  0  0  0  0  0  0  0  0
  126.7710  128.5240   66.2420 C   0  0  0  0  0  0  0  0  0  0  0  0
  126.0760  128.8700   65.0780 N   0  0  0  0  0  0  0  0  0  0  0  0
  125.0700  129.9510   65.1160 C   0  0  0  0  0  0  0  0  0  0  0  0
  124.1280  129.9620   63.8940 C   0  0  0  0  0  0  0  0  0  0  0  0
  124.8850  130.0190   62.6970 O   0  0  0  0  0  0  0  0  0  0  0  0
  125.7420  128.8960   62.5700 C   0  0  0  0  0  0  0  0  0  0  0  0
  126.7310  128.8480   63.7540 C   0  0  0  0  0  0  0  0  0  0  0  0
  127.8950  129.2590   66.6430 C   0  0  0  0  0  0  0  0  0  0  0  0
  128.5820  128.9450   67.8130 C   0  0  0  0  0  0  0  0  0  0  0  0
  129.4470  128.5860   70.5700 N   0  0  0  0  0  0  0  0  0  0  0  0
  130.1370  128.3490   71.7110 C   0  0  0  0  0  0  0  0  0  0  0  0
  130.7970  129.8200   72.4620 S   0  0  0  0  0  0  0  0  0  0  0  0
  129.3890  130.8360   73.0010 C   0  0  0  0  0  0  0  0  0  0  0  0
  128.3320  130.0100   73.7350 C   0  0  0  0  0  0  0  0  0  0  0  0
  128.6200  128.8820   74.1390 O   0  0  0  0  0  0  0  0  0  0  0  0
  127.1270  130.6020   73.8800 N   0  0  0  0  0  0  0  0  0  0  0  0
  126.0140  130.0730   74.5170 C   0  0  0  0  0  0  0  0  0  0  0  0
  125.5180  128.8600   74.4030 N   0  0  0  0  0  0  0  0  0  0  0  0
  124.4530  128.6990   75.1630 C   0  0  0  0  0  0  0  0  0  0  0  0
  124.0630  129.8010   75.9180 C   0  0  0  0  0  0  0  0  0  0  0  0
  125.1590  131.1140   75.6090 S   0  0  0  0  0  0  0  0  0  0  0  0
  128.7712  124.9313   73.8759 H   0  0  0  0  0  0  0  0  0  0  0  0
  128.8710  122.5736   74.6349 H   0  0  0  0  0  0  0  0  0  0  0  0
  132.0601  120.4465   73.5358 H   0  0  0  0  0  0  0  0  0  0  0  0
  131.0538  120.3870   75.0567 H   0  0  0  0  0  0  0  0  0  0  0  0
  131.4242  118.1259   73.0308 H   0  0  0  0  0  0  0  0  0  0  0  0
  132.1135  118.2159   74.6918 H   0  0  0  0  0  0  0  0  0  0  0  0
  129.0810  117.9029   72.7712 H   0  0  0  0  0  0  0  0  0  0  0  0
  128.0434  117.8320   74.2401 H   0  0  0  0  0  0  0  0  0  0  0  0
  127.9368  120.0554   73.0764 H   0  0  0  0  0  0  0  0  0  0  0  0
  128.5832  120.1508   74.7817 H   0  0  0  0  0  0  0  0  0  0  0  0
  130.9363  121.4934   70.9981 H   0  0  0  0  0  0  0  0  0  0  0  0
  130.8280  123.8511   70.2392 H   0  0  0  0  0  0  0  0  0  0  0  0
  128.5866  125.4071   69.7756 H   0  0  0  0  0  0  0  0  0  0  0  0
  126.6878  126.3251   68.8686 H   0  0  0  0  0  0  0  0  0  0  0  0
  125.4576  126.8904   66.7962 H   0  0  0  0  0  0  0  0  0  0  0  0
  124.4608  129.8272   66.0235 H   0  0  0  0  0  0  0  0  0  0  0  0
  125.6200  130.9036   65.1077 H   0  0  0  0  0  0  0  0  0  0  0  0
  123.5185  129.0463   63.8960 H   0  0  0  0  0  0  0  0  0  0  0  0
  123.4753  130.8456   63.9501 H   0  0  0  0  0  0  0  0  0  0  0  0
  125.1383  127.9765   62.5625 H   0  0  0  0  0  0  0  0  0  0  0  0
  126.3082  128.9792   61.6306 H   0  0  0  0  0  0  0  0  0  0  0  0
  127.3225  127.9240   63.6748 H   0  0  0  0  0  0  0  0  0  0  0  0
  127.3535  129.7526   63.6889 H   0  0  0  0  0  0  0  0  0  0  0  0
  128.2407  130.0989   66.0225 H   0  0  0  0  0  0  0  0  0  0  0  0
  129.4642  129.5366   68.0988 H   0  0  0  0  0  0  0  0  0  0  0  0
  129.7569  131.6223   73.6765 H   0  0  0  0  0  0  0  0  0  0  0  0
  128.9197  131.2677   72.1047 H   0  0  0  0  0  0  0  0  0  0  0  0
  127.0180  131.5360   73.5110 H   0  0  0  0  0  0  0  0  0  0  0  0
  123.9033  127.7468   75.1984 H   0  0  0  0  0  0  0  0  0  0  0  0
  123.2006  129.8355   76.6000 H   0  0  0  0  0  0  0  0  0  0  0  0
  1  2  3  0
  2  3  1  0
  3  4  2  0
  4  5  1  0
  5  6  2  0
  6  7  1  0
  7  8  2  0
  8  9  1  0
  9 10  1  0
 10 11  1  0
 11 12  1  0
 12 13  1  0
 13 14  1  0
  8 15  1  0
 15 16  2  0
  4 17  1  0
 17 18  2  0
 18 19  1  0
 19 20  2  0
 20 21  1  0
 21 22  2  0
 22 23  1  0
 23 24  1  0
 24 25  1  0
 25 26  1  0
 26 27  1  0
 27 28  1  0
 22 29  1  0
 29 30  2  0
 18 31  1  0
 31 32  2  0
 32 33  1  0
 33 34  1  0
 34 35  1  0
 35 36  2  0
 35 37  1  0
 37 38  1  0
 38 39  2  0
 39 40  1  0
 40 41  2  0
 41 42  1  0
 32  3  1  0
 42 38  1  0
 16  5  1  0
 30 19  1  0
 14  9  1  0
 28 23  1  0
  6 43  1  0
  7 44  1  0
 10 45  1  0
 10 46  1  0
 11 47  1  0
 11 48  1  0
 13 49  1  0
 13 50  1  0
 14 51  1  0
 14 52  1  0
 15 53  1  0
 16 54  1  0
 17 55  1  0
 20 56  1  0
 21 57  1  0
 24 58  1  0
 24 59  1  0
 25 60  1  0
 25 61  1  0
 27 62  1  0
 27 63  1  0
 28 64  1  0
 28 65  1  0
 29 66  1  0
 30 67  1  0
 34 68  1  0
 34 69  1  0
 37 70  1  0
 40 71  1  0
 41 72  1  0
M  END
>  <Binding energies>  (1) 
[-9.89]

>  <Ligand effiencies>  (1) 
[-0.23]

>  <Interactions>  (1) 
["V-A:GLU:543:CB:4901, V-A:HIS:456:CE1:4064, V-B:HIS:456:CE1:9037, V-B:GLU:543:CD:9876, V-B:GLU:543:CB:9874, V-B:ARG:545:CZ:9894, V-B:ARG:545:CG:9890, V-A:HIS:456:CD2:4063, V-B:GLU:543:C:9870, H-B:LYS:547:NZ:9919, V-B:HIS:456:CD2:9035, H-A:LYS:547:NZ:4946, V-A:TYR:484:CD1:4338, V-A:TYR:484:CD2:4339, V-A:HIS:456:CG:4061, V-A:TYR:484:CB:4336, V-B:LYS:547:CE:9918, V-A:TYR:484:CG:4337, V-B:ASP:473:CG:9207, V-B:HIS:456:CG:9033, V-B:HIS:456:CB:9032, V-A:LYS:547:CE:4945, V-A:ASP:473:CG:4235, V-A:ASP:473:CB:4234, V-A:TYR:484:C:4332, V-B:LYS:547:CD:9917, V-B:VAL:458:CG2:9054, V-B:HIS:456:C:9028, V-B:LYS:547:CG:9916, V-A:ASP:485:CA:4348, V-B:VAL:457:C:9040, V-B:VAL:457:CA:9042, V-A:ASP:485:C:4346"]

$$$$
2c_Grossjean_2025
     RDKit          3D

 40 41  0  0  0  0  0  0  0  0999 V2000
  129.3560  128.5240   67.4220 C   0  0  0  0  0  0  0  0  0  0  0  0
  128.8630  127.2850   66.9230 O   0  0  0  0  0  0  0  0  0  0  0  0
  129.6450  126.5510   66.0520 C   0  0  0  0  0  0  0  0  0  0  0  0
  129.6530  126.9670   64.7210 C   0  0  0  0  0  0  0  0  0  0  0  0
  130.4090  126.2890   63.7680 C   0  0  0  0  0  0  0  0  0  0  0  0
  131.1660  125.1700   64.1420 C   0  0  0  0  0  0  0  0  0  0  0  0
  131.9740  124.4340   63.2570 N   0  0  0  0  0  0  0  0  0  0  0  0
  133.3080  124.2280   63.3060 C   0  0  0  0  0  0  0  0  0  0  0  0
  134.0630  124.7210   64.1460 O   0  0  0  0  0  0  0  0  0  0  0  0
  133.8670  123.3370   62.1860 C   0  0  0  0  0  0  0  0  0  0  0  0
  132.9580  123.4020   60.6030 S   0  0  0  0  0  0  0  0  0  0  0  0
  131.4380  122.4710   60.7510 C   0  0  0  0  0  0  0  0  0  0  0  0
  130.3050  123.2100   60.8690 N   0  0  0  0  0  0  0  0  0  0  0  0
  129.1200  122.5730   60.9950 C   0  0  0  0  0  0  0  0  0  0  0  0
  127.9040  123.4680   61.1390 C   0  0  0  0  0  0  0  0  0  0  0  0
  129.0110  121.1840   60.9990 C   0  0  0  0  0  0  0  0  0  0  0  0
  130.1660  120.4010   60.8710 C   0  0  0  0  0  0  0  0  0  0  0  0
  130.0280  118.8660   60.8750 C   0  0  0  0  0  0  0  0  0  0  0  0
  128.7670  118.5220   61.1410 F   0  0  0  0  0  0  0  0  0  0  0  0
  130.3710  118.3720   59.6850 F   0  0  0  0  0  0  0  0  0  0  0  0
  130.8050  118.2820   61.7910 F   0  0  0  0  0  0  0  0  0  0  0  0
  131.4170  121.0560   60.7430 C   0  0  0  0  0  0  0  0  0  0  0  0
  132.6590  120.2870   60.6080 C   0  0  0  0  0  0  0  0  0  0  0  0
  133.6390  119.6800   60.5010 N   0  0  0  0  0  0  0  0  0  0  0  0
  131.1750  124.7590   65.4760 C   0  0  0  0  0  0  0  0  0  0  0  0
  130.4170  125.4390   66.4250 C   0  0  0  0  0  0  0  0  0  0  0  0
  129.3486  128.5054   68.5218 H   0  0  0  0  0  0  0  0  0  0  0  0
  130.3847  128.6799   67.0649 H   0  0  0  0  0  0  0  0  0  0  0  0
  128.7156  129.3440   67.0649 H   0  0  0  0  0  0  0  0  0  0  0  0
  129.0555  127.8404   64.4205 H   0  0  0  0  0  0  0  0  0  0  0  0
  130.4121  126.6313   62.7226 H   0  0  0  0  0  0  0  0  0  0  0  0
  131.4910  124.0690   62.4490 H   0  0  0  0  0  0  0  0  0  0  0  0
  134.9052  123.6454   61.9937 H   0  0  0  0  0  0  0  0  0  0  0  0
  133.7719  122.3023   62.5470 H   0  0  0  0  0  0  0  0  0  0  0  0
  127.6893  123.6260   62.2062 H   0  0  0  0  0  0  0  0  0  0  0  0
  128.1028  124.4369   60.6576 H   0  0  0  0  0  0  0  0  0  0  0  0
  127.0380  122.9902   60.6576 H   0  0  0  0  0  0  0  0  0  0  0  0
  128.0258  120.7057   61.1019 H   0  0  0  0  0  0  0  0  0  0  0  0
  131.7837  123.8941   65.7785 H   0  0  0  0  0  0  0  0  0  0  0  0
  130.4228  125.1035   67.4726 H   0  0  0  0  0  0  0  0  0  0  0  0
  1  2  1  0
  2  3  1  0
  3  4  2  0
  4  5  1  0
  5  6  2  0
  6  7  1  0
  7  8  1  0
  8  9  2  0
  8 10  1  0
 10 11  1  0
 11 12  1  0
 12 13  2  0
 13 14  1  0
 14 15  1  0
 14 16  2  0
 16 17  1  0
 17 18  1  0
 18 19  1  0
 18 20  1  0
 18 21  1  0
 17 22  2  0
 22 23  1  0
 23 24  3  0
  6 25  1  0
 25 26  2  0
 26  3  1  0
 22 12  1  0
  1 27  1  0
  1 28  1  0
  1 29  1  0
  4 30  1  0
  5 31  1  0
  7 32  1  0
 10 33  1  0
 10 34  1  0
 15 35  1  0
 15 36  1  0
 15 37  1  0
 16 38  1  0
 25 39  1  0
 26 40  1  0
M  END
>  <Binding energies>  (1) 
[-5.85]

>  <Ligand effiencies>  (1) 
[-0.21666666666666665]

>  <Interactions>  (1) 
["H-A:TYR:484:OH:4343, H-A:GLY:454:N:4045, V-A:GLU:543:CD:4903, V-A:GLU:543:CG:4902, V-A:GLU:543:CB:4901, V-B:GLU:543:CG:9875, V-B:GLU:543:CD:9876, V-A:PRO:482:CB:4321, V-A:LEU:475:CD2:4254, V-B:TYR:539:CD2:9842, V-A:TRP:381:CZ3:3366, V-A:TRP:381:CZ2:3365, V-A:TYR:484:CZ:4342, V-A:PRO:482:CG:4322, V-A:TRP:381:CH2:3367, V-A:LEU:475:CD1:4253, V-B:TYR:539:CE2:9844, V-B:ALA:541:CB:9860, V-A:ILE:369:CD1:3234, V-B:PRO:540:CA:9851, V-A:ILE:369:CG2:3232, V-B:PRO:540:C:9849, V-B:ALA:541:CA:9858, V-B:TYR:539:C:9835, V-A:TRP:381:CE3:3363, V-B:TYR:539:CB:9839, V-A:TRP:381:CD2:3360, V-A:TRP:381:CE2:3362, V-A:LEU:475:CG:4252, V-B:TYR:539:CG:9840"]

$$$$
2d_Ghoteimi_2023
     RDKit          3D

 68 72  0  0  0  0  0  0  0  0999 V2000
  129.7050  126.7770   71.8600 C   0  0  0  0  0  0  0  0  0  0  0  0
  128.3980  126.3080   71.5640 O   0  0  0  0  0  0  0  0  0  0  0  0
  127.5040  127.1120   70.9520 C   0  0  0  0  0  0  0  0  0  0  0  0
  126.6920  127.8460   71.5230 O   0  0  0  0  0  0  0  0  0  0  0  0
  127.6190  127.0130   69.4240 C   0  0  0  0  0  0  0  0  0  0  0  0
  129.0630  127.9440   68.8080 S   0  0  0  0  0  0  0  0  0  0  0  0
  129.1550  127.7320   67.0420 C   0  0  0  0  0  0  0  0  0  0  0  0
  128.7520  128.8260   66.3500 N   0  0  0  0  0  0  0  0  0  0  0  0
  128.7620  128.8030   64.9930 C   0  0  0  0  0  0  0  0  0  0  0  0
  128.2870  130.0380   64.2990 C   0  0  0  0  0  0  0  0  0  0  0  0
  126.9270  130.3660   64.2800 C   0  0  0  0  0  0  0  0  0  0  0  0
  126.4770  131.5150   63.6360 C   0  0  0  0  0  0  0  0  0  0  0  0
  127.3740  132.3850   62.9960 C   0  0  0  0  0  0  0  0  0  0  0  0
  126.9360  133.5340   62.3280 N   0  0  0  0  0  0  0  0  0  0  0  0
  127.8800  134.5860   61.9020 C   0  0  0  0  0  0  0  0  0  0  0  0
  127.1960  135.9180   61.5310 C   0  0  0  0  0  0  0  0  0  0  0  0
  126.2080  135.6930   60.5370 O   0  0  0  0  0  0  0  0  0  0  0  0
  125.2040  134.8010   60.9910 C   0  0  0  0  0  0  0  0  0  0  0  0
  125.8300  133.4380   61.3540 C   0  0  0  0  0  0  0  0  0  0  0  0
  128.7340  132.0450   63.0050 C   0  0  0  0  0  0  0  0  0  0  0  0
  129.1830  130.8950   63.6480 C   0  0  0  0  0  0  0  0  0  0  0  0
  129.1880  127.6690   64.2950 C   0  0  0  0  0  0  0  0  0  0  0  0
  129.6410  126.5390   64.9860 C   0  0  0  0  0  0  0  0  0  0  0  0
  130.1070  125.3750   64.1740 C   0  0  0  0  0  0  0  0  0  0  0  0
  129.7730  124.0740   64.5540 C   0  0  0  0  0  0  0  0  0  0  0  0
  130.1910  122.9830   63.7980 C   0  0  0  0  0  0  0  0  0  0  0  0
  130.9620  123.1640   62.6370 C   0  0  0  0  0  0  0  0  0  0  0  0
  131.3820  122.0840   61.8560 N   0  0  0  0  0  0  0  0  0  0  0  0
  132.6290  122.1430   61.0690 C   0  0  0  0  0  0  0  0  0  0  0  0
  133.1090  120.7630   60.5700 C   0  0  0  0  0  0  0  0  0  0  0  0
  132.0750  120.1270   59.8350 O   0  0  0  0  0  0  0  0  0  0  0  0
  130.9130  119.9310   60.6260 C   0  0  0  0  0  0  0  0  0  0  0  0
  130.3760  121.2900   61.1230 C   0  0  0  0  0  0  0  0  0  0  0  0
  131.2780  124.4740   62.2530 C   0  0  0  0  0  0  0  0  0  0  0  0
  130.8580  125.5640   63.0090 C   0  0  0  0  0  0  0  0  0  0  0  0
  129.6330  126.5650   66.4030 C   0  0  0  0  0  0  0  0  0  0  0  0
  130.1160  125.4130   67.1700 C   0  0  0  0  0  0  0  0  0  0  0  0
  130.4980  124.5020   67.7730 N   0  0  0  0  0  0  0  0  0  0  0  0
  129.8390  126.8251   72.9507 H   0  0  0  0  0  0  0  0  0  0  0  0
  130.4476  126.0893   71.4293 H   0  0  0  0  0  0  0  0  0  0  0  0
  129.8409  127.7800   71.4293 H   0  0  0  0  0  0  0  0  0  0  0  0
  127.7263  125.9557   69.1402 H   0  0  0  0  0  0  0  0  0  0  0  0
  126.7108  127.4445   68.9780 H   0  0  0  0  0  0  0  0  0  0  0  0
  126.2031  129.7065   64.7811 H   0  0  0  0  0  0  0  0  0  0  0  0
  125.4014  131.7451   63.6284 H   0  0  0  0  0  0  0  0  0  0  0  0
  128.5847  134.7747   62.7253 H   0  0  0  0  0  0  0  0  0  0  0  0
  128.3834  134.2190   60.9954 H   0  0  0  0  0  0  0  0  0  0  0  0
  126.7218  136.3463   62.4263 H   0  0  0  0  0  0  0  0  0  0  0  0
  127.9507  136.6162   61.1401 H   0  0  0  0  0  0  0  0  0  0  0  0
  124.7155  135.2254   61.8805 H   0  0  0  0  0  0  0  0  0  0  0  0
  124.4634  134.6553   60.1908 H   0  0  0  0  0  0  0  0  0  0  0  0
  125.0445  132.7980   61.7822 H   0  0  0  0  0  0  0  0  0  0  0  0
  126.2522  133.0209   60.4278 H   0  0  0  0  0  0  0  0  0  0  0  0
  129.4582  132.6977   62.4956 H   0  0  0  0  0  0  0  0  0  0  0  0
  130.2567  130.6560   63.6447 H   0  0  0  0  0  0  0  0  0  0  0  0
  129.1671  127.6647   63.1952 H   0  0  0  0  0  0  0  0  0  0  0  0
  129.1728  123.9094   65.4610 H   0  0  0  0  0  0  0  0  0  0  0  0
  129.9144  121.9660   64.1131 H   0  0  0  0  0  0  0  0  0  0  0  0
  132.4589  122.7892   60.1952 H   0  0  0  0  0  0  0  0  0  0  0  0
  133.4122  122.5369   61.7334 H   0  0  0  0  0  0  0  0  0  0  0  0
  133.9882  120.8953   59.9223 H   0  0  0  0  0  0  0  0  0  0  0  0
  133.3743  120.1380   61.4354 H   0  0  0  0  0  0  0  0  0  0  0  0
  130.1405  119.4335   60.0212 H   0  0  0  0  0  0  0  0  0  0  0  0
  131.1688  119.3052   61.4937 H   0  0  0  0  0  0  0  0  0  0  0  0
  130.0393  121.8717   60.2522 H   0  0  0  0  0  0  0  0  0  0  0  0
  129.5548  121.0787   61.8237 H   0  0  0  0  0  0  0  0  0  0  0  0
  131.8673  124.6433   61.3397 H   0  0  0  0  0  0  0  0  0  0  0  0
  131.1188  126.5832   62.6878 H   0  0  0  0  0  0  0  0  0  0  0  0
  1  2  1  0
  2  3  1  0
  3  4  2  0
  3  5  1  0
  5  6  1  0
  6  7  1  0
  7  8  2  0
  8  9  1  0
  9 10  1  0
 10 11  2  0
 11 12  1  0
 12 13  2  0
 13 14  1  0
 14 15  1  0
 15 16  1  0
 16 17  1  0
 17 18  1  0
 18 19  1  0
 13 20  1  0
 20 21  2  0
  9 22  2  0
 22 23  1  0
 23 24  1  0
 24 25  2  0
 25 26  1  0
 26 27  2  0
 27 28  1  0
 28 29  1  0
 29 30  1  0
 30 31  1  0
 31 32  1  0
 32 33  1  0
 27 34  1  0
 34 35  2  0
 23 36  2  0
 36 37  1  0
 37 38  3  0
 36  7  1  0
 21 10  1  0
 35 24  1  0
 19 14  1  0
 33 28  1  0
  1 39  1  0
  1 40  1  0
  1 41  1  0
  5 42  1  0
  5 43  1  0
 11 44  1  0
 12 45  1  0
 15 46  1  0
 15 47  1  0
 16 48  1  0
 16 49  1  0
 18 50  1  0
 18 51  1  0
 19 52  1  0
 19 53  1  0
 20 54  1  0
 21 55  1  0
 22 56  1  0
 25 57  1  0
 26 58  1  0
 29 59  1  0
 29 60  1  0
 30 61  1  0
 30 62  1  0
 32 63  1  0
 32 64  1  0
 33 65  1  0
 33 66  1  0
 34 67  1  0
 35 68  1  0
M  END
>  <Binding energies>  (1) 
[-8.15]

>  <Ligand effiencies>  (1) 
[-0.21447368421052632]

>  <Interactions>  (1) 
["H-A:TYR:484:OH:4343, V-A:GLU:543:CD:4903, V-A:GLU:543:CG:4902, V-B:GLU:543:CG:9875, V-A:HIS:456:CE1:4064, V-B:HIS:456:CE1:9037, V-B:GLU:543:CD:9876, V-B:GLU:543:CB:9874, V-A:LEU:475:CD2:4254, V-B:TYR:539:CD2:9842, V-A:TRP:381:CH2:3367, V-B:ALA:541:CB:9860, V-A:ALA:541:CB:4887, V-A:TYR:539:CE2:4871, V-A:ILE:369:CD1:3234, V-B:GLU:543:C:9870, H-B:LYS:547:NZ:9919, H-A:HIS:456:NE2:4065, V-B:LEU:475:CG:9224, V-B:LEU:475:CD2:9226, V-A:TYR:539:CD2:4869, V-A:ILE:369:CG2:3232, V-B:TRP:381:CH2:8339, V-B:TRP:381:CZ2:8337, V-B:GLY:544:C:9880, H-B:HIS:456:ND1:9034, V-B:LEU:475:CD1:9225"]

$$$$
2d_Grossjean_2025
     RDKit          3D

 36 37  0  0  0  0  0  0  0  0999 V2000
  133.8970  123.5550   59.0280 C   0  0  0  0  0  0  0  0  0  0  0  0
  133.0270  123.2890   60.2420 C   0  0  0  0  0  0  0  0  0  0  0  0
  131.8480  122.5540   60.1480 C   0  0  0  0  0  0  0  0  0  0  0  0
  131.0800  122.3300   61.3010 C   0  0  0  0  0  0  0  0  0  0  0  0
  129.7840  121.5070   61.1790 C   0  0  0  0  0  0  0  0  0  0  0  0
  128.7900  122.1230   61.8190 F   0  0  0  0  0  0  0  0  0  0  0  0
  129.4500  121.3670   59.8940 F   0  0  0  0  0  0  0  0  0  0  0  0
  129.8980  120.2830   61.6980 F   0  0  0  0  0  0  0  0  0  0  0  0
  131.5320  122.8710   62.5310 C   0  0  0  0  0  0  0  0  0  0  0  0
  130.7910  122.6270   63.7720 C   0  0  0  0  0  0  0  0  0  0  0  0
  130.2060  122.4320   64.7510 N   0  0  0  0  0  0  0  0  0  0  0  0
  132.7290  123.6260   62.5270 C   0  0  0  0  0  0  0  0  0  0  0  0
  133.4230  124.4010   63.9750 S   0  0  0  0  0  0  0  0  0  0  0  0
  132.4550  125.8980   64.3580 C   0  0  0  0  0  0  0  0  0  0  0  0
  131.5240  125.7180   65.5610 C   0  0  0  0  0  0  0  0  0  0  0  0
  131.6940  124.7550   66.3100 O   0  0  0  0  0  0  0  0  0  0  0  0
  130.5470  126.6410   65.6870 N   0  0  0  0  0  0  0  0  0  0  0  0
  129.5510  126.7510   66.6740 C   0  0  0  0  0  0  0  0  0  0  0  0
  128.3100  127.2250   66.2420 C   0  0  0  0  0  0  0  0  0  0  0  0
  127.2620  127.3740   67.1470 C   0  0  0  0  0  0  0  0  0  0  0  0
  127.4590  127.0570   68.4890 C   0  0  0  0  0  0  0  0  0  0  0  0
  128.6950  126.5970   68.9340 C   0  0  0  0  0  0  0  0  0  0  0  0
  129.7440  126.4460   68.0320 C   0  0  0  0  0  0  0  0  0  0  0  0
  133.4690  123.8140   61.4070 N   0  0  0  0  0  0  0  0  0  0  0  0
  134.9009  123.8619   59.3565 H   0  0  0  0  0  0  0  0  0  0  0  0
  133.9731  122.6391   58.4236 H   0  0  0  0  0  0  0  0  0  0  0  0
  133.4478  124.3569   58.4236 H   0  0  0  0  0  0  0  0  0  0  0  0
  131.5212  122.1521   59.1776 H   0  0  0  0  0  0  0  0  0  0  0  0
  133.1526  126.7204   64.5747 H   0  0  0  0  0  0  0  0  0  0  0  0
  131.8239  126.1141   63.4833 H   0  0  0  0  0  0  0  0  0  0  0  0
  130.4770  127.3220   64.9450 H   0  0  0  0  0  0  0  0  0  0  0  0
  128.1600  127.4816   65.1829 H   0  0  0  0  0  0  0  0  0  0  0  0
  126.2833  127.7403   66.8036 H   0  0  0  0  0  0  0  0  0  0  0  0
  126.6304  127.1712   69.2034 H   0  0  0  0  0  0  0  0  0  0  0  0
  128.8424  126.3533   69.9965 H   0  0  0  0  0  0  0  0  0  0  0  0
  130.7235  126.0881   68.3819 H   0  0  0  0  0  0  0  0  0  0  0  0
  1  2  1  0
  2  3  2  0
  3  4  1  0
  4  5  1  0
  5  6  1  0
  5  7  1  0
  5  8  1  0
  4  9  2  0
  9 10  1  0
 10 11  3  0
  9 12  1  0
 12 13  1  0
 13 14  1  0
 14 15  1  0
 15 16  2  0
 15 17  1  0
 17 18  1  0
 18 19  2  0
 19 20  1  0
 20 21  2  0
 21 22  1  0
 22 23  2  0
 12 24  2  0
 24  2  1  0
 23 18  1  0
  1 25  1  0
  1 26  1  0
  1 27  1  0
  3 28  1  0
 14 29  1  0
 14 30  1  0
 17 31  1  0
 19 32  1  0
 20 33  1  0
 21 34  1  0
 22 35  1  0
 23 36  1  0
M  END
>  <Binding energies>  (1) 
[-6.34]

>  <Ligand effiencies>  (1) 
[-0.2536]

>  <Interactions>  (1) 
["H-A:TYR:484:OH:4343, V-A:ARG:545:CZ:4921, H-A:GLU:543:OE2:4905, H-A:GLY:454:N:4045, V-A:ASP:366:CG:3208, V-A:GLU:543:CD:4903, V-B:GLU:543:CG:9875, V-A:HIS:456:CE1:4064, V-B:HIS:456:CE1:9037, H-A:GLU:543:OE1:4904, V-B:GLU:543:CD:9876, V-B:GLU:543:CB:9874, V-A:LEU:475:CD2:4254, V-B:TYR:539:CD2:9842, V-A:TYR:484:CE1:4340, V-B:TYR:539:CE2:9844, V-B:ALA:541:CB:9860, V-A:ASP:366:CB:3207, V-A:ILE:369:CD1:3234, V-B:GLU:543:C:9870, H-A:HIS:456:NE2:4065, V-A:ILE:369:CG2:3232, V-B:ALA:541:CA:9858, V-B:TYR:539:C:9835, V-A:ILE:369:CB:3231, V-A:ASP:366:CA:3205"]

$$$$
2e_Grossjean_2025
     RDKit          3D

 38 39  0  0  0  0  0  0  0  0999 V2000
  130.0900  123.6450   69.0170 C   0  0  0  0  0  0  0  0  0  0  0  0
  129.9310  124.8680   68.1350 C   0  0  0  0  0  0  0  0  0  0  0  0
  129.0250  125.8850   68.4500 C   0  0  0  0  0  0  0  0  0  0  0  0
  128.9410  126.9870   67.5970 C   0  0  0  0  0  0  0  0  0  0  0  0
  129.7550  127.0450   66.4620 C   0  0  0  0  0  0  0  0  0  0  0  0
  130.6330  125.9870   66.2010 C   0  0  0  0  0  0  0  0  0  0  0  0
  131.4590  126.1170   65.0710 N   0  0  0  0  0  0  0  0  0  0  0  0
  131.2740  125.5930   63.8390 C   0  0  0  0  0  0  0  0  0  0  0  0
  130.2810  124.9550   63.4850 O   0  0  0  0  0  0  0  0  0  0  0  0
  132.4290  125.7890   62.8520 C   0  0  0  0  0  0  0  0  0  0  0  0
  133.5790  124.3770   62.8550 S   0  0  0  0  0  0  0  0  0  0  0  0
  132.9620  123.2590   61.6150 C   0  0  0  0  0  0  0  0  0  0  0  0
  133.5030  123.4280   60.3830 N   0  0  0  0  0  0  0  0  0  0  0  0
  133.0580  122.6490   59.3710 C   0  0  0  0  0  0  0  0  0  0  0  0
  133.7050  122.8900   58.0210 C   0  0  0  0  0  0  0  0  0  0  0  0
  132.0630  121.6880   59.5420 C   0  0  0  0  0  0  0  0  0  0  0  0
  131.4870  121.5070   60.8090 C   0  0  0  0  0  0  0  0  0  0  0  0
  130.3750  120.4560   60.9780 C   0  0  0  0  0  0  0  0  0  0  0  0
  129.1830  121.0520   61.0220 F   0  0  0  0  0  0  0  0  0  0  0  0
  130.3950  119.6030   59.9530 F   0  0  0  0  0  0  0  0  0  0  0  0
  130.5070  119.7410   62.0970 F   0  0  0  0  0  0  0  0  0  0  0  0
  131.9470  122.3120   61.8810 C   0  0  0  0  0  0  0  0  0  0  0  0
  131.3650  122.1930   63.2210 C   0  0  0  0  0  0  0  0  0  0  0  0
  130.9040  122.0990   64.2790 N   0  0  0  0  0  0  0  0  0  0  0  0
  130.7270  124.9100   67.0350 N   0  0  0  0  0  0  0  0  0  0  0  0
  130.0507  123.9475   70.0739 H   0  0  0  0  0  0  0  0  0  0  0  0
  129.2767  122.9343   68.8085 H   0  0  0  0  0  0  0  0  0  0  0  0
  131.0580  123.1659   68.8085 H   0  0  0  0  0  0  0  0  0  0  0  0
  128.3936  125.8185   69.3483 H   0  0  0  0  0  0  0  0  0  0  0  0
  128.2386  127.8046   67.8167 H   0  0  0  0  0  0  0  0  0  0  0  0
  129.7061  127.9097   65.7839 H   0  0  0  0  0  0  0  0  0  0  0  0
  132.2660  126.7090   65.1990 H   0  0  0  0  0  0  0  0  0  0  0  0
  132.0146  125.9069   61.8399 H   0  0  0  0  0  0  0  0  0  0  0  0
  132.9900  126.6837   63.1601 H   0  0  0  0  0  0  0  0  0  0  0  0
  134.7267  123.2706   58.1668 H   0  0  0  0  0  0  0  0  0  0  0  0
  133.7423  121.9455   57.4584 H   0  0  0  0  0  0  0  0  0  0  0  0
  133.1153  123.6288   57.4584 H   0  0  0  0  0  0  0  0  0  0  0  0
  131.7316  121.0759   58.6902 H   0  0  0  0  0  0  0  0  0  0  0  0
  1  2  1  0
  2  3  2  0
  3  4  1  0
  4  5  2  0
  5  6  1  0
  6  7  1  0
  7  8  1  0
  8  9  2  0
  8 10  1  0
 10 11  1  0
 11 12  1  0
 12 13  2  0
 13 14  1  0
 14 15  1  0
 14 16  2  0
 16 17  1  0
 17 18  1  0
 18 19  1  0
 18 20  1  0
 18 21  1  0
 17 22  2  0
 22 23  1  0
 23 24  3  0
  6 25  2  0
 25  2  1  0
 22 12  1  0
  1 26  1  0
  1 27  1  0
  1 28  1  0
  3 29  1  0
  4 30  1  0
  5 31  1  0
  7 32  1  0
 10 33  1  0
 10 34  1  0
 15 35  1  0
 15 36  1  0
 15 37  1  0
 16 38  1  0
M  END
>  <Binding energies>  (1) 
[-6.68]

>  <Ligand effiencies>  (1) 
[-0.2569230769230769]

>  <Interactions>  (1) 
["H-A:TYR:484:OH:4343, V-A:ARG:545:CZ:4921, H-A:GLU:543:OE2:4905, H-A:GLY:454:N:4045, V-A:ASP:366:CG:3208, V-A:GLU:543:CD:4903, V-A:HIS:456:CE1:4064, H-A:GLU:543:OE1:4904, V-B:GLU:543:CB:9874, V-A:LEU:475:CD2:4254, V-B:TYR:539:CD2:9842, V-A:TRP:381:CZ3:3366, V-A:TYR:484:CE1:4340, V-A:TYR:484:CZ:4342, V-A:TRP:381:CH2:3367, V-A:LEU:475:CD1:4253, V-B:TYR:539:CE2:9844, V-B:ALA:541:CB:9860, V-A:ILE:369:CD1:3234, V-A:HIS:456:CD2:4063, V-B:GLU:543:C:9870, V-B:GLU:543:CA:9872, V-A:TYR:484:CD1:4338, H-A:HIS:456:NE2:4065, V-A:ILE:369:CG2:3232, V-B:PRO:540:C:9849, V-B:ALA:541:CA:9858, V-B:TYR:539:C:9835, V-A:LEU:475:CG:4252, V-A:ILE:369:CB:3231, V-B:TYR:539:CG:9840"]

$$$$
2f_Grossjean_2025
     RDKit          3D

 35 36  0  0  0  0  0  0  0  0999 V2000
  127.4920  136.6890   61.5890 C   0  0  0  0  0  0  0  0  0  0  0  0
  127.3240  135.2010   61.3440 C   0  0  0  0  0  0  0  0  0  0  0  0
  126.0880  134.6510   61.0120 C   0  0  0  0  0  0  0  0  0  0  0  0
  125.9820  133.2680   60.8030 C   0  0  0  0  0  0  0  0  0  0  0  0
  124.6040  132.6770   60.4470 C   0  0  0  0  0  0  0  0  0  0  0  0
  124.3190  131.6560   61.2580 F   0  0  0  0  0  0  0  0  0  0  0  0
  123.6610  133.6110   60.5810 F   0  0  0  0  0  0  0  0  0  0  0  0
  124.5430  132.2210   59.1950 F   0  0  0  0  0  0  0  0  0  0  0  0
  127.1480  132.4710   60.9310 C   0  0  0  0  0  0  0  0  0  0  0  0
  127.0770  131.0150   60.7790 C   0  0  0  0  0  0  0  0  0  0  0  0
  127.0210  129.8660   60.6570 N   0  0  0  0  0  0  0  0  0  0  0  0
  128.3660  133.1200   61.2460 C   0  0  0  0  0  0  0  0  0  0  0  0
  129.9260  132.2800   61.4350 S   0  0  0  0  0  0  0  0  0  0  0  0
  129.7240  130.9910   62.7120 C   0  0  0  0  0  0  0  0  0  0  0  0
  128.5560  131.2150   63.6830 C   0  0  0  0  0  0  0  0  0  0  0  0
  128.6140  132.0960   64.5420 O   0  0  0  0  0  0  0  0  0  0  0  0
  127.5180  130.3680   63.5150 N   0  0  0  0  0  0  0  0  0  0  0  0
  126.2980  130.2970   64.2130 C   0  0  0  0  0  0  0  0  0  0  0  0
  126.0100  129.4080   65.2650 C   0  0  0  0  0  0  0  0  0  0  0  0
  124.7560  129.4470   65.8790 C   0  0  0  0  0  0  0  0  0  0  0  0
  123.8210  130.3780   65.4280 C   0  0  0  0  0  0  0  0  0  0  0  0
  124.0760  131.2520   64.4210 N   0  0  0  0  0  0  0  0  0  0  0  0
  125.3000  131.2020   63.8350 C   0  0  0  0  0  0  0  0  0  0  0  0
  128.4450  134.4550   61.4670 N   0  0  0  0  0  0  0  0  0  0  0  0
  127.5138  136.8822   62.6717 H   0  0  0  0  0  0  0  0  0  0  0  0
  128.4345  137.0310   61.1365 H   0  0  0  0  0  0  0  0  0  0  0  0
  126.6495  137.2325   61.1365 H   0  0  0  0  0  0  0  0  0  0  0  0
  125.2023  135.2960   60.9145 H   0  0  0  0  0  0  0  0  0  0  0  0
  129.5646  130.0289   62.2031 H   0  0  0  0  0  0  0  0  0  0  0  0
  130.6392  131.0171   63.3217 H   0  0  0  0  0  0  0  0  0  0  0  0
  127.6340  129.6550   62.8080 H   0  0  0  0  0  0  0  0  0  0  0  0
  126.7684  128.6861   65.6021 H   0  0  0  0  0  0  0  0  0  0  0  0
  124.5113  128.7580   66.7008 H   0  0  0  0  0  0  0  0  0  0  0  0
  122.8325  130.4055   65.9098 H   0  0  0  0  0  0  0  0  0  0  0  0
  125.5181  131.9093   63.0213 H   0  0  0  0  0  0  0  0  0  0  0  0
  1  2  1  0
  2  3  2  0
  3  4  1  0
  4  5  1  0
  5  6  1  0
  5  7  1  0
  5  8  1  0
  4  9  2  0
  9 10  1  0
 10 11  3  0
  9 12  1  0
 12 13  1  0
 13 14  1  0
 14 15  1  0
 15 16  2  0
 15 17  1  0
 17 18  1  0
 18 19  2  0
 19 20  1  0
 20 21  2  0
 21 22  1  0
 22 23  2  0
 12 24  2  0
 24  2  1  0
 23 18  1  0
  1 25  1  0
  1 26  1  0
  1 27  1  0
  3 28  1  0
 14 29  1  0
 14 30  1  0
 17 31  1  0
 19 32  1  0
 20 33  1  0
 21 34  1  0
 23 35  1  0
M  END
>  <Binding energies>  (1) 
[-5.81]

>  <Ligand effiencies>  (1) 
[-0.2324]

>  <Interactions>  (1) 
["V-A:GLU:543:CD:4903, V-A:GLU:543:CG:4902, V-B:HIS:456:CE1:9037, V-B:ARG:545:CZ:9894, H-B:TYR:484:OH:9315, H-A:ALA:541:N:4886, V-A:TYR:539:CZ:4872, V-B:ARG:545:CD:9891, V-B:ARG:545:CG:9890, V-A:TYR:539:CE2:4871, H-B:GLY:454:N:9017, V-B:ILE:369:CG1:8205, V-B:ILE:369:CD1:8206, V-B:ILE:369:CG2:8204, V-B:ILE:369:CB:8203, V-B:LEU:475:CG:9224, V-B:LEU:475:CD2:9226, V-A:TYR:539:CD2:4869, V-B:TRP:381:CH2:8339, V-B:TRP:381:CZ2:8337, V-B:GLY:454:CA:9016, V-B:LEU:475:CD1:9225, V-B:PRO:482:CG:9294, V-B:PRO:482:CB:9293, V-B:TRP:381:CE2:8334"]

$$$$
2g_Grossjean_2025
     RDKit          3D

 39 40  0  0  0  0  0  0  0  0999 V2000
  133.8860  123.1830   58.4320 C   0  0  0  0  0  0  0  0  0  0  0  0
  133.1260  122.9260   59.7190 C   0  0  0  0  0  0  0  0  0  0  0  0
  132.0480  122.0450   59.7660 C   0  0  0  0  0  0  0  0  0  0  0  0
  131.3720  121.8480   60.9800 C   0  0  0  0  0  0  0  0  0  0  0  0
  130.1760  120.8760   61.0110 C   0  0  0  0  0  0  0  0  0  0  0  0
  129.0340  121.5520   61.1470 F   0  0  0  0  0  0  0  0  0  0  0  0
  130.1320  120.1770   59.8750 F   0  0  0  0  0  0  0  0  0  0  0  0
  130.2450  120.0040   62.0190 F   0  0  0  0  0  0  0  0  0  0  0  0
  131.8180  122.5510   62.1280 C   0  0  0  0  0  0  0  0  0  0  0  0
  131.1120  122.4240   63.4060 C   0  0  0  0  0  0  0  0  0  0  0  0
  130.5540  122.3230   64.4150 N   0  0  0  0  0  0  0  0  0  0  0  0
  132.9410  123.4020   61.9920 C   0  0  0  0  0  0  0  0  0  0  0  0
  133.6460  124.3380   63.3320 S   0  0  0  0  0  0  0  0  0  0  0  0
  132.3980  125.5570   63.8660 C   0  0  0  0  0  0  0  0  0  0  0  0
  131.9450  125.4150   65.3260 C   0  0  0  0  0  0  0  0  0  0  0  0
  132.6300  125.8470   66.2550 O   0  0  0  0  0  0  0  0  0  0  0  0
  130.7680  124.7880   65.5080 N   0  0  0  0  0  0  0  0  0  0  0  0
  130.1280  124.5420   66.8010 C   0  0  0  0  0  0  0  0  0  0  0  0
  129.5770  125.7930   67.4780 C   0  0  0  0  0  0  0  0  0  0  0  0
  129.2160  126.9000   66.7050 C   0  0  0  0  0  0  0  0  0  0  0  0
  128.6770  128.0300   67.3180 C   0  0  0  0  0  0  0  0  0  0  0  0
  128.4920  128.0440   68.6980 C   0  0  0  0  0  0  0  0  0  0  0  0
  128.8390  126.9380   69.4720 C   0  0  0  0  0  0  0  0  0  0  0  0
  129.3770  125.8090   68.8610 C   0  0  0  0  0  0  0  0  0  0  0  0
  133.5680  123.5990   60.8060 N   0  0  0  0  0  0  0  0  0  0  0  0
  134.9035  123.5271   58.6695 H   0  0  0  0  0  0  0  0  0  0  0  0
  133.9406  122.2534   57.8465 H   0  0  0  0  0  0  0  0  0  0  0  0
  133.3652  123.9550   57.8465 H   0  0  0  0  0  0  0  0  0  0  0  0
  131.7295  121.5087   58.8599 H   0  0  0  0  0  0  0  0  0  0  0  0
  132.8240  126.5628   63.7359 H   0  0  0  0  0  0  0  0  0  0  0  0
  131.5067  125.3805   63.2460 H   0  0  0  0  0  0  0  0  0  0  0  0
  130.2540  124.4850   64.6930 H   0  0  0  0  0  0  0  0  0  0  0  0
  129.2957  123.8399   66.6451 H   0  0  0  0  0  0  0  0  0  0  0  0
  130.9070  124.1415   67.4664 H   0  0  0  0  0  0  0  0  0  0  0  0
  129.3570  126.8796   65.6143 H   0  0  0  0  0  0  0  0  0  0  0  0
  128.3991  128.9066   66.7143 H   0  0  0  0  0  0  0  0  0  0  0  0
  128.0680  128.9363   69.1819 H   0  0  0  0  0  0  0  0  0  0  0  0
  128.6883  126.9573   70.5615 H   0  0  0  0  0  0  0  0  0  0  0  0
  129.6445  124.9302   69.4661 H   0  0  0  0  0  0  0  0  0  0  0  0
  1  2  1  0
  2  3  2  0
  3  4  1  0
  4  5  1  0
  5  6  1  0
  5  7  1  0
  5  8  1  0
  4  9  2  0
  9 10  1  0
 10 11  3  0
  9 12  1  0
 12 13  1  0
 13 14  1  0
 14 15  1  0
 15 16  2  0
 15 17  1  0
 17 18  1  0
 18 19  1  0
 19 20  2  0
 20 21  1  0
 21 22  2  0
 22 23  1  0
 23 24  2  0
 12 25  2  0
 25  2  1  0
 24 19  1  0
  1 26  1  0
  1 27  1  0
  1 28  1  0
  3 29  1  0
 14 30  1  0
 14 31  1  0
 17 32  1  0
 18 33  1  0
 18 34  1  0
 20 35  1  0
 21 36  1  0
 22 37  1  0
 23 38  1  0
 24 39  1  0
M  END
>  <Binding energies>  (1) 
[-6.52]

>  <Ligand effiencies>  (1) 
[-0.25076923076923074]

>  <Interactions>  (1) 
["H-A:TYR:484:OH:4343, V-A:ARG:545:CZ:4921, H-A:GLY:454:N:4045, V-B:GLU:543:CG:9875, V-A:HIS:456:CE1:4064, V-B:HIS:456:CE1:9037, V-B:GLU:543:CB:9874, H-B:GLU:543:OE2:9878, V-A:LEU:475:CD2:4254, V-B:TYR:539:CD2:9842, V-A:TYR:484:CE1:4340, V-A:TYR:484:CZ:4342, V-A:LEU:475:CD1:4253, V-B:TYR:539:CE2:9844, V-B:ALA:541:CB:9860, V-A:ASP:366:CB:3207, V-A:ILE:369:CD1:3234, V-B:GLU:543:C:9870, H-A:HIS:456:NE2:4065, H-A:ARG:545:NE:4919, V-A:ILE:369:CG2:3232, V-B:PRO:540:C:9849, V-B:ALA:541:CA:9858, V-B:TYR:539:C:9835, V-A:ILE:369:CB:3231, V-A:ASP:366:CA:3205, V-A:ILE:369:CG1:3233, V-B:TYR:539:CG:9840"]

$$$$
2h_Grossjean_2025
     RDKit          3D

 51 52  0  0  0  0  0  0  0  0999 V2000
  132.4130  130.2500   60.5790 C   0  0  0  0  0  0  0  0  0  0  0  0
  131.8740  131.4500   60.0370 O   0  0  0  0  0  0  0  0  0  0  0  0
  130.5400  131.4900   59.6700 C   0  0  0  0  0  0  0  0  0  0  0  0
  130.0400  130.9500   58.4740 C   0  0  0  0  0  0  0  0  0  0  0  0
  128.6820  131.0220   58.1760 C   0  0  0  0  0  0  0  0  0  0  0  0
  127.7930  131.6320   59.0630 C   0  0  0  0  0  0  0  0  0  0  0  0
  126.3040  131.6800   58.7240 C   0  0  0  0  0  0  0  0  0  0  0  0
  125.4320  131.4770   59.8810 N   0  0  0  0  0  0  0  0  0  0  0  0
  124.0940  131.3600   59.8260 C   0  0  0  0  0  0  0  0  0  0  0  0
  123.4460  131.4960   58.7860 O   0  0  0  0  0  0  0  0  0  0  0  0
  123.4020  131.0330   61.1560 C   0  0  0  0  0  0  0  0  0  0  0  0
  124.0090  131.9770   62.5940 S   0  0  0  0  0  0  0  0  0  0  0  0
  124.3960  130.7910   63.8620 C   0  0  0  0  0  0  0  0  0  0  0  0
  123.4900  130.7540   64.8700 N   0  0  0  0  0  0  0  0  0  0  0  0
  123.6970  129.9000   65.8970 C   0  0  0  0  0  0  0  0  0  0  0  0
  122.6480  129.9190   66.9920 C   0  0  0  0  0  0  0  0  0  0  0  0
  124.8010  129.0520   65.9590 C   0  0  0  0  0  0  0  0  0  0  0  0
  125.7380  129.0600   64.9150 C   0  0  0  0  0  0  0  0  0  0  0  0
  126.9470  128.1090   64.9970 C   0  0  0  0  0  0  0  0  0  0  0  0
  128.0680  128.8110   65.1630 F   0  0  0  0  0  0  0  0  0  0  0  0
  126.8600  127.2480   66.0140 F   0  0  0  0  0  0  0  0  0  0  0  0
  127.0460  127.3950   63.8750 F   0  0  0  0  0  0  0  0  0  0  0  0
  125.5310  129.9460   63.8270 C   0  0  0  0  0  0  0  0  0  0  0  0
  126.4490  129.9520   62.6840 C   0  0  0  0  0  0  0  0  0  0  0  0
  127.1730  129.9520   61.7820 N   0  0  0  0  0  0  0  0  0  0  0  0
  128.2820  132.1970   60.2500 C   0  0  0  0  0  0  0  0  0  0  0  0
  127.4140  132.8030   61.1270 O   0  0  0  0  0  0  0  0  0  0  0  0
  127.4880  134.2230   61.1390 C   0  0  0  0  0  0  0  0  0  0  0  0
  129.6500  132.1070   60.5580 C   0  0  0  0  0  0  0  0  0  0  0  0
  130.1300  132.6430   61.7300 O   0  0  0  0  0  0  0  0  0  0  0  0
  129.7670  131.9130   62.8940 C   0  0  0  0  0  0  0  0  0  0  0  0
  132.3900  130.3011   61.6776 H   0  0  0  0  0  0  0  0  0  0  0  0
  131.8136  129.3925   60.2392 H   0  0  0  0  0  0  0  0  0  0  0  0
  133.4521  130.1285   60.2392 H   0  0  0  0  0  0  0  0  0  0  0  0
  130.7281  130.4654   57.7657 H   0  0  0  0  0  0  0  0  0  0  0  0
  128.3065  130.5950   57.2344 H   0  0  0  0  0  0  0  0  0  0  0  0
  126.0785  132.6641   58.2873 H   0  0  0  0  0  0  0  0  0  0  0  0
  126.1065  130.8555   58.0232 H   0  0  0  0  0  0  0  0  0  0  0  0
  125.8950  131.3200   60.7650 H   0  0  0  0  0  0  0  0  0  0  0  0
  122.3276  131.2393   61.0413 H   0  0  0  0  0  0  0  0  0  0  0  0
  123.6241  129.9764   61.3662 H   0  0  0  0  0  0  0  0  0  0  0  0
  123.1431  129.9100   67.9742 H   0  0  0  0  0  0  0  0  0  0  0  0
  122.0363  130.8284   66.8980 H   0  0  0  0  0  0  0  0  0  0  0  0
  122.0037  129.0324   66.8980 H   0  0  0  0  0  0  0  0  0  0  0  0
  124.9368  128.3813   66.8202 H   0  0  0  0  0  0  0  0  0  0  0  0
  127.5066  134.5804   62.1791 H   0  0  0  0  0  0  0  0  0  0  0  0
  128.4042  134.5468   60.6236 H   0  0  0  0  0  0  0  0  0  0  0  0
  126.6104  134.6403   60.6236 H   0  0  0  0  0  0  0  0  0  0  0  0
  130.0516  132.4853   63.7893 H   0  0  0  0  0  0  0  0  0  0  0  0
  128.6800  131.7442   62.8968 H   0  0  0  0  0  0  0  0  0  0  0  0
  130.2884  130.9444   62.8968 H   0  0  0  0  0  0  0  0  0  0  0  0
  1  2  1  0
  2  3  1  0
  3  4  2  0
  4  5  1  0
  5  6  2  0
  6  7  1  0
  7  8  1  0
  8  9  1  0
  9 10  2  0
  9 11  1  0
 11 12  1  0
 12 13  1  0
 13 14  2  0
 14 15  1  0
 15 16  1  0
 15 17  2  0
 17 18  1  0
 18 19  1  0
 19 20  1  0
 19 21  1  0
 19 22  1  0
 18 23  2  0
 23 24  1  0
 24 25  3  0
  6 26  1  0
 26 27  1  0
 27 28  1  0
 26 29  2  0
 29 30  1  0
 30 31  1  0
 29  3  1  0
 23 13  1  0
  1 32  1  0
  1 33  1  0
  1 34  1  0
  4 35  1  0
  5 36  1  0
  7 37  1  0
  7 38  1  0
  8 39  1  0
 11 40  1  0
 11 41  1  0
 16 42  1  0
 16 43  1  0
 16 44  1  0
 17 45  1  0
 28 46  1  0
 28 47  1  0
 28 48  1  0
 31 49  1  0
 31 50  1  0
 31 51  1  0
M  END
>  <Binding energies>  (1) 
[-5.85]

>  <Ligand effiencies>  (1) 
[-0.1828125]

>  <Interactions>  (1) 
["V-A:PRO:540:CA:4878, V-A:GLU:543:CD:4903, V-A:PRO:540:CB:4880, V-A:GLU:543:CG:4902, V-B:GLU:543:CG:9875, V-B:HIS:456:CE1:9037, V-B:GLU:543:CD:9876, V-B:GLU:543:CB:9874, V-B:ARG:545:CZ:9894, H-B:TYR:484:OH:9315, H-A:ALA:541:N:4886, V-A:TYR:539:CZ:4872, V-B:ARG:545:CD:9891, V-A:ALA:541:CB:4887, V-B:ARG:545:CG:9890, V-A:TYR:539:CE2:4871, H-B:GLY:454:N:9017, V-B:ASP:366:CG:8180, V-B:ILE:369:CD1:8206, V-A:TYR:539:CD2:4869, H-A:TYR:539:OH:4873, V-B:GLY:453:CA:9011, V-B:GLY:453:C:9009, V-B:ARG:545:CB:9889, V-B:ILE:455:C:9019"]

$$$$
2i_Grossjean_2025
     RDKit          3D

 32 33  0  0  0  0  0  0  0  0999 V2000
  133.0780  123.2550   57.5620 C   0  0  0  0  0  0  0  0  0  0  0  0
  132.5250  122.9950   58.9510 C   0  0  0  0  0  0  0  0  0  0  0  0
  131.1880  122.6680   59.1550 C   0  0  0  0  0  0  0  0  0  0  0  0
  130.7260  122.4340   60.4580 C   0  0  0  0  0  0  0  0  0  0  0  0
  129.2420  122.0740   60.6660 C   0  0  0  0  0  0  0  0  0  0  0  0
  128.7130  122.8490   61.6140 F   0  0  0  0  0  0  0  0  0  0  0  0
  128.5640  122.2540   59.5320 F   0  0  0  0  0  0  0  0  0  0  0  0
  129.0660  120.8050   61.0410 F   0  0  0  0  0  0  0  0  0  0  0  0
  131.6460  122.5390   61.5320 C   0  0  0  0  0  0  0  0  0  0  0  0
  131.2180  122.3040   62.9150 C   0  0  0  0  0  0  0  0  0  0  0  0
  130.8800  122.1180   64.0060 N   0  0  0  0  0  0  0  0  0  0  0  0
  132.9860  122.8780   61.2350 C   0  0  0  0  0  0  0  0  0  0  0  0
  134.2300  123.0470   62.5050 S   0  0  0  0  0  0  0  0  0  0  0  0
  134.2620  124.7860   63.0370 C   0  0  0  0  0  0  0  0  0  0  0  0
  133.5480  124.9960   64.3730 C   0  0  0  0  0  0  0  0  0  0  0  0
  134.2050  124.9620   65.4150 O   0  0  0  0  0  0  0  0  0  0  0  0
  132.2120  125.1820   64.3030 N   0  0  0  0  0  0  0  0  0  0  0  0
  131.3470  125.3750   65.3670 C   0  0  0  0  0  0  0  0  0  0  0  0
  130.1790  126.1470   65.4530 C   0  0  0  0  0  0  0  0  0  0  0  0
  129.7330  125.9630   66.7420 C   0  0  0  0  0  0  0  0  0  0  0  0
  130.5770  125.1250   67.3880 O   0  0  0  0  0  0  0  0  0  0  0  0
  131.5920  124.7570   66.5020 N   0  0  0  0  0  0  0  0  0  0  0  0
  133.4130  123.1000   59.9650 N   0  0  0  0  0  0  0  0  0  0  0  0
  134.0707  123.7217   57.6440 H   0  0  0  0  0  0  0  0  0  0  0  0
  133.1642  122.3031   57.0176 H   0  0  0  0  0  0  0  0  0  0  0  0
  132.3999  123.9287   57.0176 H   0  0  0  0  0  0  0  0  0  0  0  0
  130.4989  122.5937   58.3008 H   0  0  0  0  0  0  0  0  0  0  0  0
  135.3095  125.1050   63.1415 H   0  0  0  0  0  0  0  0  0  0  0  0
  133.7356  125.3810   62.2762 H   0  0  0  0  0  0  0  0  0  0  0  0
  131.7810  125.1490   63.3910 H   0  0  0  0  0  0  0  0  0  0  0  0
  129.7211  126.7629   64.6650 H   0  0  0  0  0  0  0  0  0  0  0  0
  128.8340  126.4235   67.1777 H   0  0  0  0  0  0  0  0  0  0  0  0
  1  2  1  0
  2  3  2  0
  3  4  1  0
  4  5  1  0
  5  6  1  0
  5  7  1  0
  5  8  1  0
  4  9  2  0
  9 10  1  0
 10 11  3  0
  9 12  1  0
 12 13  1  0
 13 14  1  0
 14 15  1  0
 15 16  2  0
 15 17  1  0
 17 18  1  0
 18 19  1  0
 19 20  2  0
 20 21  1  0
 21 22  1  0
 12 23  2  0
 23  2  1  0
 22 18  2  0
  1 24  1  0
  1 25  1  0
  1 26  1  0
  3 27  1  0
 14 28  1  0
 14 29  1  0
 17 30  1  0
 19 31  1  0
 20 32  1  0
M  END
>  <Binding energies>  (1) 
[-6.12]

>  <Ligand effiencies>  (1) 
[-0.255]

>  <Interactions>  (1) 
["H-A:TYR:484:OH:4343, V-A:ARG:545:CZ:4921, H-A:GLY:454:N:4045, V-A:ASP:366:CG:3208, V-B:GLU:543:CG:9875, V-B:GLU:543:CB:9874, V-A:LEU:475:CD2:4254, V-B:TYR:539:CD2:9842, V-B:TYR:539:CE2:9844, V-B:ALA:541:CB:9860, V-A:ILE:369:CD1:3234, V-A:GLY:453:C:4037, V-A:GLY:453:CA:4039, H-A:HIS:456:NE2:4065, H-A:ARG:545:NE:4919, V-B:PRO:540:CA:9851, V-B:PRO:540:C:9849, V-B:ALA:541:CA:9858, V-B:TYR:539:C:9835, V-B:PRO:540:N:9852, V-B:TYR:539:CZ:9845"]

$$$$
2j_Grossjean_2025
     RDKit          3D

 32 33  0  0  0  0  0  0  0  0999 V2000
  133.6860  122.9810   58.0770 C   0  0  0  0  0  0  0  0  0  0  0  0
  133.0230  122.7450   59.4210 C   0  0  0  0  0  0  0  0  0  0  0  0
  132.0400  121.7730   59.5900 C   0  0  0  0  0  0  0  0  0  0  0  0
  131.4590  121.5900   60.8530 C   0  0  0  0  0  0  0  0  0  0  0  0
  130.3740  120.5100   61.0220 C   0  0  0  0  0  0  0  0  0  0  0  0
  129.1650  121.0740   61.0210 F   0  0  0  0  0  0  0  0  0  0  0  0
  130.4420  119.6330   60.0190 F   0  0  0  0  0  0  0  0  0  0  0  0
  130.4980  119.8270   62.1620 F   0  0  0  0  0  0  0  0  0  0  0  0
  131.8970  122.4090   61.9240 C   0  0  0  0  0  0  0  0  0  0  0  0
  131.3250  122.2620   63.2660 C   0  0  0  0  0  0  0  0  0  0  0  0
  130.8730  122.1440   64.3250 N   0  0  0  0  0  0  0  0  0  0  0  0
  132.9010  123.3720   61.6630 C   0  0  0  0  0  0  0  0  0  0  0  0
  133.5300  124.4570   62.9370 S   0  0  0  0  0  0  0  0  0  0  0  0
  132.3320  125.8130   63.1800 C   0  0  0  0  0  0  0  0  0  0  0  0
  131.2440  125.5330   64.2270 C   0  0  0  0  0  0  0  0  0  0  0  0
  130.2520  124.8600   63.9400 O   0  0  0  0  0  0  0  0  0  0  0  0
  131.4690  126.0880   65.4390 N   0  0  0  0  0  0  0  0  0  0  0  0
  130.6540  125.9930   66.5590 C   0  0  0  0  0  0  0  0  0  0  0  0
  130.5070  124.9630   67.3650 N   0  0  0  0  0  0  0  0  0  0  0  0
  129.6490  125.2230   68.3330 C   0  0  0  0  0  0  0  0  0  0  0  0
  129.0780  126.4920   68.3240 C   0  0  0  0  0  0  0  0  0  0  0  0
  129.7050  127.3850   66.9710 S   0  0  0  0  0  0  0  0  0  0  0  0
  133.4520  123.5320   60.4330 N   0  0  0  0  0  0  0  0  0  0  0  0
  134.7118  123.3461   58.2333 H   0  0  0  0  0  0  0  0  0  0  0  0
  133.7147  122.0378   57.5116 H   0  0  0  0  0  0  0  0  0  0  0  0
  133.1123  123.7301   57.5116 H   0  0  0  0  0  0  0  0  0  0  0  0
  131.7216  121.1533   58.7388 H   0  0  0  0  0  0  0  0  0  0  0  0
  132.8881  126.7081   63.4957 H   0  0  0  0  0  0  0  0  0  0  0  0
  131.8111  125.9410   62.2196 H   0  0  0  0  0  0  0  0  0  0  0  0
  132.3130  126.6300   65.5550 H   0  0  0  0  0  0  0  0  0  0  0  0
  129.3992  124.4788   69.1035 H   0  0  0  0  0  0  0  0  0  0  0  0
  128.3477  126.8691   69.0551 H   0  0  0  0  0  0  0  0  0  0  0  0
  1  2  1  0
  2  3  2  0
  3  4  1  0
  4  5  1  0
  5  6  1  0
  5  7  1  0
  5  8  1  0
  4  9  2  0
  9 10  1  0
 10 11  3  0
  9 12  1  0
 12 13  1  0
 13 14  1  0
 14 15  1  0
 15 16  2  0
 15 17  1  0
 17 18  1  0
 18 19  2  0
 19 20  1  0
 20 21  2  0
 21 22  1  0
 12 23  2  0
 23  2  1  0
 22 18  1  0
  1 24  1  0
  1 25  1  0
  1 26  1  0
  3 27  1  0
 14 28  1  0
 14 29  1  0
 17 30  1  0
 20 31  1  0
 21 32  1  0
M  END
>  <Binding energies>  (1) 
[-6.0]

>  <Ligand effiencies>  (1) 
[-0.25]

>  <Interactions>  (1) 
["H-A:TYR:484:OH:4343, V-A:ARG:545:CZ:4921, H-A:GLY:454:N:4045, V-A:GLU:543:CD:4903, V-A:HIS:456:CE1:4064, H-A:GLU:543:OE1:4904, V-B:GLU:543:CB:9874, V-A:LEU:475:CD2:4254, V-B:TYR:539:CD2:9842, V-A:TRP:381:CH2:3367, V-A:LEU:475:CD1:4253, V-B:TYR:539:CE2:9844, V-B:ALA:541:CB:9860, V-A:ILE:369:CD1:3234, V-B:GLU:543:C:9870, V-B:GLU:543:CA:9872, H-A:HIS:456:NE2:4065, V-A:ILE:369:CG2:3232, V-B:PRO:540:C:9849, V-B:ALA:541:CA:9858, V-A:LEU:475:CG:4252, V-A:ILE:369:CB:3231"]

$$$$
2k_Grossjean_2025
     RDKit          3D

 50 50  0  0  0  0  0  0  0  0999 V2000
  129.7360  124.6910   71.8470 C   0  0  0  0  0  0  0  0  0  0  0  0
  129.0010  125.8340   72.2570 O   0  0  0  0  0  0  0  0  0  0  0  0
  129.0220  126.8920   71.3070 C   0  0  0  0  0  0  0  0  0  0  0  0
  130.1970  127.8320   71.6060 C   0  0  0  0  0  0  0  0  0  0  0  0
  130.1920  128.8940   70.6630 O   0  0  0  0  0  0  0  0  0  0  0  0
  130.7440  128.5530   69.3970 C   0  0  0  0  0  0  0  0  0  0  0  0
  129.6050  128.5000   68.3700 C   0  0  0  0  0  0  0  0  0  0  0  0
  129.4660  127.1530   67.9450 O   0  0  0  0  0  0  0  0  0  0  0  0
  130.0070  126.8650   66.6650 C   0  0  0  0  0  0  0  0  0  0  0  0
  130.2690  125.3500   66.5620 C   0  0  0  0  0  0  0  0  0  0  0  0
  131.1770  125.0000   65.4670 N   0  0  0  0  0  0  0  0  0  0  0  0
  132.5150  125.1480   65.4810 C   0  0  0  0  0  0  0  0  0  0  0  0
  133.1390  125.5780   66.4530 O   0  0  0  0  0  0  0  0  0  0  0  0
  133.2420  124.7630   64.1840 C   0  0  0  0  0  0  0  0  0  0  0  0
  132.4310  125.3100   62.6410 S   0  0  0  0  0  0  0  0  0  0  0  0
  132.2310  123.9110   61.5470 C   0  0  0  0  0  0  0  0  0  0  0  0
  132.7960  124.0380   60.3190 N   0  0  0  0  0  0  0  0  0  0  0  0
  132.6800  123.0200   59.4380 C   0  0  0  0  0  0  0  0  0  0  0  0
  133.3270  123.2440   58.0850 C   0  0  0  0  0  0  0  0  0  0  0  0
  132.0130  121.8360   59.7410 C   0  0  0  0  0  0  0  0  0  0  0  0
  131.4290  121.6790   61.0080 C   0  0  0  0  0  0  0  0  0  0  0  0
  130.7000  120.3600   61.3290 C   0  0  0  0  0  0  0  0  0  0  0  0
  130.5250  120.1720   62.6380 F   0  0  0  0  0  0  0  0  0  0  0  0
  129.4940  120.3540   60.7580 F   0  0  0  0  0  0  0  0  0  0  0  0
  131.4020  119.3250   60.8660 F   0  0  0  0  0  0  0  0  0  0  0  0
  131.5360  122.7420   61.9400 C   0  0  0  0  0  0  0  0  0  0  0  0
  130.9420  122.6340   63.2750 C   0  0  0  0  0  0  0  0  0  0  0  0
  130.4720  122.5470   64.3300 N   0  0  0  0  0  0  0  0  0  0  0  0
  130.0879  124.1438   72.7340 H   0  0  0  0  0  0  0  0  0  0  0  0
  129.0894  124.0359   71.2446 H   0  0  0  0  0  0  0  0  0  0  0  0
  130.6003  125.0075   71.2446 H   0  0  0  0  0  0  0  0  0  0  0  0
  129.1365  126.4736   70.2962 H   0  0  0  0  0  0  0  0  0  0  0  0
  128.0795  127.4558   71.3687 H   0  0  0  0  0  0  0  0  0  0  0  0
  130.0929  128.2406   72.6220 H   0  0  0  0  0  0  0  0  0  0  0  0
  131.1440  127.2769   71.5350 H   0  0  0  0  0  0  0  0  0  0  0  0
  131.4804  129.3127   69.0961 H   0  0  0  0  0  0  0  0  0  0  0  0
  131.2465  127.5762   69.4547 H   0  0  0  0  0  0  0  0  0  0  0  0
  128.6683  128.8451   68.8320 H   0  0  0  0  0  0  0  0  0  0  0  0
  129.8299  129.1519   67.5130 H   0  0  0  0  0  0  0  0  0  0  0  0
  129.2932  127.1699   65.8855 H   0  0  0  0  0  0  0  0  0  0  0  0
  130.9490  127.4159   66.5265 H   0  0  0  0  0  0  0  0  0  0  0  0
  130.7116  125.0055   67.5083 H   0  0  0  0  0  0  0  0  0  0  0  0
  129.3044  124.8620   66.3587 H   0  0  0  0  0  0  0  0  0  0  0  0
  130.7450  124.6250   64.6350 H   0  0  0  0  0  0  0  0  0  0  0  0
  134.2483  125.2062   64.2143 H   0  0  0  0  0  0  0  0  0  0  0  0
  133.2448  123.6635   64.1523 H   0  0  0  0  0  0  0  0  0  0  0  0
  134.3579  123.6009   58.2261 H   0  0  0  0  0  0  0  0  0  0  0  0
  133.3401  122.2981   57.5237 H   0  0  0  0  0  0  0  0  0  0  0  0
  132.7524  123.9955   57.5237 H   0  0  0  0  0  0  0  0  0  0  0  0
  131.9442  121.0310   58.9945 H   0  0  0  0  0  0  0  0  0  0  0  0
  1  2  1  0
  2  3  1  0
  3  4  1  0
  4  5  1  0
  5  6  1  0
  6  7  1  0
  7  8  1  0
  8  9  1  0
  9 10  1  0
 10 11  1  0
 11 12  1  0
 12 13  2  0
 12 14  1  0
 14 15  1  0
 15 16  1  0
 16 17  2  0
 17 18  1  0
 18 19  1  0
 18 20  2  0
 20 21  1  0
 21 22  1  0
 22 23  1  0
 22 24  1  0
 22 25  1  0
 21 26  2  0
 26 27  1  0
 27 28  3  0
 26 16  1  0
  1 29  1  0
  1 30  1  0
  1 31  1  0
  3 32  1  0
  3 33  1  0
  4 34  1  0
  4 35  1  0
  6 36  1  0
  6 37  1  0
  7 38  1  0
  7 39  1  0
  9 40  1  0
  9 41  1  0
 10 42  1  0
 10 43  1  0
 11 44  1  0
 14 45  1  0
 14 46  1  0
 19 47  1  0
 19 48  1  0
 19 49  1  0
 20 50  1  0
M  END
>  <Binding energies>  (1) 
[-5.02]

>  <Ligand effiencies>  (1) 
[-0.17310344827586205]

>  <Interactions>  (1) 
["H-A:TYR:484:OH:4343, V-A:ARG:545:CZ:4921, V-A:GLU:543:CD:4903, V-A:GLU:543:CB:4901, V-B:GLU:543:CG:9875, V-A:HIS:456:CE1:4064, V-A:GLU:543:C:4897, H-B:GLU:543:OE2:9878, V-A:LEU:475:CD2:4254, V-B:TYR:539:CD2:9842, V-A:TRP:381:CZ3:3366, V-A:TRP:381:CZ2:3365, V-A:TRP:381:CH2:3367, V-A:LEU:475:CD1:4253, V-B:TYR:539:CE2:9844, V-B:ALA:541:CB:9860, H-B:LYS:547:NZ:9919, H-A:HIS:456:NE2:4065, H-A:ARG:545:NE:4919, V-A:ILE:369:CG2:3232, V-B:PRO:540:C:9849, V-B:TYR:539:C:9835, H-A:ARG:545:NH2:4923, V-A:LEU:475:CG:4252, V-A:ILE:369:CB:3231"]

$$$$
3aa_Grossjean_2025
     RDKit          3D

 52 54  0  0  0  0  0  0  0  0999 V2000
  130.1490  123.8660   71.9970 C   0  0  0  0  0  0  0  0  0  0  0  0
  130.4620  125.0880   72.8670 C   0  0  0  0  0  0  0  0  0  0  0  0
  129.3610  125.9880   72.8350 O   0  0  0  0  0  0  0  0  0  0  0  0
  129.5510  127.3170   72.6330 C   0  0  0  0  0  0  0  0  0  0  0  0
  129.7940  128.1160   73.5430 O   0  0  0  0  0  0  0  0  0  0  0  0
  129.4210  127.7230   71.1920 C   0  0  0  0  0  0  0  0  0  0  0  0
  130.3920  128.5050   70.5500 C   0  0  0  0  0  0  0  0  0  0  0  0
  130.2430  128.8600   69.2120 C   0  0  0  0  0  0  0  0  0  0  0  0
  129.1260  128.4360   68.4880 C   0  0  0  0  0  0  0  0  0  0  0  0
  129.0740  128.8470   67.1410 N   0  0  0  0  0  0  0  0  0  0  0  0
  128.5730  128.2030   66.0640 C   0  0  0  0  0  0  0  0  0  0  0  0
  128.0710  127.0790   66.0730 O   0  0  0  0  0  0  0  0  0  0  0  0
  128.6680  128.9620   64.7400 C   0  0  0  0  0  0  0  0  0  0  0  0
  127.3580  130.2150   64.5850 S   0  0  0  0  0  0  0  0  0  0  0  0
  127.9140  131.4030   63.3830 C   0  0  0  0  0  0  0  0  0  0  0  0
  129.1650  131.1650   62.9220 N   0  0  0  0  0  0  0  0  0  0  0  0
  129.7130  131.9990   62.0010 C   0  0  0  0  0  0  0  0  0  0  0  0
  131.0950  131.6600   61.5290 C   0  0  0  0  0  0  0  0  0  0  0  0
  131.2880  130.7550   60.4740 C   0  0  0  0  0  0  0  0  0  0  0  0
  132.5690  130.4360   60.0290 C   0  0  0  0  0  0  0  0  0  0  0  0
  133.6750  131.0200   60.6370 C   0  0  0  0  0  0  0  0  0  0  0  0
  133.5100  131.9220   61.6830 C   0  0  0  0  0  0  0  0  0  0  0  0
  132.2290  132.2400   62.1230 C   0  0  0  0  0  0  0  0  0  0  0  0
  128.9990  133.0990   61.5130 C   0  0  0  0  0  0  0  0  0  0  0  0
  127.7080  133.3750   61.9890 C   0  0  0  0  0  0  0  0  0  0  0  0
  126.9600  134.6030   61.4350 C   0  0  0  0  0  0  0  0  0  0  0  0
  127.3900  134.9700   60.2260 F   0  0  0  0  0  0  0  0  0  0  0  0
  125.6570  134.3380   61.3300 F   0  0  0  0  0  0  0  0  0  0  0  0
  127.1250  135.6420   62.2540 F   0  0  0  0  0  0  0  0  0  0  0  0
  127.1480  132.5130   62.9620 C   0  0  0  0  0  0  0  0  0  0  0  0
  125.8280  132.7850   63.5370 C   0  0  0  0  0  0  0  0  0  0  0  0
  124.7850  133.0010   63.9910 N   0  0  0  0  0  0  0  0  0  0  0  0
  128.1440  127.6650   69.1280 C   0  0  0  0  0  0  0  0  0  0  0  0
  128.2950  127.3140   70.4660 C   0  0  0  0  0  0  0  0  0  0  0  0
  129.9280  123.0032   72.6426 H   0  0  0  0  0  0  0  0  0  0  0  0
  129.2771  124.0816   71.3620 H   0  0  0  0  0  0  0  0  0  0  0  0
  131.0172  123.6359   71.3620 H   0  0  0  0  0  0  0  0  0  0  0  0
  130.6409  124.7643   73.9030 H   0  0  0  0  0  0  0  0  0  0  0  0
  131.3594  125.5930   72.4802 H   0  0  0  0  0  0  0  0  0  0  0  0
  131.2785  128.8406   71.1080 H   0  0  0  0  0  0  0  0  0  0  0  0
  131.0096  129.4782   68.7219 H   0  0  0  0  0  0  0  0  0  0  0  0
  129.5210  129.7350   66.9610 H   0  0  0  0  0  0  0  0  0  0  0  0
  129.6467  129.4612   64.6850 H   0  0  0  0  0  0  0  0  0  0  0  0
  128.5475  128.2377   63.9209 H   0  0  0  0  0  0  0  0  0  0  0  0
  130.4153  130.2908   59.9915 H   0  0  0  0  0  0  0  0  0  0  0  0
  132.7050  129.7254   59.2004 H   0  0  0  0  0  0  0  0  0  0  0  0
  134.6871  130.7669   60.2884 H   0  0  0  0  0  0  0  0  0  0  0  0
  134.3882  132.3817   62.1600 H   0  0  0  0  0  0  0  0  0  0  0  0
  132.1019  132.9561   62.9482 H   0  0  0  0  0  0  0  0  0  0  0  0
  129.4522  133.7511   60.7519 H   0  0  0  0  0  0  0  0  0  0  0  0
  127.2535  127.3375   68.5713 H   0  0  0  0  0  0  0  0  0  0  0  0
  127.5209  126.7081   70.9595 H   0  0  0  0  0  0  0  0  0  0  0  0
  1  2  1  0
  2  3  1  0
  3  4  1  0
  4  5  2  0
  4  6  1  0
  6  7  2  0
  7  8  1  0
  8  9  2  0
  9 10  1  0
 10 11  1  0
 11 12  2  0
 11 13  1  0
 13 14  1  0
 14 15  1  0
 15 16  2  0
 16 17  1  0
 17 18  1  0
 18 19  2  0
 19 20  1  0
 20 21  2  0
 21 22  1  0
 22 23  2  0
 17 24  2  0
 24 25  1  0
 25 26  1  0
 26 27  1  0
 26 28  1  0
 26 29  1  0
 25 30  2  0
 30 31  1  0
 31 32  3  0
  9 33  1  0
 33 34  2  0
 34  6  1  0
 30 15  1  0
 23 18  1  0
  1 35  1  0
  1 36  1  0
  1 37  1  0
  2 38  1  0
  2 39  1  0
  7 40  1  0
  8 41  1  0
 10 42  1  0
 13 43  1  0
 13 44  1  0
 19 45  1  0
 20 46  1  0
 21 47  1  0
 22 48  1  0
 23 49  1  0
 24 50  1  0
 33 51  1  0
 34 52  1  0
M  END
>  <Binding energies>  (1) 
[-7.59]

>  <Ligand effiencies>  (1) 
[-0.21685714285714286]

>  <Interactions>  (1) 
["V-A:LEU:363:CA:3180, V-A:ASN:362:CB:3171, V-A:ASN:362:C:3167, V-A:PRO:540:CA:4878, V-A:GLU:543:CD:4903, V-A:PRO:540:CB:4880, V-A:GLU:543:CG:4902, V-A:GLY:544:C:4907, V-A:GLU:543:CB:4901, V-A:HIS:456:CE1:4064, V-B:HIS:456:CE1:9037, H-A:GLU:543:OE1:4904, V-A:GLU:543:C:4897, H-B:TYR:484:OH:9315, V-A:PRO:540:C:4876, V-A:ALA:541:CB:4887, V-A:ALA:541:CA:4885, V-A:TYR:539:CE2:4871, V-A:ALA:541:C:4883, H-B:GLY:454:N:9017, H-B:LYS:547:NZ:9919, H-A:LYS:547:NZ:4946, V-A:HIS:456:CG:4061, V-B:LEU:475:CG:9224, V-B:LEU:475:CD2:9226, V-A:TYR:539:CD2:4869, V-A:TYR:539:CG:4867, V-A:TYR:539:C:4862, V-B:LEU:475:CD1:9225, V-B:PRO:482:CB:9293, V-A:ASN:362:CG:3172"]

$$$$
3ab_Grossjean_2025
     RDKit          3D

 49 51  0  0  0  0  0  0  0  0999 V2000
  130.1290  125.5580   72.4620 C   0  0  0  0  0  0  0  0  0  0  0  0
  129.3990  126.5810   73.1260 O   0  0  0  0  0  0  0  0  0  0  0  0
  129.3560  127.8440   72.6300 C   0  0  0  0  0  0  0  0  0  0  0  0
  129.3750  128.8540   73.3380 O   0  0  0  0  0  0  0  0  0  0  0  0
  129.2870  127.8890   71.1310 C   0  0  0  0  0  0  0  0  0  0  0  0
  128.2020  127.3530   70.4200 C   0  0  0  0  0  0  0  0  0  0  0  0
  128.1650  127.4110   69.0300 C   0  0  0  0  0  0  0  0  0  0  0  0
  129.2190  128.0090   68.3210 C   0  0  0  0  0  0  0  0  0  0  0  0
  129.2830  128.1280   66.9200 N   0  0  0  0  0  0  0  0  0  0  0  0
  128.8680  129.1290   66.1160 C   0  0  0  0  0  0  0  0  0  0  0  0
  128.3190  130.1650   66.4890 O   0  0  0  0  0  0  0  0  0  0  0  0
  129.1190  128.9160   64.6210 C   0  0  0  0  0  0  0  0  0  0  0  0
  127.6320  128.3330   63.7540 S   0  0  0  0  0  0  0  0  0  0  0  0
  126.3140  129.4690   64.1280 C   0  0  0  0  0  0  0  0  0  0  0  0
  126.2640  130.5350   63.2940 N   0  0  0  0  0  0  0  0  0  0  0  0
  125.3030  131.4800   63.4610 C   0  0  0  0  0  0  0  0  0  0  0  0
  125.3150  132.6260   62.4930 C   0  0  0  0  0  0  0  0  0  0  0  0
  126.5130  133.2890   62.1790 C   0  0  0  0  0  0  0  0  0  0  0  0
  126.5300  134.3530   61.2810 C   0  0  0  0  0  0  0  0  0  0  0  0
  125.3450  134.7710   60.6830 C   0  0  0  0  0  0  0  0  0  0  0  0
  124.1450  134.1340   60.9790 C   0  0  0  0  0  0  0  0  0  0  0  0
  124.1320  133.0710   61.8780 C   0  0  0  0  0  0  0  0  0  0  0  0
  124.3730  131.3790   64.5010 C   0  0  0  0  0  0  0  0  0  0  0  0
  124.4160  130.2960   65.3900 C   0  0  0  0  0  0  0  0  0  0  0  0
  123.3770  130.2250   66.5260 C   0  0  0  0  0  0  0  0  0  0  0  0
  123.6400  129.2600   67.4090 F   0  0  0  0  0  0  0  0  0  0  0  0
  123.3470  131.3790   67.1940 F   0  0  0  0  0  0  0  0  0  0  0  0
  122.1660  129.9880   66.0200 F   0  0  0  0  0  0  0  0  0  0  0  0
  125.4190  129.3110   65.2100 C   0  0  0  0  0  0  0  0  0  0  0  0
  125.5440  128.1890   66.1440 C   0  0  0  0  0  0  0  0  0  0  0  0
  125.6400  127.3040   66.8840 N   0  0  0  0  0  0  0  0  0  0  0  0
  130.2960  128.5480   69.0260 C   0  0  0  0  0  0  0  0  0  0  0  0
  130.3320  128.4880   70.4150 C   0  0  0  0  0  0  0  0  0  0  0  0
  130.5987  124.8997   73.2077 H   0  0  0  0  0  0  0  0  0  0  0  0
  129.4455  124.9696   71.8322 H   0  0  0  0  0  0  0  0  0  0  0  0
  130.9077  126.0130   71.8322 H   0  0  0  0  0  0  0  0  0  0  0  0
  127.3721  126.8821   70.9673 H   0  0  0  0  0  0  0  0  0  0  0  0
  127.3081  126.9874   68.4857 H   0  0  0  0  0  0  0  0  0  0  0  0
  129.6700  127.3180   66.4570 H   0  0  0  0  0  0  0  0  0  0  0  0
  129.4382  129.8698   64.1756 H   0  0  0  0  0  0  0  0  0  0  0  0
  129.8969  128.1455   64.5147 H   0  0  0  0  0  0  0  0  0  0  0  0
  127.4521  132.9626   62.6498 H   0  0  0  0  0  0  0  0  0  0  0  0
  127.4766  134.8613   61.0452 H   0  0  0  0  0  0  0  0  0  0  0  0
  125.3577  135.6102   59.9720 H   0  0  0  0  0  0  0  0  0  0  0  0
  123.2103  134.4684   60.5051 H   0  0  0  0  0  0  0  0  0  0  0  0
  123.1802  132.5711   62.1109 H   0  0  0  0  0  0  0  0  0  0  0  0
  123.6026  132.1548   64.6221 H   0  0  0  0  0  0  0  0  0  0  0  0
  131.1230  129.0241   68.4788 H   0  0  0  0  0  0  0  0  0  0  0  0
  131.1890  128.9148   70.9567 H   0  0  0  0  0  0  0  0  0  0  0  0
  1  2  1  0
  2  3  1  0
  3  4  2  0
  3  5  1  0
  5  6  2  0
  6  7  1  0
  7  8  2  0
  8  9  1  0
  9 10  1  0
 10 11  2  0
 10 12  1  0
 12 13  1  0
 13 14  1  0
 14 15  2  0
 15 16  1  0
 16 17  1  0
 17 18  2  0
 18 19  1  0
 19 20  2  0
 20 21  1  0
 21 22  2  0
 16 23  2  0
 23 24  1  0
 24 25  1  0
 25 26  1  0
 25 27  1  0
 25 28  1  0
 24 29  2  0
 29 30  1  0
 30 31  3  0
  8 32  1  0
 32 33  2  0
 33  5  1  0
 29 14  1  0
 22 17  1  0
  1 34  1  0
  1 35  1  0
  1 36  1  0
  6 37  1  0
  7 38  1  0
  9 39  1  0
 12 40  1  0
 12 41  1  0
 18 42  1  0
 19 43  1  0
 20 44  1  0
 21 45  1  0
 22 46  1  0
 23 47  1  0
 32 48  1  0
 33 49  1  0
M  END
>  <Binding energies>  (1) 
[-7.54]

>  <Ligand effiencies>  (1) 
[-0.22176470588235295]

>  <Interactions>  (1) 
["V-A:GLU:543:CD:4903, V-A:GLU:543:CG:4902, V-A:GLU:543:CB:4901, V-A:HIS:456:CE1:4064, V-B:HIS:456:CE1:9037, H-A:GLU:543:OE1:4904, V-A:GLU:543:C:4897, V-B:ARG:545:CZ:9894, H-B:TYR:484:OH:9315, V-B:ARG:545:CD:9891, V-B:ARG:545:CG:9890, V-A:TYR:539:CE2:4871, H-B:LYS:547:NZ:9919, H-A:LYS:547:NZ:4946, H-B:ARG:545:NE:9892, V-B:ILE:369:CD1:8206, V-B:ILE:369:CG2:8204, V-B:LEU:475:CD2:9226, V-A:TYR:539:CD2:4869, V-B:GLY:453:CA:9011, V-B:TYR:484:CZ:9314, V-B:TRP:381:CH2:8339, V-B:GLY:453:C:9009, V-B:GLY:454:CA:9016, V-B:TYR:484:CE2:9313, V-B:GLY:454:C:9014, V-B:ARG:545:CB:9889, V-B:ILE:455:C:9019, V-B:ILE:455:CA:9021, V-B:VAL:452:C:9001"]

$$$$
3ac_Grossjean_2025
     RDKit          3D

 47 49  0  0  0  0  0  0  0  0999 V2000
  129.7540  119.1380   73.7660 C   0  0  0  0  0  0  0  0  0  0  0  0
  130.6950  120.2010   73.6560 O   0  0  0  0  0  0  0  0  0  0  0  0
  130.3010  121.3970   73.0870 C   0  0  0  0  0  0  0  0  0  0  0  0
  131.1900  121.9800   72.1840 C   0  0  0  0  0  0  0  0  0  0  0  0
  130.8770  123.1820   71.5580 C   0  0  0  0  0  0  0  0  0  0  0  0
  129.6690  123.8260   71.8330 C   0  0  0  0  0  0  0  0  0  0  0  0
  129.4320  125.0260   71.1370 N   0  0  0  0  0  0  0  0  0  0  0  0
  129.3310  126.2840   71.6170 C   0  0  0  0  0  0  0  0  0  0  0  0
  129.4790  126.6090   72.7960 O   0  0  0  0  0  0  0  0  0  0  0  0
  129.0110  127.3620   70.5810 C   0  0  0  0  0  0  0  0  0  0  0  0
  127.4860  126.9980   69.6590 S   0  0  0  0  0  0  0  0  0  0  0  0
  127.8230  127.1480   67.9150 C   0  0  0  0  0  0  0  0  0  0  0  0
  127.0230  128.0480   67.2930 N   0  0  0  0  0  0  0  0  0  0  0  0
  127.1680  128.2750   65.9620 C   0  0  0  0  0  0  0  0  0  0  0  0
  126.2390  129.2810   65.3490 C   0  0  0  0  0  0  0  0  0  0  0  0
  126.6440  130.0580   64.2510 C   0  0  0  0  0  0  0  0  0  0  0  0
  125.7850  130.9890   63.6750 C   0  0  0  0  0  0  0  0  0  0  0  0
  124.5050  131.1590   64.1920 C   0  0  0  0  0  0  0  0  0  0  0  0
  124.0800  130.4070   65.2820 C   0  0  0  0  0  0  0  0  0  0  0  0
  124.9430  129.4770   65.8550 C   0  0  0  0  0  0  0  0  0  0  0  0
  128.1220  127.5780   65.2150 C   0  0  0  0  0  0  0  0  0  0  0  0
  128.9470  126.6240   65.8300 C   0  0  0  0  0  0  0  0  0  0  0  0
  129.9820  125.8740   64.9690 C   0  0  0  0  0  0  0  0  0  0  0  0
  129.9360  126.2250   63.6810 F   0  0  0  0  0  0  0  0  0  0  0  0
  131.2170  126.1290   65.4040 F   0  0  0  0  0  0  0  0  0  0  0  0
  129.7620  124.5610   65.0380 F   0  0  0  0  0  0  0  0  0  0  0  0
  128.7890  126.3860   67.2180 C   0  0  0  0  0  0  0  0  0  0  0  0
  129.5740  125.3470   67.8880 C   0  0  0  0  0  0  0  0  0  0  0  0
  130.1930  124.5240   68.4170 N   0  0  0  0  0  0  0  0  0  0  0  0
  128.7660  123.2420   72.7350 C   0  0  0  0  0  0  0  0  0  0  0  0
  129.0820  122.0380   73.3590 C   0  0  0  0  0  0  0  0  0  0  0  0
  129.5648  118.9243   74.8283 H   0  0  0  0  0  0  0  0  0  0  0  0
  128.8126  119.4296   73.2773 H   0  0  0  0  0  0  0  0  0  0  0  0
  130.1576  118.2390   73.2773 H   0  0  0  0  0  0  0  0  0  0  0  0
  132.1474  121.4846   71.9649 H   0  0  0  0  0  0  0  0  0  0  0  0
  131.5844  123.6273   70.8430 H   0  0  0  0  0  0  0  0  0  0  0  0
  129.3810  124.9230   70.1340 H   0  0  0  0  0  0  0  0  0  0  0  0
  128.8910  128.3255   71.0979 H   0  0  0  0  0  0  0  0  0  0  0  0
  129.8415  127.3949   69.8604 H   0  0  0  0  0  0  0  0  0  0  0  0
  127.6561  129.9284   63.8401 H   0  0  0  0  0  0  0  0  0  0  0  0
  126.1169  131.5881   62.8142 H   0  0  0  0  0  0  0  0  0  0  0  0
  123.8244  131.8930   63.7358 H   0  0  0  0  0  0  0  0  0  0  0  0
  123.0676  130.5463   65.6891 H   0  0  0  0  0  0  0  0  0  0  0  0
  124.6045  128.8856   66.7185 H   0  0  0  0  0  0  0  0  0  0  0  0
  128.2266  127.7786   64.1385 H   0  0  0  0  0  0  0  0  0  0  0  0
  127.8070  123.7363   72.9493 H   0  0  0  0  0  0  0  0  0  0  0  0
  128.3729  121.5868   74.0687 H   0  0  0  0  0  0  0  0  0  0  0  0
  1  2  1  0
  2  3  1  0
  3  4  2  0
  4  5  1  0
  5  6  2  0
  6  7  1  0
  7  8  1  0
  8  9  2  0
  8 10  1  0
 10 11  1  0
 11 12  1  0
 12 13  2  0
 13 14  1  0
 14 15  1  0
 15 16  2  0
 16 17  1  0
 17 18  2  0
 18 19  1  0
 19 20  2  0
 14 21  2  0
 21 22  1  0
 22 23  1  0
 23 24  1  0
 23 25  1  0
 23 26  1  0
 22 27  2  0
 27 28  1  0
 28 29  3  0
  6 30  1  0
 30 31  2  0
 31  3  1  0
 27 12  1  0
 20 15  1  0
  1 32  1  0
  1 33  1  0
  1 34  1  0
  4 35  1  0
  5 36  1  0
  7 37  1  0
 10 38  1  0
 10 39  1  0
 16 40  1  0
 17 41  1  0
 18 42  1  0
 19 43  1  0
 20 44  1  0
 21 45  1  0
 30 46  1  0
 31 47  1  0
M  END
>  <Binding energies>  (1) 
[-6.64]

>  <Ligand effiencies>  (1) 
[-0.2075]

>  <Interactions>  (1) 
["V-A:GLU:543:CD:4903, V-B:GLU:543:CG:9875, V-A:HIS:456:CE1:4064, V-B:HIS:456:CE1:9037, V-B:GLU:543:CD:9876, V-B:GLU:543:CB:9874, V-B:ARG:545:CZ:9894, V-B:ARG:545:CD:9891, V-B:ARG:545:CG:9890, V-A:HIS:456:CD2:4063, V-B:GLU:543:C:9870, V-B:GLU:543:CA:9872, H-B:GLU:543:O:9871, H-B:LYS:547:NZ:9919, V-B:GLY:544:CA:9882, V-A:TYR:484:CD2:4339, V-A:HIS:456:CG:4061, V-A:TYR:484:CB:4336, H-A:HIS:456:NE2:4065, V-B:LYS:547:CE:9918, V-A:TYR:484:CG:4337, V-A:TYR:484:C:4332"]

$$$$
3ad_Grossjean_2025
     RDKit          3D

 43 45  0  0  0  0  0  0  0  0999 V2000
  128.7520  128.3080   67.4030 N   0  0  0  0  0  0  0  0  0  0  0  0
  129.0270  127.3970   68.0620 C   0  0  0  0  0  0  0  0  0  0  0  0
  129.3780  126.2420   68.8940 C   0  0  0  0  0  0  0  0  0  0  0  0
  129.8250  125.0350   68.3040 C   0  0  0  0  0  0  0  0  0  0  0  0
  130.0140  124.8710   66.7840 C   0  0  0  0  0  0  0  0  0  0  0  0
  129.9940  123.5950   66.3940 F   0  0  0  0  0  0  0  0  0  0  0  0
  129.0380  125.5070   66.1330 F   0  0  0  0  0  0  0  0  0  0  0  0
  131.1880  125.3830   66.4100 F   0  0  0  0  0  0  0  0  0  0  0  0
  130.1030  123.9430   69.1410 C   0  0  0  0  0  0  0  0  0  0  0  0
  129.9360  124.0530   70.5260 C   0  0  0  0  0  0  0  0  0  0  0  0
  130.2030  122.9140   71.4640 C   0  0  0  0  0  0  0  0  0  0  0  0
  131.4220  122.8250   72.1550 C   0  0  0  0  0  0  0  0  0  0  0  0
  131.6770  121.7710   73.0290 C   0  0  0  0  0  0  0  0  0  0  0  0
  130.7110  120.7880   73.2240 C   0  0  0  0  0  0  0  0  0  0  0  0
  129.4940  120.8550   72.5530 C   0  0  0  0  0  0  0  0  0  0  0  0
  129.2440  121.9110   71.6810 C   0  0  0  0  0  0  0  0  0  0  0  0
  129.5000  125.2100   71.0850 N   0  0  0  0  0  0  0  0  0  0  0  0
  129.2460  126.2830   70.3000 C   0  0  0  0  0  0  0  0  0  0  0  0
  128.6980  127.7140   71.2030 S   0  0  0  0  0  0  0  0  0  0  0  0
  130.0890  128.2670   72.2340 C   0  0  0  0  0  0  0  0  0  0  0  0
  130.6250  127.1470   73.1290 C   0  0  0  0  0  0  0  0  0  0  0  0
  129.8430  126.3010   73.5630 O   0  0  0  0  0  0  0  0  0  0  0  0
  131.9530  127.1860   73.3730 N   0  0  0  0  0  0  0  0  0  0  0  0
  132.7550  126.3140   74.1320 C   0  0  0  0  0  0  0  0  0  0  0  0
  134.1170  126.6290   74.1770 C   0  0  0  0  0  0  0  0  0  0  0  0
  135.0000  125.8290   74.8970 C   0  0  0  0  0  0  0  0  0  0  0  0
  134.5240  124.7080   75.5700 C   0  0  0  0  0  0  0  0  0  0  0  0
  133.1720  124.3790   75.5290 C   0  0  0  0  0  0  0  0  0  0  0  0
  132.2850  125.1760   74.8100 C   0  0  0  0  0  0  0  0  0  0  0  0
  130.4540  122.9957   68.7059 H   0  0  0  0  0  0  0  0  0  0  0  0
  132.1878  123.6000   72.0037 H   0  0  0  0  0  0  0  0  0  0  0  0
  132.6373  121.7157   73.5627 H   0  0  0  0  0  0  0  0  0  0  0  0
  130.9109  119.9536   73.9124 H   0  0  0  0  0  0  0  0  0  0  0  0
  128.7326  120.0769   72.7108 H   0  0  0  0  0  0  0  0  0  0  0  0
  128.2800  121.9607   71.1535 H   0  0  0  0  0  0  0  0  0  0  0  0
  130.9002  128.6151   71.5777 H   0  0  0  0  0  0  0  0  0  0  0  0
  129.7265  129.0760   72.8852 H   0  0  0  0  0  0  0  0  0  0  0  0
  132.4520  127.9750   72.9890 H   0  0  0  0  0  0  0  0  0  0  0  0
  134.4923  127.5132   73.6409 H   0  0  0  0  0  0  0  0  0  0  0  0
  136.0699  126.0821   74.9337 H   0  0  0  0  0  0  0  0  0  0  0  0
  135.2219  124.0765   76.1392 H   0  0  0  0  0  0  0  0  0  0  0  0
  132.8049  123.4907   76.0638 H   0  0  0  0  0  0  0  0  0  0  0  0
  131.2170  124.9151   74.7726 H   0  0  0  0  0  0  0  0  0  0  0  0
  1  2  3  0
  2  3  1  0
  3  4  2  0
  4  5  1  0
  5  6  1  0
  5  7  1  0
  5  8  1  0
  4  9  1  0
  9 10  2  0
 10 11  1  0
 11 12  2  0
 12 13  1  0
 13 14  2  0
 14 15  1  0
 15 16  2  0
 10 17  1  0
 17 18  2  0
 18 19  1  0
 19 20  1  0
 20 21  1  0
 21 22  2  0
 21 23  1  0
 23 24  1  0
 24 25  2  0
 25 26  1  0
 26 27  2  0
 27 28  1  0
 28 29  2  0
 18  3  1  0
 29 24  1  0
 16 11  1  0
  9 30  1  0
 12 31  1  0
 13 32  1  0
 14 33  1  0
 15 34  1  0
 16 35  1  0
 20 36  1  0
 20 37  1  0
 23 38  1  0
 25 39  1  0
 26 40  1  0
 27 41  1  0
 28 42  1  0
 29 43  1  0
M  END
>  <Binding energies>  (1) 
[-7.2]

>  <Ligand effiencies>  (1) 
[-0.24000000000000002]

>  <Interactions>  (1) 
["V-B:GLU:543:CG:9875, V-A:HIS:456:CE1:4064, V-B:GLU:543:CD:9876, V-B:GLU:543:CB:9874, V-A:TYR:484:CE1:4340, V-A:TYR:484:CZ:4342, V-A:HIS:456:CD2:4063, V-B:GLU:543:C:9870, V-B:GLU:543:CA:9872, H-A:HIS:456:ND1:4062, H-B:LYS:547:NZ:9919, V-A:TYR:484:CD1:4338, V-A:TYR:484:CD2:4339, V-A:HIS:456:CG:4061, V-A:TYR:484:CB:4336, V-A:TYR:484:CG:4337, V-A:LYS:547:CE:4945, V-A:ASP:473:CG:4235, V-A:ASP:473:CB:4234, V-A:HIS:456:CB:4060, H-A:GLY:544:O:4908, V-A:LYS:547:CG:4943, V-A:ARG:545:C:4912, V-A:LYS:547:CD:4944, V-A:VAL:458:CG2:4082, V-A:HIS:456:C:4056, V-A:VAL:457:C:4068, V-A:VAL:457:CA:4070"]

$$$$
3af_Grossjean_2025
     RDKit          3D

 42 44  0  0  0  0  0  0  0  0999 V2000
  128.7750  128.3610   67.4020 N   0  0  0  0  0  0  0  0  0  0  0  0
  129.0480  127.4490   68.0610 C   0  0  0  0  0  0  0  0  0  0  0  0
  129.3930  126.2940   68.8930 C   0  0  0  0  0  0  0  0  0  0  0  0
  129.8340  125.0840   68.3030 C   0  0  0  0  0  0  0  0  0  0  0  0
  130.0230  124.9210   66.7820 C   0  0  0  0  0  0  0  0  0  0  0  0
  129.1300  125.6120   66.0710 F   0  0  0  0  0  0  0  0  0  0  0  0
  131.2360  125.3460   66.4270 F   0  0  0  0  0  0  0  0  0  0  0  0
  129.8970  123.6380   66.4400 F   0  0  0  0  0  0  0  0  0  0  0  0
  130.1000  123.9880   69.1380 C   0  0  0  0  0  0  0  0  0  0  0  0
  129.9300  124.0970   70.5220 C   0  0  0  0  0  0  0  0  0  0  0  0
  130.1820  122.9520   71.4590 C   0  0  0  0  0  0  0  0  0  0  0  0
  131.3890  122.8590   72.1700 C   0  0  0  0  0  0  0  0  0  0  0  0
  131.6280  121.8010   73.0420 C   0  0  0  0  0  0  0  0  0  0  0  0
  130.6590  120.8190   73.2160 C   0  0  0  0  0  0  0  0  0  0  0  0
  129.4530  120.8880   72.5260 C   0  0  0  0  0  0  0  0  0  0  0  0
  129.2180  121.9490   71.6550 C   0  0  0  0  0  0  0  0  0  0  0  0
  129.5040  125.2560   71.0840 N   0  0  0  0  0  0  0  0  0  0  0  0
  129.2620  126.3350   70.3000 C   0  0  0  0  0  0  0  0  0  0  0  0
  128.7280  127.7670   71.2160 S   0  0  0  0  0  0  0  0  0  0  0  0
  130.1160  128.3230   72.2510 C   0  0  0  0  0  0  0  0  0  0  0  0
  130.6670  127.1930   73.1190 C   0  0  0  0  0  0  0  0  0  0  0  0
  129.8940  126.3350   73.5460 O   0  0  0  0  0  0  0  0  0  0  0  0
  131.9960  127.2400   73.3550 N   0  0  0  0  0  0  0  0  0  0  0  0
  132.8050  126.3690   74.1110 C   0  0  0  0  0  0  0  0  0  0  0  0
  132.3560  125.2420   74.8230 C   0  0  0  0  0  0  0  0  0  0  0  0
  133.2730  124.4650   75.5360 C   0  0  0  0  0  0  0  0  0  0  0  0
  134.6180  124.8350   75.5190 C   0  0  0  0  0  0  0  0  0  0  0  0
  135.0760  125.9160   74.8410 N   0  0  0  0  0  0  0  0  0  0  0  0
  134.1730  126.6610   74.1530 C   0  0  0  0  0  0  0  0  0  0  0  0
  130.4439  123.0385   68.7019 H   0  0  0  0  0  0  0  0  0  0  0  0
  132.1577  123.6343   72.0358 H   0  0  0  0  0  0  0  0  0  0  0  0
  132.5793  121.7419   73.5912 H   0  0  0  0  0  0  0  0  0  0  0  0
  130.8474  119.9817   73.9041 H   0  0  0  0  0  0  0  0  0  0  0  0
  128.6894  120.1090   72.6675 H   0  0  0  0  0  0  0  0  0  0  0  0
  128.2628  122.0025   71.1121 H   0  0  0  0  0  0  0  0  0  0  0  0
  130.9198  128.6946   71.5985 H   0  0  0  0  0  0  0  0  0  0  0  0
  129.7479  129.1168   72.9176 H   0  0  0  0  0  0  0  0  0  0  0  0
  132.4960  128.0040   72.9270 H   0  0  0  0  0  0  0  0  0  0  0  0
  131.2892  124.9738   74.8186 H   0  0  0  0  0  0  0  0  0  0  0  0
  132.9412  123.5801   76.0989 H   0  0  0  0  0  0  0  0  0  0  0  0
  135.3388  124.2226   76.0806 H   0  0  0  0  0  0  0  0  0  0  0  0
  134.5357  127.5399   73.5998 H   0  0  0  0  0  0  0  0  0  0  0  0
  1  2  3  0
  2  3  1  0
  3  4  2  0
  4  5  1  0
  5  6  1  0
  5  7  1  0
  5  8  1  0
  4  9  1  0
  9 10  2  0
 10 11  1  0
 11 12  2  0
 12 13  1  0
 13 14  2  0
 14 15  1  0
 15 16  2  0
 10 17  1  0
 17 18  2  0
 18 19  1  0
 19 20  1  0
 20 21  1  0
 21 22  2  0
 21 23  1  0
 23 24  1  0
 24 25  2  0
 25 26  1  0
 26 27  2  0
 27 28  1  0
 28 29  2  0
 18  3  1  0
 29 24  1  0
 16 11  1  0
  9 30  1  0
 12 31  1  0
 13 32  1  0
 14 33  1  0
 15 34  1  0
 16 35  1  0
 20 36  1  0
 20 37  1  0
 23 38  1  0
 25 39  1  0
 26 40  1  0
 27 41  1  0
 29 42  1  0
M  END
>  <Binding energies>  (1) 
[-6.79]

>  <Ligand effiencies>  (1) 
[-0.22633333333333333]

>  <Interactions>  (1) 
["V-B:GLU:543:CG:9875, V-A:HIS:456:CE1:4064, V-B:GLU:543:CD:9876, V-B:GLU:543:CB:9874, V-A:TYR:484:CE1:4340, V-A:TYR:484:CZ:4342, V-A:HIS:456:CD2:4063, V-B:GLU:543:C:9870, V-B:GLU:543:CA:9872, H-A:HIS:456:ND1:4062, H-B:LYS:547:NZ:9919, V-A:TYR:484:CD1:4338, V-A:HIS:456:CG:4061, V-A:TYR:484:CB:4336, V-A:TYR:484:CG:4337, V-A:LYS:547:CE:4945, V-A:ASP:473:CG:4235, V-A:ASP:473:CB:4234, V-A:HIS:456:CB:4060, H-A:GLY:544:O:4908, V-A:LYS:547:CG:4943, V-A:ARG:545:C:4912, V-A:LYS:547:CD:4944, V-A:VAL:458:CG2:4082, V-A:HIS:456:C:4056, H-A:VAL:457:N:4071"]

$$$$
3ag_Grossjean_2025
     RDKit          3D

 46 48  0  0  0  0  0  0  0  0999 V2000
  129.3410  126.6880   63.3800 N   0  0  0  0  0  0  0  0  0  0  0  0
  129.3040  126.9840   64.4990 C   0  0  0  0  0  0  0  0  0  0  0  0
  129.2570  127.3620   65.9140 C   0  0  0  0  0  0  0  0  0  0  0  0
  128.8730  128.6690   66.3010 C   0  0  0  0  0  0  0  0  0  0  0  0
  128.4310  129.7420   65.2860 C   0  0  0  0  0  0  0  0  0  0  0  0
  127.1460  129.6320   64.9440 F   0  0  0  0  0  0  0  0  0  0  0  0
  128.6070  130.9570   65.8060 F   0  0  0  0  0  0  0  0  0  0  0  0
  129.1520  129.6410   64.1680 F   0  0  0  0  0  0  0  0  0  0  0  0
  128.8950  128.9990   67.6650 C   0  0  0  0  0  0  0  0  0  0  0  0
  129.3010  128.0540   68.6140 C   0  0  0  0  0  0  0  0  0  0  0  0
  129.3460  128.3520   70.0820 C   0  0  0  0  0  0  0  0  0  0  0  0
  130.5130  128.8590   70.6750 C   0  0  0  0  0  0  0  0  0  0  0  0
  130.5620  129.1390   72.0380 C   0  0  0  0  0  0  0  0  0  0  0  0
  129.4400  128.9130   72.8290 C   0  0  0  0  0  0  0  0  0  0  0  0
  128.2720  128.4090   72.2670 C   0  0  0  0  0  0  0  0  0  0  0  0
  128.2270  128.1300   70.9040 C   0  0  0  0  0  0  0  0  0  0  0  0
  129.6560  126.7980   68.2400 N   0  0  0  0  0  0  0  0  0  0  0  0
  129.6230  126.4520   66.9300 C   0  0  0  0  0  0  0  0  0  0  0  0
  130.1170  124.7690   66.6270 S   0  0  0  0  0  0  0  0  0  0  0  0
  131.0460  124.7510   65.0650 C   0  0  0  0  0  0  0  0  0  0  0  0
  130.6760  123.5550   64.1860 C   0  0  0  0  0  0  0  0  0  0  0  0
  131.2180  122.4640   64.3740 O   0  0  0  0  0  0  0  0  0  0  0  0
  129.7480  123.7740   63.2390 N   0  0  0  0  0  0  0  0  0  0  0  0
  129.2230  122.7680   62.3160 C   0  0  0  0  0  0  0  0  0  0  0  0
  130.2980  121.9480   61.6120 C   0  0  0  0  0  0  0  0  0  0  0  0
  130.0790  120.5930   61.3520 C   0  0  0  0  0  0  0  0  0  0  0  0
  131.0460  119.8470   60.6820 C   0  0  0  0  0  0  0  0  0  0  0  0
  132.2250  120.4630   60.2660 C   0  0  0  0  0  0  0  0  0  0  0  0
  132.4430  121.8170   60.5080 C   0  0  0  0  0  0  0  0  0  0  0  0
  131.4760  122.5630   61.1770 C   0  0  0  0  0  0  0  0  0  0  0  0
  128.5917  130.0053   67.9897 H   0  0  0  0  0  0  0  0  0  0  0  0
  131.4026  129.0379   70.0532 H   0  0  0  0  0  0  0  0  0  0  0  0
  131.4837  129.5371   72.4874 H   0  0  0  0  0  0  0  0  0  0  0  0
  129.4770  129.1344   73.9059 H   0  0  0  0  0  0  0  0  0  0  0  0
  127.3877  128.2316   72.8967 H   0  0  0  0  0  0  0  0  0  0  0  0
  127.3020  127.7298   70.4633 H   0  0  0  0  0  0  0  0  0  0  0  0
  130.8284  125.6771   64.5128 H   0  0  0  0  0  0  0  0  0  0  0  0
  132.1156  124.6723   65.3093 H   0  0  0  0  0  0  0  0  0  0  0  0
  129.3490  124.6980   63.1610 H   0  0  0  0  0  0  0  0  0  0  0  0
  128.5803  122.0796   62.8844 H   0  0  0  0  0  0  0  0  0  0  0  0
  128.6748  123.3117   61.5325 H   0  0  0  0  0  0  0  0  0  0  0  0
  129.1429  120.1151   61.6764 H   0  0  0  0  0  0  0  0  0  0  0  0
  130.8801  118.7781   60.4824 H   0  0  0  0  0  0  0  0  0  0  0  0
  132.9912  119.8736   59.7411 H   0  0  0  0  0  0  0  0  0  0  0  0
  133.3750  122.2951   60.1722 H   0  0  0  0  0  0  0  0  0  0  0  0
  131.6387  123.6349   61.3630 H   0  0  0  0  0  0  0  0  0  0  0  0
  1  2  3  0
  2  3  1  0
  3  4  2  0
  4  5  1  0
  5  6  1  0
  5  7  1  0
  5  8  1  0
  4  9  1  0
  9 10  2  0
 10 11  1  0
 11 12  2  0
 12 13  1  0
 13 14  2  0
 14 15  1  0
 15 16  2  0
 10 17  1  0
 17 18  2  0
 18 19  1  0
 19 20  1  0
 20 21  1  0
 21 22  2  0
 21 23  1  0
 23 24  1  0
 24 25  1  0
 25 26  2  0
 26 27  1  0
 27 28  2  0
 28 29  1  0
 29 30  2  0
 18  3  1  0
 30 25  1  0
 16 11  1  0
  9 31  1  0
 12 32  1  0
 13 33  1  0
 14 34  1  0
 15 35  1  0
 16 36  1  0
 20 37  1  0
 20 38  1  0
 23 39  1  0
 24 40  1  0
 24 41  1  0
 26 42  1  0
 27 43  1  0
 28 44  1  0
 29 45  1  0
 30 46  1  0
M  END
>  <Binding energies>  (1) 
[-7.25]

>  <Ligand effiencies>  (1) 
[-0.23387096774193547]

>  <Interactions>  (1) 
["H-A:TYR:484:OH:4343, V-A:GLU:543:CD:4903, V-A:GLU:543:CG:4902, V-A:GLY:544:C:4907, V-A:GLU:543:CB:4901, V-B:GLU:543:CG:9875, V-A:HIS:456:CE1:4064, V-A:GLY:544:CA:4909, V-B:HIS:456:CE1:9037, V-B:GLU:543:CD:9876, V-A:GLU:543:C:4897, V-B:GLU:543:CB:9874, H-B:GLU:543:OE2:9878, V-A:LEU:475:CD2:4254, V-B:TYR:539:CD2:9842, V-A:TRP:381:CZ2:3365, V-A:TRP:381:CH2:3367, V-B:TYR:539:CE2:9844, V-B:ALA:541:CB:9860, V-B:HIS:456:CD2:9035, V-A:LYS:547:CE:4945, V-B:TYR:484:CZ:9314, V-B:TYR:484:CE1:9312"]

$$$$
3ai_Grossjean_2025
     RDKit          3D

 39 41  0  0  0  0  0  0  0  0999 V2000
  124.1260  133.6890   60.8940 N   0  0  0  0  0  0  0  0  0  0  0  0
  125.2070  133.3730   60.6270 C   0  0  0  0  0  0  0  0  0  0  0  0
  126.5760  132.9720   60.2900 C   0  0  0  0  0  0  0  0  0  0  0  0
  127.6850  133.7130   60.7670 C   0  0  0  0  0  0  0  0  0  0  0  0
  127.5320  134.9370   61.6900 C   0  0  0  0  0  0  0  0  0  0  0  0
  128.6420  135.6760   61.7580 F   0  0  0  0  0  0  0  0  0  0  0  0
  126.5520  135.7240   61.2440 F   0  0  0  0  0  0  0  0  0  0  0  0
  127.2400  134.5430   62.9300 F   0  0  0  0  0  0  0  0  0  0  0  0
  128.9730  133.3170   60.3770 C   0  0  0  0  0  0  0  0  0  0  0  0
  129.1500  132.2160   59.5340 C   0  0  0  0  0  0  0  0  0  0  0  0
  130.5020  131.7550   59.0770 C   0  0  0  0  0  0  0  0  0  0  0  0
  130.8960  131.9070   57.7380 C   0  0  0  0  0  0  0  0  0  0  0  0
  132.1510  131.4860   57.3080 C   0  0  0  0  0  0  0  0  0  0  0  0
  133.0330  130.9080   58.2150 C   0  0  0  0  0  0  0  0  0  0  0  0
  132.6680  130.7480   59.5470 C   0  0  0  0  0  0  0  0  0  0  0  0
  131.4130  131.1700   59.9740 C   0  0  0  0  0  0  0  0  0  0  0  0
  128.0840  131.5130   59.0720 N   0  0  0  0  0  0  0  0  0  0  0  0
  126.8320  131.8610   59.4540 C   0  0  0  0  0  0  0  0  0  0  0  0
  125.5650  130.8140   58.7690 S   0  0  0  0  0  0  0  0  0  0  0  0
  125.3250  129.4080   59.9070 C   0  0  0  0  0  0  0  0  0  0  0  0
  125.5370  129.7320   61.3930 C   0  0  0  0  0  0  0  0  0  0  0  0
  126.6650  129.9710   61.8310 O   0  0  0  0  0  0  0  0  0  0  0  0
  124.4090  129.7260   62.1380 N   0  0  0  0  0  0  0  0  0  0  0  0
  124.2980  129.9880   63.4970 C   0  0  0  0  0  0  0  0  0  0  0  0
  125.1690  129.4600   64.4490 C   0  0  0  0  0  0  0  0  0  0  0  0
  124.7220  129.9480   65.6550 C   0  0  0  0  0  0  0  0  0  0  0  0
  123.6380  130.7310   65.4410 O   0  0  0  0  0  0  0  0  0  0  0  0
  123.3790  130.7490   64.0690 N   0  0  0  0  0  0  0  0  0  0  0  0
  129.8492  133.8763   60.7368 H   0  0  0  0  0  0  0  0  0  0  0  0
  130.2024  132.3657   57.0179 H   0  0  0  0  0  0  0  0  0  0  0  0
  132.4442  131.6099   56.2551 H   0  0  0  0  0  0  0  0  0  0  0  0
  134.0253  130.5755   57.8764 H   0  0  0  0  0  0  0  0  0  0  0  0
  133.3687  130.2896   60.2603 H   0  0  0  0  0  0  0  0  0  0  0  0
  131.1292  131.0441   61.0293 H   0  0  0  0  0  0  0  0  0  0  0  0
  124.2962  129.0393   59.7816 H   0  0  0  0  0  0  0  0  0  0  0  0
  126.0910  128.6642   59.6423 H   0  0  0  0  0  0  0  0  0  0  0  0
  123.5430  129.5140   61.6650 H   0  0  0  0  0  0  0  0  0  0  0  0
  126.0284  128.7962   64.2736 H   0  0  0  0  0  0  0  0  0  0  0  0
  125.1727  129.7362   66.6358 H   0  0  0  0  0  0  0  0  0  0  0  0
  1  2  3  0
  2  3  1  0
  3  4  2  0
  4  5  1  0
  5  6  1  0
  5  7  1  0
  5  8  1  0
  4  9  1  0
  9 10  2  0
 10 11  1  0
 11 12  2  0
 12 13  1  0
 13 14  2  0
 14 15  1  0
 15 16  2  0
 10 17  1  0
 17 18  2  0
 18 19  1  0
 19 20  1  0
 20 21  1  0
 21 22  2  0
 21 23  1  0
 23 24  1  0
 24 25  1  0
 25 26  2  0
 26 27  1  0
 27 28  1  0
 18  3  1  0
 28 24  2  0
 16 11  1  0
  9 29  1  0
 12 30  1  0
 13 31  1  0
 14 32  1  0
 15 33  1  0
 16 34  1  0
 20 35  1  0
 20 36  1  0
 23 37  1  0
 25 38  1  0
 26 39  1  0
M  END
>  <Binding energies>  (1) 
[-7.46]

>  <Ligand effiencies>  (1) 
[-0.25724137931034485]

>  <Interactions>  (1) 
["V-A:LEU:363:CA:3180, V-A:PRO:540:CA:4878, V-A:PRO:540:CB:4880, V-B:HIS:456:CE1:9037, V-B:ARG:545:CZ:9894, H-B:TYR:484:OH:9315, V-A:PRO:540:C:4876, V-A:TYR:539:CZ:4872, V-A:TYR:531:CE2:4788, V-A:ALA:541:CB:4887, V-A:ALA:541:CA:4885, V-A:TYR:539:CE2:4871, H-B:GLY:454:N:9017, V-A:PRO:540:N:4879, V-A:LEU:363:CD1:3184, V-B:ASP:366:CB:8179, H-B:ASP:366:OD2:8182, H-B:ASP:366:OD1:8181, V-B:ASP:366:CG:8180, V-B:LEU:475:CG:9224, V-B:LEU:475:CD2:9226, V-A:TYR:539:CD2:4869, H-A:TYR:539:OH:4873, V-A:TYR:539:C:4862, V-B:TRP:381:CH2:8339, V-B:TRP:381:CZ2:8337, V-B:LEU:475:CD1:9225, V-B:PRO:482:CG:9294, V-B:PRO:482:CB:9293"]

$$$$
3aj_Grossjean_2025
     RDKit          3D

 39 41  0  0  0  0  0  0  0  0999 V2000
  124.1140  133.7470   60.7910 N   0  0  0  0  0  0  0  0  0  0  0  0
  125.2010  133.4130   60.5770 C   0  0  0  0  0  0  0  0  0  0  0  0
  126.5790  132.9930   60.3070 C   0  0  0  0  0  0  0  0  0  0  0  0
  127.6750  133.7460   60.7950 C   0  0  0  0  0  0  0  0  0  0  0  0
  127.4960  135.0080   61.6610 C   0  0  0  0  0  0  0  0  0  0  0  0
  128.6150  135.7300   61.7600 F   0  0  0  0  0  0  0  0  0  0  0  0
  126.5550  135.7930   61.1360 F   0  0  0  0  0  0  0  0  0  0  0  0
  127.1330  134.6650   62.8980 F   0  0  0  0  0  0  0  0  0  0  0  0
  128.9740  133.3270   60.4690 C   0  0  0  0  0  0  0  0  0  0  0  0
  129.1740  132.1920   59.6760 C   0  0  0  0  0  0  0  0  0  0  0  0
  130.5380  131.7080   59.2900 C   0  0  0  0  0  0  0  0  0  0  0  0
  131.4200  131.2080   60.2600 C   0  0  0  0  0  0  0  0  0  0  0  0
  132.6890  130.7510   59.9080 C   0  0  0  0  0  0  0  0  0  0  0  0
  133.0910  130.7910   58.5760 C   0  0  0  0  0  0  0  0  0  0  0  0
  132.2340  131.2810   57.5970 C   0  0  0  0  0  0  0  0  0  0  0  0
  130.9680  131.7340   57.9530 C   0  0  0  0  0  0  0  0  0  0  0  0
  128.1200  131.4780   59.2040 N   0  0  0  0  0  0  0  0  0  0  0  0
  126.8570  131.8480   59.5250 C   0  0  0  0  0  0  0  0  0  0  0  0
  125.6090  130.7820   58.8380 S   0  0  0  0  0  0  0  0  0  0  0  0
  124.3000  130.5710   60.0930 C   0  0  0  0  0  0  0  0  0  0  0  0
  124.8030  130.4140   61.5350 C   0  0  0  0  0  0  0  0  0  0  0  0
  125.9950  130.5720   61.8090 O   0  0  0  0  0  0  0  0  0  0  0  0
  123.8450  130.1000   62.4350 N   0  0  0  0  0  0  0  0  0  0  0  0
  124.0210  129.9070   63.8000 C   0  0  0  0  0  0  0  0  0  0  0  0
  123.2790  130.3700   64.7820 N   0  0  0  0  0  0  0  0  0  0  0  0
  123.7360  129.9870   65.9580 C   0  0  0  0  0  0  0  0  0  0  0  0
  124.8800  129.1930   65.9440 C   0  0  0  0  0  0  0  0  0  0  0  0
  125.3740  128.9420   64.2970 S   0  0  0  0  0  0  0  0  0  0  0  0
  129.8404  133.8946   60.8393 H   0  0  0  0  0  0  0  0  0  0  0  0
  131.1055  131.1762   61.3136 H   0  0  0  0  0  0  0  0  0  0  0  0
  133.3694  130.3606   60.6791 H   0  0  0  0  0  0  0  0  0  0  0  0
  134.0927  130.4328   58.2963 H   0  0  0  0  0  0  0  0  0  0  0  0
  132.5557  131.3103   56.5455 H   0  0  0  0  0  0  0  0  0  0  0  0
  130.2925  132.1189   57.1748 H   0  0  0  0  0  0  0  0  0  0  0  0
  123.6447  131.4537   60.0544 H   0  0  0  0  0  0  0  0  0  0  0  0
  123.7834  129.6324   59.8437 H   0  0  0  0  0  0  0  0  0  0  0  0
  122.9000  130.0010   62.0950 H   0  0  0  0  0  0  0  0  0  0  0  0
  123.2418  130.2781   66.8966 H   0  0  0  0  0  0  0  0  0  0  0  0
  125.3887  128.7898   66.8321 H   0  0  0  0  0  0  0  0  0  0  0  0
  1  2  3  0
  2  3  1  0
  3  4  2  0
  4  5  1  0
  5  6  1  0
  5  7  1  0
  5  8  1  0
  4  9  1  0
  9 10  2  0
 10 11  1  0
 11 12  2  0
 12 13  1  0
 13 14  2  0
 14 15  1  0
 15 16  2  0
 10 17  1  0
 17 18  2  0
 18 19  1  0
 19 20  1  0
 20 21  1  0
 21 22  2  0
 21 23  1  0
 23 24  1  0
 24 25  2  0
 25 26  1  0
 26 27  2  0
 27 28  1  0
 18  3  1  0
 28 24  1  0
 16 11  1  0
  9 29  1  0
 12 30  1  0
 13 31  1  0
 14 32  1  0
 15 33  1  0
 16 34  1  0
 20 35  1  0
 20 36  1  0
 23 37  1  0
 26 38  1  0
 27 39  1  0
M  END
>  <Binding energies>  (1) 
[-7.27]

>  <Ligand effiencies>  (1) 
[-0.25068965517241376]

>  <Interactions>  (1) 
["V-A:LEU:363:CA:3180, V-A:PRO:540:CA:4878, V-A:PRO:540:CB:4880, V-B:HIS:456:CE1:9037, V-B:ARG:545:CZ:9894, V-A:PRO:540:C:4876, V-A:TYR:539:CZ:4872, V-B:ARG:545:CD:9891, V-A:ALA:541:CB:4887, V-A:ALA:541:CA:4885, V-B:ARG:545:CG:9890, V-A:TYR:539:CE2:4871, H-B:GLY:454:N:9017, V-A:PRO:540:N:4879, V-A:LEU:363:CD1:3184, V-B:ASP:366:CB:8179, H-B:ASP:366:OD1:8181, V-B:ASP:366:CG:8180, V-B:LEU:475:CG:9224, V-B:LEU:475:CD2:9226, V-A:TYR:539:CD2:4869, H-B:ARG:545:NH1:9895, H-A:TYR:539:OH:4873, V-A:TYR:539:C:4862, V-B:TRP:381:CH2:8339, V-B:TRP:381:CZ2:8337, V-B:LEU:475:CD1:9225, V-B:PRO:482:CG:9294, V-B:PRO:482:CB:9293, V-B:TRP:381:CZ3:8338"]

$$$$
3ak_Grossjean_2025
     RDKit          3D

 57 58  0  0  0  0  0  0  0  0999 V2000
  124.3770  128.5250   74.5110 C   0  0  0  0  0  0  0  0  0  0  0  0
  125.7550  128.8640   74.4970 O   0  0  0  0  0  0  0  0  0  0  0  0
  126.1520  129.6670   75.5990 C   0  0  0  0  0  0  0  0  0  0  0  0
  127.6010  130.1220   75.3900 C   0  0  0  0  0  0  0  0  0  0  0  0
  128.2360  129.2380   74.4720 O   0  0  0  0  0  0  0  0  0  0  0  0
  128.5700  129.8030   73.2070 C   0  0  0  0  0  0  0  0  0  0  0  0
  130.0790  129.7830   72.8980 C   0  0  0  0  0  0  0  0  0  0  0  0
  130.4430  128.4910   72.4320 O   0  0  0  0  0  0  0  0  0  0  0  0
  130.3170  127.4680   73.4110 C   0  0  0  0  0  0  0  0  0  0  0  0
  129.7500  126.1880   72.7710 C   0  0  0  0  0  0  0  0  0  0  0  0
  129.3310  126.3650   71.3790 N   0  0  0  0  0  0  0  0  0  0  0  0
  128.2400  127.0350   70.9610 C   0  0  0  0  0  0  0  0  0  0  0  0
  127.4670  127.6000   71.7360 O   0  0  0  0  0  0  0  0  0  0  0  0
  127.9420  127.0980   69.4540 C   0  0  0  0  0  0  0  0  0  0  0  0
  129.0460  126.1290   68.3610 S   0  0  0  0  0  0  0  0  0  0  0  0
  128.8750  126.7370   66.6900 C   0  0  0  0  0  0  0  0  0  0  0  0
  127.7450  127.4420   66.4350 N   0  0  0  0  0  0  0  0  0  0  0  0
  127.5210  127.9390   65.1920 C   0  0  0  0  0  0  0  0  0  0  0  0
  126.2480  128.7070   64.9990 C   0  0  0  0  0  0  0  0  0  0  0  0
  125.8830  129.1850   63.7310 C   0  0  0  0  0  0  0  0  0  0  0  0
  124.6990  129.8950   63.5460 C   0  0  0  0  0  0  0  0  0  0  0  0
  123.8610  130.1350   64.6300 C   0  0  0  0  0  0  0  0  0  0  0  0
  124.1970  129.6690   65.8960 C   0  0  0  0  0  0  0  0  0  0  0  0
  125.3810  128.9590   66.0780 C   0  0  0  0  0  0  0  0  0  0  0  0
  128.4530  127.7490   64.1650 C   0  0  0  0  0  0  0  0  0  0  0  0
  129.6310  127.0260   64.4020 C   0  0  0  0  0  0  0  0  0  0  0  0
  130.6320  126.8360   63.2460 C   0  0  0  0  0  0  0  0  0  0  0  0
  130.5020  125.6150   62.7260 F   0  0  0  0  0  0  0  0  0  0  0  0
  130.4050  127.7390   62.2920 F   0  0  0  0  0  0  0  0  0  0  0  0
  131.9020  126.9740   63.6330 F   0  0  0  0  0  0  0  0  0  0  0  0
  129.8530  126.5010   65.6990 C   0  0  0  0  0  0  0  0  0  0  0  0
  131.0660  125.7360   66.0040 C   0  0  0  0  0  0  0  0  0  0  0  0
  132.0230  125.1310   66.2450 N   0  0  0  0  0  0  0  0  0  0  0  0
  124.0309  128.4399   75.5517 H   0  0  0  0  0  0  0  0  0  0  0  0
  123.8014  129.3083   73.9961 H   0  0  0  0  0  0  0  0  0  0  0  0
  124.2306  127.5640   73.9961 H   0  0  0  0  0  0  0  0  0  0  0  0
  125.4958  130.5470   75.6692 H   0  0  0  0  0  0  0  0  0  0  0  0
  126.0763  129.0845   76.5291 H   0  0  0  0  0  0  0  0  0  0  0  0
  127.6118  131.1446   74.9849 H   0  0  0  0  0  0  0  0  0  0  0  0
  128.1371  130.1088   76.3504 H   0  0  0  0  0  0  0  0  0  0  0  0
  128.0477  129.2339   72.4238 H   0  0  0  0  0  0  0  0  0  0  0  0
  128.2620  130.8586   73.2354 H   0  0  0  0  0  0  0  0  0  0  0  0
  130.3061  130.5308   72.1239 H   0  0  0  0  0  0  0  0  0  0  0  0
  130.6463  130.0205   73.8100 H   0  0  0  0  0  0  0  0  0  0  0  0
  131.3064  127.2521   73.8406 H   0  0  0  0  0  0  0  0  0  0  0  0
  129.6314  127.8089   74.2008 H   0  0  0  0  0  0  0  0  0  0  0  0
  130.5262  125.4093   72.8043 H   0  0  0  0  0  0  0  0  0  0  0  0
  128.8538  125.9099   73.3449 H   0  0  0  0  0  0  0  0  0  0  0  0
  129.9270  125.9450   70.6800 H   0  0  0  0  0  0  0  0  0  0  0  0
  126.9158  126.7328   69.3008 H   0  0  0  0  0  0  0  0  0  0  0  0
  128.1006  128.1488   69.1698 H   0  0  0  0  0  0  0  0  0  0  0  0
  126.5417  128.9962   62.8705 H   0  0  0  0  0  0  0  0  0  0  0  0
  124.4276  130.2646   62.5461 H   0  0  0  0  0  0  0  0  0  0  0  0
  122.9266  130.6970   64.4846 H   0  0  0  0  0  0  0  0  0  0  0  0
  123.5306  129.8603   66.7500 H   0  0  0  0  0  0  0  0  0  0  0  0
  125.6424  128.5896   67.0806 H   0  0  0  0  0  0  0  0  0  0  0  0
  128.2603  128.1690   63.1668 H   0  0  0  0  0  0  0  0  0  0  0  0
  1  2  1  0
  2  3  1  0
  3  4  1  0
  4  5  1  0
  5  6  1  0
  6  7  1  0
  7  8  1  0
  8  9  1  0
  9 10  1  0
 10 11  1  0
 11 12  1  0
 12 13  2  0
 12 14  1  0
 14 15  1  0
 15 16  1  0
 16 17  2  0
 17 18  1  0
 18 19  1  0
 19 20  2  0
 20 21  1  0
 21 22  2  0
 22 23  1  0
 23 24  2  0
 18 25  2  0
 25 26  1  0
 26 27  1  0
 27 28  1  0
 27 29  1  0
 27 30  1  0
 26 31  2  0
 31 32  1  0
 32 33  3  0
 31 16  1  0
 24 19  1  0
  1 34  1  0
  1 35  1  0
  1 36  1  0
  3 37  1  0
  3 38  1  0
  4 39  1  0
  4 40  1  0
  6 41  1  0
  6 42  1  0
  7 43  1  0
  7 44  1  0
  9 45  1  0
  9 46  1  0
 10 47  1  0
 10 48  1  0
 11 49  1  0
 14 50  1  0
 14 51  1  0
 20 52  1  0
 21 53  1  0
 22 54  1  0
 23 55  1  0
 24 56  1  0
 25 57  1  0
M  END
>  <Binding energies>  (1) 
[-6.07]

>  <Ligand effiencies>  (1) 
[-0.17852941176470588]

>  <Interactions>  (1) 
["H-A:TYR:484:OH:4343, V-A:ARG:545:CZ:4921, V-A:GLU:543:CD:4903, V-B:GLU:543:CG:9875, V-A:HIS:456:CE1:4064, V-B:HIS:456:CE1:9037, V-B:GLU:543:CD:9876, V-B:GLU:543:CB:9874, V-B:ARG:545:CZ:9894, V-B:ARG:545:CD:9891, V-B:ARG:545:CG:9890, V-B:GLU:543:C:9870, H-B:GLU:543:O:9871, H-A:HIS:456:ND1:4062, H-B:LYS:547:NZ:9919, V-B:HIS:456:CD2:9035, H-A:LYS:547:NZ:4946, H-A:HIS:456:NE2:4065, V-B:LYS:547:CE:9918, V-B:HIS:456:CB:9032, V-A:LYS:547:CE:4945, V-B:LYS:547:CD:9917, V-B:HIS:456:C:9028, V-B:LYS:547:CG:9916, V-B:HIS:456:CA:9030"]

$$$$
3bc_Grossjean_2025
     RDKit          3D

 47 49  0  0  0  0  0  0  0  0999 V2000
  136.2800  123.2440   75.9490 C   0  0  0  0  0  0  0  0  0  0  0  0
  135.0580  123.7930   76.4280 O   0  0  0  0  0  0  0  0  0  0  0  0
  134.3820  124.7130   75.6490 C   0  0  0  0  0  0  0  0  0  0  0  0
  133.0080  124.5150   75.5060 C   0  0  0  0  0  0  0  0  0  0  0  0
  132.2420  125.3880   74.7390 C   0  0  0  0  0  0  0  0  0  0  0  0
  132.8440  126.4720   74.0960 C   0  0  0  0  0  0  0  0  0  0  0  0
  131.9870  127.3070   73.3540 N   0  0  0  0  0  0  0  0  0  0  0  0
  130.6620  127.1830   73.1280 C   0  0  0  0  0  0  0  0  0  0  0  0
  129.9510  126.2890   73.5930 O   0  0  0  0  0  0  0  0  0  0  0  0
  130.0540  128.2880   72.2530 C   0  0  0  0  0  0  0  0  0  0  0  0
  128.6970  127.7520   71.1570 S   0  0  0  0  0  0  0  0  0  0  0  0
  129.2470  126.3050   70.2790 C   0  0  0  0  0  0  0  0  0  0  0  0
  129.5290  125.2520   71.0860 N   0  0  0  0  0  0  0  0  0  0  0  0
  129.9570  124.0810   70.5450 C   0  0  0  0  0  0  0  0  0  0  0  0
  130.2670  122.9730   71.5070 C   0  0  0  0  0  0  0  0  0  0  0  0
  129.3220  121.9720   71.7770 C   0  0  0  0  0  0  0  0  0  0  0  0
  129.6030  120.9400   72.6680 C   0  0  0  0  0  0  0  0  0  0  0  0
  130.8380  120.8970   73.3050 C   0  0  0  0  0  0  0  0  0  0  0  0
  131.7930  121.8780   73.0580 C   0  0  0  0  0  0  0  0  0  0  0  0
  131.5060  122.9090   72.1670 C   0  0  0  0  0  0  0  0  0  0  0  0
  130.1140  123.9430   69.1630 C   0  0  0  0  0  0  0  0  0  0  0  0
  129.8050  125.0130   68.3150 C   0  0  0  0  0  0  0  0  0  0  0  0
  129.9750  124.8110   66.8090 C   0  0  0  0  0  0  0  0  0  0  0  0
  129.3490  126.2270   68.8720 C   0  0  0  0  0  0  0  0  0  0  0  0
  128.9740  127.3430   68.0010 C   0  0  0  0  0  0  0  0  0  0  0  0
  128.6780  128.2230   67.3110 N   0  0  0  0  0  0  0  0  0  0  0  0
  134.2220  126.6860   74.2450 C   0  0  0  0  0  0  0  0  0  0  0  0
  134.9850  125.8090   75.0130 C   0  0  0  0  0  0  0  0  0  0  0  0
  136.9134  122.9594   76.8021 H   0  0  0  0  0  0  0  0  0  0  0  0
  136.0676  122.3548   75.3373 H   0  0  0  0  0  0  0  0  0  0  0  0
  136.8038  123.9933   75.3373 H   0  0  0  0  0  0  0  0  0  0  0  0
  132.5258  123.6610   76.0041 H   0  0  0  0  0  0  0  0  0  0  0  0
  131.1590  125.2237   74.6389 H   0  0  0  0  0  0  0  0  0  0  0  0
  132.4270  128.1420   72.9950 H   0  0  0  0  0  0  0  0  0  0  0  0
  129.6647  129.0731   72.9179 H   0  0  0  0  0  0  0  0  0  0  0  0
  130.8623  128.6335   71.5918 H   0  0  0  0  0  0  0  0  0  0  0  0
  128.3430  122.0031   71.2765 H   0  0  0  0  0  0  0  0  0  0  0  0
  128.8513  120.1620   72.8672 H   0  0  0  0  0  0  0  0  0  0  0  0
  131.0615  120.0819   74.0090 H   0  0  0  0  0  0  0  0  0  0  0  0
  132.7692  121.8395   73.5636 H   0  0  0  0  0  0  0  0  0  0  0  0
  132.2613  123.6858   71.9768 H   0  0  0  0  0  0  0  0  0  0  0  0
  130.4799  122.9948   68.7423 H   0  0  0  0  0  0  0  0  0  0  0  0
  130.6735  123.9810   66.6269 H   0  0  0  0  0  0  0  0  0  0  0  0
  128.9997  124.5750   66.3583 H   0  0  0  0  0  0  0  0  0  0  0  0
  130.3741  125.7317   66.3583 H   0  0  0  0  0  0  0  0  0  0  0  0
  134.7007  127.5468   73.7552 H   0  0  0  0  0  0  0  0  0  0  0  0
  136.0667  125.9767   75.1215 H   0  0  0  0  0  0  0  0  0  0  0  0
  1  2  1  0
  2  3  1  0
  3  4  2  0
  4  5  1  0
  5  6  2  0
  6  7  1  0
  7  8  1  0
  8  9  2  0
  8 10  1  0
 10 11  1  0
 11 12  1  0
 12 13  2  0
 13 14  1  0
 14 15  1  0
 15 16  2  0
 16 17  1  0
 17 18  2  0
 18 19  1  0
 19 20  2  0
 14 21  2  0
 21 22  1  0
 22 23  1  0
 22 24  2  0
 24 25  1  0
 25 26  3  0
  6 27  1  0
 27 28  2  0
 28  3  1  0
 24 12  1  0
 20 15  1  0
  1 29  1  0
  1 30  1  0
  1 31  1  0
  4 32  1  0
  5 33  1  0
  7 34  1  0
 10 35  1  0
 10 36  1  0
 16 37  1  0
 17 38  1  0
 18 39  1  0
 19 40  1  0
 20 41  1  0
 21 42  1  0
 23 43  1  0
 23 44  1  0
 23 45  1  0
 27 46  1  0
 28 47  1  0
M  END
>  <Binding energies>  (1) 
[-7.73]

>  <Ligand effiencies>  (1) 
[-0.26655172413793105]

>  <Interactions>  (1) 
["V-B:GLU:543:CG:9875, V-A:HIS:456:CE1:4064, V-B:GLU:543:CB:9874, V-A:TYR:484:CE1:4340, V-A:TYR:484:CZ:4342, V-A:HIS:456:CD2:4063, V-B:GLU:543:C:9870, V-B:GLU:543:CA:9872, H-A:HIS:456:ND1:4062, H-B:LYS:547:NZ:9919, V-A:TYR:484:CD1:4338, V-A:HIS:456:CG:4061, V-A:TYR:484:CB:4336, V-A:TYR:484:CG:4337, V-A:LYS:547:CE:4945, V-A:ASP:473:CG:4235, V-A:ASP:473:CB:4234, V-A:HIS:456:CB:4060, H-A:GLY:544:O:4908, V-A:LYS:547:CG:4943, V-A:ARG:545:C:4912, V-A:LYS:547:CD:4944, V-A:VAL:458:CG2:4082, V-A:HIS:456:C:4056, V-A:VAL:457:C:4068, V-A:VAL:457:CA:4070, V-A:LYS:471:C:4208, V-A:LYS:471:CB:4212, V-A:LYS:471:CG:4213, V-A:LEU:472:CA:4223"]

$$$$
3bd_Grossjean_2025
     RDKit          3D

 43 45  0  0  0  0  0  0  0  0999 V2000
  123.3640  129.6500   65.7010 C   0  0  0  0  0  0  0  0  0  0  0  0
  124.8450  129.8040   65.3610 C   0  0  0  0  0  0  0  0  0  0  0  0
  125.7710  129.0380   66.0770 C   0  0  0  0  0  0  0  0  0  0  0  0
  127.1380  129.1530   65.7980 C   0  0  0  0  0  0  0  0  0  0  0  0
  128.1830  128.3590   66.5240 C   0  0  0  0  0  0  0  0  0  0  0  0
  128.4350  127.0210   66.1800 C   0  0  0  0  0  0  0  0  0  0  0  0
  129.4020  126.2770   66.8510 C   0  0  0  0  0  0  0  0  0  0  0  0
  130.1330  126.8640   67.8790 C   0  0  0  0  0  0  0  0  0  0  0  0
  129.9010  128.1860   68.2410 C   0  0  0  0  0  0  0  0  0  0  0  0
  128.9330  128.9260   67.5680 C   0  0  0  0  0  0  0  0  0  0  0  0
  127.5810  129.9930   64.8260 N   0  0  0  0  0  0  0  0  0  0  0  0
  126.6970  130.7450   64.1220 C   0  0  0  0  0  0  0  0  0  0  0  0
  127.4060  131.8160   62.8830 S   0  0  0  0  0  0  0  0  0  0  0  0
  129.2070  131.8490   63.1310 C   0  0  0  0  0  0  0  0  0  0  0  0
  129.9640  132.0220   61.8130 C   0  0  0  0  0  0  0  0  0  0  0  0
  129.7120  132.9950   61.1020 O   0  0  0  0  0  0  0  0  0  0  0  0
  130.8630  131.0560   61.5230 N   0  0  0  0  0  0  0  0  0  0  0  0
  131.7220  130.9510   60.4130 C   0  0  0  0  0  0  0  0  0  0  0  0
  133.0670  130.7040   60.6980 C   0  0  0  0  0  0  0  0  0  0  0  0
  133.9930  130.5920   59.6640 C   0  0  0  0  0  0  0  0  0  0  0  0
  133.5760  130.7370   58.3440 C   0  0  0  0  0  0  0  0  0  0  0  0
  132.2400  130.9980   58.0480 C   0  0  0  0  0  0  0  0  0  0  0  0
  131.3110  131.1080   59.0790 C   0  0  0  0  0  0  0  0  0  0  0  0
  125.3060  130.6840   64.3580 C   0  0  0  0  0  0  0  0  0  0  0  0
  124.3610  131.5000   63.5900 C   0  0  0  0  0  0  0  0  0  0  0  0
  123.6140  132.1420   62.9830 N   0  0  0  0  0  0  0  0  0  0  0  0
  123.2381  129.6369   66.7937 H   0  0  0  0  0  0  0  0  0  0  0  0
  122.8007  130.4944   65.2771 H   0  0  0  0  0  0  0  0  0  0  0  0
  122.9865  128.7078   65.2771 H   0  0  0  0  0  0  0  0  0  0  0  0
  125.4252  128.3457   66.8588 H   0  0  0  0  0  0  0  0  0  0  0  0
  127.8594  126.5533   65.3676 H   0  0  0  0  0  0  0  0  0  0  0  0
  129.5871  125.2298   66.5696 H   0  0  0  0  0  0  0  0  0  0  0  0
  130.8991  126.2785   68.4085 H   0  0  0  0  0  0  0  0  0  0  0  0
  130.4799  128.6453   69.0558 H   0  0  0  0  0  0  0  0  0  0  0  0
  128.7523  129.9715   67.8582 H   0  0  0  0  0  0  0  0  0  0  0  0
  129.4584  132.6872   63.7976 H   0  0  0  0  0  0  0  0  0  0  0  0
  129.5070  130.8866   63.5713 H   0  0  0  0  0  0  0  0  0  0  0  0
  130.8960  130.2700   62.1550 H   0  0  0  0  0  0  0  0  0  0  0  0
  133.3957  130.5976   61.7423 H   0  0  0  0  0  0  0  0  0  0  0  0
  135.0504  130.3896   59.8896 H   0  0  0  0  0  0  0  0  0  0  0  0
  134.3075  130.6447   57.5277 H   0  0  0  0  0  0  0  0  0  0  0  0
  131.9199  131.1169   57.0023 H   0  0  0  0  0  0  0  0  0  0  0  0
  130.2559  131.3177   58.8492 H   0  0  0  0  0  0  0  0  0  0  0  0
  1  2  1  0
  2  3  2  0
  3  4  1  0
  4  5  1  0
  5  6  2  0
  6  7  1  0
  7  8  2  0
  8  9  1  0
  9 10  2  0
  4 11  2  0
 11 12  1  0
 12 13  1  0
 13 14  1  0
 14 15  1  0
 15 16  2  0
 15 17  1  0
 17 18  1  0
 18 19  2  0
 19 20  1  0
 20 21  2  0
 21 22  1  0
 22 23  2  0
 12 24  2  0
 24 25  1  0
 25 26  3  0
 24  2  1  0
 10  5  1  0
 23 18  1  0
  1 27  1  0
  1 28  1  0
  1 29  1  0
  3 30  1  0
  6 31  1  0
  7 32  1  0
  8 33  1  0
  9 34  1  0
 10 35  1  0
 14 36  1  0
 14 37  1  0
 17 38  1  0
 19 39  1  0
 20 40  1  0
 21 41  1  0
 22 42  1  0
 23 43  1  0
M  END
>  <Binding energies>  (1) 
[-7.85]

>  <Ligand effiencies>  (1) 
[-0.29074074074074074]

>  <Interactions>  (1) 
["V-A:LEU:363:CA:3180, V-A:ASN:362:CB:3171, V-A:ASN:362:C:3167, H-A:GLU:543:OE2:4905, V-A:PRO:540:CA:4878, V-A:ASP:366:CG:3208, V-A:GLU:543:CD:4903, V-A:PRO:540:CB:4880, V-A:GLU:543:CG:4902, V-A:GLU:543:CB:4901, V-B:GLU:543:CG:9875, V-A:HIS:456:CE1:4064, V-B:HIS:456:CE1:9037, V-B:GLU:543:CD:9876, V-B:GLU:543:CB:9874, V-B:ARG:545:CZ:9894, H-B:TYR:484:OH:9315, H-A:ALA:541:N:4886, V-A:TYR:531:CE2:4788, V-B:ARG:545:CD:9891, V-A:ALA:541:CB:4887, V-B:ARG:545:CG:9890, H-B:GLY:454:N:9017, V-A:LEU:363:CD1:3184, V-A:LEU:363:CB:3182, V-B:GLY:453:CA:9011"]

$$$$
3be_Grossjean_2025
     RDKit          3D

 45 47  0  0  0  0  0  0  0  0999 V2000
  122.6700  130.0150   67.1090 C   0  0  0  0  0  0  0  0  0  0  0  0
  123.6560  129.6910   66.0040 C   0  0  0  0  0  0  0  0  0  0  0  0
  124.7990  128.9230   66.2440 C   0  0  0  0  0  0  0  0  0  0  0  0
  125.6640  128.6680   65.1800 C   0  0  0  0  0  0  0  0  0  0  0  0
  125.3690  129.1800   63.9140 C   0  0  0  0  0  0  0  0  0  0  0  0
  124.2050  129.9380   63.7410 C   0  0  0  0  0  0  0  0  0  0  0  0
  123.9700  130.4340   62.4450 N   0  0  0  0  0  0  0  0  0  0  0  0
  123.9680  131.7150   62.0170 C   0  0  0  0  0  0  0  0  0  0  0  0
  124.1770  132.6940   62.7370 O   0  0  0  0  0  0  0  0  0  0  0  0
  123.6800  131.8920   60.5180 C   0  0  0  0  0  0  0  0  0  0  0  0
  125.1150  131.6430   59.4180 S   0  0  0  0  0  0  0  0  0  0  0  0
  126.4760  132.5900   60.0610 C   0  0  0  0  0  0  0  0  0  0  0  0
  127.6820  131.9950   59.8890 N   0  0  0  0  0  0  0  0  0  0  0  0
  128.8110  132.6110   60.3300 C   0  0  0  0  0  0  0  0  0  0  0  0
  130.1030  131.8790   60.1130 C   0  0  0  0  0  0  0  0  0  0  0  0
  130.9860  131.6500   61.1800 C   0  0  0  0  0  0  0  0  0  0  0  0
  132.1860  130.9740   60.9850 C   0  0  0  0  0  0  0  0  0  0  0  0
  132.5230  130.5160   59.7150 C   0  0  0  0  0  0  0  0  0  0  0  0
  131.6670  130.7320   58.6410 C   0  0  0  0  0  0  0  0  0  0  0  0
  130.4670  131.4090   58.8400 C   0  0  0  0  0  0  0  0  0  0  0  0
  128.7470  133.8550   60.9670 C   0  0  0  0  0  0  0  0  0  0  0  0
  127.5140  134.4930   61.1310 C   0  0  0  0  0  0  0  0  0  0  0  0
  127.4950  135.8590   61.8160 C   0  0  0  0  0  0  0  0  0  0  0  0
  126.3420  133.8630   60.6610 C   0  0  0  0  0  0  0  0  0  0  0  0
  125.0470  134.5380   60.7740 C   0  0  0  0  0  0  0  0  0  0  0  0
  124.0250  135.0740   60.8640 N   0  0  0  0  0  0  0  0  0  0  0  0
  123.3570  130.1940   64.7800 N   0  0  0  0  0  0  0  0  0  0  0  0
  123.1497  129.8574   68.0863 H   0  0  0  0  0  0  0  0  0  0  0  0
  122.3528  131.0646   67.0213 H   0  0  0  0  0  0  0  0  0  0  0  0
  121.7921  129.3581   67.0213 H   0  0  0  0  0  0  0  0  0  0  0  0
  125.0114  128.5289   67.2488 H   0  0  0  0  0  0  0  0  0  0  0  0
  126.5724  128.0678   65.3366 H   0  0  0  0  0  0  0  0  0  0  0  0
  126.0421  128.9901   63.0650 H   0  0  0  0  0  0  0  0  0  0  0  0
  123.7490  129.7280   61.7580 H   0  0  0  0  0  0  0  0  0  0  0  0
  122.9025  131.1680   60.2328 H   0  0  0  0  0  0  0  0  0  0  0  0
  123.3726  132.9400   60.3873 H   0  0  0  0  0  0  0  0  0  0  0  0
  130.7249  132.0107   62.1859 H   0  0  0  0  0  0  0  0  0  0  0  0
  132.8664  130.8020   61.8321 H   0  0  0  0  0  0  0  0  0  0  0  0
  133.4713  129.9805   59.5600 H   0  0  0  0  0  0  0  0  0  0  0  0
  131.9368  130.3694   57.6381 H   0  0  0  0  0  0  0  0  0  0  0  0
  129.7932  131.5786   57.9872 H   0  0  0  0  0  0  0  0  0  0  0  0
  129.6665  134.3308   61.3386 H   0  0  0  0  0  0  0  0  0  0  0  0
  127.4969  135.7219   62.9074 H   0  0  0  0  0  0  0  0  0  0  0  0
  128.3853  136.4316   61.5168 H   0  0  0  0  0  0  0  0  0  0  0  0
  126.5892  136.4067   61.5168 H   0  0  0  0  0  0  0  0  0  0  0  0
  1  2  1  0
  2  3  2  0
  3  4  1  0
  4  5  2  0
  5  6  1  0
  6  7  1  0
  7  8  1  0
  8  9  2  0
  8 10  1  0
 10 11  1  0
 11 12  1  0
 12 13  2  0
 13 14  1  0
 14 15  1  0
 15 16  2  0
 16 17  1  0
 17 18  2  0
 18 19  1  0
 19 20  2  0
 14 21  2  0
 21 22  1  0
 22 23  1  0
 22 24  2  0
 24 25  1  0
 25 26  3  0
  6 27  2  0
 27  2  1  0
 24 12  1  0
 20 15  1  0
  1 28  1  0
  1 29  1  0
  1 30  1  0
  3 31  1  0
  4 32  1  0
  5 33  1  0
  7 34  1  0
 10 35  1  0
 10 36  1  0
 16 37  1  0
 17 38  1  0
 18 39  1  0
 19 40  1  0
 20 41  1  0
 21 42  1  0
 23 43  1  0
 23 44  1  0
 23 45  1  0
M  END
>  <Binding energies>  (1) 
[-8.58]

>  <Ligand effiencies>  (1) 
[-0.30642857142857144]

>  <Interactions>  (1) 
["V-A:PRO:540:CA:4878, V-A:PRO:540:CB:4880, V-B:HIS:456:CE1:9037, V-B:ARG:545:CZ:9894, V-A:PRO:540:C:4876, V-A:TYR:539:CZ:4872, V-B:ARG:545:CD:9891, V-A:ALA:541:CB:4887, V-B:ARG:545:CG:9890, V-A:TYR:539:CE2:4871, H-B:GLY:454:N:9017, V-A:PRO:540:N:4879, H-B:ASP:366:OD1:8181, V-B:ILE:369:CD1:8206, V-B:ILE:369:CG2:8204, V-B:ILE:369:CB:8203, V-B:LEU:475:CG:9224, V-B:LEU:475:CD2:9226, V-A:TYR:539:CD2:4869, H-B:ARG:545:NH1:9895, H-A:TYR:539:OH:4873, V-B:GLY:453:CA:9011, V-A:TYR:539:C:4862, V-B:TRP:381:CH2:8339, V-B:GLY:453:C:9009, V-B:LEU:475:CD1:9225, V-B:PRO:482:CB:9293, V-B:ARG:545:CB:9889, V-B:ILE:455:C:9019"]

$$$$
3bf_Grossjean_2025
     RDKit          3D

 42 44  0  0  0  0  0  0  0  0999 V2000
  129.9470  126.2110   64.8710 C   0  0  0  0  0  0  0  0  0  0  0  0
  128.8330  126.8570   65.6910 C   0  0  0  0  0  0  0  0  0  0  0  0
  127.9770  127.7560   65.0480 C   0  0  0  0  0  0  0  0  0  0  0  0
  126.9340  128.3600   65.7590 C   0  0  0  0  0  0  0  0  0  0  0  0
  125.9690  129.3150   65.1220 C   0  0  0  0  0  0  0  0  0  0  0  0
  124.6630  129.4510   65.6190 C   0  0  0  0  0  0  0  0  0  0  0  0
  123.7610  130.3350   65.0330 C   0  0  0  0  0  0  0  0  0  0  0  0
  124.1550  131.0970   63.9380 C   0  0  0  0  0  0  0  0  0  0  0  0
  125.4420  130.9800   63.4260 C   0  0  0  0  0  0  0  0  0  0  0  0
  126.3410  130.0930   64.0140 C   0  0  0  0  0  0  0  0  0  0  0  0
  126.7370  128.0850   67.0760 N   0  0  0  0  0  0  0  0  0  0  0  0
  127.5740  127.2350   67.7200 C   0  0  0  0  0  0  0  0  0  0  0  0
  127.1690  127.0000   69.4370 S   0  0  0  0  0  0  0  0  0  0  0  0
  128.5190  127.7090   70.4390 C   0  0  0  0  0  0  0  0  0  0  0  0
  129.1300  126.7560   71.4780 C   0  0  0  0  0  0  0  0  0  0  0  0
  129.3360  127.1330   72.6330 O   0  0  0  0  0  0  0  0  0  0  0  0
  129.3770  125.5090   71.0210 N   0  0  0  0  0  0  0  0  0  0  0  0
  129.9360  124.4130   71.7040 C   0  0  0  0  0  0  0  0  0  0  0  0
  130.1900  123.2570   70.9580 C   0  0  0  0  0  0  0  0  0  0  0  0
  130.7570  122.1410   71.5750 C   0  0  0  0  0  0  0  0  0  0  0  0
  131.0620  122.2140   72.9350 C   0  0  0  0  0  0  0  0  0  0  0  0
  130.8370  123.3250   73.6810 N   0  0  0  0  0  0  0  0  0  0  0  0
  130.2850  124.4030   73.0660 C   0  0  0  0  0  0  0  0  0  0  0  0
  128.6350  126.5760   67.0600 C   0  0  0  0  0  0  0  0  0  0  0  0
  129.4890  125.5990   67.7420 C   0  0  0  0  0  0  0  0  0  0  0  0
  130.1660  124.8280   68.2790 N   0  0  0  0  0  0  0  0  0  0  0  0
  130.6964  125.7764   65.5489 H   0  0  0  0  0  0  0  0  0  0  0  0
  129.5231  125.4186   64.2367 H   0  0  0  0  0  0  0  0  0  0  0  0
  130.4242  126.9725   64.2367 H   0  0  0  0  0  0  0  0  0  0  0  0
  128.1234  127.9886   63.9829 H   0  0  0  0  0  0  0  0  0  0  0  0
  124.3476  128.8500   66.4846 H   0  0  0  0  0  0  0  0  0  0  0  0
  122.7412  130.4304   65.4342 H   0  0  0  0  0  0  0  0  0  0  0  0
  123.4438  131.7964   63.4744 H   0  0  0  0  0  0  0  0  0  0  0  0
  125.7493  131.5851   62.5603 H   0  0  0  0  0  0  0  0  0  0  0  0
  127.3576  130.0008   63.6041 H   0  0  0  0  0  0  0  0  0  0  0  0
  129.3201  128.0265   69.7553 H   0  0  0  0  0  0  0  0  0  0  0  0
  128.0744  128.5384   71.0085 H   0  0  0  0  0  0  0  0  0  0  0  0
  129.0840  125.3090   70.0760 H   0  0  0  0  0  0  0  0  0  0  0  0
  129.9431  123.2278   69.8865 H   0  0  0  0  0  0  0  0  0  0  0  0
  130.9591  121.2240   71.0021 H   0  0  0  0  0  0  0  0  0  0  0  0
  131.5039  121.3329   73.4233 H   0  0  0  0  0  0  0  0  0  0  0  0
  130.1026  125.3100   73.6610 H   0  0  0  0  0  0  0  0  0  0  0  0
  1  2  1  0
  2  3  2  0
  3  4  1  0
  4  5  1  0
  5  6  2  0
  6  7  1  0
  7  8  2  0
  8  9  1  0
  9 10  2  0
  4 11  2  0
 11 12  1  0
 12 13  1  0
 13 14  1  0
 14 15  1  0
 15 16  2  0
 15 17  1  0
 17 18  1  0
 18 19  2  0
 19 20  1  0
 20 21  2  0
 21 22  1  0
 22 23  2  0
 12 24  2  0
 24 25  1  0
 25 26  3  0
 24  2  1  0
 10  5  1  0
 23 18  1  0
  1 27  1  0
  1 28  1  0
  1 29  1  0
  3 30  1  0
  6 31  1  0
  7 32  1  0
  8 33  1  0
  9 34  1  0
 10 35  1  0
 14 36  1  0
 14 37  1  0
 17 38  1  0
 19 39  1  0
 20 40  1  0
 21 41  1  0
 23 42  1  0
M  END
>  <Binding energies>  (1) 
[-7.02]

>  <Ligand effiencies>  (1) 
[-0.26]

>  <Interactions>  (1) 
["V-B:GLU:543:CG:9875, V-A:HIS:456:CE1:4064, V-B:HIS:456:CE1:9037, V-B:GLU:543:CD:9876, V-B:GLU:543:CB:9874, V-B:ARG:545:CZ:9894, V-B:ARG:545:CD:9891, V-B:ARG:545:CG:9890, V-A:HIS:456:CD2:4063, V-B:GLU:543:C:9870, V-B:GLU:543:CA:9872, H-B:GLU:543:O:9871, H-B:LYS:547:NZ:9919, V-A:TYR:484:CD1:4338, V-A:TYR:484:CD2:4339, V-A:TYR:484:CB:4336, H-A:HIS:456:NE2:4065, V-A:TYR:484:CG:4337, V-B:GLY:453:CA:9011, V-B:GLY:454:CA:9016"]

$$$$
3bg_Grossjean_2025
     RDKit          3D

 46 48  0  0  0  0  0  0  0  0999 V2000
  122.2560  130.7330   62.1180 C   0  0  0  0  0  0  0  0  0  0  0  0
  123.7770  130.8460   62.2000 C   0  0  0  0  0  0  0  0  0  0  0  0
  124.4230  130.2790   63.3030 C   0  0  0  0  0  0  0  0  0  0  0  0
  125.8180  130.3530   63.4140 C   0  0  0  0  0  0  0  0  0  0  0  0
  126.5750  129.7550   64.5680 C   0  0  0  0  0  0  0  0  0  0  0  0
  127.8510  130.2280   64.9190 C   0  0  0  0  0  0  0  0  0  0  0  0
  128.5470  129.6900   65.9980 C   0  0  0  0  0  0  0  0  0  0  0  0
  127.9790  128.6630   66.7430 C   0  0  0  0  0  0  0  0  0  0  0  0
  126.7240  128.1670   66.4110 C   0  0  0  0  0  0  0  0  0  0  0  0
  126.0320  128.7070   65.3310 C   0  0  0  0  0  0  0  0  0  0  0  0
  126.5570  130.9570   62.4450 N   0  0  0  0  0  0  0  0  0  0  0  0
  125.9450  131.5090   61.3660 C   0  0  0  0  0  0  0  0  0  0  0  0
  127.0310  132.2410   60.1510 S   0  0  0  0  0  0  0  0  0  0  0  0
  128.3840  133.0880   61.0320 C   0  0  0  0  0  0  0  0  0  0  0  0
  129.5760  132.1580   61.2770 C   0  0  0  0  0  0  0  0  0  0  0  0
  130.7050  132.6290   61.4080 O   0  0  0  0  0  0  0  0  0  0  0  0
  129.3090  130.8410   61.3120 N   0  0  0  0  0  0  0  0  0  0  0  0
  130.3080  129.7720   61.3500 C   0  0  0  0  0  0  0  0  0  0  0  0
  131.4880  130.0680   60.4330 C   0  0  0  0  0  0  0  0  0  0  0  0
  132.7280  130.4200   60.9770 C   0  0  0  0  0  0  0  0  0  0  0  0
  133.8030  130.6990   60.1400 C   0  0  0  0  0  0  0  0  0  0  0  0
  133.6410  130.6140   58.7580 C   0  0  0  0  0  0  0  0  0  0  0  0
  132.4150  130.2440   58.2080 C   0  0  0  0  0  0  0  0  0  0  0  0
  131.3390  129.9650   59.0470 C   0  0  0  0  0  0  0  0  0  0  0  0
  124.5450  131.4850   61.2040 C   0  0  0  0  0  0  0  0  0  0  0  0
  123.8970  132.0810   60.0320 C   0  0  0  0  0  0  0  0  0  0  0  0
  123.3840  132.5510   59.1080 N   0  0  0  0  0  0  0  0  0  0  0  0
  121.8353  130.7017   63.1339 H   0  0  0  0  0  0  0  0  0  0  0  0
  121.8521  131.6036   61.5805 H   0  0  0  0  0  0  0  0  0  0  0  0
  121.9852  129.8123   61.5805 H   0  0  0  0  0  0  0  0  0  0  0  0
  123.8356  129.7744   64.0843 H   0  0  0  0  0  0  0  0  0  0  0  0
  128.3078  131.0375   64.3308 H   0  0  0  0  0  0  0  0  0  0  0  0
  129.5430  130.0763   66.2601 H   0  0  0  0  0  0  0  0  0  0  0  0
  128.5255  128.2410   67.5993 H   0  0  0  0  0  0  0  0  0  0  0  0
  126.2794  127.3509   66.9994 H   0  0  0  0  0  0  0  0  0  0  0  0
  125.0416  128.3061   65.0697 H   0  0  0  0  0  0  0  0  0  0  0  0
  128.7194  133.9448   60.4292 H   0  0  0  0  0  0  0  0  0  0  0  0
  128.0013  133.4166   62.0095 H   0  0  0  0  0  0  0  0  0  0  0  0
  128.3510  130.5450   61.1900 H   0  0  0  0  0  0  0  0  0  0  0  0
  130.6762  129.6652   62.3810 H   0  0  0  0  0  0  0  0  0  0  0  0
  129.8296  128.8442   61.0031 H   0  0  0  0  0  0  0  0  0  0  0  0
  132.8528  130.4762   62.0685 H   0  0  0  0  0  0  0  0  0  0  0  0
  134.7759  130.9852   60.5661 H   0  0  0  0  0  0  0  0  0  0  0  0
  134.4890  130.8411   58.0952 H   0  0  0  0  0  0  0  0  0  0  0  0
  132.2978  130.1727   57.1166 H   0  0  0  0  0  0  0  0  0  0  0  0
  130.3716  129.6635   58.6189 H   0  0  0  0  0  0  0  0  0  0  0  0
  1  2  1  0
  2  3  2  0
  3  4  1  0
  4  5  1  0
  5  6  2  0
  6  7  1  0
  7  8  2  0
  8  9  1  0
  9 10  2  0
  4 11  2  0
 11 12  1  0
 12 13  1  0
 13 14  1  0
 14 15  1  0
 15 16  2  0
 15 17  1  0
 17 18  1  0
 18 19  1  0
 19 20  2  0
 20 21  1  0
 21 22  2  0
 22 23  1  0
 23 24  2  0
 12 25  2  0
 25 26  1  0
 26 27  3  0
 25  2  1  0
 10  5  1  0
 24 19  1  0
  1 28  1  0
  1 29  1  0
  1 30  1  0
  3 31  1  0
  6 32  1  0
  7 33  1  0
  8 34  1  0
  9 35  1  0
 10 36  1  0
 14 37  1  0
 14 38  1  0
 17 39  1  0
 18 40  1  0
 18 41  1  0
 20 42  1  0
 21 43  1  0
 22 44  1  0
 23 45  1  0
 24 46  1  0
M  END
>  <Binding energies>  (1) 
[-7.18]

>  <Ligand effiencies>  (1) 
[-0.2564285714285714]

>  <Interactions>  (1) 
["V-A:LEU:363:CA:3180, V-A:ASN:362:CB:3171, V-A:ASN:362:C:3167, V-A:PRO:540:CA:4878, V-A:GLU:543:CD:4903, V-A:PRO:540:CB:4880, V-A:GLU:543:CG:4902, V-A:GLU:543:CB:4901, V-B:HIS:456:CE1:9037, V-B:ARG:545:CZ:9894, H-A:ALA:541:N:4886, V-A:TYR:531:CE2:4788, V-A:TYR:531:CZ:4789, V-A:TYR:539:CE2:4871, V-A:LEU:363:CD1:3184, V-A:LEU:363:CB:3182, V-B:ILE:369:CD1:8206, V-B:ILE:369:CG2:8204, V-B:ILE:369:CB:8203, H-A:TYR:539:OH:4873, V-B:GLY:453:CA:9011, V-B:GLY:453:C:9009"]

$$$$
3bk_Grossjean_2025
     RDKit          3D

 57 58  0  0  0  0  0  0  0  0999 V2000
  131.3880  131.7000   61.3730 C   0  0  0  0  0  0  0  0  0  0  0  0
  130.3290  132.3630   62.0490 O   0  0  0  0  0  0  0  0  0  0  0  0
  129.3920  131.4730   62.6410 C   0  0  0  0  0  0  0  0  0  0  0  0
  129.0040  131.9870   64.0340 C   0  0  0  0  0  0  0  0  0  0  0  0
  127.6530  132.4250   64.0150 O   0  0  0  0  0  0  0  0  0  0  0  0
  127.4890  133.7630   63.5630 C   0  0  0  0  0  0  0  0  0  0  0  0
  127.0340  133.7500   62.0980 C   0  0  0  0  0  0  0  0  0  0  0  0
  126.1030  132.6940   61.9020 O   0  0  0  0  0  0  0  0  0  0  0  0
  124.7490  133.1250   61.8470 C   0  0  0  0  0  0  0  0  0  0  0  0
  123.9630  132.4870   63.0020 C   0  0  0  0  0  0  0  0  0  0  0  0
  124.7810  131.5620   63.7880 N   0  0  0  0  0  0  0  0  0  0  0  0
  124.3100  130.5970   64.5960 C   0  0  0  0  0  0  0  0  0  0  0  0
  123.1100  130.3640   64.7560 O   0  0  0  0  0  0  0  0  0  0  0  0
  125.3530  129.7430   65.3200 C   0  0  0  0  0  0  0  0  0  0  0  0
  126.8370  129.4700   64.2990 S   0  0  0  0  0  0  0  0  0  0  0  0
  127.9730  128.4230   65.1940 C   0  0  0  0  0  0  0  0  0  0  0  0
  127.8980  128.4870   66.5470 N   0  0  0  0  0  0  0  0  0  0  0  0
  128.7270  127.7270   67.3110 C   0  0  0  0  0  0  0  0  0  0  0  0
  128.5630  127.8410   68.7960 C   0  0  0  0  0  0  0  0  0  0  0  0
  129.4990  128.5480   69.5690 C   0  0  0  0  0  0  0  0  0  0  0  0
  129.3540  128.6520   70.9510 C   0  0  0  0  0  0  0  0  0  0  0  0
  128.2690  128.0520   71.5790 C   0  0  0  0  0  0  0  0  0  0  0  0
  127.3250  127.3500   70.8360 C   0  0  0  0  0  0  0  0  0  0  0  0
  127.4720  127.2480   69.4550 C   0  0  0  0  0  0  0  0  0  0  0  0
  129.6610  126.8680   66.7190 C   0  0  0  0  0  0  0  0  0  0  0  0
  129.7530  126.7910   65.3250 C   0  0  0  0  0  0  0  0  0  0  0  0
  130.7860  125.8420   64.7210 C   0  0  0  0  0  0  0  0  0  0  0  0
  128.8940  127.5820   64.5330 C   0  0  0  0  0  0  0  0  0  0  0  0
  128.9660  127.5210   63.0700 C   0  0  0  0  0  0  0  0  0  0  0  0
  129.0240  127.4730   61.9150 N   0  0  0  0  0  0  0  0  0  0  0  0
  132.0796  131.2670   62.1107 H   0  0  0  0  0  0  0  0  0  0  0  0
  130.9756  130.8986   60.7424 H   0  0  0  0  0  0  0  0  0  0  0  0
  131.9288  132.4211   60.7424 H   0  0  0  0  0  0  0  0  0  0  0  0
  128.4935  131.4137   62.0092 H   0  0  0  0  0  0  0  0  0  0  0  0
  129.8439  130.4743   62.7326 H   0  0  0  0  0  0  0  0  0  0  0  0
  129.1169  131.1764   64.7690 H   0  0  0  0  0  0  0  0  0  0  0  0
  129.6588  132.8261   64.3119 H   0  0  0  0  0  0  0  0  0  0  0  0
  126.7309  134.2688   64.1789 H   0  0  0  0  0  0  0  0  0  0  0  0
  128.4448  134.3008   63.6477 H   0  0  0  0  0  0  0  0  0  0  0  0
  126.5565  134.7103   61.8535 H   0  0  0  0  0  0  0  0  0  0  0  0
  127.9053  133.5977   61.4441 H   0  0  0  0  0  0  0  0  0  0  0  0
  124.7087  134.2206   61.9368 H   0  0  0  0  0  0  0  0  0  0  0  0
  124.3051  132.8199   60.8879 H   0  0  0  0  0  0  0  0  0  0  0  0
  123.5971  133.2855   63.6642 H   0  0  0  0  0  0  0  0  0  0  0  0
  123.1318  131.9133   62.5662 H   0  0  0  0  0  0  0  0  0  0  0  0
  125.7800  131.6450   63.6690 H   0  0  0  0  0  0  0  0  0  0  0  0
  125.6491  130.2544   66.2478 H   0  0  0  0  0  0  0  0  0  0  0  0
  124.9016  128.7628   65.5334 H   0  0  0  0  0  0  0  0  0  0  0  0
  130.3585  129.0262   69.0764 H   0  0  0  0  0  0  0  0  0  0  0  0
  130.0962  129.2074   71.5432 H   0  0  0  0  0  0  0  0  0  0  0  0
  128.1559  128.1326   72.6702 H   0  0  0  0  0  0  0  0  0  0  0  0
  126.4669  126.8780   71.3369 H   0  0  0  0  0  0  0  0  0  0  0  0
  126.7224  126.6945   68.8704 H   0  0  0  0  0  0  0  0  0  0  0  0
  130.3216  126.2544   67.3492 H   0  0  0  0  0  0  0  0  0  0  0  0
  131.3360  125.3367   65.5285 H   0  0  0  0  0  0  0  0  0  0  0  0
  130.2754  125.0915   64.0997 H   0  0  0  0  0  0  0  0  0  0  0  0
  131.4906  126.4143   64.0997 H   0  0  0  0  0  0  0  0  0  0  0  0
  1  2  1  0
  2  3  1  0
  3  4  1  0
  4  5  1  0
  5  6  1  0
  6  7  1  0
  7  8  1  0
  8  9  1  0
  9 10  1  0
 10 11  1  0
 11 12  1  0
 12 13  2  0
 12 14  1  0
 14 15  1  0
 15 16  1  0
 16 17  2  0
 17 18  1  0
 18 19  1  0
 19 20  2  0
 20 21  1  0
 21 22  2  0
 22 23  1  0
 23 24  2  0
 18 25  2  0
 25 26  1  0
 26 27  1  0
 26 28  2  0
 28 29  1  0
 29 30  3  0
 28 16  1  0
 24 19  1  0
  1 31  1  0
  1 32  1  0
  1 33  1  0
  3 34  1  0
  3 35  1  0
  4 36  1  0
  4 37  1  0
  6 38  1  0
  6 39  1  0
  7 40  1  0
  7 41  1  0
  9 42  1  0
  9 43  1  0
 10 44  1  0
 10 45  1  0
 11 46  1  0
 14 47  1  0
 14 48  1  0
 20 49  1  0
 21 50  1  0
 22 51  1  0
 23 52  1  0
 24 53  1  0
 25 54  1  0
 27 55  1  0
 27 56  1  0
 27 57  1  0
M  END
>  <Binding energies>  (1) 
[-5.62]

>  <Ligand effiencies>  (1) 
[-0.18129032258064517]

>  <Interactions>  (1) 
["V-A:PRO:540:CA:4878, V-A:GLU:543:CD:4903, V-A:PRO:540:CB:4880, V-A:GLU:543:CG:4902, V-A:HIS:456:CE1:4064, V-B:HIS:456:CE1:9037, V-B:GLU:543:CD:9876, H-B:TYR:484:OH:9315, H-A:ALA:541:N:4886, V-A:ALA:541:CB:4887, H-B:GLY:454:N:9017, V-B:GLU:543:C:9870, V-B:HIS:456:CD2:9035, V-B:ILE:369:CD1:8206, V-B:LEU:475:CD2:9226, H-B:ARG:545:NH1:9895, V-B:GLY:454:CA:9016, V-B:GLY:544:C:9880, V-B:LEU:475:CD1:9225"]

$$$$
3ca_Grossjean_2025
     RDKit          3D

 52 54  0  0  0  0  0  0  0  0999 V2000
  128.9780  131.5840   72.6320 C   0  0  0  0  0  0  0  0  0  0  0  0
  130.1140  130.6960   73.1500 C   0  0  0  0  0  0  0  0  0  0  0  0
  129.6500  129.3570   73.2720 O   0  0  0  0  0  0  0  0  0  0  0  0
  128.6250  128.8980   72.5100 C   0  0  0  0  0  0  0  0  0  0  0  0
  127.4480  128.8890   72.8850 O   0  0  0  0  0  0  0  0  0  0  0  0
  129.0630  128.4060   71.1600 C   0  0  0  0  0  0  0  0  0  0  0  0
  130.2340  128.9210   70.5910 C   0  0  0  0  0  0  0  0  0  0  0  0
  130.6660  128.4850   69.3410 C   0  0  0  0  0  0  0  0  0  0  0  0
  129.9330  127.5320   68.6330 C   0  0  0  0  0  0  0  0  0  0  0  0
  130.4590  127.1610   67.3800 N   0  0  0  0  0  0  0  0  0  0  0  0
  130.7130  125.9320   66.8820 C   0  0  0  0  0  0  0  0  0  0  0  0
  130.4980  124.8690   67.4640 O   0  0  0  0  0  0  0  0  0  0  0  0
  131.2960  125.9070   65.4650 C   0  0  0  0  0  0  0  0  0  0  0  0
  130.1360  126.5250   64.2010 S   0  0  0  0  0  0  0  0  0  0  0  0
  130.4300  125.6920   62.6470 C   0  0  0  0  0  0  0  0  0  0  0  0
  130.5750  126.4980   61.5660 N   0  0  0  0  0  0  0  0  0  0  0  0
  130.8200  125.9370   60.3620 C   0  0  0  0  0  0  0  0  0  0  0  0
  130.9870  126.9050   59.2070 C   0  0  0  0  0  0  0  0  0  0  0  0
  130.9160  124.5600   60.1820 C   0  0  0  0  0  0  0  0  0  0  0  0
  130.7530  123.7050   61.2800 C   0  0  0  0  0  0  0  0  0  0  0  0
  130.8500  122.2340   61.0370 C   0  0  0  0  0  0  0  0  0  0  0  0
  129.7330  121.4130   61.2360 C   0  0  0  0  0  0  0  0  0  0  0  0
  129.8170  120.0400   61.0220 C   0  0  0  0  0  0  0  0  0  0  0  0
  131.0240  119.4800   60.6090 C   0  0  0  0  0  0  0  0  0  0  0  0
  132.1460  120.2810   60.4130 C   0  0  0  0  0  0  0  0  0  0  0  0
  132.0580  121.6540   60.6290 C   0  0  0  0  0  0  0  0  0  0  0  0
  130.5120  124.2820   62.5530 C   0  0  0  0  0  0  0  0  0  0  0  0
  130.3830  123.4400   63.7470 C   0  0  0  0  0  0  0  0  0  0  0  0
  130.2820  122.7740   64.6890 N   0  0  0  0  0  0  0  0  0  0  0  0
  128.7630  127.0040   69.1990 C   0  0  0  0  0  0  0  0  0  0  0  0
  128.3340  127.4410   70.4500 C   0  0  0  0  0  0  0  0  0  0  0  0
  128.4299  132.0125   73.4841 H   0  0  0  0  0  0  0  0  0  0  0  0
  129.3974  132.3962   72.0200 H   0  0  0  0  0  0  0  0  0  0  0  0
  128.2911  130.9809   72.0200 H   0  0  0  0  0  0  0  0  0  0  0  0
  130.9568  130.7293   72.4438 H   0  0  0  0  0  0  0  0  0  0  0  0
  130.4456  131.0606   74.1334 H   0  0  0  0  0  0  0  0  0  0  0  0
  130.8181  129.6769   71.1363 H   0  0  0  0  0  0  0  0  0  0  0  0
  131.5910  128.8945   68.9090 H   0  0  0  0  0  0  0  0  0  0  0  0
  130.6210  127.9360   66.7540 H   0  0  0  0  0  0  0  0  0  0  0  0
  132.1993  126.5344   65.4473 H   0  0  0  0  0  0  0  0  0  0  0  0
  131.5175  124.8576   65.2207 H   0  0  0  0  0  0  0  0  0  0  0  0
  131.1617  127.9176   59.5996 H   0  0  0  0  0  0  0  0  0  0  0  0
  131.8453  126.5971   58.5917 H   0  0  0  0  0  0  0  0  0  0  0  0
  130.0752  126.9025   58.5917 H   0  0  0  0  0  0  0  0  0  0  0  0
  131.1187  124.1455   59.1835 H   0  0  0  0  0  0  0  0  0  0  0  0
  128.7814  121.8567   61.5641 H   0  0  0  0  0  0  0  0  0  0  0  0
  128.9354  119.4009   61.1781 H   0  0  0  0  0  0  0  0  0  0  0  0
  131.0912  118.3957   60.4363 H   0  0  0  0  0  0  0  0  0  0  0  0
  133.0965  119.8318   60.0894 H   0  0  0  0  0  0  0  0  0  0  0  0
  132.9441  122.2880   60.4780 H   0  0  0  0  0  0  0  0  0  0  0  0
  128.1837  126.2440   68.6542 H   0  0  0  0  0  0  0  0  0  0  0  0
  127.4137  127.0248   70.8857 H   0  0  0  0  0  0  0  0  0  0  0  0
  1  2  1  0
  2  3  1  0
  3  4  1  0
  4  5  2  0
  4  6  1  0
  6  7  2  0
  7  8  1  0
  8  9  2  0
  9 10  1  0
 10 11  1  0
 11 12  2  0
 11 13  1  0
 13 14  1  0
 14 15  1  0
 15 16  2  0
 16 17  1  0
 17 18  1  0
 17 19  2  0
 19 20  1  0
 20 21  1  0
 21 22  2  0
 22 23  1  0
 23 24  2  0
 24 25  1  0
 25 26  2  0
 20 27  2  0
 27 28  1  0
 28 29  3  0
  9 30  1  0
 30 31  2  0
 31  6  1  0
 27 15  1  0
 26 21  1  0
  1 32  1  0
  1 33  1  0
  1 34  1  0
  2 35  1  0
  2 36  1  0
  7 37  1  0
  8 38  1  0
 10 39  1  0
 13 40  1  0
 13 41  1  0
 18 42  1  0
 18 43  1  0
 18 44  1  0
 19 45  1  0
 22 46  1  0
 23 47  1  0
 24 48  1  0
 25 49  1  0
 26 50  1  0
 30 51  1  0
 31 52  1  0
M  END
>  <Binding energies>  (1) 
[-8.24]

>  <Ligand effiencies>  (1) 
[-0.2575]

>  <Interactions>  (1) 
["H-A:TYR:484:OH:4343, V-A:GLU:543:CD:4903, V-A:GLY:544:C:4907, V-A:GLU:543:CB:4901, V-B:GLU:543:CG:9875, V-A:HIS:456:CE1:4064, V-A:GLY:544:CA:4909, V-B:HIS:456:CE1:9037, H-A:GLU:543:OE1:4904, V-A:GLU:543:C:4897, V-A:LEU:475:CD2:4254, V-B:TYR:539:CD2:9842, V-A:TRP:381:CZ2:3365, V-A:TRP:381:CH2:3367, V-B:TYR:539:CE2:9844, V-B:ALA:541:CB:9860, H-B:LYS:547:NZ:9919, V-B:HIS:456:CD2:9035, H-A:LYS:547:NZ:4946, H-A:HIS:456:NE2:4065, V-A:LYS:547:CE:4945"]

$$$$
3cb_Grossjean_2025
     RDKit          3D

 49 51  0  0  0  0  0  0  0  0999 V2000
  127.0050  130.1160   74.1420 C   0  0  0  0  0  0  0  0  0  0  0  0
  127.3720  128.8820   73.5430 O   0  0  0  0  0  0  0  0  0  0  0  0
  128.6160  128.6970   73.0290 C   0  0  0  0  0  0  0  0  0  0  0  0
  129.6400  128.6800   73.7180 O   0  0  0  0  0  0  0  0  0  0  0  0
  128.6210  128.5160   71.5380 C   0  0  0  0  0  0  0  0  0  0  0  0
  129.4810  129.2460   70.7040 C   0  0  0  0  0  0  0  0  0  0  0  0
  129.4630  129.0520   69.3260 C   0  0  0  0  0  0  0  0  0  0  0  0
  128.5840  128.1330   68.7510 C   0  0  0  0  0  0  0  0  0  0  0  0
  128.6520  128.0150   67.3480 N   0  0  0  0  0  0  0  0  0  0  0  0
  127.7020  127.6510   66.4610 C   0  0  0  0  0  0  0  0  0  0  0  0
  126.5400  127.3610   66.7510 O   0  0  0  0  0  0  0  0  0  0  0  0
  128.1690  127.6370   64.9970 C   0  0  0  0  0  0  0  0  0  0  0  0
  128.9510  129.1830   64.4230 S   0  0  0  0  0  0  0  0  0  0  0  0
  127.6530  130.3180   63.9800 C   0  0  0  0  0  0  0  0  0  0  0  0
  126.4170  129.8900   64.3370 N   0  0  0  0  0  0  0  0  0  0  0  0
  125.3530  130.6720   64.0500 C   0  0  0  0  0  0  0  0  0  0  0  0
  124.0040  130.1370   64.4900 C   0  0  0  0  0  0  0  0  0  0  0  0
  125.4750  131.8960   63.3990 C   0  0  0  0  0  0  0  0  0  0  0  0
  126.7410  132.3510   63.0060 C   0  0  0  0  0  0  0  0  0  0  0  0
  126.8190  133.6690   62.3040 C   0  0  0  0  0  0  0  0  0  0  0  0
  125.8730  134.0030   61.3260 C   0  0  0  0  0  0  0  0  0  0  0  0
  125.9300  135.2320   60.6750 C   0  0  0  0  0  0  0  0  0  0  0  0
  126.9360  136.1370   61.0020 C   0  0  0  0  0  0  0  0  0  0  0  0
  127.8800  135.8250   61.9760 C   0  0  0  0  0  0  0  0  0  0  0  0
  127.8190  134.5960   62.6270 C   0  0  0  0  0  0  0  0  0  0  0  0
  127.8670  131.5350   63.2870 C   0  0  0  0  0  0  0  0  0  0  0  0
  129.2030  131.9170   62.8170 C   0  0  0  0  0  0  0  0  0  0  0  0
  130.2560  132.2180   62.4470 N   0  0  0  0  0  0  0  0  0  0  0  0
  127.7240  127.3960   69.5790 C   0  0  0  0  0  0  0  0  0  0  0  0
  127.7440  127.5900   70.9580 C   0  0  0  0  0  0  0  0  0  0  0  0
  127.0349  130.0153   75.2370 H   0  0  0  0  0  0  0  0  0  0  0  0
  127.7088  130.9004   73.8265 H   0  0  0  0  0  0  0  0  0  0  0  0
  125.9870  130.3883   73.8265 H   0  0  0  0  0  0  0  0  0  0  0  0
  130.1753  129.9777   71.1428 H   0  0  0  0  0  0  0  0  0  0  0  0
  130.1470  129.6275   68.6850 H   0  0  0  0  0  0  0  0  0  0  0  0
  129.5490  128.2700   66.9580 H   0  0  0  0  0  0  0  0  0  0  0  0
  128.8977  126.8215   64.8789 H   0  0  0  0  0  0  0  0  0  0  0  0
  127.2636  127.5049   64.3864 H   0  0  0  0  0  0  0  0  0  0  0  0
  123.9575  130.1186   65.5889 H   0  0  0  0  0  0  0  0  0  0  0  0
  123.2069  130.7871   64.1002 H   0  0  0  0  0  0  0  0  0  0  0  0
  123.8691  129.1173   64.1002 H   0  0  0  0  0  0  0  0  0  0  0  0
  124.5815  132.5038   63.1938 H   0  0  0  0  0  0  0  0  0  0  0  0
  125.0778  133.2873   61.0702 H   0  0  0  0  0  0  0  0  0  0  0  0
  125.1848  135.4865   59.9070 H   0  0  0  0  0  0  0  0  0  0  0  0
  126.9853  137.1072   60.4860 H   0  0  0  0  0  0  0  0  0  0  0  0
  128.6707  136.5462   62.2302 H   0  0  0  0  0  0  0  0  0  0  0  0
  128.5614  134.3507   63.4008 H   0  0  0  0  0  0  0  0  0  0  0  0
  127.0323  126.6632   69.1380 H   0  0  0  0  0  0  0  0  0  0  0  0
  127.0638  127.0098   71.5988 H   0  0  0  0  0  0  0  0  0  0  0  0
  1  2  1  0
  2  3  1  0
  3  4  2  0
  3  5  1  0
  5  6  2  0
  6  7  1  0
  7  8  2  0
  8  9  1  0
  9 10  1  0
 10 11  2  0
 10 12  1  0
 12 13  1  0
 13 14  1  0
 14 15  2  0
 15 16  1  0
 16 17  1  0
 16 18  2  0
 18 19  1  0
 19 20  1  0
 20 21  2  0
 21 22  1  0
 22 23  2  0
 23 24  1  0
 24 25  2  0
 19 26  2  0
 26 27  1  0
 27 28  3  0
  8 29  1  0
 29 30  2  0
 30  5  1  0
 26 14  1  0
 25 20  1  0
  1 31  1  0
  1 32  1  0
  1 33  1  0
  6 34  1  0
  7 35  1  0
  9 36  1  0
 12 37  1  0
 12 38  1  0
 17 39  1  0
 17 40  1  0
 17 41  1  0
 18 42  1  0
 21 43  1  0
 22 44  1  0
 23 45  1  0
 24 46  1  0
 25 47  1  0
 29 48  1  0
 30 49  1  0
M  END
>  <Binding energies>  (1) 
[-8.13]

>  <Ligand effiencies>  (1) 
[-0.26225806451612904]

>  <Interactions>  (1) 
["V-A:GLU:543:CG:4902, V-A:GLU:543:CB:4901, V-B:HIS:456:CE1:9037, H-A:GLU:543:OE1:4904, V-B:GLU:543:CD:9876, V-A:GLU:543:C:4897, V-B:GLU:543:CB:9874, V-B:ARG:545:CZ:9894, H-B:TYR:484:OH:9315, H-A:ALA:541:N:4886, V-A:ALA:541:CB:4887, V-A:ALA:541:CA:4885, V-A:TYR:539:CE2:4871, H-B:LYS:547:NZ:9919, V-B:HIS:456:CD2:9035, H-A:LYS:547:NZ:4946, V-B:HIS:456:CG:9033, V-B:HIS:456:CB:9032, V-B:LEU:475:CD2:9226, V-A:TYR:539:CD2:4869, V-B:TRP:381:CH2:8339, V-B:TRP:381:CZ2:8337, V-B:LEU:475:CD1:9225, V-B:PRO:482:CG:9294, V-B:PRO:482:CB:9293, V-B:TRP:381:CZ3:8338"]

$$$$
3ce_Grossjean_2025
     RDKit          3D

 45 47  0  0  0  0  0  0  0  0999 V2000
  127.2840  136.3670   61.3720 C   0  0  0  0  0  0  0  0  0  0  0  0
  127.3780  134.8600   61.2350 C   0  0  0  0  0  0  0  0  0  0  0  0
  128.6010  134.2210   61.0090 C   0  0  0  0  0  0  0  0  0  0  0  0
  128.6140  132.8310   60.9030 C   0  0  0  0  0  0  0  0  0  0  0  0
  127.4190  132.1180   61.0230 C   0  0  0  0  0  0  0  0  0  0  0  0
  126.2280  132.8200   61.2390 C   0  0  0  0  0  0  0  0  0  0  0  0
  125.0600  132.0510   61.3720 N   0  0  0  0  0  0  0  0  0  0  0  0
  124.0020  131.9860   60.5330 C   0  0  0  0  0  0  0  0  0  0  0  0
  123.8970  132.6130   59.4780 O   0  0  0  0  0  0  0  0  0  0  0  0
  122.8750  131.0450   60.9590 C   0  0  0  0  0  0  0  0  0  0  0  0
  122.8710  130.7590   62.7530 S   0  0  0  0  0  0  0  0  0  0  0  0
  124.3050  129.7620   63.0860 C   0  0  0  0  0  0  0  0  0  0  0  0
  124.8830  129.2400   61.9770 N   0  0  0  0  0  0  0  0  0  0  0  0
  125.9920  128.4790   62.1230 C   0  0  0  0  0  0  0  0  0  0  0  0
  126.5950  127.9380   60.8400 C   0  0  0  0  0  0  0  0  0  0  0  0
  126.5530  128.2020   63.3670 C   0  0  0  0  0  0  0  0  0  0  0  0
  125.9550  128.7110   64.5270 C   0  0  0  0  0  0  0  0  0  0  0  0
  126.5790  128.3650   65.8390 C   0  0  0  0  0  0  0  0  0  0  0  0
  127.7460  129.0160   66.2560 C   0  0  0  0  0  0  0  0  0  0  0  0
  128.3370  128.6940   67.4760 C   0  0  0  0  0  0  0  0  0  0  0  0
  127.7650  127.7140   68.2820 C   0  0  0  0  0  0  0  0  0  0  0  0
  126.6090  127.0500   67.8770 C   0  0  0  0  0  0  0  0  0  0  0  0
  126.0210  127.3740   66.6580 C   0  0  0  0  0  0  0  0  0  0  0  0
  124.7990  129.5200   64.3900 C   0  0  0  0  0  0  0  0  0  0  0  0
  124.1390  130.0930   65.5670 C   0  0  0  0  0  0  0  0  0  0  0  0
  123.6190  130.5440   66.4970 N   0  0  0  0  0  0  0  0  0  0  0  0
  126.2080  134.1810   61.3520 N   0  0  0  0  0  0  0  0  0  0  0  0
  127.2671  136.6379   62.4380 H   0  0  0  0  0  0  0  0  0  0  0  0
  128.1548  136.8341   60.8887 H   0  0  0  0  0  0  0  0  0  0  0  0
  126.3619  136.7223   60.8887 H   0  0  0  0  0  0  0  0  0  0  0  0
  129.5309  134.8014   60.9170 H   0  0  0  0  0  0  0  0  0  0  0  0
  129.5602  132.2987   60.7258 H   0  0  0  0  0  0  0  0  0  0  0  0
  127.4142  131.0205   60.9488 H   0  0  0  0  0  0  0  0  0  0  0  0
  125.0620  131.4050   62.1480 H   0  0  0  0  0  0  0  0  0  0  0  0
  121.9118  131.4894   60.6678 H   0  0  0  0  0  0  0  0  0  0  0  0
  123.0329  130.0773   60.4604 H   0  0  0  0  0  0  0  0  0  0  0  0
  127.3934  127.2217   61.0837 H   0  0  0  0  0  0  0  0  0  0  0  0
  125.8146  127.4315   60.2531 H   0  0  0  0  0  0  0  0  0  0  0  0
  127.0141  128.7686   60.2531 H   0  0  0  0  0  0  0  0  0  0  0  0
  127.4617  127.5862   63.4385 H   0  0  0  0  0  0  0  0  0  0  0  0
  128.1996  129.7872   65.6160 H   0  0  0  0  0  0  0  0  0  0  0  0
  129.2515  129.2120   67.8007 H   0  0  0  0  0  0  0  0  0  0  0  0
  128.2294  127.4616   69.2467 H   0  0  0  0  0  0  0  0  0  0  0  0
  126.1637  126.2741   68.5171 H   0  0  0  0  0  0  0  0  0  0  0  0
  125.1107  126.8479   66.3346 H   0  0  0  0  0  0  0  0  0  0  0  0
  1  2  1  0
  2  3  2  0
  3  4  1  0
  4  5  2  0
  5  6  1  0
  6  7  1  0
  7  8  1  0
  8  9  2  0
  8 10  1  0
 10 11  1  0
 11 12  1  0
 12 13  2  0
 13 14  1  0
 14 15  1  0
 14 16  2  0
 16 17  1  0
 17 18  1  0
 18 19  2  0
 19 20  1  0
 20 21  2  0
 21 22  1  0
 22 23  2  0
 17 24  2  0
 24 25  1  0
 25 26  3  0
  6 27  2  0
 27  2  1  0
 24 12  1  0
 23 18  1  0
  1 28  1  0
  1 29  1  0
  1 30  1  0
  3 31  1  0
  4 32  1  0
  5 33  1  0
  7 34  1  0
 10 35  1  0
 10 36  1  0
 15 37  1  0
 15 38  1  0
 15 39  1  0
 16 40  1  0
 19 41  1  0
 20 42  1  0
 21 43  1  0
 22 44  1  0
 23 45  1  0
M  END
>  <Binding energies>  (1) 
[-7.63]

>  <Ligand effiencies>  (1) 
[-0.2725]

>  <Interactions>  (1) 
["V-A:PRO:540:CA:4878, V-B:GLU:543:CG:9875, V-B:HIS:456:CE1:9037, V-B:GLU:543:CD:9876, V-B:GLU:543:CB:9874, V-B:ARG:545:CZ:9894, H-B:TYR:484:OH:9315, V-A:PRO:540:C:4876, V-B:ARG:545:CD:9891, V-A:ALA:541:CB:4887, V-B:ARG:545:CG:9890, V-A:TYR:539:CE2:4871, H-B:GLY:454:N:9017, V-A:PRO:540:N:4879, V-B:GLU:543:C:9870, H-B:ARG:545:NH2:9896, V-B:ASP:366:CG:8180, V-B:ILE:369:CG1:8205, V-B:ILE:369:CD1:8206, V-B:LEU:475:CD2:9226, V-B:ASP:366:CA:8177, V-A:TYR:539:CD2:4869, H-A:TYR:539:OH:4873, V-A:TYR:539:C:4862, V-B:TRP:381:CH2:8339, V-B:TRP:381:CZ2:8337, H-B:HIS:456:ND1:9034, V-B:LEU:475:CD1:9225, H-B:ILE:455:N:9022, V-B:PRO:482:CG:9294, V-B:PRO:482:CB:9293"]

$$$$
3ch_Grossjean_2025
     RDKit          3D

 55 57  0  0  0  0  0  0  0  0999 V2000
  129.6280  131.2940   72.8620 C   0  0  0  0  0  0  0  0  0  0  0  0
  129.9810  129.9370   73.1080 O   0  0  0  0  0  0  0  0  0  0  0  0
  129.6540  128.9670   72.1770 C   0  0  0  0  0  0  0  0  0  0  0  0
  129.4800  129.2210   70.8070 C   0  0  0  0  0  0  0  0  0  0  0  0
  129.1570  128.1840   69.9190 C   0  0  0  0  0  0  0  0  0  0  0  0
  128.9690  128.3400   68.5320 N   0  0  0  0  0  0  0  0  0  0  0  0
  128.8920  129.4680   67.7930 C   0  0  0  0  0  0  0  0  0  0  0  0
  128.9910  130.6150   68.2290 O   0  0  0  0  0  0  0  0  0  0  0  0
  128.7060  129.2600   66.2910 C   0  0  0  0  0  0  0  0  0  0  0  0
  127.3350  128.1270   65.9180 S   0  0  0  0  0  0  0  0  0  0  0  0
  125.9820  129.1500   65.3800 C   0  0  0  0  0  0  0  0  0  0  0  0
  124.9650  129.2310   66.2730 N   0  0  0  0  0  0  0  0  0  0  0  0
  123.8840  129.9790   65.9560 C   0  0  0  0  0  0  0  0  0  0  0  0
  122.7820  130.0220   66.9960 C   0  0  0  0  0  0  0  0  0  0  0  0
  123.7750  130.6660   64.7490 C   0  0  0  0  0  0  0  0  0  0  0  0
  124.8190  130.6000   63.8160 C   0  0  0  0  0  0  0  0  0  0  0  0
  124.6530  131.3460   62.5300 C   0  0  0  0  0  0  0  0  0  0  0  0
  125.1740  132.6380   62.3940 C   0  0  0  0  0  0  0  0  0  0  0  0
  125.0160  133.3410   61.2030 C   0  0  0  0  0  0  0  0  0  0  0  0
  124.3310  132.7540   60.1420 C   0  0  0  0  0  0  0  0  0  0  0  0
  123.8010  131.4730   60.2630 C   0  0  0  0  0  0  0  0  0  0  0  0
  123.9600  130.7730   61.4570 C   0  0  0  0  0  0  0  0  0  0  0  0
  125.9680  129.8360   64.1430 C   0  0  0  0  0  0  0  0  0  0  0  0
  127.1280  129.8090   63.2470 C   0  0  0  0  0  0  0  0  0  0  0  0
  128.0430  129.7860   62.5390 N   0  0  0  0  0  0  0  0  0  0  0  0
  128.9890  126.8910   70.4170 C   0  0  0  0  0  0  0  0  0  0  0  0
  129.1550  126.6130   71.7820 C   0  0  0  0  0  0  0  0  0  0  0  0
  129.0110  125.3530   72.3380 O   0  0  0  0  0  0  0  0  0  0  0  0
  129.7550  124.2630   71.8040 C   0  0  0  0  0  0  0  0  0  0  0  0
  129.4850  127.6600   72.6520 C   0  0  0  0  0  0  0  0  0  0  0  0
  129.6680  127.3980   73.9890 O   0  0  0  0  0  0  0  0  0  0  0  0
  130.7910  126.5740   74.2700 C   0  0  0  0  0  0  0  0  0  0  0  0
  129.4920  131.8170   73.8201 H   0  0  0  0  0  0  0  0  0  0  0  0
  130.4289  131.7829   72.2879 H   0  0  0  0  0  0  0  0  0  0  0  0
  128.6904  131.3307   72.2879 H   0  0  0  0  0  0  0  0  0  0  0  0
  129.5984  130.2458   70.4253 H   0  0  0  0  0  0  0  0  0  0  0  0
  128.9260  127.4700   68.0210 H   0  0  0  0  0  0  0  0  0  0  0  0
  128.4987  130.2331   65.8218 H   0  0  0  0  0  0  0  0  0  0  0  0
  129.6300  128.8129   65.8956 H   0  0  0  0  0  0  0  0  0  0  0  0
  123.2264  130.0047   68.0021 H   0  0  0  0  0  0  0  0  0  0  0  0
  122.1950  130.9437   66.8703 H   0  0  0  0  0  0  0  0  0  0  0  0
  122.1249  129.1488   66.8703 H   0  0  0  0  0  0  0  0  0  0  0  0
  122.8740  131.2574   64.5292 H   0  0  0  0  0  0  0  0  0  0  0  0
  125.7121  133.1011   63.2342 H   0  0  0  0  0  0  0  0  0  0  0  0
  125.4300  134.3549   61.1004 H   0  0  0  0  0  0  0  0  0  0  0  0
  124.2078  133.3080   59.1997 H   0  0  0  0  0  0  0  0  0  0  0  0
  123.2600  131.0160   59.4213 H   0  0  0  0  0  0  0  0  0  0  0  0
  123.5378  129.7622   61.5574 H   0  0  0  0  0  0  0  0  0  0  0  0
  128.7220  126.0764   69.7277 H   0  0  0  0  0  0  0  0  0  0  0  0
  130.1659  123.6610   72.6278 H   0  0  0  0  0  0  0  0  0  0  0  0
  129.0952  123.6366   71.1858 H   0  0  0  0  0  0  0  0  0  0  0  0
  130.5788  124.6493   71.1858 H   0  0  0  0  0  0  0  0  0  0  0  0
  130.9154  126.4827   75.3591 H   0  0  0  0  0  0  0  0  0  0  0  0
  130.6321  125.5766   73.8342 H   0  0  0  0  0  0  0  0  0  0  0  0
  131.6948  127.0248   73.8342 H   0  0  0  0  0  0  0  0  0  0  0  0
  1  2  1  0
  2  3  1  0
  3  4  2  0
  4  5  1  0
  5  6  1  0
  6  7  1  0
  7  8  2  0
  7  9  1  0
  9 10  1  0
 10 11  1  0
 11 12  2  0
 12 13  1  0
 13 14  1  0
 13 15  2  0
 15 16  1  0
 16 17  1  0
 17 18  2  0
 18 19  1  0
 19 20  2  0
 20 21  1  0
 21 22  2  0
 16 23  2  0
 23 24  1  0
 24 25  3  0
  5 26  2  0
 26 27  1  0
 27 28  1  0
 28 29  1  0
 27 30  2  0
 30 31  1  0
 31 32  1  0
 30  3  1  0
 23 11  1  0
 22 17  1  0
  1 33  1  0
  1 34  1  0
  1 35  1  0
  4 36  1  0
  6 37  1  0
  9 38  1  0
  9 39  1  0
 14 40  1  0
 14 41  1  0
 14 42  1  0
 15 43  1  0
 18 44  1  0
 19 45  1  0
 20 46  1  0
 21 47  1  0
 22 48  1  0
 26 49  1  0
 29 50  1  0
 29 51  1  0
 29 52  1  0
 32 53  1  0
 32 54  1  0
 32 55  1  0
M  END
>  <Binding energies>  (1) 
[-7.84]

>  <Ligand effiencies>  (1) 
[-0.23757575757575758]

>  <Interactions>  (1) 
["V-A:GLU:543:CD:4903, V-A:GLU:543:CG:4902, V-A:GLU:543:CB:4901, V-A:HIS:456:CE1:4064, V-B:HIS:456:CE1:9037, V-A:GLU:543:C:4897, V-B:ARG:545:CZ:9894, H-B:TYR:484:OH:9315, V-A:TYR:539:CZ:4872, V-B:ARG:545:CD:9891, V-B:ARG:545:CG:9890, V-A:TYR:539:CE2:4871, H-B:LYS:547:NZ:9919, V-B:HIS:456:CD2:9035, H-A:LYS:547:NZ:4946, H-B:ARG:545:NE:9892, V-A:LYS:547:CE:4945, V-B:ASP:366:CG:8180, V-B:ILE:369:CD1:8206, V-B:ILE:369:CG2:8204, V-B:LEU:475:CD2:9226, V-B:GLY:453:CA:9011, V-B:GLY:453:C:9009, V-B:GLY:454:CA:9016, V-B:ARG:545:CB:9889, V-B:ILE:455:C:9019"]

$$$$
3ci_Grossjean_2025
     RDKit          3D

 39 41  0  0  0  0  0  0  0  0999 V2000
  128.6060  131.2610   64.6160 C   0  0  0  0  0  0  0  0  0  0  0  0
  128.7850  131.6830   63.1690 C   0  0  0  0  0  0  0  0  0  0  0  0
  129.9350  131.3640   62.4520 C   0  0  0  0  0  0  0  0  0  0  0  0
  130.0480  131.7610   61.1120 C   0  0  0  0  0  0  0  0  0  0  0  0
  131.2920  131.3830   60.3780 C   0  0  0  0  0  0  0  0  0  0  0  0
  131.2320  130.9160   59.0580 C   0  0  0  0  0  0  0  0  0  0  0  0
  132.3940  130.5580   58.3810 C   0  0  0  0  0  0  0  0  0  0  0  0
  133.6240  130.6580   59.0240 C   0  0  0  0  0  0  0  0  0  0  0  0
  133.7010  131.1120   60.3380 C   0  0  0  0  0  0  0  0  0  0  0  0
  132.5370  131.4700   61.0120 C   0  0  0  0  0  0  0  0  0  0  0  0
  128.9790  132.4920   60.5340 C   0  0  0  0  0  0  0  0  0  0  0  0
  129.0580  132.9710   59.1500 C   0  0  0  0  0  0  0  0  0  0  0  0
  129.1230  133.3480   58.0570 N   0  0  0  0  0  0  0  0  0  0  0  0
  127.8430  132.7690   61.3330 C   0  0  0  0  0  0  0  0  0  0  0  0
  126.4300  133.6640   60.7000 S   0  0  0  0  0  0  0  0  0  0  0  0
  125.2260  132.4850   60.0060 C   0  0  0  0  0  0  0  0  0  0  0  0
  124.3620  131.8000   61.0710 C   0  0  0  0  0  0  0  0  0  0  0  0
  123.1970  131.5010   60.8010 O   0  0  0  0  0  0  0  0  0  0  0  0
  124.9600  131.5870   62.2640 N   0  0  0  0  0  0  0  0  0  0  0  0
  124.4150  130.9650   63.3790 C   0  0  0  0  0  0  0  0  0  0  0  0
  125.1910  130.4370   64.4100 C   0  0  0  0  0  0  0  0  0  0  0  0
  124.2860  129.9160   65.3080 C   0  0  0  0  0  0  0  0  0  0  0  0
  123.0320  130.1210   64.8400 O   0  0  0  0  0  0  0  0  0  0  0  0
  123.1260  130.7860   63.6170 N   0  0  0  0  0  0  0  0  0  0  0  0
  127.7580  132.3750   62.6290 N   0  0  0  0  0  0  0  0  0  0  0  0
  128.9488  132.0692   65.2787 H   0  0  0  0  0  0  0  0  0  0  0  0
  127.5429  131.0547   64.8089 H   0  0  0  0  0  0  0  0  0  0  0  0
  129.1966  130.3533   64.8089 H   0  0  0  0  0  0  0  0  0  0  0  0
  130.7500  130.8039   62.9338 H   0  0  0  0  0  0  0  0  0  0  0  0
  130.2585  130.8317   58.5529 H   0  0  0  0  0  0  0  0  0  0  0  0
  132.3404  130.1979   57.3430 H   0  0  0  0  0  0  0  0  0  0  0  0
  134.5432  130.3760   58.4897 H   0  0  0  0  0  0  0  0  0  0  0  0
  134.6765  131.1873   60.8407 H   0  0  0  0  0  0  0  0  0  0  0  0
  132.5959  131.8243   62.0517 H   0  0  0  0  0  0  0  0  0  0  0  0
  124.5636  133.0284   59.3161 H   0  0  0  0  0  0  0  0  0  0  0  0
  125.7997  131.6967   59.4967 H   0  0  0  0  0  0  0  0  0  0  0  0
  125.9190  131.8860   62.3590 H   0  0  0  0  0  0  0  0  0  0  0  0
  126.2882  130.4366   64.4891 H   0  0  0  0  0  0  0  0  0  0  0  0
  124.5408  129.4142   66.2531 H   0  0  0  0  0  0  0  0  0  0  0  0
  1  2  1  0
  2  3  2  0
  3  4  1  0
  4  5  1  0
  5  6  2  0
  6  7  1  0
  7  8  2  0
  8  9  1  0
  9 10  2  0
  4 11  2  0
 11 12  1  0
 12 13  3  0
 11 14  1  0
 14 15  1  0
 15 16  1  0
 16 17  1  0
 17 18  2  0
 17 19  1  0
 19 20  1  0
 20 21  1  0
 21 22  2  0
 22 23  1  0
 23 24  1  0
 14 25  2  0
 25  2  1  0
 10  5  1  0
 24 20  2  0
  1 26  1  0
  1 27  1  0
  1 28  1  0
  3 29  1  0
  6 30  1  0
  7 31  1  0
  8 32  1  0
  9 33  1  0
 10 34  1  0
 16 35  1  0
 16 36  1  0
 19 37  1  0
 21 38  1  0
 22 39  1  0
M  END
>  <Binding energies>  (1) 
[-7.3]

>  <Ligand effiencies>  (1) 
[-0.28076923076923077]

>  <Interactions>  (1) 
["V-A:LEU:363:CA:3180, V-A:ASN:362:CB:3171, V-A:ASN:362:C:3167, V-A:PRO:540:CA:4878, V-A:GLU:543:CD:4903, V-A:PRO:540:CB:4880, V-A:GLU:543:CG:4902, V-B:ARG:545:CZ:9894, V-A:TYR:539:CZ:4872, V-B:ARG:545:CD:9891, V-A:TYR:539:CE2:4871, H-B:GLY:454:N:9017, V-A:PRO:540:N:4879, H-B:ARG:545:NE:9892, V-B:ILE:369:CD1:8206, V-A:TYR:539:CD2:4869, H-B:ARG:545:NH1:9895, V-A:TYR:539:C:4862"]

$$$$
3cj_Grossjean_2025
     RDKit          3D

 39 41  0  0  0  0  0  0  0  0999 V2000
  127.7220  129.5460   64.6130 C   0  0  0  0  0  0  0  0  0  0  0  0
  128.2980  128.3830   65.3980 C   0  0  0  0  0  0  0  0  0  0  0  0
  129.3730  127.6400   64.9150 C   0  0  0  0  0  0  0  0  0  0  0  0
  129.8880  126.5880   65.6850 C   0  0  0  0  0  0  0  0  0  0  0  0
  131.0800  125.8610   65.1590 C   0  0  0  0  0  0  0  0  0  0  0  0
  132.2890  125.8730   65.8650 C   0  0  0  0  0  0  0  0  0  0  0  0
  133.4050  125.2050   65.3660 C   0  0  0  0  0  0  0  0  0  0  0  0
  133.3160  124.5270   64.1540 C   0  0  0  0  0  0  0  0  0  0  0  0
  132.1230  124.5130   63.4360 C   0  0  0  0  0  0  0  0  0  0  0  0
  131.0090  125.1820   63.9370 C   0  0  0  0  0  0  0  0  0  0  0  0
  129.2690  126.2940   66.9250 C   0  0  0  0  0  0  0  0  0  0  0  0
  129.7440  125.1870   67.7620 C   0  0  0  0  0  0  0  0  0  0  0  0
  130.1200  124.3140   68.4230 N   0  0  0  0  0  0  0  0  0  0  0  0
  128.1870  127.1030   67.3380 C   0  0  0  0  0  0  0  0  0  0  0  0
  127.4080  126.9280   68.9290 S   0  0  0  0  0  0  0  0  0  0  0  0
  128.4500  127.8950   70.0680 C   0  0  0  0  0  0  0  0  0  0  0  0
  128.9480  127.0480   71.2430 C   0  0  0  0  0  0  0  0  0  0  0  0
  129.0230  127.5510   72.3660 O   0  0  0  0  0  0  0  0  0  0  0  0
  129.2410  125.7630   70.9480 N   0  0  0  0  0  0  0  0  0  0  0  0
  129.5790  124.7640   71.8460 C   0  0  0  0  0  0  0  0  0  0  0  0
  129.3670  124.7380   73.1440 N   0  0  0  0  0  0  0  0  0  0  0  0
  129.7950  123.6130   73.6810 C   0  0  0  0  0  0  0  0  0  0  0  0
  130.3710  122.6940   72.8090 C   0  0  0  0  0  0  0  0  0  0  0  0
  130.3490  123.3490   71.1990 S   0  0  0  0  0  0  0  0  0  0  0  0
  127.7170  128.1350   66.5930 N   0  0  0  0  0  0  0  0  0  0  0  0
  127.3445  130.3081   65.3106 H   0  0  0  0  0  0  0  0  0  0  0  0
  128.5067  129.9853   63.9795 H   0  0  0  0  0  0  0  0  0  0  0  0
  126.8970  129.1880   63.9795 H   0  0  0  0  0  0  0  0  0  0  0  0
  129.8147  127.8773   63.9359 H   0  0  0  0  0  0  0  0  0  0  0  0
  132.3581  126.4137   66.8204 H   0  0  0  0  0  0  0  0  0  0  0  0
  134.3512  125.2134   65.9269 H   0  0  0  0  0  0  0  0  0  0  0  0
  134.1958  123.9975   63.7597 H   0  0  0  0  0  0  0  0  0  0  0  0
  132.0608  123.9762   62.4779 H   0  0  0  0  0  0  0  0  0  0  0  0
  130.0672  125.1768   63.3687 H   0  0  0  0  0  0  0  0  0  0  0  0
  129.3186  128.2813   69.5145 H   0  0  0  0  0  0  0  0  0  0  0  0
  127.8413  128.7167   70.4733 H   0  0  0  0  0  0  0  0  0  0  0  0
  129.1220  125.4690   69.9890 H   0  0  0  0  0  0  0  0  0  0  0  0
  129.7021  123.4117   74.7584 H   0  0  0  0  0  0  0  0  0  0  0  0
  130.7752  121.7111   73.0929 H   0  0  0  0  0  0  0  0  0  0  0  0
  1  2  1  0
  2  3  2  0
  3  4  1  0
  4  5  1  0
  5  6  2  0
  6  7  1  0
  7  8  2  0
  8  9  1  0
  9 10  2  0
  4 11  2  0
 11 12  1  0
 12 13  3  0
 11 14  1  0
 14 15  1  0
 15 16  1  0
 16 17  1  0
 17 18  2  0
 17 19  1  0
 19 20  1  0
 20 21  2  0
 21 22  1  0
 22 23  2  0
 23 24  1  0
 14 25  2  0
 25  2  1  0
 10  5  1  0
 24 20  1  0
  1 26  1  0
  1 27  1  0
  1 28  1  0
  3 29  1  0
  6 30  1  0
  7 31  1  0
  8 32  1  0
  9 33  1  0
 10 34  1  0
 16 35  1  0
 16 36  1  0
 19 37  1  0
 22 38  1  0
 23 39  1  0
M  END
>  <Binding energies>  (1) 
[-7.05]

>  <Ligand effiencies>  (1) 
[-0.27115384615384613]

>  <Interactions>  (1) 
["V-A:ARG:545:CD:4918, V-A:ARG:545:CZ:4921, V-A:GLU:543:CD:4903, V-B:GLU:543:CG:9875, V-A:HIS:456:CE1:4064, V-B:HIS:456:CE1:9037, V-B:GLU:543:CB:9874, V-A:HIS:456:CD2:4063, V-B:GLU:543:C:9870, V-B:GLU:543:CA:9872, H-B:GLU:543:O:9871, H-B:LYS:547:NZ:9919, V-B:HIS:456:CD2:9035, V-A:HIS:456:CG:4061, H-A:HIS:456:NE2:4065, V-B:LYS:547:CE:9918"]

$$$$
3ck_Grossjean_2025
     RDKit          3D

 57 58  0  0  0  0  0  0  0  0999 V2000
  134.6280  125.0570   66.2480 C   0  0  0  0  0  0  0  0  0  0  0  0
  134.0840  124.7500   64.9740 O   0  0  0  0  0  0  0  0  0  0  0  0
  133.0560  125.6430   64.5680 C   0  0  0  0  0  0  0  0  0  0  0  0
  131.6870  125.0390   64.9060 C   0  0  0  0  0  0  0  0  0  0  0  0
  131.5580  124.9270   66.3180 O   0  0  0  0  0  0  0  0  0  0  0  0
  130.3750  125.5190   66.8380 C   0  0  0  0  0  0  0  0  0  0  0  0
  130.6590  126.9870   67.1810 C   0  0  0  0  0  0  0  0  0  0  0  0
  129.5090  127.5280   67.8160 O   0  0  0  0  0  0  0  0  0  0  0  0
  129.6270  128.8880   68.2030 C   0  0  0  0  0  0  0  0  0  0  0  0
  128.5730  129.7300   67.4590 C   0  0  0  0  0  0  0  0  0  0  0  0
  128.2060  129.1890   66.1470 N   0  0  0  0  0  0  0  0  0  0  0  0
  127.1450  128.4030   65.8920 C   0  0  0  0  0  0  0  0  0  0  0  0
  126.3310  128.0650   66.7540 O   0  0  0  0  0  0  0  0  0  0  0  0
  126.9970  127.9440   64.4320 C   0  0  0  0  0  0  0  0  0  0  0  0
  128.5630  127.6350   63.5460 S   0  0  0  0  0  0  0  0  0  0  0  0
  129.1690  129.1760   62.8730 C   0  0  0  0  0  0  0  0  0  0  0  0
  128.6380  130.3010   63.4160 N   0  0  0  0  0  0  0  0  0  0  0  0
  129.0480  131.5020   62.9520 C   0  0  0  0  0  0  0  0  0  0  0  0
  128.4090  132.7130   63.6040 C   0  0  0  0  0  0  0  0  0  0  0  0
  129.9930  131.6320   61.9370 C   0  0  0  0  0  0  0  0  0  0  0  0
  130.5500  130.4850   61.3580 C   0  0  0  0  0  0  0  0  0  0  0  0
  131.5420  130.6720   60.2580 C   0  0  0  0  0  0  0  0  0  0  0  0
  131.1060  130.9580   58.9580 C   0  0  0  0  0  0  0  0  0  0  0  0
  132.0260  131.1240   57.9250 C   0  0  0  0  0  0  0  0  0  0  0  0
  133.3860  130.9990   58.1870 C   0  0  0  0  0  0  0  0  0  0  0  0
  133.8360  130.7060   59.4730 C   0  0  0  0  0  0  0  0  0  0  0  0
  132.9150  130.5410   60.5030 C   0  0  0  0  0  0  0  0  0  0  0  0
  130.1380  129.2170   61.8440 C   0  0  0  0  0  0  0  0  0  0  0  0
  130.7180  127.9820   61.3040 C   0  0  0  0  0  0  0  0  0  0  0  0
  131.1760  127.0080   60.8780 N   0  0  0  0  0  0  0  0  0  0  0  0
  133.9576  124.6787   67.0338 H   0  0  0  0  0  0  0  0  0  0  0  0
  135.6155  124.5830   66.3489 H   0  0  0  0  0  0  0  0  0  0  0  0
  134.7326  126.1473   66.3489 H   0  0  0  0  0  0  0  0  0  0  0  0
  133.1738  126.6011   65.0955 H   0  0  0  0  0  0  0  0  0  0  0  0
  133.1241  125.8095   63.4828 H   0  0  0  0  0  0  0  0  0  0  0  0
  130.8914  125.6902   64.5149 H   0  0  0  0  0  0  0  0  0  0  0  0
  131.6008  124.0426   64.4480 H   0  0  0  0  0  0  0  0  0  0  0  0
  129.5742  125.4645   66.0858 H   0  0  0  0  0  0  0  0  0  0  0  0
  130.0578  124.9809   67.7434 H   0  0  0  0  0  0  0  0  0  0  0  0
  131.5226  127.0500   67.8594 H   0  0  0  0  0  0  0  0  0  0  0  0
  130.8873  127.5525   66.2655 H   0  0  0  0  0  0  0  0  0  0  0  0
  129.4663  128.9753   69.2877 H   0  0  0  0  0  0  0  0  0  0  0  0
  130.6328  129.2542   67.9493 H   0  0  0  0  0  0  0  0  0  0  0  0
  127.6665  129.7796   68.0802 H   0  0  0  0  0  0  0  0  0  0  0  0
  129.0174  130.7211   67.2853 H   0  0  0  0  0  0  0  0  0  0  0  0
  128.8160  129.4330   65.3800 H   0  0  0  0  0  0  0  0  0  0  0  0
  126.4144  127.0110   64.4269 H   0  0  0  0  0  0  0  0  0  0  0  0
  126.5072  128.7738   63.9015 H   0  0  0  0  0  0  0  0  0  0  0  0
  128.4626  132.6115   64.6980 H   0  0  0  0  0  0  0  0  0  0  0  0
  128.9448  133.6221   63.2935 H   0  0  0  0  0  0  0  0  0  0  0  0
  127.3561  132.7838   63.2935 H   0  0  0  0  0  0  0  0  0  0  0  0
  130.3001  132.6303   61.5921 H   0  0  0  0  0  0  0  0  0  0  0  0
  130.0297  131.0522   58.7512 H   0  0  0  0  0  0  0  0  0  0  0  0
  131.6782  131.3529   56.9068 H   0  0  0  0  0  0  0  0  0  0  0  0
  134.1128  131.1325   57.3722 H   0  0  0  0  0  0  0  0  0  0  0  0
  134.9131  130.6057   59.6727 H   0  0  0  0  0  0  0  0  0  0  0  0
  133.2680  130.3058   61.5179 H   0  0  0  0  0  0  0  0  0  0  0  0
  1  2  1  0
  2  3  1  0
  3  4  1  0
  4  5  1  0
  5  6  1  0
  6  7  1  0
  7  8  1  0
  8  9  1  0
  9 10  1  0
 10 11  1  0
 11 12  1  0
 12 13  2  0
 12 14  1  0
 14 15  1  0
 15 16  1  0
 16 17  2  0
 17 18  1  0
 18 19  1  0
 18 20  2  0
 20 21  1  0
 21 22  1  0
 22 23  2  0
 23 24  1  0
 24 25  2  0
 25 26  1  0
 26 27  2  0
 21 28  2  0
 28 29  1  0
 29 30  3  0
 28 16  1  0
 27 22  1  0
  1 31  1  0
  1 32  1  0
  1 33  1  0
  3 34  1  0
  3 35  1  0
  4 36  1  0
  4 37  1  0
  6 38  1  0
  6 39  1  0
  7 40  1  0
  7 41  1  0
  9 42  1  0
  9 43  1  0
 10 44  1  0
 10 45  1  0
 11 46  1  0
 14 47  1  0
 14 48  1  0
 19 49  1  0
 19 50  1  0
 19 51  1  0
 20 52  1  0
 23 53  1  0
 24 54  1  0
 25 55  1  0
 26 56  1  0
 27 57  1  0
M  END
>  <Binding energies>  (1) 
[-5.46]

>  <Ligand effiencies>  (1) 
[-0.1761290322580645]

>  <Interactions>  (1) 
["V-A:ARG:545:CD:4918, V-A:LEU:363:CA:3180, H-A:TYR:484:OH:4343, V-A:ARG:545:CZ:4921, V-A:ARG:545:CG:4917, V-A:ASN:362:C:3167, H-A:GLY:454:N:4045, V-A:GLU:543:CD:4903, V-A:PRO:540:CB:4880, V-A:GLU:543:CG:4902, V-A:GLU:543:CB:4901, V-A:HIS:456:CE1:4064, V-B:HIS:456:CE1:9037, H-A:GLU:543:OE1:4904, V-B:GLU:543:CD:9876, V-A:TYR:531:CE2:4788, V-A:ALA:541:CB:4887, V-A:LEU:363:CD1:3184, V-A:HIS:456:CD2:4063, V-A:GLY:453:C:4037, V-A:GLY:453:CA:4039, V-A:LEU:363:CB:3182, H-A:HIS:456:NE2:4065"]

$$$$
4aa_Grossjean_2025
     RDKit          3D

 45 47  0  0  0  0  0  0  0  0999 V2000
  124.8100  129.5470   75.3160 C   0  0  0  0  0  0  0  0  0  0  0  0
  126.1660  130.0640   74.8260 C   0  0  0  0  0  0  0  0  0  0  0  0
  126.8560  129.0170   74.1560 O   0  0  0  0  0  0  0  0  0  0  0  0
  128.0780  129.2250   73.6010 C   0  0  0  0  0  0  0  0  0  0  0  0
  128.9500  129.9310   74.1200 O   0  0  0  0  0  0  0  0  0  0  0  0
  128.2650  128.5140   72.2920 C   0  0  0  0  0  0  0  0  0  0  0  0
  129.5600  128.3420   71.7860 C   0  0  0  0  0  0  0  0  0  0  0  0
  129.7650  127.6920   70.5720 C   0  0  0  0  0  0  0  0  0  0  0  0
  128.6840  127.1930   69.8450 C   0  0  0  0  0  0  0  0  0  0  0  0
  129.0040  126.5620   68.6280 N   0  0  0  0  0  0  0  0  0  0  0  0
  129.6540  127.0410   67.5400 C   0  0  0  0  0  0  0  0  0  0  0  0
  130.0540  128.2000   67.4270 O   0  0  0  0  0  0  0  0  0  0  0  0
  129.8420  126.0800   66.4510 C   0  0  0  0  0  0  0  0  0  0  0  0
  130.0890  124.3680   66.8070 S   0  0  0  0  0  0  0  0  0  0  0  0
  130.2570  123.9910   65.1070 C   0  0  0  0  0  0  0  0  0  0  0  0
  130.4800  122.7480   64.6790 N   0  0  0  0  0  0  0  0  0  0  0  0
  130.5950  122.5930   63.3370 C   0  0  0  0  0  0  0  0  0  0  0  0
  130.8530  121.1710   62.8710 C   0  0  0  0  0  0  0  0  0  0  0  0
  130.4890  123.6390   62.4240 C   0  0  0  0  0  0  0  0  0  0  0  0
  130.2540  124.9420   62.8770 C   0  0  0  0  0  0  0  0  0  0  0  0
  130.1470  126.0520   61.8410 C   0  0  0  0  0  0  0  0  0  0  0  0
  130.1320  125.1460   64.2780 C   0  0  0  0  0  0  0  0  0  0  0  0
  129.9000  126.3240   65.0700 C   0  0  0  0  0  0  0  0  0  0  0  0
  129.7490  127.5660   64.5060 N   0  0  0  0  0  0  0  0  0  0  0  0
  127.3830  127.3660   70.3410 C   0  0  0  0  0  0  0  0  0  0  0  0
  127.1790  128.0200   71.5540 C   0  0  0  0  0  0  0  0  0  0  0  0
  124.7954  129.5414   76.4159 H   0  0  0  0  0  0  0  0  0  0  0  0
  124.0104  130.2034   74.9420 H   0  0  0  0  0  0  0  0  0  0  0  0
  124.6504  128.5249   74.9420 H   0  0  0  0  0  0  0  0  0  0  0  0
  126.0100  130.9034   74.1325 H   0  0  0  0  0  0  0  0  0  0  0  0
  126.7615  130.4057   75.6854 H   0  0  0  0  0  0  0  0  0  0  0  0
  130.4221  128.7237   72.3526 H   0  0  0  0  0  0  0  0  0  0  0  0
  130.7869  127.5710   70.1832 H   0  0  0  0  0  0  0  0  0  0  0  0
  128.6830  125.6060   68.5620 H   0  0  0  0  0  0  0  0  0  0  0  0
  130.9721  120.5145   63.7455 H   0  0  0  0  0  0  0  0  0  0  0  0
  130.0032  120.8239   62.2650 H   0  0  0  0  0  0  0  0  0  0  0  0
  131.7706  121.1445   62.2650 H   0  0  0  0  0  0  0  0  0  0  0  0
  130.5900  123.4411   61.3467 H   0  0  0  0  0  0  0  0  0  0  0  0
  130.0535  127.0220   62.3512 H   0  0  0  0  0  0  0  0  0  0  0  0
  131.0491  126.0543   61.2115 H   0  0  0  0  0  0  0  0  0  0  0  0
  129.2611  125.8819   61.2115 H   0  0  0  0  0  0  0  0  0  0  0  0
  129.8550  128.4130   65.0460 H   0  0  0  0  0  0  0  0  0  0  0  0
  129.5220  127.6750   63.5280 H   0  0  0  0  0  0  0  0  0  0  0  0
  126.5228  126.9847   69.7712 H   0  0  0  0  0  0  0  0  0  0  0  0
  126.1561  128.1504   71.9370 H   0  0  0  0  0  0  0  0  0  0  0  0
  1  2  1  0
  2  3  1  0
  3  4  1  0
  4  5  2  0
  4  6  1  0
  6  7  2  0
  7  8  1  0
  8  9  2  0
  9 10  1  0
 10 11  1  0
 11 12  2  0
 11 13  1  0
 13 14  1  0
 14 15  1  0
 15 16  2  0
 16 17  1  0
 17 18  1  0
 17 19  2  0
 19 20  1  0
 20 21  1  0
 20 22  2  0
 22 23  1  0
 23 24  1  0
  9 25  1  0
 25 26  2  0
 26  6  1  0
 23 13  2  0
 22 15  1  0
  1 27  1  0
  1 28  1  0
  1 29  1  0
  2 30  1  0
  2 31  1  0
  7 32  1  0
  8 33  1  0
 10 34  1  0
 18 35  1  0
 18 36  1  0
 18 37  1  0
 19 38  1  0
 21 39  1  0
 21 40  1  0
 21 41  1  0
 24 42  1  0
 24 43  1  0
 25 44  1  0
 26 45  1  0
M  END
>  <Binding energies>  (1) 
[-6.7]

>  <Ligand effiencies>  (1) 
[-0.2310344827586207]

>  <Interactions>  (1) 
["H-A:TYR:484:OH:4343, H-A:GLU:543:OE2:4905, V-A:GLU:543:CD:4903, V-B:GLU:543:CG:9875, V-A:HIS:456:CE1:4064, V-B:HIS:456:CE1:9037, H-A:GLU:543:OE1:4904, V-B:GLU:543:CD:9876, V-B:GLU:543:CB:9874, H-B:GLU:543:OE2:9878, V-A:LEU:475:CD2:4254, V-A:TYR:484:CE1:4340, V-A:TYR:484:CZ:4342, V-A:LEU:475:CD1:4253, V-B:ALA:541:CB:9860, V-B:GLU:543:CA:9872, H-B:GLU:543:O:9871, H-B:LYS:547:NZ:9919, V-B:HIS:456:CD2:9035, H-A:LYS:547:NZ:4946, V-B:HIS:456:CG:9033, V-B:HIS:456:CB:9032, V-B:LYS:547:CD:9917, V-B:GLY:544:C:9880, V-B:VAL:458:CG2:9054, V-B:HIS:456:C:9028"]

$$$$
4ab_Grossjean_2025
     RDKit          3D

 42 44  0  0  0  0  0  0  0  0999 V2000
  129.7560  127.4860   71.8900 C   0  0  0  0  0  0  0  0  0  0  0  0
  128.6250  126.7120   71.5170 O   0  0  0  0  0  0  0  0  0  0  0  0
  127.8430  127.0770   70.4690 C   0  0  0  0  0  0  0  0  0  0  0  0
  126.7790  127.6920   70.5960 O   0  0  0  0  0  0  0  0  0  0  0  0
  128.3960  126.6520   69.1390 C   0  0  0  0  0  0  0  0  0  0  0  0
  129.3810  125.6550   69.0970 C   0  0  0  0  0  0  0  0  0  0  0  0
  129.9150  125.2410   67.8790 C   0  0  0  0  0  0  0  0  0  0  0  0
  129.4710  125.8040   66.6830 C   0  0  0  0  0  0  0  0  0  0  0  0
  130.0840  125.3160   65.5140 N   0  0  0  0  0  0  0  0  0  0  0  0
  131.3800  124.9980   65.2740 C   0  0  0  0  0  0  0  0  0  0  0  0
  132.2900  125.1360   66.0930 O   0  0  0  0  0  0  0  0  0  0  0  0
  131.6580  124.4840   63.9320 C   0  0  0  0  0  0  0  0  0  0  0  0
  133.1140  124.9870   63.0700 S   0  0  0  0  0  0  0  0  0  0  0  0
  132.6750  124.0320   61.6720 C   0  0  0  0  0  0  0  0  0  0  0  0
  133.4370  123.9870   60.5790 N   0  0  0  0  0  0  0  0  0  0  0  0
  132.9810  123.2120   59.5660 C   0  0  0  0  0  0  0  0  0  0  0  0
  133.8610  123.1780   58.3300 C   0  0  0  0  0  0  0  0  0  0  0  0
  131.7940  122.4850   59.6200 C   0  0  0  0  0  0  0  0  0  0  0  0
  130.9950  122.5350   60.7690 C   0  0  0  0  0  0  0  0  0  0  0  0
  129.7070  121.7250   60.7800 C   0  0  0  0  0  0  0  0  0  0  0  0
  131.4390  123.3410   61.8520 C   0  0  0  0  0  0  0  0  0  0  0  0
  130.8780  123.6210   63.1460 C   0  0  0  0  0  0  0  0  0  0  0  0
  129.6870  123.0800   63.5600 N   0  0  0  0  0  0  0  0  0  0  0  0
  128.4890  126.8060   66.7160 C   0  0  0  0  0  0  0  0  0  0  0  0
  127.9580  127.2220   67.9350 C   0  0  0  0  0  0  0  0  0  0  0  0
  129.8232  127.5320   72.9870 H   0  0  0  0  0  0  0  0  0  0  0  0
  130.6676  127.0215   71.4859 H   0  0  0  0  0  0  0  0  0  0  0  0
  129.6531  128.5039   71.4859 H   0  0  0  0  0  0  0  0  0  0  0  0
  129.7345  125.1966   70.0324 H   0  0  0  0  0  0  0  0  0  0  0  0
  130.6932  124.4637   67.8604 H   0  0  0  0  0  0  0  0  0  0  0  0
  129.4530  125.2010   64.7350 H   0  0  0  0  0  0  0  0  0  0  0  0
  134.9176  123.1372   58.6332 H   0  0  0  0  0  0  0  0  0  0  0  0
  133.6169  122.2886   57.7305 H   0  0  0  0  0  0  0  0  0  0  0  0
  133.6863  124.0836   57.7305 H   0  0  0  0  0  0  0  0  0  0  0  0
  131.4845  121.8720   58.7607 H   0  0  0  0  0  0  0  0  0  0  0  0
  129.4030  121.5338   61.8197 H   0  0  0  0  0  0  0  0  0  0  0  0
  128.9153  122.2881   60.2641 H   0  0  0  0  0  0  0  0  0  0  0  0
  129.8716  120.7675   60.2641 H   0  0  0  0  0  0  0  0  0  0  0  0
  128.8430  123.6300   63.6180 H   0  0  0  0  0  0  0  0  0  0  0  0
  129.6170  122.1070   63.8260 H   0  0  0  0  0  0  0  0  0  0  0  0
  128.1384  127.2632   65.7790 H   0  0  0  0  0  0  0  0  0  0  0  0
  127.1868  128.0061   67.9532 H   0  0  0  0  0  0  0  0  0  0  0  0
  1  2  1  0
  2  3  1  0
  3  4  2  0
  3  5  1  0
  5  6  2  0
  6  7  1  0
  7  8  2  0
  8  9  1  0
  9 10  1  0
 10 11  2  0
 10 12  1  0
 12 13  1  0
 13 14  1  0
 14 15  2  0
 15 16  1  0
 16 17  1  0
 16 18  2  0
 18 19  1  0
 19 20  1  0
 19 21  2  0
 21 22  1  0
 22 23  1  0
  8 24  1  0
 24 25  2  0
 25  5  1  0
 22 12  2  0
 21 14  1  0
  1 26  1  0
  1 27  1  0
  1 28  1  0
  6 29  1  0
  7 30  1  0
  9 31  1  0
 17 32  1  0
 17 33  1  0
 17 34  1  0
 18 35  1  0
 20 36  1  0
 20 37  1  0
 20 38  1  0
 23 39  1  0
 23 40  1  0
 24 41  1  0
 25 42  1  0
M  END
>  <Binding energies>  (1) 
[-6.72]

>  <Ligand effiencies>  (1) 
[-0.24]

>  <Interactions>  (1) 
["H-A:TYR:484:OH:4343, V-A:ARG:545:CZ:4921, V-A:ASP:366:CG:3208, V-B:GLU:543:CG:9875, V-A:HIS:456:CE1:4064, V-B:HIS:456:CE1:9037, V-B:GLU:543:CD:9876, V-B:GLU:543:CB:9874, H-B:GLU:543:OE2:9878, V-B:TYR:539:CE2:9844, V-B:ALA:541:CB:9860, V-A:ASP:366:CB:3207, V-A:ILE:369:CD1:3234, V-B:GLU:543:C:9870, H-B:LYS:547:NZ:9919, H-A:HIS:456:NE2:4065, V-A:ILE:369:CG2:3232, H-B:HIS:456:ND1:9034, V-A:ILE:369:CB:3231, V-A:ASP:366:CA:3205, V-A:ILE:369:CG1:3233"]

$$$$
4ac_Grossjean_2025
     RDKit          3D

 40 42  0  0  0  0  0  0  0  0999 V2000
  122.6490  130.7260   62.4900 C   0  0  0  0  0  0  0  0  0  0  0  0
  123.0040  130.6210   63.8650 O   0  0  0  0  0  0  0  0  0  0  0  0
  124.2000  130.0210   64.2100 C   0  0  0  0  0  0  0  0  0  0  0  0
  124.9610  129.5040   63.1620 C   0  0  0  0  0  0  0  0  0  0  0  0
  126.1810  128.8820   63.4120 C   0  0  0  0  0  0  0  0  0  0  0  0
  126.6610  128.7770   64.7180 C   0  0  0  0  0  0  0  0  0  0  0  0
  127.8960  128.1210   64.8760 N   0  0  0  0  0  0  0  0  0  0  0  0
  128.2530  127.1690   65.7700 C   0  0  0  0  0  0  0  0  0  0  0  0
  127.5070  126.7380   66.6520 O   0  0  0  0  0  0  0  0  0  0  0  0
  129.6220  126.6640   65.6380 C   0  0  0  0  0  0  0  0  0  0  0  0
  130.6630  126.5260   67.0560 S   0  0  0  0  0  0  0  0  0  0  0  0
  131.9820  125.9100   66.0870 C   0  0  0  0  0  0  0  0  0  0  0  0
  133.1580  125.5820   66.6230 N   0  0  0  0  0  0  0  0  0  0  0  0
  134.0960  125.1180   65.7620 C   0  0  0  0  0  0  0  0  0  0  0  0
  135.4270  124.7500   66.3910 C   0  0  0  0  0  0  0  0  0  0  0  0
  133.8870  124.9770   64.3900 C   0  0  0  0  0  0  0  0  0  0  0  0
  132.6510  125.3220   63.8320 C   0  0  0  0  0  0  0  0  0  0  0  0
  132.4720  125.1500   62.3310 C   0  0  0  0  0  0  0  0  0  0  0  0
  131.6430  125.8110   64.7050 C   0  0  0  0  0  0  0  0  0  0  0  0
  130.2910  126.2460   64.4770 C   0  0  0  0  0  0  0  0  0  0  0  0
  129.7230  126.2450   63.2270 N   0  0  0  0  0  0  0  0  0  0  0  0
  125.8960  129.2830   65.7790 C   0  0  0  0  0  0  0  0  0  0  0  0
  124.6760  129.9050   65.5250 C   0  0  0  0  0  0  0  0  0  0  0  0
  121.5973  131.0371   62.4056 H   0  0  0  0  0  0  0  0  0  0  0  0
  123.2925  131.4723   62.0011 H   0  0  0  0  0  0  0  0  0  0  0  0
  122.7830  129.7498   62.0011 H   0  0  0  0  0  0  0  0  0  0  0  0
  124.5939  129.5885   62.1285 H   0  0  0  0  0  0  0  0  0  0  0  0
  126.7685  128.4720   62.5773 H   0  0  0  0  0  0  0  0  0  0  0  0
  128.6220  128.4370   64.2470 H   0  0  0  0  0  0  0  0  0  0  0  0
  135.3343  124.7756   67.4868 H   0  0  0  0  0  0  0  0  0  0  0  0
  135.7164  123.7381   66.0711 H   0  0  0  0  0  0  0  0  0  0  0  0
  136.1951  125.4695   66.0711 H   0  0  0  0  0  0  0  0  0  0  0  0
  134.6935  124.5948   63.7470 H   0  0  0  0  0  0  0  0  0  0  0  0
  131.6911  124.3996   62.1385 H   0  0  0  0  0  0  0  0  0  0  0  0
  132.1755  126.1106   61.8846 H   0  0  0  0  0  0  0  0  0  0  0  0
  133.4200  124.8154   61.8846 H   0  0  0  0  0  0  0  0  0  0  0  0
  128.9630  125.6270   62.9870 H   0  0  0  0  0  0  0  0  0  0  0  0
  130.0490  126.8710   62.5030 H   0  0  0  0  0  0  0  0  0  0  0  0
  126.2599  129.1885   66.8128 H   0  0  0  0  0  0  0  0  0  0  0  0
  124.0826  130.3073   66.3593 H   0  0  0  0  0  0  0  0  0  0  0  0
  1  2  1  0
  2  3  1  0
  3  4  2  0
  4  5  1  0
  5  6  2  0
  6  7  1  0
  7  8  1  0
  8  9  2  0
  8 10  1  0
 10 11  1  0
 11 12  1  0
 12 13  2  0
 13 14  1  0
 14 15  1  0
 14 16  2  0
 16 17  1  0
 17 18  1  0
 17 19  2  0
 19 20  1  0
 20 21  1  0
  6 22  1  0
 22 23  2  0
 23  3  1  0
 20 10  2  0
 19 12  1  0
  1 24  1  0
  1 25  1  0
  1 26  1  0
  4 27  1  0
  5 28  1  0
  7 29  1  0
 15 30  1  0
 15 31  1  0
 15 32  1  0
 16 33  1  0
 18 34  1  0
 18 35  1  0
 18 36  1  0
 21 37  1  0
 21 38  1  0
 22 39  1  0
 23 40  1  0
M  END
>  <Binding energies>  (1) 
[-6.76]

>  <Ligand effiencies>  (1) 
[-0.26]

>  <Interactions>  (1) 
["V-A:ARG:545:CD:4918, H-A:TYR:484:OH:4343, V-A:ARG:545:CZ:4921, V-A:ARG:545:CG:4917, V-A:ASP:366:CG:3208, V-B:GLU:543:CG:9875, V-A:HIS:456:CE1:4064, V-B:HIS:456:CE1:9037, V-A:GLY:454:CA:4044, H-A:GLU:543:OE1:4904, V-B:GLU:543:CD:9876, V-B:GLU:543:CB:9874, H-B:GLU:543:OE2:9878, V-B:ARG:545:CZ:9894, H-B:GLY:454:N:9017, V-A:HIS:456:CD2:4063, V-A:GLY:453:C:4037, V-A:GLY:453:CA:4039, H-A:HIS:456:NE2:4065, H-A:ARG:545:NE:4919, V-B:ILE:369:CD1:8206, H-B:ARG:545:NH1:9895, V-B:GLY:453:CA:9011, V-B:GLY:453:C:9009, V-A:ILE:455:C:4047, V-A:GLY:454:C:4042"]

$$$$
4ad_Grossjean_2025
     RDKit          3D

 36 38  0  0  0  0  0  0  0  0999 V2000
  135.5100  125.1340   66.5490 C   0  0  0  0  0  0  0  0  0  0  0  0
  134.2540  125.1460   65.6970 C   0  0  0  0  0  0  0  0  0  0  0  0
  133.0220  125.5020   66.2410 C   0  0  0  0  0  0  0  0  0  0  0  0
  131.8760  125.5040   65.4370 C   0  0  0  0  0  0  0  0  0  0  0  0
  130.5530  125.8980   66.0760 C   0  0  0  0  0  0  0  0  0  0  0  0
  132.0230  125.1350   64.0720 C   0  0  0  0  0  0  0  0  0  0  0  0
  131.0830  125.0310   62.9890 C   0  0  0  0  0  0  0  0  0  0  0  0
  129.7490  125.3150   63.1480 N   0  0  0  0  0  0  0  0  0  0  0  0
  131.6540  124.6180   61.7750 C   0  0  0  0  0  0  0  0  0  0  0  0
  130.9940  124.3930   60.4870 C   0  0  0  0  0  0  0  0  0  0  0  0
  131.5410  124.7300   59.4350 O   0  0  0  0  0  0  0  0  0  0  0  0
  129.7800  123.7940   60.5530 N   0  0  0  0  0  0  0  0  0  0  0  0
  128.8800  123.4790   59.5170 C   0  0  0  0  0  0  0  0  0  0  0  0
  129.4370  122.8770   58.3840 C   0  0  0  0  0  0  0  0  0  0  0  0
  128.6270  122.5190   57.3100 C   0  0  0  0  0  0  0  0  0  0  0  0
  127.2560  122.7540   57.3710 C   0  0  0  0  0  0  0  0  0  0  0  0
  126.6870  123.3410   58.4990 C   0  0  0  0  0  0  0  0  0  0  0  0
  127.4940  123.7010   59.5740 C   0  0  0  0  0  0  0  0  0  0  0  0
  133.3890  124.3510   61.9470 S   0  0  0  0  0  0  0  0  0  0  0  0
  133.3380  124.7900   63.6380 C   0  0  0  0  0  0  0  0  0  0  0  0
  134.4320  124.7880   64.4030 N   0  0  0  0  0  0  0  0  0  0  0  0
  135.2313  125.1367   67.6131 H   0  0  0  0  0  0  0  0  0  0  0  0
  136.0959  124.2302   66.3257 H   0  0  0  0  0  0  0  0  0  0  0  0
  136.1131  126.0264   66.3257 H   0  0  0  0  0  0  0  0  0  0  0  0
  132.9496  125.7816   67.3024 H   0  0  0  0  0  0  0  0  0  0  0  0
  130.6516  125.8686   67.1712 H   0  0  0  0  0  0  0  0  0  0  0  0
  130.2817  126.9159   65.7595 H   0  0  0  0  0  0  0  0  0  0  0  0
  129.7690  125.1944   65.7595 H   0  0  0  0  0  0  0  0  0  0  0  0
  129.2170  125.7960   62.4380 H   0  0  0  0  0  0  0  0  0  0  0  0
  129.2520  125.0460   63.9860 H   0  0  0  0  0  0  0  0  0  0  0  0
  129.4730  123.5130   61.4720 H   0  0  0  0  0  0  0  0  0  0  0  0
  130.5194  122.6857   58.3415 H   0  0  0  0  0  0  0  0  0  0  0  0
  129.0682  122.0524   56.4169 H   0  0  0  0  0  0  0  0  0  0  0  0
  126.6165  122.4737   56.5210 H   0  0  0  0  0  0  0  0  0  0  0  0
  125.6023  123.5195   58.5398 H   0  0  0  0  0  0  0  0  0  0  0  0
  127.0467  124.1594   60.4683 H   0  0  0  0  0  0  0  0  0  0  0  0
  1  2  1  0
  2  3  2  0
  3  4  1  0
  4  5  1  0
  4  6  2  0
  6  7  1  0
  7  8  1  0
  7  9  2  0
  9 10  1  0
 10 11  2  0
 10 12  1  0
 12 13  1  0
 13 14  2  0
 14 15  1  0
 15 16  2  0
 16 17  1  0
 17 18  2  0
  9 19  1  0
 19 20  1  0
 20 21  2  0
 21  2  1  0
 20  6  1  0
 18 13  1  0
  1 22  1  0
  1 23  1  0
  1 24  1  0
  3 25  1  0
  5 26  1  0
  5 27  1  0
  5 28  1  0
  8 29  1  0
  8 30  1  0
 12 31  1  0
 14 32  1  0
 15 33  1  0
 16 34  1  0
 17 35  1  0
 18 36  1  0
M  END
>  <Binding energies>  (1) 
[-6.48]

>  <Ligand effiencies>  (1) 
[-0.27]

>  <Interactions>  (1) 
["V-A:ARG:545:CD:4918, H-A:TYR:484:OH:4343, V-A:ARG:545:CZ:4921, V-A:ARG:545:CG:4917, H-A:GLY:454:N:4045, V-A:ASP:366:CG:3208, V-A:HIS:456:CE1:4064, V-B:GLU:543:CD:9876, H-B:GLU:543:OE2:9878, V-B:TYR:539:CD2:9842, V-B:TYR:539:CE2:9844, V-A:HIS:456:CD2:4063, V-A:GLY:453:C:4037, V-A:GLY:453:CA:4039, V-B:PRO:540:CB:9853, V-B:PRO:540:CA:9851, V-B:TYR:539:C:9835, H-A:ARG:545:NH1:4922, V-B:PRO:540:N:9852, V-B:TYR:539:CZ:9845, V-B:MET:535:CE:9803, V-A:ILE:455:C:4047, V-A:ARG:545:CB:4916, V-B:TYR:539:CE1:9843, V-B:TYR:539:CG:9840, V-B:TYR:539:CD1:9841"]

$$$$
4ae_Grossjean_2025
     RDKit          3D

 38 40  0  0  0  0  0  0  0  0999 V2000
  123.0420  130.0030   66.9900 C   0  0  0  0  0  0  0  0  0  0  0  0
  123.8280  129.6950   65.7300 C   0  0  0  0  0  0  0  0  0  0  0  0
  123.3230  129.9960   64.4620 C   0  0  0  0  0  0  0  0  0  0  0  0
  124.0990  129.6770   63.3470 C   0  0  0  0  0  0  0  0  0  0  0  0
  125.3450  129.0710   63.5240 C   0  0  0  0  0  0  0  0  0  0  0  0
  125.7940  128.8050   64.8220 C   0  0  0  0  0  0  0  0  0  0  0  0
  127.0460  128.1770   64.9350 N   0  0  0  0  0  0  0  0  0  0  0  0
  127.5140  127.3920   65.9380 C   0  0  0  0  0  0  0  0  0  0  0  0
  126.8680  127.1140   66.9490 O   0  0  0  0  0  0  0  0  0  0  0  0
  128.8730  126.8810   65.7520 C   0  0  0  0  0  0  0  0  0  0  0  0
  129.8470  126.4110   67.1460 S   0  0  0  0  0  0  0  0  0  0  0  0
  131.2030  126.0010   66.1220 C   0  0  0  0  0  0  0  0  0  0  0  0
  132.3530  125.5460   66.6210 N   0  0  0  0  0  0  0  0  0  0  0  0
  133.3260  125.2710   65.7200 C   0  0  0  0  0  0  0  0  0  0  0  0
  134.6280  124.7610   66.3110 C   0  0  0  0  0  0  0  0  0  0  0  0
  133.1780  125.4360   64.3440 C   0  0  0  0  0  0  0  0  0  0  0  0
  131.9690  125.9130   63.8230 C   0  0  0  0  0  0  0  0  0  0  0  0
  131.8570  126.0800   62.3150 C   0  0  0  0  0  0  0  0  0  0  0  0
  130.9250  126.2150   64.7390 C   0  0  0  0  0  0  0  0  0  0  0  0
  129.5890  126.7150   64.5550 C   0  0  0  0  0  0  0  0  0  0  0  0
  129.0770  127.0000   63.3140 N   0  0  0  0  0  0  0  0  0  0  0  0
  125.0370  129.1090   65.9180 N   0  0  0  0  0  0  0  0  0  0  0  0
  123.6542  129.7631   67.8719 H   0  0  0  0  0  0  0  0  0  0  0  0
  122.7786  131.0709   67.0060 H   0  0  0  0  0  0  0  0  0  0  0  0
  122.1232  129.3984   67.0060 H   0  0  0  0  0  0  0  0  0  0  0  0
  122.3384  130.4725   64.3459 H   0  0  0  0  0  0  0  0  0  0  0  0
  123.7317  129.9014   62.3347 H   0  0  0  0  0  0  0  0  0  0  0  0
  125.9648  128.8065   62.6546 H   0  0  0  0  0  0  0  0  0  0  0  0
  127.6920  128.3840   64.1880 H   0  0  0  0  0  0  0  0  0  0  0  0
  134.5665  124.7851   67.4090 H   0  0  0  0  0  0  0  0  0  0  0  0
  134.8029  123.7279   65.9761 H   0  0  0  0  0  0  0  0  0  0  0  0
  135.4580  125.4005   65.9761 H   0  0  0  0  0  0  0  0  0  0  0  0
  134.0104  125.1917   63.6677 H   0  0  0  0  0  0  0  0  0  0  0  0
  131.2574  126.9740   62.0886 H   0  0  0  0  0  0  0  0  0  0  0  0
  132.8622  126.1936   61.8830 H   0  0  0  0  0  0  0  0  0  0  0  0
  131.3704  125.1931   61.8830 H   0  0  0  0  0  0  0  0  0  0  0  0
  128.2970  126.4860   62.9270 H   0  0  0  0  0  0  0  0  0  0  0  0
  129.4650  127.7380   62.7430 H   0  0  0  0  0  0  0  0  0  0  0  0
  1  2  1  0
  2  3  2  0
  3  4  1  0
  4  5  2  0
  5  6  1  0
  6  7  1  0
  7  8  1  0
  8  9  2  0
  8 10  1  0
 10 11  1  0
 11 12  1  0
 12 13  2  0
 13 14  1  0
 14 15  1  0
 14 16  2  0
 16 17  1  0
 17 18  1  0
 17 19  2  0
 19 20  1  0
 20 21  1  0
  6 22  2  0
 22  2  1  0
 20 10  2  0
 19 12  1  0
  1 23  1  0
  1 24  1  0
  1 25  1  0
  3 26  1  0
  4 27  1  0
  5 28  1  0
  7 29  1  0
 15 30  1  0
 15 31  1  0
 15 32  1  0
 16 33  1  0
 18 34  1  0
 18 35  1  0
 18 36  1  0
 21 37  1  0
 21 38  1  0
M  END
>  <Binding energies>  (1) 
[-6.78]

>  <Ligand effiencies>  (1) 
[-0.2712]

>  <Interactions>  (1) 
["V-A:ARG:545:CD:4918, H-A:TYR:484:OH:4343, V-A:ARG:545:CZ:4921, V-A:ARG:545:CG:4917, H-A:GLU:543:OE2:4905, V-A:ASP:366:CG:3208, V-A:GLU:543:CD:4903, V-B:GLU:543:CG:9875, V-A:HIS:456:CE1:4064, V-B:HIS:456:CE1:9037, V-A:GLY:454:CA:4044, V-B:GLU:543:CD:9876, V-B:GLU:543:CB:9874, H-B:GLU:543:OE2:9878, V-B:ARG:545:CZ:9894, V-B:ARG:545:CD:9891, V-B:ARG:545:CG:9890, V-A:HIS:456:CD2:4063, V-A:GLY:453:C:4037, V-A:GLY:453:CA:4039, H-A:HIS:456:NE2:4065, H-B:ARG:545:NE:9892, V-B:GLY:453:CA:9011, V-B:GLY:453:C:9009, V-B:ARG:545:CB:9889, V-B:ILE:455:C:9019"]

$$$$
4af_Grossjean_2025
     RDKit          3D

 35 37  0  0  0  0  0  0  0  0999 V2000
  135.5120  125.1420   66.5180 C   0  0  0  0  0  0  0  0  0  0  0  0
  134.2560  125.1500   65.6650 C   0  0  0  0  0  0  0  0  0  0  0  0
  133.0230  125.5030   66.2080 C   0  0  0  0  0  0  0  0  0  0  0  0
  131.8770  125.5010   65.4030 C   0  0  0  0  0  0  0  0  0  0  0  0
  130.5540  125.8920   66.0410 C   0  0  0  0  0  0  0  0  0  0  0  0
  132.0260  125.1300   64.0390 C   0  0  0  0  0  0  0  0  0  0  0  0
  131.0850  125.0200   62.9560 C   0  0  0  0  0  0  0  0  0  0  0  0
  129.7500  125.2940   63.1160 N   0  0  0  0  0  0  0  0  0  0  0  0
  131.6590  124.6120   61.7420 C   0  0  0  0  0  0  0  0  0  0  0  0
  130.9980  124.3700   60.4580 C   0  0  0  0  0  0  0  0  0  0  0  0
  131.5440  124.6920   59.4020 O   0  0  0  0  0  0  0  0  0  0  0  0
  129.7870  123.7670   60.5340 N   0  0  0  0  0  0  0  0  0  0  0  0
  128.8830  123.4410   59.5050 C   0  0  0  0  0  0  0  0  0  0  0  0
  127.4900  123.6310   59.5530 C   0  0  0  0  0  0  0  0  0  0  0  0
  126.7030  123.2460   58.4660 C   0  0  0  0  0  0  0  0  0  0  0  0
  127.3270  122.6760   57.3560 C   0  0  0  0  0  0  0  0  0  0  0  0
  128.6670  122.4740   57.2880 N   0  0  0  0  0  0  0  0  0  0  0  0
  129.4190  122.8530   58.3530 C   0  0  0  0  0  0  0  0  0  0  0  0
  133.3960  124.3490   61.9150 S   0  0  0  0  0  0  0  0  0  0  0  0
  133.3430  124.7910   63.6060 C   0  0  0  0  0  0  0  0  0  0  0  0
  134.4360  124.7920   64.3700 N   0  0  0  0  0  0  0  0  0  0  0  0
  135.2327  125.1438   67.5819 H   0  0  0  0  0  0  0  0  0  0  0  0
  136.1009  124.2401   66.2950 H   0  0  0  0  0  0  0  0  0  0  0  0
  136.1124  126.0363   66.2950 H   0  0  0  0  0  0  0  0  0  0  0  0
  132.9493  125.7834   67.2691 H   0  0  0  0  0  0  0  0  0  0  0  0
  130.6523  125.8629   67.1362 H   0  0  0  0  0  0  0  0  0  0  0  0
  130.2807  126.9093   65.7243 H   0  0  0  0  0  0  0  0  0  0  0  0
  129.7716  125.1867   65.7243 H   0  0  0  0  0  0  0  0  0  0  0  0
  129.2580  125.0730   63.9690 H   0  0  0  0  0  0  0  0  0  0  0  0
  129.2140  125.7340   62.3800 H   0  0  0  0  0  0  0  0  0  0  0  0
  129.4790  123.5030   61.4580 H   0  0  0  0  0  0  0  0  0  0  0  0
  127.0234  124.0804   60.4420 H   0  0  0  0  0  0  0  0  0  0  0  0
  125.6125  123.3892   58.4844 H   0  0  0  0  0  0  0  0  0  0  0  0
  126.7057  122.3774   56.4988 H   0  0  0  0  0  0  0  0  0  0  0  0
  130.5059  122.6896   58.3084 H   0  0  0  0  0  0  0  0  0  0  0  0
  1  2  1  0
  2  3  2  0
  3  4  1  0
  4  5  1  0
  4  6  2  0
  6  7  1  0
  7  8  1  0
  7  9  2  0
  9 10  1  0
 10 11  2  0
 10 12  1  0
 12 13  1  0
 13 14  2  0
 14 15  1  0
 15 16  2  0
 16 17  1  0
 17 18  2  0
  9 19  1  0
 19 20  1  0
 20 21  2  0
 21  2  1  0
 20  6  1  0
 18 13  1  0
  1 22  1  0
  1 23  1  0
  1 24  1  0
  3 25  1  0
  5 26  1  0
  5 27  1  0
  5 28  1  0
  8 29  1  0
  8 30  1  0
 12 31  1  0
 14 32  1  0
 15 33  1  0
 16 34  1  0
 18 35  1  0
M  END
>  <Binding energies>  (1) 
[-6.2]

>  <Ligand effiencies>  (1) 
[-0.25833333333333336]

>  <Interactions>  (1) 
["V-A:ARG:545:CD:4918, H-A:TYR:484:OH:4343, V-A:ARG:545:CZ:4921, V-A:ARG:545:CG:4917, H-A:GLY:454:N:4045, V-A:ASP:366:CG:3208, V-A:HIS:456:CE1:4064, V-B:GLU:543:CD:9876, H-B:GLU:543:OE2:9878, V-B:TYR:539:CD2:9842, V-B:TYR:539:CE2:9844, V-A:HIS:456:CD2:4063, V-A:GLY:453:C:4037, V-A:GLY:453:CA:4039, V-B:PRO:540:CB:9853, V-B:PRO:540:CA:9851, V-B:TYR:539:C:9835, H-A:ARG:545:NH1:4922, V-B:PRO:540:N:9852, V-B:MET:535:CE:9803, V-A:ILE:455:C:4047, V-A:ARG:545:CB:4916"]

$$$$
4ag_Grossjean_2025
     RDKit          3D

 39 41  0  0  0  0  0  0  0  0999 V2000
  135.0790  125.1290   66.5100 C   0  0  0  0  0  0  0  0  0  0  0  0
  133.9310  125.0220   65.5230 C   0  0  0  0  0  0  0  0  0  0  0  0
  132.6620  125.4980   65.8450 C   0  0  0  0  0  0  0  0  0  0  0  0
  131.6180  125.3900   64.9190 C   0  0  0  0  0  0  0  0  0  0  0  0
  130.2500  125.9240   65.3160 C   0  0  0  0  0  0  0  0  0  0  0  0
  131.9040  124.7870   63.6650 C   0  0  0  0  0  0  0  0  0  0  0  0
  131.0900  124.5210   62.5090 C   0  0  0  0  0  0  0  0  0  0  0  0
  129.7610  124.8570   62.4550 N   0  0  0  0  0  0  0  0  0  0  0  0
  131.7780  123.8930   61.4610 C   0  0  0  0  0  0  0  0  0  0  0  0
  131.2680  123.4910   60.1510 C   0  0  0  0  0  0  0  0  0  0  0  0
  131.9520  123.6060   59.1320 O   0  0  0  0  0  0  0  0  0  0  0  0
  130.0070  123.0090   60.1270 N   0  0  0  0  0  0  0  0  0  0  0  0
  129.3070  122.5270   58.9370 C   0  0  0  0  0  0  0  0  0  0  0  0
  127.8680  123.0180   58.8230 C   0  0  0  0  0  0  0  0  0  0  0  0
  127.1880  122.9010   57.6080 C   0  0  0  0  0  0  0  0  0  0  0  0
  125.8650  123.3260   57.5080 C   0  0  0  0  0  0  0  0  0  0  0  0
  125.2240  123.8550   58.6260 C   0  0  0  0  0  0  0  0  0  0  0  0
  125.8910  123.9600   59.8440 C   0  0  0  0  0  0  0  0  0  0  0  0
  127.2130  123.5350   59.9450 C   0  0  0  0  0  0  0  0  0  0  0  0
  133.4700  123.6210   61.8790 S   0  0  0  0  0  0  0  0  0  0  0  0
  133.2440  124.3420   63.4570 C   0  0  0  0  0  0  0  0  0  0  0  0
  134.2410  124.4440   64.3370 N   0  0  0  0  0  0  0  0  0  0  0  0
  134.6848  125.0923   67.5363 H   0  0  0  0  0  0  0  0  0  0  0  0
  135.7755  124.2919   66.3545 H   0  0  0  0  0  0  0  0  0  0  0  0
  135.6088  126.0804   66.3545 H   0  0  0  0  0  0  0  0  0  0  0  0
  132.4804  125.9588   66.8272 H   0  0  0  0  0  0  0  0  0  0  0  0
  130.1724  125.9543   66.4128 H   0  0  0  0  0  0  0  0  0  0  0  0
  130.1208  126.9386   64.9111 H   0  0  0  0  0  0  0  0  0  0  0  0
  129.4676  125.2653   64.9111 H   0  0  0  0  0  0  0  0  0  0  0  0
  129.3450  125.2560   61.6250 H   0  0  0  0  0  0  0  0  0  0  0  0
  129.1490  124.7120   63.2470 H   0  0  0  0  0  0  0  0  0  0  0  0
  129.5250  122.8890   61.0060 H   0  0  0  0  0  0  0  0  0  0  0  0
  129.8599  122.8669   58.0489 H   0  0  0  0  0  0  0  0  0  0  0  0
  129.2641  121.4306   59.0150 H   0  0  0  0  0  0  0  0  0  0  0  0
  127.6968  122.4737   56.7313 H   0  0  0  0  0  0  0  0  0  0  0  0
  125.3291  123.2442   56.5508 H   0  0  0  0  0  0  0  0  0  0  0  0
  124.1804  124.1932   58.5459 H   0  0  0  0  0  0  0  0  0  0  0  0
  125.3759  124.3767   60.7221 H   0  0  0  0  0  0  0  0  0  0  0  0
  127.7419  123.6059   60.9069 H   0  0  0  0  0  0  0  0  0  0  0  0
  1  2  1  0
  2  3  2  0
  3  4  1  0
  4  5  1  0
  4  6  2  0
  6  7  1  0
  7  8  1  0
  7  9  2  0
  9 10  1  0
 10 11  2  0
 10 12  1  0
 12 13  1  0
 13 14  1  0
 14 15  2  0
 15 16  1  0
 16 17  2  0
 17 18  1  0
 18 19  2  0
  9 20  1  0
 20 21  1  0
 21 22  2  0
 22  2  1  0
 21  6  1  0
 19 14  1  0
  1 23  1  0
  1 24  1  0
  1 25  1  0
  3 26  1  0
  5 27  1  0
  5 28  1  0
  5 29  1  0
  8 30  1  0
  8 31  1  0
 12 32  1  0
 13 33  1  0
 13 34  1  0
 15 35  1  0
 16 36  1  0
 17 37  1  0
 18 38  1  0
 19 39  1  0
M  END
>  <Binding energies>  (1) 
[-6.76]

>  <Ligand effiencies>  (1) 
[-0.2704]

>  <Interactions>  (1) 
["V-A:ARG:545:CD:4918, H-A:TYR:484:OH:4343, V-A:ARG:545:CZ:4921, V-A:ARG:545:CG:4917, H-A:GLY:454:N:4045, V-A:ASP:366:CG:3208, V-B:GLU:543:CD:9876, H-B:GLU:543:OE2:9878, V-B:TYR:539:CD2:9842, V-B:TYR:539:CE2:9844, V-A:ILE:369:CD1:3234, V-A:HIS:456:CD2:4063, V-A:GLY:453:C:4037, V-A:GLY:453:CA:4039, V-B:PRO:540:CB:9853, V-B:PRO:540:CA:9851, V-B:TYR:539:C:9835, V-B:PRO:540:N:9852, V-B:MET:535:CE:9803"]

$$$$
4ah_Grossjean_2025
     RDKit          3D

 51 53  0  0  0  0  0  0  0  0999 V2000
  129.9810  124.2590   71.4940 C   0  0  0  0  0  0  0  0  0  0  0  0
  128.9720  125.2190   71.7880 O   0  0  0  0  0  0  0  0  0  0  0  0
  129.1870  126.5490   71.4700 C   0  0  0  0  0  0  0  0  0  0  0  0
  129.0310  127.0800   70.1800 C   0  0  0  0  0  0  0  0  0  0  0  0
  129.2660  128.4330   69.9320 C   0  0  0  0  0  0  0  0  0  0  0  0
  129.0460  129.0030   68.5350 C   0  0  0  0  0  0  0  0  0  0  0  0
  129.7420  128.2600   67.4840 N   0  0  0  0  0  0  0  0  0  0  0  0
  129.3540  127.0690   66.9810 C   0  0  0  0  0  0  0  0  0  0  0  0
  128.3680  126.4610   67.3990 O   0  0  0  0  0  0  0  0  0  0  0  0
  130.2020  126.5120   65.9270 C   0  0  0  0  0  0  0  0  0  0  0  0
  131.7580  125.7860   66.3340 S   0  0  0  0  0  0  0  0  0  0  0  0
  132.0930  125.4550   64.6490 C   0  0  0  0  0  0  0  0  0  0  0  0
  133.2180  124.8570   64.2570 N   0  0  0  0  0  0  0  0  0  0  0  0
  133.3540  124.6570   62.9240 C   0  0  0  0  0  0  0  0  0  0  0  0
  134.6430  123.9780   62.5000 C   0  0  0  0  0  0  0  0  0  0  0  0
  132.4000  125.0370   61.9830 C   0  0  0  0  0  0  0  0  0  0  0  0
  131.2210  125.6680   62.3950 C   0  0  0  0  0  0  0  0  0  0  0  0
  130.2100  126.0650   61.3310 C   0  0  0  0  0  0  0  0  0  0  0  0
  131.0430  125.8960   63.7870 C   0  0  0  0  0  0  0  0  0  0  0  0
  129.9820  126.5060   64.5420 C   0  0  0  0  0  0  0  0  0  0  0  0
  128.8600  127.0220   63.9460 N   0  0  0  0  0  0  0  0  0  0  0  0
  129.6340  129.2720   70.9850 C   0  0  0  0  0  0  0  0  0  0  0  0
  129.8030  128.7670   72.2830 C   0  0  0  0  0  0  0  0  0  0  0  0
  130.1800  129.5380   73.3680 O   0  0  0  0  0  0  0  0  0  0  0  0
  130.1140  130.9570   73.2730 C   0  0  0  0  0  0  0  0  0  0  0  0
  129.5820  127.4020   72.5110 C   0  0  0  0  0  0  0  0  0  0  0  0
  129.7260  126.8960   73.7810 O   0  0  0  0  0  0  0  0  0  0  0  0
  130.9920  126.3000   74.0270 C   0  0  0  0  0  0  0  0  0  0  0  0
  130.3961  123.8641   72.4330 H   0  0  0  0  0  0  0  0  0  0  0  0
  129.5442  123.4348   70.9109 H   0  0  0  0  0  0  0  0  0  0  0  0
  130.7824  124.7362   70.9109 H   0  0  0  0  0  0  0  0  0  0  0  0
  128.7200  126.4221   69.3552 H   0  0  0  0  0  0  0  0  0  0  0  0
  127.9678  128.9854   68.3178 H   0  0  0  0  0  0  0  0  0  0  0  0
  129.4557  130.0238   68.5344 H   0  0  0  0  0  0  0  0  0  0  0  0
  130.5100  128.7380   67.0380 H   0  0  0  0  0  0  0  0  0  0  0  0
  135.2109  123.6789   63.3933 H   0  0  0  0  0  0  0  0  0  0  0  0
  134.4077  123.0868   61.8997 H   0  0  0  0  0  0  0  0  0  0  0  0
  135.2449  124.6761   61.8997 H   0  0  0  0  0  0  0  0  0  0  0  0
  132.5736  124.8408   60.9147 H   0  0  0  0  0  0  0  0  0  0  0  0
  129.2907  126.4260   61.8153 H   0  0  0  0  0  0  0  0  0  0  0  0
  130.6322  126.8641   60.7040 H   0  0  0  0  0  0  0  0  0  0  0  0
  129.9757  125.1921   60.7040 H   0  0  0  0  0  0  0  0  0  0  0  0
  128.5900  127.9880   64.0610 H   0  0  0  0  0  0  0  0  0  0  0  0
  128.2590  126.4450   63.3730 H   0  0  0  0  0  0  0  0  0  0  0  0
  129.7937  130.3436   70.7946 H   0  0  0  0  0  0  0  0  0  0  0  0
  130.0938  131.3916   74.2833 H   0  0  0  0  0  0  0  0  0  0  0  0
  130.9958  131.3296   72.7311 H   0  0  0  0  0  0  0  0  0  0  0  0
  129.2014  131.2462   72.7311 H   0  0  0  0  0  0  0  0  0  0  0  0
  131.1563  126.2227   75.1119 H   0  0  0  0  0  0  0  0  0  0  0  0
  131.0174  125.2953   73.5798 H   0  0  0  0  0  0  0  0  0  0  0  0
  131.7825  126.9205   73.5798 H   0  0  0  0  0  0  0  0  0  0  0  0
  1  2  1  0
  2  3  1  0
  3  4  2  0
  4  5  1  0
  5  6  1  0
  6  7  1  0
  7  8  1  0
  8  9  2  0
  8 10  1  0
 10 11  1  0
 11 12  1  0
 12 13  2  0
 13 14  1  0
 14 15  1  0
 14 16  2  0
 16 17  1  0
 17 18  1  0
 17 19  2  0
 19 20  1  0
 20 21  1  0
  5 22  2  0
 22 23  1  0
 23 24  1  0
 24 25  1  0
 23 26  2  0
 26 27  1  0
 27 28  1  0
 26  3  1  0
 20 10  2  0
 19 12  1  0
  1 29  1  0
  1 30  1  0
  1 31  1  0
  4 32  1  0
  6 33  1  0
  6 34  1  0
  7 35  1  0
 15 36  1  0
 15 37  1  0
 15 38  1  0
 16 39  1  0
 18 40  1  0
 18 41  1  0
 18 42  1  0
 21 43  1  0
 21 44  1  0
 22 45  1  0
 25 46  1  0
 25 47  1  0
 25 48  1  0
 28 49  1  0
 28 50  1  0
 28 51  1  0
M  END
>  <Binding energies>  (1) 
[-6.71]

>  <Ligand effiencies>  (1) 
[-0.21645161290322582]

>  <Interactions>  (1) 
["H-A:TYR:484:OH:4343, V-A:ASP:366:CG:3208, V-A:GLU:543:CD:4903, V-A:GLU:543:CG:4902, V-A:GLU:543:CB:4901, V-A:HIS:456:CE1:4064, V-A:GLY:544:CA:4909, V-B:HIS:456:CE1:9037, V-A:GLY:454:CA:4044, H-A:GLU:543:OE1:4904, V-B:GLU:543:CD:9876, V-A:GLU:543:C:4897, H-B:GLU:543:OE2:9878, H-B:GLU:543:OE1:9877, V-A:ILE:369:CD1:3234, V-A:GLY:453:C:4037, V-A:GLY:453:CA:4039, H-B:LYS:547:NZ:9919, V-B:HIS:456:CD2:9035, H-A:LYS:547:NZ:4946, V-A:LYS:547:CE:4945"]

$$$$
4ai_Grossjean_2025
     RDKit          3D

 32 34  0  0  0  0  0  0  0  0999 V2000
  123.8780  129.7110   66.2580 C   0  0  0  0  0  0  0  0  0  0  0  0
  125.1120  129.0260   65.6980 C   0  0  0  0  0  0  0  0  0  0  0  0
  125.3380  128.9670   64.3240 C   0  0  0  0  0  0  0  0  0  0  0  0
  126.4860  128.3360   63.8300 C   0  0  0  0  0  0  0  0  0  0  0  0
  126.6890  128.2990   62.3240 C   0  0  0  0  0  0  0  0  0  0  0  0
  127.3890  127.7720   64.7720 C   0  0  0  0  0  0  0  0  0  0  0  0
  128.6340  127.0680   64.6180 C   0  0  0  0  0  0  0  0  0  0  0  0
  129.1820  126.8100   63.3870 N   0  0  0  0  0  0  0  0  0  0  0  0
  129.2260  126.6840   65.8320 C   0  0  0  0  0  0  0  0  0  0  0  0
  130.4760  125.9520   66.0440 C   0  0  0  0  0  0  0  0  0  0  0  0
  130.5650  125.1050   66.9350 O   0  0  0  0  0  0  0  0  0  0  0  0
  131.4840  126.2640   65.1920 N   0  0  0  0  0  0  0  0  0  0  0  0
  132.7620  125.7210   65.1610 C   0  0  0  0  0  0  0  0  0  0  0  0
  133.6040  125.6910   66.2730 C   0  0  0  0  0  0  0  0  0  0  0  0
  134.7580  125.0850   65.8310 C   0  0  0  0  0  0  0  0  0  0  0  0
  134.6180  124.7650   64.5230 O   0  0  0  0  0  0  0  0  0  0  0  0
  133.3480  125.1720   64.1090 N   0  0  0  0  0  0  0  0  0  0  0  0
  128.2300  127.1680   67.2070 S   0  0  0  0  0  0  0  0  0  0  0  0
  127.0420  127.8990   66.1500 C   0  0  0  0  0  0  0  0  0  0  0  0
  125.9490  128.4980   66.6240 N   0  0  0  0  0  0  0  0  0  0  0  0
  123.9144  129.6908   67.3572 H   0  0  0  0  0  0  0  0  0  0  0  0
  123.8487  130.7545   65.9112 H   0  0  0  0  0  0  0  0  0  0  0  0
  122.9769  129.1840   65.9112 H   0  0  0  0  0  0  0  0  0  0  0  0
  124.6145  129.4162   63.6278 H   0  0  0  0  0  0  0  0  0  0  0  0
  127.7488  128.1058   62.1015 H   0  0  0  0  0  0  0  0  0  0  0  0
  126.0715  127.4986   61.8903 H   0  0  0  0  0  0  0  0  0  0  0  0
  126.3936  129.2658   61.8903 H   0  0  0  0  0  0  0  0  0  0  0  0
  128.9930  125.9530   62.8880 H   0  0  0  0  0  0  0  0  0  0  0  0
  129.8020  127.4720   62.9390 H   0  0  0  0  0  0  0  0  0  0  0  0
  131.2930  126.9640   64.4920 H   0  0  0  0  0  0  0  0  0  0  0  0
  133.3916  126.0696   67.2837 H   0  0  0  0  0  0  0  0  0  0  0  0
  135.6514  124.8916   66.4428 H   0  0  0  0  0  0  0  0  0  0  0  0
  1  2  1  0
  2  3  2  0
  3  4  1  0
  4  5  1  0
  4  6  2  0
  6  7  1  0
  7  8  1  0
  7  9  2  0
  9 10  1  0
 10 11  2  0
 10 12  1  0
 12 13  1  0
 13 14  1  0
 14 15  2  0
 15 16  1  0
 16 17  1  0
  9 18  1  0
 18 19  1  0
 19 20  2  0
 20  2  1  0
 19  6  1  0
 17 13  2  0
  1 21  1  0
  1 22  1  0
  1 23  1  0
  3 24  1  0
  5 25  1  0
  5 26  1  0
  5 27  1  0
  8 28  1  0
  8 29  1  0
 12 30  1  0
 14 31  1  0
 15 32  1  0
M  END
>  <Binding energies>  (1) 
[-6.21]

>  <Ligand effiencies>  (1) 
[-0.27]

>  <Interactions>  (1) 
["V-A:ARG:545:CD:4918, H-A:TYR:484:OH:4343, V-A:ARG:545:CZ:4921, V-A:ARG:545:CG:4917, H-A:GLU:543:OE2:4905, H-A:GLY:454:N:4045, V-A:GLU:543:CD:4903, V-B:GLU:543:CG:9875, V-A:HIS:456:CE1:4064, V-B:HIS:456:CE1:9037, V-A:GLY:454:CA:4044, H-A:GLU:543:OE1:4904, V-B:GLU:543:CD:9876, V-B:GLU:543:CB:9874, H-B:GLU:543:OE2:9878, V-B:ARG:545:CZ:9894, V-B:ARG:545:CD:9891, V-B:ARG:545:CG:9890, V-A:HIS:456:CD2:4063, V-A:GLY:453:C:4037, V-A:GLY:453:CA:4039, H-A:HIS:456:NE2:4065, H-A:ARG:545:NH1:4922, H-A:ARG:545:NH2:4923"]

$$$$
4aj_Grossjean_2025
     RDKit          3D

 32 34  0  0  0  0  0  0  0  0999 V2000
  128.7190  127.8320   70.5290 C   0  0  0  0  0  0  0  0  0  0  0  0
  128.9340  127.4780   69.0690 C   0  0  0  0  0  0  0  0  0  0  0  0
  128.6860  128.4080   68.0620 C   0  0  0  0  0  0  0  0  0  0  0  0
  128.8850  128.0590   66.7210 C   0  0  0  0  0  0  0  0  0  0  0  0
  128.6000  129.1090   65.6590 C   0  0  0  0  0  0  0  0  0  0  0  0
  129.3430  126.7440   66.4400 C   0  0  0  0  0  0  0  0  0  0  0  0
  129.6450  126.0650   65.2080 C   0  0  0  0  0  0  0  0  0  0  0  0
  129.5120  126.6730   63.9860 N   0  0  0  0  0  0  0  0  0  0  0  0
  130.0880  124.7440   65.3790 C   0  0  0  0  0  0  0  0  0  0  0  0
  130.4670  123.7710   64.3520 C   0  0  0  0  0  0  0  0  0  0  0  0
  131.5800  123.2400   64.3690 O   0  0  0  0  0  0  0  0  0  0  0  0
  129.5170  123.5040   63.4240 N   0  0  0  0  0  0  0  0  0  0  0  0
  129.6170  122.6180   62.3590 C   0  0  0  0  0  0  0  0  0  0  0  0
  129.1210  122.7520   61.1480 N   0  0  0  0  0  0  0  0  0  0  0  0
  129.4130  121.7160   60.3870 C   0  0  0  0  0  0  0  0  0  0  0  0
  130.1640  120.7060   60.9840 C   0  0  0  0  0  0  0  0  0  0  0  0
  130.5000  121.1510   62.6300 S   0  0  0  0  0  0  0  0  0  0  0  0
  130.1250  124.3000   67.0860 S   0  0  0  0  0  0  0  0  0  0  0  0
  129.5630  125.8870   67.5610 C   0  0  0  0  0  0  0  0  0  0  0  0
  129.3730  126.2160   68.8390 N   0  0  0  0  0  0  0  0  0  0  0  0
  129.1850  127.0648   71.1648 H   0  0  0  0  0  0  0  0  0  0  0  0
  129.1757  128.8101   70.7402 H   0  0  0  0  0  0  0  0  0  0  0  0
  127.6404  127.8777   70.7402 H   0  0  0  0  0  0  0  0  0  0  0  0
  128.3335  129.4174   68.3207 H   0  0  0  0  0  0  0  0  0  0  0  0
  128.3415  130.0613   66.1450 H   0  0  0  0  0  0  0  0  0  0  0  0
  129.4929  129.2479   65.0318 H   0  0  0  0  0  0  0  0  0  0  0  0
  127.7594  128.7774   65.0318 H   0  0  0  0  0  0  0  0  0  0  0  0
  129.9780  127.5410   63.7680 H   0  0  0  0  0  0  0  0  0  0  0  0
  128.9370  126.2690   63.2580 H   0  0  0  0  0  0  0  0  0  0  0  0
  128.6370  123.9910   63.5080 H   0  0  0  0  0  0  0  0  0  0  0  0
  129.0823  121.6526   59.3398 H   0  0  0  0  0  0  0  0  0  0  0  0
  130.4912  119.7775   60.4932 H   0  0  0  0  0  0  0  0  0  0  0  0
  1  2  1  0
  2  3  2  0
  3  4  1  0
  4  5  1  0
  4  6  2  0
  6  7  1  0
  7  8  1  0
  7  9  2  0
  9 10  1  0
 10 11  2  0
 10 12  1  0
 12 13  1  0
 13 14  2  0
 14 15  1  0
 15 16  2  0
 16 17  1  0
  9 18  1  0
 18 19  1  0
 19 20  2  0
 20  2  1  0
 19  6  1  0
 17 13  1  0
  1 21  1  0
  1 22  1  0
  1 23  1  0
  3 24  1  0
  5 25  1  0
  5 26  1  0
  5 27  1  0
  8 28  1  0
  8 29  1  0
 12 30  1  0
 15 31  1  0
 16 32  1  0
M  END
>  <Binding energies>  (1) 
[-5.87]

>  <Ligand effiencies>  (1) 
[-0.25521739130434784]

>  <Interactions>  (1) 
["H-A:TYR:484:OH:4343, H-A:GLU:543:OE2:4905, V-A:GLU:543:CD:4903, V-A:GLU:543:CG:4902, V-B:GLU:543:CG:9875, V-A:HIS:456:CE1:4064, V-B:HIS:456:CE1:9037, H-A:GLU:543:OE1:4904, V-B:GLU:543:CD:9876, V-B:GLU:543:CB:9874, H-B:GLU:543:OE2:9878, V-A:LEU:475:CD2:4254, H-B:GLU:543:OE1:9877, V-A:TYR:484:CE1:4340, V-A:TYR:484:CZ:4342, V-A:LEU:475:CD1:4253, V-B:ALA:541:CB:9860, V-B:GLU:543:CA:9872, H-A:HIS:456:NE2:4065"]

$$$$
4ak_Grossjean_2025
     RDKit          3D

 50 51  0  0  0  0  0  0  0  0999 V2000
  129.7490  122.5380   64.3780 C   0  0  0  0  0  0  0  0  0  0  0  0
  131.1680  122.5870   64.3660 O   0  0  0  0  0  0  0  0  0  0  0  0
  131.7010  123.2850   63.2480 C   0  0  0  0  0  0  0  0  0  0  0  0
  133.2160  123.0570   63.1780 C   0  0  0  0  0  0  0  0  0  0  0  0
  133.8800  124.0590   63.9360 O   0  0  0  0  0  0  0  0  0  0  0  0
  133.1030  125.2320   64.1410 C   0  0  0  0  0  0  0  0  0  0  0  0
  133.4320  125.8240   65.5170 C   0  0  0  0  0  0  0  0  0  0  0  0
  132.6130  125.2070   66.5010 O   0  0  0  0  0  0  0  0  0  0  0  0
  131.2210  125.2790   66.2180 C   0  0  0  0  0  0  0  0  0  0  0  0
  130.5540  126.2670   67.1930 C   0  0  0  0  0  0  0  0  0  0  0  0
  129.6900  127.2460   66.5350 N   0  0  0  0  0  0  0  0  0  0  0  0
  128.3700  127.4000   66.7640 C   0  0  0  0  0  0  0  0  0  0  0  0
  127.7590  126.7210   67.5910 O   0  0  0  0  0  0  0  0  0  0  0  0
  127.6970  128.4320   65.9770 C   0  0  0  0  0  0  0  0  0  0  0  0
  128.6270  129.4940   64.9200 S   0  0  0  0  0  0  0  0  0  0  0  0
  127.1780  130.3270   64.4050 C   0  0  0  0  0  0  0  0  0  0  0  0
  127.2160  131.3340   63.5320 N   0  0  0  0  0  0  0  0  0  0  0  0
  126.0220  131.8950   63.2190 C   0  0  0  0  0  0  0  0  0  0  0  0
  126.0860  133.0390   62.2230 C   0  0  0  0  0  0  0  0  0  0  0  0
  124.8050  131.4760   63.7520 C   0  0  0  0  0  0  0  0  0  0  0  0
  124.7690  130.4180   64.6680 C   0  0  0  0  0  0  0  0  0  0  0  0
  123.4170  129.9990   65.2250 C   0  0  0  0  0  0  0  0  0  0  0  0
  126.0010  129.8060   65.0210 C   0  0  0  0  0  0  0  0  0  0  0  0
  126.3250  128.7220   65.9090 C   0  0  0  0  0  0  0  0  0  0  0  0
  125.3670  128.0440   66.6200 N   0  0  0  0  0  0  0  0  0  0  0  0
  129.3913  122.5256   65.4182 H   0  0  0  0  0  0  0  0  0  0  0  0
  129.3472  123.4228   63.8626 H   0  0  0  0  0  0  0  0  0  0  0  0
  129.4092  121.6276   63.8626 H   0  0  0  0  0  0  0  0  0  0  0  0
  131.2312  122.9131   62.3255 H   0  0  0  0  0  0  0  0  0  0  0  0
  131.4966  124.3605   63.3557 H   0  0  0  0  0  0  0  0  0  0  0  0
  133.4573  122.0657   63.5892 H   0  0  0  0  0  0  0  0  0  0  0  0
  133.5472  123.1092   62.1304 H   0  0  0  0  0  0  0  0  0  0  0  0
  133.3367  125.9690   63.3585 H   0  0  0  0  0  0  0  0  0  0  0  0
  132.0336  124.9783   64.0952 H   0  0  0  0  0  0  0  0  0  0  0  0
  134.4908  125.6407   65.7524 H   0  0  0  0  0  0  0  0  0  0  0  0
  133.2434  126.9077   65.5069 H   0  0  0  0  0  0  0  0  0  0  0  0
  131.0736  125.6263   65.1847 H   0  0  0  0  0  0  0  0  0  0  0  0
  130.7690  124.2831   66.3358 H   0  0  0  0  0  0  0  0  0  0  0  0
  129.9470  125.6930   67.9086 H   0  0  0  0  0  0  0  0  0  0  0  0
  131.3614  126.8289   67.6852 H   0  0  0  0  0  0  0  0  0  0  0  0
  130.1320  127.8400   65.8470 H   0  0  0  0  0  0  0  0  0  0  0  0
  126.1395  133.9946   62.7652 H   0  0  0  0  0  0  0  0  0  0  0  0
  126.9792  132.9255   61.5911 H   0  0  0  0  0  0  0  0  0  0  0  0
  125.1857  133.0258   61.5911 H   0  0  0  0  0  0  0  0  0  0  0  0
  123.8722  131.9766   63.4531 H   0  0  0  0  0  0  0  0  0  0  0  0
  123.4538  130.0104   66.3243 H   0  0  0  0  0  0  0  0  0  0  0  0
  122.6438  130.6997   64.8767 H   0  0  0  0  0  0  0  0  0  0  0  0
  123.1756  128.9839   64.8767 H   0  0  0  0  0  0  0  0  0  0  0  0
  125.6010  127.2740   67.2310 H   0  0  0  0  0  0  0  0  0  0  0  0
  124.3910  128.2980   66.5590 H   0  0  0  0  0  0  0  0  0  0  0  0
  1  2  1  0
  2  3  1  0
  3  4  1  0
  4  5  1  0
  5  6  1  0
  6  7  1  0
  7  8  1  0
  8  9  1  0
  9 10  1  0
 10 11  1  0
 11 12  1  0
 12 13  2  0
 12 14  1  0
 14 15  1  0
 15 16  1  0
 16 17  2  0
 17 18  1  0
 18 19  1  0
 18 20  2  0
 20 21  1  0
 21 22  1  0
 21 23  2  0
 23 24  1  0
 24 25  1  0
 24 14  2  0
 23 16  1  0
  1 26  1  0
  1 27  1  0
  1 28  1  0
  3 29  1  0
  3 30  1  0
  4 31  1  0
  4 32  1  0
  6 33  1  0
  6 34  1  0
  7 35  1  0
  7 36  1  0
  9 37  1  0
  9 38  1  0
 10 39  1  0
 10 40  1  0
 11 41  1  0
 19 42  1  0
 19 43  1  0
 19 44  1  0
 20 45  1  0
 22 46  1  0
 22 47  1  0
 22 48  1  0
 25 49  1  0
 25 50  1  0
M  END
>  <Binding energies>  (1) 
[-5.0]

>  <Ligand effiencies>  (1) 
[-0.17857142857142858]

>  <Interactions>  (1) 
["V-A:ARG:545:CD:4918, H-A:TYR:484:OH:4343, V-A:ARG:545:CZ:4921, V-A:ARG:545:CG:4917, H-A:GLU:543:OE2:4905, H-A:GLY:454:N:4045, V-A:GLU:543:CD:4903, V-A:GLU:543:CG:4902, V-B:GLU:543:CG:9875, V-A:HIS:456:CE1:4064, V-B:HIS:456:CE1:9037, V-A:GLY:454:CA:4044, H-A:GLU:543:OE1:4904, V-B:GLU:543:CD:9876, V-B:GLU:543:CB:9874, H-B:GLU:543:OE1:9877, V-A:TYR:484:CE1:4340, V-B:ALA:541:CB:9860, V-B:ARG:545:CZ:9894, H-B:TYR:484:OH:9315, V-B:ARG:545:CD:9891, V-B:ARG:545:CG:9890, H-A:HIS:456:NE2:4065, V-B:LEU:475:CD2:9226, V-B:GLY:453:CA:9011, V-B:GLY:453:C:9009"]

$$$$
4al_Grossjean_2025
     RDKit          3D

 28 29  0  0  0  0  0  0  0  0999 V2000
  134.2550  125.1220   65.7570 C   0  0  0  0  0  0  0  0  0  0  0  0
  133.9180  124.7140   64.4400 O   0  0  0  0  0  0  0  0  0  0  0  0
  132.7640  125.1290   63.8560 C   0  0  0  0  0  0  0  0  0  0  0  0
  132.3630  126.2950   63.8730 O   0  0  0  0  0  0  0  0  0  0  0  0
  132.0290  124.0320   63.1890 C   0  0  0  0  0  0  0  0  0  0  0  0
  132.8120  122.4700   62.9410 S   0  0  0  0  0  0  0  0  0  0  0  0
  131.3800  121.8290   62.1670 C   0  0  0  0  0  0  0  0  0  0  0  0
  131.3270  120.5790   61.7080 N   0  0  0  0  0  0  0  0  0  0  0  0
  130.1580  120.2060   61.1290 C   0  0  0  0  0  0  0  0  0  0  0  0
  130.1190  118.7790   60.6130 C   0  0  0  0  0  0  0  0  0  0  0  0
  129.0550  121.0460   61.0000 C   0  0  0  0  0  0  0  0  0  0  0  0
  129.1130  122.3580   61.4830 C   0  0  0  0  0  0  0  0  0  0  0  0
  127.8840  123.2370   61.3210 C   0  0  0  0  0  0  0  0  0  0  0  0
  130.3230  122.7840   62.0970 C   0  0  0  0  0  0  0  0  0  0  0  0
  130.7220  124.0310   62.6870 C   0  0  0  0  0  0  0  0  0  0  0  0
  129.8890  125.1190   62.7500 N   0  0  0  0  0  0  0  0  0  0  0  0
  133.7292  124.4855   66.4839 H   0  0  0  0  0  0  0  0  0  0  0  0
  135.3409  125.0264   65.9039 H   0  0  0  0  0  0  0  0  0  0  0  0
  133.9560  126.1703   65.9039 H   0  0  0  0  0  0  0  0  0  0  0  0
  130.0999  118.0819   61.4637 H   0  0  0  0  0  0  0  0  0  0  0  0
  129.2166  118.6350   60.0007 H   0  0  0  0  0  0  0  0  0  0  0  0
  131.0122  118.5860   60.0007 H   0  0  0  0  0  0  0  0  0  0  0  0
  128.1373  120.6779   60.5180 H   0  0  0  0  0  0  0  0  0  0  0  0
  127.4975  123.5134   62.3131 H   0  0  0  0  0  0  0  0  0  0  0  0
  128.1549  124.1475   60.7663 H   0  0  0  0  0  0  0  0  0  0  0  0
  127.1099  122.6864   60.7663 H   0  0  0  0  0  0  0  0  0  0  0  0
  128.9040  125.0520   62.5360 H   0  0  0  0  0  0  0  0  0  0  0  0
  130.2350  126.0320   63.0140 H   0  0  0  0  0  0  0  0  0  0  0  0
  1  2  1  0
  2  3  1  0
  3  4  2  0
  3  5  1  0
  5  6  1  0
  6  7  1  0
  7  8  2  0
  8  9  1  0
  9 10  1  0
  9 11  2  0
 11 12  1  0
 12 13  1  0
 12 14  2  0
 14 15  1  0
 15 16  1  0
 15  5  2  0
 14  7  1  0
  1 17  1  0
  1 18  1  0
  1 19  1  0
 10 20  1  0
 10 21  1  0
 10 22  1  0
 11 23  1  0
 13 24  1  0
 13 25  1  0
 13 26  1  0
 16 27  1  0
 16 28  1  0
M  END
>  <Binding energies>  (1) 
[-4.9]

>  <Ligand effiencies>  (1) 
[-0.27222222222222225]

>  <Interactions>  (1) 
["V-A:ARG:545:CD:4918, H-A:TYR:484:OH:4343, V-A:ARG:545:CZ:4921, V-A:ARG:545:CG:4917, H-A:GLY:454:N:4045, V-A:GLY:454:CA:4044, V-B:GLU:543:CD:9876, V-A:PRO:482:CB:4321, H-B:GLU:543:OE2:9878, V-A:LEU:475:CD2:4254, V-B:TYR:539:CD2:9842, V-A:TRP:381:CZ3:3366, V-A:TRP:381:CZ2:3365, V-A:TRP:381:CH2:3367, V-B:ALA:541:CB:9860, V-A:GLY:453:CA:4039, H-A:ARG:545:NE:4919, V-B:PRO:540:CA:9851, V-B:PRO:540:C:9849, V-B:ALA:541:CA:9858, V-B:TYR:539:C:9835, H-A:ARG:545:NH2:4923"]

$$$$
4ba_Grossjean_2025
     RDKit          3D

 44 46  0  0  0  0  0  0  0  0999 V2000
  130.1410  128.8550   70.6080 C   0  0  0  0  0  0  0  0  0  0  0  0
  128.7780  128.4950   71.2300 C   0  0  0  0  0  0  0  0  0  0  0  0
  127.9150  127.5250   70.3980 C   0  0  0  0  0  0  0  0  0  0  0  0
  126.8070  127.1830   70.8190 O   0  0  0  0  0  0  0  0  0  0  0  0
  128.4730  127.0400   69.0910 C   0  0  0  0  0  0  0  0  0  0  0  0
  129.3670  125.9620   69.0830 C   0  0  0  0  0  0  0  0  0  0  0  0
  129.9000  125.4930   67.8860 C   0  0  0  0  0  0  0  0  0  0  0  0
  129.5500  126.0880   66.6740 C   0  0  0  0  0  0  0  0  0  0  0  0
  130.1540  125.5410   65.5260 N   0  0  0  0  0  0  0  0  0  0  0  0
  131.4290  125.1230   65.3260 C   0  0  0  0  0  0  0  0  0  0  0  0
  132.3230  125.2050   66.1690 O   0  0  0  0  0  0  0  0  0  0  0  0
  131.7050  124.5710   63.9980 C   0  0  0  0  0  0  0  0  0  0  0  0
  133.1190  125.1060   63.0930 S   0  0  0  0  0  0  0  0  0  0  0  0
  132.6930  124.0890   61.7370 C   0  0  0  0  0  0  0  0  0  0  0  0
  133.4430  124.0490   60.6360 N   0  0  0  0  0  0  0  0  0  0  0  0
  133.0120  123.2260   59.6540 C   0  0  0  0  0  0  0  0  0  0  0  0
  133.8760  123.2030   58.4050 C   0  0  0  0  0  0  0  0  0  0  0  0
  131.8640  122.4440   59.7460 C   0  0  0  0  0  0  0  0  0  0  0  0
  131.0700  122.4800   60.9040 C   0  0  0  0  0  0  0  0  0  0  0  0
  129.8170  121.6010   60.9610 C   0  0  0  0  0  0  0  0  0  0  0  0
  128.6850  122.3060   60.9950 F   0  0  0  0  0  0  0  0  0  0  0  0
  129.7660  120.8150   59.8840 F   0  0  0  0  0  0  0  0  0  0  0  0
  129.8480  120.8430   62.0570 F   0  0  0  0  0  0  0  0  0  0  0  0
  131.4940  123.3450   61.9580 C   0  0  0  0  0  0  0  0  0  0  0  0
  130.9470  123.6500   63.2570 C   0  0  0  0  0  0  0  0  0  0  0  0
  129.7870  123.0840   63.7230 N   0  0  0  0  0  0  0  0  0  0  0  0
  128.6600  127.1730   66.6740 C   0  0  0  0  0  0  0  0  0  0  0  0
  128.1270  127.6410   67.8720 C   0  0  0  0  0  0  0  0  0  0  0  0
  130.8701  129.0476   71.4088 H   0  0  0  0  0  0  0  0  0  0  0  0
  130.4923  128.0188   69.9856 H   0  0  0  0  0  0  0  0  0  0  0  0
  130.0336  129.7556   69.9856 H   0  0  0  0  0  0  0  0  0  0  0  0
  128.9626  128.0316   72.2104 H   0  0  0  0  0  0  0  0  0  0  0  0
  128.2106  129.4355   71.2898 H   0  0  0  0  0  0  0  0  0  0  0  0
  129.6504  125.4818   70.0312 H   0  0  0  0  0  0  0  0  0  0  0  0
  130.6026  124.6467   67.8958 H   0  0  0  0  0  0  0  0  0  0  0  0
  129.5370  125.4650   64.7320 H   0  0  0  0  0  0  0  0  0  0  0  0
  134.9371  123.1748   58.6936 H   0  0  0  0  0  0  0  0  0  0  0  0
  133.6344  122.3110   57.8084 H   0  0  0  0  0  0  0  0  0  0  0  0
  133.6822  124.1066   57.8084 H   0  0  0  0  0  0  0  0  0  0  0  0
  131.5769  121.7938   58.9065 H   0  0  0  0  0  0  0  0  0  0  0  0
  128.9400  123.6210   63.8430 H   0  0  0  0  0  0  0  0  0  0  0  0
  129.7430  122.1050   63.9710 H   0  0  0  0  0  0  0  0  0  0  0  0
  128.3827  127.6550   65.7249 H   0  0  0  0  0  0  0  0  0  0  0  0
  127.4279  128.4902   67.8623 H   0  0  0  0  0  0  0  0  0  0  0  0
  1  2  1  0
  2  3  1  0
  3  4  2  0
  3  5  1  0
  5  6  2  0
  6  7  1  0
  7  8  2  0
  8  9  1  0
  9 10  1  0
 10 11  2  0
 10 12  1  0
 12 13  1  0
 13 14  1  0
 14 15  2  0
 15 16  1  0
 16 17  1  0
 16 18  2  0
 18 19  1  0
 19 20  1  0
 20 21  1  0
 20 22  1  0
 20 23  1  0
 19 24  2  0
 24 25  1  0
 25 26  1  0
  8 27  1  0
 27 28  2  0
 28  5  1  0
 25 12  2  0
 24 14  1  0
  1 29  1  0
  1 30  1  0
  1 31  1  0
  2 32  1  0
  2 33  1  0
  6 34  1  0
  7 35  1  0
  9 36  1  0
 17 37  1  0
 17 38  1  0
 17 39  1  0
 18 40  1  0
 26 41  1  0
 26 42  1  0
 27 43  1  0
 28 44  1  0
M  END
>  <Binding energies>  (1) 
[-6.82]

>  <Ligand effiencies>  (1) 
[-0.22]

>  <Interactions>  (1) 
["H-A:TYR:484:OH:4343, V-A:ARG:545:CZ:4921, V-A:ASP:366:CG:3208, V-B:GLU:543:CG:9875, V-A:HIS:456:CE1:4064, V-B:HIS:456:CE1:9037, V-B:GLU:543:CD:9876, V-A:GLU:543:C:4897, V-B:GLU:543:CB:9874, H-B:GLU:543:OE2:9878, V-A:LEU:475:CD2:4254, V-B:TYR:539:CD2:9842, V-B:TYR:539:CE2:9844, V-B:ALA:541:CB:9860, V-A:ASP:366:CB:3207, V-A:ILE:369:CD1:3234, V-B:GLU:543:C:9870, H-B:LYS:547:NZ:9919, V-B:HIS:456:CD2:9035, H-A:HIS:456:NE2:4065, V-B:PRO:540:CA:9851, V-A:ILE:369:CG2:3232, V-B:ALA:541:CA:9858, V-B:TYR:539:C:9835, H-B:ARG:545:N:9888, V-A:ILE:369:CB:3231, V-A:ASP:366:CA:3205, V-A:ILE:369:CG1:3233"]

$$$$
4bb_Grossjean_2025
     RDKit          3D

 41 43  0  0  0  0  0  0  0  0999 V2000
  128.6580  128.4430   71.2800 C   0  0  0  0  0  0  0  0  0  0  0  0
  127.7500  127.6030   70.3790 C   0  0  0  0  0  0  0  0  0  0  0  0
  126.5980  127.3830   70.7590 O   0  0  0  0  0  0  0  0  0  0  0  0
  128.3110  127.0860   69.0880 C   0  0  0  0  0  0  0  0  0  0  0  0
  129.3690  126.1690   69.1180 C   0  0  0  0  0  0  0  0  0  0  0  0
  129.9090  125.6740   67.9340 C   0  0  0  0  0  0  0  0  0  0  0  0
  129.3980  126.0790   66.7000 C   0  0  0  0  0  0  0  0  0  0  0  0
  130.0190  125.5190   65.5670 N   0  0  0  0  0  0  0  0  0  0  0  0
  131.2970  125.1010   65.3910 C   0  0  0  0  0  0  0  0  0  0  0  0
  132.1740  125.1790   66.2500 O   0  0  0  0  0  0  0  0  0  0  0  0
  131.5990  124.5560   64.0640 C   0  0  0  0  0  0  0  0  0  0  0  0
  133.0080  125.1240   63.1730 S   0  0  0  0  0  0  0  0  0  0  0  0
  132.6240  124.0910   61.8150 C   0  0  0  0  0  0  0  0  0  0  0  0
  133.3900  124.0610   60.7260 N   0  0  0  0  0  0  0  0  0  0  0  0
  132.9900  123.2230   59.7420 C   0  0  0  0  0  0  0  0  0  0  0  0
  133.8780  123.2030   58.5100 C   0  0  0  0  0  0  0  0  0  0  0  0
  131.8540  122.4230   59.8200 C   0  0  0  0  0  0  0  0  0  0  0  0
  131.0440  122.4500   60.9660 C   0  0  0  0  0  0  0  0  0  0  0  0
  129.8030  121.5510   61.0060 C   0  0  0  0  0  0  0  0  0  0  0  0
  128.6610  122.2400   61.0660 F   0  0  0  0  0  0  0  0  0  0  0  0
  129.7570  120.7970   59.9070 F   0  0  0  0  0  0  0  0  0  0  0  0
  129.8510  120.7630   62.0790 F   0  0  0  0  0  0  0  0  0  0  0  0
  131.4370  123.3240   62.0240 C   0  0  0  0  0  0  0  0  0  0  0  0
  130.8710  123.6160   63.3170 C   0  0  0  0  0  0  0  0  0  0  0  0
  129.7240  123.0180   63.7750 N   0  0  0  0  0  0  0  0  0  0  0  0
  128.3430  127.0040   66.6630 C   0  0  0  0  0  0  0  0  0  0  0  0
  127.8050  127.4990   67.8480 C   0  0  0  0  0  0  0  0  0  0  0  0
  128.4273  128.2296   72.3342 H   0  0  0  0  0  0  0  0  0  0  0  0
  129.7096  128.1923   71.0767 H   0  0  0  0  0  0  0  0  0  0  0  0
  128.4898  129.5109   71.0767 H   0  0  0  0  0  0  0  0  0  0  0  0
  129.7765  125.8373   70.0844 H   0  0  0  0  0  0  0  0  0  0  0  0
  130.7440  124.9589   67.9714 H   0  0  0  0  0  0  0  0  0  0  0  0
  129.4150  125.4420   64.7620 H   0  0  0  0  0  0  0  0  0  0  0  0
  134.9334  123.1792   58.8191 H   0  0  0  0  0  0  0  0  0  0  0  0
  133.6516  122.3097   57.9093 H   0  0  0  0  0  0  0  0  0  0  0  0
  133.6921  124.1056   57.9093 H   0  0  0  0  0  0  0  0  0  0  0  0
  131.5893  121.7657   58.9787 H   0  0  0  0  0  0  0  0  0  0  0  0
  128.8490  123.5180   63.8390 H   0  0  0  0  0  0  0  0  0  0  0  0
  129.7160  122.0510   64.0680 H   0  0  0  0  0  0  0  0  0  0  0  0
  127.9403  127.3386   65.6956 H   0  0  0  0  0  0  0  0  0  0  0  0
  126.9756  128.2205   67.8106 H   0  0  0  0  0  0  0  0  0  0  0  0
  1  2  1  0
  2  3  2  0
  2  4  1  0
  4  5  2  0
  5  6  1  0
  6  7  2  0
  7  8  1  0
  8  9  1  0
  9 10  2  0
  9 11  1  0
 11 12  1  0
 12 13  1  0
 13 14  2  0
 14 15  1  0
 15 16  1  0
 15 17  2  0
 17 18  1  0
 18 19  1  0
 19 20  1  0
 19 21  1  0
 19 22  1  0
 18 23  2  0
 23 24  1  0
 24 25  1  0
  7 26  1  0
 26 27  2  0
 27  4  1  0
 24 11  2  0
 23 13  1  0
  1 28  1  0
  1 29  1  0
  1 30  1  0
  5 31  1  0
  6 32  1  0
  8 33  1  0
 16 34  1  0
 16 35  1  0
 16 36  1  0
 17 37  1  0
 25 38  1  0
 25 39  1  0
 26 40  1  0
 27 41  1  0
M  END
>  <Binding energies>  (1) 
[-6.66]

>  <Ligand effiencies>  (1) 
[-0.222]

>  <Interactions>  (1) 
["H-A:TYR:484:OH:4343, V-A:ARG:545:CZ:4921, V-A:ASP:366:CG:3208, V-B:GLU:543:CG:9875, V-A:HIS:456:CE1:4064, V-B:HIS:456:CE1:9037, V-B:GLU:543:CD:9876, V-B:GLU:543:CB:9874, H-B:GLU:543:OE2:9878, V-A:LEU:475:CD2:4254, V-B:TYR:539:CD2:9842, V-B:TYR:539:CE2:9844, V-B:ALA:541:CB:9860, V-A:ASP:366:CB:3207, V-A:ILE:369:CD1:3234, V-B:GLU:543:C:9870, H-B:LYS:547:NZ:9919, V-B:HIS:456:CD2:9035, H-A:HIS:456:NE2:4065, V-B:PRO:540:CA:9851, V-A:ILE:369:CG2:3232, V-B:PRO:540:C:9849, V-B:ALA:541:CA:9858, V-B:TYR:539:C:9835, H-B:HIS:456:ND1:9034, H-B:ARG:545:N:9888, V-A:ILE:369:CB:3231, V-A:ASP:366:CA:3205, V-A:ILE:369:CG1:3233"]

$$$$
4bc_Grossjean_2025
     RDKit          3D

 40 42  0  0  0  0  0  0  0  0999 V2000
  122.5940  130.7310   62.4730 C   0  0  0  0  0  0  0  0  0  0  0  0
  122.9820  130.6910   63.8430 O   0  0  0  0  0  0  0  0  0  0  0  0
  124.1590  130.0570   64.1910 C   0  0  0  0  0  0  0  0  0  0  0  0
  125.0500  129.7860   63.1540 C   0  0  0  0  0  0  0  0  0  0  0  0
  126.2620  129.1490   63.4080 C   0  0  0  0  0  0  0  0  0  0  0  0
  126.6030  128.7820   64.7110 C   0  0  0  0  0  0  0  0  0  0  0  0
  127.8400  128.1300   64.8690 N   0  0  0  0  0  0  0  0  0  0  0  0
  128.2280  127.2460   65.8210 C   0  0  0  0  0  0  0  0  0  0  0  0
  127.5160  126.8930   66.7610 O   0  0  0  0  0  0  0  0  0  0  0  0
  129.5880  126.7190   65.6730 C   0  0  0  0  0  0  0  0  0  0  0  0
  130.6570  126.6190   67.0710 S   0  0  0  0  0  0  0  0  0  0  0  0
  131.9440  125.9510   66.0960 C   0  0  0  0  0  0  0  0  0  0  0  0
  133.1240  125.6290   66.6280 N   0  0  0  0  0  0  0  0  0  0  0  0
  134.0420  125.1220   65.7740 C   0  0  0  0  0  0  0  0  0  0  0  0
  135.3750  124.7580   66.4000 C   0  0  0  0  0  0  0  0  0  0  0  0
  133.8110  124.9310   64.4130 C   0  0  0  0  0  0  0  0  0  0  0  0
  132.5720  125.2680   63.8480 C   0  0  0  0  0  0  0  0  0  0  0  0
  132.3670  125.0410   62.3460 C   0  0  0  0  0  0  0  0  0  0  0  0
  131.9600  126.1380   61.7040 F   0  0  0  0  0  0  0  0  0  0  0  0
  133.5140  124.6540   61.7890 F   0  0  0  0  0  0  0  0  0  0  0  0
  131.4430  124.1000   62.1520 F   0  0  0  0  0  0  0  0  0  0  0  0
  131.5800  125.8040   64.7220 C   0  0  0  0  0  0  0  0  0  0  0  0
  130.2240  126.2500   64.5130 C   0  0  0  0  0  0  0  0  0  0  0  0
  129.6150  126.2160   63.2840 N   0  0  0  0  0  0  0  0  0  0  0  0
  125.7060  129.0390   65.7580 C   0  0  0  0  0  0  0  0  0  0  0  0
  124.4950  129.6750   65.5000 C   0  0  0  0  0  0  0  0  0  0  0  0
  121.5019  130.8436   62.4043 H   0  0  0  0  0  0  0  0  0  0  0  0
  123.0823  131.5836   61.9784 H   0  0  0  0  0  0  0  0  0  0  0  0
  122.8981  129.7967   61.9784 H   0  0  0  0  0  0  0  0  0  0  0  0
  124.7933  130.0781   62.1250 H   0  0  0  0  0  0  0  0  0  0  0  0
  126.9528  128.9343   62.5793 H   0  0  0  0  0  0  0  0  0  0  0  0
  128.5400  128.3900   64.1890 H   0  0  0  0  0  0  0  0  0  0  0  0
  135.2843  124.7828   67.4960 H   0  0  0  0  0  0  0  0  0  0  0  0
  135.6670  123.7472   66.0790 H   0  0  0  0  0  0  0  0  0  0  0  0
  136.1402  125.4801   66.0790 H   0  0  0  0  0  0  0  0  0  0  0  0
  134.6056  124.5131   63.7774 H   0  0  0  0  0  0  0  0  0  0  0  0
  129.8140  126.9000   62.5690 H   0  0  0  0  0  0  0  0  0  0  0  0
  128.9440  125.4960   63.0520 H   0  0  0  0  0  0  0  0  0  0  0  0
  125.9599  128.7374   66.7849 H   0  0  0  0  0  0  0  0  0  0  0  0
  123.7976  129.8795   66.3257 H   0  0  0  0  0  0  0  0  0  0  0  0
  1  2  1  0
  2  3  1  0
  3  4  2  0
  4  5  1  0
  5  6  2  0
  6  7  1  0
  7  8  1  0
  8  9  2  0
  8 10  1  0
 10 11  1  0
 11 12  1  0
 12 13  2  0
 13 14  1  0
 14 15  1  0
 14 16  2  0
 16 17  1  0
 17 18  1  0
 18 19  1  0
 18 20  1  0
 18 21  1  0
 17 22  2  0
 22 23  1  0
 23 24  1  0
  6 25  1  0
 25 26  2  0
 26  3  1  0
 23 10  2  0
 22 12  1  0
  1 27  1  0
  1 28  1  0
  1 29  1  0
  4 30  1  0
  5 31  1  0
  7 32  1  0
 15 33  1  0
 15 34  1  0
 15 35  1  0
 16 36  1  0
 24 37  1  0
 24 38  1  0
 25 39  1  0
 26 40  1  0
M  END
>  <Binding energies>  (1) 
[-6.32]

>  <Ligand effiencies>  (1) 
[-0.21793103448275863]

>  <Interactions>  (1) 
["V-A:ARG:545:CD:4918, H-A:TYR:484:OH:4343, V-A:ARG:545:CZ:4921, V-A:ARG:545:CG:4917, V-A:ASP:366:CG:3208, V-B:GLU:543:CG:9875, V-A:HIS:456:CE1:4064, V-B:HIS:456:CE1:9037, V-A:GLY:454:CA:4044, V-B:GLU:543:CD:9876, V-B:GLU:543:CB:9874, H-B:GLU:543:OE2:9878, V-B:ARG:545:CZ:9894, V-B:ARG:545:CD:9891, H-B:GLY:454:N:9017, V-A:HIS:456:CD2:4063, V-A:GLY:453:C:4037, V-A:GLY:453:CA:4039, H-A:HIS:456:NE2:4065, H-A:ARG:545:NE:4919, V-B:ILE:369:CD1:8206, H-B:ARG:545:NH1:9895, V-B:GLY:453:CA:9011, V-B:GLY:453:C:9009, V-A:ILE:455:C:4047, V-A:GLY:454:C:4042"]

$$$$
4bd_Grossjean_2025
     RDKit          3D

 36 38  0  0  0  0  0  0  0  0999 V2000
  135.5250  125.1150   66.5290 C   0  0  0  0  0  0  0  0  0  0  0  0
  134.2610  125.1090   65.6890 C   0  0  0  0  0  0  0  0  0  0  0  0
  133.0270  125.4370   66.2450 C   0  0  0  0  0  0  0  0  0  0  0  0
  131.8660  125.4250   65.4570 C   0  0  0  0  0  0  0  0  0  0  0  0
  130.5300  125.7890   66.1140 C   0  0  0  0  0  0  0  0  0  0  0  0
  129.8310  126.6860   65.4130 F   0  0  0  0  0  0  0  0  0  0  0  0
  129.7740  124.6990   66.2340 F   0  0  0  0  0  0  0  0  0  0  0  0
  130.7490  126.3100   67.3210 F   0  0  0  0  0  0  0  0  0  0  0  0
  132.0130  125.0690   64.0830 C   0  0  0  0  0  0  0  0  0  0  0  0
  131.0750  124.9510   62.9930 C   0  0  0  0  0  0  0  0  0  0  0  0
  129.7360  125.2020   63.1410 N   0  0  0  0  0  0  0  0  0  0  0  0
  131.6560  124.5570   61.7760 C   0  0  0  0  0  0  0  0  0  0  0  0
  131.0010  124.3250   60.4850 C   0  0  0  0  0  0  0  0  0  0  0  0
  131.5630  124.6300   59.4320 O   0  0  0  0  0  0  0  0  0  0  0  0
  129.7730  123.7540   60.5500 N   0  0  0  0  0  0  0  0  0  0  0  0
  128.8750  123.4430   59.5120 C   0  0  0  0  0  0  0  0  0  0  0  0
  129.4370  122.8660   58.3690 C   0  0  0  0  0  0  0  0  0  0  0  0
  128.6300  122.5120   57.2910 C   0  0  0  0  0  0  0  0  0  0  0  0
  127.2560  122.7270   57.3580 C   0  0  0  0  0  0  0  0  0  0  0  0
  126.6820  123.2880   58.4970 C   0  0  0  0  0  0  0  0  0  0  0  0
  127.4860  123.6430   59.5760 C   0  0  0  0  0  0  0  0  0  0  0  0
  133.3940  124.3260   61.9440 S   0  0  0  0  0  0  0  0  0  0  0  0
  133.3340  124.7540   63.6380 C   0  0  0  0  0  0  0  0  0  0  0  0
  134.4330  124.7680   64.3910 N   0  0  0  0  0  0  0  0  0  0  0  0
  135.2564  125.1137   67.5957 H   0  0  0  0  0  0  0  0  0  0  0  0
  136.1216  124.2197   66.3001 H   0  0  0  0  0  0  0  0  0  0  0  0
  136.1131  126.0159   66.3001 H   0  0  0  0  0  0  0  0  0  0  0  0
  132.9620  125.7074   67.3093 H   0  0  0  0  0  0  0  0  0  0  0  0
  129.2450  125.8580   62.5490 H   0  0  0  0  0  0  0  0  0  0  0  0
  129.1870  124.7310   63.8480 H   0  0  0  0  0  0  0  0  0  0  0  0
  129.4510  123.4960   61.4710 H   0  0  0  0  0  0  0  0  0  0  0  0
  130.5219  122.6909   58.3213 H   0  0  0  0  0  0  0  0  0  0  0  0
  129.0759  122.0645   56.3905 H   0  0  0  0  0  0  0  0  0  0  0  0
  126.6185  122.4518   56.5049 H   0  0  0  0  0  0  0  0  0  0  0  0
  125.5950  123.4500   58.5432 H   0  0  0  0  0  0  0  0  0  0  0  0
  127.0340  124.0800   60.4786 H   0  0  0  0  0  0  0  0  0  0  0  0
  1  2  1  0
  2  3  2  0
  3  4  1  0
  4  5  1  0
  5  6  1  0
  5  7  1  0
  5  8  1  0
  4  9  2  0
  9 10  1  0
 10 11  1  0
 10 12  2  0
 12 13  1  0
 13 14  2  0
 13 15  1  0
 15 16  1  0
 16 17  2  0
 17 18  1  0
 18 19  2  0
 19 20  1  0
 20 21  2  0
 12 22  1  0
 22 23  1  0
 23 24  2  0
 24  2  1  0
 23  9  1  0
 21 16  1  0
  1 25  1  0
  1 26  1  0
  1 27  1  0
  3 28  1  0
 11 29  1  0
 11 30  1  0
 15 31  1  0
 17 32  1  0
 18 33  1  0
 19 34  1  0
 20 35  1  0
 21 36  1  0
M  END
>  <Binding energies>  (1) 
[-6.17]

>  <Ligand effiencies>  (1) 
[-0.2285185185185185]

>  <Interactions>  (1) 
["V-A:ARG:545:CD:4918, H-A:TYR:484:OH:4343, V-A:ARG:545:CZ:4921, V-A:ARG:545:CG:4917, H-A:GLY:454:N:4045, V-A:ASP:366:CG:3208, V-A:GLU:543:CD:4903, V-B:GLU:543:CG:9875, V-A:HIS:456:CE1:4064, V-B:GLU:543:CD:9876, V-B:GLU:543:CB:9874, H-B:GLU:543:OE2:9878, V-B:TYR:539:CD2:9842, V-A:TYR:484:CE1:4340, V-B:TYR:539:CE2:9844, V-A:HIS:456:CD2:4063, V-A:GLY:453:C:4037, V-A:GLY:453:CA:4039, V-B:PRO:540:CB:9853, V-B:PRO:540:CA:9851, V-B:TYR:539:C:9835, H-A:ARG:545:NH1:4922, V-B:PRO:540:N:9852, V-B:TYR:539:CZ:9845, V-B:MET:535:CE:9803, V-A:ILE:455:C:4047, V-B:TYR:539:CE1:9843, V-B:TYR:539:CG:9840, V-B:TYR:539:CD1:9841"]

$$$$
4be_Grossjean_2025
     RDKit          3D

 38 40  0  0  0  0  0  0  0  0999 V2000
  123.0230  130.0150   66.9960 C   0  0  0  0  0  0  0  0  0  0  0  0
  123.8330  129.7550   65.7400 C   0  0  0  0  0  0  0  0  0  0  0  0
  123.3700  130.1410   64.4800 C   0  0  0  0  0  0  0  0  0  0  0  0
  124.1670  129.8670   63.3670 C   0  0  0  0  0  0  0  0  0  0  0  0
  125.3930  129.2200   63.5390 C   0  0  0  0  0  0  0  0  0  0  0  0
  125.7990  128.8660   64.8310 C   0  0  0  0  0  0  0  0  0  0  0  0
  127.0390  128.2110   64.9350 N   0  0  0  0  0  0  0  0  0  0  0  0
  127.5580  127.5320   65.9890 C   0  0  0  0  0  0  0  0  0  0  0  0
  126.9740  127.3820   67.0640 O   0  0  0  0  0  0  0  0  0  0  0  0
  128.9030  126.9860   65.7850 C   0  0  0  0  0  0  0  0  0  0  0  0
  129.9250  126.6100   67.1710 S   0  0  0  0  0  0  0  0  0  0  0  0
  131.2290  126.0960   66.1270 C   0  0  0  0  0  0  0  0  0  0  0  0
  132.3840  125.6550   66.6230 N   0  0  0  0  0  0  0  0  0  0  0  0
  133.3170  125.2840   65.7160 C   0  0  0  0  0  0  0  0  0  0  0  0
  134.6260  124.7870   66.3020 C   0  0  0  0  0  0  0  0  0  0  0  0
  133.1230  125.3410   64.3390 C   0  0  0  0  0  0  0  0  0  0  0  0
  131.9090  125.8040   63.8100 C   0  0  0  0  0  0  0  0  0  0  0  0
  131.7410  125.8450   62.2870 C   0  0  0  0  0  0  0  0  0  0  0  0
  130.6450  125.2090   61.8650 F   0  0  0  0  0  0  0  0  0  0  0  0
  131.6490  127.1100   61.8770 F   0  0  0  0  0  0  0  0  0  0  0  0
  132.7890  125.2670   61.7010 F   0  0  0  0  0  0  0  0  0  0  0  0
  130.9040  126.2080   64.7390 C   0  0  0  0  0  0  0  0  0  0  0  0
  129.5700  126.7300   64.5770 C   0  0  0  0  0  0  0  0  0  0  0  0
  129.0040  126.9490   63.3460 N   0  0  0  0  0  0  0  0  0  0  0  0
  125.0220  129.1260   65.9230 N   0  0  0  0  0  0  0  0  0  0  0  0
  123.6448  129.8154   67.8812 H   0  0  0  0  0  0  0  0  0  0  0  0
  122.6929  131.0642   67.0088 H   0  0  0  0  0  0  0  0  0  0  0  0
  122.1439  129.3539   67.0088 H   0  0  0  0  0  0  0  0  0  0  0  0
  122.4007  130.6487   64.3674 H   0  0  0  0  0  0  0  0  0  0  0  0
  123.8316  130.1588   62.3608 H   0  0  0  0  0  0  0  0  0  0  0  0
  126.0301  128.9920   62.6718 H   0  0  0  0  0  0  0  0  0  0  0  0
  127.6310  128.2990   64.1220 H   0  0  0  0  0  0  0  0  0  0  0  0
  134.5679  124.8091   67.4002 H   0  0  0  0  0  0  0  0  0  0  0  0
  134.8106  123.7562   65.9652 H   0  0  0  0  0  0  0  0  0  0  0  0
  135.4482  125.4355   65.9652 H   0  0  0  0  0  0  0  0  0  0  0  0
  133.9274  125.0207   63.6605 H   0  0  0  0  0  0  0  0  0  0  0  0
  128.2800  126.3510   62.9760 H   0  0  0  0  0  0  0  0  0  0  0  0
  129.3020  127.7170   62.7610 H   0  0  0  0  0  0  0  0  0  0  0  0
  1  2  1  0
  2  3  2  0
  3  4  1  0
  4  5  2  0
  5  6  1  0
  6  7  1  0
  7  8  1  0
  8  9  2  0
  8 10  1  0
 10 11  1  0
 11 12  1  0
 12 13  2  0
 13 14  1  0
 14 15  1  0
 14 16  2  0
 16 17  1  0
 17 18  1  0
 18 19  1  0
 18 20  1  0
 18 21  1  0
 17 22  2  0
 22 23  1  0
 23 24  1  0
  6 25  2  0
 25  2  1  0
 23 10  2  0
 22 12  1  0
  1 26  1  0
  1 27  1  0
  1 28  1  0
  3 29  1  0
  4 30  1  0
  5 31  1  0
  7 32  1  0
 15 33  1  0
 15 34  1  0
 15 35  1  0
 16 36  1  0
 24 37  1  0
 24 38  1  0
M  END
>  <Binding energies>  (1) 
[-6.35]

>  <Ligand effiencies>  (1) 
[-0.22678571428571428]

>  <Interactions>  (1) 
["V-A:ARG:545:CD:4918, H-A:TYR:484:OH:4343, V-A:ARG:545:CZ:4921, V-A:ARG:545:CG:4917, V-A:ASP:366:CG:3208, V-A:GLU:543:CD:4903, V-B:GLU:543:CG:9875, V-A:HIS:456:CE1:4064, V-B:HIS:456:CE1:9037, V-A:GLY:454:CA:4044, V-B:GLU:543:CD:9876, V-B:GLU:543:CB:9874, H-B:GLU:543:OE2:9878, H-B:GLU:543:OE1:9877, V-B:ARG:545:CZ:9894, V-B:ARG:545:CD:9891, V-B:ARG:545:CG:9890, V-A:HIS:456:CD2:4063, V-A:GLY:453:C:4037, V-A:GLY:453:CA:4039, H-A:HIS:456:NE2:4065, H-B:ARG:545:NE:9892, V-B:GLY:453:CA:9011, V-B:GLY:453:C:9009, V-B:ARG:545:CB:9889, V-B:ILE:455:C:9019"]

$$$$
4bf_Grossjean_2025
     RDKit          3D

 35 37  0  0  0  0  0  0  0  0999 V2000
  133.8570  123.1140   58.5840 C   0  0  0  0  0  0  0  0  0  0  0  0
  132.9640  123.1200   59.8120 C   0  0  0  0  0  0  0  0  0  0  0  0
  131.8890  122.2420   59.9220 C   0  0  0  0  0  0  0  0  0  0  0  0
  131.0690  122.2620   61.0610 C   0  0  0  0  0  0  0  0  0  0  0  0
  129.8960  121.2780   61.1360 C   0  0  0  0  0  0  0  0  0  0  0  0
  128.7260  121.8780   61.3670 F   0  0  0  0  0  0  0  0  0  0  0  0
  129.7860  120.6180   59.9840 F   0  0  0  0  0  0  0  0  0  0  0  0
  130.1000  120.4080   62.1260 F   0  0  0  0  0  0  0  0  0  0  0  0
  131.3880  123.2090   62.0790 C   0  0  0  0  0  0  0  0  0  0  0  0
  130.7910  123.5170   63.3550 C   0  0  0  0  0  0  0  0  0  0  0  0
  129.6910  122.8540   63.8360 N   0  0  0  0  0  0  0  0  0  0  0  0
  131.4370  124.5480   64.0580 C   0  0  0  0  0  0  0  0  0  0  0  0
  131.0810  125.1310   65.3550 C   0  0  0  0  0  0  0  0  0  0  0  0
  131.9150  125.2040   66.2590 O   0  0  0  0  0  0  0  0  0  0  0  0
  129.8060  125.5790   65.4610 N   0  0  0  0  0  0  0  0  0  0  0  0
  129.1420  126.1380   66.5690 C   0  0  0  0  0  0  0  0  0  0  0  0
  128.0700  127.0460   66.5030 C   0  0  0  0  0  0  0  0  0  0  0  0
  127.5090  127.5390   67.6830 C   0  0  0  0  0  0  0  0  0  0  0  0
  128.0370  127.1140   68.9030 C   0  0  0  0  0  0  0  0  0  0  0  0
  129.0740  126.2450   68.9930 N   0  0  0  0  0  0  0  0  0  0  0  0
  129.6100  125.7750   67.8370 C   0  0  0  0  0  0  0  0  0  0  0  0
  132.8110  125.1740   63.1500 S   0  0  0  0  0  0  0  0  0  0  0  0
  132.5180  124.0520   61.8420 C   0  0  0  0  0  0  0  0  0  0  0  0
  133.2940  124.0290   60.7590 N   0  0  0  0  0  0  0  0  0  0  0  0
  134.9114  123.1069   58.8974 H   0  0  0  0  0  0  0  0  0  0  0  0
  133.6472  122.2172   57.9825 H   0  0  0  0  0  0  0  0  0  0  0  0
  133.6593  124.0135   57.9825 H   0  0  0  0  0  0  0  0  0  0  0  0
  131.6810  121.5282   59.1113 H   0  0  0  0  0  0  0  0  0  0  0  0
  129.7490  121.9110   64.1920 H   0  0  0  0  0  0  0  0  0  0  0  0
  128.7790  123.2900   63.8500 H   0  0  0  0  0  0  0  0  0  0  0  0
  129.2420  125.5130   64.6260 H   0  0  0  0  0  0  0  0  0  0  0  0
  127.6756  127.3661   65.5273 H   0  0  0  0  0  0  0  0  0  0  0  0
  126.6683  128.2477   67.6516 H   0  0  0  0  0  0  0  0  0  0  0  0
  127.5926  127.5008   69.8319 H   0  0  0  0  0  0  0  0  0  0  0  0
  130.4548  125.0734   67.9006 H   0  0  0  0  0  0  0  0  0  0  0  0
  1  2  1  0
  2  3  2  0
  3  4  1  0
  4  5  1  0
  5  6  1  0
  5  7  1  0
  5  8  1  0
  4  9  2  0
  9 10  1  0
 10 11  1  0
 10 12  2  0
 12 13  1  0
 13 14  2  0
 13 15  1  0
 15 16  1  0
 16 17  2  0
 17 18  1  0
 18 19  2  0
 19 20  1  0
 20 21  2  0
 12 22  1  0
 22 23  1  0
 23 24  2  0
 24  2  1  0
 23  9  1  0
 21 16  1  0
  1 25  1  0
  1 26  1  0
  1 27  1  0
  3 28  1  0
 11 29  1  0
 11 30  1  0
 15 31  1  0
 17 32  1  0
 18 33  1  0
 19 34  1  0
 21 35  1  0
M  END
>  <Binding energies>  (1) 
[-5.67]

>  <Ligand effiencies>  (1) 
[-0.21]

>  <Interactions>  (1) 
["H-A:TYR:484:OH:4343, V-A:ARG:545:CZ:4921, V-B:GLU:543:CG:9875, V-A:HIS:456:CE1:4064, V-B:HIS:456:CE1:9037, V-B:GLU:543:CD:9876, V-B:GLU:543:CB:9874, H-B:GLU:543:OE2:9878, V-A:LEU:475:CD2:4254, V-B:TYR:539:CD2:9842, V-A:LEU:475:CD1:4253, V-B:TYR:539:CE2:9844, V-B:ALA:541:CB:9860, V-A:ASP:366:CB:3207, V-A:ILE:369:CD1:3234, H-A:HIS:456:NE2:4065, V-B:PRO:540:CA:9851, V-A:ILE:369:CG2:3232, V-B:PRO:540:C:9849, V-B:ALA:541:CA:9858, V-B:TYR:539:C:9835, V-A:ILE:369:CB:3231, V-A:ASP:366:CA:3205, V-A:ILE:369:CG1:3233"]

$$$$
4bg_Grossjean_2025
     RDKit          3D

 39 41  0  0  0  0  0  0  0  0999 V2000
  135.5350  125.1260   66.5210 C   0  0  0  0  0  0  0  0  0  0  0  0
  134.2730  125.1260   65.6770 C   0  0  0  0  0  0  0  0  0  0  0  0
  133.0460  125.4900   66.2230 C   0  0  0  0  0  0  0  0  0  0  0  0
  131.8850  125.4800   65.4330 C   0  0  0  0  0  0  0  0  0  0  0  0
  130.5560  125.8880   66.0770 C   0  0  0  0  0  0  0  0  0  0  0  0
  129.8790  126.7830   65.3550 F   0  0  0  0  0  0  0  0  0  0  0  0
  129.7760  124.8160   66.2180 F   0  0  0  0  0  0  0  0  0  0  0  0
  130.7820  126.4290   67.2740 F   0  0  0  0  0  0  0  0  0  0  0  0
  132.0290  125.0870   64.0690 C   0  0  0  0  0  0  0  0  0  0  0  0
  131.0900  124.9520   62.9820 C   0  0  0  0  0  0  0  0  0  0  0  0
  129.7480  125.2030   63.1240 N   0  0  0  0  0  0  0  0  0  0  0  0
  131.6720  124.5500   61.7700 C   0  0  0  0  0  0  0  0  0  0  0  0
  131.0190  124.2880   60.4880 C   0  0  0  0  0  0  0  0  0  0  0  0
  131.5260  124.6450   59.4230 O   0  0  0  0  0  0  0  0  0  0  0  0
  129.8580  123.6020   60.5450 N   0  0  0  0  0  0  0  0  0  0  0  0
  129.0270  123.2410   59.3970 C   0  0  0  0  0  0  0  0  0  0  0  0
  127.5380  123.4550   59.6300 C   0  0  0  0  0  0  0  0  0  0  0  0
  127.0200  123.4230   60.9290 C   0  0  0  0  0  0  0  0  0  0  0  0
  125.6640  123.6570   61.1430 C   0  0  0  0  0  0  0  0  0  0  0  0
  124.8320  123.9360   60.0600 C   0  0  0  0  0  0  0  0  0  0  0  0
  125.3440  123.9870   58.7660 C   0  0  0  0  0  0  0  0  0  0  0  0
  126.7000  123.7510   58.5510 C   0  0  0  0  0  0  0  0  0  0  0  0
  133.4050  124.2880   61.9460 S   0  0  0  0  0  0  0  0  0  0  0  0
  133.3460  124.7440   63.6320 C   0  0  0  0  0  0  0  0  0  0  0  0
  134.4440  124.7530   64.3880 N   0  0  0  0  0  0  0  0  0  0  0  0
  135.8398  124.0889   66.7248 H   0  0  0  0  0  0  0  0  0  0  0  0
  136.3391  125.6445   65.9783 H   0  0  0  0  0  0  0  0  0  0  0  0
  135.3405  125.6445   67.4714 H   0  0  0  0  0  0  0  0  0  0  0  0
  132.9850  125.7875   67.2802 H   0  0  0  0  0  0  0  0  0  0  0  0
  129.2820  125.1290   64.0160 H   0  0  0  0  0  0  0  0  0  0  0  0
  129.1760  125.4630   62.3320 H   0  0  0  0  0  0  0  0  0  0  0  0
  129.4620  123.4120   61.4550 H   0  0  0  0  0  0  0  0  0  0  0  0
  129.3360  123.8543   58.5377 H   0  0  0  0  0  0  0  0  0  0  0  0
  129.1738  122.1656   59.2185 H   0  0  0  0  0  0  0  0  0  0  0  0
  127.6834  123.2131   61.7810 H   0  0  0  0  0  0  0  0  0  0  0  0
  125.2513  123.6218   62.1621 H   0  0  0  0  0  0  0  0  0  0  0  0
  123.7604  124.1177   60.2292 H   0  0  0  0  0  0  0  0  0  0  0  0
  124.6810  124.2125   57.9178 H   0  0  0  0  0  0  0  0  0  0  0  0
  127.1114  123.7976   57.5319 H   0  0  0  0  0  0  0  0  0  0  0  0
  1  2  1  0
  2  3  2  0
  3  4  1  0
  4  5  1  0
  5  6  1  0
  5  7  1  0
  5  8  1  0
  4  9  2  0
  9 10  1  0
 10 11  1  0
 10 12  2  0
 12 13  1  0
 13 14  2  0
 13 15  1  0
 15 16  1  0
 16 17  1  0
 17 18  2  0
 18 19  1  0
 19 20  2  0
 20 21  1  0
 21 22  2  0
 12 23  1  0
 23 24  1  0
 24 25  2  0
 25  2  1  0
 24  9  1  0
 22 17  1  0
  1 26  1  0
  1 27  1  0
  1 28  1  0
  3 29  1  0
 11 30  1  0
 11 31  1  0
 15 32  1  0
 16 33  1  0
 16 34  1  0
 18 35  1  0
 19 36  1  0
 20 37  1  0
 21 38  1  0
 22 39  1  0
M  END
>  <Binding energies>  (1) 
[-6.43]

>  <Ligand effiencies>  (1) 
[-0.22964285714285712]

>  <Interactions>  (1) 
["V-A:ARG:545:CD:4918, H-A:TYR:484:OH:4343, V-A:ARG:545:CZ:4921, V-A:ARG:545:CG:4917, H-A:GLY:454:N:4045, V-A:ASP:366:CG:3208, V-A:GLU:543:CD:4903, V-B:GLU:543:CG:9875, V-A:HIS:456:CE1:4064, V-B:GLU:543:CD:9876, V-B:GLU:543:CB:9874, H-B:GLU:543:OE2:9878, V-A:HIS:456:CD2:4063, V-A:GLY:453:C:4037, V-A:GLY:453:CA:4039, V-B:PRO:540:CB:9853, V-B:PRO:540:CA:9851, H-A:ARG:545:NH1:4922, V-A:ILE:455:C:4047"]

$$$$
4bh_Grossjean_2025
     RDKit          3D

 51 53  0  0  0  0  0  0  0  0999 V2000
  129.7340  131.2980   73.5580 C   0  0  0  0  0  0  0  0  0  0  0  0
  129.7600  129.8810   73.6830 O   0  0  0  0  0  0  0  0  0  0  0  0
  129.5630  129.0960   72.5610 C   0  0  0  0  0  0  0  0  0  0  0  0
  129.5490  129.5950   71.2490 C   0  0  0  0  0  0  0  0  0  0  0  0
  129.3420  128.7440   70.1620 C   0  0  0  0  0  0  0  0  0  0  0  0
  129.3750  129.2960   68.7420 C   0  0  0  0  0  0  0  0  0  0  0  0
  129.6770  128.2840   67.7290 N   0  0  0  0  0  0  0  0  0  0  0  0
  128.8990  127.2250   67.4250 C   0  0  0  0  0  0  0  0  0  0  0  0
  127.8460  126.9840   68.0200 O   0  0  0  0  0  0  0  0  0  0  0  0
  129.3980  126.3430   66.3700 C   0  0  0  0  0  0  0  0  0  0  0  0
  129.8500  124.6840   66.7500 S   0  0  0  0  0  0  0  0  0  0  0  0
  130.3340  124.3920   65.0960 C   0  0  0  0  0  0  0  0  0  0  0  0
  130.8060  123.2080   64.7080 N   0  0  0  0  0  0  0  0  0  0  0  0
  131.1450  123.1020   63.4030 C   0  0  0  0  0  0  0  0  0  0  0  0
  131.6820  121.7450   62.9830 C   0  0  0  0  0  0  0  0  0  0  0  0
  131.0220  124.1400   62.4830 C   0  0  0  0  0  0  0  0  0  0  0  0
  130.5260  125.3910   62.8860 C   0  0  0  0  0  0  0  0  0  0  0  0
  130.4060  126.5030   61.8380 C   0  0  0  0  0  0  0  0  0  0  0  0
  129.1670  126.9860   61.7280 F   0  0  0  0  0  0  0  0  0  0  0  0
  131.2030  127.5190   62.1660 F   0  0  0  0  0  0  0  0  0  0  0  0
  130.7610  126.0340   60.6420 F   0  0  0  0  0  0  0  0  0  0  0  0
  130.1630  125.5370   64.2570 C   0  0  0  0  0  0  0  0  0  0  0  0
  129.6370  126.6420   65.0200 C   0  0  0  0  0  0  0  0  0  0  0  0
  129.3880  127.8730   64.4700 N   0  0  0  0  0  0  0  0  0  0  0  0
  129.1760  127.3760   70.3830 C   0  0  0  0  0  0  0  0  0  0  0  0
  129.1780  126.8500   71.6840 C   0  0  0  0  0  0  0  0  0  0  0  0
  129.0050  125.5090   71.9760 O   0  0  0  0  0  0  0  0  0  0  0  0
  129.7860  124.5390   71.2860 C   0  0  0  0  0  0  0  0  0  0  0  0
  129.3670  127.7230   72.7650 C   0  0  0  0  0  0  0  0  0  0  0  0
  129.3900  127.2190   74.0450 O   0  0  0  0  0  0  0  0  0  0  0  0
  130.4990  126.3720   74.3120 C   0  0  0  0  0  0  0  0  0  0  0  0
  129.7256  131.7543   74.5589 H   0  0  0  0  0  0  0  0  0  0  0  0
  130.6261  131.6341   73.0092 H   0  0  0  0  0  0  0  0  0  0  0  0
  128.8301  131.6012   73.0092 H   0  0  0  0  0  0  0  0  0  0  0  0
  129.7031  130.6702   71.0753 H   0  0  0  0  0  0  0  0  0  0  0  0
  128.3912  129.7328   68.5153 H   0  0  0  0  0  0  0  0  0  0  0  0
  130.1818  130.0427   68.7039 H   0  0  0  0  0  0  0  0  0  0  0  0
  130.4820  128.4670   67.1470 H   0  0  0  0  0  0  0  0  0  0  0  0
  131.9172  121.1507   63.8782 H   0  0  0  0  0  0  0  0  0  0  0  0
  130.9238  121.2202   62.3833 H   0  0  0  0  0  0  0  0  0  0  0  0
  132.5940  121.8812   62.3833 H   0  0  0  0  0  0  0  0  0  0  0  0
  131.3148  123.9795   61.4349 H   0  0  0  0  0  0  0  0  0  0  0  0
  128.4600  128.1500   64.1800 H   0  0  0  0  0  0  0  0  0  0  0  0
  130.1280  128.5450   64.3280 H   0  0  0  0  0  0  0  0  0  0  0  0
  129.0417  126.7005   69.5253 H   0  0  0  0  0  0  0  0  0  0  0  0
  130.3024  123.8977   72.0155 H   0  0  0  0  0  0  0  0  0  0  0  0
  129.1300  123.9217   70.6547 H   0  0  0  0  0  0  0  0  0  0  0  0
  130.5291  125.0482   70.6547 H   0  0  0  0  0  0  0  0  0  0  0  0
  130.6303  126.2717   75.3995 H   0  0  0  0  0  0  0  0  0  0  0  0
  130.3175  125.3805   73.8716 H   0  0  0  0  0  0  0  0  0  0  0  0
  131.4078  126.8080   73.8716 H   0  0  0  0  0  0  0  0  0  0  0  0
  1  2  1  0
  2  3  1  0
  3  4  2  0
  4  5  1  0
  5  6  1  0
  6  7  1  0
  7  8  1  0
  8  9  2  0
  8 10  1  0
 10 11  1  0
 11 12  1  0
 12 13  2  0
 13 14  1  0
 14 15  1  0
 14 16  2  0
 16 17  1  0
 17 18  1  0
 18 19  1  0
 18 20  1  0
 18 21  1  0
 17 22  2  0
 22 23  1  0
 23 24  1  0
  5 25  2  0
 25 26  1  0
 26 27  1  0
 27 28  1  0
 26 29  2  0
 29 30  1  0
 30 31  1  0
 29  3  1  0
 23 10  2  0
 22 12  1  0
  1 32  1  0
  1 33  1  0
  1 34  1  0
  4 35  1  0
  6 36  1  0
  6 37  1  0
  7 38  1  0
 15 39  1  0
 15 40  1  0
 15 41  1  0
 16 42  1  0
 24 43  1  0
 24 44  1  0
 25 45  1  0
 28 46  1  0
 28 47  1  0
 28 48  1  0
 31 49  1  0
 31 50  1  0
 31 51  1  0
M  END
>  <Binding energies>  (1) 
[-6.35]

>  <Ligand effiencies>  (1) 
[-0.18676470588235294]

>  <Interactions>  (1) 
["H-A:TYR:484:OH:4343, H-A:GLU:543:OE2:4905, V-A:GLU:543:CD:4903, V-A:GLU:543:CG:4902, V-A:GLU:543:CB:4901, V-B:GLU:543:CG:9875, V-A:GLU:543:CA:4899, V-A:HIS:456:CE1:4064, V-B:HIS:456:CE1:9037, H-A:GLU:543:OE1:4904, V-B:GLU:543:CD:9876, V-A:GLU:543:C:4897, V-B:GLU:543:CB:9874, H-B:GLU:543:OE2:9878, V-A:LEU:475:CD2:4254, V-A:TYR:484:CE1:4340, V-B:GLU:543:C:9870, V-B:GLU:543:CA:9872, H-B:LYS:547:NZ:9919, V-B:HIS:456:CD2:9035, H-A:LYS:547:NZ:4946, V-B:LYS:547:CE:9918, V-A:LYS:547:CE:4945"]

$$$$
4bi_Grossjean_2025
     RDKit          3D

 32 34  0  0  0  0  0  0  0  0999 V2000
  134.1750  125.4920   75.7400 C   0  0  0  0  0  0  0  0  0  0  0  0
  133.0190  125.2830   74.7790 C   0  0  0  0  0  0  0  0  0  0  0  0
  132.2520  126.3580   74.3360 C   0  0  0  0  0  0  0  0  0  0  0  0
  131.1880  126.1510   73.4430 C   0  0  0  0  0  0  0  0  0  0  0  0
  130.3770  127.3640   72.9770 C   0  0  0  0  0  0  0  0  0  0  0  0
  129.8990  127.2300   71.7380 F   0  0  0  0  0  0  0  0  0  0  0  0
  129.3350  127.5490   73.7880 F   0  0  0  0  0  0  0  0  0  0  0  0
  131.1450  128.4540   72.9930 F   0  0  0  0  0  0  0  0  0  0  0  0
  130.9380  124.8090   73.0250 C   0  0  0  0  0  0  0  0  0  0  0  0
  129.9590  124.2230   72.1440 C   0  0  0  0  0  0  0  0  0  0  0  0
  128.9990  124.9640   71.5040 N   0  0  0  0  0  0  0  0  0  0  0  0
  130.0810  122.8310   71.9950 C   0  0  0  0  0  0  0  0  0  0  0  0
  129.2550  121.9220   71.1960 C   0  0  0  0  0  0  0  0  0  0  0  0
  129.0290  122.1570   70.0070 O   0  0  0  0  0  0  0  0  0  0  0  0
  128.7930  120.8270   71.8510 N   0  0  0  0  0  0  0  0  0  0  0  0
  128.0050  119.8050   71.3380 C   0  0  0  0  0  0  0  0  0  0  0  0
  127.2420  118.9570   72.1390 C   0  0  0  0  0  0  0  0  0  0  0  0
  126.6210  118.0970   71.2620 C   0  0  0  0  0  0  0  0  0  0  0  0
  126.9910  118.4120   69.9970 O   0  0  0  0  0  0  0  0  0  0  0  0
  127.8700  119.4960   70.0590 N   0  0  0  0  0  0  0  0  0  0  0  0
  131.4070  122.2000   72.9700 S   0  0  0  0  0  0  0  0  0  0  0  0
  131.8000  123.8000   73.5530 C   0  0  0  0  0  0  0  0  0  0  0  0
  132.8090  124.0020   74.4000 N   0  0  0  0  0  0  0  0  0  0  0  0
  133.8081  125.4257   76.7749 H   0  0  0  0  0  0  0  0  0  0  0  0
  134.9372  124.7171   75.5708 H   0  0  0  0  0  0  0  0  0  0  0  0
  134.6176  126.4847   75.5708 H   0  0  0  0  0  0  0  0  0  0  0  0
  132.4810  127.3748   74.6876 H   0  0  0  0  0  0  0  0  0  0  0  0
  129.2010  125.4860   70.6620 H   0  0  0  0  0  0  0  0  0  0  0  0
  128.0540  125.0180   71.8560 H   0  0  0  0  0  0  0  0  0  0  0  0
  129.0520  120.7300   72.8220 H   0  0  0  0  0  0  0  0  0  0  0  0
  127.1550  118.9719   73.2354 H   0  0  0  0  0  0  0  0  0  0  0  0
  125.9347  117.2846   71.5428 H   0  0  0  0  0  0  0  0  0  0  0  0
  1  2  1  0
  2  3  2  0
  3  4  1  0
  4  5  1  0
  5  6  1  0
  5  7  1  0
  5  8  1  0
  4  9  2  0
  9 10  1  0
 10 11  1  0
 10 12  2  0
 12 13  1  0
 13 14  2  0
 13 15  1  0
 15 16  1  0
 16 17  1  0
 17 18  2  0
 18 19  1  0
 19 20  1  0
 12 21  1  0
 21 22  1  0
 22 23  2  0
 23  2  1  0
 22  9  1  0
 20 16  2  0
  1 24  1  0
  1 25  1  0
  1 26  1  0
  3 27  1  0
 11 28  1  0
 11 29  1  0
 15 30  1  0
 17 31  1  0
 18 32  1  0
M  END
>  <Binding energies>  (1) 
[-6.02]

>  <Ligand effiencies>  (1) 
[-0.23153846153846153]

>  <Interactions>  (1) 
["V-A:GLY:544:C:4907, V-A:HIS:456:CE1:4064, V-B:GLU:543:C:9870, H-B:GLU:543:O:9871, V-A:TYR:484:CD1:4338, V-A:HIS:456:CG:4061, V-A:TYR:484:CB:4336, V-B:LYS:547:CE:9918, V-A:TYR:484:CG:4337, V-A:LYS:547:CE:4945, V-A:ASP:473:CG:4235, V-A:ASP:473:CB:4234, V-A:HIS:456:CB:4060, V-A:LYS:547:CD:4944, H-B:GLY:544:O:9881, V-A:VAL:458:CG2:4082, V-B:VAL:542:CG1:9867, H-A:TYR:484:N:4335, V-A:SER:483:CB:4328"]

$$$$
4bj_Grossjean_2025
     RDKit          3D

 32 34  0  0  0  0  0  0  0  0999 V2000
  135.5280  125.1290   66.5490 C   0  0  0  0  0  0  0  0  0  0  0  0
  134.2710  125.0940   65.6980 C   0  0  0  0  0  0  0  0  0  0  0  0
  133.0260  125.3920   66.2460 C   0  0  0  0  0  0  0  0  0  0  0  0
  131.8710  125.3490   65.4490 C   0  0  0  0  0  0  0  0  0  0  0  0
  130.5220  125.6830   66.0970 C   0  0  0  0  0  0  0  0  0  0  0  0
  130.6410  126.1280   67.3490 F   0  0  0  0  0  0  0  0  0  0  0  0
  129.9050  126.6300   65.3920 F   0  0  0  0  0  0  0  0  0  0  0  0
  129.7580  124.5910   66.1320 F   0  0  0  0  0  0  0  0  0  0  0  0
  132.0370  124.9940   64.0780 C   0  0  0  0  0  0  0  0  0  0  0  0
  131.1090  124.8450   62.9830 C   0  0  0  0  0  0  0  0  0  0  0  0
  129.7590  125.0450   63.1230 N   0  0  0  0  0  0  0  0  0  0  0  0
  131.7110  124.4860   61.7660 C   0  0  0  0  0  0  0  0  0  0  0  0
  131.0740  124.2430   60.4700 C   0  0  0  0  0  0  0  0  0  0  0  0
  131.6410  124.5540   59.4200 O   0  0  0  0  0  0  0  0  0  0  0  0
  129.8540  123.6540   60.5210 N   0  0  0  0  0  0  0  0  0  0  0  0
  129.0500  123.3070   59.4440 C   0  0  0  0  0  0  0  0  0  0  0  0
  129.4260  122.8730   58.2610 N   0  0  0  0  0  0  0  0  0  0  0  0
  128.3910  122.6340   57.4800 C   0  0  0  0  0  0  0  0  0  0  0  0
  127.1360  122.8790   58.0290 C   0  0  0  0  0  0  0  0  0  0  0  0
  127.3350  123.4540   59.6580 S   0  0  0  0  0  0  0  0  0  0  0  0
  133.4540  124.2980   61.9460 S   0  0  0  0  0  0  0  0  0  0  0  0
  133.3690  124.7160   63.6410 C   0  0  0  0  0  0  0  0  0  0  0  0
  134.4620  124.7560   64.4020 N   0  0  0  0  0  0  0  0  0  0  0  0
  135.2505  125.1213   67.6134 H   0  0  0  0  0  0  0  0  0  0  0  0
  136.1471  124.2477   66.3251 H   0  0  0  0  0  0  0  0  0  0  0  0
  136.0971  126.0433   66.3251 H   0  0  0  0  0  0  0  0  0  0  0  0
  132.9470  125.6626   67.3093 H   0  0  0  0  0  0  0  0  0  0  0  0
  129.2070  125.4880   62.4040 H   0  0  0  0  0  0  0  0  0  0  0  0
  129.2710  124.7580   63.9600 H   0  0  0  0  0  0  0  0  0  0  0  0
  129.4840  123.4320   61.4330 H   0  0  0  0  0  0  0  0  0  0  0  0
  128.5127  122.2618   56.4521 H   0  0  0  0  0  0  0  0  0  0  0  0
  126.1741  122.7327   57.5158 H   0  0  0  0  0  0  0  0  0  0  0  0
  1  2  1  0
  2  3  2  0
  3  4  1  0
  4  5  1  0
  5  6  1  0
  5  7  1  0
  5  8  1  0
  4  9  2  0
  9 10  1  0
 10 11  1  0
 10 12  2  0
 12 13  1  0
 13 14  2  0
 13 15  1  0
 15 16  1  0
 16 17  2  0
 17 18  1  0
 18 19  2  0
 19 20  1  0
 12 21  1  0
 21 22  1  0
 22 23  2  0
 23  2  1  0
 22  9  1  0
 20 16  1  0
  1 24  1  0
  1 25  1  0
  1 26  1  0
  3 27  1  0
 11 28  1  0
 11 29  1  0
 15 30  1  0
 18 31  1  0
 19 32  1  0
M  END
>  <Binding energies>  (1) 
[-5.61]

>  <Ligand effiencies>  (1) 
[-0.21576923076923077]

>  <Interactions>  (1) 
["V-A:ARG:545:CD:4918, H-A:TYR:484:OH:4343, V-A:ARG:545:CZ:4921, V-A:ARG:545:CG:4917, H-A:GLY:454:N:4045, V-A:ASP:366:CG:3208, V-A:GLU:543:CD:4903, V-B:GLU:543:CG:9875, V-A:HIS:456:CE1:4064, V-B:GLU:543:CD:9876, V-B:GLU:543:CB:9874, H-B:GLU:543:OE2:9878, V-B:TYR:539:CD2:9842, V-A:TYR:484:CE1:4340, V-B:TYR:539:CE2:9844, V-A:HIS:456:CD2:4063, V-A:GLY:453:C:4037, V-A:GLY:453:CA:4039, V-B:PRO:540:CA:9851, V-B:TYR:539:C:9835, H-A:ARG:545:NH1:4922, V-B:PRO:540:N:9852, V-B:TYR:539:CZ:9845, V-A:ILE:455:C:4047, V-A:ARG:545:CB:4916"]

$$$$
4bk_Grossjean_2025
     RDKit          3D

 50 51  0  0  0  0  0  0  0  0999 V2000
  133.3790  125.0510   63.4800 C   0  0  0  0  0  0  0  0  0  0  0  0
  134.1980  124.7260   64.5910 O   0  0  0  0  0  0  0  0  0  0  0  0
  133.8440  125.4220   65.7790 C   0  0  0  0  0  0  0  0  0  0  0  0
  132.3470  125.7580   65.7480 C   0  0  0  0  0  0  0  0  0  0  0  0
  131.6290  124.7850   66.4950 O   0  0  0  0  0  0  0  0  0  0  0  0
  130.2220  124.8370   66.3020 C   0  0  0  0  0  0  0  0  0  0  0  0
  129.5630  125.4780   67.5310 C   0  0  0  0  0  0  0  0  0  0  0  0
  128.8130  126.6140   67.1220 O   0  0  0  0  0  0  0  0  0  0  0  0
  129.5960  127.7890   66.9510 C   0  0  0  0  0  0  0  0  0  0  0  0
  130.5160  127.9710   68.1700 C   0  0  0  0  0  0  0  0  0  0  0  0
  129.8160  128.4280   69.3710 N   0  0  0  0  0  0  0  0  0  0  0  0
  130.3950  128.6720   70.5650 C   0  0  0  0  0  0  0  0  0  0  0  0
  131.6070  128.5450   70.7500 O   0  0  0  0  0  0  0  0  0  0  0  0
  129.5000  129.1080   71.6380 C   0  0  0  0  0  0  0  0  0  0  0  0
  127.9550  128.2990   71.8840 S   0  0  0  0  0  0  0  0  0  0  0  0
  127.5830  129.3270   73.2470 C   0  0  0  0  0  0  0  0  0  0  0  0
  126.4430  129.1990   73.9240 N   0  0  0  0  0  0  0  0  0  0  0  0
  126.2680  130.0510   74.9610 C   0  0  0  0  0  0  0  0  0  0  0  0
  124.9640  129.8850   75.7200 C   0  0  0  0  0  0  0  0  0  0  0  0
  127.1980  131.0190   75.3320 C   0  0  0  0  0  0  0  0  0  0  0  0
  128.4000  131.1610   74.6220 C   0  0  0  0  0  0  0  0  0  0  0  0
  129.3900  132.2430   75.0660 C   0  0  0  0  0  0  0  0  0  0  0  0
  129.8000  133.0190   74.0600 F   0  0  0  0  0  0  0  0  0  0  0  0
  128.8170  133.0330   75.9730 F   0  0  0  0  0  0  0  0  0  0  0  0
  130.4710  131.6750   75.5970 F   0  0  0  0  0  0  0  0  0  0  0  0
  128.6160  130.2760   73.5230 C   0  0  0  0  0  0  0  0  0  0  0  0
  129.7020  130.1220   72.5870 C   0  0  0  0  0  0  0  0  0  0  0  0
  130.8290  130.9020   72.6230 N   0  0  0  0  0  0  0  0  0  0  0  0
  132.4120  125.4347   63.8372 H   0  0  0  0  0  0  0  0  0  0  0  0
  133.8761  125.8200   62.8705 H   0  0  0  0  0  0  0  0  0  0  0  0
  133.2136  124.1504   62.8705 H   0  0  0  0  0  0  0  0  0  0  0  0
  134.0598  124.7895   66.6527 H   0  0  0  0  0  0  0  0  0  0  0  0
  134.4273  126.3521   65.8467 H   0  0  0  0  0  0  0  0  0  0  0  0
  132.1849  126.7525   66.1893 H   0  0  0  0  0  0  0  0  0  0  0  0
  131.9919  125.7574   64.7069 H   0  0  0  0  0  0  0  0  0  0  0  0
  129.9959  125.4380   65.4088 H   0  0  0  0  0  0  0  0  0  0  0  0
  129.8317  123.8177   66.1651 H   0  0  0  0  0  0  0  0  0  0  0  0
  128.8937  124.7491   68.0113 H   0  0  0  0  0  0  0  0  0  0  0  0
  130.3391  125.7866   68.2468 H   0  0  0  0  0  0  0  0  0  0  0  0
  130.2067  127.6939   66.0411 H   0  0  0  0  0  0  0  0  0  0  0  0
  128.9333  128.6619   66.8569 H   0  0  0  0  0  0  0  0  0  0  0  0
  130.9933  127.0052   68.3923 H   0  0  0  0  0  0  0  0  0  0  0  0
  131.2475  128.7496   67.9079 H   0  0  0  0  0  0  0  0  0  0  0  0
  128.8190  128.5510   69.2860 H   0  0  0  0  0  0  0  0  0  0  0  0
  125.1634  129.9104   76.8015 H   0  0  0  0  0  0  0  0  0  0  0  0
  124.2784  130.7031   75.4543 H   0  0  0  0  0  0  0  0  0  0  0  0
  124.5052  128.9212   75.4543 H   0  0  0  0  0  0  0  0  0  0  0  0
  126.9887  131.6772   76.1881 H   0  0  0  0  0  0  0  0  0  0  0  0
  130.8410  131.8430   72.2530 H   0  0  0  0  0  0  0  0  0  0  0  0
  131.6910  130.5620   73.0280 H   0  0  0  0  0  0  0  0  0  0  0  0
  1  2  1  0
  2  3  1  0
  3  4  1  0
  4  5  1  0
  5  6  1  0
  6  7  1  0
  7  8  1  0
  8  9  1  0
  9 10  1  0
 10 11  1  0
 11 12  1  0
 12 13  2  0
 12 14  1  0
 14 15  1  0
 15 16  1  0
 16 17  2  0
 17 18  1  0
 18 19  1  0
 18 20  2  0
 20 21  1  0
 21 22  1  0
 22 23  1  0
 22 24  1  0
 22 25  1  0
 21 26  2  0
 26 27  1  0
 27 28  1  0
 27 14  2  0
 26 16  1  0
  1 29  1  0
  1 30  1  0
  1 31  1  0
  3 32  1  0
  3 33  1  0
  4 34  1  0
  4 35  1  0
  6 36  1  0
  6 37  1  0
  7 38  1  0
  7 39  1  0
  9 40  1  0
  9 41  1  0
 10 42  1  0
 10 43  1  0
 11 44  1  0
 19 45  1  0
 19 46  1  0
 19 47  1  0
 20 48  1  0
 28 49  1  0
 28 50  1  0
M  END
>  <Binding energies>  (1) 
[-5.45]

>  <Ligand effiencies>  (1) 
[-0.17580645161290323]

>  <Interactions>  (1) 
["V-A:ARG:545:CD:4918, H-A:TYR:484:OH:4343, V-A:ARG:545:CZ:4921, V-A:ARG:545:CG:4917, H-A:GLY:454:N:4045, V-A:GLU:543:CD:4903, V-A:GLY:544:C:4907, V-A:GLU:543:CB:4901, V-B:GLU:543:CG:9875, V-A:HIS:456:CE1:4064, V-A:GLY:544:CA:4909, V-A:GLU:543:C:4897, V-B:GLU:543:CB:9874, V-A:TYR:484:CE1:4340, V-B:GLU:543:CA:9872, H-B:LYS:547:NZ:9919, V-B:HIS:456:CD2:9035, H-A:HIS:456:NE2:4065, H-A:GLU:543:O:4898, H-B:HIS:456:NE2:9038, V-B:HIS:456:CG:9033, V-B:HIS:456:CB:9032, V-A:LYS:547:CE:4945, H-A:GLY:544:O:4908, V-A:LYS:547:CD:4944, H-A:ARG:545:N:4915, V-B:VAL:458:CG2:9054"]

$$$$
4ca_Grossjean_2025
     RDKit          3D

 52 55  0  0  0  0  0  0  0  0999 V2000
  124.8130  129.3700   75.3230 C   0  0  0  0  0  0  0  0  0  0  0  0
  126.1740  129.9030   74.8650 C   0  0  0  0  0  0  0  0  0  0  0  0
  126.7830  128.9580   73.9950 O   0  0  0  0  0  0  0  0  0  0  0  0
  128.0530  129.1350   73.5450 C   0  0  0  0  0  0  0  0  0  0  0  0
  128.9210  129.7420   74.1800 O   0  0  0  0  0  0  0  0  0  0  0  0
  128.2960  128.5160   72.1990 C   0  0  0  0  0  0  0  0  0  0  0  0
  129.5750  128.5910   71.6330 C   0  0  0  0  0  0  0  0  0  0  0  0
  129.8330  128.0220   70.3880 C   0  0  0  0  0  0  0  0  0  0  0  0
  128.8180  127.3770   69.6820 C   0  0  0  0  0  0  0  0  0  0  0  0
  129.1910  126.8310   68.4380 N   0  0  0  0  0  0  0  0  0  0  0  0
  130.2190  127.1540   67.6160 C   0  0  0  0  0  0  0  0  0  0  0  0
  131.0710  128.0040   67.8760 O   0  0  0  0  0  0  0  0  0  0  0  0
  130.2800  126.3980   66.3630 C   0  0  0  0  0  0  0  0  0  0  0  0
  130.8650  124.7350   66.3590 S   0  0  0  0  0  0  0  0  0  0  0  0
  130.5820  124.5930   64.6400 C   0  0  0  0  0  0  0  0  0  0  0  0
  130.8480  123.4660   63.9850 N   0  0  0  0  0  0  0  0  0  0  0  0
  130.5830  123.4440   62.6530 C   0  0  0  0  0  0  0  0  0  0  0  0
  130.8840  122.1560   61.9440 C   0  0  0  0  0  0  0  0  0  0  0  0
  129.8800  121.1960   61.7390 C   0  0  0  0  0  0  0  0  0  0  0  0
  130.1550  119.9960   61.0870 C   0  0  0  0  0  0  0  0  0  0  0  0
  131.4430  119.7380   60.6290 C   0  0  0  0  0  0  0  0  0  0  0  0
  132.4570  120.6710   60.8210 C   0  0  0  0  0  0  0  0  0  0  0  0
  132.1780  121.8690   61.4730 C   0  0  0  0  0  0  0  0  0  0  0  0
  130.0740  124.5620   61.9830 C   0  0  0  0  0  0  0  0  0  0  0  0
  129.7940  125.7560   62.6640 C   0  0  0  0  0  0  0  0  0  0  0  0
  129.2340  126.9410   61.8680 C   0  0  0  0  0  0  0  0  0  0  0  0
  128.0560  127.3690   62.3260 F   0  0  0  0  0  0  0  0  0  0  0  0
  130.0820  127.9670   61.9290 F   0  0  0  0  0  0  0  0  0  0  0  0
  129.0610  126.5870   60.5940 F   0  0  0  0  0  0  0  0  0  0  0  0
  130.0520  125.7840   64.0640 C   0  0  0  0  0  0  0  0  0  0  0  0
  129.8870  126.8000   65.0750 C   0  0  0  0  0  0  0  0  0  0  0  0
  129.3920  128.0480   64.7970 N   0  0  0  0  0  0  0  0  0  0  0  0
  127.5350  127.2920   70.2420 C   0  0  0  0  0  0  0  0  0  0  0  0
  127.2800  127.8590   71.4890 C   0  0  0  0  0  0  0  0  0  0  0  0
  124.7760  129.3555   76.4223 H   0  0  0  0  0  0  0  0  0  0  0  0
  124.0153  130.0222   74.9378 H   0  0  0  0  0  0  0  0  0  0  0  0
  124.6703  128.3496   74.9378 H   0  0  0  0  0  0  0  0  0  0  0  0
  126.0348  130.8554   74.3326 H   0  0  0  0  0  0  0  0  0  0  0  0
  126.8190  130.0645   75.7413 H   0  0  0  0  0  0  0  0  0  0  0  0
  130.3826  129.1036   72.1762 H   0  0  0  0  0  0  0  0  0  0  0  0
  130.8441  128.0818   69.9589 H   0  0  0  0  0  0  0  0  0  0  0  0
  128.6000  126.0750   68.1260 H   0  0  0  0  0  0  0  0  0  0  0  0
  128.8598  121.3947   62.0991 H   0  0  0  0  0  0  0  0  0  0  0  0
  129.3564  119.2550   60.9348 H   0  0  0  0  0  0  0  0  0  0  0  0
  131.6608  118.7916   60.1125 H   0  0  0  0  0  0  0  0  0  0  0  0
  133.4748  120.4630   60.4592 H   0  0  0  0  0  0  0  0  0  0  0  0
  132.9831  122.6035   61.6224 H   0  0  0  0  0  0  0  0  0  0  0  0
  129.8897  124.5034   60.9001 H   0  0  0  0  0  0  0  0  0  0  0  0
  128.7080  128.2020   64.0690 H   0  0  0  0  0  0  0  0  0  0  0  0
  129.6950  128.8630   65.3150 H   0  0  0  0  0  0  0  0  0  0  0  0
  126.7299  126.7777   69.6967 H   0  0  0  0  0  0  0  0  0  0  0  0
  126.2709  127.7907   71.9215 H   0  0  0  0  0  0  0  0  0  0  0  0
  1  2  1  0
  2  3  1  0
  3  4  1  0
  4  5  2  0
  4  6  1  0
  6  7  2  0
  7  8  1  0
  8  9  2  0
  9 10  1  0
 10 11  1  0
 11 12  2  0
 11 13  1  0
 13 14  1  0
 14 15  1  0
 15 16  2  0
 16 17  1  0
 17 18  1  0
 18 19  2  0
 19 20  1  0
 20 21  2  0
 21 22  1  0
 22 23  2  0
 17 24  2  0
 24 25  1  0
 25 26  1  0
 26 27  1  0
 26 28  1  0
 26 29  1  0
 25 30  2  0
 30 31  1  0
 31 32  1  0
  9 33  1  0
 33 34  2  0
 34  6  1  0
 31 13  2  0
 30 15  1  0
 23 18  1  0
  1 35  1  0
  1 36  1  0
  1 37  1  0
  2 38  1  0
  2 39  1  0
  7 40  1  0
  8 41  1  0
 10 42  1  0
 19 43  1  0
 20 44  1  0
 21 45  1  0
 22 46  1  0
 23 47  1  0
 24 48  1  0
 32 49  1  0
 32 50  1  0
 33 51  1  0
 34 52  1  0
M  END
>  <Binding energies>  (1) 
[-7.17]

>  <Ligand effiencies>  (1) 
[-0.19378378378378378]

>  <Interactions>  (1) 
["H-A:TYR:484:OH:4343, H-A:GLU:543:OE2:4905, V-A:GLU:543:CD:4903, V-A:GLU:543:CG:4902, V-B:GLU:543:CG:9875, V-A:HIS:456:CE1:4064, V-B:HIS:456:CE1:9037, H-A:GLU:543:OE1:4904, V-B:GLU:543:CD:9876, H-B:GLU:543:OE2:9878, V-A:LEU:475:CD2:4254, V-B:TYR:539:CD2:9842, V-A:TRP:381:CZ2:3365, V-A:TYR:484:CE1:4340, V-A:TYR:484:CZ:4342, V-A:TRP:381:CH2:3367, V-B:ALA:541:CB:9860, H-B:GLU:543:O:9871, H-B:LYS:547:NZ:9919, V-B:HIS:456:CD2:9035, H-A:LYS:547:NZ:4946, V-B:HIS:456:CG:9033, V-B:HIS:456:CB:9032, V-B:LYS:547:CD:9917, V-B:GLY:544:C:9880, V-B:VAL:458:CG2:9054, V-B:HIS:456:C:9028"]

$$$$
4cb_Grossjean_2025
     RDKit          3D

 49 52  0  0  0  0  0  0  0  0999 V2000
  130.0610  130.7820   73.3070 C   0  0  0  0  0  0  0  0  0  0  0  0
  129.7570  129.3940   73.3430 O   0  0  0  0  0  0  0  0  0  0  0  0
  128.7380  128.8830   72.6060 C   0  0  0  0  0  0  0  0  0  0  0  0
  127.5850  128.7610   73.0300 O   0  0  0  0  0  0  0  0  0  0  0  0
  129.1530  128.4800   71.2190 C   0  0  0  0  0  0  0  0  0  0  0  0
  128.2930  127.6810   70.4530 C   0  0  0  0  0  0  0  0  0  0  0  0
  128.6450  127.2980   69.1620 C   0  0  0  0  0  0  0  0  0  0  0  0
  129.8640  127.6980   68.6130 C   0  0  0  0  0  0  0  0  0  0  0  0
  130.1110  127.2660   67.2960 N   0  0  0  0  0  0  0  0  0  0  0  0
  130.3650  126.0230   66.8190 C   0  0  0  0  0  0  0  0  0  0  0  0
  130.3720  125.0040   67.5100 O   0  0  0  0  0  0  0  0  0  0  0  0
  130.6210  125.9470   65.3780 C   0  0  0  0  0  0  0  0  0  0  0  0
  131.6480  124.6720   64.7260 S   0  0  0  0  0  0  0  0  0  0  0  0
  131.3990  125.2430   63.0930 C   0  0  0  0  0  0  0  0  0  0  0  0
  131.9630  124.6370   62.0510 N   0  0  0  0  0  0  0  0  0  0  0  0
  131.7030  125.1470   60.8190 C   0  0  0  0  0  0  0  0  0  0  0  0
  132.3490  124.4390   59.6630 C   0  0  0  0  0  0  0  0  0  0  0  0
  132.8990  123.1580   59.8240 C   0  0  0  0  0  0  0  0  0  0  0  0
  133.5030  122.4970   58.7570 C   0  0  0  0  0  0  0  0  0  0  0  0
  133.5660  123.1110   57.5110 C   0  0  0  0  0  0  0  0  0  0  0  0
  133.0310  124.3820   57.3250 C   0  0  0  0  0  0  0  0  0  0  0  0
  132.4300  125.0390   58.3950 C   0  0  0  0  0  0  0  0  0  0  0  0
  130.8950  126.2750   60.6430 C   0  0  0  0  0  0  0  0  0  0  0  0
  130.2980  126.9230   61.7340 C   0  0  0  0  0  0  0  0  0  0  0  0
  129.4210  128.1540   61.4690 C   0  0  0  0  0  0  0  0  0  0  0  0
  129.8620  129.2520   62.0880 F   0  0  0  0  0  0  0  0  0  0  0  0
  129.3960  128.4150   60.1630 F   0  0  0  0  0  0  0  0  0  0  0  0
  128.1800  127.9250   61.8970 F   0  0  0  0  0  0  0  0  0  0  0  0
  130.5510  126.3870   63.0300 C   0  0  0  0  0  0  0  0  0  0  0  0
  130.1160  126.7640   64.3530 C   0  0  0  0  0  0  0  0  0  0  0  0
  129.2850  127.8300   64.5830 N   0  0  0  0  0  0  0  0  0  0  0  0
  130.7290  128.5000   69.3720 C   0  0  0  0  0  0  0  0  0  0  0  0
  130.3750  128.8840   70.6620 C   0  0  0  0  0  0  0  0  0  0  0  0
  130.1450  131.1657   74.3345 H   0  0  0  0  0  0  0  0  0  0  0  0
  131.0140  130.9351   72.7793 H   0  0  0  0  0  0  0  0  0  0  0  0
  129.2593  131.3194   72.7793 H   0  0  0  0  0  0  0  0  0  0  0  0
  127.3316  127.3538   70.8758 H   0  0  0  0  0  0  0  0  0  0  0  0
  127.9575  126.6757   68.5703 H   0  0  0  0  0  0  0  0  0  0  0  0
  130.0840  128.0040   66.6080 H   0  0  0  0  0  0  0  0  0  0  0  0
  132.8524  122.6684   60.8079 H   0  0  0  0  0  0  0  0  0  0  0  0
  133.9287  121.4928   58.8996 H   0  0  0  0  0  0  0  0  0  0  0  0
  134.0415  122.5890   56.6675 H   0  0  0  0  0  0  0  0  0  0  0  0
  133.0827  124.8649   56.3380 H   0  0  0  0  0  0  0  0  0  0  0  0
  132.0113  126.0451   58.2453 H   0  0  0  0  0  0  0  0  0  0  0  0
  130.7242  126.6619   59.6276 H   0  0  0  0  0  0  0  0  0  0  0  0
  128.2830  127.7590   64.4730 H   0  0  0  0  0  0  0  0  0  0  0  0
  129.6470  128.7270   64.8760 H   0  0  0  0  0  0  0  0  0  0  0  0
  131.6895  128.8262   68.9466 H   0  0  0  0  0  0  0  0  0  0  0  0
  131.0608  129.5109   71.2508 H   0  0  0  0  0  0  0  0  0  0  0  0
  1  2  1  0
  2  3  1  0
  3  4  2  0
  3  5  1  0
  5  6  2  0
  6  7  1  0
  7  8  2  0
  8  9  1  0
  9 10  1  0
 10 11  2  0
 10 12  1  0
 12 13  1  0
 13 14  1  0
 14 15  2  0
 15 16  1  0
 16 17  1  0
 17 18  2  0
 18 19  1  0
 19 20  2  0
 20 21  1  0
 21 22  2  0
 16 23  2  0
 23 24  1  0
 24 25  1  0
 25 26  1  0
 25 27  1  0
 25 28  1  0
 24 29  2  0
 29 30  1  0
 30 31  1  0
  8 32  1  0
 32 33  2  0
 33  5  1  0
 30 12  2  0
 29 14  1  0
 22 17  1  0
  1 34  1  0
  1 35  1  0
  1 36  1  0
  6 37  1  0
  7 38  1  0
  9 39  1  0
 18 40  1  0
 19 41  1  0
 20 42  1  0
 21 43  1  0
 22 44  1  0
 23 45  1  0
 31 46  1  0
 31 47  1  0
 32 48  1  0
 33 49  1  0
M  END
>  <Binding energies>  (1) 
[-7.02]

>  <Ligand effiencies>  (1) 
[-0.19499999999999998]

>  <Interactions>  (1) 
["H-A:TYR:484:OH:4343, H-A:GLU:543:OE2:4905, V-A:ASP:366:CG:3208, V-A:GLU:543:CD:4903, V-A:GLY:544:C:4907, V-A:GLU:543:CB:4901, V-A:HIS:456:CE1:4064, V-B:HIS:456:CE1:9037, H-A:GLU:543:OE1:4904, V-A:GLU:543:C:4897, H-B:GLU:543:OE2:9878, V-B:TYR:539:CE2:9844, V-A:ASP:366:CB:3207, V-A:TYR:531:CZ:4789, V-A:ILE:369:CD1:3234, H-B:LYS:547:NZ:9919, V-B:HIS:456:CD2:9035, H-A:LYS:547:NZ:4946, H-A:HIS:456:NE2:4065, V-A:LYS:547:CE:4945, V-A:ILE:369:CG2:3232, V-A:ILE:369:CB:3231, V-B:TYR:539:CZ:9845, V-A:TYR:531:CE1:4787"]

$$$$
4cc_Grossjean_2025
     RDKit          3D

 47 50  0  0  0  0  0  0  0  0999 V2000
  129.7420  118.0090   60.2410 C   0  0  0  0  0  0  0  0  0  0  0  0
  130.2350  119.2840   59.8430 O   0  0  0  0  0  0  0  0  0  0  0  0
  130.0610  120.3660   60.6840 C   0  0  0  0  0  0  0  0  0  0  0  0
  130.5930  120.2490   61.9680 C   0  0  0  0  0  0  0  0  0  0  0  0
  130.4680  121.2890   62.8850 C   0  0  0  0  0  0  0  0  0  0  0  0
  129.7980  122.4610   62.5320 C   0  0  0  0  0  0  0  0  0  0  0  0
  129.7360  123.4630   63.5190 N   0  0  0  0  0  0  0  0  0  0  0  0
  130.7330  123.9870   64.2720 C   0  0  0  0  0  0  0  0  0  0  0  0
  131.9180  123.6660   64.1650 O   0  0  0  0  0  0  0  0  0  0  0  0
  130.3180  124.9920   65.2540 C   0  0  0  0  0  0  0  0  0  0  0  0
  130.5930  124.7200   66.9740 S   0  0  0  0  0  0  0  0  0  0  0  0
  129.8760  126.2620   67.3780 C   0  0  0  0  0  0  0  0  0  0  0  0
  129.7820  126.6740   68.6400 N   0  0  0  0  0  0  0  0  0  0  0  0
  129.2190  127.8910   68.8560 C   0  0  0  0  0  0  0  0  0  0  0  0
  129.1230  128.3280   70.2890 C   0  0  0  0  0  0  0  0  0  0  0  0
  130.2080  128.9570   70.9220 C   0  0  0  0  0  0  0  0  0  0  0  0
  130.1270  129.3640   72.2510 C   0  0  0  0  0  0  0  0  0  0  0  0
  128.9570  129.1460   72.9690 C   0  0  0  0  0  0  0  0  0  0  0  0
  127.8680  128.5220   72.3680 C   0  0  0  0  0  0  0  0  0  0  0  0
  127.9540  128.1160   71.0380 C   0  0  0  0  0  0  0  0  0  0  0  0
  128.7390  128.6800   67.8060 C   0  0  0  0  0  0  0  0  0  0  0  0
  128.8320  128.2540   66.4710 C   0  0  0  0  0  0  0  0  0  0  0  0
  128.2910  129.1710   65.3690 C   0  0  0  0  0  0  0  0  0  0  0  0
  129.0880  129.2330   64.2990 F   0  0  0  0  0  0  0  0  0  0  0  0
  127.1040  128.7290   64.9560 F   0  0  0  0  0  0  0  0  0  0  0  0
  128.1590  130.4110   65.8390 F   0  0  0  0  0  0  0  0  0  0  0  0
  129.4290  126.9830   66.2320 C   0  0  0  0  0  0  0  0  0  0  0  0
  129.6920  126.2290   65.0310 C   0  0  0  0  0  0  0  0  0  0  0  0
  129.3580  126.6870   63.7810 N   0  0  0  0  0  0  0  0  0  0  0  0
  129.2710  122.5920   61.2380 C   0  0  0  0  0  0  0  0  0  0  0  0
  129.3980  121.5500   60.3240 C   0  0  0  0  0  0  0  0  0  0  0  0
  129.7196  117.9510   61.3392 H   0  0  0  0  0  0  0  0  0  0  0  0
  128.7251  117.8694   59.8456 H   0  0  0  0  0  0  0  0  0  0  0  0
  130.4005  117.2215   59.8456 H   0  0  0  0  0  0  0  0  0  0  0  0
  131.1163  119.3262   62.2589 H   0  0  0  0  0  0  0  0  0  0  0  0
  130.8991  121.1864   63.8918 H   0  0  0  0  0  0  0  0  0  0  0  0
  128.8180  123.8580   63.6560 H   0  0  0  0  0  0  0  0  0  0  0  0
  131.1366  129.1308   70.3585 H   0  0  0  0  0  0  0  0  0  0  0  0
  130.9857  129.8562   72.7310 H   0  0  0  0  0  0  0  0  0  0  0  0
  128.8915  129.4687   74.0186 H   0  0  0  0  0  0  0  0  0  0  0  0
  126.9442  128.3502   72.9399 H   0  0  0  0  0  0  0  0  0  0  0  0
  127.0920  127.6212   70.5667 H   0  0  0  0  0  0  0  0  0  0  0  0
  128.2793  129.6539   68.0302 H   0  0  0  0  0  0  0  0  0  0  0  0
  128.6700  126.2200   63.2070 H   0  0  0  0  0  0  0  0  0  0  0  0
  129.7940  127.5100   63.3900 H   0  0  0  0  0  0  0  0  0  0  0  0
  128.7568  123.5194   60.9456 H   0  0  0  0  0  0  0  0  0  0  0  0
  128.9763  121.6548   59.3134 H   0  0  0  0  0  0  0  0  0  0  0  0
  1  2  1  0
  2  3  1  0
  3  4  2  0
  4  5  1  0
  5  6  2  0
  6  7  1  0
  7  8  1  0
  8  9  2  0
  8 10  1  0
 10 11  1  0
 11 12  1  0
 12 13  2  0
 13 14  1  0
 14 15  1  0
 15 16  2  0
 16 17  1  0
 17 18  2  0
 18 19  1  0
 19 20  2  0
 14 21  2  0
 21 22  1  0
 22 23  1  0
 23 24  1  0
 23 25  1  0
 23 26  1  0
 22 27  2  0
 27 28  1  0
 28 29  1  0
  6 30  1  0
 30 31  2  0
 31  3  1  0
 28 10  2  0
 27 12  1  0
 20 15  1  0
  1 32  1  0
  1 33  1  0
  1 34  1  0
  4 35  1  0
  5 36  1  0
  7 37  1  0
 16 38  1  0
 17 39  1  0
 18 40  1  0
 19 41  1  0
 20 42  1  0
 21 43  1  0
 29 44  1  0
 29 45  1  0
 30 46  1  0
 31 47  1  0
M  END
>  <Binding energies>  (1) 
[-7.17]

>  <Ligand effiencies>  (1) 
[-0.21088235294117647]

>  <Interactions>  (1) 
["H-A:TYR:484:OH:4343, H-A:GLU:543:OE2:4905, V-A:GLU:543:CD:4903, V-A:GLU:543:CG:4902, V-A:GLY:544:C:4907, V-A:GLU:543:CB:4901, V-B:GLU:543:CG:9875, V-A:HIS:456:CE1:4064, V-B:HIS:456:CE1:9037, H-A:GLU:543:OE1:4904, V-B:GLU:543:CD:9876, V-A:GLU:543:C:4897, V-A:PRO:482:CB:4321, H-B:GLU:543:OE2:9878, V-A:LEU:475:CD2:4254, V-B:TYR:539:CD2:9842, V-A:TRP:381:CZ3:3366, V-A:TRP:381:CZ2:3365, V-A:TYR:484:CE1:4340, V-A:TYR:484:CZ:4342, V-A:PRO:482:CG:4322, V-A:TRP:381:CH2:3367, V-A:LEU:475:CD1:4253, V-B:ALA:541:CB:9860, V-B:HIS:456:CD2:9035, H-A:HIS:456:NE2:4065, V-B:HIS:456:CG:9033, V-A:LYS:547:CE:4945, V-B:TYR:539:C:9835, V-B:TYR:484:CZ:9314, V-B:TYR:484:CE1:9312, V-A:TRP:381:CE3:3363, V-B:TYR:539:CB:9839, V-A:TRP:381:CD2:3360, V-A:TRP:381:CE2:3362"]

$$$$
4cd_Grossjean_2025
     RDKit          3D

 43 46  0  0  0  0  0  0  0  0999 V2000
  129.2940  126.6190   63.8470 N   0  0  0  0  0  0  0  0  0  0  0  0
  129.5770  126.1230   65.0950 C   0  0  0  0  0  0  0  0  0  0  0  0
  130.0300  124.8130   65.3180 C   0  0  0  0  0  0  0  0  0  0  0  0
  130.2680  123.7490   64.3370 C   0  0  0  0  0  0  0  0  0  0  0  0
  130.8680  122.7230   64.6570 O   0  0  0  0  0  0  0  0  0  0  0  0
  129.7780  123.9850   63.0950 N   0  0  0  0  0  0  0  0  0  0  0  0
  129.8780  123.2030   61.9290 C   0  0  0  0  0  0  0  0  0  0  0  0
  128.7790  123.2470   61.0660 C   0  0  0  0  0  0  0  0  0  0  0  0
  128.7880  122.5190   59.8800 C   0  0  0  0  0  0  0  0  0  0  0  0
  129.9020  121.7500   59.5510 C   0  0  0  0  0  0  0  0  0  0  0  0
  131.0090  121.7080   60.3940 C   0  0  0  0  0  0  0  0  0  0  0  0
  131.0030  122.4350   61.5830 C   0  0  0  0  0  0  0  0  0  0  0  0
  130.3030  124.5180   67.0330 S   0  0  0  0  0  0  0  0  0  0  0  0
  129.8010  126.1420   67.4390 C   0  0  0  0  0  0  0  0  0  0  0  0
  129.7820  126.5690   68.6990 N   0  0  0  0  0  0  0  0  0  0  0  0
  129.3640  127.8430   68.9170 C   0  0  0  0  0  0  0  0  0  0  0  0
  129.3510  128.2950   70.3480 C   0  0  0  0  0  0  0  0  0  0  0  0
  130.4850  128.8900   70.9250 C   0  0  0  0  0  0  0  0  0  0  0  0
  130.4800  129.3120   72.2520 C   0  0  0  0  0  0  0  0  0  0  0  0
  129.3350  129.1460   73.0230 C   0  0  0  0  0  0  0  0  0  0  0  0
  128.1970  128.5630   72.4770 C   0  0  0  0  0  0  0  0  0  0  0  0
  128.2060  128.1450   71.1500 C   0  0  0  0  0  0  0  0  0  0  0  0
  128.9860  128.6870   67.8690 C   0  0  0  0  0  0  0  0  0  0  0  0
  129.0070  128.2470   66.5350 C   0  0  0  0  0  0  0  0  0  0  0  0
  128.5760  129.2240   65.4340 C   0  0  0  0  0  0  0  0  0  0  0  0
  129.3630  129.1790   64.3560 F   0  0  0  0  0  0  0  0  0  0  0  0
  127.3370  128.9370   65.0350 F   0  0  0  0  0  0  0  0  0  0  0  0
  128.6110  130.4720   65.9000 F   0  0  0  0  0  0  0  0  0  0  0  0
  129.4320  126.9100   66.2950 C   0  0  0  0  0  0  0  0  0  0  0  0
  129.7340  127.4560   63.4930 H   0  0  0  0  0  0  0  0  0  0  0  0
  128.6350  126.1580   63.2350 H   0  0  0  0  0  0  0  0  0  0  0  0
  129.2500  124.8370   62.9800 H   0  0  0  0  0  0  0  0  0  0  0  0
  127.9032  123.8598   61.3256 H   0  0  0  0  0  0  0  0  0  0  0  0
  127.9196  122.5506   59.2055 H   0  0  0  0  0  0  0  0  0  0  0  0
  129.9070  121.1704   58.6161 H   0  0  0  0  0  0  0  0  0  0  0  0
  131.8863  121.1025   60.1223 H   0  0  0  0  0  0  0  0  0  0  0  0
  131.8775  122.4077   62.2497 H   0  0  0  0  0  0  0  0  0  0  0  0
  131.3925  129.0249   70.3182 H   0  0  0  0  0  0  0  0  0  0  0  0
  131.3777  129.7745   72.6882 H   0  0  0  0  0  0  0  0  0  0  0  0
  129.3294  129.4780   74.0717 H   0  0  0  0  0  0  0  0  0  0  0  0
  127.2938  128.4328   73.0913 H   0  0  0  0  0  0  0  0  0  0  0  0
  127.3015  127.6892   70.7208 H   0  0  0  0  0  0  0  0  0  0  0  0
  128.6660  129.7153   68.0930 H   0  0  0  0  0  0  0  0  0  0  0  0
  1  2  1  0
  2  3  2  0
  3  4  1  0
  4  5  2  0
  4  6  1  0
  6  7  1  0
  7  8  2  0
  8  9  1  0
  9 10  2  0
 10 11  1  0
 11 12  2  0
  3 13  1  0
 13 14  1  0
 14 15  2  0
 15 16  1  0
 16 17  1  0
 17 18  2  0
 18 19  1  0
 19 20  2  0
 20 21  1  0
 21 22  2  0
 16 23  2  0
 23 24  1  0
 24 25  1  0
 25 26  1  0
 25 27  1  0
 25 28  1  0
 24 29  2  0
 29  2  1  0
 12  7  1  0
 29 14  1  0
 22 17  1  0
  1 30  1  0
  1 31  1  0
  6 32  1  0
  8 33  1  0
  9 34  1  0
 10 35  1  0
 11 36  1  0
 12 37  1  0
 18 38  1  0
 19 39  1  0
 20 40  1  0
 21 41  1  0
 22 42  1  0
 23 43  1  0
M  END
>  <Binding energies>  (1) 
[-7.17]

>  <Ligand effiencies>  (1) 
[-0.2240625]

>  <Interactions>  (1) 
["H-A:TYR:484:OH:4343, H-A:GLU:543:OE2:4905, V-A:GLU:543:CD:4903, V-A:GLU:543:CG:4902, V-A:GLY:544:C:4907, V-A:GLU:543:CB:4901, V-B:GLU:543:CG:9875, V-A:HIS:456:CE1:4064, V-A:GLY:544:CA:4909, V-B:HIS:456:CE1:9037, H-A:GLU:543:OE1:4904, V-B:GLU:543:CD:9876, V-A:GLU:543:C:4897, V-B:GLU:543:CB:9874, H-B:GLU:543:OE2:9878, V-B:TYR:539:CD2:9842, V-A:TYR:484:CE1:4340, V-A:TYR:484:CZ:4342, V-B:TYR:539:CE2:9844, V-B:HIS:456:CD2:9035, H-A:HIS:456:NE2:4065, V-B:PRO:540:CA:9851, V-A:LYS:547:CE:4945, V-B:TYR:484:CZ:9314, V-B:TYR:484:CE1:9312"]

$$$$
4ce_Grossjean_2025
     RDKit          3D

 45 48  0  0  0  0  0  0  0  0999 V2000
  130.1410  119.3940   61.0420 C   0  0  0  0  0  0  0  0  0  0  0  0
  130.0050  120.8900   60.8300 C   0  0  0  0  0  0  0  0  0  0  0  0
  129.9170  121.4410   59.5480 C   0  0  0  0  0  0  0  0  0  0  0  0
  129.7850  122.8250   59.4290 C   0  0  0  0  0  0  0  0  0  0  0  0
  129.7430  123.6160   60.5780 C   0  0  0  0  0  0  0  0  0  0  0  0
  129.8410  123.0000   61.8310 C   0  0  0  0  0  0  0  0  0  0  0  0
  129.7680  123.8470   62.9520 N   0  0  0  0  0  0  0  0  0  0  0  0
  130.4480  123.7660   64.1230 C   0  0  0  0  0  0  0  0  0  0  0  0
  131.2840  122.8950   64.3700 O   0  0  0  0  0  0  0  0  0  0  0  0
  130.1280  124.8000   65.1090 C   0  0  0  0  0  0  0  0  0  0  0  0
  130.3740  124.4940   66.8270 S   0  0  0  0  0  0  0  0  0  0  0  0
  129.8380  126.1050   67.2370 C   0  0  0  0  0  0  0  0  0  0  0  0
  129.7980  126.5230   68.5000 N   0  0  0  0  0  0  0  0  0  0  0  0
  129.3820  127.7980   68.7190 C   0  0  0  0  0  0  0  0  0  0  0  0
  129.3530  128.2400   70.1520 C   0  0  0  0  0  0  0  0  0  0  0  0
  130.4870  128.8160   70.7480 C   0  0  0  0  0  0  0  0  0  0  0  0
  130.4700  129.2220   72.0800 C   0  0  0  0  0  0  0  0  0  0  0  0
  129.3140  129.0580   72.8360 C   0  0  0  0  0  0  0  0  0  0  0  0
  128.1780  128.4890   72.2710 C   0  0  0  0  0  0  0  0  0  0  0  0
  128.2000  128.0820   70.9390 C   0  0  0  0  0  0  0  0  0  0  0  0
  128.9890  128.6390   67.6720 C   0  0  0  0  0  0  0  0  0  0  0  0
  129.0230  128.2060   66.3370 C   0  0  0  0  0  0  0  0  0  0  0  0
  128.5800  129.1790   65.2390 C   0  0  0  0  0  0  0  0  0  0  0  0
  129.3700  129.1510   64.1640 F   0  0  0  0  0  0  0  0  0  0  0  0
  127.3460  128.8730   64.8360 F   0  0  0  0  0  0  0  0  0  0  0  0
  128.5920  130.4260   65.7100 F   0  0  0  0  0  0  0  0  0  0  0  0
  129.4720  126.8760   66.0940 C   0  0  0  0  0  0  0  0  0  0  0  0
  129.6470  126.1020   64.8900 C   0  0  0  0  0  0  0  0  0  0  0  0
  129.3680  126.5980   63.6420 N   0  0  0  0  0  0  0  0  0  0  0  0
  129.9660  121.6460   61.9570 N   0  0  0  0  0  0  0  0  0  0  0  0
  130.1607  119.1768   62.1202 H   0  0  0  0  0  0  0  0  0  0  0  0
  129.2860  118.8789   60.5798 H   0  0  0  0  0  0  0  0  0  0  0  0
  131.0749  119.0416   60.5798 H   0  0  0  0  0  0  0  0  0  0  0  0
  129.9510  120.7993   58.6552 H   0  0  0  0  0  0  0  0  0  0  0  0
  129.7144  123.2902   58.4347 H   0  0  0  0  0  0  0  0  0  0  0  0
  129.6344  124.7078   60.5000 H   0  0  0  0  0  0  0  0  0  0  0  0
  129.1520  124.6380   62.8430 H   0  0  0  0  0  0  0  0  0  0  0  0
  131.4029  128.9485   70.1533 H   0  0  0  0  0  0  0  0  0  0  0  0
  131.3668  129.6704   72.5323 H   0  0  0  0  0  0  0  0  0  0  0  0
  129.2984  129.3805   73.8875 H   0  0  0  0  0  0  0  0  0  0  0  0
  127.2663  128.3609   72.8730 H   0  0  0  0  0  0  0  0  0  0  0  0
  127.3003  127.6297   70.4963 H   0  0  0  0  0  0  0  0  0  0  0  0
  128.6467  129.6594   67.8994 H   0  0  0  0  0  0  0  0  0  0  0  0
  129.8810  127.3740   63.2480 H   0  0  0  0  0  0  0  0  0  0  0  0
  128.6330  126.2020   63.0720 H   0  0  0  0  0  0  0  0  0  0  0  0
  1  2  1  0
  2  3  2  0
  3  4  1  0
  4  5  2  0
  5  6  1  0
  6  7  1  0
  7  8  1  0
  8  9  2  0
  8 10  1  0
 10 11  1  0
 11 12  1  0
 12 13  2  0
 13 14  1  0
 14 15  1  0
 15 16  2  0
 16 17  1  0
 17 18  2  0
 18 19  1  0
 19 20  2  0
 14 21  2  0
 21 22  1  0
 22 23  1  0
 23 24  1  0
 23 25  1  0
 23 26  1  0
 22 27  2  0
 27 28  1  0
 28 29  1  0
  6 30  2  0
 30  2  1  0
 28 10  2  0
 27 12  1  0
 20 15  1  0
  1 31  1  0
  1 32  1  0
  1 33  1  0
  3 34  1  0
  4 35  1  0
  5 36  1  0
  7 37  1  0
 16 38  1  0
 17 39  1  0
 18 40  1  0
 19 41  1  0
 20 42  1  0
 21 43  1  0
 29 44  1  0
 29 45  1  0
M  END
>  <Binding energies>  (1) 
[-7.53]

>  <Ligand effiencies>  (1) 
[-0.22818181818181818]

>  <Interactions>  (1) 
["H-A:TYR:484:OH:4343, H-A:GLU:543:OE2:4905, V-A:GLU:543:CD:4903, V-A:GLU:543:CG:4902, V-A:GLY:544:C:4907, V-A:GLU:543:CB:4901, V-B:GLU:543:CG:9875, V-A:HIS:456:CE1:4064, V-A:GLY:544:CA:4909, V-B:HIS:456:CE1:9037, H-A:GLU:543:OE1:4904, V-B:GLU:543:CD:9876, V-A:GLU:543:C:4897, V-B:GLU:543:CB:9874, H-B:GLU:543:OE2:9878, V-A:LEU:475:CD2:4254, V-B:TYR:539:CD2:9842, V-A:TYR:484:CE1:4340, V-A:TYR:484:CZ:4342, V-B:TYR:539:CE2:9844, V-B:ALA:541:CB:9860, V-B:HIS:456:CD2:9035, H-A:HIS:456:NE2:4065, V-A:LYS:547:CE:4945, V-B:TYR:539:C:9835, V-B:TYR:484:CZ:9314, V-B:TYR:484:CE1:9312"]

$$$$
4cf_Grossjean_2025
     RDKit          3D

 42 45  0  0  0  0  0  0  0  0999 V2000
  129.3710  126.6340   63.6490 N   0  0  0  0  0  0  0  0  0  0  0  0
  129.6770  126.1390   64.8910 C   0  0  0  0  0  0  0  0  0  0  0  0
  130.1810  124.8450   65.1000 C   0  0  0  0  0  0  0  0  0  0  0  0
  130.4390  123.7930   64.1130 C   0  0  0  0  0  0  0  0  0  0  0  0
  131.2410  122.8900   64.3540 O   0  0  0  0  0  0  0  0  0  0  0  0
  129.7330  123.8940   62.9600 N   0  0  0  0  0  0  0  0  0  0  0  0
  129.7800  123.0900   61.8050 C   0  0  0  0  0  0  0  0  0  0  0  0
  130.0980  121.7180   61.7770 C   0  0  0  0  0  0  0  0  0  0  0  0
  130.1230  121.0400   60.5570 C   0  0  0  0  0  0  0  0  0  0  0  0
  129.8310  121.7500   59.3920 C   0  0  0  0  0  0  0  0  0  0  0  0
  129.5290  123.0730   59.3900 N   0  0  0  0  0  0  0  0  0  0  0  0
  129.5100  123.7190   60.5850 C   0  0  0  0  0  0  0  0  0  0  0  0
  130.4680  124.5440   66.8130 S   0  0  0  0  0  0  0  0  0  0  0  0
  129.9050  126.1450   67.2340 C   0  0  0  0  0  0  0  0  0  0  0  0
  129.8680  126.5570   68.5000 N   0  0  0  0  0  0  0  0  0  0  0  0
  129.3990  127.8120   68.7290 C   0  0  0  0  0  0  0  0  0  0  0  0
  129.3620  128.2470   70.1650 C   0  0  0  0  0  0  0  0  0  0  0  0
  130.4930  128.8130   70.7730 C   0  0  0  0  0  0  0  0  0  0  0  0
  130.4670  129.2210   72.1050 C   0  0  0  0  0  0  0  0  0  0  0  0
  129.3020  129.0680   72.8490 C   0  0  0  0  0  0  0  0  0  0  0  0
  128.1640  128.5140   72.2710 C   0  0  0  0  0  0  0  0  0  0  0  0
  128.1960  128.1090   70.9390 C   0  0  0  0  0  0  0  0  0  0  0  0
  128.9940  128.6530   67.6880 C   0  0  0  0  0  0  0  0  0  0  0  0
  129.0340  128.2290   66.3510 C   0  0  0  0  0  0  0  0  0  0  0  0
  128.5700  129.2000   65.2590 C   0  0  0  0  0  0  0  0  0  0  0  0
  129.3570  129.1910   64.1810 F   0  0  0  0  0  0  0  0  0  0  0  0
  127.3410  128.8740   64.8580 F   0  0  0  0  0  0  0  0  0  0  0  0
  128.5620  130.4450   65.7360 F   0  0  0  0  0  0  0  0  0  0  0  0
  129.5060  126.9080   66.0990 C   0  0  0  0  0  0  0  0  0  0  0  0
  129.8880  127.3970   63.2350 H   0  0  0  0  0  0  0  0  0  0  0  0
  128.6130  126.2490   63.1010 H   0  0  0  0  0  0  0  0  0  0  0  0
  129.0690  124.6530   62.9110 H   0  0  0  0  0  0  0  0  0  0  0  0
  130.3254  121.1838   62.7113 H   0  0  0  0  0  0  0  0  0  0  0  0
  130.3678  119.9684   60.5150 H   0  0  0  0  0  0  0  0  0  0  0  0
  129.8463  121.2132   58.4320 H   0  0  0  0  0  0  0  0  0  0  0  0
  129.2698  124.7924   60.5937 H   0  0  0  0  0  0  0  0  0  0  0  0
  131.4162  128.9367   70.1878 H   0  0  0  0  0  0  0  0  0  0  0  0
  131.3633  129.6618   72.5657 H   0  0  0  0  0  0  0  0  0  0  0  0
  129.2801  129.3871   73.9015 H   0  0  0  0  0  0  0  0  0  0  0  0
  127.2443  128.3966   72.8629 H   0  0  0  0  0  0  0  0  0  0  0  0
  127.2938  127.6737   70.4845 H   0  0  0  0  0  0  0  0  0  0  0  0
  128.6370  129.6669   67.9217 H   0  0  0  0  0  0  0  0  0  0  0  0
  1  2  1  0
  2  3  2  0
  3  4  1  0
  4  5  2  0
  4  6  1  0
  6  7  1  0
  7  8  2  0
  8  9  1  0
  9 10  2  0
 10 11  1  0
 11 12  2  0
  3 13  1  0
 13 14  1  0
 14 15  2  0
 15 16  1  0
 16 17  1  0
 17 18  2  0
 18 19  1  0
 19 20  2  0
 20 21  1  0
 21 22  2  0
 16 23  2  0
 23 24  1  0
 24 25  1  0
 25 26  1  0
 25 27  1  0
 25 28  1  0
 24 29  2  0
 29  2  1  0
 12  7  1  0
 29 14  1  0
 22 17  1  0
  1 30  1  0
  1 31  1  0
  6 32  1  0
  8 33  1  0
  9 34  1  0
 10 35  1  0
 12 36  1  0
 18 37  1  0
 19 38  1  0
 20 39  1  0
 21 40  1  0
 22 41  1  0
 23 42  1  0
M  END
>  <Binding energies>  (1) 
[-6.93]

>  <Ligand effiencies>  (1) 
[-0.2165625]

>  <Interactions>  (1) 
["H-A:TYR:484:OH:4343, H-A:GLU:543:OE2:4905, V-A:GLU:543:CD:4903, V-A:GLU:543:CG:4902, V-A:GLY:544:C:4907, V-A:GLU:543:CB:4901, V-B:GLU:543:CG:9875, V-A:HIS:456:CE1:4064, V-A:GLY:544:CA:4909, V-B:HIS:456:CE1:9037, H-A:GLU:543:OE1:4904, V-B:GLU:543:CD:9876, V-A:GLU:543:C:4897, V-B:GLU:543:CB:9874, H-B:GLU:543:OE2:9878, V-B:TYR:539:CD2:9842, V-A:TYR:484:CE1:4340, V-A:TYR:484:CZ:4342, V-B:TYR:539:CE2:9844, V-B:ALA:541:CB:9860, V-B:HIS:456:CD2:9035, H-A:HIS:456:NE2:4065, V-A:LYS:547:CE:4945, V-B:TYR:539:C:9835, V-B:TYR:484:CZ:9314, V-B:TYR:484:CE1:9312"]

$$$$
4cg_Grossjean_2025
     RDKit          3D

 46 49  0  0  0  0  0  0  0  0999 V2000
  129.3740  126.5390   63.5460 N   0  0  0  0  0  0  0  0  0  0  0  0
  129.6400  126.0490   64.7980 C   0  0  0  0  0  0  0  0  0  0  0  0
  130.0840  124.7390   65.0320 C   0  0  0  0  0  0  0  0  0  0  0  0
  130.3910  123.6930   64.0580 C   0  0  0  0  0  0  0  0  0  0  0  0
  131.2600  122.8460   64.2770 O   0  0  0  0  0  0  0  0  0  0  0  0
  129.6970  123.7390   62.9010 N   0  0  0  0  0  0  0  0  0  0  0  0
  129.8220  122.7860   61.7990 C   0  0  0  0  0  0  0  0  0  0  0  0
  128.7960  123.0020   60.6920 C   0  0  0  0  0  0  0  0  0  0  0  0
  129.1390  122.7280   59.3650 C   0  0  0  0  0  0  0  0  0  0  0  0
  128.1950  122.8930   58.3540 C   0  0  0  0  0  0  0  0  0  0  0  0
  126.9100  123.3220   58.6760 C   0  0  0  0  0  0  0  0  0  0  0  0
  126.5570  123.5810   59.9990 C   0  0  0  0  0  0  0  0  0  0  0  0
  127.4990  123.4140   61.0090 C   0  0  0  0  0  0  0  0  0  0  0  0
  130.3480  124.4470   66.7490 S   0  0  0  0  0  0  0  0  0  0  0  0
  129.8390  126.0720   67.1450 C   0  0  0  0  0  0  0  0  0  0  0  0
  129.8120  126.5030   68.4030 N   0  0  0  0  0  0  0  0  0  0  0  0
  129.4070  127.7830   68.6140 C   0  0  0  0  0  0  0  0  0  0  0  0
  129.3860  128.2390   70.0450 C   0  0  0  0  0  0  0  0  0  0  0  0
  130.5220  128.8170   70.6350 C   0  0  0  0  0  0  0  0  0  0  0  0
  130.5080  129.2400   71.9610 C   0  0  0  0  0  0  0  0  0  0  0  0
  129.3520  129.0900   72.7210 C   0  0  0  0  0  0  0  0  0  0  0  0
  128.2140  128.5190   72.1640 C   0  0  0  0  0  0  0  0  0  0  0  0
  128.2320  128.0970   70.8380 C   0  0  0  0  0  0  0  0  0  0  0  0
  129.0130  128.6160   67.5610 C   0  0  0  0  0  0  0  0  0  0  0  0
  129.0370  128.1710   66.2300 C   0  0  0  0  0  0  0  0  0  0  0  0
  128.5920  129.1350   65.1240 C   0  0  0  0  0  0  0  0  0  0  0  0
  129.3780  129.0940   64.0460 F   0  0  0  0  0  0  0  0  0  0  0  0
  127.3560  128.8290   64.7300 F   0  0  0  0  0  0  0  0  0  0  0  0
  128.6100  130.3860   65.5830 F   0  0  0  0  0  0  0  0  0  0  0  0
  129.4750  126.8350   65.9960 C   0  0  0  0  0  0  0  0  0  0  0  0
  129.8680  127.3340   63.1660 H   0  0  0  0  0  0  0  0  0  0  0  0
  128.6750  126.1120   62.9520 H   0  0  0  0  0  0  0  0  0  0  0  0
  128.9510  124.4140   62.8210 H   0  0  0  0  0  0  0  0  0  0  0  0
  130.8283  122.8841   61.3657 H   0  0  0  0  0  0  0  0  0  0  0  0
  129.6443  121.7834   62.2152 H   0  0  0  0  0  0  0  0  0  0  0  0
  130.1539  122.3822   59.1191 H   0  0  0  0  0  0  0  0  0  0  0  0
  128.4631  122.6856   57.3075 H   0  0  0  0  0  0  0  0  0  0  0  0
  126.1656  123.4579   57.8776 H   0  0  0  0  0  0  0  0  0  0  0  0
  125.5382  123.9160   60.2436 H   0  0  0  0  0  0  0  0  0  0  0  0
  127.2230  123.6061   62.0563 H   0  0  0  0  0  0  0  0  0  0  0  0
  131.4386  128.9375   70.0389 H   0  0  0  0  0  0  0  0  0  0  0  0
  131.4070  129.6910   72.4063 H   0  0  0  0  0  0  0  0  0  0  0  0
  129.3389  129.4253   73.7686 H   0  0  0  0  0  0  0  0  0  0  0  0
  127.3028  128.4011   72.7688 H   0  0  0  0  0  0  0  0  0  0  0  0
  127.3289  127.6447   70.4023 H   0  0  0  0  0  0  0  0  0  0  0  0
  128.6777  129.6403   67.7807 H   0  0  0  0  0  0  0  0  0  0  0  0
  1  2  1  0
  2  3  2  0
  3  4  1  0
  4  5  2  0
  4  6  1  0
  6  7  1  0
  7  8  1  0
  8  9  2  0
  9 10  1  0
 10 11  2  0
 11 12  1  0
 12 13  2  0
  3 14  1  0
 14 15  1  0
 15 16  2  0
 16 17  1  0
 17 18  1  0
 18 19  2  0
 19 20  1  0
 20 21  2  0
 21 22  1  0
 22 23  2  0
 17 24  2  0
 24 25  1  0
 25 26  1  0
 26 27  1  0
 26 28  1  0
 26 29  1  0
 25 30  2  0
 30  2  1  0
 13  8  1  0
 30 15  1  0
 23 18  1  0
  1 31  1  0
  1 32  1  0
  6 33  1  0
  7 34  1  0
  7 35  1  0
  9 36  1  0
 10 37  1  0
 11 38  1  0
 12 39  1  0
 13 40  1  0
 19 41  1  0
 20 42  1  0
 21 43  1  0
 22 44  1  0
 23 45  1  0
 24 46  1  0
M  END
>  <Binding energies>  (1) 
[-7.37]

>  <Ligand effiencies>  (1) 
[-0.22333333333333333]

>  <Interactions>  (1) 
["H-A:TYR:484:OH:4343, H-A:GLU:543:OE2:4905, V-A:GLU:543:CD:4903, V-A:GLU:543:CG:4902, V-A:GLY:544:C:4907, V-A:GLU:543:CB:4901, V-B:GLU:543:CG:9875, V-A:HIS:456:CE1:4064, V-A:GLY:544:CA:4909, V-B:HIS:456:CE1:9037, H-A:GLU:543:OE1:4904, V-B:GLU:543:CD:9876, V-A:GLU:543:C:4897, V-B:GLU:543:CB:9874, H-B:GLU:543:OE2:9878, V-A:TYR:484:CE1:4340, V-A:TYR:484:CZ:4342, V-B:ALA:541:CB:9860, V-B:HIS:456:CD2:9035, H-A:HIS:456:NE2:4065, V-B:PRO:540:CB:9853, V-B:PRO:540:CA:9851, V-A:LYS:547:CE:4945, V-B:TYR:539:C:9835, V-B:PRO:540:N:9852"]

$$$$
4ch_Grossjean_2025
     RDKit          3D

 58 61  0  0  0  0  0  0  0  0999 V2000
  129.9770  122.5790   62.3280 C   0  0  0  0  0  0  0  0  0  0  0  0
  131.3230  122.8490   62.7050 O   0  0  0  0  0  0  0  0  0  0  0  0
  131.5740  123.7120   63.7560 C   0  0  0  0  0  0  0  0  0  0  0  0
  130.5730  124.2620   64.5740 C   0  0  0  0  0  0  0  0  0  0  0  0
  130.9000  125.1260   65.6200 C   0  0  0  0  0  0  0  0  0  0  0  0
  129.7980  125.7360   66.4800 C   0  0  0  0  0  0  0  0  0  0  0  0
  129.1170  126.8750   65.8650 N   0  0  0  0  0  0  0  0  0  0  0  0
  128.1060  127.5770   66.4180 C   0  0  0  0  0  0  0  0  0  0  0  0
  127.6660  127.3300   67.5430 O   0  0  0  0  0  0  0  0  0  0  0  0
  127.5780  128.6820   65.6160 C   0  0  0  0  0  0  0  0  0  0  0  0
  128.6320  130.0100   65.1430 S   0  0  0  0  0  0  0  0  0  0  0  0
  127.3330  130.7890   64.2740 C   0  0  0  0  0  0  0  0  0  0  0  0
  127.5140  131.9470   63.6430 N   0  0  0  0  0  0  0  0  0  0  0  0
  126.4460  132.4740   62.9900 C   0  0  0  0  0  0  0  0  0  0  0  0
  126.6830  133.7840   62.2940 C   0  0  0  0  0  0  0  0  0  0  0  0
  127.7850  134.5870   62.6290 C   0  0  0  0  0  0  0  0  0  0  0  0
  128.0100  135.8030   61.9880 C   0  0  0  0  0  0  0  0  0  0  0  0
  127.1320  136.2350   61.0000 C   0  0  0  0  0  0  0  0  0  0  0  0
  126.0300  135.4610   60.6510 C   0  0  0  0  0  0  0  0  0  0  0  0
  125.8080  134.2470   61.2960 C   0  0  0  0  0  0  0  0  0  0  0  0
  125.1980  131.8450   62.9870 C   0  0  0  0  0  0  0  0  0  0  0  0
  124.9930  130.6230   63.6500 C   0  0  0  0  0  0  0  0  0  0  0  0
  123.6000  129.9880   63.6080 C   0  0  0  0  0  0  0  0  0  0  0  0
  123.1490  129.6320   64.8130 F   0  0  0  0  0  0  0  0  0  0  0  0
  122.7250  130.8520   63.0940 F   0  0  0  0  0  0  0  0  0  0  0  0
  123.6270  128.8900   62.8530 F   0  0  0  0  0  0  0  0  0  0  0  0
  126.1100  130.0560   64.3280 C   0  0  0  0  0  0  0  0  0  0  0  0
  126.2860  128.8460   65.0950 C   0  0  0  0  0  0  0  0  0  0  0  0
  125.2730  127.9440   65.3030 N   0  0  0  0  0  0  0  0  0  0  0  0
  132.2350  125.4610   65.8460 C   0  0  0  0  0  0  0  0  0  0  0  0
  133.2560  124.9270   65.0420 C   0  0  0  0  0  0  0  0  0  0  0  0
  134.5990  125.2130   65.2090 O   0  0  0  0  0  0  0  0  0  0  0  0
  135.1850  125.0900   66.5010 C   0  0  0  0  0  0  0  0  0  0  0  0
  132.9120  124.0480   64.0050 C   0  0  0  0  0  0  0  0  0  0  0  0
  133.8990  123.5300   63.2020 O   0  0  0  0  0  0  0  0  0  0  0  0
  133.8630  124.0020   61.8620 C   0  0  0  0  0  0  0  0  0  0  0  0
  129.3611  122.4554   63.2310 H   0  0  0  0  0  0  0  0  0  0  0  0
  129.5883  123.4171   61.7309 H   0  0  0  0  0  0  0  0  0  0  0  0
  129.9416  121.6559   61.7309 H   0  0  0  0  0  0  0  0  0  0  0  0
  129.5189  124.0086   64.3878 H   0  0  0  0  0  0  0  0  0  0  0  0
  129.0494  124.9565   66.6850 H   0  0  0  0  0  0  0  0  0  0  0  0
  130.2824  126.1133   67.3927 H   0  0  0  0  0  0  0  0  0  0  0  0
  129.3910  127.0980   64.9180 H   0  0  0  0  0  0  0  0  0  0  0  0
  128.4821  134.2503   63.4105 H   0  0  0  0  0  0  0  0  0  0  0  0
  128.8789  136.4192   62.2623 H   0  0  0  0  0  0  0  0  0  0  0  0
  127.3098  137.1941   60.4916 H   0  0  0  0  0  0  0  0  0  0  0  0
  125.3374  135.8063   59.8693 H   0  0  0  0  0  0  0  0  0  0  0  0
  124.9331  133.6401   61.0199 H   0  0  0  0  0  0  0  0  0  0  0  0
  124.3587  132.3163   62.4546 H   0  0  0  0  0  0  0  0  0  0  0  0
  125.2660  127.0370   64.8580 H   0  0  0  0  0  0  0  0  0  0  0  0
  124.4980  128.1570   65.9150 H   0  0  0  0  0  0  0  0  0  0  0  0
  132.4914  126.1513   66.6632 H   0  0  0  0  0  0  0  0  0  0  0  0
  134.4150  125.2516   67.2698 H   0  0  0  0  0  0  0  0  0  0  0  0
  135.6118  124.0827   66.6156 H   0  0  0  0  0  0  0  0  0  0  0  0
  135.9808  125.8407   66.6156 H   0  0  0  0  0  0  0  0  0  0  0  0
  133.7793  125.0988   61.8617 H   0  0  0  0  0  0  0  0  0  0  0  0
  134.7864  123.7046   61.3435 H   0  0  0  0  0  0  0  0  0  0  0  0
  132.9954  123.5680   61.3435 H   0  0  0  0  0  0  0  0  0  0  0  0
  1  2  1  0
  2  3  1  0
  3  4  2  0
  4  5  1  0
  5  6  1  0
  6  7  1  0
  7  8  1  0
  8  9  2  0
  8 10  1  0
 10 11  1  0
 11 12  1  0
 12 13  2  0
 13 14  1  0
 14 15  1  0
 15 16  2  0
 16 17  1  0
 17 18  2  0
 18 19  1  0
 19 20  2  0
 14 21  2  0
 21 22  1  0
 22 23  1  0
 23 24  1  0
 23 25  1  0
 23 26  1  0
 22 27  2  0
 27 28  1  0
 28 29  1  0
  5 30  2  0
 30 31  1  0
 31 32  1  0
 32 33  1  0
 31 34  2  0
 34 35  1  0
 35 36  1  0
 34  3  1  0
 28 10  2  0
 27 12  1  0
 20 15  1  0
  1 37  1  0
  1 38  1  0
  1 39  1  0
  4 40  1  0
  6 41  1  0
  6 42  1  0
  7 43  1  0
 16 44  1  0
 17 45  1  0
 18 46  1  0
 19 47  1  0
 20 48  1  0
 21 49  1  0
 29 50  1  0
 29 51  1  0
 30 52  1  0
 33 53  1  0
 33 54  1  0
 33 55  1  0
 36 56  1  0
 36 57  1  0
 36 58  1  0
M  END
>  <Binding energies>  (1) 
[-6.6]

>  <Ligand effiencies>  (1) 
[-0.1692307692307692]

>  <Interactions>  (1) 
["V-A:ARG:545:CD:4918, H-A:TYR:484:OH:4343, V-A:ARG:545:CZ:4921, V-A:ARG:545:CG:4917, H-A:GLY:454:N:4045, V-A:ASP:366:CG:3208, V-A:GLU:543:CD:4903, V-A:GLU:543:CG:4902, V-A:GLU:543:CB:4901, V-B:GLU:543:CG:9875, H-A:GLU:543:OE1:4904, V-B:GLU:543:CD:9876, V-B:GLU:543:CB:9874, H-B:GLU:543:OE2:9878, H-B:GLU:543:OE1:9877, V-B:ALA:541:CB:9860, V-B:ARG:545:CZ:9894, H-B:TYR:484:OH:9315, V-A:PRO:540:C:4876, V-B:ARG:545:CD:9891, V-A:ALA:541:CB:4887, V-A:ALA:541:CA:4885, V-B:ARG:545:CG:9890, V-A:TYR:539:CE2:4871, V-A:ILE:369:CD1:3234, V-A:HIS:456:CD2:4063, V-A:GLY:453:C:4037, V-A:GLY:453:CA:4039, H-A:ARG:545:NE:4919, V-B:ASP:366:CG:8180, V-B:ILE:369:CD1:8206, V-B:LEU:475:CD2:9226, V-A:TYR:539:CD2:4869, V-B:GLY:453:CA:9011, H-A:ARG:545:NH1:4922, V-B:TRP:381:CH2:8339, V-B:TRP:381:CZ2:8337, V-B:GLY:453:C:9009, V-B:LEU:475:CD1:9225, V-B:PRO:482:CG:9294, V-B:PRO:482:CB:9293, V-B:TRP:381:CZ3:8338"]

$$$$
4ci_Grossjean_2025
     RDKit          3D

 39 42  0  0  0  0  0  0  0  0999 V2000
  129.3790  126.4150   63.7290 N   0  0  0  0  0  0  0  0  0  0  0  0
  129.6490  125.9450   64.9880 C   0  0  0  0  0  0  0  0  0  0  0  0
  130.1080  124.6410   65.2400 C   0  0  0  0  0  0  0  0  0  0  0  0
  130.3930  123.5720   64.2800 C   0  0  0  0  0  0  0  0  0  0  0  0
  131.4350  122.9160   64.3590 O   0  0  0  0  0  0  0  0  0  0  0  0
  129.4500  123.3800   63.3230 N   0  0  0  0  0  0  0  0  0  0  0  0
  129.4660  122.4460   62.2950 C   0  0  0  0  0  0  0  0  0  0  0  0
  130.5950  121.6980   61.9610 C   0  0  0  0  0  0  0  0  0  0  0  0
  130.2010  120.9060   60.9090 C   0  0  0  0  0  0  0  0  0  0  0  0
  128.9020  121.1630   60.6220 O   0  0  0  0  0  0  0  0  0  0  0  0
  128.4480  122.1410   61.5080 N   0  0  0  0  0  0  0  0  0  0  0  0
  130.3620  124.3780   66.9640 S   0  0  0  0  0  0  0  0  0  0  0  0
  129.8450  126.0060   67.3350 C   0  0  0  0  0  0  0  0  0  0  0  0
  129.8110  126.4570   68.5870 N   0  0  0  0  0  0  0  0  0  0  0  0
  129.3990  127.7370   68.7760 C   0  0  0  0  0  0  0  0  0  0  0  0
  129.3670  128.2150   70.2000 C   0  0  0  0  0  0  0  0  0  0  0  0
  128.2110  128.0650   70.9840 C   0  0  0  0  0  0  0  0  0  0  0  0
  128.1750  128.5050   72.3050 C   0  0  0  0  0  0  0  0  0  0  0  0
  129.2990  129.1060   72.8620 C   0  0  0  0  0  0  0  0  0  0  0  0
  130.4550  129.2720   72.1070 C   0  0  0  0  0  0  0  0  0  0  0  0
  130.4860  128.8320   70.7870 C   0  0  0  0  0  0  0  0  0  0  0  0
  129.0060  128.5520   67.7090 C   0  0  0  0  0  0  0  0  0  0  0  0
  129.0380  128.0870   66.3840 C   0  0  0  0  0  0  0  0  0  0  0  0
  128.5940  129.0340   65.2630 C   0  0  0  0  0  0  0  0  0  0  0  0
  129.3780  128.9730   64.1850 F   0  0  0  0  0  0  0  0  0  0  0  0
  127.3580  128.7210   64.8750 F   0  0  0  0  0  0  0  0  0  0  0  0
  128.6130  130.2920   65.7020 F   0  0  0  0  0  0  0  0  0  0  0  0
  129.4810  126.7500   66.1740 C   0  0  0  0  0  0  0  0  0  0  0  0
  129.8820  127.1960   63.3300 H   0  0  0  0  0  0  0  0  0  0  0  0
  128.6670  125.9890   63.1510 H   0  0  0  0  0  0  0  0  0  0  0  0
  128.6400  123.9810   63.3490 H   0  0  0  0  0  0  0  0  0  0  0  0
  131.5862  121.7341   62.4366 H   0  0  0  0  0  0  0  0  0  0  0  0
  130.8385  120.1795   60.3839 H   0  0  0  0  0  0  0  0  0  0  0  0
  127.3191  127.5920   70.5472 H   0  0  0  0  0  0  0  0  0  0  0  0
  127.2619  128.3778   72.9050 H   0  0  0  0  0  0  0  0  0  0  0  0
  129.2733  129.4520   73.9058 H   0  0  0  0  0  0  0  0  0  0  0  0
  131.3411  129.7490   72.5512 H   0  0  0  0  0  0  0  0  0  0  0  0
  131.4014  128.9692   70.1928 H   0  0  0  0  0  0  0  0  0  0  0  0
  128.6650  129.5779   67.9118 H   0  0  0  0  0  0  0  0  0  0  0  0
  1  2  1  0
  2  3  2  0
  3  4  1  0
  4  5  2  0
  4  6  1  0
  6  7  1  0
  7  8  1  0
  8  9  2  0
  9 10  1  0
 10 11  1  0
  3 12  1  0
 12 13  1  0
 13 14  2  0
 14 15  1  0
 15 16  1  0
 16 17  2  0
 17 18  1  0
 18 19  2  0
 19 20  1  0
 20 21  2  0
 15 22  2  0
 22 23  1  0
 23 24  1  0
 24 25  1  0
 24 26  1  0
 24 27  1  0
 23 28  2  0
 28  2  1  0
 11  7  2  0
 28 13  1  0
 21 16  1  0
  1 29  1  0
  1 30  1  0
  6 31  1  0
  8 32  1  0
  9 33  1  0
 17 34  1  0
 18 35  1  0
 19 36  1  0
 20 37  1  0
 21 38  1  0
 22 39  1  0
M  END
>  <Binding energies>  (1) 
[-6.84]

>  <Ligand effiencies>  (1) 
[-0.22064516129032258]

>  <Interactions>  (1) 
["H-A:TYR:484:OH:4343, H-A:GLU:543:OE2:4905, V-A:GLU:543:CD:4903, V-A:GLU:543:CG:4902, V-A:GLY:544:C:4907, V-A:GLU:543:CB:4901, V-B:GLU:543:CG:9875, V-A:HIS:456:CE1:4064, V-A:GLY:544:CA:4909, V-B:HIS:456:CE1:9037, H-A:GLU:543:OE1:4904, V-B:GLU:543:CD:9876, V-A:GLU:543:C:4897, V-B:GLU:543:CB:9874, H-B:GLU:543:OE2:9878, V-A:LEU:475:CD2:4254, V-A:TYR:484:CE1:4340, V-A:TYR:484:CZ:4342, V-B:ALA:541:CB:9860, V-B:HIS:456:CD2:9035, H-A:HIS:456:NE2:4065, V-A:LYS:547:CE:4945, H-B:ALA:541:N:9859"]

$$$$
4cj_Grossjean_2025
     RDKit          3D

 39 42  0  0  0  0  0  0  0  0999 V2000
  129.3760  126.4930   63.6020 N   0  0  0  0  0  0  0  0  0  0  0  0
  129.6290  126.0070   64.8590 C   0  0  0  0  0  0  0  0  0  0  0  0
  130.0850  124.7010   65.1010 C   0  0  0  0  0  0  0  0  0  0  0  0
  130.3790  123.6420   64.1320 C   0  0  0  0  0  0  0  0  0  0  0  0
  131.2520  122.8010   64.3620 O   0  0  0  0  0  0  0  0  0  0  0  0
  129.6420  123.6720   62.9940 N   0  0  0  0  0  0  0  0  0  0  0  0
  129.7220  122.7900   61.9250 C   0  0  0  0  0  0  0  0  0  0  0  0
  129.3360  122.9900   60.6830 N   0  0  0  0  0  0  0  0  0  0  0  0
  129.5670  121.9340   59.9290 C   0  0  0  0  0  0  0  0  0  0  0  0
  130.1550  120.8420   60.5600 C   0  0  0  0  0  0  0  0  0  0  0  0
  130.4180  121.2310   62.2340 S   0  0  0  0  0  0  0  0  0  0  0  0
  130.3180  124.4170   66.8240 S   0  0  0  0  0  0  0  0  0  0  0  0
  129.8020  126.0420   67.2070 C   0  0  0  0  0  0  0  0  0  0  0  0
  129.7610  126.4800   68.4630 N   0  0  0  0  0  0  0  0  0  0  0  0
  129.3550  127.7600   68.6630 C   0  0  0  0  0  0  0  0  0  0  0  0
  129.3330  128.2260   70.0900 C   0  0  0  0  0  0  0  0  0  0  0  0
  128.1780  128.0800   70.8750 C   0  0  0  0  0  0  0  0  0  0  0  0
  128.1480  128.5150   72.1980 C   0  0  0  0  0  0  0  0  0  0  0  0
  129.2780  129.1070   72.7550 C   0  0  0  0  0  0  0  0  0  0  0  0
  130.4330  129.2660   71.9990 C   0  0  0  0  0  0  0  0  0  0  0  0
  130.4580  128.8280   70.6780 C   0  0  0  0  0  0  0  0  0  0  0  0
  128.9690  128.5860   67.6020 C   0  0  0  0  0  0  0  0  0  0  0  0
  129.0070  128.1350   66.2730 C   0  0  0  0  0  0  0  0  0  0  0  0
  128.5730  129.0940   65.1590 C   0  0  0  0  0  0  0  0  0  0  0  0
  129.3700  129.0500   64.0900 F   0  0  0  0  0  0  0  0  0  0  0  0
  127.3420  128.7840   64.7530 F   0  0  0  0  0  0  0  0  0  0  0  0
  128.5830  130.3480   65.6130 F   0  0  0  0  0  0  0  0  0  0  0  0
  129.4500  126.7990   66.0510 C   0  0  0  0  0  0  0  0  0  0  0  0
  128.6360  126.1200   63.0220 H   0  0  0  0  0  0  0  0  0  0  0  0
  129.9210  127.2500   63.2120 H   0  0  0  0  0  0  0  0  0  0  0  0
  128.9650  124.4150   62.9000 H   0  0  0  0  0  0  0  0  0  0  0  0
  129.3092  121.9168   58.8598 H   0  0  0  0  0  0  0  0  0  0  0  0
  130.4118  119.8873   60.0778 H   0  0  0  0  0  0  0  0  0  0  0  0
  127.2822  127.6145   70.4381 H   0  0  0  0  0  0  0  0  0  0  0  0
  127.2356  128.3913   72.7998 H   0  0  0  0  0  0  0  0  0  0  0  0
  129.2565  129.4509   73.7996 H   0  0  0  0  0  0  0  0  0  0  0  0
  131.3234  129.7358   72.4424 H   0  0  0  0  0  0  0  0  0  0  0  0
  131.3749  128.9555   70.0839 H   0  0  0  0  0  0  0  0  0  0  0  0
  128.6285  129.6104   67.8134 H   0  0  0  0  0  0  0  0  0  0  0  0
  1  2  1  0
  2  3  2  0
  3  4  1  0
  4  5  2  0
  4  6  1  0
  6  7  1  0
  7  8  2  0
  8  9  1  0
  9 10  2  0
 10 11  1  0
  3 12  1  0
 12 13  1  0
 13 14  2  0
 14 15  1  0
 15 16  1  0
 16 17  2  0
 17 18  1  0
 18 19  2  0
 19 20  1  0
 20 21  2  0
 15 22  2  0
 22 23  1  0
 23 24  1  0
 24 25  1  0
 24 26  1  0
 24 27  1  0
 23 28  2  0
 28  2  1  0
 11  7  1  0
 28 13  1  0
 21 16  1  0
  1 29  1  0
  1 30  1  0
  6 31  1  0
  9 32  1  0
 10 33  1  0
 17 34  1  0
 18 35  1  0
 19 36  1  0
 20 37  1  0
 21 38  1  0
 22 39  1  0
M  END
>  <Binding energies>  (1) 
[-6.9]

>  <Ligand effiencies>  (1) 
[-0.22258064516129034]

>  <Interactions>  (1) 
["H-A:TYR:484:OH:4343, H-A:GLU:543:OE2:4905, V-A:GLU:543:CD:4903, V-A:GLU:543:CG:4902, V-A:GLY:544:C:4907, V-A:GLU:543:CB:4901, V-B:GLU:543:CG:9875, V-A:HIS:456:CE1:4064, V-A:GLY:544:CA:4909, V-B:HIS:456:CE1:9037, H-A:GLU:543:OE1:4904, V-B:GLU:543:CD:9876, V-A:GLU:543:C:4897, V-B:GLU:543:CB:9874, H-B:GLU:543:OE2:9878, V-A:LEU:475:CD2:4254, V-B:TYR:539:CD2:9842, V-A:TYR:484:CE1:4340, V-A:TYR:484:CZ:4342, V-B:ALA:541:CB:9860, V-B:HIS:456:CD2:9035, H-A:HIS:456:NE2:4065, V-A:LYS:547:CE:4945"]

$$$$
4ck_Grossjean_2025
     RDKit          3D

 57 59  0  0  0  0  0  0  0  0999 V2000
  134.5060  125.1280   66.2620 C   0  0  0  0  0  0  0  0  0  0  0  0
  134.4650  125.1500   64.8440 O   0  0  0  0  0  0  0  0  0  0  0  0
  133.1920  125.5040   64.3210 C   0  0  0  0  0  0  0  0  0  0  0  0
  133.0820  124.9910   62.8800 C   0  0  0  0  0  0  0  0  0  0  0  0
  131.8970  125.5090   62.2920 O   0  0  0  0  0  0  0  0  0  0  0  0
  131.5620  124.8950   61.0540 C   0  0  0  0  0  0  0  0  0  0  0  0
  130.2610  125.5100   60.5240 C   0  0  0  0  0  0  0  0  0  0  0  0
  129.2160  124.5550   60.6570 O   0  0  0  0  0  0  0  0  0  0  0  0
  129.6480  123.2080   60.5160 C   0  0  0  0  0  0  0  0  0  0  0  0
  129.7520  122.5520   61.9010 C   0  0  0  0  0  0  0  0  0  0  0  0
  129.6380  123.5310   62.9830 N   0  0  0  0  0  0  0  0  0  0  0  0
  130.3580  123.5360   64.1240 C   0  0  0  0  0  0  0  0  0  0  0  0
  131.2340  122.7020   64.3610 O   0  0  0  0  0  0  0  0  0  0  0  0
  130.0470  124.6060   65.0720 C   0  0  0  0  0  0  0  0  0  0  0  0
  130.2680  124.3470   66.8000 S   0  0  0  0  0  0  0  0  0  0  0  0
  129.7730  125.9860   67.1520 C   0  0  0  0  0  0  0  0  0  0  0  0
  129.7280  126.4460   68.4000 N   0  0  0  0  0  0  0  0  0  0  0  0
  129.3300  127.7330   68.5750 C   0  0  0  0  0  0  0  0  0  0  0  0
  129.3070  128.2260   69.9930 C   0  0  0  0  0  0  0  0  0  0  0  0
  128.1620  128.0680   70.7910 C   0  0  0  0  0  0  0  0  0  0  0  0
  128.1330  128.5260   72.1070 C   0  0  0  0  0  0  0  0  0  0  0  0
  129.2540  129.1490   72.6450 C   0  0  0  0  0  0  0  0  0  0  0  0
  130.4030  129.3140   71.8780 C   0  0  0  0  0  0  0  0  0  0  0  0
  130.4270  128.8540   70.5640 C   0  0  0  0  0  0  0  0  0  0  0  0
  128.9880  128.5550   67.4960 C   0  0  0  0  0  0  0  0  0  0  0  0
  129.0320  128.0800   66.1760 C   0  0  0  0  0  0  0  0  0  0  0  0
  128.6400  129.0330   65.0400 C   0  0  0  0  0  0  0  0  0  0  0  0
  129.4450  128.9440   63.9800 F   0  0  0  0  0  0  0  0  0  0  0  0
  127.4040  128.7580   64.6270 F   0  0  0  0  0  0  0  0  0  0  0  0
  128.6890  130.2930   65.4740 F   0  0  0  0  0  0  0  0  0  0  0  0
  129.4450  126.7310   65.9800 C   0  0  0  0  0  0  0  0  0  0  0  0
  129.6200  125.9150   64.8030 C   0  0  0  0  0  0  0  0  0  0  0  0
  129.3830  126.3810   63.5350 N   0  0  0  0  0  0  0  0  0  0  0  0
  133.6032  125.6124   66.6625 H   0  0  0  0  0  0  0  0  0  0  0  0
  134.5486  124.0859   66.6115 H   0  0  0  0  0  0  0  0  0  0  0  0
  135.3979  125.6687   66.6115 H   0  0  0  0  0  0  0  0  0  0  0  0
  132.4015  125.0486   64.9356 H   0  0  0  0  0  0  0  0  0  0  0  0
  133.0764  126.5978   64.3351 H   0  0  0  0  0  0  0  0  0  0  0  0
  133.9564  125.3250   62.3022 H   0  0  0  0  0  0  0  0  0  0  0  0
  133.0463  123.8916   62.8794 H   0  0  0  0  0  0  0  0  0  0  0  0
  132.3714  125.0636   60.3284 H   0  0  0  0  0  0  0  0  0  0  0  0
  131.4271  123.8133   61.2016 H   0  0  0  0  0  0  0  0  0  0  0  0
  130.0145  126.4112   61.1046 H   0  0  0  0  0  0  0  0  0  0  0  0
  130.3820  125.7872   59.4664 H   0  0  0  0  0  0  0  0  0  0  0  0
  128.9231  122.6535   59.9019 H   0  0  0  0  0  0  0  0  0  0  0  0
  130.6339  123.1899   60.0285 H   0  0  0  0  0  0  0  0  0  0  0  0
  128.9443  121.8126   62.0050 H   0  0  0  0  0  0  0  0  0  0  0  0
  130.7407  122.0759   61.9773 H   0  0  0  0  0  0  0  0  0  0  0  0
  129.0010  124.2970   62.8200 H   0  0  0  0  0  0  0  0  0  0  0  0
  127.2734  127.5746   70.3703 H   0  0  0  0  0  0  0  0  0  0  0  0
  127.2274  128.3953   72.7175 H   0  0  0  0  0  0  0  0  0  0  0  0
  129.2321  129.5133   73.6827 H   0  0  0  0  0  0  0  0  0  0  0  0
  131.2883  129.8055   72.3076 H   0  0  0  0  0  0  0  0  0  0  0  0
  131.3386  128.9845   69.9624 H   0  0  0  0  0  0  0  0  0  0  0  0
  128.6787  129.5934   67.6857 H   0  0  0  0  0  0  0  0  0  0  0  0
  128.4480  126.4740   63.1630 H   0  0  0  0  0  0  0  0  0  0  0  0
  130.1420  126.6550   62.9250 H   0  0  0  0  0  0  0  0  0  0  0  0
  1  2  1  0
  2  3  1  0
  3  4  1  0
  4  5  1  0
  5  6  1  0
  6  7  1  0
  7  8  1  0
  8  9  1  0
  9 10  1  0
 10 11  1  0
 11 12  1  0
 12 13  2  0
 12 14  1  0
 14 15  1  0
 15 16  1  0
 16 17  2  0
 17 18  1  0
 18 19  1  0
 19 20  2  0
 20 21  1  0
 21 22  2  0
 22 23  1  0
 23 24  2  0
 18 25  2  0
 25 26  1  0
 26 27  1  0
 27 28  1  0
 27 29  1  0
 27 30  1  0
 26 31  2  0
 31 32  1  0
 32 33  1  0
 32 14  2  0
 31 16  1  0
 24 19  1  0
  1 34  1  0
  1 35  1  0
  1 36  1  0
  3 37  1  0
  3 38  1  0
  4 39  1  0
  4 40  1  0
  6 41  1  0
  6 42  1  0
  7 43  1  0
  7 44  1  0
  9 45  1  0
  9 46  1  0
 10 47  1  0
 10 48  1  0
 11 49  1  0
 20 50  1  0
 21 51  1  0
 22 52  1  0
 23 53  1  0
 24 54  1  0
 25 55  1  0
 33 56  1  0
 33 57  1  0
M  END
>  <Binding energies>  (1) 
[-5.54]

>  <Ligand effiencies>  (1) 
[-0.15388888888888888]

>  <Interactions>  (1) 
["V-A:ARG:545:CD:4918, H-A:TYR:484:OH:4343, V-A:ARG:545:CZ:4921, V-A:ARG:545:CG:4917, H-A:GLY:454:N:4045, V-A:ASP:366:CG:3208, V-A:GLU:543:CD:4903, V-A:GLU:543:CG:4902, V-A:GLY:544:C:4907, V-A:GLU:543:CB:4901, V-B:GLU:543:CG:9875, V-A:HIS:456:CE1:4064, V-A:GLY:544:CA:4909, V-B:HIS:456:CE1:9037, V-B:GLU:543:CD:9876, V-A:GLU:543:C:4897, V-B:GLU:543:CB:9874, H-B:GLU:543:OE2:9878, V-A:TYR:484:CE1:4340, V-A:TYR:484:CZ:4342, V-B:ALA:541:CB:9860, V-A:HIS:456:CD2:4063, V-A:GLY:453:CA:4039, V-B:HIS:456:CD2:9035, H-A:HIS:456:NE2:4065, H-A:ARG:545:NE:4919, V-A:LYS:547:CE:4945, H-A:ARG:545:NH1:4922"]

$$$$
4dd_Grossjean_2025
     RDKit          3D

 43 46  0  0  0  0  0  0  0  0999 V2000
  128.7790  129.1240   65.3820 C   0  0  0  0  0  0  0  0  0  0  0  0
  129.1260  128.1580   66.5050 C   0  0  0  0  0  0  0  0  0  0  0  0
  129.0720  128.6300   67.8220 C   0  0  0  0  0  0  0  0  0  0  0  0
  129.3790  127.7900   68.9000 C   0  0  0  0  0  0  0  0  0  0  0  0
  129.3360  128.2700   70.3210 C   0  0  0  0  0  0  0  0  0  0  0  0
  130.4550  128.8820   70.9090 C   0  0  0  0  0  0  0  0  0  0  0  0
  130.4200  129.3320   72.2260 C   0  0  0  0  0  0  0  0  0  0  0  0
  129.2620  129.1750   72.9780 C   0  0  0  0  0  0  0  0  0  0  0  0
  128.1380  128.5740   72.4210 C   0  0  0  0  0  0  0  0  0  0  0  0
  128.1760  128.1270   71.1030 C   0  0  0  0  0  0  0  0  0  0  0  0
  129.7520  126.4940   68.7180 N   0  0  0  0  0  0  0  0  0  0  0  0
  129.7970  126.0420   67.4660 C   0  0  0  0  0  0  0  0  0  0  0  0
  130.2420  124.3930   67.0890 S   0  0  0  0  0  0  0  0  0  0  0  0
  130.0380  124.6820   65.3600 C   0  0  0  0  0  0  0  0  0  0  0  0
  130.2610  123.6030   64.3970 C   0  0  0  0  0  0  0  0  0  0  0  0
  130.8710  122.5840   64.7260 O   0  0  0  0  0  0  0  0  0  0  0  0
  129.7490  123.8140   63.1600 N   0  0  0  0  0  0  0  0  0  0  0  0
  129.8330  123.0130   62.0060 C   0  0  0  0  0  0  0  0  0  0  0  0
  130.8670  122.0710   61.9900 C   0  0  0  0  0  0  0  0  0  0  0  0
  131.0250  121.2210   60.8990 C   0  0  0  0  0  0  0  0  0  0  0  0
  130.1430  121.3060   59.8240 C   0  0  0  0  0  0  0  0  0  0  0  0
  129.1020  122.2310   59.8330 C   0  0  0  0  0  0  0  0  0  0  0  0
  128.9420  123.0830   60.9220 C   0  0  0  0  0  0  0  0  0  0  0  0
  129.6470  126.0070   65.1130 C   0  0  0  0  0  0  0  0  0  0  0  0
  129.4200  126.5150   63.8570 N   0  0  0  0  0  0  0  0  0  0  0  0
  129.5000  126.8050   66.3010 C   0  0  0  0  0  0  0  0  0  0  0  0
  128.4366  130.0772   65.8110 H   0  0  0  0  0  0  0  0  0  0  0  0
  129.6700  129.3002   64.7615 H   0  0  0  0  0  0  0  0  0  0  0  0
  127.9795  128.6930   64.7615 H   0  0  0  0  0  0  0  0  0  0  0  0
  128.7846  129.6745   68.0127 H   0  0  0  0  0  0  0  0  0  0  0  0
  131.3747  129.0079   70.3189 H   0  0  0  0  0  0  0  0  0  0  0  0
  131.3058  129.8101   72.6697 H   0  0  0  0  0  0  0  0  0  0  0  0
  129.2341  129.5279   74.0195 H   0  0  0  0  0  0  0  0  0  0  0  0
  127.2230  128.4524   73.0193 H   0  0  0  0  0  0  0  0  0  0  0  0
  127.2840  127.6542   70.6662 H   0  0  0  0  0  0  0  0  0  0  0  0
  129.2160  124.6620   63.0390 H   0  0  0  0  0  0  0  0  0  0  0  0
  131.5581  122.0016   62.8430 H   0  0  0  0  0  0  0  0  0  0  0  0
  131.8427  120.4854   60.8858 H   0  0  0  0  0  0  0  0  0  0  0  0
  130.2700  120.6366   58.9604 H   0  0  0  0  0  0  0  0  0  0  0  0
  128.4079  122.2882   58.9816 H   0  0  0  0  0  0  0  0  0  0  0  0
  128.1177  123.8113   60.9339 H   0  0  0  0  0  0  0  0  0  0  0  0
  128.6870  126.1570   63.2620 H   0  0  0  0  0  0  0  0  0  0  0  0
  129.9810  127.2700   63.4880 H   0  0  0  0  0  0  0  0  0  0  0  0
  1  2  1  0
  2  3  2  0
  3  4  1  0
  4  5  1  0
  5  6  2  0
  6  7  1  0
  7  8  2  0
  8  9  1  0
  9 10  2  0
  4 11  2  0
 11 12  1  0
 12 13  1  0
 13 14  1  0
 14 15  1  0
 15 16  2  0
 15 17  1  0
 17 18  1  0
 18 19  2  0
 19 20  1  0
 20 21  2  0
 21 22  1  0
 22 23  2  0
 14 24  2  0
 24 25  1  0
 24 26  1  0
 26  2  1  0
 10  5  1  0
 26 12  2  0
 23 18  1  0
  1 27  1  0
  1 28  1  0
  1 29  1  0
  3 30  1  0
  6 31  1  0
  7 32  1  0
  8 33  1  0
  9 34  1  0
 10 35  1  0
 17 36  1  0
 19 37  1  0
 20 38  1  0
 21 39  1  0
 22 40  1  0
 23 41  1  0
 25 42  1  0
 25 43  1  0
M  END
>  <Binding energies>  (1) 
[-7.65]

>  <Ligand effiencies>  (1) 
[-0.2637931034482759]

>  <Interactions>  (1) 
["H-A:TYR:484:OH:4343, H-A:GLU:543:OE2:4905, V-A:GLU:543:CD:4903, V-A:GLU:543:CG:4902, V-A:GLY:544:C:4907, V-A:GLU:543:CB:4901, V-B:GLU:543:CG:9875, V-A:HIS:456:CE1:4064, V-A:GLY:544:CA:4909, V-B:HIS:456:CE1:9037, H-A:GLU:543:OE1:4904, V-B:GLU:543:CD:9876, V-A:GLU:543:C:4897, V-B:GLU:543:CB:9874, H-B:GLU:543:OE2:9878, V-A:LEU:475:CD2:4254, V-B:TYR:539:CD2:9842, V-A:TYR:484:CE1:4340, V-A:TYR:484:CZ:4342, V-B:TYR:539:CE2:9844, V-B:HIS:456:CD2:9035, H-A:HIS:456:NE2:4065, V-A:LYS:547:CE:4945"]

$$$$
4dg_Grossjean_2025
     RDKit          3D

 46 49  0  0  0  0  0  0  0  0999 V2000
  128.9500  128.9700   65.0500 C   0  0  0  0  0  0  0  0  0  0  0  0
  129.2580  128.0090   66.1880 C   0  0  0  0  0  0  0  0  0  0  0  0
  129.2020  128.4990   67.4980 C   0  0  0  0  0  0  0  0  0  0  0  0
  129.4750  127.6660   68.5900 C   0  0  0  0  0  0  0  0  0  0  0  0
  129.4210  128.1620   70.0080 C   0  0  0  0  0  0  0  0  0  0  0  0
  128.2570  128.0130   70.7800 C   0  0  0  0  0  0  0  0  0  0  0  0
  128.2010  128.4750   72.0930 C   0  0  0  0  0  0  0  0  0  0  0  0
  129.3110  129.0950   72.6550 C   0  0  0  0  0  0  0  0  0  0  0  0
  130.4760  129.2590   71.9120 C   0  0  0  0  0  0  0  0  0  0  0  0
  130.5280  128.7970   70.6000 C   0  0  0  0  0  0  0  0  0  0  0  0
  129.7860  126.3510   68.4300 N   0  0  0  0  0  0  0  0  0  0  0  0
  129.8410  125.8830   67.1830 C   0  0  0  0  0  0  0  0  0  0  0  0
  130.2350  124.2160   66.8360 S   0  0  0  0  0  0  0  0  0  0  0  0
  130.0770  124.4940   65.1020 C   0  0  0  0  0  0  0  0  0  0  0  0
  130.3420  123.4110   64.1570 C   0  0  0  0  0  0  0  0  0  0  0  0
  131.2210  122.5740   64.3690 O   0  0  0  0  0  0  0  0  0  0  0  0
  129.5940  123.4130   63.0340 N   0  0  0  0  0  0  0  0  0  0  0  0
  129.6700  122.4180   61.9640 C   0  0  0  0  0  0  0  0  0  0  0  0
  128.8050  122.7610   60.7560 C   0  0  0  0  0  0  0  0  0  0  0  0
  129.2860  122.5130   59.4660 C   0  0  0  0  0  0  0  0  0  0  0  0
  128.4870  122.7950   58.3620 C   0  0  0  0  0  0  0  0  0  0  0  0
  127.2080  123.3130   58.5500 C   0  0  0  0  0  0  0  0  0  0  0  0
  126.7160  123.5470   59.8320 C   0  0  0  0  0  0  0  0  0  0  0  0
  127.5140  123.2630   60.9370 C   0  0  0  0  0  0  0  0  0  0  0  0
  129.7480  125.8300   64.8280 C   0  0  0  0  0  0  0  0  0  0  0  0
  129.5770  126.3300   63.5620 N   0  0  0  0  0  0  0  0  0  0  0  0
  129.5950  126.6440   66.0040 C   0  0  0  0  0  0  0  0  0  0  0  0
  128.6389  129.9406   65.4638 H   0  0  0  0  0  0  0  0  0  0  0  0
  129.8495  129.1063   64.4316 H   0  0  0  0  0  0  0  0  0  0  0  0
  128.1389  128.5581   64.4316 H   0  0  0  0  0  0  0  0  0  0  0  0
  128.9399  129.5530   67.6721 H   0  0  0  0  0  0  0  0  0  0  0  0
  127.3753  127.5235   70.3406 H   0  0  0  0  0  0  0  0  0  0  0  0
  127.2813  128.3496   72.6832 H   0  0  0  0  0  0  0  0  0  0  0  0
  129.2682  129.4579   73.6925 H   0  0  0  0  0  0  0  0  0  0  0  0
  131.3519  129.7515   72.3594 H   0  0  0  0  0  0  0  0  0  0  0  0
  131.4505  128.9307   70.0160 H   0  0  0  0  0  0  0  0  0  0  0  0
  128.8400  124.0810   62.9640 H   0  0  0  0  0  0  0  0  0  0  0  0
  130.7162  122.3409   61.6332 H   0  0  0  0  0  0  0  0  0  0  0  0
  129.2930  121.4698   62.3748 H   0  0  0  0  0  0  0  0  0  0  0  0
  130.2940  122.0958   59.3245 H   0  0  0  0  0  0  0  0  0  0  0  0
  128.8640  122.6096   57.3454 H   0  0  0  0  0  0  0  0  0  0  0  0
  126.5793  123.5399   57.6764 H   0  0  0  0  0  0  0  0  0  0  0  0
  125.7033  123.9536   59.9705 H   0  0  0  0  0  0  0  0  0  0  0  0
  127.1278  123.4339   61.9527 H   0  0  0  0  0  0  0  0  0  0  0  0
  130.0540  127.1620   63.2470 H   0  0  0  0  0  0  0  0  0  0  0  0
  128.9680  125.8730   62.8970 H   0  0  0  0  0  0  0  0  0  0  0  0
  1  2  1  0
  2  3  2  0
  3  4  1  0
  4  5  1  0
  5  6  2  0
  6  7  1  0
  7  8  2  0
  8  9  1  0
  9 10  2  0
  4 11  2  0
 11 12  1  0
 12 13  1  0
 13 14  1  0
 14 15  1  0
 15 16  2  0
 15 17  1  0
 17 18  1  0
 18 19  1  0
 19 20  2  0
 20 21  1  0
 21 22  2  0
 22 23  1  0
 23 24  2  0
 14 25  2  0
 25 26  1  0
 25 27  1  0
 27  2  1  0
 10  5  1  0
 27 12  2  0
 24 19  1  0
  1 28  1  0
  1 29  1  0
  1 30  1  0
  3 31  1  0
  6 32  1  0
  7 33  1  0
  8 34  1  0
  9 35  1  0
 10 36  1  0
 17 37  1  0
 18 38  1  0
 18 39  1  0
 20 40  1  0
 21 41  1  0
 22 42  1  0
 23 43  1  0
 24 44  1  0
 26 45  1  0
 26 46  1  0
M  END
>  <Binding energies>  (1) 
[-7.72]

>  <Ligand effiencies>  (1) 
[-0.2573333333333333]

>  <Interactions>  (1) 
["H-A:TYR:484:OH:4343, H-A:GLU:543:OE2:4905, V-A:GLU:543:CD:4903, V-A:GLU:543:CG:4902, V-A:GLY:544:C:4907, V-A:GLU:543:CB:4901, V-B:GLU:543:CG:9875, V-A:HIS:456:CE1:4064, V-A:GLY:544:CA:4909, V-B:HIS:456:CE1:9037, H-A:GLU:543:OE1:4904, V-B:GLU:543:CD:9876, V-A:GLU:543:C:4897, V-B:GLU:543:CB:9874, H-B:GLU:543:OE2:9878, V-A:TYR:484:CE1:4340, V-A:TYR:484:CZ:4342, V-B:ALA:541:CB:9860, V-B:HIS:456:CD2:9035, H-A:HIS:456:NE2:4065, V-B:PRO:540:CB:9853, V-B:PRO:540:CA:9851, V-A:LYS:547:CE:4945, V-B:TYR:539:C:9835, V-B:PRO:540:N:9852"]

$$$$
4dj_Grossjean_2025
     RDKit          3D

 39 42  0  0  0  0  0  0  0  0999 V2000
  128.6260  129.0600   65.1870 C   0  0  0  0  0  0  0  0  0  0  0  0
  129.0360  128.1070   66.3000 C   0  0  0  0  0  0  0  0  0  0  0  0
  128.9840  128.5720   67.6190 C   0  0  0  0  0  0  0  0  0  0  0  0
  129.3500  127.7460   68.6890 C   0  0  0  0  0  0  0  0  0  0  0  0
  129.2990  128.2160   70.1150 C   0  0  0  0  0  0  0  0  0  0  0  0
  130.4170  128.8160   70.7160 C   0  0  0  0  0  0  0  0  0  0  0  0
  130.3770  129.2540   72.0370 C   0  0  0  0  0  0  0  0  0  0  0  0
  129.2120  129.0930   72.7810 C   0  0  0  0  0  0  0  0  0  0  0  0
  128.0910  128.4990   72.2130 C   0  0  0  0  0  0  0  0  0  0  0  0
  128.1360  128.0640   70.8920 C   0  0  0  0  0  0  0  0  0  0  0  0
  129.7530  126.4600   68.4980 N   0  0  0  0  0  0  0  0  0  0  0  0
  129.8040  126.0160   67.2430 C   0  0  0  0  0  0  0  0  0  0  0  0
  130.3120  124.3880   66.8540 S   0  0  0  0  0  0  0  0  0  0  0  0
  130.0810  124.6780   65.1280 C   0  0  0  0  0  0  0  0  0  0  0  0
  130.3650  123.6210   64.1570 C   0  0  0  0  0  0  0  0  0  0  0  0
  131.2460  122.7850   64.3740 O   0  0  0  0  0  0  0  0  0  0  0  0
  129.6090  123.6440   63.0320 N   0  0  0  0  0  0  0  0  0  0  0  0
  129.6780  122.7640   61.9610 C   0  0  0  0  0  0  0  0  0  0  0  0
  129.2350  122.9470   60.7350 N   0  0  0  0  0  0  0  0  0  0  0  0
  129.4710  121.8970   59.9730 C   0  0  0  0  0  0  0  0  0  0  0  0
  130.1230  120.8280   60.5810 C   0  0  0  0  0  0  0  0  0  0  0  0
  130.4390  121.2310   62.2430 S   0  0  0  0  0  0  0  0  0  0  0  0
  129.6340  125.9870   64.8910 C   0  0  0  0  0  0  0  0  0  0  0  0
  129.3750  126.4900   63.6410 N   0  0  0  0  0  0  0  0  0  0  0  0
  129.4650  126.7720   66.0840 C   0  0  0  0  0  0  0  0  0  0  0  0
  128.2274  129.9865   65.6259 H   0  0  0  0  0  0  0  0  0  0  0  0
  129.5021  129.2962   64.5652 H   0  0  0  0  0  0  0  0  0  0  0  0
  127.8521  128.5863   64.5652 H   0  0  0  0  0  0  0  0  0  0  0  0
  128.6508  129.6012   67.8181 H   0  0  0  0  0  0  0  0  0  0  0  0
  131.3411  128.9423   70.1328 H   0  0  0  0  0  0  0  0  0  0  0  0
  131.2617  129.7249   72.4903 H   0  0  0  0  0  0  0  0  0  0  0  0
  129.1781  129.4379   73.8250 H   0  0  0  0  0  0  0  0  0  0  0  0
  127.1725  128.3734   72.8051 H   0  0  0  0  0  0  0  0  0  0  0  0
  127.2468  127.5931   70.4475 H   0  0  0  0  0  0  0  0  0  0  0  0
  128.9210  124.3790   62.9510 H   0  0  0  0  0  0  0  0  0  0  0  0
  129.1694  121.8675   58.9156 H   0  0  0  0  0  0  0  0  0  0  0  0
  130.3943  119.8818   60.0899 H   0  0  0  0  0  0  0  0  0  0  0  0
  129.9220  127.2380   63.2420 H   0  0  0  0  0  0  0  0  0  0  0  0
  128.6220  126.1240   63.0750 H   0  0  0  0  0  0  0  0  0  0  0  0
  1  2  1  0
  2  3  2  0
  3  4  1  0
  4  5  1  0
  5  6  2  0
  6  7  1  0
  7  8  2  0
  8  9  1  0
  9 10  2  0
  4 11  2  0
 11 12  1  0
 12 13  1  0
 13 14  1  0
 14 15  1  0
 15 16  2  0
 15 17  1  0
 17 18  1  0
 18 19  2  0
 19 20  1  0
 20 21  2  0
 21 22  1  0
 14 23  2  0
 23 24  1  0
 23 25  1  0
 25  2  1  0
 10  5  1  0
 25 12  2  0
 22 18  1  0
  1 26  1  0
  1 27  1  0
  1 28  1  0
  3 29  1  0
  6 30  1  0
  7 31  1  0
  8 32  1  0
  9 33  1  0
 10 34  1  0
 17 35  1  0
 20 36  1  0
 21 37  1  0
 24 38  1  0
 24 39  1  0
M  END
>  <Binding energies>  (1) 
[-7.24]

>  <Ligand effiencies>  (1) 
[-0.25857142857142856]

>  <Interactions>  (1) 
["H-A:TYR:484:OH:4343, H-A:GLU:543:OE2:4905, V-A:GLU:543:CD:4903, V-A:GLU:543:CG:4902, V-A:GLY:544:C:4907, V-A:GLU:543:CB:4901, V-B:GLU:543:CG:9875, V-A:HIS:456:CE1:4064, V-A:GLY:544:CA:4909, V-B:HIS:456:CE1:9037, H-A:GLU:543:OE1:4904, V-B:GLU:543:CD:9876, V-A:GLU:543:C:4897, V-B:GLU:543:CB:9874, H-B:GLU:543:OE2:9878, V-A:LEU:475:CD2:4254, V-B:TYR:539:CD2:9842, V-A:TYR:484:CE1:4340, V-A:TYR:484:CZ:4342, V-B:ALA:541:CB:9860, V-B:HIS:456:CD2:9035, H-A:HIS:456:NE2:4065, V-A:LYS:547:CE:4945"]

$$$$
4ea_Grossjean_2025
     RDKit          3D

 52 55  0  0  0  0  0  0  0  0999 V2000
  130.7660  128.8790   71.1790 C   0  0  0  0  0  0  0  0  0  0  0  0
  129.3180  129.0130   71.6610 C   0  0  0  0  0  0  0  0  0  0  0  0
  128.4760  128.1970   70.8590 O   0  0  0  0  0  0  0  0  0  0  0  0
  128.7570  126.8840   70.6560 C   0  0  0  0  0  0  0  0  0  0  0  0
  128.6120  126.0160   71.5230 O   0  0  0  0  0  0  0  0  0  0  0  0
  129.2620  126.5920   69.2720 C   0  0  0  0  0  0  0  0  0  0  0  0
  129.6450  125.2850   68.9460 C   0  0  0  0  0  0  0  0  0  0  0  0
  130.1170  124.9820   67.6720 C   0  0  0  0  0  0  0  0  0  0  0  0
  130.2170  125.9770   66.6990 C   0  0  0  0  0  0  0  0  0  0  0  0
  130.7070  125.5560   65.4480 N   0  0  0  0  0  0  0  0  0  0  0  0
  131.9570  125.1870   65.0730 C   0  0  0  0  0  0  0  0  0  0  0  0
  132.9290  125.1640   65.8290 O   0  0  0  0  0  0  0  0  0  0  0  0
  132.0990  124.8030   63.6660 C   0  0  0  0  0  0  0  0  0  0  0  0
  133.7010  124.5900   62.9550 S   0  0  0  0  0  0  0  0  0  0  0  0
  133.0100  124.1760   61.4030 C   0  0  0  0  0  0  0  0  0  0  0  0
  133.7720  123.8800   60.3490 N   0  0  0  0  0  0  0  0  0  0  0  0
  133.1130  123.5760   59.2040 C   0  0  0  0  0  0  0  0  0  0  0  0
  133.9990  123.2430   58.0180 C   0  0  0  0  0  0  0  0  0  0  0  0
  131.7250  123.5620   59.0890 C   0  0  0  0  0  0  0  0  0  0  0  0
  130.9300  123.8730   60.1970 C   0  0  0  0  0  0  0  0  0  0  0  0
  129.4560  123.8530   60.0600 C   0  0  0  0  0  0  0  0  0  0  0  0
  128.6960  122.9140   60.7650 C   0  0  0  0  0  0  0  0  0  0  0  0
  127.3100  122.8960   60.6380 C   0  0  0  0  0  0  0  0  0  0  0  0
  126.6830  123.8160   59.8020 C   0  0  0  0  0  0  0  0  0  0  0  0
  127.4290  124.7530   59.0910 C   0  0  0  0  0  0  0  0  0  0  0  0
  128.8160  124.7690   59.2190 C   0  0  0  0  0  0  0  0  0  0  0  0
  131.5830  124.1970   61.4180 C   0  0  0  0  0  0  0  0  0  0  0  0
  131.0890  124.5580   62.7220 C   0  0  0  0  0  0  0  0  0  0  0  0
  129.7490  124.6490   62.9970 N   0  0  0  0  0  0  0  0  0  0  0  0
  129.8350  127.2900   67.0170 C   0  0  0  0  0  0  0  0  0  0  0  0
  129.3630  127.5910   68.2920 C   0  0  0  0  0  0  0  0  0  0  0  0
  131.4375  128.8169   72.0481 H   0  0  0  0  0  0  0  0  0  0  0  0
  130.8674  127.9676   70.5714 H   0  0  0  0  0  0  0  0  0  0  0  0
  131.0329  129.7563   70.5714 H   0  0  0  0  0  0  0  0  0  0  0  0
  129.2494  128.6910   72.7106 H   0  0  0  0  0  0  0  0  0  0  0  0
  128.9991  130.0625   71.5786 H   0  0  0  0  0  0  0  0  0  0  0  0
  129.5722  124.4907   69.7035 H   0  0  0  0  0  0  0  0  0  0  0  0
  130.4133  123.9505   67.4306 H   0  0  0  0  0  0  0  0  0  0  0  0
  130.0060  125.5270   64.7230 H   0  0  0  0  0  0  0  0  0  0  0  0
  134.9719  122.8774   58.3783 H   0  0  0  0  0  0  0  0  0  0  0  0
  133.5177  122.4644   57.4080 H   0  0  0  0  0  0  0  0  0  0  0  0
  134.1497  124.1458   57.4080 H   0  0  0  0  0  0  0  0  0  0  0  0
  131.2546  123.3067   58.1280 H   0  0  0  0  0  0  0  0  0  0  0  0
  129.1955  122.1870   61.4223 H   0  0  0  0  0  0  0  0  0  0  0  0
  126.7132  122.1588   61.1952 H   0  0  0  0  0  0  0  0  0  0  0  0
  125.5876  123.8027   59.7020 H   0  0  0  0  0  0  0  0  0  0  0  0
  126.9258  125.4761   58.4323 H   0  0  0  0  0  0  0  0  0  0  0  0
  129.4099  125.5046   58.6567 H   0  0  0  0  0  0  0  0  0  0  0  0
  129.1450  125.2900   62.5020 H   0  0  0  0  0  0  0  0  0  0  0  0
  129.3170  124.0750   63.7090 H   0  0  0  0  0  0  0  0  0  0  0  0
  129.9087  128.0824   66.2576 H   0  0  0  0  0  0  0  0  0  0  0  0
  129.0663  128.6224   68.5333 H   0  0  0  0  0  0  0  0  0  0  0  0
  1  2  1  0
  2  3  1  0
  3  4  1  0
  4  5  2  0
  4  6  1  0
  6  7  2  0
  7  8  1  0
  8  9  2  0
  9 10  1  0
 10 11  1  0
 11 12  2  0
 11 13  1  0
 13 14  1  0
 14 15  1  0
 15 16  2  0
 16 17  1  0
 17 18  1  0
 17 19  2  0
 19 20  1  0
 20 21  1  0
 21 22  2  0
 22 23  1  0
 23 24  2  0
 24 25  1  0
 25 26  2  0
 20 27  2  0
 27 28  1  0
 28 29  1  0
  9 30  1  0
 30 31  2  0
 31  6  1  0
 28 13  2  0
 27 15  1  0
 26 21  1  0
  1 32  1  0
  1 33  1  0
  1 34  1  0
  2 35  1  0
  2 36  1  0
  7 37  1  0
  8 38  1  0
 10 39  1  0
 18 40  1  0
 18 41  1  0
 18 42  1  0
 19 43  1  0
 22 44  1  0
 23 45  1  0
 24 46  1  0
 25 47  1  0
 26 48  1  0
 29 49  1  0
 29 50  1  0
 30 51  1  0
 31 52  1  0
M  END
>  <Binding energies>  (1) 
[-7.47]

>  <Ligand effiencies>  (1) 
[-0.21970588235294117]

>  <Interactions>  (1) 
["H-A:TYR:484:OH:4343, V-A:ARG:545:CZ:4921, V-A:ASP:366:CG:3208, V-A:GLU:543:CD:4903, V-A:GLY:544:C:4907, V-B:GLU:543:CG:9875, V-A:HIS:456:CE1:4064, V-A:GLY:544:CA:4909, V-B:GLU:543:CD:9876, V-A:GLU:543:C:4897, V-B:GLU:543:CB:9874, H-B:GLU:543:OE2:9878, V-A:TYR:484:CE1:4340, V-B:TYR:539:CE2:9844, V-A:ASP:366:CB:3207, V-A:ILE:369:CD1:3234, V-B:GLU:543:C:9870, V-B:GLU:543:CA:9872, H-B:LYS:547:NZ:9919, V-B:HIS:456:CD2:9035, H-A:HIS:456:NE2:4065, V-B:PRO:540:CA:9851, V-A:ILE:369:CG2:3232, V-B:PRO:540:C:9849, V-A:ILE:369:CB:3231, V-A:ASP:366:C:3203, V-A:ASP:366:CA:3205, V-A:ILE:369:CG1:3233"]

$$$$
4eb_Grossjean_2025
     RDKit          3D

 49 52  0  0  0  0  0  0  0  0999 V2000
  130.1010  126.3890   72.6020 C   0  0  0  0  0  0  0  0  0  0  0  0
  128.8910  126.2630   71.8700 O   0  0  0  0  0  0  0  0  0  0  0  0
  128.5450  127.1790   70.9280 C   0  0  0  0  0  0  0  0  0  0  0  0
  127.8480  128.1690   71.1670 O   0  0  0  0  0  0  0  0  0  0  0  0
  129.0950  126.8660   69.5660 C   0  0  0  0  0  0  0  0  0  0  0  0
  129.3940  125.5370   69.2390 C   0  0  0  0  0  0  0  0  0  0  0  0
  129.9050  125.2150   67.9850 C   0  0  0  0  0  0  0  0  0  0  0  0
  130.1270  126.2120   67.0330 C   0  0  0  0  0  0  0  0  0  0  0  0
  130.6470  125.7700   65.8010 N   0  0  0  0  0  0  0  0  0  0  0  0
  131.9040  125.3950   65.4620 C   0  0  0  0  0  0  0  0  0  0  0  0
  132.8590  125.3840   66.2400 O   0  0  0  0  0  0  0  0  0  0  0  0
  132.0800  124.9880   64.0650 C   0  0  0  0  0  0  0  0  0  0  0  0
  133.6990  124.7520   63.4020 S   0  0  0  0  0  0  0  0  0  0  0  0
  133.0470  124.3190   61.8380 C   0  0  0  0  0  0  0  0  0  0  0  0
  133.8340  124.0010   60.8090 N   0  0  0  0  0  0  0  0  0  0  0  0
  133.2050  123.6850   59.6520 C   0  0  0  0  0  0  0  0  0  0  0  0
  134.1200  123.3260   58.4950 C   0  0  0  0  0  0  0  0  0  0  0  0
  131.8200  123.6790   59.4990 C   0  0  0  0  0  0  0  0  0  0  0  0
  130.9970  124.0130   60.5810 C   0  0  0  0  0  0  0  0  0  0  0  0
  129.5270  124.0020   60.4040 C   0  0  0  0  0  0  0  0  0  0  0  0
  128.7860  122.8710   60.7570 C   0  0  0  0  0  0  0  0  0  0  0  0
  127.4020  122.8600   60.5920 C   0  0  0  0  0  0  0  0  0  0  0  0
  126.7620  123.9820   60.0710 C   0  0  0  0  0  0  0  0  0  0  0  0
  127.4930  125.1130   59.7130 C   0  0  0  0  0  0  0  0  0  0  0  0
  128.8750  125.1220   59.8790 C   0  0  0  0  0  0  0  0  0  0  0  0
  131.6200  124.3510   61.8140 C   0  0  0  0  0  0  0  0  0  0  0  0
  131.0950  124.7360   63.0970 C   0  0  0  0  0  0  0  0  0  0  0  0
  129.7480  124.8410   63.3360 N   0  0  0  0  0  0  0  0  0  0  0  0
  129.8300  127.5460   67.3520 C   0  0  0  0  0  0  0  0  0  0  0  0
  129.3190  127.8660   68.6070 C   0  0  0  0  0  0  0  0  0  0  0  0
  129.8817  126.3662   73.6797 H   0  0  0  0  0  0  0  0  0  0  0  0
  130.7724  125.5559   72.3467 H   0  0  0  0  0  0  0  0  0  0  0  0
  130.5864  127.3425   72.3467 H   0  0  0  0  0  0  0  0  0  0  0  0
  129.2235  124.7415   69.9793 H   0  0  0  0  0  0  0  0  0  0  0  0
  130.1357  124.1672   67.7421 H   0  0  0  0  0  0  0  0  0  0  0  0
  129.9630  125.7290   65.0600 H   0  0  0  0  0  0  0  0  0  0  0  0
  135.0768  122.9506   58.8870 H   0  0  0  0  0  0  0  0  0  0  0  0
  133.6451  122.5475   57.8798 H   0  0  0  0  0  0  0  0  0  0  0  0
  134.3011  124.2197   57.8798 H   0  0  0  0  0  0  0  0  0  0  0  0
  131.3741  123.4122   58.5295 H   0  0  0  0  0  0  0  0  0  0  0  0
  129.2965  121.9868   61.1663 H   0  0  0  0  0  0  0  0  0  0  0  0
  126.8186  121.9704   60.8716 H   0  0  0  0  0  0  0  0  0  0  0  0
  125.6697  123.9752   59.9410 H   0  0  0  0  0  0  0  0  0  0  0  0
  126.9803  125.9947   59.3011 H   0  0  0  0  0  0  0  0  0  0  0  0
  129.4557  126.0125   59.5964 H   0  0  0  0  0  0  0  0  0  0  0  0
  129.1440  124.0320   63.3370 H   0  0  0  0  0  0  0  0  0  0  0  0
  129.3130  125.7360   63.5190 H   0  0  0  0  0  0  0  0  0  0  0  0
  130.0011  128.3396   66.6098 H   0  0  0  0  0  0  0  0  0  0  0  0
  129.0884  128.9139   68.8495 H   0  0  0  0  0  0  0  0  0  0  0  0
  1  2  1  0
  2  3  1  0
  3  4  2  0
  3  5  1  0
  5  6  2  0
  6  7  1  0
  7  8  2  0
  8  9  1  0
  9 10  1  0
 10 11  2  0
 10 12  1  0
 12 13  1  0
 13 14  1  0
 14 15  2  0
 15 16  1  0
 16 17  1  0
 16 18  2  0
 18 19  1  0
 19 20  1  0
 20 21  2  0
 21 22  1  0
 22 23  2  0
 23 24  1  0
 24 25  2  0
 19 26  2  0
 26 27  1  0
 27 28  1  0
  8 29  1  0
 29 30  2  0
 30  5  1  0
 27 12  2  0
 26 14  1  0
 25 20  1  0
  1 31  1  0
  1 32  1  0
  1 33  1  0
  6 34  1  0
  7 35  1  0
  9 36  1  0
 17 37  1  0
 17 38  1  0
 17 39  1  0
 18 40  1  0
 21 41  1  0
 22 42  1  0
 23 43  1  0
 24 44  1  0
 25 45  1  0
 28 46  1  0
 28 47  1  0
 29 48  1  0
 30 49  1  0
M  END
>  <Binding energies>  (1) 
[-7.34]

>  <Ligand effiencies>  (1) 
[-0.2224242424242424]

>  <Interactions>  (1) 
["H-A:TYR:484:OH:4343, V-A:ARG:545:CZ:4921, V-A:ASP:366:CG:3208, V-A:GLU:543:CD:4903, V-B:GLU:543:CG:9875, V-A:HIS:456:CE1:4064, V-B:GLU:543:CD:9876, V-B:GLU:543:CB:9874, H-B:GLU:543:OE2:9878, V-A:ASP:366:CB:3207, V-A:ILE:369:CD1:3234, V-B:GLU:543:C:9870, V-B:GLU:543:CA:9872, H-B:LYS:547:NZ:9919, H-A:HIS:456:NE2:4065, V-B:PRO:540:CA:9851, V-A:ILE:369:CG2:3232, V-B:PRO:540:C:9849, V-A:ILE:369:CB:3231, V-A:ASP:366:C:3203, V-A:ASP:366:CA:3205, V-A:ILE:369:CG1:3233"]

$$$$
8a_Ghoteimi_2023
     RDKit          3D

 67 71  0  0  0  0  0  0  0  0999 V2000
  130.5170  118.0020   62.0760 C   0  0  0  0  0  0  0  0  0  0  0  0
  129.6530  118.5210   60.9240 C   0  0  0  0  0  0  0  0  0  0  0  0
  130.4850  118.8410   59.8160 O   0  0  0  0  0  0  0  0  0  0  0  0
  131.4160  119.8280   59.9010 C   0  0  0  0  0  0  0  0  0  0  0  0
  132.4600  119.8360   59.2410 O   0  0  0  0  0  0  0  0  0  0  0  0
  131.0520  120.9050   60.8810 C   0  0  0  0  0  0  0  0  0  0  0  0
  132.0460  121.4400   61.7090 C   0  0  0  0  0  0  0  0  0  0  0  0
  131.7400  122.4390   62.6290 C   0  0  0  0  0  0  0  0  0  0  0  0
  130.4350  122.9230   62.7430 C   0  0  0  0  0  0  0  0  0  0  0  0
  130.2420  123.9290   63.7100 N   0  0  0  0  0  0  0  0  0  0  0  0
  130.9620  125.0490   63.9650 C   0  0  0  0  0  0  0  0  0  0  0  0
  131.9730  125.3810   63.3460 O   0  0  0  0  0  0  0  0  0  0  0  0
  130.4530  125.8830   65.0580 C   0  0  0  0  0  0  0  0  0  0  0  0
  131.0950  125.7040   66.6900 S   0  0  0  0  0  0  0  0  0  0  0  0
  130.0240  126.9450   67.2990 C   0  0  0  0  0  0  0  0  0  0  0  0
  130.0100  127.2880   68.5870 N   0  0  0  0  0  0  0  0  0  0  0  0
  129.1360  128.2610   68.9560 C   0  0  0  0  0  0  0  0  0  0  0  0
  129.1230  128.6160   70.4080 C   0  0  0  0  0  0  0  0  0  0  0  0
  128.0010  128.3540   71.2070 C   0  0  0  0  0  0  0  0  0  0  0  0
  127.9900  128.6970   72.5560 C   0  0  0  0  0  0  0  0  0  0  0  0
  129.0980  129.3060   73.1410 C   0  0  0  0  0  0  0  0  0  0  0  0
  128.9970  129.6130   74.4850 O   0  0  0  0  0  0  0  0  0  0  0  0
  127.7820  130.1630   74.9800 C   0  0  0  0  0  0  0  0  0  0  0  0
  130.2280  129.5670   72.3520 C   0  0  0  0  0  0  0  0  0  0  0  0
  130.2350  129.2260   71.0020 C   0  0  0  0  0  0  0  0  0  0  0  0
  128.2890  128.8900   68.0410 C   0  0  0  0  0  0  0  0  0  0  0  0
  128.3120  128.5440   66.6850 C   0  0  0  0  0  0  0  0  0  0  0  0
  127.4130  129.2670   65.7490 C   0  0  0  0  0  0  0  0  0  0  0  0
  126.0330  129.0520   65.7930 C   0  0  0  0  0  0  0  0  0  0  0  0
  125.1850  129.7420   64.9320 C   0  0  0  0  0  0  0  0  0  0  0  0
  125.6990  130.6620   64.0170 C   0  0  0  0  0  0  0  0  0  0  0  0
  124.7820  131.2990   63.2030 O   0  0  0  0  0  0  0  0  0  0  0  0
  123.6800  130.5630   62.6890 C   0  0  0  0  0  0  0  0  0  0  0  0
  127.0840  130.8850   63.9770 C   0  0  0  0  0  0  0  0  0  0  0  0
  127.9300  130.1940   64.8410 C   0  0  0  0  0  0  0  0  0  0  0  0
  129.2040  127.5120   66.2790 C   0  0  0  0  0  0  0  0  0  0  0  0
  129.4570  126.8730   65.0120 C   0  0  0  0  0  0  0  0  0  0  0  0
  128.7670  127.1990   63.8710 N   0  0  0  0  0  0  0  0  0  0  0  0
  129.4330  122.3960   61.9130 C   0  0  0  0  0  0  0  0  0  0  0  0
  129.7420  121.3970   60.9940 C   0  0  0  0  0  0  0  0  0  0  0  0
  130.0549  118.2796   63.0348 H   0  0  0  0  0  0  0  0  0  0  0  0
  130.5960  116.9068   62.0105 H   0  0  0  0  0  0  0  0  0  0  0  0
  131.5210  118.4466   62.0105 H   0  0  0  0  0  0  0  0  0  0  0  0
  128.9309  117.7455   60.6287 H   0  0  0  0  0  0  0  0  0  0  0  0
  129.1109  119.4215   61.2483 H   0  0  0  0  0  0  0  0  0  0  0  0
  133.0782  121.0676   61.6320 H   0  0  0  0  0  0  0  0  0  0  0  0
  132.5325  122.8505   63.2713 H   0  0  0  0  0  0  0  0  0  0  0  0
  129.4300  123.7880   64.2920 H   0  0  0  0  0  0  0  0  0  0  0  0
  127.1183  127.8713   70.7622 H   0  0  0  0  0  0  0  0  0  0  0  0
  127.0989  128.4854   73.1653 H   0  0  0  0  0  0  0  0  0  0  0  0
  127.7976  130.1559   76.0799 H   0  0  0  0  0  0  0  0  0  0  0  0
  127.6748  131.1974   74.6214 H   0  0  0  0  0  0  0  0  0  0  0  0
  126.9341  129.5610   74.6214 H   0  0  0  0  0  0  0  0  0  0  0  0
  131.1120  130.0429   72.8015 H   0  0  0  0  0  0  0  0  0  0  0  0
  131.1264  129.4387   70.3935 H   0  0  0  0  0  0  0  0  0  0  0  0
  127.5944  129.6679   68.3907 H   0  0  0  0  0  0  0  0  0  0  0  0
  125.6144  128.3330   66.5126 H   0  0  0  0  0  0  0  0  0  0  0  0
  124.1008  129.5608   64.9729 H   0  0  0  0  0  0  0  0  0  0  0  0
  123.0838  130.1648   63.5233 H   0  0  0  0  0  0  0  0  0  0  0  0
  123.0528  131.2242   62.0730 H   0  0  0  0  0  0  0  0  0  0  0  0
  124.0505  129.7304   62.0730 H   0  0  0  0  0  0  0  0  0  0  0  0
  127.5026  131.6077   63.2611 H   0  0  0  0  0  0  0  0  0  0  0  0
  129.0137  130.3797   64.8081 H   0  0  0  0  0  0  0  0  0  0  0  0
  128.2500  126.5030   63.3520 H   0  0  0  0  0  0  0  0  0  0  0  0
  128.7480  128.1430   63.5130 H   0  0  0  0  0  0  0  0  0  0  0  0
  128.4024  122.7729   61.9889 H   0  0  0  0  0  0  0  0  0  0  0  0
  128.9504  120.9883   60.3488 H   0  0  0  0  0  0  0  0  0  0  0  0
  1  2  1  0
  2  3  1  0
  3  4  1  0
  4  5  2  0
  4  6  1  0
  6  7  2  0
  7  8  1  0
  8  9  2  0
  9 10  1  0
 10 11  1  0
 11 12  2  0
 11 13  1  0
 13 14  1  0
 14 15  1  0
 15 16  2  0
 16 17  1  0
 17 18  1  0
 18 19  2  0
 19 20  1  0
 20 21  2  0
 21 22  1  0
 22 23  1  0
 21 24  1  0
 24 25  2  0
 17 26  2  0
 26 27  1  0
 27 28  1  0
 28 29  2  0
 29 30  1  0
 30 31  2  0
 31 32  1  0
 32 33  1  0
 31 34  1  0
 34 35  2  0
 27 36  2  0
 36 37  1  0
 37 38  1  0
  9 39  1  0
 39 40  2  0
 40  6  1  0
 37 13  2  0
 36 15  1  0
 25 18  1  0
 35 28  1  0
  1 41  1  0
  1 42  1  0
  1 43  1  0
  2 44  1  0
  2 45  1  0
  7 46  1  0
  8 47  1  0
 10 48  1  0
 19 49  1  0
 20 50  1  0
 23 51  1  0
 23 52  1  0
 23 53  1  0
 24 54  1  0
 25 55  1  0
 26 56  1  0
 29 57  1  0
 30 58  1  0
 33 59  1  0
 33 60  1  0
 33 61  1  0
 34 62  1  0
 35 63  1  0
 38 64  1  0
 38 65  1  0
 39 66  1  0
 40 67  1  0
M  END
>  <Binding energies>  (1) 
[-8.23]

>  <Ligand effiencies>  (1) 
[-0.19139534883720932]

>  <Interactions>  (1) 
["V-A:GLU:543:CD:4903, V-A:GLU:543:CG:4902, V-A:GLY:544:C:4907, V-B:GLU:543:CG:9875, V-A:HIS:456:CE1:4064, V-A:GLY:544:CA:4909, V-B:HIS:456:CE1:9037, V-B:GLU:543:CD:9876, V-A:GLU:543:C:4897, V-A:PRO:482:CB:4321, H-B:GLU:543:OE2:9878, V-A:LEU:475:CD2:4254, V-B:TYR:539:CD2:9842, V-A:TRP:381:CZ3:3366, V-A:TRP:381:CZ2:3365, H-B:GLU:543:OE1:9877, V-A:PRO:482:CG:4322, V-A:TRP:381:CH2:3367, V-A:LEU:475:CD1:4253, V-B:TYR:539:CE2:9844, V-B:ALA:541:CB:9860, V-B:ARG:545:CZ:9894, V-B:HIS:456:CD2:9035, H-A:LYS:547:NZ:4946, H-A:HIS:456:NE2:4065, V-B:HIS:456:CG:9033, V-A:LYS:547:CE:4945, V-A:TRP:381:CE2:3362, V-A:LEU:475:CG:4252"]

$$$$
8b_Ghoteimi_2023
     RDKit          3D

 54 58  0  0  0  0  0  0  0  0999 V2000
  128.1760  130.5690   74.5670 C   0  0  0  0  0  0  0  0  0  0  0  0
  128.9930  129.4540   74.2260 O   0  0  0  0  0  0  0  0  0  0  0  0
  129.0980  129.0770   72.9010 C   0  0  0  0  0  0  0  0  0  0  0  0
  127.9700  128.4960   72.3260 C   0  0  0  0  0  0  0  0  0  0  0  0
  127.9840  128.0850   70.9970 C   0  0  0  0  0  0  0  0  0  0  0  0
  129.1310  128.2440   70.2060 C   0  0  0  0  0  0  0  0  0  0  0  0
  129.1530  127.8020   68.7770 C   0  0  0  0  0  0  0  0  0  0  0  0
  128.5810  128.5720   67.7590 C   0  0  0  0  0  0  0  0  0  0  0  0
  128.6160  128.1360   66.4310 C   0  0  0  0  0  0  0  0  0  0  0  0
  127.9920  128.9700   65.3780 C   0  0  0  0  0  0  0  0  0  0  0  0
  126.7770  128.5890   64.8070 C   0  0  0  0  0  0  0  0  0  0  0  0
  126.1870  129.3800   63.8240 C   0  0  0  0  0  0  0  0  0  0  0  0
  126.8030  130.5580   63.3960 C   0  0  0  0  0  0  0  0  0  0  0  0
  126.1450  131.2790   62.4180 O   0  0  0  0  0  0  0  0  0  0  0  0
  125.1020  130.6540   61.6780 C   0  0  0  0  0  0  0  0  0  0  0  0
  128.0270  130.9360   63.9690 C   0  0  0  0  0  0  0  0  0  0  0  0
  128.6150  130.1450   64.9530 C   0  0  0  0  0  0  0  0  0  0  0  0
  129.2530  126.8970   66.1500 C   0  0  0  0  0  0  0  0  0  0  0  0
  129.4720  126.1670   64.9280 C   0  0  0  0  0  0  0  0  0  0  0  0
  129.0400  126.6280   63.7110 N   0  0  0  0  0  0  0  0  0  0  0  0
  130.1620  124.9580   65.1050 C   0  0  0  0  0  0  0  0  0  0  0  0
  130.5560  123.9770   64.0920 C   0  0  0  0  0  0  0  0  0  0  0  0
  131.7270  123.6030   64.0000 O   0  0  0  0  0  0  0  0  0  0  0  0
  129.5540  123.5340   63.2910 N   0  0  0  0  0  0  0  0  0  0  0  0
  129.6420  122.6090   62.2600 C   0  0  0  0  0  0  0  0  0  0  0  0
  130.8480  122.0470   61.8420 C   0  0  0  0  0  0  0  0  0  0  0  0
  130.5100  121.1990   60.8130 C   0  0  0  0  0  0  0  0  0  0  0  0
  129.1710  121.2440   60.6220 O   0  0  0  0  0  0  0  0  0  0  0  0
  128.6300  122.1400   61.5470 N   0  0  0  0  0  0  0  0  0  0  0  0
  130.5620  124.6950   66.8030 S   0  0  0  0  0  0  0  0  0  0  0  0
  129.8040  126.2020   67.2640 C   0  0  0  0  0  0  0  0  0  0  0  0
  129.7690  126.6150   68.5300 N   0  0  0  0  0  0  0  0  0  0  0  0
  130.2620  128.8310   70.7890 C   0  0  0  0  0  0  0  0  0  0  0  0
  130.2510  129.2430   72.1190 C   0  0  0  0  0  0  0  0  0  0  0  0
  128.1124  130.6558   75.6617 H   0  0  0  0  0  0  0  0  0  0  0  0
  128.6167  131.4872   74.1514 H   0  0  0  0  0  0  0  0  0  0  0  0
  127.1677  130.4255   74.1514 H   0  0  0  0  0  0  0  0  0  0  0  0
  127.0596  128.3609   72.9285 H   0  0  0  0  0  0  0  0  0  0  0  0
  127.0830  127.6291   70.5607 H   0  0  0  0  0  0  0  0  0  0  0  0
  128.0991  129.5296   68.0055 H   0  0  0  0  0  0  0  0  0  0  0  0
  126.2840  127.6617   65.1341 H   0  0  0  0  0  0  0  0  0  0  0  0
  125.2277  129.0742   63.3810 H   0  0  0  0  0  0  0  0  0  0  0  0
  124.3708  130.2159   62.3733 H   0  0  0  0  0  0  0  0  0  0  0  0
  124.6029  131.4020   61.0444 H   0  0  0  0  0  0  0  0  0  0  0  0
  125.5262  129.8612   61.0444 H   0  0  0  0  0  0  0  0  0  0  0  0
  128.5239  131.8605   63.6397 H   0  0  0  0  0  0  0  0  0  0  0  0
  129.5747  130.4474   65.3974 H   0  0  0  0  0  0  0  0  0  0  0  0
  128.6170  126.0080   63.0340 H   0  0  0  0  0  0  0  0  0  0  0  0
  129.1310  127.5990   63.4460 H   0  0  0  0  0  0  0  0  0  0  0  0
  128.6330  123.9120   63.4580 H   0  0  0  0  0  0  0  0  0  0  0  0
  131.8522  122.2401   62.2474 H   0  0  0  0  0  0  0  0  0  0  0  0
  131.2158  120.5824   60.2370 H   0  0  0  0  0  0  0  0  0  0  0  0
  131.1722  128.9684   70.1869 H   0  0  0  0  0  0  0  0  0  0  0  0
  131.1498  129.7004   72.5583 H   0  0  0  0  0  0  0  0  0  0  0  0
  1  2  1  0
  2  3  1  0
  3  4  2  0
  4  5  1  0
  5  6  2  0
  6  7  1  0
  7  8  2  0
  8  9  1  0
  9 10  1  0
 10 11  2  0
 11 12  1  0
 12 13  2  0
 13 14  1  0
 14 15  1  0
 13 16  1  0
 16 17  2  0
  9 18  2  0
 18 19  1  0
 19 20  1  0
 19 21  2  0
 21 22  1  0
 22 23  2  0
 22 24  1  0
 24 25  1  0
 25 26  1  0
 26 27  2  0
 27 28  1  0
 28 29  1  0
 21 30  1  0
 30 31  1  0
 31 32  2  0
  6 33  1  0
 33 34  2  0
 34  3  1  0
 32  7  1  0
 17 10  1  0
 31 18  1  0
 29 25  2  0
  1 35  1  0
  1 36  1  0
  1 37  1  0
  4 38  1  0
  5 39  1  0
  8 40  1  0
 11 41  1  0
 12 42  1  0
 15 43  1  0
 15 44  1  0
 15 45  1  0
 16 46  1  0
 17 47  1  0
 20 48  1  0
 20 49  1  0
 24 50  1  0
 26 51  1  0
 27 52  1  0
 33 53  1  0
 34 54  1  0
M  END
>  <Binding energies>  (1) 
[-7.9]

>  <Ligand effiencies>  (1) 
[-0.21351351351351353]

>  <Interactions>  (1) 
["H-A:TYR:484:OH:4343, V-A:GLU:543:CD:4903, V-A:GLU:543:CG:4902, V-A:GLY:544:C:4907, V-B:GLU:543:CG:9875, V-A:HIS:456:CE1:4064, V-B:HIS:456:CE1:9037, V-B:GLU:543:CD:9876, V-A:GLU:543:C:4897, V-B:GLU:543:CB:9874, H-B:GLU:543:OE2:9878, H-B:GLU:543:OE1:9877, V-A:TYR:484:CE1:4340, V-A:TYR:484:CZ:4342, V-B:ALA:541:CB:9860, V-B:HIS:456:CD2:9035, H-A:LYS:547:NZ:4946, H-A:HIS:456:NE2:4065, V-B:HIS:456:CG:9033, V-A:LYS:547:CE:4945, H-B:ALA:541:N:9859"]

$$$$
8c_Ghoteimi_2023
     RDKit          3D

 54 58  0  0  0  0  0  0  0  0999 V2000
  128.0180  130.4800   74.5740 C   0  0  0  0  0  0  0  0  0  0  0  0
  128.8820  129.4050   74.2210 O   0  0  0  0  0  0  0  0  0  0  0  0
  129.0030  129.0470   72.8920 C   0  0  0  0  0  0  0  0  0  0  0  0
  127.8780  128.4870   72.2910 C   0  0  0  0  0  0  0  0  0  0  0  0
  127.9100  128.0940   70.9570 C   0  0  0  0  0  0  0  0  0  0  0  0
  129.0710  128.2510   70.1860 C   0  0  0  0  0  0  0  0  0  0  0  0
  129.1120  127.8270   68.7520 C   0  0  0  0  0  0  0  0  0  0  0  0
  128.5490  128.6060   67.7370 C   0  0  0  0  0  0  0  0  0  0  0  0
  128.6040  128.1880   66.4030 C   0  0  0  0  0  0  0  0  0  0  0  0
  127.9900  129.0310   65.3520 C   0  0  0  0  0  0  0  0  0  0  0  0
  126.8150  128.6210   64.7180 C   0  0  0  0  0  0  0  0  0  0  0  0
  126.2340  129.4190   63.7380 C   0  0  0  0  0  0  0  0  0  0  0  0
  126.8170  130.6340   63.3740 C   0  0  0  0  0  0  0  0  0  0  0  0
  126.1690  131.3610   62.3940 O   0  0  0  0  0  0  0  0  0  0  0  0
  124.8640  130.9680   61.9860 C   0  0  0  0  0  0  0  0  0  0  0  0
  128.0000  131.0430   64.0100 C   0  0  0  0  0  0  0  0  0  0  0  0
  128.5800  130.2440   64.9910 C   0  0  0  0  0  0  0  0  0  0  0  0
  129.2520  126.9570   66.1150 C   0  0  0  0  0  0  0  0  0  0  0  0
  129.4900  126.2430   64.8880 C   0  0  0  0  0  0  0  0  0  0  0  0
  129.0690  126.7140   63.6700 N   0  0  0  0  0  0  0  0  0  0  0  0
  130.1850  125.0350   65.0580 C   0  0  0  0  0  0  0  0  0  0  0  0
  130.5960  124.0680   64.0380 C   0  0  0  0  0  0  0  0  0  0  0  0
  131.7720  123.7110   63.9450 O   0  0  0  0  0  0  0  0  0  0  0  0
  129.6030  123.6160   63.2320 N   0  0  0  0  0  0  0  0  0  0  0  0
  129.7210  122.7010   62.1960 C   0  0  0  0  0  0  0  0  0  0  0  0
  129.3100  122.8300   60.9530 N   0  0  0  0  0  0  0  0  0  0  0  0
  129.5920  121.7610   60.2360 C   0  0  0  0  0  0  0  0  0  0  0  0
  130.2470  120.7290   60.9000 C   0  0  0  0  0  0  0  0  0  0  0  0
  130.5030  121.1950   62.5550 S   0  0  0  0  0  0  0  0  0  0  0  0
  130.5680  124.7540   66.7580 S   0  0  0  0  0  0  0  0  0  0  0  0
  129.7950  126.2500   67.2270 C   0  0  0  0  0  0  0  0  0  0  0  0
  129.7410  126.6470   68.4990 N   0  0  0  0  0  0  0  0  0  0  0  0
  130.1980  128.8180   70.7960 C   0  0  0  0  0  0  0  0  0  0  0  0
  130.1700  129.2110   72.1310 C   0  0  0  0  0  0  0  0  0  0  0  0
  127.9566  130.5564   75.6696 H   0  0  0  0  0  0  0  0  0  0  0  0
  128.4150  131.4197   74.1626 H   0  0  0  0  0  0  0  0  0  0  0  0
  127.0149  130.2944   74.1626 H   0  0  0  0  0  0  0  0  0  0  0  0
  126.9562  128.3544   72.8764 H   0  0  0  0  0  0  0  0  0  0  0  0
  127.0115  127.6536   70.5001 H   0  0  0  0  0  0  0  0  0  0  0  0
  128.0578  129.5572   67.9897 H   0  0  0  0  0  0  0  0  0  0  0  0
  126.3477  127.6643   64.9945 H   0  0  0  0  0  0  0  0  0  0  0  0
  125.3071  129.0898   63.2456 H   0  0  0  0  0  0  0  0  0  0  0  0
  124.2429  130.7809   62.8744 H   0  0  0  0  0  0  0  0  0  0  0  0
  124.4111  131.7696   61.3841 H   0  0  0  0  0  0  0  0  0  0  0  0
  124.9290  130.0496   61.3841 H   0  0  0  0  0  0  0  0  0  0  0  0
  128.4699  131.9979   63.7321 H   0  0  0  0  0  0  0  0  0  0  0  0
  129.5077  130.5697   65.4843 H   0  0  0  0  0  0  0  0  0  0  0  0
  128.3250  126.2610   63.1580 H   0  0  0  0  0  0  0  0  0  0  0  0
  129.4880  127.5270   63.2420 H   0  0  0  0  0  0  0  0  0  0  0  0
  128.6740  123.9740   63.3980 H   0  0  0  0  0  0  0  0  0  0  0  0
  129.3243  121.6887   59.1715 H   0  0  0  0  0  0  0  0  0  0  0  0
  130.5534  119.7729   60.4506 H   0  0  0  0  0  0  0  0  0  0  0  0
  131.1192  128.9546   70.2106 H   0  0  0  0  0  0  0  0  0  0  0  0
  131.0666  129.6520   72.5911 H   0  0  0  0  0  0  0  0  0  0  0  0
  1  2  1  0
  2  3  1  0
  3  4  2  0
  4  5  1  0
  5  6  2  0
  6  7  1  0
  7  8  2  0
  8  9  1  0
  9 10  1  0
 10 11  2  0
 11 12  1  0
 12 13  2  0
 13 14  1  0
 14 15  1  0
 13 16  1  0
 16 17  2  0
  9 18  2  0
 18 19  1  0
 19 20  1  0
 19 21  2  0
 21 22  1  0
 22 23  2  0
 22 24  1  0
 24 25  1  0
 25 26  2  0
 26 27  1  0
 27 28  2  0
 28 29  1  0
 21 30  1  0
 30 31  1  0
 31 32  2  0
  6 33  1  0
 33 34  2  0
 34  3  1  0
 32  7  1  0
 17 10  1  0
 31 18  1  0
 29 25  1  0
  1 35  1  0
  1 36  1  0
  1 37  1  0
  4 38  1  0
  5 39  1  0
  8 40  1  0
 11 41  1  0
 12 42  1  0
 15 43  1  0
 15 44  1  0
 15 45  1  0
 16 46  1  0
 17 47  1  0
 20 48  1  0
 20 49  1  0
 24 50  1  0
 27 51  1  0
 28 52  1  0
 33 53  1  0
 34 54  1  0
M  END
>  <Binding energies>  (1) 
[-8.0]

>  <Ligand effiencies>  (1) 
[-0.21621621621621623]

>  <Interactions>  (1) 
["H-A:TYR:484:OH:4343, H-A:GLU:543:OE2:4905, V-A:GLU:543:CD:4903, V-A:GLU:543:CG:4902, V-A:GLY:544:C:4907, V-B:GLU:543:CG:9875, V-A:HIS:456:CE1:4064, V-B:HIS:456:CE1:9037, H-A:GLU:543:OE1:4904, V-B:GLU:543:CD:9876, V-A:GLU:543:C:4897, V-B:GLU:543:CB:9874, H-B:GLU:543:OE2:9878, V-A:LEU:475:CD2:4254, H-B:GLU:543:OE1:9877, V-A:TYR:484:CE1:4340, V-A:TYR:484:CZ:4342, V-A:LEU:475:CD1:4253, V-B:ALA:541:CB:9860, V-B:HIS:456:CD2:9035, H-A:LYS:547:NZ:4946, H-A:HIS:456:NE2:4065, V-B:HIS:456:CG:9033, V-A:LYS:547:CE:4945"]

$$$$
8d_Ghoteimi_2023
     RDKit          3D

 50 53  0  0  0  0  0  0  0  0999 V2000
  126.3710  126.4120   61.0640 C   0  0  0  0  0  0  0  0  0  0  0  0
  127.0800  127.5460   61.5460 O   0  0  0  0  0  0  0  0  0  0  0  0
  126.5570  128.3280   62.5260 C   0  0  0  0  0  0  0  0  0  0  0  0
  125.6300  129.1230   62.3530 O   0  0  0  0  0  0  0  0  0  0  0  0
  127.2170  128.1300   63.8350 C   0  0  0  0  0  0  0  0  0  0  0  0
  126.5450  128.8830   65.2820 S   0  0  0  0  0  0  0  0  0  0  0  0
  127.8150  128.2030   66.2730 C   0  0  0  0  0  0  0  0  0  0  0  0
  127.8770  128.4230   67.5860 N   0  0  0  0  0  0  0  0  0  0  0  0
  128.9060  127.8450   68.2630 C   0  0  0  0  0  0  0  0  0  0  0  0
  128.9540  128.1110   69.7340 C   0  0  0  0  0  0  0  0  0  0  0  0
  127.8400  127.8720   70.5510 C   0  0  0  0  0  0  0  0  0  0  0  0
  127.8900  128.1220   71.9190 C   0  0  0  0  0  0  0  0  0  0  0  0
  129.0530  128.6180   72.5070 C   0  0  0  0  0  0  0  0  0  0  0  0
  129.0120  128.8350   73.8700 O   0  0  0  0  0  0  0  0  0  0  0  0
  128.1710  129.8630   74.3850 C   0  0  0  0  0  0  0  0  0  0  0  0
  130.1740  128.8590   71.7000 C   0  0  0  0  0  0  0  0  0  0  0  0
  130.1200  128.6070   70.3320 C   0  0  0  0  0  0  0  0  0  0  0  0
  129.8700  127.0590   67.6260 C   0  0  0  0  0  0  0  0  0  0  0  0
  129.8030  126.8260   66.2480 C   0  0  0  0  0  0  0  0  0  0  0  0
  130.8350  125.9810   65.6040 C   0  0  0  0  0  0  0  0  0  0  0  0
  132.1900  126.2420   65.8170 C   0  0  0  0  0  0  0  0  0  0  0  0
  133.1600  125.4530   65.2040 C   0  0  0  0  0  0  0  0  0  0  0  0
  132.7920  124.3930   64.3750 C   0  0  0  0  0  0  0  0  0  0  0  0
  133.8210  123.6660   63.8090 O   0  0  0  0  0  0  0  0  0  0  0  0
  134.2340  123.9650   62.4810 C   0  0  0  0  0  0  0  0  0  0  0  0
  131.4270  124.1300   64.1650 C   0  0  0  0  0  0  0  0  0  0  0  0
  130.4590  124.9200   64.7780 C   0  0  0  0  0  0  0  0  0  0  0  0
  128.7360  127.4170   65.5230 C   0  0  0  0  0  0  0  0  0  0  0  0
  128.3690  127.3940   64.1330 C   0  0  0  0  0  0  0  0  0  0  0  0
  129.0940  126.7110   63.1890 N   0  0  0  0  0  0  0  0  0  0  0  0
  126.0017  125.8214   61.9153 H   0  0  0  0  0  0  0  0  0  0  0  0
  125.5198  126.7447   60.4518 H   0  0  0  0  0  0  0  0  0  0  0  0
  127.0429  125.7925   60.4518 H   0  0  0  0  0  0  0  0  0  0  0  0
  126.9137  127.4815   70.1045 H   0  0  0  0  0  0  0  0  0  0  0  0
  127.0046  127.9267   72.5418 H   0  0  0  0  0  0  0  0  0  0  0  0
  128.1919  129.8374   75.4845 H   0  0  0  0  0  0  0  0  0  0  0  0
  128.5310  130.8414   74.0341 H   0  0  0  0  0  0  0  0  0  0  0  0
  127.1407  129.7040   74.0341 H   0  0  0  0  0  0  0  0  0  0  0  0
  131.0993  129.2486   72.1494 H   0  0  0  0  0  0  0  0  0  0  0  0
  131.0068  128.8003   69.7106 H   0  0  0  0  0  0  0  0  0  0  0  0
  130.6894  126.6193   68.2136 H   0  0  0  0  0  0  0  0  0  0  0  0
  132.4922  127.0733   66.4709 H   0  0  0  0  0  0  0  0  0  0  0  0
  134.2253  125.6673   65.3749 H   0  0  0  0  0  0  0  0  0  0  0  0
  135.1247  124.6098   62.5104 H   0  0  0  0  0  0  0  0  0  0  0  0
  134.4750  123.0307   61.9528 H   0  0  0  0  0  0  0  0  0  0  0  0
  133.4216  124.4857   61.9528 H   0  0  0  0  0  0  0  0  0  0  0  0
  131.1231  123.2970   63.5140 H   0  0  0  0  0  0  0  0  0  0  0  0
  129.3927  124.7075   64.6110 H   0  0  0  0  0  0  0  0  0  0  0  0
  130.1030  126.6750   63.2230 H   0  0  0  0  0  0  0  0  0  0  0  0
  128.6450  126.2170   62.4310 H   0  0  0  0  0  0  0  0  0  0  0  0
  1  2  1  0
  2  3  1  0
  3  4  2  0
  3  5  1  0
  5  6  1  0
  6  7  1  0
  7  8  2  0
  8  9  1  0
  9 10  1  0
 10 11  2  0
 11 12  1  0
 12 13  2  0
 13 14  1  0
 14 15  1  0
 13 16  1  0
 16 17  2  0
  9 18  2  0
 18 19  1  0
 19 20  1  0
 20 21  2  0
 21 22  1  0
 22 23  2  0
 23 24  1  0
 24 25  1  0
 23 26  1  0
 26 27  2  0
 19 28  2  0
 28 29  1  0
 29 30  1  0
 29  5  2  0
 28  7  1  0
 17 10  1  0
 27 20  1  0
  1 31  1  0
  1 32  1  0
  1 33  1  0
 11 34  1  0
 12 35  1  0
 15 36  1  0
 15 37  1  0
 15 38  1  0
 16 39  1  0
 17 40  1  0
 18 41  1  0
 21 42  1  0
 22 43  1  0
 25 44  1  0
 25 45  1  0
 25 46  1  0
 26 47  1  0
 27 48  1  0
 30 49  1  0
 30 50  1  0
M  END
>  <Binding energies>  (1) 
[-6.59]

>  <Ligand effiencies>  (1) 
[-0.2059375]

>  <Interactions>  (1) 
["V-A:ARG:545:CD:4918, H-A:TYR:484:OH:4343, V-A:ARG:545:CZ:4921, H-A:GLY:454:N:4045, V-A:ASP:366:CG:3208, V-A:GLU:543:CD:4903, V-A:GLY:544:C:4907, V-B:GLU:543:CG:9875, V-A:HIS:456:CE1:4064, V-B:HIS:456:CE1:9037, H-A:GLU:543:OE1:4904, V-B:GLU:543:CD:9876, H-B:GLU:543:OE2:9878, V-A:ILE:369:CD1:3234, V-A:GLY:453:C:4037, H-B:LYS:547:NZ:9919, V-B:HIS:456:CD2:9035, H-A:LYS:547:NZ:4946, H-B:ARG:545:NH2:9896, V-B:ASP:366:CG:8180"]

$$$$
9a_Ghoteimi_2023
     RDKit          3D

 85 91  0  0  0  0  0  0  0  0999 V2000
  127.4990  136.7480   61.6920 C   0  0  0  0  0  0  0  0  0  0  0  0
  128.1850  135.3800   61.7740 C   0  0  0  0  0  0  0  0  0  0  0  0
  127.5470  134.4770   60.8790 O   0  0  0  0  0  0  0  0  0  0  0  0
  126.4640  133.7550   61.2650 C   0  0  0  0  0  0  0  0  0  0  0  0
  125.3150  133.9920   60.8780 O   0  0  0  0  0  0  0  0  0  0  0  0
  126.8000  132.6430   62.2160 C   0  0  0  0  0  0  0  0  0  0  0  0
  128.1440  132.3720   62.5060 C   0  0  0  0  0  0  0  0  0  0  0  0
  128.4870  131.3470   63.3830 C   0  0  0  0  0  0  0  0  0  0  0  0
  127.4980  130.5720   63.9880 C   0  0  0  0  0  0  0  0  0  0  0  0
  127.9610  129.5640   64.8550 N   0  0  0  0  0  0  0  0  0  0  0  0
  128.4590  129.6480   66.1140 C   0  0  0  0  0  0  0  0  0  0  0  0
  128.5880  130.7010   66.7380 O   0  0  0  0  0  0  0  0  0  0  0  0
  128.8430  128.3700   66.7220 C   0  0  0  0  0  0  0  0  0  0  0  0
  128.6420  128.1130   68.4560 S   0  0  0  0  0  0  0  0  0  0  0  0
  129.2700  126.4860   68.3330 C   0  0  0  0  0  0  0  0  0  0  0  0
  129.3620  125.6910   69.3980 N   0  0  0  0  0  0  0  0  0  0  0  0
  129.8530  124.4390   69.1920 C   0  0  0  0  0  0  0  0  0  0  0  0
  129.9360  123.5610   70.3980 C   0  0  0  0  0  0  0  0  0  0  0  0
  129.3950  122.2700   70.3770 C   0  0  0  0  0  0  0  0  0  0  0  0
  129.4700  121.4450   71.4950 C   0  0  0  0  0  0  0  0  0  0  0  0
  130.1000  121.8740   72.6740 C   0  0  0  0  0  0  0  0  0  0  0  0
  130.1650  121.0630   73.8120 N   0  0  0  0  0  0  0  0  0  0  0  0
  130.8730  119.7670   73.7960 C   0  0  0  0  0  0  0  0  0  0  0  0
  130.5390  118.8610   74.9990 C   0  0  0  0  0  0  0  0  0  0  0  0
  130.7750  119.5550   76.2130 O   0  0  0  0  0  0  0  0  0  0  0  0
  129.9720  120.7210   76.3090 C   0  0  0  0  0  0  0  0  0  0  0  0
  130.2970  121.6820   75.1470 C   0  0  0  0  0  0  0  0  0  0  0  0
  130.6270  123.1740   72.6950 C   0  0  0  0  0  0  0  0  0  0  0  0
  130.5500  124.0000   71.5770 C   0  0  0  0  0  0  0  0  0  0  0  0
  130.2740  124.0010   67.9350 C   0  0  0  0  0  0  0  0  0  0  0  0
  130.1980  124.8410   66.8180 C   0  0  0  0  0  0  0  0  0  0  0  0
  130.6940  124.3360   65.5120 C   0  0  0  0  0  0  0  0  0  0  0  0
  131.7770  124.9490   64.8770 C   0  0  0  0  0  0  0  0  0  0  0  0
  132.2480  124.4670   63.6600 C   0  0  0  0  0  0  0  0  0  0  0  0
  131.6600  123.3460   63.0530 C   0  0  0  0  0  0  0  0  0  0  0  0
  132.1090  122.8510   61.8260 N   0  0  0  0  0  0  0  0  0  0  0  0
  132.4790  123.8010   60.7580 C   0  0  0  0  0  0  0  0  0  0  0  0
  133.3020  123.1550   59.6230 C   0  0  0  0  0  0  0  0  0  0  0  0
  132.6030  122.0410   59.0900 O   0  0  0  0  0  0  0  0  0  0  0  0
  132.3660  121.0490   60.0760 C   0  0  0  0  0  0  0  0  0  0  0  0
  131.5180  121.6390   61.2240 C   0  0  0  0  0  0  0  0  0  0  0  0
  130.5760  122.7370   63.7000 C   0  0  0  0  0  0  0  0  0  0  0  0
  130.1020  123.2220   64.9150 C   0  0  0  0  0  0  0  0  0  0  0  0
  129.6530  126.1430   67.0030 C   0  0  0  0  0  0  0  0  0  0  0  0
  129.3750  127.2310   66.0990 C   0  0  0  0  0  0  0  0  0  0  0  0
  129.6010  127.1450   64.7490 N   0  0  0  0  0  0  0  0  0  0  0  0
  126.1480  130.8380   63.7070 C   0  0  0  0  0  0  0  0  0  0  0  0
  125.8070  131.8640   62.8290 C   0  0  0  0  0  0  0  0  0  0  0  0
  127.3100  137.1249   62.7080 H   0  0  0  0  0  0  0  0  0  0  0  0
  128.1502  137.4531   61.1546 H   0  0  0  0  0  0  0  0  0  0  0  0
  126.5445  136.6479   61.1546 H   0  0  0  0  0  0  0  0  0  0  0  0
  129.2446  135.4836   61.4974 H   0  0  0  0  0  0  0  0  0  0  0  0
  128.1112  134.9930   62.8010 H   0  0  0  0  0  0  0  0  0  0  0  0
  128.9351  132.9748   62.0362 H   0  0  0  0  0  0  0  0  0  0  0  0
  129.5465  131.1467   63.6006 H   0  0  0  0  0  0  0  0  0  0  0  0
  127.9070  128.6330   64.4680 H   0  0  0  0  0  0  0  0  0  0  0  0
  128.9037  121.9026   69.4639 H   0  0  0  0  0  0  0  0  0  0  0  0
  129.0277  120.4386   71.4543 H   0  0  0  0  0  0  0  0  0  0  0  0
  130.5996  119.2337   72.8736 H   0  0  0  0  0  0  0  0  0  0  0  0
  131.9490  119.9887   73.8505 H   0  0  0  0  0  0  0  0  0  0  0  0
  129.4806  118.5654   74.9489 H   0  0  0  0  0  0  0  0  0  0  0  0
  131.1796  117.9674   74.9651 H   0  0  0  0  0  0  0  0  0  0  0  0
  128.9103  120.4372   76.2610 H   0  0  0  0  0  0  0  0  0  0  0  0
  130.1803  121.2255   77.2640 H   0  0  0  0  0  0  0  0  0  0  0  0
  129.6098  122.5391   75.2022 H   0  0  0  0  0  0  0  0  0  0  0  0
  131.3494  121.9810   75.2609 H   0  0  0  0  0  0  0  0  0  0  0  0
  131.1093  123.5471   73.6105 H   0  0  0  0  0  0  0  0  0  0  0  0
  130.9779  125.0124   71.6207 H   0  0  0  0  0  0  0  0  0  0  0  0
  130.6710  122.9815   67.8209 H   0  0  0  0  0  0  0  0  0  0  0  0
  132.2612  125.8198   65.3431 H   0  0  0  0  0  0  0  0  0  0  0  0
  133.0923  124.9709   63.1668 H   0  0  0  0  0  0  0  0  0  0  0  0
  131.5568  124.2177   60.3268 H   0  0  0  0  0  0  0  0  0  0  0  0
  133.1100  124.5765   61.2167 H   0  0  0  0  0  0  0  0  0  0  0  0
  133.4684  123.8955   58.8268 H   0  0  0  0  0  0  0  0  0  0  0  0
  134.2681  122.8162   60.0253 H   0  0  0  0  0  0  0  0  0  0  0  0
  131.8270  120.2047   59.6214 H   0  0  0  0  0  0  0  0  0  0  0  0
  133.3290  120.7025   60.4791 H   0  0  0  0  0  0  0  0  0  0  0  0
  130.5245  121.8954   60.8275 H   0  0  0  0  0  0  0  0  0  0  0  0
  131.4656  120.8760   62.0146 H   0  0  0  0  0  0  0  0  0  0  0  0
  130.0926  121.8623   63.2403 H   0  0  0  0  0  0  0  0  0  0  0  0
  129.2545  122.7238   65.4086 H   0  0  0  0  0  0  0  0  0  0  0  0
  130.3310  127.6760   64.2950 H   0  0  0  0  0  0  0  0  0  0  0  0
  129.0410  126.5440   64.1600 H   0  0  0  0  0  0  0  0  0  0  0  0
  125.3591  130.2354   64.1808 H   0  0  0  0  0  0  0  0  0  0  0  0
  124.7473  132.0659   62.6137 H   0  0  0  0  0  0  0  0  0  0  0  0
  1  2  1  0
  2  3  1  0
  3  4  1  0
  4  5  2  0
  4  6  1  0
  6  7  2  0
  7  8  1  0
  8  9  2  0
  9 10  1  0
 10 11  1  0
 11 12  2  0
 11 13  1  0
 13 14  1  0
 14 15  1  0
 15 16  2  0
 16 17  1  0
 17 18  1  0
 18 19  2  0
 19 20  1  0
 20 21  2  0
 21 22  1  0
 22 23  1  0
 23 24  1  0
 24 25  1  0
 25 26  1  0
 26 27  1  0
 21 28  1  0
 28 29  2  0
 17 30  2  0
 30 31  1  0
 31 32  1  0
 32 33  2  0
 33 34  1  0
 34 35  2  0
 35 36  1  0
 36 37  1  0
 37 38  1  0
 38 39  1  0
 39 40  1  0
 40 41  1  0
 35 42  1  0
 42 43  2  0
 31 44  2  0
 44 45  1  0
 45 46  1  0
  9 47  1  0
 47 48  2  0
 48  6  1  0
 45 13  2  0
 44 15  1  0
 29 18  1  0
 43 32  1  0
 27 22  1  0
 41 36  1  0
  1 49  1  0
  1 50  1  0
  1 51  1  0
  2 52  1  0
  2 53  1  0
  7 54  1  0
  8 55  1  0
 10 56  1  0
 19 57  1  0
 20 58  1  0
 23 59  1  0
 23 60  1  0
 24 61  1  0
 24 62  1  0
 26 63  1  0
 26 64  1  0
 27 65  1  0
 27 66  1  0
 28 67  1  0
 29 68  1  0
 30 69  1  0
 33 70  1  0
 34 71  1  0
 37 72  1  0
 37 73  1  0
 38 74  1  0
 38 75  1  0
 40 76  1  0
 40 77  1  0
 41 78  1  0
 41 79  1  0
 42 80  1  0
 43 81  1  0
 46 82  1  0
 46 83  1  0
 47 84  1  0
 48 85  1  0
M  END
>  <Binding energies>  (1) 
[-9.45]

>  <Ligand effiencies>  (1) 
[-0.1852941176470588]

>  <Interactions>  (1) 
["H-A:GLU:543:OE2:4905, V-A:ASP:366:CG:3208, V-A:GLU:543:CD:4903, V-A:GLU:543:CG:4902, V-A:GLU:543:CB:4901, V-B:GLU:543:CG:9875, V-A:HIS:456:CE1:4064, V-B:HIS:456:CE1:9037, H-A:GLU:543:OE1:4904, V-B:GLU:543:CD:9876, V-B:GLU:543:CB:9874, H-B:GLU:543:OE2:9878, V-A:LEU:475:CD2:4254, V-B:TYR:539:CD2:9842, V-A:TYR:484:CE1:4340, V-A:TYR:484:CZ:4342, V-B:TYR:539:CE2:9844, V-B:ALA:541:CB:9860, H-B:TYR:484:OH:9315, V-A:PRO:540:C:4876, V-A:ALA:541:CB:4887, V-A:ALA:541:CA:4885, V-A:TYR:539:CE2:4871, V-A:ILE:369:CD1:3234, V-A:HIS:456:CD2:4063, V-B:GLU:543:C:9870, V-B:GLU:543:CA:9872, V-A:TYR:484:CD1:4338, V-A:HIS:456:CG:4061, V-A:TYR:484:CB:4336, H-A:HIS:456:NE2:4065, V-A:TYR:484:CG:4337, V-B:LEU:475:CG:9224, V-B:LEU:475:CD2:9226, V-A:ASP:473:CG:4235, V-A:ASP:473:CB:4234, V-B:TRP:381:CH2:8339, V-B:TRP:381:CZ2:8337, H-A:LYS:471:NZ:4216, V-B:LEU:475:CD1:9225, V-B:PRO:482:CG:9294, V-B:PRO:482:CB:9293, V-B:TRP:381:CE2:8334"]

$$$$
9b_Ghoteimi_2023
     RDKit          3D

 72 78  0  0  0  0  0  0  0  0999 V2000
  129.7490  127.3200   65.2250 N   0  0  0  0  0  0  0  0  0  0  0  0
  129.4480  127.2870   66.5630 C   0  0  0  0  0  0  0  0  0  0  0  0
  128.9420  128.3900   67.2690 C   0  0  0  0  0  0  0  0  0  0  0  0
  128.6200  129.7280   66.7660 C   0  0  0  0  0  0  0  0  0  0  0  0
  128.3930  130.6550   67.5450 O   0  0  0  0  0  0  0  0  0  0  0  0
  128.5880  129.8500   65.4150 N   0  0  0  0  0  0  0  0  0  0  0  0
  128.3010  130.9900   64.6740 C   0  0  0  0  0  0  0  0  0  0  0  0
  127.6110  130.9570   63.4640 C   0  0  0  0  0  0  0  0  0  0  0  0
  127.5330  132.2700   63.0610 C   0  0  0  0  0  0  0  0  0  0  0  0
  128.1440  133.0530   63.9820 O   0  0  0  0  0  0  0  0  0  0  0  0
  128.6270  132.2300   65.0000 N   0  0  0  0  0  0  0  0  0  0  0  0
  128.7010  128.0000   68.9720 S   0  0  0  0  0  0  0  0  0  0  0  0
  129.2940  126.3750   68.7310 C   0  0  0  0  0  0  0  0  0  0  0  0
  129.3920  125.5100   69.7390 N   0  0  0  0  0  0  0  0  0  0  0  0
  129.8820  124.2770   69.4490 C   0  0  0  0  0  0  0  0  0  0  0  0
  130.0020  123.3340   70.6020 C   0  0  0  0  0  0  0  0  0  0  0  0
  129.2720  122.1390   70.6390 C   0  0  0  0  0  0  0  0  0  0  0  0
  129.3760  121.2720   71.7220 C   0  0  0  0  0  0  0  0  0  0  0  0
  130.2030  121.5740   72.8150 C   0  0  0  0  0  0  0  0  0  0  0  0
  130.3200  120.7100   73.9100 N   0  0  0  0  0  0  0  0  0  0  0  0
  130.3680  121.2240   75.2940 C   0  0  0  0  0  0  0  0  0  0  0  0
  130.1490  120.1400   76.3690 C   0  0  0  0  0  0  0  0  0  0  0  0
  131.0760  119.0830   76.1890 O   0  0  0  0  0  0  0  0  0  0  0  0
  130.9230  118.4680   74.9200 C   0  0  0  0  0  0  0  0  0  0  0  0
  131.1620  119.5000   73.7970 C   0  0  0  0  0  0  0  0  0  0  0  0
  130.9460  122.7610   72.7640 C   0  0  0  0  0  0  0  0  0  0  0  0
  130.8460  123.6270   71.6780 C   0  0  0  0  0  0  0  0  0  0  0  0
  130.2460  123.9040   68.1530 C   0  0  0  0  0  0  0  0  0  0  0  0
  130.1250  124.8020   67.0860 C   0  0  0  0  0  0  0  0  0  0  0  0
  130.4960  124.3470   65.7220 C   0  0  0  0  0  0  0  0  0  0  0  0
  131.5260  124.9800   65.0240 C   0  0  0  0  0  0  0  0  0  0  0  0
  131.8890  124.5440   63.7540 C   0  0  0  0  0  0  0  0  0  0  0  0
  131.2320  123.4630   63.1450 C   0  0  0  0  0  0  0  0  0  0  0  0
  131.5900  122.9990   61.8770 N   0  0  0  0  0  0  0  0  0  0  0  0
  132.8940  123.3900   61.3070 C   0  0  0  0  0  0  0  0  0  0  0  0
  132.9880  123.1520   59.7850 C   0  0  0  0  0  0  0  0  0  0  0  0
  132.6970  121.7950   59.4870 O   0  0  0  0  0  0  0  0  0  0  0  0
  131.3910  121.4320   59.9090 C   0  0  0  0  0  0  0  0  0  0  0  0
  131.2540  121.6310   61.4340 C   0  0  0  0  0  0  0  0  0  0  0  0
  130.2110  122.8230   63.8640 C   0  0  0  0  0  0  0  0  0  0  0  0
  129.8480  123.2600   65.1350 C   0  0  0  0  0  0  0  0  0  0  0  0
  129.6460  126.1110   67.3730 C   0  0  0  0  0  0  0  0  0  0  0  0
  129.0650  127.0880   64.5180 H   0  0  0  0  0  0  0  0  0  0  0  0
  130.6710  127.5800   64.8990 H   0  0  0  0  0  0  0  0  0  0  0  0
  128.8000  129.0250   64.8750 H   0  0  0  0  0  0  0  0  0  0  0  0
  127.2145  130.0727   62.9437 H   0  0  0  0  0  0  0  0  0  0  0  0
  127.0516  132.6268   62.1386 H   0  0  0  0  0  0  0  0  0  0  0  0
  128.6077  121.8827   69.8006 H   0  0  0  0  0  0  0  0  0  0  0  0
  128.8007  120.3345   71.7217 H   0  0  0  0  0  0  0  0  0  0  0  0
  131.3541  121.6823   75.4596 H   0  0  0  0  0  0  0  0  0  0  0  0
  129.5451  121.9468   75.3958 H   0  0  0  0  0  0  0  0  0  0  0  0
  130.2904  120.5823   77.3662 H   0  0  0  0  0  0  0  0  0  0  0  0
  129.1272  119.7430   76.2778 H   0  0  0  0  0  0  0  0  0  0  0  0
  131.6511  117.6493   74.8225 H   0  0  0  0  0  0  0  0  0  0  0  0
  129.9003  118.0723   74.8331 H   0  0  0  0  0  0  0  0  0  0  0  0
  132.2176  119.8078   73.8277 H   0  0  0  0  0  0  0  0  0  0  0  0
  130.8939  119.0103   72.8492 H   0  0  0  0  0  0  0  0  0  0  0  0
  131.6198  123.0131   73.5961 H   0  0  0  0  0  0  0  0  0  0  0  0
  131.4386  124.5536   71.6663 H   0  0  0  0  0  0  0  0  0  0  0  0
  130.6329  122.8910   67.9684 H   0  0  0  0  0  0  0  0  0  0  0  0
  132.0542  125.8295   65.4815 H   0  0  0  0  0  0  0  0  0  0  0  0
  132.7034  125.0540   63.2186 H   0  0  0  0  0  0  0  0  0  0  0  0
  133.0550  124.4601   61.5041 H   0  0  0  0  0  0  0  0  0  0  0  0
  133.6609  122.7621   61.7841 H   0  0  0  0  0  0  0  0  0  0  0  0
  132.2651  123.8013   59.2694 H   0  0  0  0  0  0  0  0  0  0  0  0
  134.0078  123.3857   59.4453 H   0  0  0  0  0  0  0  0  0  0  0  0
  130.6527  122.0623   59.3917 H   0  0  0  0  0  0  0  0  0  0  0  0
  131.2142  120.3739   59.6658 H   0  0  0  0  0  0  0  0  0  0  0  0
  130.2144  121.4161   61.7221 H   0  0  0  0  0  0  0  0  0  0  0  0
  131.9677  120.9475   61.9172 H   0  0  0  0  0  0  0  0  0  0  0  0
  129.6899  121.9636   63.4169 H   0  0  0  0  0  0  0  0  0  0  0  0
  129.0441  122.7442   65.6806 H   0  0  0  0  0  0  0  0  0  0  0  0
  1  2  1  0
  2  3  2  0
  3  4  1  0
  4  5  2  0
  4  6  1  0
  6  7  1  0
  7  8  1  0
  8  9  2  0
  9 10  1  0
 10 11  1  0
  3 12  1  0
 12 13  1  0
 13 14  2  0
 14 15  1  0
 15 16  1  0
 16 17  2  0
 17 18  1  0
 18 19  2  0
 19 20  1  0
 20 21  1  0
 21 22  1  0
 22 23  1  0
 23 24  1  0
 24 25  1  0
 19 26  1  0
 26 27  2  0
 15 28  2  0
 28 29  1  0
 29 30  1  0
 30 31  2  0
 31 32  1  0
 32 33  2  0
 33 34  1  0
 34 35  1  0
 35 36  1  0
 36 37  1  0
 37 38  1  0
 38 39  1  0
 33 40  1  0
 40 41  2  0
 29 42  2  0
 42  2  1  0
 11  7  2  0
 42 13  1  0
 27 16  1  0
 41 30  1  0
 25 20  1  0
 39 34  1  0
  1 43  1  0
  1 44  1  0
  6 45  1  0
  8 46  1  0
  9 47  1  0
 17 48  1  0
 18 49  1  0
 21 50  1  0
 21 51  1  0
 22 52  1  0
 22 53  1  0
 24 54  1  0
 24 55  1  0
 25 56  1  0
 25 57  1  0
 26 58  1  0
 27 59  1  0
 28 60  1  0
 31 61  1  0
 32 62  1  0
 35 63  1  0
 35 64  1  0
 36 65  1  0
 36 66  1  0
 38 67  1  0
 38 68  1  0
 39 69  1  0
 39 70  1  0
 40 71  1  0
 41 72  1  0
M  END
>  <Binding energies>  (1) 
[-9.16]

>  <Ligand effiencies>  (1) 
[-0.20355555555555555]

>  <Interactions>  (1) 
["H-A:GLU:543:OE2:4905, V-A:GLU:543:CD:4903, V-A:GLU:543:CG:4902, V-A:GLU:543:CB:4901, V-B:GLU:543:CG:9875, V-A:HIS:456:CE1:4064, V-B:HIS:456:CE1:9037, H-A:GLU:543:OE1:4904, V-B:GLU:543:CD:9876, V-B:GLU:543:CB:9874, H-B:GLU:543:OE2:9878, V-A:LEU:475:CD2:4254, V-B:TYR:539:CD2:9842, V-A:TYR:484:CE1:4340, V-A:TYR:484:CZ:4342, V-B:TYR:539:CE2:9844, V-B:ALA:541:CB:9860, H-B:TYR:484:OH:9315, V-A:ILE:369:CD1:3234, V-A:HIS:456:CD2:4063, V-B:GLU:543:C:9870, V-B:GLU:543:CA:9872, V-A:TYR:484:CD1:4338, V-A:HIS:456:CG:4061, V-A:TYR:484:CB:4336, H-A:HIS:456:NE2:4065, V-A:TYR:484:CG:4337, V-A:ASP:473:CG:4235, V-A:ASP:473:CB:4234, V-A:TYR:484:C:4332, H-A:LYS:471:NZ:4216, V-A:ASP:485:CA:4348, V-A:PRO:486:CD:4361"]

$$$$
9c_Ghoteimi_2023
     RDKit          3D

 72 78  0  0  0  0  0  0  0  0999 V2000
  129.7470  127.3020   65.0310 N   0  0  0  0  0  0  0  0  0  0  0  0
  129.4380  127.3270   66.3670 C   0  0  0  0  0  0  0  0  0  0  0  0
  128.9350  128.4620   67.0230 C   0  0  0  0  0  0  0  0  0  0  0  0
  128.6280  129.7800   66.4610 C   0  0  0  0  0  0  0  0  0  0  0  0
  128.4540  130.7540   67.1970 O   0  0  0  0  0  0  0  0  0  0  0  0
  128.5480  129.8320   65.1090 N   0  0  0  0  0  0  0  0  0  0  0  0
  128.2580  130.9450   64.3320 C   0  0  0  0  0  0  0  0  0  0  0  0
  128.5860  132.1980   64.5610 N   0  0  0  0  0  0  0  0  0  0  0  0
  128.1400  132.9970   63.6110 C   0  0  0  0  0  0  0  0  0  0  0  0
  127.4290  132.3900   62.5790 C   0  0  0  0  0  0  0  0  0  0  0  0
  127.3480  130.6800   62.8790 S   0  0  0  0  0  0  0  0  0  0  0  0
  128.6800  128.1460   68.7390 S   0  0  0  0  0  0  0  0  0  0  0  0
  129.2640  126.5070   68.5710 C   0  0  0  0  0  0  0  0  0  0  0  0
  129.3480  125.6850   69.6160 N   0  0  0  0  0  0  0  0  0  0  0  0
  129.8310  124.4380   69.3810 C   0  0  0  0  0  0  0  0  0  0  0  0
  129.9350  123.5440   70.5740 C   0  0  0  0  0  0  0  0  0  0  0  0
  129.4210  122.2420   70.5520 C   0  0  0  0  0  0  0  0  0  0  0  0
  129.5120  121.4170   71.6680 C   0  0  0  0  0  0  0  0  0  0  0  0
  130.1110  121.8690   72.8560 C   0  0  0  0  0  0  0  0  0  0  0  0
  130.2170  121.0490   73.9850 N   0  0  0  0  0  0  0  0  0  0  0  0
  130.4330  121.6180   75.3310 C   0  0  0  0  0  0  0  0  0  0  0  0
  130.1750  120.6190   76.4790 C   0  0  0  0  0  0  0  0  0  0  0  0
  130.9600  119.4520   76.2900 O   0  0  0  0  0  0  0  0  0  0  0  0
  130.6370  118.8020   75.0720 C   0  0  0  0  0  0  0  0  0  0  0  0
  130.9040  119.7450   73.8780 C   0  0  0  0  0  0  0  0  0  0  0  0
  130.6420  123.1660   72.8660 C   0  0  0  0  0  0  0  0  0  0  0  0
  130.5540  123.9900   71.7470 C   0  0  0  0  0  0  0  0  0  0  0  0
  130.2000  124.0080   68.1040 C   0  0  0  0  0  0  0  0  0  0  0  0
  130.0930  124.8610   67.0000 C   0  0  0  0  0  0  0  0  0  0  0  0
  130.4680  124.3470   65.6590 C   0  0  0  0  0  0  0  0  0  0  0  0
  131.5140  124.9360   64.9470 C   0  0  0  0  0  0  0  0  0  0  0  0
  131.8800  124.4460   63.6960 C   0  0  0  0  0  0  0  0  0  0  0  0
  131.2080  123.3550   63.1240 C   0  0  0  0  0  0  0  0  0  0  0  0
  131.5660  122.8400   61.8740 N   0  0  0  0  0  0  0  0  0  0  0  0
  132.8900  123.1710   61.3110 C   0  0  0  0  0  0  0  0  0  0  0  0
  133.0000  122.8770   59.7990 C   0  0  0  0  0  0  0  0  0  0  0  0
  132.6700  121.5190   59.5440 O   0  0  0  0  0  0  0  0  0  0  0  0
  131.3480  121.2140   59.9560 C   0  0  0  0  0  0  0  0  0  0  0  0
  131.1920  121.4700   61.4710 C   0  0  0  0  0  0  0  0  0  0  0  0
  130.1720  122.7590   63.8580 C   0  0  0  0  0  0  0  0  0  0  0  0
  129.8060  123.2480   65.1090 C   0  0  0  0  0  0  0  0  0  0  0  0
  129.6220  126.1860   67.2280 C   0  0  0  0  0  0  0  0  0  0  0  0
  130.6110  127.6860   64.6760 H   0  0  0  0  0  0  0  0  0  0  0  0
  129.1170  126.8970   64.3530 H   0  0  0  0  0  0  0  0  0  0  0  0
  128.7180  128.9760   64.6010 H   0  0  0  0  0  0  0  0  0  0  0  0
  128.3196  134.0820   63.6328 H   0  0  0  0  0  0  0  0  0  0  0  0
  126.9898  132.9087   61.7141 H   0  0  0  0  0  0  0  0  0  0  0  0
  128.9378  121.8658   69.6382 H   0  0  0  0  0  0  0  0  0  0  0  0
  129.1088  120.3947   71.6199 H   0  0  0  0  0  0  0  0  0  0  0  0
  131.4756  121.9622   75.3987 H   0  0  0  0  0  0  0  0  0  0  0  0
  129.7099  122.4381   75.4517 H   0  0  0  0  0  0  0  0  0  0  0  0
  130.4432  121.0876   77.4373 H   0  0  0  0  0  0  0  0  0  0  0  0
  129.1105  120.3420   76.4853 H   0  0  0  0  0  0  0  0  0  0  0  0
  131.2555  117.8985   74.9670 H   0  0  0  0  0  0  0  0  0  0  0  0
  129.5717  118.5282   75.0824 H   0  0  0  0  0  0  0  0  0  0  0  0
  131.9870  119.9273   73.8150 H   0  0  0  0  0  0  0  0  0  0  0  0
  130.5091  119.2466   72.9805 H   0  0  0  0  0  0  0  0  0  0  0  0
  131.1373  123.5398   73.7743 H   0  0  0  0  0  0  0  0  0  0  0  0
  130.9766  125.0048   71.7856 H   0  0  0  0  0  0  0  0  0  0  0  0
  130.5798  122.9851   67.9646 H   0  0  0  0  0  0  0  0  0  0  0  0
  132.0529  125.7931   65.3770 H   0  0  0  0  0  0  0  0  0  0  0  0
  132.7075  124.9208   63.1485 H   0  0  0  0  0  0  0  0  0  0  0  0
  133.0810  124.2420   61.4735 H   0  0  0  0  0  0  0  0  0  0  0  0
  133.6297  122.5368   61.8215 H   0  0  0  0  0  0  0  0  0  0  0  0
  132.3063  123.5301   59.2493 H   0  0  0  0  0  0  0  0  0  0  0  0
  134.0317  123.0668   59.4678 H   0  0  0  0  0  0  0  0  0  0  0  0
  130.6393  121.8495   59.4047 H   0  0  0  0  0  0  0  0  0  0  0  0
  131.1411  120.1541   59.7467 H   0  0  0  0  0  0  0  0  0  0  0  0
  130.1410  121.2996   61.7473 H   0  0  0  0  0  0  0  0  0  0  0  0
  131.8744  120.7805   61.9896 H   0  0  0  0  0  0  0  0  0  0  0  0
  129.6406  121.8919   63.4388 H   0  0  0  0  0  0  0  0  0  0  0  0
  128.9903  122.7655   65.6674 H   0  0  0  0  0  0  0  0  0  0  0  0
  1  2  1  0
  2  3  2  0
  3  4  1  0
  4  5  2  0
  4  6  1  0
  6  7  1  0
  7  8  2  0
  8  9  1  0
  9 10  2  0
 10 11  1  0
  3 12  1  0
 12 13  1  0
 13 14  2  0
 14 15  1  0
 15 16  1  0
 16 17  2  0
 17 18  1  0
 18 19  2  0
 19 20  1  0
 20 21  1  0
 21 22  1  0
 22 23  1  0
 23 24  1  0
 24 25  1  0
 19 26  1  0
 26 27  2  0
 15 28  2  0
 28 29  1  0
 29 30  1  0
 30 31  2  0
 31 32  1  0
 32 33  2  0
 33 34  1  0
 34 35  1  0
 35 36  1  0
 36 37  1  0
 37 38  1  0
 38 39  1  0
 33 40  1  0
 40 41  2  0
 29 42  2  0
 42  2  1  0
 11  7  1  0
 42 13  1  0
 27 16  1  0
 41 30  1  0
 25 20  1  0
 39 34  1  0
  1 43  1  0
  1 44  1  0
  6 45  1  0
  9 46  1  0
 10 47  1  0
 17 48  1  0
 18 49  1  0
 21 50  1  0
 21 51  1  0
 22 52  1  0
 22 53  1  0
 24 54  1  0
 24 55  1  0
 25 56  1  0
 25 57  1  0
 26 58  1  0
 27 59  1  0
 28 60  1  0
 31 61  1  0
 32 62  1  0
 35 63  1  0
 35 64  1  0
 36 65  1  0
 36 66  1  0
 38 67  1  0
 38 68  1  0
 39 69  1  0
 39 70  1  0
 40 71  1  0
 41 72  1  0
M  END
>  <Binding energies>  (1) 
[-8.79]

>  <Ligand effiencies>  (1) 
[-0.1953333333333333]

>  <Interactions>  (1) 
["H-A:GLU:543:OE2:4905, V-A:GLU:543:CD:4903, V-A:GLU:543:CG:4902, V-A:GLU:543:CB:4901, V-B:GLU:543:CG:9875, V-A:HIS:456:CE1:4064, V-B:HIS:456:CE1:9037, H-A:GLU:543:OE1:4904, V-B:GLU:543:CD:9876, V-B:GLU:543:CB:9874, H-B:GLU:543:OE2:9878, V-A:LEU:475:CD2:4254, V-B:TYR:539:CD2:9842, V-A:TYR:484:CE1:4340, V-A:TYR:484:CZ:4342, V-B:TYR:539:CE2:9844, V-B:ALA:541:CB:9860, H-B:TYR:484:OH:9315, V-A:ALA:541:CB:4887, V-A:ILE:369:CD1:3234, V-A:HIS:456:CD2:4063, V-B:GLU:543:C:9870, V-B:GLU:543:CA:9872, V-A:TYR:484:CD1:4338, V-A:HIS:456:CG:4061, V-A:TYR:484:CB:4336, H-A:HIS:456:NE2:4065, V-A:TYR:484:CG:4337, V-A:ASP:473:CG:4235, V-A:ASP:473:CB:4234, H-A:LYS:471:NZ:4216"]

$$$$
9d_Ghoteimi_2023
     RDKit          3D

 68 73  0  0  0  0  0  0  0  0999 V2000
  123.0740  130.0430   66.3180 C   0  0  0  0  0  0  0  0  0  0  0  0
  123.7500  130.9840   65.4970 O   0  0  0  0  0  0  0  0  0  0  0  0
  124.0150  130.7070   64.1940 C   0  0  0  0  0  0  0  0  0  0  0  0
  123.3400  131.1230   63.2490 O   0  0  0  0  0  0  0  0  0  0  0  0
  125.2040  129.8430   64.0180 C   0  0  0  0  0  0  0  0  0  0  0  0
  125.5500  129.1360   62.4410 S   0  0  0  0  0  0  0  0  0  0  0  0
  126.9960  128.3710   63.0570 C   0  0  0  0  0  0  0  0  0  0  0  0
  127.7920  127.6490   62.2700 N   0  0  0  0  0  0  0  0  0  0  0  0
  128.9020  127.1110   62.8420 C   0  0  0  0  0  0  0  0  0  0  0  0
  129.7940  126.3260   61.9340 C   0  0  0  0  0  0  0  0  0  0  0  0
  131.1620  126.2170   62.2040 C   0  0  0  0  0  0  0  0  0  0  0  0
  132.0020  125.4910   61.3640 C   0  0  0  0  0  0  0  0  0  0  0  0
  131.5010  124.8360   60.2280 C   0  0  0  0  0  0  0  0  0  0  0  0
  132.3350  124.1170   59.3650 N   0  0  0  0  0  0  0  0  0  0  0  0
  132.3040  122.6410   59.3180 C   0  0  0  0  0  0  0  0  0  0  0  0
  133.5080  122.0140   58.5850 C   0  0  0  0  0  0  0  0  0  0  0  0
  133.6220  122.5620   57.2820 O   0  0  0  0  0  0  0  0  0  0  0  0
  133.8260  123.9640   57.3250 C   0  0  0  0  0  0  0  0  0  0  0  0
  132.6320  124.6540   58.0210 C   0  0  0  0  0  0  0  0  0  0  0  0
  130.1310  124.9620   59.9530 C   0  0  0  0  0  0  0  0  0  0  0  0
  129.2920  125.6910   60.7920 C   0  0  0  0  0  0  0  0  0  0  0  0
  129.1920  127.2680   64.1990 C   0  0  0  0  0  0  0  0  0  0  0  0
  128.3480  128.0090   65.0340 C   0  0  0  0  0  0  0  0  0  0  0  0
  128.6890  128.1210   66.4770 C   0  0  0  0  0  0  0  0  0  0  0  0
  129.0470  129.3520   67.0310 C   0  0  0  0  0  0  0  0  0  0  0  0
  129.3470  129.4560   68.3870 C   0  0  0  0  0  0  0  0  0  0  0  0
  129.2810  128.3330   69.2280 C   0  0  0  0  0  0  0  0  0  0  0  0
  129.5860  128.4090   70.5880 N   0  0  0  0  0  0  0  0  0  0  0  0
  129.4170  127.2080   71.4290 C   0  0  0  0  0  0  0  0  0  0  0  0
  130.1440  127.3090   72.7880 C   0  0  0  0  0  0  0  0  0  0  0  0
  129.7220  128.4750   73.4790 O   0  0  0  0  0  0  0  0  0  0  0  0
  130.0050  129.6540   72.7390 C   0  0  0  0  0  0  0  0  0  0  0  0
  129.2710  129.6120   71.3820 C   0  0  0  0  0  0  0  0  0  0  0  0
  128.9200  127.1020   68.6590 C   0  0  0  0  0  0  0  0  0  0  0  0
  128.6220  126.9990   67.3040 C   0  0  0  0  0  0  0  0  0  0  0  0
  127.2030  128.6160   64.4470 C   0  0  0  0  0  0  0  0  0  0  0  0
  126.1710  129.4780   64.9630 C   0  0  0  0  0  0  0  0  0  0  0  0
  126.1500  129.9200   66.2610 N   0  0  0  0  0  0  0  0  0  0  0  0
  123.2493  130.2870   67.3762 H   0  0  0  0  0  0  0  0  0  0  0  0
  121.9951  130.0806   66.1069 H   0  0  0  0  0  0  0  0  0  0  0  0
  123.4540  129.0325   66.1069 H   0  0  0  0  0  0  0  0  0  0  0  0
  131.5802  126.7120   63.0928 H   0  0  0  0  0  0  0  0  0  0  0  0
  133.0759  125.4296   61.5943 H   0  0  0  0  0  0  0  0  0  0  0  0
  132.2911  122.2617   60.3505 H   0  0  0  0  0  0  0  0  0  0  0  0
  131.4034  122.3582   58.7532 H   0  0  0  0  0  0  0  0  0  0  0  0
  134.4281  122.2239   59.1502 H   0  0  0  0  0  0  0  0  0  0  0  0
  133.3573  120.9271   58.5075 H   0  0  0  0  0  0  0  0  0  0  0  0
  134.7478  124.1803   57.8848 H   0  0  0  0  0  0  0  0  0  0  0  0
  133.9132  124.3464   56.2973 H   0  0  0  0  0  0  0  0  0  0  0  0
  132.8591  125.7259   58.1180 H   0  0  0  0  0  0  0  0  0  0  0  0
  131.7453  124.4668   57.3975 H   0  0  0  0  0  0  0  0  0  0  0  0
  129.7123  124.4765   59.0591 H   0  0  0  0  0  0  0  0  0  0  0  0
  128.2208  125.7688   60.5542 H   0  0  0  0  0  0  0  0  0  0  0  0
  130.0966  126.8027   64.6175 H   0  0  0  0  0  0  0  0  0  0  0  0
  129.0924  130.2460   66.3917 H   0  0  0  0  0  0  0  0  0  0  0  0
  129.6395  130.4306   68.8049 H   0  0  0  0  0  0  0  0  0  0  0  0
  128.3432  127.0613   71.6171 H   0  0  0  0  0  0  0  0  0  0  0  0
  129.8605  126.3621   70.8834 H   0  0  0  0  0  0  0  0  0  0  0  0
  129.9088  126.4214   73.3938 H   0  0  0  0  0  0  0  0  0  0  0  0
  131.2287  127.3652   72.6139 H   0  0  0  0  0  0  0  0  0  0  0  0
  129.6675  130.5321   73.3091 H   0  0  0  0  0  0  0  0  0  0  0  0
  131.0888  129.7191   72.5624 H   0  0  0  0  0  0  0  0  0  0  0  0
  128.1874  129.6331   71.5698 H   0  0  0  0  0  0  0  0  0  0  0  0
  129.6067  130.4840   70.8016 H   0  0  0  0  0  0  0  0  0  0  0  0
  128.8719  126.2050   69.2939 H   0  0  0  0  0  0  0  0  0  0  0  0
  128.3314  126.0259   66.8814 H   0  0  0  0  0  0  0  0  0  0  0  0
  125.6390  130.7470   66.5330 H   0  0  0  0  0  0  0  0  0  0  0  0
  126.6440  129.4290   66.9930 H   0  0  0  0  0  0  0  0  0  0  0  0
  1  2  1  0
  2  3  1  0
  3  4  2  0
  3  5  1  0
  5  6  1  0
  6  7  1  0
  7  8  2  0
  8  9  1  0
  9 10  1  0
 10 11  2  0
 11 12  1  0
 12 13  2  0
 13 14  1  0
 14 15  1  0
 15 16  1  0
 16 17  1  0
 17 18  1  0
 18 19  1  0
 13 20  1  0
 20 21  2  0
  9 22  2  0
 22 23  1  0
 23 24  1  0
 24 25  2  0
 25 26  1  0
 26 27  2  0
 27 28  1  0
 28 29  1  0
 29 30  1  0
 30 31  1  0
 31 32  1  0
 32 33  1  0
 27 34  1  0
 34 35  2  0
 23 36  2  0
 36 37  1  0
 37 38  1  0
 37  5  2  0
 36  7  1  0
 21 10  1  0
 35 24  1  0
 19 14  1  0
 33 28  1  0
  1 39  1  0
  1 40  1  0
  1 41  1  0
 11 42  1  0
 12 43  1  0
 15 44  1  0
 15 45  1  0
 16 46  1  0
 16 47  1  0
 18 48  1  0
 18 49  1  0
 19 50  1  0
 19 51  1  0
 20 52  1  0
 21 53  1  0
 22 54  1  0
 25 55  1  0
 26 56  1  0
 29 57  1  0
 29 58  1  0
 30 59  1  0
 30 60  1  0
 32 61  1  0
 32 62  1  0
 33 63  1  0
 33 64  1  0
 34 65  1  0
 35 66  1  0
 38 67  1  0
 38 68  1  0
M  END
>  <Binding energies>  (1) 
[-8.2]

>  <Ligand effiencies>  (1) 
[-0.205]

>  <Interactions>  (1) 
["V-A:ASP:366:CG:3208, V-A:GLU:543:CD:4903, V-A:GLU:543:CG:4902, V-A:GLU:543:CB:4901, V-A:GLU:543:CA:4899, V-A:HIS:456:CE1:4064, V-B:HIS:456:CE1:9037, V-B:GLU:543:CD:9876, V-A:GLU:543:C:4897, V-B:GLU:543:CB:9874, V-B:TYR:539:CE2:9844, V-B:ARG:545:CZ:9894, H-B:TYR:484:OH:9315, V-B:ARG:545:CD:9891, V-A:ASP:366:CB:3207, V-A:TYR:531:CZ:4789, V-B:ARG:545:CG:9890, H-B:GLY:454:N:9017, V-A:ILE:369:CD1:3234, H-B:LYS:547:NZ:9919, V-B:HIS:456:CD2:9035, H-A:LYS:547:NZ:4946, H-B:HIS:456:NE2:9038, V-A:LYS:547:CE:4945, V-B:GLY:453:CA:9011, V-A:ILE:369:CG2:3232, V-B:TYR:484:CZ:9314, V-B:GLY:453:C:9009, V-A:ILE:369:CB:3231, V-A:ASP:366:C:3203, V-A:ASP:366:CA:3205, V-A:ILE:369:CG1:3233, H-B:TYR:539:OH:9846"]

$$$$
RR10_Rahimova_2017
     RDKit          3D

 66 70  0  0  0  0  0  0  0  0999 V2000
  124.6600  119.7780   72.4150 C   0  0  0  0  0  0  0  0  0  0  0  0
  126.1620  119.6270   72.1220 C   0  0  1  0  0  0  0  0  0  0  0  0
  126.6390  120.6100   71.0280 C   0  0  0  0  0  0  0  0  0  0  0  0
  128.1420  120.4170   70.7260 C   0  0  0  0  0  0  0  0  0  0  0  0
  129.0200  120.6000   71.9910 C   0  0  1  0  0  0  0  0  0  0  0  0
  129.0050  121.9990   72.4380 N   0  0  0  0  0  0  0  0  0  0  0  0
  129.8230  122.9700   71.9910 C   0  0  0  0  0  0  0  0  0  0  0  0
  130.6760  122.7810   71.1210 O   0  0  0  0  0  0  0  0  0  0  0  0
  129.6600  124.3640   72.6320 C   0  0  1  0  0  0  0  0  0  0  0  0
  131.0060  124.7960   73.2710 C   0  0  0  0  0  0  0  0  0  0  0  0
  130.8740  126.2320   73.8340 C   0  0  0  0  0  0  0  0  0  0  0  0
  130.3250  127.2300   72.7880 C   0  0  0  0  0  0  0  0  0  0  0  0
  129.0710  126.7130   72.1760 N   0  0  0  0  0  0  0  0  0  0  0  0
  128.1950  127.8950   71.1890 S   0  0  0  0  0  0  0  0  0  0  0  0
  128.8530  129.1980   71.3470 O   0  0  0  0  0  0  0  0  0  0  0  0
  126.7630  127.7510   71.4770 O   0  0  0  0  0  0  0  0  0  0  0  0
  128.4710  127.3820   69.4940 C   0  0  0  0  0  0  0  0  0  0  0  0
  127.3980  127.3760   68.5970 C   0  0  0  0  0  0  0  0  0  0  0  0
  127.5450  126.9840   67.2630 C   0  0  0  0  0  0  0  0  0  0  0  0
  128.8270  126.5980   66.8650 C   0  0  0  0  0  0  0  0  0  0  0  0
  129.3630  126.1560   65.6780 N   0  0  0  0  0  0  0  0  0  0  0  0
  130.7070  125.9190   65.8810 C   0  0  0  0  0  0  0  0  0  0  0  0
  131.6330  125.4150   64.8120 C   0  0  0  0  0  0  0  0  0  0  0  0
  131.1220  124.9460   63.5940 C   0  0  0  0  0  0  0  0  0  0  0  0
  131.9790  124.4820   62.6000 C   0  0  0  0  0  0  0  0  0  0  0  0
  133.3540  124.4820   62.8190 C   0  0  0  0  0  0  0  0  0  0  0  0
  133.8780  124.9450   64.0230 C   0  0  0  0  0  0  0  0  0  0  0  0
  133.0190  125.4090   65.0160 C   0  0  0  0  0  0  0  0  0  0  0  0
  131.0730  126.1850   67.1160 N   0  0  0  0  0  0  0  0  0  0  0  0
  129.9330  126.6040   67.7490 C   0  0  0  0  0  0  0  0  0  0  0  0
  129.7540  127.0040   69.0810 C   0  0  0  0  0  0  0  0  0  0  0  0
  129.2260  125.3780   71.5450 C   0  0  0  0  0  0  0  0  0  0  0  0
  128.5200  119.6190   73.0860 C   0  0  0  0  0  0  0  0  0  0  0  0
  127.0190  119.8140   73.3960 C   0  0  0  0  0  0  0  0  0  0  0  0
  124.4985  119.7942   73.5030 H   0  0  0  0  0  0  0  0  0  0  0  0
  124.2934  120.7175   71.9758 H   0  0  0  0  0  0  0  0  0  0  0  0
  124.1137  118.9302   71.9758 H   0  0  0  0  0  0  0  0  0  0  0  0
  126.2992  118.5997   71.7535 H   0  0  0  0  0  0  0  0  0  0  0  0
  126.0618  120.4324   70.1086 H   0  0  0  0  0  0  0  0  0  0  0  0
  126.4835  121.6375   71.3887 H   0  0  0  0  0  0  0  0  0  0  0  0
  128.2968  119.4022   70.3307 H   0  0  0  0  0  0  0  0  0  0  0  0
  128.4408  121.1810   69.9932 H   0  0  0  0  0  0  0  0  0  0  0  0
  130.0700  120.3630   71.7646 H   0  0  0  0  0  0  0  0  0  0  0  0
  128.4060  122.2050   73.2240 H   0  0  0  0  0  0  0  0  0  0  0  0
  128.8895  124.3309   73.4164 H   0  0  0  0  0  0  0  0  0  0  0  0
  131.2628  124.1046   74.0871 H   0  0  0  0  0  0  0  0  0  0  0  0
  131.7977  124.7733   72.5076 H   0  0  0  0  0  0  0  0  0  0  0  0
  130.1900  126.2118   74.6952 H   0  0  0  0  0  0  0  0  0  0  0  0
  131.8795  126.5711   74.1240 H   0  0  0  0  0  0  0  0  0  0  0  0
  130.1169  128.1913   73.2805 H   0  0  0  0  0  0  0  0  0  0  0  0
  131.0770  127.3620   71.9961 H   0  0  0  0  0  0  0  0  0  0  0  0
  126.4056  127.6901   68.9528 H   0  0  0  0  0  0  0  0  0  0  0  0
  126.6958  126.9798   66.5638 H   0  0  0  0  0  0  0  0  0  0  0  0
  128.9010  126.0090   64.7930 H   0  0  0  0  0  0  0  0  0  0  0  0
  130.0355  124.9446   63.4223 H   0  0  0  0  0  0  0  0  0  0  0  0
  131.5717  124.1169   61.6456 H   0  0  0  0  0  0  0  0  0  0  0  0
  134.0315  124.1134   62.0348 H   0  0  0  0  0  0  0  0  0  0  0  0
  134.9654  124.9443   64.1891 H   0  0  0  0  0  0  0  0  0  0  0  0
  133.4320  125.7737   65.9681 H   0  0  0  0  0  0  0  0  0  0  0  0
  130.6003  127.0203   69.7835 H   0  0  0  0  0  0  0  0  0  0  0  0
  128.2682  125.0626   71.1055 H   0  0  0  0  0  0  0  0  0  0  0  0
  129.9852  125.4243   70.7503 H   0  0  0  0  0  0  0  0  0  0  0  0
  128.6798  118.5876   72.7386 H   0  0  0  0  0  0  0  0  0  0  0  0
  129.0862  119.8208   74.0072 H   0  0  0  0  0  0  0  0  0  0  0  0
  126.7084  119.0759   74.1502 H   0  0  0  0  0  0  0  0  0  0  0  0
  126.8686  120.8363   73.7731 H   0  0  0  0  0  0  0  0  0  0  0  0
  1  2  1  0
  2  3  1  0
  3  4  1  0
  4  5  1  0
  5  6  1  0
  6  7  1  0
  7  8  2  0
  7  9  1  0
  9 10  1  0
 10 11  1  0
 11 12  1  0
 12 13  1  0
 13 14  1  0
 14 15  2  0
 14 16  2  0
 14 17  1  0
 17 18  2  0
 18 19  1  0
 19 20  2  0
 20 21  1  0
 21 22  1  0
 22 23  1  0
 23 24  2  0
 24 25  1  0
 25 26  2  0
 26 27  1  0
 27 28  2  0
 22 29  2  0
 29 30  1  0
 30 31  2  0
 13 32  1  0
  5 33  1  0
 33 34  1  0
 34  2  1  0
 32  9  1  0
 31 17  1  0
 30 20  1  0
 28 23  1  0
  1 35  1  0
  1 36  1  0
  1 37  1  0
  2 38  1  6
  3 39  1  0
  3 40  1  0
  4 41  1  0
  4 42  1  0
  5 43  1  6
  6 44  1  0
  9 45  1  1
 10 46  1  0
 10 47  1  0
 11 48  1  0
 11 49  1  0
 12 50  1  0
 12 51  1  0
 18 52  1  0
 19 53  1  0
 21 54  1  0
 24 55  1  0
 25 56  1  0
 26 57  1  0
 27 58  1  0
 28 59  1  0
 31 60  1  0
 32 61  1  0
 32 62  1  0
 33 63  1  0
 33 64  1  0
 34 65  1  0
 34 66  1  0
M  END
>  <Binding energies>  (1) 
[-9.23]

>  <Ligand effiencies>  (1) 
[-0.2563888888888889]

>  <Interactions>  (1) 
["V-A:ARG:545:CZ:4921, V-A:ASP:366:CG:3208, V-B:GLU:543:CG:9875, V-A:HIS:456:CE1:4064, V-B:HIS:456:CE1:9037, V-B:GLU:543:CD:9876, V-B:GLU:543:CB:9874, H-B:GLU:543:OE2:9878, V-A:GLY:453:CA:4039, V-B:GLU:543:C:9870, V-B:GLU:543:CA:9872, H-B:LYS:547:NZ:9919, V-B:HIS:456:CD2:9035, V-B:GLY:544:CA:9882, V-A:TYR:484:CD1:4338, V-A:HIS:456:CG:4061, V-A:TYR:484:CB:4336, H-A:HIS:456:NE2:4065, V-B:LYS:547:CE:9918, V-A:TYR:484:CG:4337, V-B:VAL:542:C:9862, V-A:LYS:547:CE:4945, H-B:HIS:456:ND1:9034, V-B:VAL:542:CG1:9867"]

$$$$
RR11_Rahimova_2017
     RDKit          3D

 55 60  0  0  0  0  0  0  0  0999 V2000
  122.6240  130.8600   61.7360 N   0  0  0  0  0  0  0  0  0  0  0  0
  123.5890  130.2560   62.5390 C   0  0  0  0  0  0  0  0  0  0  0  0
  124.7220  129.6920   61.9550 C   0  0  0  0  0  0  0  0  0  0  0  0
  125.6870  129.0910   62.7580 C   0  0  0  0  0  0  0  0  0  0  0  0
  125.5300  129.0480   64.1500 C   0  0  0  0  0  0  0  0  0  0  0  0
  126.5740  128.4050   65.0140 C   0  0  0  0  0  0  0  0  0  0  0  0
  126.3880  128.0560   66.2680 N   0  0  0  0  0  0  0  0  0  0  0  0
  127.5750  127.5010   66.6700 C   0  0  0  0  0  0  0  0  0  0  0  0
  127.9230  126.9570   67.9140 C   0  0  0  0  0  0  0  0  0  0  0  0
  129.2100  126.4290   68.0730 C   0  0  0  0  0  0  0  0  0  0  0  0
  129.6180  125.8370   69.4150 C   0  0  0  0  0  0  0  0  0  0  0  0
  129.4850  126.8250   70.5650 C   0  0  0  0  0  0  0  0  0  0  0  0
  129.5390  126.3580   71.8830 C   0  0  0  0  0  0  0  0  0  0  0  0
  129.4300  127.2260   72.9720 C   0  0  0  0  0  0  0  0  0  0  0  0
  129.2720  128.5940   72.7130 C   0  0  0  0  0  0  0  0  0  0  0  0
  129.1370  129.6340   73.5940 N   0  0  0  0  0  0  0  0  0  0  0  0
  129.0140  130.7100   72.8460 C   0  0  0  0  0  0  0  0  0  0  0  0
  128.8240  132.1000   73.3810 C   0  0  0  0  0  0  0  0  0  0  0  0
  127.9960  132.3280   74.4880 C   0  0  0  0  0  0  0  0  0  0  0  0
  127.8110  133.6180   74.9780 C   0  0  0  0  0  0  0  0  0  0  0  0
  128.4550  134.6900   74.3650 C   0  0  0  0  0  0  0  0  0  0  0  0
  128.2670  135.9830   74.8520 N   0  0  0  0  0  0  0  0  0  0  0  0
  129.2840  134.4780   73.2670 C   0  0  0  0  0  0  0  0  0  0  0  0
  129.4680  133.1880   72.7770 C   0  0  0  0  0  0  0  0  0  0  0  0
  129.0700  130.4110   71.5010 N   0  0  0  0  0  0  0  0  0  0  0  0
  129.2330  129.0520   71.3740 C   0  0  0  0  0  0  0  0  0  0  0  0
  129.3460  128.1900   70.2810 C   0  0  0  0  0  0  0  0  0  0  0  0
  130.1320  126.4690   67.0210 C   0  0  0  0  0  0  0  0  0  0  0  0
  129.8170  127.0090   65.7710 C   0  0  0  0  0  0  0  0  0  0  0  0
  128.5250  127.5170   65.6210 C   0  0  0  0  0  0  0  0  0  0  0  0
  127.8480  128.1060   64.5790 N   0  0  0  0  0  0  0  0  0  0  0  0
  124.3850  129.6180   64.7230 C   0  0  0  0  0  0  0  0  0  0  0  0
  123.4180  130.2200   63.9220 C   0  0  0  0  0  0  0  0  0  0  0  0
  122.5930  131.8680   61.6690 H   0  0  0  0  0  0  0  0  0  0  0  0
  121.9930  130.2840   61.1990 H   0  0  0  0  0  0  0  0  0  0  0  0
  124.8530  129.7218   60.8632 H   0  0  0  0  0  0  0  0  0  0  0  0
  126.5806  128.6459   62.2961 H   0  0  0  0  0  0  0  0  0  0  0  0
  127.2025  126.9452   68.7451 H   0  0  0  0  0  0  0  0  0  0  0  0
  128.9776  124.9674   69.6239 H   0  0  0  0  0  0  0  0  0  0  0  0
  130.6793  125.5569   69.3425 H   0  0  0  0  0  0  0  0  0  0  0  0
  129.6705  125.2813   72.0659 H   0  0  0  0  0  0  0  0  0  0  0  0
  129.4671  126.8463   74.0037 H   0  0  0  0  0  0  0  0  0  0  0  0
  127.4883  131.4815   74.9736 H   0  0  0  0  0  0  0  0  0  0  0  0
  127.1583  133.7900   75.8465 H   0  0  0  0  0  0  0  0  0  0  0  0
  128.8100  136.7440   74.4680 H   0  0  0  0  0  0  0  0  0  0  0  0
  127.5650  136.1500   75.5590 H   0  0  0  0  0  0  0  0  0  0  0  0
  129.7924  135.3276   72.7877 H   0  0  0  0  0  0  0  0  0  0  0  0
  130.1236  133.0217   71.9095 H   0  0  0  0  0  0  0  0  0  0  0  0
  128.9920  131.1080   70.7740 H   0  0  0  0  0  0  0  0  0  0  0  0
  129.3268  128.5646   69.2469 H   0  0  0  0  0  0  0  0  0  0  0  0
  131.1405  126.0609   67.1837 H   0  0  0  0  0  0  0  0  0  0  0  0
  130.5478  127.0326   64.9492 H   0  0  0  0  0  0  0  0  0  0  0  0
  128.1760  128.3020   63.6450 H   0  0  0  0  0  0  0  0  0  0  0  0
  124.2491  129.5896   65.8142 H   0  0  0  0  0  0  0  0  0  0  0  0
  122.5222  130.6656   64.3791 H   0  0  0  0  0  0  0  0  0  0  0  0
  1  2  1  0
  2  3  2  0
  3  4  1  0
  4  5  2  0
  5  6  1  0
  6  7  2  0
  7  8  1  0
  8  9  2  0
  9 10  1  0
 10 11  1  0
 11 12  1  0
 12 13  2  0
 13 14  1  0
 14 15  2  0
 15 16  1  0
 16 17  2  0
 17 18  1  0
 18 19  2  0
 19 20  1  0
 20 21  2  0
 21 22  1  0
 21 23  1  0
 23 24  2  0
 17 25  1  0
 25 26  1  0
 26 27  2  0
 10 28  2  0
 28 29  1  0
 29 30  2  0
 30 31  1  0
  5 32  1  0
 32 33  2  0
 33  2  1  0
 31  6  1  0
 30  8  1  0
 27 12  1  0
 26 15  1  0
 24 18  1  0
  1 34  1  0
  1 35  1  0
  3 36  1  0
  4 37  1  0
  9 38  1  0
 11 39  1  0
 11 40  1  0
 13 41  1  0
 14 42  1  0
 19 43  1  0
 20 44  1  0
 22 45  1  0
 22 46  1  0
 23 47  1  0
 24 48  1  0
 25 49  1  0
 27 50  1  0
 28 51  1  0
 29 52  1  0
 31 53  1  0
 32 54  1  0
 33 55  1  0
M  END
>  <Binding energies>  (1) 
[-7.97]

>  <Ligand effiencies>  (1) 
[-0.20435897435897435]

>  <Interactions>  (1) 
["V-A:GLU:543:CD:4903, V-A:HIS:456:CE1:4064, V-B:GLU:543:CD:9876, V-A:GLU:543:C:4897, V-B:GLU:543:CB:9874, H-B:GLU:543:OE2:9878, V-B:ARG:545:CZ:9894, V-B:ARG:545:CD:9891, V-B:GLU:543:C:9870, V-B:HIS:456:CD2:9035, H-A:LYS:547:NZ:4946, V-B:LYS:547:CE:9918, H-A:GLU:543:O:4898, H-B:HIS:456:NE2:9038, V-B:ASP:473:CG:9207, V-B:TYR:484:CB:9308, V-B:ASP:473:CB:9206, H-B:ASP:366:OD1:8181, V-B:ASP:366:CG:8180, V-B:ILE:369:CD1:8206, V-B:GLY:453:CA:9011, V-B:GLY:453:C:9009, H-B:ASP:473:OD2:9209, H-B:CYS:365:O:8173, H-B:TYR:484:O:9305, V-B:TYR:484:C:9304"]

$$$$
RR11_Rahimova_2017-again1
     RDKit          3D

 56 61  0  0  0  0  0  0  0  0999 V2000
  128.4840  135.9660   74.8170 N   0  0  0  0  0  0  0  0  0  0  0  0
  128.6230  134.6670   74.3320 C   0  0  0  0  0  0  0  0  0  0  0  0
  129.4990  134.4080   73.2800 C   0  0  0  0  0  0  0  0  0  0  0  0
  129.6340  133.1090   72.7950 C   0  0  0  0  0  0  0  0  0  0  0  0
  128.8950  132.0600   73.3570 C   0  0  0  0  0  0  0  0  0  0  0  0
  129.0350  130.6620   72.8280 C   0  0  0  0  0  0  0  0  0  0  0  0
  129.1420  129.5910   73.5810 N   0  0  0  0  0  0  0  0  0  0  0  0
  129.2680  128.5430   72.7060 C   0  0  0  0  0  0  0  0  0  0  0  0
  129.4200  127.1760   72.9740 C   0  0  0  0  0  0  0  0  0  0  0  0
  129.5440  126.3040   71.8920 C   0  0  0  0  0  0  0  0  0  0  0  0
  129.5230  126.7650   70.5710 C   0  0  0  0  0  0  0  0  0  0  0  0
  129.6680  125.7700   69.4290 C   0  0  0  0  0  0  0  0  0  0  0  0
  129.2530  126.3550   68.0860 C   0  0  0  0  0  0  0  0  0  0  0  0
  130.1640  126.3570   67.0230 C   0  0  0  0  0  0  0  0  0  0  0  0
  129.8420  126.8820   65.7690 C   0  0  0  0  0  0  0  0  0  0  0  0
  128.5540  127.4060   65.6210 C   0  0  0  0  0  0  0  0  0  0  0  0
  127.9160  128.0030   64.5420 N   0  0  0  0  0  0  0  0  0  0  0  0
  126.6350  128.3650   64.8920 C   0  0  0  0  0  0  0  0  0  0  0  0
  125.6260  129.0490   64.0270 C   0  0  0  0  0  0  0  0  0  0  0  0
  125.8090  129.0980   62.6400 C   0  0  0  0  0  0  0  0  0  0  0  0
  124.8690  129.7270   61.8280 C   0  0  0  0  0  0  0  0  0  0  0  0
  123.7400  130.3100   62.4010 C   0  0  0  0  0  0  0  0  0  0  0  0
  122.7970  130.9360   61.5870 N   0  0  0  0  0  0  0  0  0  0  0  0
  123.5490  130.2680   63.7810 C   0  0  0  0  0  0  0  0  0  0  0  0
  124.4900  129.6400   64.5920 C   0  0  0  0  0  0  0  0  0  0  0  0
  126.4680  127.9810   66.2020 N   0  0  0  0  0  0  0  0  0  0  0  0
  127.6310  127.3920   66.6800 C   0  0  0  0  0  0  0  0  0  0  0  0
  127.9560  126.8600   67.9300 C   0  0  0  0  0  0  0  0  0  0  0  0
  129.3490  128.1240   70.2780 C   0  0  0  0  0  0  0  0  0  0  0  0
  129.2330  128.9940   71.3650 C   0  0  0  0  0  0  0  0  0  0  0  0
  129.0760  130.3550   71.4840 N   0  0  0  0  0  0  0  0  0  0  0  0
  128.0190  132.3350   74.4150 C   0  0  0  0  0  0  0  0  0  0  0  0
  127.8830  133.6330   74.9020 C   0  0  0  0  0  0  0  0  0  0  0  0
  127.8860  136.1390   75.6110 H   0  0  0  0  0  0  0  0  0  0  0  0
  128.9520  136.7260   74.3420 H   0  0  0  0  0  0  0  0  0  0  0  0
  130.0823  135.2268   72.8337 H   0  0  0  0  0  0  0  0  0  0  0  0
  130.3261  132.9055   71.9645 H   0  0  0  0  0  0  0  0  0  0  0  0
  129.4410  126.8011   74.0079 H   0  0  0  0  0  0  0  0  0  0  0  0
  129.6612  125.2269   72.0822 H   0  0  0  0  0  0  0  0  0  0  0  0
  130.7205  125.4565   69.3665 H   0  0  0  0  0  0  0  0  0  0  0  0
  129.0032  124.9198   69.6416 H   0  0  0  0  0  0  0  0  0  0  0  0
  131.1660  125.9313   67.1802 H   0  0  0  0  0  0  0  0  0  0  0  0
  130.5651  126.8831   64.9400 H   0  0  0  0  0  0  0  0  0  0  0  0
  128.2950  128.1750   63.6220 H   0  0  0  0  0  0  0  0  0  0  0  0
  126.7003  128.6371   62.1892 H   0  0  0  0  0  0  0  0  0  0  0  0
  125.0168  129.7637   60.7386 H   0  0  0  0  0  0  0  0  0  0  0  0
  122.7720  131.9440   61.5370 H   0  0  0  0  0  0  0  0  0  0  0  0
  122.1290  130.3750   61.0780 H   0  0  0  0  0  0  0  0  0  0  0  0
  122.6566  130.7301   64.2283 H   0  0  0  0  0  0  0  0  0  0  0  0
  124.3402  129.6081   65.6813 H   0  0  0  0  0  0  0  0  0  0  0  0
  125.6060  128.1340   66.7040 H   0  0  0  0  0  0  0  0  0  0  0  0
  127.2271  126.8387   68.7536 H   0  0  0  0  0  0  0  0  0  0  0  0
  129.3058  128.4887   69.2411 H   0  0  0  0  0  0  0  0  0  0  0  0
  129.0080  131.0480   70.7540 H   0  0  0  0  0  0  0  0  0  0  0  0
  127.4338  131.5194   74.8648 H   0  0  0  0  0  0  0  0  0  0  0  0
  127.1938  133.8410   75.7337 H   0  0  0  0  0  0  0  0  0  0  0  0
  1  2  1  0
  2  3  2  0
  3  4  1  0
  4  5  2  0
  5  6  1  0
  6  7  2  0
  7  8  1  0
  8  9  2  0
  9 10  1  0
 10 11  2  0
 11 12  1  0
 12 13  1  0
 13 14  2  0
 14 15  1  0
 15 16  2  0
 16 17  1  0
 17 18  1  0
 18 19  1  0
 19 20  2  0
 20 21  1  0
 21 22  2  0
 22 23  1  0
 22 24  1  0
 24 25  2  0
 18 26  2  0
 26 27  1  0
 27 28  2  0
 11 29  1  0
 29 30  2  0
 30 31  1  0
  5 32  1  0
 32 33  2  0
 33  2  1  0
 31  6  1  0
 30  8  1  0
 28 13  1  0
 27 16  1  0
 25 19  1  0
  1 34  1  0
  1 35  1  0
  3 36  1  0
  4 37  1  0
  9 38  1  0
 10 39  1  0
 12 40  1  0
 12 41  1  0
 14 42  1  0
 15 43  1  0
 17 44  1  0
 20 45  1  0
 21 46  1  0
 23 47  1  0
 23 48  1  0
 24 49  1  0
 25 50  1  0
 26 51  1  0
 28 52  1  0
 29 53  1  0
 31 54  1  0
 32 55  1  0
 33 56  1  0
M  CHG  1  26   1
M  END
>  <Binding energies>  (1) 
[-8.14]

>  <Ligand effiencies>  (1) 
[-0.20350000000000001]

>  <Interactions>  (1) 
["V-A:GLU:543:CD:4903, V-B:GLU:543:CG:9875, V-A:HIS:456:CE1:4064, V-B:HIS:456:CE1:9037, V-B:GLU:543:CD:9876, V-A:GLU:543:C:4897, V-B:GLU:543:CB:9874, H-B:GLU:543:OE2:9878, V-B:ARG:545:CZ:9894, V-B:GLU:543:C:9870, V-B:HIS:456:CD2:9035, H-A:LYS:547:NZ:4946, V-B:LYS:547:CE:9918, H-A:GLU:543:O:4898, H-B:HIS:456:NE2:9038, V-B:ASP:473:CG:9207, V-B:TYR:484:CB:9308, V-B:ASP:473:CB:9206, H-B:ASP:366:OD1:8181, V-B:ASP:366:CG:8180, V-B:ILE:369:CD1:8206, V-B:GLY:453:CA:9011, H-B:ASP:473:OD2:9209, H-B:CYS:365:O:8173, H-B:TYR:484:O:9305, V-B:TYR:484:C:9304"]

$$$$
RR11_Rahimova_2017-again2
     RDKit          3D

 57 62  0  0  0  0  0  0  0  0999 V2000
  134.2360  119.2270   60.6300 N   0  0  0  0  0  0  0  0  0  0  0  0
  133.1380  120.0770   60.5090 C   0  0  0  0  0  0  0  0  0  0  0  0
  133.3350  121.4370   60.2780 C   0  0  0  0  0  0  0  0  0  0  0  0
  132.2380  122.2870   60.1630 C   0  0  0  0  0  0  0  0  0  0  0  0
  130.9380  121.7810   60.2780 C   0  0  0  0  0  0  0  0  0  0  0  0
  129.7600  122.6940   60.1650 C   0  0  0  0  0  0  0  0  0  0  0  0
  129.7500  124.0540   60.3760 N   0  0  0  0  0  0  0  0  0  0  0  0
  128.4760  124.5600   60.1560 C   0  0  0  0  0  0  0  0  0  0  0  0
  127.9660  125.8590   60.2310 C   0  0  0  0  0  0  0  0  0  0  0  0
  126.6110  126.0280   59.9200 C   0  0  0  0  0  0  0  0  0  0  0  0
  125.9990  127.4210   59.9790 C   0  0  0  0  0  0  0  0  0  0  0  0
  126.1040  128.0540   61.3600 C   0  0  0  0  0  0  0  0  0  0  0  0
  125.3290  129.1790   61.6640 C   0  0  0  0  0  0  0  0  0  0  0  0
  125.3820  129.8030   62.9130 C   0  0  0  0  0  0  0  0  0  0  0  0
  126.2500  129.2450   63.8560 C   0  0  0  0  0  0  0  0  0  0  0  0
  126.5530  129.6060   65.1610 N   0  0  0  0  0  0  0  0  0  0  0  0
  127.4830  128.7400   65.6880 C   0  0  0  0  0  0  0  0  0  0  0  0
  128.0840  128.7930   67.0550 C   0  0  0  0  0  0  0  0  0  0  0  0
  127.9560  127.7040   67.9250 C   0  0  0  0  0  0  0  0  0  0  0  0
  128.5250  127.7480   69.1950 C   0  0  0  0  0  0  0  0  0  0  0  0
  129.2240  128.8820   69.6020 C   0  0  0  0  0  0  0  0  0  0  0  0
  129.7990  128.9250   70.8720 N   0  0  0  0  0  0  0  0  0  0  0  0
  129.3540  129.9750   68.7460 C   0  0  0  0  0  0  0  0  0  0  0  0
  128.7860  129.9300   67.4750 C   0  0  0  0  0  0  0  0  0  0  0  0
  127.7580  127.8210   64.7030 N   0  0  0  0  0  0  0  0  0  0  0  0
  127.0200  128.1070   63.5620 C   0  0  0  0  0  0  0  0  0  0  0  0
  126.9580  127.4830   62.3130 C   0  0  0  0  0  0  0  0  0  0  0  0
  125.8040  124.9360   59.5810 C   0  0  0  0  0  0  0  0  0  0  0  0
  126.3060  123.6340   59.5110 C   0  0  0  0  0  0  0  0  0  0  0  0
  127.6630  123.4710   59.8020 C   0  0  0  0  0  0  0  0  0  0  0  0
  128.4760  122.3450   59.8170 N   0  0  0  0  0  0  0  0  0  0  0  0
  130.7510  120.4120   60.5060 C   0  0  0  0  0  0  0  0  0  0  0  0
  131.8480  119.5620   60.6210 C   0  0  0  0  0  0  0  0  0  0  0  0
  134.7000  119.1380   61.5230 H   0  0  0  0  0  0  0  0  0  0  0  0
  134.5980  118.7600   59.8110 H   0  0  0  0  0  0  0  0  0  0  0  0
  134.3551  121.8384   60.1867 H   0  0  0  0  0  0  0  0  0  0  0  0
  132.3937  123.3606   59.9810 H   0  0  0  0  0  0  0  0  0  0  0  0
  130.5770  124.5650   60.6450 H   0  0  0  0  0  0  0  0  0  0  0  0
  128.5999  126.7099   60.5211 H   0  0  0  0  0  0  0  0  0  0  0  0
  126.5215  128.0652   59.2565 H   0  0  0  0  0  0  0  0  0  0  0  0
  124.9297  127.3232   59.7401 H   0  0  0  0  0  0  0  0  0  0  0  0
  124.6561  129.5853   60.8944 H   0  0  0  0  0  0  0  0  0  0  0  0
  124.7715  130.6887   63.1427 H   0  0  0  0  0  0  0  0  0  0  0  0
  126.1780  130.3830   65.6870 H   0  0  0  0  0  0  0  0  0  0  0  0
  127.4031  126.8089   67.6038 H   0  0  0  0  0  0  0  0  0  0  0  0
  128.4228  126.8895   69.8751 H   0  0  0  0  0  0  0  0  0  0  0  0
  130.2100  129.7850   71.2040 H   0  0  0  0  0  0  0  0  0  0  0  0
  129.8570  128.0780   71.4190 H   0  0  0  0  0  0  0  0  0  0  0  0
  129.9034  130.8700   69.0734 H   0  0  0  0  0  0  0  0  0  0  0  0
  128.8892  130.7910   66.7982 H   0  0  0  0  0  0  0  0  0  0  0  0
  128.4180  127.0680   64.8350 H   0  0  0  0  0  0  0  0  0  0  0  0
  127.5522  126.5850   62.0884 H   0  0  0  0  0  0  0  0  0  0  0  0
  124.7398  125.1084   59.3625 H   0  0  0  0  0  0  0  0  0  0  0  0
  125.6660  122.7812   59.2407 H   0  0  0  0  0  0  0  0  0  0  0  0
  128.2130  121.3930   59.6080 H   0  0  0  0  0  0  0  0  0  0  0  0
  129.7325  120.0061   60.5947 H   0  0  0  0  0  0  0  0  0  0  0  0
  131.6967  118.4872   60.7997 H   0  0  0  0  0  0  0  0  0  0  0  0
  1  2  1  0
  2  3  2  0
  3  4  1  0
  4  5  2  0
  5  6  1  0
  6  7  1  0
  7  8  1  0
  8  9  2  0
  9 10  1  0
 10 11  1  0
 11 12  1  0
 12 13  2  0
 13 14  1  0
 14 15  2  0
 15 16  1  0
 16 17  1  0
 17 18  1  0
 18 19  2  0
 19 20  1  0
 20 21  2  0
 21 22  1  0
 21 23  1  0
 23 24  2  0
 17 25  2  0
 25 26  1  0
 26 27  2  0
 10 28  2  0
 28 29  1  0
 29 30  2  0
 30 31  1  0
  5 32  1  0
 32 33  2  0
 33  2  1  0
 31  6  2  0
 30  8  1  0
 27 12  1  0
 26 15  1  0
 24 18  1  0
  1 34  1  0
  1 35  1  0
  3 36  1  0
  4 37  1  0
  7 38  1  0
  9 39  1  0
 11 40  1  0
 11 41  1  0
 13 42  1  0
 14 43  1  0
 16 44  1  0
 19 45  1  0
 20 46  1  0
 22 47  1  0
 22 48  1  0
 23 49  1  0
 24 50  1  0
 25 51  1  0
 27 52  1  0
 28 53  1  0
 29 54  1  0
 31 55  1  0
 32 56  1  0
 33 57  1  0
M  CHG  2  25   1  31   1
M  END
>  <Binding energies>  (1) 
[-7.98]

>  <Ligand effiencies>  (1) 
[-0.19463414634146342]

>  <Interactions>  (1) 
["V-A:GLU:543:CG:4902, V-A:GLU:543:CB:4901, V-A:GLU:543:CA:4899, V-B:HIS:456:CE1:9037, V-B:GLU:543:CD:9876, V-A:GLU:543:C:4897, H-B:GLU:543:OE2:9878, V-A:LEU:475:CD2:4254, V-B:TYR:539:CD2:9842, V-A:TRP:381:CZ3:3366, V-A:TRP:381:CZ2:3365, V-A:TRP:381:CH2:3367, V-B:TYR:539:CE2:9844, H-B:TYR:484:OH:9315, V-A:ILE:369:CD1:3234, V-B:HIS:456:CD2:9035, H-A:GLU:543:O:4898, V-B:PRO:540:CB:9853, V-B:PRO:540:CA:9851, V-B:ASP:366:CG:8180, H-B:TYR:539:O:9836, V-A:ILE:369:CG2:3232, V-B:TYR:539:C:9835, V-B:TYR:484:CE1:9312, H-A:GLY:544:O:4908, H-A:SER:385:O:3401, V-A:SER:385:CB:3404, V-A:SER:385:C:3400, V-A:SER:385:CA:3402"]

$$$$
RR12_Rahimova_2017
     RDKit          3D

 51 53  0  0  0  0  0  0  0  0999 V2000
  128.6740  133.3050   72.8580 C   0  0  0  0  0  0  0  0  0  0  0  0
  127.7610  133.3470   74.0900 C   0  0  0  0  0  0  0  0  0  0  0  0
  128.0720  132.2230   75.0950 C   0  0  0  0  0  0  0  0  0  0  0  0
  127.4380  130.9720   74.6860 N   0  0  0  0  0  0  0  0  0  0  0  0
  127.9950  129.9520   73.9290 C   0  0  0  0  0  0  0  0  0  0  0  0
  129.3960  129.9990   73.3450 C   0  0  0  0  0  0  0  0  0  0  0  0
  129.3910  129.9790   71.8050 C   0  0  0  0  0  0  0  0  0  0  0  0
  130.1400  128.7650   71.2230 C   0  0  0  0  0  0  0  0  0  0  0  0
  130.5320  127.7760   72.2270 N   0  0  0  0  0  0  0  0  0  0  0  0
  129.8740  126.6290   72.4790 C   0  0  0  0  0  0  0  0  0  0  0  0
  128.8520  126.2910   71.8790 O   0  0  0  0  0  0  0  0  0  0  0  0
  130.4820  125.7430   73.5730 C   0  0  0  0  0  0  0  0  0  0  0  0
  131.3580  126.5240   74.3870 O   0  0  0  0  0  0  0  0  0  0  0  0
  132.6060  126.0240   74.7110 C   0  0  0  0  0  0  0  0  0  0  0  0
  133.7030  126.6960   74.1670 C   0  0  0  0  0  0  0  0  0  0  0  0
  135.0000  126.2680   74.4390 C   0  0  0  0  0  0  0  0  0  0  0  0
  135.2020  125.1640   75.2610 C   0  0  0  0  0  0  0  0  0  0  0  0
  134.1200  124.4810   75.8110 C   0  0  0  0  0  0  0  0  0  0  0  0
  132.8230  124.9090   75.5370 C   0  0  0  0  0  0  0  0  0  0  0  0
  127.1860  128.9380   73.7470 N   0  0  0  0  0  0  0  0  0  0  0  0
  126.0470  129.2720   74.4270 C   0  0  0  0  0  0  0  0  0  0  0  0
  124.8610  128.5380   74.5750 C   0  0  0  0  0  0  0  0  0  0  0  0
  123.8320  129.0990   75.3320 C   0  0  0  0  0  0  0  0  0  0  0  0
  123.9710  130.3520   75.9290 C   0  0  0  0  0  0  0  0  0  0  0  0
  125.1380  131.1080   75.7980 C   0  0  0  0  0  0  0  0  0  0  0  0
  126.1710  130.5450   75.0370 C   0  0  0  0  0  0  0  0  0  0  0  0
  129.7243  133.2567   73.1814 H   0  0  0  0  0  0  0  0  0  0  0  0
  128.4349  132.4169   72.2546 H   0  0  0  0  0  0  0  0  0  0  0  0
  128.5175  134.2113   72.2546 H   0  0  0  0  0  0  0  0  0  0  0  0
  127.8926  134.3162   74.5933 H   0  0  0  0  0  0  0  0  0  0  0  0
  126.7264  133.2075   73.7433 H   0  0  0  0  0  0  0  0  0  0  0  0
  129.1609  132.0757   75.1459 H   0  0  0  0  0  0  0  0  0  0  0  0
  127.6785  132.5122   76.0807 H   0  0  0  0  0  0  0  0  0  0  0  0
  129.8896  130.9215   73.6847 H   0  0  0  0  0  0  0  0  0  0  0  0
  129.9336  129.1036   73.6903 H   0  0  0  0  0  0  0  0  0  0  0  0
  128.3479  129.9487   71.4570 H   0  0  0  0  0  0  0  0  0  0  0  0
  129.9093  130.8856   71.4596 H   0  0  0  0  0  0  0  0  0  0  0  0
  129.4852  128.2730   70.4887 H   0  0  0  0  0  0  0  0  0  0  0  0
  131.0671  129.1473   70.7710 H   0  0  0  0  0  0  0  0  0  0  0  0
  131.3650  127.9840   72.7580 H   0  0  0  0  0  0  0  0  0  0  0  0
  129.6772  125.3258   74.1962 H   0  0  0  0  0  0  0  0  0  0  0  0
  131.0484  124.9229   73.1076 H   0  0  0  0  0  0  0  0  0  0  0  0
  133.5412  127.5699   73.5188 H   0  0  0  0  0  0  0  0  0  0  0  0
  135.8601  126.8000   74.0062 H   0  0  0  0  0  0  0  0  0  0  0  0
  136.2263  124.8272   75.4787 H   0  0  0  0  0  0  0  0  0  0  0  0
  134.2888  123.6079   76.4585 H   0  0  0  0  0  0  0  0  0  0  0  0
  131.9658  124.3718   75.9691 H   0  0  0  0  0  0  0  0  0  0  0  0
  124.7455  127.5488   74.1078 H   0  0  0  0  0  0  0  0  0  0  0  0
  122.8922  128.5420   75.4606 H   0  0  0  0  0  0  0  0  0  0  0  0
  123.1366  130.7567   76.5206 H   0  0  0  0  0  0  0  0  0  0  0  0
  125.2411  132.0967   76.2690 H   0  0  0  0  0  0  0  0  0  0  0  0
  1  2  1  0
  2  3  1  0
  3  4  1  0
  4  5  1  0
  5  6  1  0
  6  7  1  0
  7  8  1  0
  8  9  1  0
  9 10  1  0
 10 11  2  0
 10 12  1  0
 12 13  1  0
 13 14  1  0
 14 15  2  0
 15 16  1  0
 16 17  2  0
 17 18  1  0
 18 19  2  0
  5 20  2  0
 20 21  1  0
 21 22  2  0
 22 23  1  0
 23 24  2  0
 24 25  1  0
 25 26  2  0
 26  4  1  0
 19 14  1  0
 26 21  1  0
  1 27  1  0
  1 28  1  0
  1 29  1  0
  2 30  1  0
  2 31  1  0
  3 32  1  0
  3 33  1  0
  6 34  1  0
  6 35  1  0
  7 36  1  0
  7 37  1  0
  8 38  1  0
  8 39  1  0
  9 40  1  0
 12 41  1  0
 12 42  1  0
 15 43  1  0
 16 44  1  0
 17 45  1  0
 18 46  1  0
 19 47  1  0
 22 48  1  0
 23 49  1  0
 24 50  1  0
 25 51  1  0
M  END
>  <Binding energies>  (1) 
[-6.92]

>  <Ligand effiencies>  (1) 
[-0.2562962962962963]

>  <Interactions>  (1) 
["V-A:HIS:456:CE1:4064, H-A:HIS:456:ND1:4062, H-B:LYS:547:NZ:9919, V-B:HIS:456:CD2:9035, H-A:LYS:547:NZ:4946, V-A:HIS:456:CG:4061, V-B:LYS:547:CE:9918, V-B:TYR:484:CG:9309, V-B:ASP:473:CG:9207, V-B:HIS:456:CG:9033, V-B:TYR:484:CB:9308, V-B:HIS:456:CB:9032, V-B:ASP:473:CB:9206, V-A:LYS:547:CE:4945, V-A:HIS:456:CB:4060, H-A:GLY:544:O:4908, V-A:LYS:547:CG:4943, V-B:LYS:547:CD:9917, V-A:ARG:545:C:4912, V-A:LYS:547:CD:4944, V-A:VAL:458:CG2:4082, V-A:HIS:456:C:4056, V-A:HIS:456:CA:4058, V-A:VAL:457:C:4068, V-A:VAL:457:CA:4070, V-B:VAL:458:CG2:9054, V-B:HIS:456:C:9028, V-B:LYS:547:CG:9916, V-B:VAL:457:C:9040, V-B:HIS:456:CA:9030, V-B:VAL:457:CA:9042"]

$$$$
RR13_Rahimova_2017
     RDKit          3D

 84 90  0  0  0  0  0  0  0  0999 V2000
  128.5940  132.1850   62.8360 Cl  0  0  0  0  0  0  0  0  0  0  0  0
  127.0450  132.3870   62.0900 C   0  0  0  0  0  0  0  0  0  0  0  0
  126.8450  133.5230   61.3030 C   0  0  0  0  0  0  0  0  0  0  0  0
  125.6150  133.7540   60.6940 C   0  0  0  0  0  0  0  0  0  0  0  0
  124.5720  132.8480   60.8710 C   0  0  0  0  0  0  0  0  0  0  0  0
  124.7630  131.7120   61.6550 C   0  0  0  0  0  0  0  0  0  0  0  0
  126.0010  131.4560   62.2680 C   0  0  0  0  0  0  0  0  0  0  0  0
  126.1800  130.2030   63.1520 C   0  0  1  0  0  0  0  0  0  0  0  0
  125.1040  130.1410   64.2460 C   0  0  0  0  0  0  0  0  0  0  0  0
  124.0810  130.9540   64.3880 N   0  0  0  0  0  0  0  0  0  0  0  0
  123.4050  130.5230   65.5260 N   0  0  0  0  0  0  0  0  0  0  0  0
  124.0560  129.4380   66.0800 N   0  0  0  0  0  0  0  0  0  0  0  0
  125.1140  129.2370   65.2870 N   0  0  0  0  0  0  0  0  0  0  0  0
  126.0290  128.1310   65.5440 C   0  0  0  0  0  0  0  0  0  0  0  0
  127.4630  128.6580   65.7390 C   0  0  0  0  0  0  0  0  0  0  0  0
  127.9840  128.4010   67.1440 C   0  0  0  0  0  0  0  0  0  0  0  0
  128.9980  129.2060   67.6700 C   0  0  0  0  0  0  0  0  0  0  0  0
  129.4800  128.9640   68.9540 C   0  0  0  0  0  0  0  0  0  0  0  0
  128.9460  127.9190   69.7060 C   0  0  0  0  0  0  0  0  0  0  0  0
  127.9370  127.1130   69.1870 C   0  0  0  0  0  0  0  0  0  0  0  0
  127.4540  127.3530   67.9020 C   0  0  0  0  0  0  0  0  0  0  0  0
  126.2720  128.9420   62.3780 N   0  0  0  0  0  0  0  0  0  0  0  0
  127.6280  128.3710   62.4770 C   0  0  0  0  0  0  0  0  0  0  0  0
  127.6940  126.9900   61.7830 C   0  0  0  0  0  0  0  0  0  0  0  0
  127.3740  127.1130   60.3510 N   0  0  0  0  0  0  0  0  0  0  0  0
  127.5060  125.8260   59.6290 C   0  0  1  0  0  0  0  0  0  0  0  0
  128.9270  125.4860   59.1280 C   0  0  0  0  0  0  0  0  0  0  0  0
  129.9630  126.3510   59.5070 C   0  0  0  0  0  0  0  0  0  0  0  0
  131.2800  126.1130   59.1150 C   0  0  0  0  0  0  0  0  0  0  0  0
  131.5800  125.0040   58.3290 C   0  0  0  0  0  0  0  0  0  0  0  0
  130.5640  124.1430   57.9270 C   0  0  0  0  0  0  0  0  0  0  0  0
  129.2400  124.3740   58.3110 C   0  0  0  0  0  0  0  0  0  0  0  0
  128.0390  123.2850   57.7040 Cl  0  0  0  0  0  0  0  0  0  0  0  0
  126.9230  124.6410   60.4010 C   0  0  0  0  0  0  0  0  0  0  0  0
  125.6820  124.2190   60.3260 N   0  0  0  0  0  0  0  0  0  0  0  0
  125.6010  123.1190   61.1740 N   0  0  0  0  0  0  0  0  0  0  0  0
  126.8290  122.8760   61.7530 N   0  0  0  0  0  0  0  0  0  0  0  0
  127.6360  123.8150   61.2440 N   0  0  0  0  0  0  0  0  0  0  0  0
  129.0340  123.8780   61.6570 C   0  0  0  0  0  0  0  0  0  0  0  0
  129.4530  122.5630   62.3390 C   0  0  0  0  0  0  0  0  0  0  0  0
  130.3900  121.7390   61.4690 C   0  0  0  0  0  0  0  0  0  0  0  0
  131.5910  122.2930   61.0180 C   0  0  0  0  0  0  0  0  0  0  0  0
  132.4520  121.5360   60.2270 C   0  0  0  0  0  0  0  0  0  0  0  0
  132.1090  120.2270   59.8910 C   0  0  0  0  0  0  0  0  0  0  0  0
  130.9120  119.6700   60.3390 C   0  0  0  0  0  0  0  0  0  0  0  0
  130.0520  120.4250   61.1300 C   0  0  0  0  0  0  0  0  0  0  0  0
  126.0160  127.6790   60.2570 C   0  0  0  0  0  0  0  0  0  0  0  0
  125.9580  129.0630   60.9430 C   0  0  0  0  0  0  0  0  0  0  0  0
  127.6663  134.2412   61.1632 H   0  0  0  0  0  0  0  0  0  0  0  0
  125.4669  134.6505   60.0740 H   0  0  0  0  0  0  0  0  0  0  0  0
  123.5983  133.0291   60.3923 H   0  0  0  0  0  0  0  0  0  0  0  0
  123.9321  131.0051   61.7961 H   0  0  0  0  0  0  0  0  0  0  0  0
  127.1569  130.3058   63.6470 H   0  0  0  0  0  0  0  0  0  0  0  0
  125.7106  127.6004   66.4534 H   0  0  0  0  0  0  0  0  0  0  0  0
  126.0134  127.4462   64.6833 H   0  0  0  0  0  0  0  0  0  0  0  0
  128.1256  128.1564   65.0183 H   0  0  0  0  0  0  0  0  0  0  0  0
  127.4472  129.7462   65.5788 H   0  0  0  0  0  0  0  0  0  0  0  0
  129.4146  130.0292   67.0710 H   0  0  0  0  0  0  0  0  0  0  0  0
  130.2783  129.5945   69.3726 H   0  0  0  0  0  0  0  0  0  0  0  0
  129.3261  127.7292   70.7206 H   0  0  0  0  0  0  0  0  0  0  0  0
  127.5227  126.2903   69.7883 H   0  0  0  0  0  0  0  0  0  0  0  0
  126.6575  126.7191   67.4852 H   0  0  0  0  0  0  0  0  0  0  0  0
  128.3427  129.0526   61.9926 H   0  0  0  0  0  0  0  0  0  0  0  0
  127.8806  128.2440   63.5401 H   0  0  0  0  0  0  0  0  0  0  0  0
  128.7083  126.5786   61.8926 H   0  0  0  0  0  0  0  0  0  0  0  0
  126.9587  126.3212   62.2542 H   0  0  0  0  0  0  0  0  0  0  0  0
  126.8988  125.9962   58.7277 H   0  0  0  0  0  0  0  0  0  0  0  0
  129.7333  127.2323   60.1239 H   0  0  0  0  0  0  0  0  0  0  0  0
  132.0803  126.8004   59.4264 H   0  0  0  0  0  0  0  0  0  0  0  0
  132.6193  124.8087   58.0261 H   0  0  0  0  0  0  0  0  0  0  0  0
  130.8050  123.2715   57.3006 H   0  0  0  0  0  0  0  0  0  0  0  0
  129.6660  124.0446   60.7722 H   0  0  0  0  0  0  0  0  0  0  0  0
  129.1576  124.7051   62.3715 H   0  0  0  0  0  0  0  0  0  0  0  0
  129.9638  122.8008   63.2837 H   0  0  0  0  0  0  0  0  0  0  0  0
  128.5442  121.9686   62.5145 H   0  0  0  0  0  0  0  0  0  0  0  0
  131.8562  123.3260   61.2874 H   0  0  0  0  0  0  0  0  0  0  0  0
  133.3979  121.9687   59.8692 H   0  0  0  0  0  0  0  0  0  0  0  0
  132.7889  119.6284   59.2669 H   0  0  0  0  0  0  0  0  0  0  0  0
  130.6485  118.6370   60.0679 H   0  0  0  0  0  0  0  0  0  0  0  0
  129.1077  119.9892   61.4882 H   0  0  0  0  0  0  0  0  0  0  0  0
  125.7419  127.7884   59.1973 H   0  0  0  0  0  0  0  0  0  0  0  0
  125.3122  127.0014   60.7626 H   0  0  0  0  0  0  0  0  0  0  0  0
  126.6893  129.7334   60.4678 H   0  0  0  0  0  0  0  0  0  0  0  0
  124.9424  129.4713   60.8345 H   0  0  0  0  0  0  0  0  0  0  0  0
  1  2  1  0
  2  3  2  0
  3  4  1  0
  4  5  2  0
  5  6  1  0
  6  7  2  0
  7  8  1  0
  8  9  1  0
  9 10  2  0
 10 11  1  0
 11 12  2  0
 12 13  1  0
 13 14  1  0
 14 15  1  0
 15 16  1  0
 16 17  2  0
 17 18  1  0
 18 19  2  0
 19 20  1  0
 20 21  2  0
  8 22  1  0
 22 23  1  0
 23 24  1  0
 24 25  1  0
 25 26  1  0
 26 27  1  0
 27 28  2  0
 28 29  1  0
 29 30  2  0
 30 31  1  0
 31 32  2  0
 32 33  1  0
 26 34  1  0
 34 35  2  0
 35 36  1  0
 36 37  2  0
 37 38  1  0
 38 39  1  0
 39 40  1  0
 40 41  1  0
 41 42  2  0
 42 43  1  0
 43 44  2  0
 44 45  1  0
 45 46  2  0
 25 47  1  0
 47 48  1  0
  7  2  1  0
 13  9  1  0
 21 16  1  0
 48 22  1  0
 32 27  1  0
 38 34  1  0
 46 41  1  0
  3 49  1  0
  4 50  1  0
  5 51  1  0
  6 52  1  0
  8 53  1  1
 14 54  1  0
 14 55  1  0
 15 56  1  0
 15 57  1  0
 17 58  1  0
 18 59  1  0
 19 60  1  0
 20 61  1  0
 21 62  1  0
 23 63  1  0
 23 64  1  0
 24 65  1  0
 24 66  1  0
 26 67  1  6
 28 68  1  0
 29 69  1  0
 30 70  1  0
 31 71  1  0
 39 72  1  0
 39 73  1  0
 40 74  1  0
 40 75  1  0
 42 76  1  0
 43 77  1  0
 44 78  1  0
 45 79  1  0
 46 80  1  0
 47 81  1  0
 47 82  1  0
 48 83  1  0
 48 84  1  0
M  END
>  <Binding energies>  (1) 
[-11.87]

>  <Ligand effiencies>  (1) 
[-0.24729166666666666]

>  <Interactions>  (1) 
["V-A:ASP:366:CG:3208, V-A:GLU:543:CG:4902, V-A:GLU:543:CB:4901, V-B:HIS:456:CE1:9037, V-B:GLU:543:CD:9876, V-A:GLU:543:C:4897, V-B:GLU:543:CB:9874, V-A:LEU:475:CD2:4254, V-B:TYR:539:CD2:9842, V-A:TRP:381:CZ2:3365, V-A:TRP:381:CH2:3367, V-B:TYR:539:CE2:9844, V-B:ALA:541:CB:9860, V-B:ARG:545:CZ:9894, H-B:TYR:484:OH:9315, V-B:ARG:545:CD:9891, V-A:ALA:541:CB:4887, V-A:TYR:539:CE2:4871, H-B:GLY:454:N:9017, V-B:GLU:543:C:9870, H-B:ARG:545:NH2:9896, H-B:ARG:545:NE:9892, V-B:ASP:366:CG:8180, V-B:ILE:369:CD1:8206, V-B:LEU:475:CD2:9226, V-A:TYR:539:CD2:4869, H-B:ALA:541:N:9859"]

$$$$
RR14_Rahimova_2017
     RDKit          3D

 76 80  0  0  0  0  0  0  0  0999 V2000
  130.1350  119.3670   61.0110 C   0  0  0  0  0  0  0  0  0  0  0  0
  131.4310  119.9290   60.8290 O   0  0  0  0  0  0  0  0  0  0  0  0
  131.7040  121.1750   61.3600 C   0  0  0  0  0  0  0  0  0  0  0  0
  130.6180  121.8860   61.8720 C   0  0  0  0  0  0  0  0  0  0  0  0
  130.7920  123.1590   62.4040 C   0  0  0  0  0  0  0  0  0  0  0  0
  132.0620  123.7400   62.4240 C   0  0  0  0  0  0  0  0  0  0  0  0
  132.2460  125.1600   62.9460 C   0  0  0  0  0  0  0  0  0  0  0  0
  132.5600  125.2160   64.3730 N   0  0  0  0  0  0  0  0  0  0  0  0
  133.8170  125.0440   64.7970 N   0  0  0  0  0  0  0  0  0  0  0  0
  133.7390  125.1280   66.1730 N   0  0  0  0  0  0  0  0  0  0  0  0
  132.4210  125.3440   66.5650 N   0  0  0  0  0  0  0  0  0  0  0  0
  131.7220  125.3870   65.4550 C   0  0  0  0  0  0  0  0  0  0  0  0
  130.2140  125.5800   65.3740 C   0  0  0  0  0  0  0  0  0  0  0  0
  129.7950  126.9210   65.8140 N   0  0  0  0  0  0  0  0  0  0  0  0
  129.3720  127.7610   64.6860 C   0  0  0  0  0  0  0  0  0  0  0  0
  127.8430  127.7730   64.4710 C   0  0  0  0  0  0  0  0  0  0  0  0
  127.2620  129.1830   64.2320 C   0  0  0  0  0  0  0  0  0  0  0  0
  125.8050  129.2460   64.3940 N   0  0  0  0  0  0  0  0  0  0  0  0
  125.2160  130.1240   63.3760 C   0  0  0  0  0  0  0  0  0  0  0  0
  123.6880  130.2540   63.5510 C   0  0  0  0  0  0  0  0  0  0  0  0
  123.3810  130.6790   64.8750 O   0  0  0  0  0  0  0  0  0  0  0  0
  123.8560  129.7670   65.8580 C   0  0  0  0  0  0  0  0  0  0  0  0
  125.3890  129.6240   65.7540 C   0  0  0  0  0  0  0  0  0  0  0  0
  128.7180  126.8130   66.8090 C   0  0  0  0  0  0  0  0  0  0  0  0
  129.0370  127.3450   68.2040 C   0  0  0  0  0  0  0  0  0  0  0  0
  129.2350  126.5020   69.2460 C   0  0  0  0  0  0  0  0  0  0  0  0
  129.5060  126.9910   70.6130 C   0  0  0  0  0  0  0  0  0  0  0  0
  129.7350  126.1450   71.7120 C   0  0  0  0  0  0  0  0  0  0  0  0
  129.7210  124.6290   71.5690 C   0  0  0  0  0  0  0  0  0  0  0  0
  129.9850  126.7110   72.9650 C   0  0  0  0  0  0  0  0  0  0  0  0
  130.0080  128.0950   73.1290 C   0  0  0  0  0  0  0  0  0  0  0  0
  129.7830  128.9450   72.0420 C   0  0  0  0  0  0  0  0  0  0  0  0
  129.8160  130.4530   72.2530 C   0  0  0  0  0  0  0  0  0  0  0  0
  129.5310  128.3880   70.7790 C   0  0  0  0  0  0  0  0  0  0  0  0
  129.2960  129.2060   69.6540 N   0  0  0  0  0  0  0  0  0  0  0  0
  129.0430  128.8010   68.3840 C   0  0  0  0  0  0  0  0  0  0  0  0
  128.8400  129.6280   67.4950 O   0  0  0  0  0  0  0  0  0  0  0  0
  133.1600  123.0250   61.9410 C   0  0  0  0  0  0  0  0  0  0  0  0
  132.9840  121.7520   61.4080 C   0  0  0  0  0  0  0  0  0  0  0  0
  129.9229  119.2750   62.0864 H   0  0  0  0  0  0  0  0  0  0  0  0
  129.3832  120.0200   60.5436 H   0  0  0  0  0  0  0  0  0  0  0  0
  130.0979  118.3720   60.5436 H   0  0  0  0  0  0  0  0  0  0  0  0
  129.6147  121.4353   61.8546 H   0  0  0  0  0  0  0  0  0  0  0  0
  129.9294  123.7084   62.8091 H   0  0  0  0  0  0  0  0  0  0  0  0
  133.0682  125.6329   62.3889 H   0  0  0  0  0  0  0  0  0  0  0  0
  131.2908  125.6862   62.8019 H   0  0  0  0  0  0  0  0  0  0  0  0
  129.8948  125.4346   64.3314 H   0  0  0  0  0  0  0  0  0  0  0  0
  129.7455  124.8453   66.0454 H   0  0  0  0  0  0  0  0  0  0  0  0
  129.7059  128.7920   64.8744 H   0  0  0  0  0  0  0  0  0  0  0  0
  129.8247  127.3373   63.7774 H   0  0  0  0  0  0  0  0  0  0  0  0
  127.6103  127.1484   63.5960 H   0  0  0  0  0  0  0  0  0  0  0  0
  127.3851  127.3884   65.3943 H   0  0  0  0  0  0  0  0  0  0  0  0
  127.7234  129.8769   64.9500 H   0  0  0  0  0  0  0  0  0  0  0  0
  127.4858  129.4550   63.1899 H   0  0  0  0  0  0  0  0  0  0  0  0
  125.6708  131.1221   63.4594 H   0  0  0  0  0  0  0  0  0  0  0  0
  125.4122  129.6835   62.3874 H   0  0  0  0  0  0  0  0  0  0  0  0
  123.3012  130.9923   62.8331 H   0  0  0  0  0  0  0  0  0  0  0  0
  123.2205  129.2749   63.3699 H   0  0  0  0  0  0  0  0  0  0  0  0
  123.5928  130.1411   66.8584 H   0  0  0  0  0  0  0  0  0  0  0  0
  123.3912  128.7841   65.6909 H   0  0  0  0  0  0  0  0  0  0  0  0
  125.8561  130.5847   66.0165 H   0  0  0  0  0  0  0  0  0  0  0  0
  125.7090  128.8307   66.4455 H   0  0  0  0  0  0  0  0  0  0  0  0
  127.8502  127.3706   66.4269 H   0  0  0  0  0  0  0  0  0  0  0  0
  128.5409  125.7349   66.9371 H   0  0  0  0  0  0  0  0  0  0  0  0
  129.1925  125.4173   69.0679 H   0  0  0  0  0  0  0  0  0  0  0  0
  129.7167  124.1666   72.5671 H   0  0  0  0  0  0  0  0  0  0  0  0
  128.8200  124.3210   71.0183 H   0  0  0  0  0  0  0  0  0  0  0  0
  130.6162  124.3044   71.0183 H   0  0  0  0  0  0  0  0  0  0  0  0
  130.1656  126.0573   73.8311 H   0  0  0  0  0  0  0  0  0  0  0  0
  130.2051  128.5225   74.1232 H   0  0  0  0  0  0  0  0  0  0  0  0
  129.8208  130.6724   73.3309 H   0  0  0  0  0  0  0  0  0  0  0  0
  130.7234  130.8682   71.7903 H   0  0  0  0  0  0  0  0  0  0  0  0
  128.9276  130.9075   71.7903 H   0  0  0  0  0  0  0  0  0  0  0  0
  129.3050  130.2050   69.7810 H   0  0  0  0  0  0  0  0  0  0  0  0
  134.1656  123.4690   61.9820 H   0  0  0  0  0  0  0  0  0  0  0  0
  133.8507  121.1950   61.0226 H   0  0  0  0  0  0  0  0  0  0  0  0
  1  2  1  0
  2  3  1  0
  3  4  2  0
  4  5  1  0
  5  6  2  0
  6  7  1  0
  7  8  1  0
  8  9  1  0
  9 10  2  0
 10 11  1  0
 11 12  2  0
 12 13  1  0
 13 14  1  0
 14 15  1  0
 15 16  1  0
 16 17  1  0
 17 18  1  0
 18 19  1  0
 19 20  1  0
 20 21  1  0
 21 22  1  0
 22 23  1  0
 14 24  1  0
 24 25  1  0
 25 26  2  0
 26 27  1  0
 27 28  2  0
 28 29  1  0
 28 30  1  0
 30 31  2  0
 31 32  1  0
 32 33  1  0
 32 34  2  0
 34 35  1  0
 35 36  1  0
 36 37  2  0
  6 38  1  0
 38 39  2  0
 39  3  1  0
 12  8  1  0
 23 18  1  0
 36 25  1  0
 34 27  1  0
  1 40  1  0
  1 41  1  0
  1 42  1  0
  4 43  1  0
  5 44  1  0
  7 45  1  0
  7 46  1  0
 13 47  1  0
 13 48  1  0
 15 49  1  0
 15 50  1  0
 16 51  1  0
 16 52  1  0
 17 53  1  0
 17 54  1  0
 19 55  1  0
 19 56  1  0
 20 57  1  0
 20 58  1  0
 22 59  1  0
 22 60  1  0
 23 61  1  0
 23 62  1  0
 24 63  1  0
 24 64  1  0
 26 65  1  0
 29 66  1  0
 29 67  1  0
 29 68  1  0
 30 69  1  0
 31 70  1  0
 33 71  1  0
 33 72  1  0
 33 73  1  0
 35 74  1  0
 38 75  1  0
 39 76  1  0
M  END
>  <Binding energies>  (1) 
[-9.66]

>  <Ligand effiencies>  (1) 
[-0.2415]

>  <Interactions>  (1) 
["H-A:TYR:484:OH:4343, V-A:ARG:545:CZ:4921, H-A:GLY:454:N:4045, V-A:GLU:543:CD:4903, V-A:GLU:543:CB:4901, V-B:GLU:543:CG:9875, V-A:HIS:456:CE1:4064, V-A:GLY:544:CA:4909, V-B:HIS:456:CE1:9037, V-B:GLU:543:CD:9876, V-A:GLU:543:C:4897, V-B:GLU:543:CB:9874, V-A:LEU:475:CD2:4254, V-A:TRP:381:CH2:3367, V-B:ALA:541:CB:9860, V-B:ARG:545:CZ:9894, V-B:ARG:545:CD:9891, V-B:ARG:545:CG:9890, H-B:GLY:454:N:9017, V-A:ILE:369:CD1:3234, V-B:HIS:456:CD2:9035, H-A:HIS:456:NE2:4065, V-B:LYS:547:CE:9918, H-A:GLU:543:O:4898, H-B:HIS:456:NE2:9038, H-A:ARG:545:NE:4919, V-A:LYS:547:CE:4945"]

$$$$
RR15_Rahimova_2017
     RDKit          3D

 85 89  0  0  0  0  0  0  0  0999 V2000
  129.1830  132.7830   57.9760 C   0  0  0  0  0  0  0  0  0  0  0  0
  129.3380  133.3790   59.2600 O   0  0  0  0  0  0  0  0  0  0  0  0
  128.8310  132.7370   60.3760 C   0  0  0  0  0  0  0  0  0  0  0  0
  127.4590  132.6120   60.6450 C   0  0  0  0  0  0  0  0  0  0  0  0
  127.0160  131.9540   61.7890 C   0  0  0  0  0  0  0  0  0  0  0  0
  127.9260  131.4060   62.6990 C   0  0  0  0  0  0  0  0  0  0  0  0
  127.4470  130.7020   63.9380 C   0  0  0  0  0  0  0  0  0  0  0  0
  126.1650  130.4720   64.1860 N   0  0  0  0  0  0  0  0  0  0  0  0
  126.1220  129.8230   65.4030 N   0  0  0  0  0  0  0  0  0  0  0  0
  127.4060  129.6970   65.7370 N   0  0  0  0  0  0  0  0  0  0  0  0
  127.8200  129.2020   67.0490 C   0  0  0  0  0  0  0  0  0  0  0  0
  127.6010  127.6850   67.2700 C   0  0  0  0  0  0  0  0  0  0  0  0
  126.4660  127.2950   67.5560 O   0  0  0  0  0  0  0  0  0  0  0  0
  128.6490  126.8190   67.1130 N   0  0  0  0  0  0  0  0  0  0  0  0
  128.9840  126.2490   65.7930 C   0  0  0  0  0  0  0  0  0  0  0  0
  129.6750  127.2520   64.8440 C   0  0  0  0  0  0  0  0  0  0  0  0
  130.4520  126.6070   63.6730 C   0  0  0  0  0  0  0  0  0  0  0  0
  131.8560  126.3190   63.9830 N   0  0  0  0  0  0  0  0  0  0  0  0
  132.0660  125.8300   65.3540 C   0  0  0  0  0  0  0  0  0  0  0  0
  133.5450  125.4610   65.6020 C   0  0  0  0  0  0  0  0  0  0  0  0
  133.9890  124.5280   64.6230 O   0  0  0  0  0  0  0  0  0  0  0  0
  133.8830  125.0400   63.2980 C   0  0  0  0  0  0  0  0  0  0  0  0
  132.4130  125.3940   62.9870 C   0  0  0  0  0  0  0  0  0  0  0  0
  129.6460  126.5320   68.1900 C   0  0  2  0  0  0  0  0  0  0  0  0
  130.0190  125.0220   68.3260 C   0  0  0  0  0  0  0  0  0  0  0  0
  130.5550  124.4140   67.3990 O   0  0  0  0  0  0  0  0  0  0  0  0
  129.7540  124.4630   69.5200 N   0  0  0  0  0  0  0  0  0  0  0  0
  130.1070  123.1030   69.9110 C   0  0  0  0  0  0  0  0  0  0  0  0
  130.1190  122.9500   71.4430 C   0  0  2  0  0  0  0  0  0  0  0  0
  129.3860  121.7110   71.9880 C   0  0  0  0  0  0  0  0  0  0  0  0
  128.0590  122.2410   72.4760 C   0  0  0  0  0  0  0  0  0  0  0  0
  128.4500  123.6260   72.9620 C   0  0  0  0  0  0  0  0  0  0  0  0
  129.3660  124.0560   71.9610 O   0  0  0  0  0  0  0  0  0  0  0  0
  129.2910  127.2850   69.4670 C   0  0  0  0  0  0  0  0  0  0  0  0
  130.1690  128.2790   69.9130 C   0  0  0  0  0  0  0  0  0  0  0  0
  129.8960  128.9990   71.0720 C   0  0  0  0  0  0  0  0  0  0  0  0
  128.7390  128.7290   71.7960 C   0  0  0  0  0  0  0  0  0  0  0  0
  128.4730  129.4280   72.9230 F   0  0  0  0  0  0  0  0  0  0  0  0
  127.8520  127.7440   71.3680 C   0  0  0  0  0  0  0  0  0  0  0  0
  128.1270  127.0250   70.2090 C   0  0  0  0  0  0  0  0  0  0  0  0
  128.2620  130.2630   64.8780 N   0  0  0  0  0  0  0  0  0  0  0  0
  129.2950  131.5310   62.4270 C   0  0  0  0  0  0  0  0  0  0  0  0
  129.7580  132.1880   61.2740 C   0  0  0  0  0  0  0  0  0  0  0  0
  131.0990  132.3340   60.9610 O   0  0  0  0  0  0  0  0  0  0  0  0
  131.9550  131.1970   60.9890 C   0  0  0  0  0  0  0  0  0  0  0  0
  128.9077  131.7245   58.0939 H   0  0  0  0  0  0  0  0  0  0  0  0
  128.3915  133.3081   57.4211 H   0  0  0  0  0  0  0  0  0  0  0  0
  130.1300  132.8560   57.4211 H   0  0  0  0  0  0  0  0  0  0  0  0
  126.7261  133.0385   59.9444 H   0  0  0  0  0  0  0  0  0  0  0  0
  125.9364  131.8639   61.9798 H   0  0  0  0  0  0  0  0  0  0  0  0
  128.8923  129.4143   67.1720 H   0  0  0  0  0  0  0  0  0  0  0  0
  127.1878  129.7167   67.7875 H   0  0  0  0  0  0  0  0  0  0  0  0
  129.6579  125.3929   65.9447 H   0  0  0  0  0  0  0  0  0  0  0  0
  128.0360  125.9561   65.3181 H   0  0  0  0  0  0  0  0  0  0  0  0
  128.9023  127.9104   64.4205 H   0  0  0  0  0  0  0  0  0  0  0  0
  130.4188  127.7898   65.4502 H   0  0  0  0  0  0  0  0  0  0  0  0
  129.9551  125.6629   63.4051 H   0  0  0  0  0  0  0  0  0  0  0  0
  130.4483  127.3333   62.8469 H   0  0  0  0  0  0  0  0  0  0  0  0
  131.7699  126.6167   66.0635 H   0  0  0  0  0  0  0  0  0  0  0  0
  131.4559  124.9257   65.4956 H   0  0  0  0  0  0  0  0  0  0  0  0
  134.1612  126.3703   65.5434 H   0  0  0  0  0  0  0  0  0  0  0  0
  133.6396  125.0073   66.5996 H   0  0  0  0  0  0  0  0  0  0  0  0
  134.5031  125.9438   63.2056 H   0  0  0  0  0  0  0  0  0  0  0  0
  134.2298  124.2765   62.5861 H   0  0  0  0  0  0  0  0  0  0  0  0
  132.3619  125.8654   61.9944 H   0  0  0  0  0  0  0  0  0  0  0  0
  131.8233  124.4658   63.0126 H   0  0  0  0  0  0  0  0  0  0  0  0
  130.6194  126.9463   67.8885 H   0  0  0  0  0  0  0  0  0  0  0  0
  129.3390  125.0380   70.2390 H   0  0  0  0  0  0  0  0  0  0  0  0
  129.3706  122.4049   69.4864 H   0  0  0  0  0  0  0  0  0  0  0  0
  131.1151  122.8816   69.5307 H   0  0  0  0  0  0  0  0  0  0  0  0
  131.1769  122.8815   71.7365 H   0  0  0  0  0  0  0  0  0  0  0  0
  129.2382  120.9656   71.1927 H   0  0  0  0  0  0  0  0  0  0  0  0
  129.9530  121.2060   72.7840 H   0  0  0  0  0  0  0  0  0  0  0  0
  127.3224  122.2937   71.6607 H   0  0  0  0  0  0  0  0  0  0  0  0
  127.5788  121.6145   73.2421 H   0  0  0  0  0  0  0  0  0  0  0  0
  127.5754  124.2912   73.0127 H   0  0  0  0  0  0  0  0  0  0  0  0
  128.8747  123.6312   73.9767 H   0  0  0  0  0  0  0  0  0  0  0  0
  131.0842  128.4934   69.3417 H   0  0  0  0  0  0  0  0  0  0  0  0
  130.5923  129.7787   71.4145 H   0  0  0  0  0  0  0  0  0  0  0  0
  126.9382  127.5355   71.9437 H   0  0  0  0  0  0  0  0  0  0  0  0
  127.4271  126.2466   69.8710 H   0  0  0  0  0  0  0  0  0  0  0  0
  130.0240  131.1051   63.1321 H   0  0  0  0  0  0  0  0  0  0  0  0
  132.1632  130.9204   62.0331 H   0  0  0  0  0  0  0  0  0  0  0  0
  131.4641  130.3558   60.4778 H   0  0  0  0  0  0  0  0  0  0  0  0
  132.8992  131.4362   60.4778 H   0  0  0  0  0  0  0  0  0  0  0  0
  1  2  1  0
  2  3  1  0
  3  4  2  0
  4  5  1  0
  5  6  2  0
  6  7  1  0
  7  8  1  0
  8  9  2  0
  9 10  1  0
 10 11  1  0
 11 12  1  0
 12 13  2  0
 12 14  1  0
 14 15  1  0
 15 16  1  0
 16 17  1  0
 17 18  1  0
 18 19  1  0
 19 20  1  0
 20 21  1  0
 21 22  1  0
 22 23  1  0
 14 24  1  0
 24 25  1  0
 25 26  2  0
 25 27  1  0
 27 28  1  0
 28 29  1  0
 29 30  1  0
 30 31  1  0
 31 32  1  0
 32 33  1  0
 24 34  1  0
 34 35  2  0
 35 36  1  0
 36 37  2  0
 37 38  1  0
 37 39  1  0
 39 40  2  0
 10 41  1  0
  6 42  1  0
 42 43  2  0
 43 44  1  0
 44 45  1  0
 43  3  1  0
 41  7  2  0
 23 18  1  0
 33 29  1  0
 40 34  1  0
  1 46  1  0
  1 47  1  0
  1 48  1  0
  4 49  1  0
  5 50  1  0
 11 51  1  0
 11 52  1  0
 15 53  1  0
 15 54  1  0
 16 55  1  0
 16 56  1  0
 17 57  1  0
 17 58  1  0
 19 59  1  0
 19 60  1  0
 20 61  1  0
 20 62  1  0
 22 63  1  0
 22 64  1  0
 23 65  1  0
 23 66  1  0
 24 67  1  6
 27 68  1  0
 28 69  1  0
 28 70  1  0
 29 71  1  1
 30 72  1  0
 30 73  1  0
 31 74  1  0
 31 75  1  0
 32 76  1  0
 32 77  1  0
 35 78  1  0
 36 79  1  0
 39 80  1  0
 40 81  1  0
 42 82  1  0
 45 83  1  0
 45 84  1  0
 45 85  1  0
M  END
>  <Binding energies>  (1) 
[-8.67]

>  <Ligand effiencies>  (1) 
[-0.1884782608695652]

>  <Interactions>  (1) 
["V-A:ARG:545:CD:4918, H-A:TYR:484:OH:4343, V-A:ARG:545:CZ:4921, V-A:ARG:545:CG:4917, H-A:GLY:454:N:4045, V-A:PRO:540:CA:4878, V-A:ASP:366:CG:3208, V-A:GLU:543:CD:4903, V-A:PRO:540:CB:4880, V-A:GLU:543:CG:4902, V-B:GLU:543:CG:9875, V-A:HIS:456:CE1:4064, V-B:HIS:456:CE1:9037, V-B:GLU:543:CD:9876, V-B:GLU:543:CB:9874, V-A:TYR:484:CE1:4340, V-A:TYR:484:CZ:4342, H-B:TYR:484:OH:9315, H-A:ALA:541:N:4886, V-A:PRO:540:N:4879, V-A:HIS:456:CD2:4063, V-B:GLU:543:C:9870, V-B:GLU:543:CA:9872, H-B:GLU:543:O:9871, V-B:HIS:456:CD2:9035, V-B:GLY:544:CA:9882, V-A:TYR:484:CD1:4338, V-A:TYR:484:CD2:4339, V-A:TYR:484:CB:4336, H-A:HIS:456:NE2:4065, V-B:LYS:547:CE:9918, V-A:TYR:484:CG:4337, V-A:TYR:539:CD2:4869, H-A:ARG:545:NH2:4923, V-A:TYR:539:CE1:4870, V-A:TYR:539:CD1:4868, V-A:TYR:539:CG:4867, V-A:TYR:539:C:4862, V-A:TYR:484:CE2:4341"]

$$$$
RR16_Rahimova_2017
     RDKit          3D

 80 85  0  0  0  0  0  0  0  0999 V2000
  127.6160  128.9330   72.9900 O   0  0  0  0  0  0  0  0  0  0  0  0
  129.0240  129.1760   72.6560 S   0  0  0  0  0  0  0  0  0  0  0  0
  130.0950  128.7940   73.5830 O   0  0  0  0  0  0  0  0  0  0  0  0
  129.1970  130.8960   72.2980 N   0  0  0  0  0  0  0  0  0  0  0  0
  129.5240  131.8670   73.3680 C   0  0  0  0  0  0  0  0  0  0  0  0
  129.9560  133.2090   72.7230 C   0  0  0  0  0  0  0  0  0  0  0  0
  130.1350  134.4190   73.6610 C   0  0  0  0  0  0  0  0  0  0  0  0
  128.8440  134.8500   74.3780 C   0  0  0  0  0  0  0  0  0  0  0  0
  127.5280  134.3710   73.7380 C   0  0  0  0  0  0  0  0  0  0  0  0
  127.1830  132.8760   73.8850 C   0  0  0  0  0  0  0  0  0  0  0  0
  128.3240  131.9460   74.3410 C   0  0  0  0  0  0  0  0  0  0  0  0
  129.3330  128.3630   71.0930 C   0  0  0  0  0  0  0  0  0  0  0  0
  130.0000  129.0370   70.0670 C   0  0  0  0  0  0  0  0  0  0  0  0
  130.1260  128.4380   68.8170 C   0  0  0  0  0  0  0  0  0  0  0  0
  129.5860  127.1680   68.5980 C   0  0  0  0  0  0  0  0  0  0  0  0
  129.6220  126.4550   66.9550 S   0  0  0  0  0  0  0  0  0  0  0  0
  129.0250  125.1160   67.0450 O   0  0  0  0  0  0  0  0  0  0  0  0
  130.9830  126.6260   66.4310 O   0  0  0  0  0  0  0  0  0  0  0  0
  128.5330  127.4880   66.0100 N   0  0  0  0  0  0  0  0  0  0  0  0
  128.7260  127.4020   64.5390 C   0  0  0  0  0  0  0  0  0  0  0  0
  127.9710  128.5440   63.8280 C   0  0  0  0  0  0  0  0  0  0  0  0
  126.4780  128.5890   64.2400 C   0  0  0  0  0  0  0  0  0  0  0  0
  125.7210  129.7450   63.5810 C   0  0  0  0  0  0  0  0  0  0  0  0
  124.3430  129.6320   63.3500 C   0  0  0  0  0  0  0  0  0  0  0  0
  123.6110  130.6630   62.7590 C   0  0  0  0  0  0  0  0  0  0  0  0
  122.2630  130.5360   62.5440 O   0  0  0  0  0  0  0  0  0  0  0  0
  124.2930  131.8340   62.3960 C   0  0  0  0  0  0  0  0  0  0  0  0
  123.8460  132.9920   61.8280 N   0  0  0  0  0  0  0  0  0  0  0  0
  124.9250  133.8400   61.7110 N   0  0  0  0  0  0  0  0  0  0  0  0
  126.0220  133.1980   62.1580 N   0  0  0  0  0  0  0  0  0  0  0  0
  127.3010  133.8930   62.2290 C   0  0  0  0  0  0  0  0  0  0  0  0
  128.3900  133.2040   61.4190 C   0  0  0  0  0  0  0  0  0  0  0  0
  129.3650  132.4360   62.0640 C   0  0  0  0  0  0  0  0  0  0  0  0
  130.3510  131.7860   61.3220 C   0  0  0  0  0  0  0  0  0  0  0  0
  130.3670  131.8980   59.9310 C   0  0  0  0  0  0  0  0  0  0  0  0
  129.3960  132.6600   59.2810 C   0  0  0  0  0  0  0  0  0  0  0  0
  129.4060  132.7930   57.5610 Cl  0  0  0  0  0  0  0  0  0  0  0  0
  128.4110  133.3150   60.0250 C   0  0  0  0  0  0  0  0  0  0  0  0
  125.6850  131.9380   62.6250 C   0  0  0  0  0  0  0  0  0  0  0  0
  126.4200  130.9040   63.2140 C   0  0  0  0  0  0  0  0  0  0  0  0
  126.2920  128.5500   65.7800 C   0  0  0  0  0  0  0  0  0  0  0  0
  127.1090  127.4160   66.4300 C   0  0  0  0  0  0  0  0  0  0  0  0
  128.9570  126.4790   69.6370 C   0  0  0  0  0  0  0  0  0  0  0  0
  128.8280  127.0790   70.8850 C   0  0  0  0  0  0  0  0  0  0  0  0
  129.4860  131.1470   71.3490 H   0  0  0  0  0  0  0  0  0  0  0  0
  130.3840  131.5540   73.9782 H   0  0  0  0  0  0  0  0  0  0  0  0
  130.9177  133.0380   72.2171 H   0  0  0  0  0  0  0  0  0  0  0  0
  129.1220  133.4856   72.0613 H   0  0  0  0  0  0  0  0  0  0  0  0
  130.8837  134.1581   74.4234 H   0  0  0  0  0  0  0  0  0  0  0  0
  130.4484  135.2657   73.0326 H   0  0  0  0  0  0  0  0  0  0  0  0
  128.8817  134.4579   75.4050 H   0  0  0  0  0  0  0  0  0  0  0  0
  128.8222  135.9481   74.3178 H   0  0  0  0  0  0  0  0  0  0  0  0
  126.7087  134.9471   74.1928 H   0  0  0  0  0  0  0  0  0  0  0  0
  127.6612  134.5289   72.6576 H   0  0  0  0  0  0  0  0  0  0  0  0
  126.3698  132.7920   74.6209 H   0  0  0  0  0  0  0  0  0  0  0  0
  126.9208  132.5379   72.8716 H   0  0  0  0  0  0  0  0  0  0  0  0
  128.6936  132.3083   75.3116 H   0  0  0  0  0  0  0  0  0  0  0  0
  127.8975  130.9332   74.3898 H   0  0  0  0  0  0  0  0  0  0  0  0
  130.4235  130.0362   70.2462 H   0  0  0  0  0  0  0  0  0  0  0  0
  130.6491  128.9628   68.0040 H   0  0  0  0  0  0  0  0  0  0  0  0
  129.7990  127.4793   64.3094 H   0  0  0  0  0  0  0  0  0  0  0  0
  128.3310  126.4388   64.1838 H   0  0  0  0  0  0  0  0  0  0  0  0
  128.4427  129.5019   64.0926 H   0  0  0  0  0  0  0  0  0  0  0  0
  128.0218  128.3652   62.7438 H   0  0  0  0  0  0  0  0  0  0  0  0
  126.0192  127.6681   63.8510 H   0  0  0  0  0  0  0  0  0  0  0  0
  123.8250  128.7066   63.6421 H   0  0  0  0  0  0  0  0  0  0  0  0
  122.0460  129.8800   61.8770 H   0  0  0  0  0  0  0  0  0  0  0  0
  127.1683  134.9144   61.8429 H   0  0  0  0  0  0  0  0  0  0  0  0
  127.6204  133.8941   63.2816 H   0  0  0  0  0  0  0  0  0  0  0  0
  129.3541  132.3444   63.1601 H   0  0  0  0  0  0  0  0  0  0  0  0
  131.1168  131.1845   61.8337 H   0  0  0  0  0  0  0  0  0  0  0  0
  131.1455  131.3853   59.3470 H   0  0  0  0  0  0  0  0  0  0  0  0
  127.6491  133.9204   59.5122 H   0  0  0  0  0  0  0  0  0  0  0  0
  127.5031  130.9962   63.3826 H   0  0  0  0  0  0  0  0  0  0  0  0
  126.6200  129.5114   66.2021 H   0  0  0  0  0  0  0  0  0  0  0  0
  125.2279  128.3666   65.9899 H   0  0  0  0  0  0  0  0  0  0  0  0
  127.0500  127.5098   67.5244 H   0  0  0  0  0  0  0  0  0  0  0  0
  126.6931  126.4502   66.1071 H   0  0  0  0  0  0  0  0  0  0  0  0
  128.5649  125.4651   69.4689 H   0  0  0  0  0  0  0  0  0  0  0  0
  128.3292  126.5428   71.7058 H   0  0  0  0  0  0  0  0  0  0  0  0
  1  2  2  0
  2  3  2  0
  2  4  1  0
  4  5  1  0
  5  6  1  0
  6  7  1  0
  7  8  1  0
  8  9  1  0
  9 10  1  0
 10 11  1  0
  2 12  1  0
 12 13  2  0
 13 14  1  0
 14 15  2  0
 15 16  1  0
 16 17  2  0
 16 18  2  0
 16 19  1  0
 19 20  1  0
 20 21  1  0
 21 22  1  0
 22 23  1  0
 23 24  2  0
 24 25  1  0
 25 26  1  0
 25 27  2  0
 27 28  1  0
 28 29  2  0
 29 30  1  0
 30 31  1  0
 31 32  1  0
 32 33  2  0
 33 34  1  0
 34 35  2  0
 35 36  1  0
 36 37  1  0
 36 38  2  0
 30 39  1  0
 39 40  2  0
 22 41  1  0
 41 42  1  0
 15 43  1  0
 43 44  2  0
 11  5  1  0
 44 12  1  0
 42 19  1  0
 40 23  1  0
 39 27  1  0
 38 32  1  0
  4 45  1  0
  5 46  1  0
  6 47  1  0
  6 48  1  0
  7 49  1  0
  7 50  1  0
  8 51  1  0
  8 52  1  0
  9 53  1  0
  9 54  1  0
 10 55  1  0
 10 56  1  0
 11 57  1  0
 11 58  1  0
 13 59  1  0
 14 60  1  0
 20 61  1  0
 20 62  1  0
 21 63  1  0
 21 64  1  0
 22 65  1  0
 24 66  1  0
 26 67  1  0
 31 68  1  0
 31 69  1  0
 33 70  1  0
 34 71  1  0
 35 72  1  0
 38 73  1  0
 40 74  1  0
 41 75  1  0
 41 76  1  0
 42 77  1  0
 42 78  1  0
 43 79  1  0
 44 80  1  0
M  END
>  <Binding energies>  (1) 
[-9.94]

>  <Ligand effiencies>  (1) 
[-0.2070833333333333]

>  <Interactions>  (1) 
["V-A:PRO:540:CA:4878, V-A:PRO:540:CB:4880, V-A:GLU:543:CB:4901, V-B:GLU:543:CG:9875, V-A:HIS:456:CE1:4064, V-B:HIS:456:CE1:9037, V-B:GLU:543:CD:9876, V-A:GLU:543:C:4897, V-B:GLU:543:CB:9874, V-B:ARG:545:CZ:9894, V-A:ALA:541:CB:4887, V-A:TYR:539:CE2:4871, H-B:GLY:454:N:9017, V-A:PRO:540:N:4879, V-B:GLU:543:C:9870, H-B:LYS:547:NZ:9919, V-B:HIS:456:CD2:9035, H-A:LYS:547:NZ:4946, H-A:HIS:456:NE2:4065, H-A:GLU:543:O:4898, H-B:HIS:456:NE2:9038, V-B:TYR:484:CG:9309, V-B:ASP:473:CG:9207, V-B:TYR:484:CB:9308, V-B:ASP:473:CB:9206, H-B:ASP:366:OD1:8181, V-B:ILE:369:CD1:8206, V-B:LEU:475:CD2:9226, V-A:TYR:539:CD2:4869, H-B:ARG:545:NH1:9895, V-A:TYR:539:CE1:4870, V-A:TYR:539:CD1:4868, V-A:TYR:539:CG:4867, V-A:TYR:539:C:4862"]

$$$$
RR17_Rahimova_2017
     RDKit          3D

 63 66  0  0  0  0  0  0  0  0999 V2000
  125.5200  129.9350   75.2950 C   0  0  0  0  0  0  0  0  0  0  0  0
  126.7760  130.3550   74.5250 C   0  0  0  0  0  0  0  0  0  0  0  0
  127.6240  129.2190   74.3790 O   0  0  0  0  0  0  0  0  0  0  0  0
  128.3260  129.0440   73.2010 C   0  0  0  0  0  0  0  0  0  0  0  0
  129.6280  129.5420   73.1720 C   0  0  0  0  0  0  0  0  0  0  0  0
  130.4110  129.4140   72.0300 C   0  0  0  0  0  0  0  0  0  0  0  0
  129.9040  128.7830   70.8850 C   0  0  0  0  0  0  0  0  0  0  0  0
  130.7730  128.6580   69.6670 C   0  0  0  0  0  0  0  0  0  0  0  0
  131.9730  128.9480   69.6780 O   0  0  0  0  0  0  0  0  0  0  0  0
  130.0960  128.1620   68.3700 C   0  0  0  0  0  0  0  0  0  0  0  0
  129.7390  126.3690   68.4220 S   0  0  0  0  0  0  0  0  0  0  0  0
  130.3080  125.8990   66.8120 C   0  0  0  0  0  0  0  0  0  0  0  0
  131.2920  125.0660   66.5660 N   0  0  0  0  0  0  0  0  0  0  0  0
  131.4220  124.9550   65.1880 N   0  0  0  0  0  0  0  0  0  0  0  0
  130.5070  125.7230   64.6510 C   0  0  0  0  0  0  0  0  0  0  0  0
  130.2880  125.8880   63.1540 C   0  0  0  0  0  0  0  0  0  0  0  0
  129.7170  124.7100   62.5080 N   0  0  0  0  0  0  0  0  0  0  0  0
  130.4860  123.6450   62.0060 C   0  0  0  0  0  0  0  0  0  0  0  0
  129.8030  122.5840   61.4110 C   0  0  0  0  0  0  0  0  0  0  0  0
  130.5020  121.4950   60.8980 C   0  0  0  0  0  0  0  0  0  0  0  0
  131.8970  121.4570   60.9710 C   0  0  0  0  0  0  0  0  0  0  0  0
  132.6500  120.2510   60.4090 C   0  0  0  0  0  0  0  0  0  0  0  0
  133.8630  120.1150   60.9490 F   0  0  0  0  0  0  0  0  0  0  0  0
  131.9690  119.1280   60.6410 F   0  0  0  0  0  0  0  0  0  0  0  0
  132.7920  120.4000   59.0920 F   0  0  0  0  0  0  0  0  0  0  0  0
  132.5850  122.5230   61.5600 C   0  0  0  0  0  0  0  0  0  0  0  0
  131.8850  123.6120   62.0710 C   0  0  0  0  0  0  0  0  0  0  0  0
  129.7710  126.3610   65.6270 N   0  0  0  0  0  0  0  0  0  0  0  0
  128.7010  127.2520   65.4530 C   0  0  0  0  0  0  0  0  0  0  0  0
  127.5370  127.0820   66.2020 C   0  0  0  0  0  0  0  0  0  0  0  0
  126.4730  127.9630   66.0270 C   0  0  0  0  0  0  0  0  0  0  0  0
  126.5710  129.0150   65.1020 C   0  0  0  0  0  0  0  0  0  0  0  0
  125.5700  129.9360   64.8620 O   0  0  0  0  0  0  0  0  0  0  0  0
  124.4680  130.0150   65.7610 C   0  0  0  0  0  0  0  0  0  0  0  0
  127.7440  129.1680   64.3590 C   0  0  0  0  0  0  0  0  0  0  0  0
  128.8120  128.2920   64.5310 C   0  0  0  0  0  0  0  0  0  0  0  0
  128.5950  128.2810   70.9150 C   0  0  0  0  0  0  0  0  0  0  0  0
  127.8130  128.4100   72.0600 C   0  0  0  0  0  0  0  0  0  0  0  0
  125.7137  129.9998   76.3759 H   0  0  0  0  0  0  0  0  0  0  0  0
  124.6874  130.6036   75.0310 H   0  0  0  0  0  0  0  0  0  0  0  0
  125.2570  128.9000   75.0310 H   0  0  0  0  0  0  0  0  0  0  0  0
  126.4919  130.7348   73.5325 H   0  0  0  0  0  0  0  0  0  0  0  0
  127.3041  131.1487   75.0739 H   0  0  0  0  0  0  0  0  0  0  0  0
  130.0399  130.0412   74.0615 H   0  0  0  0  0  0  0  0  0  0  0  0
  131.4368  129.8111   72.0248 H   0  0  0  0  0  0  0  0  0  0  0  0
  129.1510  128.7079   68.2321 H   0  0  0  0  0  0  0  0  0  0  0  0
  130.7885  128.3453   67.5352 H   0  0  0  0  0  0  0  0  0  0  0  0
  129.6054  126.7358   62.9949 H   0  0  0  0  0  0  0  0  0  0  0  0
  131.2772  126.0529   62.7021 H   0  0  0  0  0  0  0  0  0  0  0  0
  128.7490  124.7600   62.2270 H   0  0  0  0  0  0  0  0  0  0  0  0
  128.7051  122.6081   61.3468 H   0  0  0  0  0  0  0  0  0  0  0  0
  129.9545  120.6616   60.4336 H   0  0  0  0  0  0  0  0  0  0  0  0
  133.6832  122.5005   61.6195 H   0  0  0  0  0  0  0  0  0  0  0  0
  132.4323  124.4499   62.5276 H   0  0  0  0  0  0  0  0  0  0  0  0
  127.4599  126.2575   66.9261 H   0  0  0  0  0  0  0  0  0  0  0  0
  125.5525  127.8345   66.6154 H   0  0  0  0  0  0  0  0  0  0  0  0
  124.8372  129.9885   66.7968 H   0  0  0  0  0  0  0  0  0  0  0  0
  123.9221  130.9546   65.5902 H   0  0  0  0  0  0  0  0  0  0  0  0
  123.7937  129.1629   65.5902 H   0  0  0  0  0  0  0  0  0  0  0  0
  127.8245  129.9887   63.6310 H   0  0  0  0  0  0  0  0  0  0  0  0
  129.7344  128.4190   63.9453 H   0  0  0  0  0  0  0  0  0  0  0  0
  128.1823  127.7810   70.0264 H   0  0  0  0  0  0  0  0  0  0  0  0
  126.7874  128.0125   72.0696 H   0  0  0  0  0  0  0  0  0  0  0  0
  1  2  1  0
  2  3  1  0
  3  4  1  0
  4  5  2  0
  5  6  1  0
  6  7  2  0
  7  8  1  0
  8  9  2  0
  8 10  1  0
 10 11  1  0
 11 12  1  0
 12 13  2  0
 13 14  1  0
 14 15  2  0
 15 16  1  0
 16 17  1  0
 17 18  1  0
 18 19  2  0
 19 20  1  0
 20 21  2  0
 21 22  1  0
 22 23  1  0
 22 24  1  0
 22 25  1  0
 21 26  1  0
 26 27  2  0
 15 28  1  0
 28 29  1  0
 29 30  2  0
 30 31  1  0
 31 32  2  0
 32 33  1  0
 33 34  1  0
 32 35  1  0
 35 36  2  0
  7 37  1  0
 37 38  2  0
 38  4  1  0
 28 12  1  0
 36 29  1  0
 27 18  1  0
  1 39  1  0
  1 40  1  0
  1 41  1  0
  2 42  1  0
  2 43  1  0
  5 44  1  0
  6 45  1  0
 10 46  1  0
 10 47  1  0
 16 48  1  0
 16 49  1  0
 17 50  1  0
 19 51  1  0
 20 52  1  0
 26 53  1  0
 27 54  1  0
 30 55  1  0
 31 56  1  0
 34 57  1  0
 34 58  1  0
 34 59  1  0
 35 60  1  0
 36 61  1  0
 37 62  1  0
 38 63  1  0
M  END
>  <Binding energies>  (1) 
[-7.3]

>  <Ligand effiencies>  (1) 
[-0.18717948717948718]

>  <Interactions>  (1) 
["H-A:TYR:484:OH:4343, V-A:GLU:543:CD:4903, V-A:GLY:544:C:4907, V-A:GLU:543:CB:4901, V-B:GLU:543:CG:9875, V-A:HIS:456:CE1:4064, V-A:GLY:544:CA:4909, V-B:HIS:456:CE1:9037, V-B:GLU:543:CD:9876, V-A:GLU:543:C:4897, V-B:GLU:543:CB:9874, H-B:GLU:543:OE2:9878, V-A:LEU:475:CD2:4254, V-B:TYR:539:CD2:9842, V-A:TRP:381:CZ3:3366, V-A:TRP:381:CZ2:3365, V-A:TRP:381:CH2:3367, V-B:TYR:539:CE2:9844, H-B:TYR:484:OH:9315, V-B:ARG:545:CD:9891, V-A:ILE:369:CD1:3234, H-B:LYS:547:NZ:9919, V-B:HIS:456:CD2:9035, H-A:HIS:456:NE2:4065, V-B:HIS:456:CG:9033, V-B:HIS:456:CB:9032, V-A:LYS:547:CE:4945, V-A:ILE:369:CG2:3232, H-A:GLY:544:N:4910, H-A:ARG:545:N:4915"]

$$$$
RR18_Rahimova_2017
     RDKit          3D

 56 61  0  0  0  0  0  0  0  0999 V2000
  126.0230  125.4430   61.0930 C   0  0  0  0  0  0  0  0  0  0  0  0
  125.9980  126.9340   61.3140 C   0  0  0  0  0  0  0  0  0  0  0  0
  125.6350  128.0200   60.5340 C   0  0  0  0  0  0  0  0  0  0  0  0
  125.8380  129.1600   61.3110 C   0  0  0  0  0  0  0  0  0  0  0  0
  126.3160  128.7300   62.5380 C   0  0  0  0  0  0  0  0  0  0  0  0
  126.7270  129.4450   63.8230 C   0  0  1  0  0  0  0  0  0  0  0  0
  125.5160  130.1660   64.4880 C   0  0  0  0  0  0  0  0  0  0  0  0
  124.8590  131.2810   63.8120 C   0  0  0  0  0  0  0  0  0  0  0  0
  123.6590  131.5170   63.9650 O   0  0  0  0  0  0  0  0  0  0  0  0
  125.6820  132.0210   63.0340 N   0  0  0  0  0  0  0  0  0  0  0  0
  125.4080  133.1450   62.2260 C   0  0  0  0  0  0  0  0  0  0  0  0
  124.1150  133.4930   61.7950 C   0  0  0  0  0  0  0  0  0  0  0  0
  123.9120  134.6130   60.9910 C   0  0  0  0  0  0  0  0  0  0  0  0
  124.9940  135.3980   60.6010 C   0  0  0  0  0  0  0  0  0  0  0  0
  126.2810  135.0590   61.0100 C   0  0  0  0  0  0  0  0  0  0  0  0
  126.5000  133.9380   61.8180 C   0  0  0  0  0  0  0  0  0  0  0  0
  127.9300  133.6070   62.2350 C   0  0  0  0  0  0  0  0  0  0  0  0
  125.0270  129.6690   65.6540 C   0  0  0  0  0  0  0  0  0  0  0  0
  125.5890  128.6480   66.3590 N   0  0  0  0  0  0  0  0  0  0  0  0
  126.7020  128.1480   65.9670 C   0  0  0  0  0  0  0  0  0  0  0  0
  127.6140  126.9440   66.8470 S   0  0  0  0  0  0  0  0  0  0  0  0
  128.9060  126.9400   65.6060 C   0  0  0  0  0  0  0  0  0  0  0  0
  130.0590  126.1840   65.6070 C   0  0  0  0  0  0  0  0  0  0  0  0
  130.3760  125.3150   66.7490 C   0  0  0  0  0  0  0  0  0  0  0  0
  129.7410  125.1010   67.7810 O   0  0  0  0  0  0  0  0  0  0  0  0
  131.5630  124.7510   66.5040 N   0  0  0  0  0  0  0  0  0  0  0  0
  132.0830  125.1120   65.2980 C   0  0  0  0  0  0  0  0  0  0  0  0
  133.2880  124.6990   64.7290 C   0  0  0  0  0  0  0  0  0  0  0  0
  133.6260  125.1630   63.4610 C   0  0  0  0  0  0  0  0  0  0  0  0
  132.7560  126.0170   62.7850 C   0  0  0  0  0  0  0  0  0  0  0  0
  131.5550  126.4160   63.3760 C   0  0  0  0  0  0  0  0  0  0  0  0
  131.2070  125.9780   64.6680 C   0  0  0  0  0  0  0  0  0  0  0  0
  128.5400  127.9060   64.5690 C   0  0  0  0  0  0  0  0  0  0  0  0
  129.2100  128.2110   63.5870 O   0  0  0  0  0  0  0  0  0  0  0  0
  127.3340  128.4860   64.8140 N   0  0  0  0  0  0  0  0  0  0  0  0
  126.4110  127.3740   62.5320 O   0  0  0  0  0  0  0  0  0  0  0  0
  126.0316  124.9283   62.0651 H   0  0  0  0  0  0  0  0  0  0  0  0
  125.1298  125.1413   60.5263 H   0  0  0  0  0  0  0  0  0  0  0  0
  126.9258  125.1714   60.5263 H   0  0  0  0  0  0  0  0  0  0  0  0
  125.2590  127.9889   59.5007 H   0  0  0  0  0  0  0  0  0  0  0  0
  125.6539  130.2012   61.0077 H   0  0  0  0  0  0  0  0  0  0  0  0
  127.4792  130.1957   63.5391 H   0  0  0  0  0  0  0  0  0  0  0  0
  126.6590  131.7700   63.0650 H   0  0  0  0  0  0  0  0  0  0  0  0
  123.2559  132.8752   62.0955 H   0  0  0  0  0  0  0  0  0  0  0  0
  122.8955  134.8773   60.6640 H   0  0  0  0  0  0  0  0  0  0  0  0
  124.8321  136.2848   59.9706 H   0  0  0  0  0  0  0  0  0  0  0  0
  127.1337  135.6784   60.6949 H   0  0  0  0  0  0  0  0  0  0  0  0
  127.9975  133.5914   63.3328 H   0  0  0  0  0  0  0  0  0  0  0  0
  128.2091  132.6205   61.8364 H   0  0  0  0  0  0  0  0  0  0  0  0
  128.6142  134.3705   61.8364 H   0  0  0  0  0  0  0  0  0  0  0  0
  124.1107  130.1242   66.0581 H   0  0  0  0  0  0  0  0  0  0  0  0
  132.0110  124.1100   67.1420 H   0  0  0  0  0  0  0  0  0  0  0  0
  133.9594  124.0184   65.2731 H   0  0  0  0  0  0  0  0  0  0  0  0
  134.5744  124.8575   62.9949 H   0  0  0  0  0  0  0  0  0  0  0  0
  133.0170  126.3790   61.7796 H   0  0  0  0  0  0  0  0  0  0  0  0
  130.8728  127.0804   62.8254 H   0  0  0  0  0  0  0  0  0  0  0  0
  1  2  1  0
  2  3  2  0
  3  4  1  0
  4  5  2  0
  5  6  1  0
  6  7  1  0
  7  8  1  0
  8  9  2  0
  8 10  1  0
 10 11  1  0
 11 12  2  0
 12 13  1  0
 13 14  2  0
 14 15  1  0
 15 16  2  0
 16 17  1  0
  7 18  2  0
 18 19  1  0
 19 20  2  0
 20 21  1  0
 21 22  1  0
 22 23  2  0
 23 24  1  0
 24 25  2  0
 24 26  1  0
 26 27  1  0
 27 28  2  0
 28 29  1  0
 29 30  2  0
 30 31  1  0
 31 32  2  0
 22 33  1  0
 33 34  2  0
 33 35  1  0
  5 36  1  0
 36  2  1  0
 35  6  1  0
 16 11  1  0
 35 20  1  0
 32 23  1  0
 32 27  1  0
  1 37  1  0
  1 38  1  0
  1 39  1  0
  3 40  1  0
  4 41  1  0
  6 42  1  6
 10 43  1  0
 12 44  1  0
 13 45  1  0
 14 46  1  0
 15 47  1  0
 17 48  1  0
 17 49  1  0
 17 50  1  0
 18 51  1  0
 26 52  1  0
 28 53  1  0
 29 54  1  0
 30 55  1  0
 31 56  1  0
M  END
>  <Binding energies>  (1) 
[-8.16]

>  <Ligand effiencies>  (1) 
[-0.21473684210526317]

>  <Interactions>  (1) 
["H-A:TYR:484:OH:4343, V-A:ARG:545:CZ:4921, V-A:ASP:366:CG:3208, V-A:GLU:543:CD:4903, V-B:GLU:543:CG:9875, V-A:HIS:456:CE1:4064, V-B:HIS:456:CE1:9037, V-B:GLU:543:CD:9876, V-B:GLU:543:CB:9874, V-A:TYR:484:CE1:4340, V-A:TYR:484:CZ:4342, H-B:TYR:484:OH:9315, V-A:ALA:541:CB:4887, V-A:TYR:539:CE2:4871, H-B:GLY:454:N:9017, V-A:HIS:456:CD2:4063, H-A:HIS:456:NE2:4065, V-B:ASP:366:CB:8179, H-B:ARG:545:NH2:9896, H-B:ARG:545:NE:9892, V-B:ASP:366:CG:8180, V-B:ILE:369:CD1:8206, V-B:ILE:369:CG2:8204, V-B:LEU:475:CD2:9226, V-A:TYR:539:CD2:4869, V-B:TRP:381:CH2:8339, V-B:TRP:381:CZ2:8337, V-B:TRP:381:CZ3:8338"]

$$$$
RR19_Rahimova_2017
     RDKit          3D

 72 77  0  0  0  0  0  0  0  0999 V2000
  129.6100  127.6560   67.3480 O   0  0  0  0  0  0  0  0  0  0  0  0
  129.0700  127.4740   66.2530 C   0  0  0  0  0  0  0  0  0  0  0  0
  129.3020  126.4330   65.4130 N   0  0  0  0  0  0  0  0  0  0  0  0
  129.9600  125.2370   65.5640 C   0  0  0  0  0  0  0  0  0  0  0  0
  130.5060  124.5910   67.0300 S   0  0  0  0  0  0  0  0  0  0  0  0
  130.0990  124.6540   64.3290 N   0  0  0  0  0  0  0  0  0  0  0  0
  130.5350  123.4330   63.9280 C   0  0  0  0  0  0  0  0  0  0  0  0
  130.7510  122.4590   64.6530 O   0  0  0  0  0  0  0  0  0  0  0  0
  130.7860  123.3250   62.4030 C   0  0  2  0  0  0  0  0  0  0  0  0
  132.1370  123.9290   61.9200 C   0  0  0  0  0  0  0  0  0  0  0  0
  132.4270  123.7620   60.4370 C   0  0  0  0  0  0  0  0  0  0  0  0
  132.1310  124.7940   59.5200 C   0  0  0  0  0  0  0  0  0  0  0  0
  132.4750  124.6560   58.1830 C   0  0  0  0  0  0  0  0  0  0  0  0
  133.1280  123.5110   57.7420 C   0  0  0  0  0  0  0  0  0  0  0  0
  133.4530  122.5000   58.6380 C   0  0  0  0  0  0  0  0  0  0  0  0
  133.1190  122.6200   59.9800 C   0  0  0  0  0  0  0  0  0  0  0  0
  129.6370  123.8660   61.6260 N   0  0  0  0  0  0  0  0  0  0  0  0
  128.6130  123.0620   61.2230 C   0  0  0  0  0  0  0  0  0  0  0  0
  128.5030  121.8470   61.3990 O   0  0  0  0  0  0  0  0  0  0  0  0
  127.6540  123.9570   60.5290 C   0  0  0  0  0  0  0  0  0  0  0  0
  126.4340  123.6870   59.9100 C   0  0  0  0  0  0  0  0  0  0  0  0
  125.7260  124.7470   59.3330 C   0  0  0  0  0  0  0  0  0  0  0  0
  126.2410  126.0500   59.3820 C   0  0  0  0  0  0  0  0  0  0  0  0
  127.4670  126.3000   60.0090 C   0  0  0  0  0  0  0  0  0  0  0  0
  128.1570  125.2290   60.5770 C   0  0  0  0  0  0  0  0  0  0  0  0
  129.4500  125.1810   61.3040 C   0  0  0  0  0  0  0  0  0  0  0  0
  130.1910  126.1300   61.5660 O   0  0  0  0  0  0  0  0  0  0  0  0
  128.0340  128.5040   65.7300 C   0  0  2  0  0  0  0  0  0  0  0  0
  126.6060  127.9180   65.5340 C   0  0  0  0  0  0  0  0  0  0  0  0
  125.6370  128.8700   64.8570 C   0  0  0  0  0  0  0  0  0  0  0  0
  125.5580  128.9180   63.4480 C   0  0  0  0  0  0  0  0  0  0  0  0
  124.6000  129.7140   62.8340 C   0  0  0  0  0  0  0  0  0  0  0  0
  123.7000  130.4450   63.5980 C   0  0  0  0  0  0  0  0  0  0  0  0
  123.7410  130.3770   64.9860 C   0  0  0  0  0  0  0  0  0  0  0  0
  124.6910  129.5880   65.6200 C   0  0  0  0  0  0  0  0  0  0  0  0
  128.4930  129.2420   64.5180 N   0  0  0  0  0  0  0  0  0  0  0  0
  128.7910  128.5960   63.3560 C   0  0  0  0  0  0  0  0  0  0  0  0
  128.7490  127.3830   63.1440 O   0  0  0  0  0  0  0  0  0  0  0  0
  129.1770  129.6640   62.4010 C   0  0  0  0  0  0  0  0  0  0  0  0
  129.5840  129.5940   61.0670 C   0  0  0  0  0  0  0  0  0  0  0  0
  129.8880  130.7840   60.3970 C   0  0  0  0  0  0  0  0  0  0  0  0
  129.7800  132.0150   61.0580 C   0  0  0  0  0  0  0  0  0  0  0  0
  129.3680  132.0640   62.3950 C   0  0  0  0  0  0  0  0  0  0  0  0
  129.0710  130.8650   63.0460 C   0  0  0  0  0  0  0  0  0  0  0  0
  128.6160  130.6000   64.4320 C   0  0  0  0  0  0  0  0  0  0  0  0
  128.3940  131.4270   65.3160 O   0  0  0  0  0  0  0  0  0  0  0  0
  128.8130  126.5150   64.5330 H   0  0  0  0  0  0  0  0  0  0  0  0
  129.9330  125.2880   63.5620 H   0  0  0  0  0  0  0  0  0  0  0  0
  130.8725  122.2468   62.2032 H   0  0  0  0  0  0  0  0  0  0  0  0
  132.1287  125.0055   62.1461 H   0  0  0  0  0  0  0  0  0  0  0  0
  132.9259  123.3750   62.4497 H   0  0  0  0  0  0  0  0  0  0  0  0
  131.6271  125.7085   59.8660 H   0  0  0  0  0  0  0  0  0  0  0  0
  132.2299  125.4561   57.4690 H   0  0  0  0  0  0  0  0  0  0  0  0
  133.3887  123.4047   56.6786 H   0  0  0  0  0  0  0  0  0  0  0  0
  133.9772  121.6007   58.2824 H   0  0  0  0  0  0  0  0  0  0  0  0
  133.3939  121.8242   60.6879 H   0  0  0  0  0  0  0  0  0  0  0  0
  126.0364  122.6619   59.8760 H   0  0  0  0  0  0  0  0  0  0  0  0
  124.7616  124.5572   58.8391 H   0  0  0  0  0  0  0  0  0  0  0  0
  125.6795  126.8788   58.9261 H   0  0  0  0  0  0  0  0  0  0  0  0
  127.8778  127.3195   60.0530 H   0  0  0  0  0  0  0  0  0  0  0  0
  127.9561  129.2411   66.5428 H   0  0  0  0  0  0  0  0  0  0  0  0
  126.6860  127.0099   64.9185 H   0  0  0  0  0  0  0  0  0  0  0  0
  126.2043  127.7146   66.5376 H   0  0  0  0  0  0  0  0  0  0  0  0
  126.2548  128.3253   62.8372 H   0  0  0  0  0  0  0  0  0  0  0  0
  124.5539  129.7657   61.7362 H   0  0  0  0  0  0  0  0  0  0  0  0
  122.9512  131.0807   63.1028 H   0  0  0  0  0  0  0  0  0  0  0  0
  123.0178  130.9507   65.5842 H   0  0  0  0  0  0  0  0  0  0  0  0
  124.7066  129.5222   66.7179 H   0  0  0  0  0  0  0  0  0  0  0  0
  129.6639  128.6242   60.5541 H   0  0  0  0  0  0  0  0  0  0  0  0
  130.2133  130.7532   59.3466 H   0  0  0  0  0  0  0  0  0  0  0  0
  130.0199  132.9464   60.5242 H   0  0  0  0  0  0  0  0  0  0  0  0
  129.2802  133.0260   62.9212 H   0  0  0  0  0  0  0  0  0  0  0  0
  1  2  2  0
  2  3  1  0
  3  4  1  0
  4  5  2  0
  4  6  1  0
  6  7  1  0
  7  8  2  0
  7  9  1  0
  9 10  1  0
 10 11  1  0
 11 12  2  0
 12 13  1  0
 13 14  2  0
 14 15  1  0
 15 16  2  0
  9 17  1  0
 17 18  1  0
 18 19  2  0
 18 20  1  0
 20 21  2  0
 21 22  1  0
 22 23  2  0
 23 24  1  0
 24 25  2  0
 25 26  1  0
 26 27  2  0
  2 28  1  0
 28 29  1  0
 29 30  1  0
 30 31  2  0
 31 32  1  0
 32 33  2  0
 33 34  1  0
 34 35  2  0
 28 36  1  0
 36 37  1  0
 37 38  2  0
 37 39  1  0
 39 40  2  0
 40 41  1  0
 41 42  2  0
 42 43  1  0
 43 44  2  0
 44 45  1  0
 45 46  2  0
 16 11  1  0
 26 17  1  0
 35 30  1  0
 45 36  1  0
 25 20  1  0
 44 39  1  0
  3 47  1  0
  6 48  1  0
  9 49  1  6
 10 50  1  0
 10 51  1  0
 12 52  1  0
 13 53  1  0
 14 54  1  0
 15 55  1  0
 16 56  1  0
 21 57  1  0
 22 58  1  0
 23 59  1  0
 24 60  1  0
 28 61  1  1
 29 62  1  0
 29 63  1  0
 31 64  1  0
 32 65  1  0
 33 66  1  0
 34 67  1  0
 35 68  1  0
 40 69  1  0
 41 70  1  0
 42 71  1  0
 43 72  1  0
M  END
>  <Binding energies>  (1) 
[-10.18]

>  <Ligand effiencies>  (1) 
[-0.21208333333333332]

>  <Interactions>  (1) 
["H-A:TYR:484:OH:4343, V-A:PRO:540:CA:4878, V-A:ASP:366:CG:3208, V-A:GLU:543:CD:4903, V-A:GLU:543:CG:4902, V-B:GLU:543:CG:9875, V-A:HIS:456:CE1:4064, V-B:HIS:456:CE1:9037, V-B:GLU:543:CD:9876, V-B:GLU:543:CB:9874, H-B:GLU:543:OE2:9878, V-A:TYR:484:CE1:4340, V-A:TYR:484:CZ:4342, V-B:TYR:539:CE2:9844, V-B:ARG:545:CZ:9894, H-B:TYR:484:OH:9315, V-B:ARG:545:CD:9891, V-A:ASP:366:CB:3207, V-A:ALA:541:CB:4887, V-A:ILE:369:CD1:3234, V-B:PRO:540:CB:9853, V-B:PRO:540:CA:9851, V-B:ASP:366:CG:8180, V-B:GLY:453:CA:9011, V-A:ILE:369:CG2:3232, V-B:GLY:454:CA:9016, H-B:ALA:541:N:9859, V-A:ILE:369:CB:3231, V-B:TYR:539:CZ:9845"]

$$$$
RR19_Rahimova_2017-again1
     RDKit          3D

 71 76  0  0  0  0  0  0  0  0999 V2000
  126.3490  127.4210   65.0250 O   0  0  0  0  0  0  0  0  0  0  0  0
  127.4360  128.0030   64.9840 C   0  0  0  0  0  0  0  0  0  0  0  0
  127.7880  128.9620   64.0950 N   0  0  0  0  0  0  0  0  0  0  0  0
  127.0860  129.6490   63.1450 C   0  0  0  0  0  0  0  0  0  0  0  0
  125.4960  129.4720   62.6300 S   0  0  0  0  0  0  0  0  0  0  0  0
  127.9230  130.6480   62.6800 N   0  0  0  0  0  0  0  0  0  0  0  0
  128.4690  131.6250   63.3280 C   0  0  0  0  0  0  0  0  0  0  0  0
  128.4640  131.8880   64.5470 O   0  0  0  0  0  0  0  0  0  0  0  0
  129.2520  132.6590   62.4510 C   0  0  2  0  0  0  0  0  0  0  0  0
  128.2820  133.6870   61.7780 C   0  0  0  0  0  0  0  0  0  0  0  0
  126.8170  133.2590   61.7620 C   0  0  0  0  0  0  0  0  0  0  0  0
  126.2430  132.7840   60.5810 C   0  0  0  0  0  0  0  0  0  0  0  0
  124.9100  132.3790   60.5680 C   0  0  0  0  0  0  0  0  0  0  0  0
  124.1550  132.4540   61.7380 C   0  0  0  0  0  0  0  0  0  0  0  0
  124.7210  132.9320   62.9190 C   0  0  0  0  0  0  0  0  0  0  0  0
  126.0520  133.3370   62.9300 C   0  0  0  0  0  0  0  0  0  0  0  0
  130.2380  132.0260   61.5140 N   0  0  0  0  0  0  0  0  0  0  0  0
  129.8570  131.5350   60.3010 C   0  0  0  0  0  0  0  0  0  0  0  0
  128.7230  131.5220   59.8220 O   0  0  0  0  0  0  0  0  0  0  0  0
  131.1020  131.0150   59.6780 C   0  0  0  0  0  0  0  0  0  0  0  0
  131.3180  130.3990   58.4440 C   0  0  0  0  0  0  0  0  0  0  0  0
  132.6190  130.0060   58.1120 C   0  0  0  0  0  0  0  0  0  0  0  0
  133.6750  130.2310   59.0040 C   0  0  0  0  0  0  0  0  0  0  0  0
  133.4380  130.8510   60.2350 C   0  0  0  0  0  0  0  0  0  0  0  0
  132.1330  131.2340   60.5490 C   0  0  0  0  0  0  0  0  0  0  0  0
  131.5800  131.9000   61.7520 C   0  0  0  0  0  0  0  0  0  0  0  0
  132.2010  132.2610   62.7510 O   0  0  0  0  0  0  0  0  0  0  0  0
  128.5430  127.6410   66.0180 C   0  0  2  0  0  0  0  0  0  0  0  0
  128.9890  128.8410   66.9030 C   0  0  0  0  0  0  0  0  0  0  0  0
  129.0170  128.5340   68.3900 C   0  0  0  0  0  0  0  0  0  0  0  0
  128.0080  127.7340   68.9660 C   0  0  0  0  0  0  0  0  0  0  0  0
  128.0870  127.3720   70.3050 C   0  0  0  0  0  0  0  0  0  0  0  0
  129.1720  127.7720   71.0750 C   0  0  0  0  0  0  0  0  0  0  0  0
  130.1920  128.5290   70.5110 C   0  0  0  0  0  0  0  0  0  0  0  0
  130.1310  128.9000   69.1750 C   0  0  0  0  0  0  0  0  0  0  0  0
  129.7090  126.9120   65.4330 N   0  0  0  0  0  0  0  0  0  0  0  0
  129.9600  126.9240   64.0930 C   0  0  0  0  0  0  0  0  0  0  0  0
  129.2690  127.4300   63.2080 O   0  0  0  0  0  0  0  0  0  0  0  0
  131.2470  126.2060   63.9250 C   0  0  0  0  0  0  0  0  0  0  0  0
  131.9950  125.9250   62.7800 C   0  0  0  0  0  0  0  0  0  0  0  0
  133.2050  125.2370   62.9240 C   0  0  0  0  0  0  0  0  0  0  0  0
  133.6460  124.8410   64.1930 C   0  0  0  0  0  0  0  0  0  0  0  0
  132.8810  125.1290   65.3290 C   0  0  0  0  0  0  0  0  0  0  0  0
  131.6790  125.8190   65.1650 C   0  0  0  0  0  0  0  0  0  0  0  0
  130.6820  126.2860   66.1600 C   0  0  0  0  0  0  0  0  0  0  0  0
  130.7310  126.1490   67.3830 O   0  0  0  0  0  0  0  0  0  0  0  0
  128.7320  129.2990   64.2120 H   0  0  0  0  0  0  0  0  0  0  0  0
  129.8882  133.2445   63.1310 H   0  0  0  0  0  0  0  0  0  0  0  0
  128.3559  134.6382   62.3255 H   0  0  0  0  0  0  0  0  0  0  0  0
  128.5949  133.7700   60.7267 H   0  0  0  0  0  0  0  0  0  0  0  0
  126.8433  132.7296   59.6609 H   0  0  0  0  0  0  0  0  0  0  0  0
  124.4556  132.0021   59.6398 H   0  0  0  0  0  0  0  0  0  0  0  0
  123.1029  132.1330   61.7290 H   0  0  0  0  0  0  0  0  0  0  0  0
  124.1183  132.9887   63.8375 H   0  0  0  0  0  0  0  0  0  0  0  0
  126.5028  133.7188   63.8579 H   0  0  0  0  0  0  0  0  0  0  0  0
  130.4838  130.2264   57.7481 H   0  0  0  0  0  0  0  0  0  0  0  0
  132.8135  129.5179   57.1456 H   0  0  0  0  0  0  0  0  0  0  0  0
  134.6950  129.9188   58.7353 H   0  0  0  0  0  0  0  0  0  0  0  0
  134.2622  131.0329   60.9405 H   0  0  0  0  0  0  0  0  0  0  0  0
  128.0494  126.9261   66.6928 H   0  0  0  0  0  0  0  0  0  0  0  0
  130.0003  129.1427   66.5928 H   0  0  0  0  0  0  0  0  0  0  0  0
  128.2458  129.6386   66.7563 H   0  0  0  0  0  0  0  0  0  0  0  0
  127.1581  127.3966   68.3546 H   0  0  0  0  0  0  0  0  0  0  0  0
  127.2876  126.7665   70.7571 H   0  0  0  0  0  0  0  0  0  0  0  0
  129.2240  127.4881   72.1365 H   0  0  0  0  0  0  0  0  0  0  0  0
  131.0511  128.8353   71.1259 H   0  0  0  0  0  0  0  0  0  0  0  0
  130.9518  129.4799   68.7277 H   0  0  0  0  0  0  0  0  0  0  0  0
  131.6409  126.2376   61.7866 H   0  0  0  0  0  0  0  0  0  0  0  0
  133.8125  125.0061   62.0365 H   0  0  0  0  0  0  0  0  0  0  0  0
  134.5985  124.3008   64.2973 H   0  0  0  0  0  0  0  0  0  0  0  0
  133.2195  124.8185   66.3285 H   0  0  0  0  0  0  0  0  0  0  0  0
  1  2  2  0
  2  3  1  0
  3  4  1  0
  4  5  2  0
  4  6  1  0
  6  7  2  0
  7  8  1  0
  7  9  1  0
  9 10  1  0
 10 11  1  0
 11 12  2  0
 12 13  1  0
 13 14  2  0
 14 15  1  0
 15 16  2  0
  9 17  1  0
 17 18  1  0
 18 19  2  0
 18 20  1  0
 20 21  2  0
 21 22  1  0
 22 23  2  0
 23 24  1  0
 24 25  2  0
 25 26  1  0
 26 27  2  0
  2 28  1  0
 28 29  1  0
 29 30  1  0
 30 31  2  0
 31 32  1  0
 32 33  2  0
 33 34  1  0
 34 35  2  0
 28 36  1  0
 36 37  1  0
 37 38  2  0
 37 39  1  0
 39 40  2  0
 40 41  1  0
 41 42  2  0
 42 43  1  0
 43 44  2  0
 44 45  1  0
 45 46  2  0
 16 11  1  0
 26 17  1  0
 35 30  1  0
 45 36  1  0
 25 20  1  0
 44 39  1  0
  3 47  1  0
  9 48  1  1
 10 49  1  0
 10 50  1  0
 12 51  1  0
 13 52  1  0
 14 53  1  0
 15 54  1  0
 16 55  1  0
 21 56  1  0
 22 57  1  0
 23 58  1  0
 24 59  1  0
 28 60  1  1
 29 61  1  0
 29 62  1  0
 31 63  1  0
 32 64  1  0
 33 65  1  0
 34 66  1  0
 35 67  1  0
 40 68  1  0
 41 69  1  0
 42 70  1  0
 43 71  1  0
M  CHG  1   8  -1
M  END
>  <Binding energies>  (1) 
[-10.31]

>  <Ligand effiencies>  (1) 
[-0.2193617021276596]

>  <Interactions>  (1) 
["V-A:LEU:363:CA:3180, V-A:ASN:362:CB:3171, V-A:ARG:545:CZ:4921, V-A:ASN:362:C:3167, H-A:GLU:543:OE2:4905, V-A:PRO:540:CA:4878, V-A:ASP:366:CG:3208, V-A:GLU:543:CD:4903, V-A:PRO:540:CB:4880, V-A:GLU:543:CG:4902, V-A:GLU:543:CB:4901, V-A:HIS:456:CE1:4064, V-B:HIS:456:CE1:9037, H-A:GLU:543:OE1:4904, V-B:GLU:543:CD:9876, V-A:GLU:543:C:4897, H-B:TYR:484:OH:9315, V-A:PRO:540:C:4876, H-A:ALA:541:N:4886, V-A:TYR:531:CE2:4788, V-A:ASP:366:CB:3207, V-A:TYR:531:CZ:4789, V-A:ALA:541:CB:4887, V-A:ALA:541:CA:4885, V-A:TYR:539:CE2:4871, H-A:HIS:456:NE2:4065, H-B:ARG:545:NH2:9896, H-B:ARG:545:NE:9892, V-B:ILE:369:CD1:8206, V-B:LEU:475:CD2:9226"]

$$$$
RR1_Rahimova_2017
     RDKit          3D

 68 71  0  0  0  0  0  0  0  0999 V2000
  136.0940  123.5020   75.7800 C   0  0  0  0  0  0  0  0  0  0  0  0
  135.1130  124.3660   76.3410 O   0  0  0  0  0  0  0  0  0  0  0  0
  134.3260  125.1290   75.5000 C   0  0  0  0  0  0  0  0  0  0  0  0
  134.7770  126.2650   74.8080 C   0  0  0  0  0  0  0  0  0  0  0  0
  133.9080  126.9770   73.9870 C   0  0  0  0  0  0  0  0  0  0  0  0
  132.5820  126.5670   73.8360 C   0  0  0  0  0  0  0  0  0  0  0  0
  131.7710  127.3780   73.0210 N   0  0  0  0  0  0  0  0  0  0  0  0
  130.4950  127.7790   73.2120 C   0  0  0  0  0  0  0  0  0  0  0  0
  129.7810  127.4210   74.1490 O   0  0  0  0  0  0  0  0  0  0  0  0
  129.9610  128.7440   72.1430 C   0  0  0  0  0  0  0  0  0  0  0  0
  128.6490  128.0710   71.0640 S   0  0  0  0  0  0  0  0  0  0  0  0
  129.2220  126.4060   71.0000 C   0  0  0  0  0  0  0  0  0  0  0  0
  129.2880  125.6110   72.0380 N   0  0  0  0  0  0  0  0  0  0  0  0
  129.7550  124.4720   71.5360 C   0  0  0  0  0  0  0  0  0  0  0  0
  129.9800  123.2520   72.3840 C   0  0  0  0  0  0  0  0  0  0  0  0
  131.1000  122.4250   72.1980 C   0  0  0  0  0  0  0  0  0  0  0  0
  131.2810  121.2970   73.0000 C   0  0  0  0  0  0  0  0  0  0  0  0
  130.3300  121.0180   73.9800 C   0  0  0  0  0  0  0  0  0  0  0  0
  129.2370  121.7950   74.1870 N   0  0  0  0  0  0  0  0  0  0  0  0
  129.0790  122.8880   73.3970 C   0  0  0  0  0  0  0  0  0  0  0  0
  130.0020  124.4840   70.2390 N   0  0  0  0  0  0  0  0  0  0  0  0
  129.6610  125.7280   69.8920 N   0  0  0  0  0  0  0  0  0  0  0  0
  129.7610  126.1650   68.5000 C   0  0  0  0  0  0  0  0  0  0  0  0
  128.4470  126.6750   67.8820 C   0  0  0  0  0  0  0  0  0  0  0  0
  127.4030  126.6970   68.5450 O   0  0  0  0  0  0  0  0  0  0  0  0
  128.5390  127.0750   66.6000 N   0  0  0  0  0  0  0  0  0  0  0  0
  127.4330  127.6830   66.0230 N   0  0  0  0  0  0  0  0  0  0  0  0
  127.6510  128.6170   65.0720 C   0  0  0  0  0  0  0  0  0  0  0  0
  128.7650  128.8890   64.6110 O   0  0  0  0  0  0  0  0  0  0  0  0
  126.4160  129.3260   64.5530 C   0  0  0  0  0  0  0  0  0  0  0  0
  126.4160  129.8790   63.2680 C   0  0  0  0  0  0  0  0  0  0  0  0
  125.2980  130.5450   62.7770 C   0  0  0  0  0  0  0  0  0  0  0  0
  124.1420  130.6840   63.5630 C   0  0  0  0  0  0  0  0  0  0  0  0
  123.0030  131.3450   63.1400 O   0  0  0  0  0  0  0  0  0  0  0  0
  122.1790  130.7540   62.1410 C   0  0  0  0  0  0  0  0  0  0  0  0
  124.1250  130.1430   64.8550 C   0  0  0  0  0  0  0  0  0  0  0  0
  122.9690  130.3250   65.5960 O   0  0  0  0  0  0  0  0  0  0  0  0
  123.0060  130.1610   67.0090 C   0  0  0  0  0  0  0  0  0  0  0  0
  125.2590  129.4660   65.3370 C   0  0  0  0  0  0  0  0  0  0  0  0
  132.1280  125.4320   74.5250 C   0  0  0  0  0  0  0  0  0  0  0  0
  133.0010  124.7220   75.3450 C   0  0  0  0  0  0  0  0  0  0  0  0
  136.6538  123.0090   76.5884 H   0  0  0  0  0  0  0  0  0  0  0  0
  135.5998  122.7405   75.1589 H   0  0  0  0  0  0  0  0  0  0  0  0
  136.7870  124.0885   75.1589 H   0  0  0  0  0  0  0  0  0  0  0  0
  135.8214  126.5931   74.9155 H   0  0  0  0  0  0  0  0  0  0  0  0
  134.2682  127.8689   73.4534 H   0  0  0  0  0  0  0  0  0  0  0  0
  132.2060  127.6690   72.1570 H   0  0  0  0  0  0  0  0  0  0  0  0
  129.5573  129.6292   72.6563 H   0  0  0  0  0  0  0  0  0  0  0  0
  130.8123  128.9655   71.4826 H   0  0  0  0  0  0  0  0  0  0  0  0
  131.8368  122.6670   71.4179 H   0  0  0  0  0  0  0  0  0  0  0  0
  132.1546  120.6430   72.8617 H   0  0  0  0  0  0  0  0  0  0  0  0
  130.4716  120.1296   74.6130 H   0  0  0  0  0  0  0  0  0  0  0  0
  128.1960  123.5234   73.5599 H   0  0  0  0  0  0  0  0  0  0  0  0
  130.4998  126.9784   68.4500 H   0  0  0  0  0  0  0  0  0  0  0  0
  130.0493  125.2766   67.9190 H   0  0  0  0  0  0  0  0  0  0  0  0
  129.4060  127.2620   66.1140 H   0  0  0  0  0  0  0  0  0  0  0  0
  126.6760  127.7760   66.6850 H   0  0  0  0  0  0  0  0  0  0  0  0
  127.3124  129.7858   62.6373 H   0  0  0  0  0  0  0  0  0  0  0  0
  125.3192  130.9677   61.7617 H   0  0  0  0  0  0  0  0  0  0  0  0
  121.3753  130.1776   62.6225 H   0  0  0  0  0  0  0  0  0  0  0  0
  121.7390  131.5437   61.5143 H   0  0  0  0  0  0  0  0  0  0  0  0
  122.7859  130.0840   61.5143 H   0  0  0  0  0  0  0  0  0  0  0  0
  122.7889  131.1233   67.4956 H   0  0  0  0  0  0  0  0  0  0  0  0
  122.2527  129.4188   67.3118 H   0  0  0  0  0  0  0  0  0  0  0  0
  124.0050  129.8141   67.3118 H   0  0  0  0  0  0  0  0  0  0  0  0
  125.2397  129.0368   66.3496 H   0  0  0  0  0  0  0  0  0  0  0  0
  131.0837  125.1036   74.4174 H   0  0  0  0  0  0  0  0  0  0  0  0
  132.6413  123.8290   75.8772 H   0  0  0  0  0  0  0  0  0  0  0  0
  1  2  1  0
  2  3  1  0
  3  4  2  0
  4  5  1  0
  5  6  2  0
  6  7  1  0
  7  8  1  0
  8  9  2  0
  8 10  1  0
 10 11  1  0
 11 12  1  0
 12 13  2  0
 13 14  1  0
 14 15  1  0
 15 16  2  0
 16 17  1  0
 17 18  2  0
 18 19  1  0
 19 20  2  0
 14 21  2  0
 21 22  1  0
 22 23  1  0
 23 24  1  0
 24 25  2  0
 24 26  1  0
 26 27  1  0
 27 28  1  0
 28 29  2  0
 28 30  1  0
 30 31  2  0
 31 32  1  0
 32 33  2  0
 33 34  1  0
 34 35  1  0
 33 36  1  0
 36 37  1  0
 37 38  1  0
 36 39  2  0
  6 40  1  0
 40 41  2  0
 41  3  1  0
 22 12  1  0
 39 30  1  0
 20 15  1  0
  1 42  1  0
  1 43  1  0
  1 44  1  0
  4 45  1  0
  5 46  1  0
  7 47  1  0
 10 48  1  0
 10 49  1  0
 16 50  1  0
 17 51  1  0
 18 52  1  0
 20 53  1  0
 23 54  1  0
 23 55  1  0
 26 56  1  0
 27 57  1  0
 31 58  1  0
 32 59  1  0
 35 60  1  0
 35 61  1  0
 35 62  1  0
 38 63  1  0
 38 64  1  0
 38 65  1  0
 39 66  1  0
 40 67  1  0
 41 68  1  0
M  END
>  <Binding energies>  (1) 
[-8.48]

>  <Ligand effiencies>  (1) 
[-0.19272727272727275]

>  <Interactions>  (1) 
["V-A:GLY:544:C:4907, V-B:GLU:543:CG:9875, V-A:HIS:456:CE1:4064, V-B:HIS:456:CE1:9037, H-A:GLU:543:OE1:4904, V-B:GLU:543:CD:9876, V-B:GLU:543:CB:9874, V-B:ARG:545:CZ:9894, V-B:ARG:545:CD:9891, V-B:ARG:545:CG:9890, H-B:GLY:454:N:9017, V-B:GLU:543:C:9870, H-A:HIS:456:ND1:4062, H-B:LYS:547:NZ:9919, H-A:LYS:547:NZ:4946, V-A:TYR:484:CD2:4339, V-A:HIS:456:CG:4061, V-A:TYR:484:CB:4336, H-A:HIS:456:NE2:4065, V-B:LYS:547:CE:9918, V-A:TYR:484:CG:4337, V-A:LYS:547:CE:4945, V-B:ILE:369:CD1:8206, V-B:GLY:453:CA:9011, V-A:ASP:473:CG:4235, V-A:ASP:473:CB:4234, V-A:HIS:456:CB:4060, H-A:GLY:544:O:4908, V-A:LYS:547:CG:4943, V-A:ARG:545:C:4912, V-A:LYS:547:CD:4944, V-B:GLY:453:C:9009, V-A:VAL:458:CG2:4082, V-A:HIS:456:C:4056, V-A:VAL:457:C:4068, V-A:VAL:457:CA:4070, V-B:ILE:455:C:9019, V-A:LYS:471:C:4208, V-A:LYS:471:CB:4212, V-A:LYS:471:CG:4213"]

$$$$
RR20_Rahimova_2017
     RDKit          3D

 68 73  0  0  0  0  0  0  0  0999 V2000
  127.4350  135.0820   61.0680 C   0  0  0  0  0  0  0  0  0  0  0  0
  126.5000  134.0550   61.6790 C   0  0  0  0  0  0  0  0  0  0  0  0
  126.7460  133.5690   62.9630 C   0  0  0  0  0  0  0  0  0  0  0  0
  125.8840  132.6330   63.5300 C   0  0  0  0  0  0  0  0  0  0  0  0
  124.7770  132.1670   62.8120 C   0  0  0  0  0  0  0  0  0  0  0  0
  123.8410  131.1660   63.4530 C   0  0  0  0  0  0  0  0  0  0  0  0
  122.7450  130.9850   62.9180 O   0  0  0  0  0  0  0  0  0  0  0  0
  124.2420  130.4990   64.5750 N   0  0  0  0  0  0  0  0  0  0  0  0
  123.2850  130.1050   65.6220 C   0  0  0  0  0  0  0  0  0  0  0  0
  124.0630  129.2620   66.6180 C   0  0  0  0  0  0  0  0  0  0  0  0
  125.3150  128.9260   65.8660 C   0  0  0  0  0  0  0  0  0  0  0  0
  126.3730  128.1000   66.2440 C   0  0  0  0  0  0  0  0  0  0  0  0
  127.5400  128.0370   65.4730 C   0  0  0  0  0  0  0  0  0  0  0  0
  128.6770  127.1400   65.8760 C   0  0  0  0  0  0  0  0  0  0  0  0
  129.5530  126.7810   64.9500 N   0  0  0  0  0  0  0  0  0  0  0  0
  130.5090  126.0180   65.4150 C   0  0  0  0  0  0  0  0  0  0  0  0
  131.5800  125.4730   64.7230 N   0  0  0  0  0  0  0  0  0  0  0  0
  132.8500  125.3270   65.1730 C   0  0  0  0  0  0  0  0  0  0  0  0
  133.2240  125.6510   66.3020 O   0  0  0  0  0  0  0  0  0  0  0  0
  133.8900  124.6900   64.2200 C   0  0  0  0  0  0  0  0  0  0  0  0
  133.2730  124.0190   63.0600 N   0  0  0  0  0  0  0  0  0  0  0  0
  134.2540  123.6860   62.0170 C   0  0  0  0  0  0  0  0  0  0  0  0
  133.5290  123.2360   60.7280 C   0  0  0  0  0  0  0  0  0  0  0  0
  132.4040  122.2350   60.9950 C   0  0  0  0  0  0  0  0  0  0  0  0
  131.8160  121.5160   59.9480 C   0  0  0  0  0  0  0  0  0  0  0  0
  130.7650  120.6330   60.1860 C   0  0  0  0  0  0  0  0  0  0  0  0
  130.2890  120.4570   61.4810 C   0  0  0  0  0  0  0  0  0  0  0  0
  130.8710  121.1600   62.5340 C   0  0  0  0  0  0  0  0  0  0  0  0
  131.9260  122.0510   62.3090 C   0  0  0  0  0  0  0  0  0  0  0  0
  132.6030  122.7790   63.4710 C   0  0  0  0  0  0  0  0  0  0  0  0
  130.3840  125.6640   67.0940 S   0  0  0  0  0  0  0  0  0  0  0  0
  128.9210  126.6180   67.1640 C   0  0  0  0  0  0  0  0  0  0  0  0
  128.1470  126.7400   68.4580 C   0  0  0  0  0  0  0  0  0  0  0  0
  127.6430  128.8660   64.3450 C   0  0  0  0  0  0  0  0  0  0  0  0
  126.5940  129.7080   63.9750 C   0  0  0  0  0  0  0  0  0  0  0  0
  125.3990  129.6970   64.7060 C   0  0  0  0  0  0  0  0  0  0  0  0
  124.5200  132.6810   61.5350 C   0  0  0  0  0  0  0  0  0  0  0  0
  125.3810  133.6180   60.9680 C   0  0  0  0  0  0  0  0  0  0  0  0
  127.9421  135.6390   61.8696 H   0  0  0  0  0  0  0  0  0  0  0  0
  128.1845  134.5711   60.4457 H   0  0  0  0  0  0  0  0  0  0  0  0
  126.8562  135.7804   60.4457 H   0  0  0  0  0  0  0  0  0  0  0  0
  127.6204  133.9247   63.5277 H   0  0  0  0  0  0  0  0  0  0  0  0
  126.0744  132.2586   64.5466 H   0  0  0  0  0  0  0  0  0  0  0  0
  122.8743  130.9971   66.1174 H   0  0  0  0  0  0  0  0  0  0  0  0
  122.4392  129.5434   65.1987 H   0  0  0  0  0  0  0  0  0  0  0  0
  124.2903  129.8349   67.5291 H   0  0  0  0  0  0  0  0  0  0  0  0
  123.5108  128.3746   66.9610 H   0  0  0  0  0  0  0  0  0  0  0  0
  126.2899  127.4919   67.1569 H   0  0  0  0  0  0  0  0  0  0  0  0
  131.3880  125.1620   63.7810 H   0  0  0  0  0  0  0  0  0  0  0  0
  134.5595  125.4815   63.8521 H   0  0  0  0  0  0  0  0  0  0  0  0
  134.4351  123.9245   64.7917 H   0  0  0  0  0  0  0  0  0  0  0  0
  134.8674  124.5725   61.7985 H   0  0  0  0  0  0  0  0  0  0  0  0
  134.8941  122.8659   62.3743 H   0  0  0  0  0  0  0  0  0  0  0  0
  133.1004  124.1231   60.2387 H   0  0  0  0  0  0  0  0  0  0  0  0
  134.2717  122.7346   60.0901 H   0  0  0  0  0  0  0  0  0  0  0  0
  132.1892  121.6501   58.9220 H   0  0  0  0  0  0  0  0  0  0  0  0
  130.3128  120.0764   59.3519 H   0  0  0  0  0  0  0  0  0  0  0  0
  129.4558  119.7651   61.6733 H   0  0  0  0  0  0  0  0  0  0  0  0
  130.4954  121.0122   63.5573 H   0  0  0  0  0  0  0  0  0  0  0  0
  131.8387  123.0263   64.2225 H   0  0  0  0  0  0  0  0  0  0  0  0
  133.3745  122.1070   63.8750 H   0  0  0  0  0  0  0  0  0  0  0  0
  128.8357  126.6314   69.3088 H   0  0  0  0  0  0  0  0  0  0  0  0
  127.6611  127.7258   68.5031 H   0  0  0  0  0  0  0  0  0  0  0  0
  127.3814  125.9514   68.5031 H   0  0  0  0  0  0  0  0  0  0  0  0
  128.5642  128.8516   63.7440 H   0  0  0  0  0  0  0  0  0  0  0  0
  126.7050  130.3794   63.1108 H   0  0  0  0  0  0  0  0  0  0  0  0
  123.6342  132.3433   60.9770 H   0  0  0  0  0  0  0  0  0  0  0  0
  125.1793  134.0130   59.9614 H   0  0  0  0  0  0  0  0  0  0  0  0
  1  2  1  0
  2  3  2  0
  3  4  1  0
  4  5  2  0
  5  6  1  0
  6  7  2  0
  6  8  1  0
  8  9  1  0
  9 10  1  0
 10 11  1  0
 11 12  2  0
 12 13  1  0
 13 14  1  0
 14 15  1  0
 15 16  2  0
 16 17  1  0
 17 18  1  0
 18 19  2  0
 18 20  1  0
 20 21  1  0
 21 22  1  0
 22 23  1  0
 23 24  1  0
 24 25  2  0
 25 26  1  0
 26 27  2  0
 27 28  1  0
 28 29  2  0
 29 30  1  0
 16 31  1  0
 31 32  1  0
 32 33  1  0
 13 34  2  0
 34 35  1  0
 35 36  2  0
  5 37  1  0
 37 38  2  0
 38  2  1  0
 36  8  1  0
 36 11  1  0
 32 14  2  0
 30 21  1  0
 29 24  1  0
  1 39  1  0
  1 40  1  0
  1 41  1  0
  3 42  1  0
  4 43  1  0
  9 44  1  0
  9 45  1  0
 10 46  1  0
 10 47  1  0
 12 48  1  0
 17 49  1  0
 20 50  1  0
 20 51  1  0
 22 52  1  0
 22 53  1  0
 23 54  1  0
 23 55  1  0
 25 56  1  0
 26 57  1  0
 27 58  1  0
 28 59  1  0
 30 60  1  0
 30 61  1  0
 33 62  1  0
 33 63  1  0
 33 64  1  0
 34 65  1  0
 35 66  1  0
 37 67  1  0
 38 68  1  0
M  END
>  <Binding energies>  (1) 
[-10.39]

>  <Ligand effiencies>  (1) 
[-0.26641025641025645]

>  <Interactions>  (1) 
["H-A:TYR:484:OH:4343, V-A:ARG:545:CZ:4921, H-A:GLY:454:N:4045, V-A:ASP:366:CG:3208, V-B:GLU:543:CG:9875, V-A:HIS:456:CE1:4064, V-B:HIS:456:CE1:9037, V-A:GLY:454:CA:4044, V-B:GLU:543:CD:9876, V-B:GLU:543:CB:9874, V-A:LEU:475:CD2:4254, V-B:TYR:539:CD2:9842, V-A:LEU:475:CD1:4253, V-B:TYR:539:CE2:9844, V-B:ALA:541:CB:9860, V-B:ARG:545:CZ:9894, V-B:ARG:545:CD:9891, V-B:ARG:545:CG:9890, V-A:TYR:539:CE2:4871, H-B:GLY:454:N:9017, V-A:ILE:369:CD1:3234, V-A:GLY:453:C:4037, V-A:GLY:453:CA:4039, V-B:GLU:543:C:9870, H-A:HIS:456:NE2:4065, H-A:ARG:545:NE:4919, V-B:ILE:369:CD1:8206, V-B:LEU:475:CD2:9226, V-A:TYR:539:CD2:4869, V-B:GLY:453:CA:9011, V-B:GLY:453:C:9009, V-B:GLY:454:CA:9016, V-B:LEU:475:CD1:9225, V-B:ARG:545:CB:9889"]

$$$$
RR20_Rahimova_2017-again1
     RDKit          3D

 68 73  0  0  0  0  0  0  0  0999 V2000
  121.5790  120.2980   73.2340 C   0  0  0  0  0  0  0  0  0  0  0  0
  123.0150  119.9760   72.8590 C   0  0  0  0  0  0  0  0  0  0  0  0
  123.6860  120.7700   71.9290 C   0  0  0  0  0  0  0  0  0  0  0  0
  125.0050  120.4800   71.5900 C   0  0  0  0  0  0  0  0  0  0  0  0
  125.6590  119.3870   72.1700 C   0  0  0  0  0  0  0  0  0  0  0  0
  127.0980  119.0970   71.8030 C   0  0  0  0  0  0  0  0  0  0  0  0
  127.3070  118.4280   70.7890 O   0  0  0  0  0  0  0  0  0  0  0  0
  128.0990  119.6040   72.5810 N   0  0  0  0  0  0  0  0  0  0  0  0
  129.1630  118.7410   73.1220 C   0  0  0  0  0  0  0  0  0  0  0  0
  130.1630  119.6650   73.7980 C   0  0  0  0  0  0  0  0  0  0  0  0
  129.7820  121.0140   73.2630 C   0  0  0  0  0  0  0  0  0  0  0  0
  130.4020  122.2470   73.4690 C   0  0  0  0  0  0  0  0  0  0  0  0
  129.8010  123.4330   73.0200 C   0  0  0  0  0  0  0  0  0  0  0  0
  130.4640  124.7610   73.2470 C   0  0  0  0  0  0  0  0  0  0  0  0
  129.8320  125.8530   72.8450 N   0  0  0  0  0  0  0  0  0  0  0  0
  130.4870  126.9650   73.0750 C   0  0  0  0  0  0  0  0  0  0  0  0
  130.1430  128.2510   72.7510 N   0  0  0  0  0  0  0  0  0  0  0  0
  129.2670  128.9620   73.3780 C   0  0  0  0  0  0  0  0  0  0  0  0
  128.6020  128.7370   74.4070 O   0  0  0  0  0  0  0  0  0  0  0  0
  129.0100  130.3420   72.7390 C   0  0  0  0  0  0  0  0  0  0  0  0
  128.8550  131.4210   73.8500 N   0  0  2  0  0  0  0  0  0  0  0  0
  127.8670  132.5390   73.4560 C   0  0  0  0  0  0  0  0  0  0  0  0
  128.4280  133.3400   72.2670 C   0  0  0  0  0  0  0  0  0  0  0  0
  129.8750  133.7790   72.4650 C   0  0  0  0  0  0  0  0  0  0  0  0
  130.3920  134.8350   71.7060 C   0  0  0  0  0  0  0  0  0  0  0  0
  131.7210  135.2310   71.8260 C   0  0  0  0  0  0  0  0  0  0  0  0
  132.5570  134.5700   72.7180 C   0  0  0  0  0  0  0  0  0  0  0  0
  132.0560  133.5250   73.4900 C   0  0  0  0  0  0  0  0  0  0  0  0
  130.7200  133.1180   73.3890 C   0  0  0  0  0  0  0  0  0  0  0  0
  130.2170  131.9970   74.3060 C   0  0  0  0  0  0  0  0  0  0  0  0
  132.0210  126.7090   73.8190 S   0  0  0  0  0  0  0  0  0  0  0  0
  131.7160  124.9900   73.8530 C   0  0  0  0  0  0  0  0  0  0  0  0
  132.7160  124.0440   74.4830 C   0  0  0  0  0  0  0  0  0  0  0  0
  128.5450  123.3520   72.4040 C   0  0  0  0  0  0  0  0  0  0  0  0
  127.9140  122.1220   72.2130 C   0  0  0  0  0  0  0  0  0  0  0  0
  128.5600  120.9390   72.5950 C   0  0  0  0  0  0  0  0  0  0  0  0
  124.9890  118.6130   73.1260 C   0  0  0  0  0  0  0  0  0  0  0  0
  123.6700  118.9030   73.4650 C   0  0  0  0  0  0  0  0  0  0  0  0
  121.4822  120.3197   74.3295 H   0  0  0  0  0  0  0  0  0  0  0  0
  121.3039  121.2801   72.8221 H   0  0  0  0  0  0  0  0  0  0  0  0
  120.9108  119.5274   72.8221 H   0  0  0  0  0  0  0  0  0  0  0  0
  123.1734  121.6248   71.4636 H   0  0  0  0  0  0  0  0  0  0  0  0
  125.5353  121.1128   70.8631 H   0  0  0  0  0  0  0  0  0  0  0  0
  128.7442  118.0336   73.8529 H   0  0  0  0  0  0  0  0  0  0  0  0
  129.6405  118.1504   72.3263 H   0  0  0  0  0  0  0  0  0  0  0  0
  130.0591  119.6288   74.8925 H   0  0  0  0  0  0  0  0  0  0  0  0
  131.2104  119.3961   73.5964 H   0  0  0  0  0  0  0  0  0  0  0  0
  131.3708  122.2897   73.9882 H   0  0  0  0  0  0  0  0  0  0  0  0
  129.8576  130.6066   72.0896 H   0  0  0  0  0  0  0  0  0  0  0  0
  128.0851  130.2989   72.1451 H   0  0  0  0  0  0  0  0  0  0  0  0
  128.4460  130.9450   74.6440 H   0  0  0  0  0  0  0  0  0  0  0  0
  126.9036  132.0907   73.1715 H   0  0  0  0  0  0  0  0  0  0  0  0
  127.7247  133.2145   74.3124 H   0  0  0  0  0  0  0  0  0  0  0  0
  128.3739  132.7115   71.3659 H   0  0  0  0  0  0  0  0  0  0  0  0
  127.8206  134.2522   72.1728 H   0  0  0  0  0  0  0  0  0  0  0  0
  129.7344  135.3631   70.9999 H   0  0  0  0  0  0  0  0  0  0  0  0
  132.1074  136.0625   71.2182 H   0  0  0  0  0  0  0  0  0  0  0  0
  133.6106  134.8712   72.8138 H   0  0  0  0  0  0  0  0  0  0  0  0
  132.7242  133.0080   74.1944 H   0  0  0  0  0  0  0  0  0  0  0  0
  130.9593  131.1852   74.3098 H   0  0  0  0  0  0  0  0  0  0  0  0
  130.0784  132.4248   75.3099 H   0  0  0  0  0  0  0  0  0  0  0  0
  132.6447  124.1115   75.5786 H   0  0  0  0  0  0  0  0  0  0  0  0
  132.4977  123.0141   74.1641 H   0  0  0  0  0  0  0  0  0  0  0  0
  133.7322  124.3190   74.1641 H   0  0  0  0  0  0  0  0  0  0  0  0
  128.0482  124.2732   72.0654 H   0  0  0  0  0  0  0  0  0  0  0  0
  126.9110  122.0814   71.7632 H   0  0  0  0  0  0  0  0  0  0  0  0
  125.5070  117.7725   73.6110 H   0  0  0  0  0  0  0  0  0  0  0  0
  123.1448  118.2870   74.2097 H   0  0  0  0  0  0  0  0  0  0  0  0
  1  2  1  0
  2  3  2  0
  3  4  1  0
  4  5  2  0
  5  6  1  0
  6  7  2  0
  6  8  1  0
  8  9  1  0
  9 10  1  0
 10 11  1  0
 11 12  2  0
 12 13  1  0
 13 14  1  0
 14 15  1  0
 15 16  2  0
 16 17  1  0
 17 18  2  0
 18 19  1  0
 18 20  1  0
 20 21  1  0
 21 22  1  0
 22 23  1  0
 23 24  1  0
 24 25  2  0
 25 26  1  0
 26 27  2  0
 27 28  1  0
 28 29  2  0
 29 30  1  0
 16 31  1  0
 31 32  1  0
 32 33  1  0
 13 34  2  0
 34 35  1  0
 35 36  2  0
  5 37  1  0
 37 38  2  0
 38  2  1  0
 36  8  1  0
 36 11  1  0
 32 14  2  0
 30 21  1  0
 29 24  1  0
  1 39  1  0
  1 40  1  0
  1 41  1  0
  3 42  1  0
  4 43  1  0
  9 44  1  0
  9 45  1  0
 10 46  1  0
 10 47  1  0
 12 48  1  0
 20 49  1  0
 20 50  1  0
 21 51  1  1
 22 52  1  0
 22 53  1  0
 23 54  1  0
 23 55  1  0
 25 56  1  0
 26 57  1  0
 27 58  1  0
 28 59  1  0
 30 60  1  0
 30 61  1  0
 33 62  1  0
 33 63  1  0
 33 64  1  0
 34 65  1  0
 35 66  1  0
 37 67  1  0
 38 68  1  0
M  CHG  2  19  -1  21   1
M  END
>  <Binding energies>  (1) 
[-10.58]

>  <Ligand effiencies>  (1) 
[-0.2712820512820513]

>  <Interactions>  (1) 
["V-A:HIS:456:CE1:4064, V-A:GLY:544:CA:4909, V-A:GLU:543:C:4897, V-B:GLU:543:C:9870, H-B:LYS:547:NZ:9919, V-B:HIS:456:CD2:9035, H-A:LYS:547:NZ:4946, V-B:GLY:544:CA:9882, V-A:HIS:456:CG:4061, V-A:TYR:484:CB:4336, V-B:LYS:547:CE:9918, V-B:TYR:484:CD1:9310, V-B:TYR:484:CG:9309, V-B:TYR:484:CB:9308, V-A:LYS:547:CE:4945, V-A:ASP:473:CG:4235, V-A:HIS:456:CB:4060, V-A:TYR:484:C:4332, V-A:TYR:484:CA:4334, V-B:VAL:542:CG1:9867, H-A:TYR:484:N:4335, V-B:GLU:357:CB:8101, V-B:GLU:357:CD:8103, V-B:PHE:548:CE1:9932, V-B:PHE:548:CD1:9930"]

$$$$
RR21_Rahimova_2017
     RDKit          3D

 62 67  0  0  0  0  0  0  0  0999 V2000
  132.3780  124.5790   60.7250 C   0  0  0  0  0  0  0  0  0  0  0  0
  132.7000  123.8010   61.8740 O   0  0  0  0  0  0  0  0  0  0  0  0
  132.0840  124.0860   63.0780 C   0  0  0  0  0  0  0  0  0  0  0  0
  130.8120  123.6160   63.4450 C   0  0  0  0  0  0  0  0  0  0  0  0
  130.2610  123.9480   64.6820 C   0  0  0  0  0  0  0  0  0  0  0  0
  130.9670  124.7530   65.5840 C   0  0  0  0  0  0  0  0  0  0  0  0
  130.3760  125.1040   66.9150 C   0  0  0  0  0  0  0  0  0  0  0  0
  130.5030  124.2710   67.9300 N   0  0  0  0  0  0  0  0  0  0  0  0
  129.8860  124.8400   68.9760 N   0  0  0  0  0  0  0  0  0  0  0  0
  129.8510  124.2120   70.2480 C   0  0  0  0  0  0  0  0  0  0  0  0
  129.9220  122.8150   70.3600 C   0  0  0  0  0  0  0  0  0  0  0  0
  129.8920  122.2110   71.6140 C   0  0  0  0  0  0  0  0  0  0  0  0
  129.7900  122.9990   72.7580 C   0  0  0  0  0  0  0  0  0  0  0  0
  129.7170  124.3860   72.6600 C   0  0  0  0  0  0  0  0  0  0  0  0
  129.7460  124.9930   71.4080 C   0  0  0  0  0  0  0  0  0  0  0  0
  129.3750  126.0620   68.6170 C   0  0  0  0  0  0  0  0  0  0  0  0
  129.6600  126.2680   67.2750 C   0  0  0  0  0  0  0  0  0  0  0  0
  129.3600  127.4370   66.4620 C   0  0  0  0  0  0  0  0  0  0  0  0
  128.1480  127.9410   66.1330 C   0  0  0  0  0  0  0  0  0  0  0  0
  126.5470  127.3170   66.5880 S   0  0  0  0  0  0  0  0  0  0  0  0
  125.7970  128.6480   65.7190 C   0  0  0  0  0  0  0  0  0  0  0  0
  124.5320  128.9080   65.5990 N   0  0  0  0  0  0  0  0  0  0  0  0
  124.0550  130.0330   64.8720 C   0  0  0  0  0  0  0  0  0  0  0  0
  122.8770  130.3590   64.7300 O   0  0  0  0  0  0  0  0  0  0  0  0
  125.1450  130.8630   64.2520 C   0  0  0  0  0  0  0  0  0  0  0  0
  124.7490  132.0940   63.4260 C   0  0  0  0  0  0  0  0  0  0  0  0
  125.7280  132.4400   62.3050 C   0  0  0  0  0  0  0  0  0  0  0  0
  126.8450  133.2360   62.5730 C   0  0  0  0  0  0  0  0  0  0  0  0
  127.7450  133.5380   61.5550 C   0  0  0  0  0  0  0  0  0  0  0  0
  127.5330  133.0430   60.2670 C   0  0  0  0  0  0  0  0  0  0  0  0
  128.5240  133.3650   59.1630 C   0  0  0  0  0  0  0  0  0  0  0  0
  126.4230  132.2380   60.0000 C   0  0  0  0  0  0  0  0  0  0  0  0
  125.5230  131.9370   61.0170 C   0  0  0  0  0  0  0  0  0  0  0  0
  126.4030  130.5890   64.3750 N   0  0  0  0  0  0  0  0  0  0  0  0
  126.7340  129.4560   65.1290 N   0  0  0  0  0  0  0  0  0  0  0  0
  128.0390  129.1330   65.3040 C   0  0  0  0  0  0  0  0  0  0  0  0
  128.9910  129.7670   64.8330 O   0  0  0  0  0  0  0  0  0  0  0  0
  132.2310  125.2260   65.2170 C   0  0  0  0  0  0  0  0  0  0  0  0
  132.7830  124.8950   63.9790 C   0  0  0  0  0  0  0  0  0  0  0  0
  134.0090  125.3690   63.6550 F   0  0  0  0  0  0  0  0  0  0  0  0
  131.9752  125.5522   61.0423 H   0  0  0  0  0  0  0  0  0  0  0  0
  133.2849  124.7363   60.1227 H   0  0  0  0  0  0  0  0  0  0  0  0
  131.6252  124.0493   60.1227 H   0  0  0  0  0  0  0  0  0  0  0  0
  130.2451  122.9797   62.7495 H   0  0  0  0  0  0  0  0  0  0  0  0
  129.2623  123.5740   64.9517 H   0  0  0  0  0  0  0  0  0  0  0  0
  130.0016  122.1955   69.4545 H   0  0  0  0  0  0  0  0  0  0  0  0
  129.9486  121.1159   71.7010 H   0  0  0  0  0  0  0  0  0  0  0  0
  129.7669  122.5210   73.7484 H   0  0  0  0  0  0  0  0  0  0  0  0
  129.6367  125.0000   73.5692 H   0  0  0  0  0  0  0  0  0  0  0  0
  129.6864  126.0885   71.3281 H   0  0  0  0  0  0  0  0  0  0  0  0
  128.8344  126.7562   69.2773 H   0  0  0  0  0  0  0  0  0  0  0  0
  130.2296  127.9805   66.0640 H   0  0  0  0  0  0  0  0  0  0  0  0
  123.7632  131.9046   62.9763 H   0  0  0  0  0  0  0  0  0  0  0  0
  124.7461  132.9497   64.1172 H   0  0  0  0  0  0  0  0  0  0  0  0
  127.0130  133.6239   63.5885 H   0  0  0  0  0  0  0  0  0  0  0  0
  128.6230  134.1665   61.7653 H   0  0  0  0  0  0  0  0  0  0  0  0
  129.4806  133.6758   59.6082 H   0  0  0  0  0  0  0  0  0  0  0  0
  128.6823  132.4721   58.5404 H   0  0  0  0  0  0  0  0  0  0  0  0
  128.1272  134.1804   58.5404 H   0  0  0  0  0  0  0  0  0  0  0  0
  126.2608  131.8425   58.9865 H   0  0  0  0  0  0  0  0  0  0  0  0
  124.6492  131.3026   60.8075 H   0  0  0  0  0  0  0  0  0  0  0  0
  132.7957  125.8655   65.9114 H   0  0  0  0  0  0  0  0  0  0  0  0
  1  2  1  0
  2  3  1  0
  3  4  2  0
  4  5  1  0
  5  6  2  0
  6  7  1  0
  7  8  2  0
  8  9  1  0
  9 10  1  0
 10 11  2  0
 11 12  1  0
 12 13  2  0
 13 14  1  0
 14 15  2  0
  9 16  1  0
 16 17  2  0
 17 18  1  0
 18 19  2  0
 19 20  1  0
 20 21  1  0
 21 22  2  0
 22 23  1  0
 23 24  2  0
 23 25  1  0
 25 26  1  0
 26 27  1  0
 27 28  2  0
 28 29  1  0
 29 30  2  0
 30 31  1  0
 30 32  1  0
 32 33  2  0
 25 34  2  0
 34 35  1  0
 35 36  1  0
 36 37  2  0
  6 38  1  0
 38 39  2  0
 39 40  1  0
 39  3  1  0
 17  7  1  0
 36 19  1  0
 15 10  1  0
 35 21  1  0
 33 27  1  0
  1 41  1  0
  1 42  1  0
  1 43  1  0
  4 44  1  0
  5 45  1  0
 11 46  1  0
 12 47  1  0
 13 48  1  0
 14 49  1  0
 15 50  1  0
 16 51  1  0
 18 52  1  0
 26 53  1  0
 26 54  1  0
 28 55  1  0
 29 56  1  0
 31 57  1  0
 31 58  1  0
 31 59  1  0
 32 60  1  0
 33 61  1  0
 38 62  1  0
M  END
>  <Binding energies>  (1) 
[-9.08]

>  <Ligand effiencies>  (1) 
[-0.227]

>  <Interactions>  (1) 
["H-A:TYR:484:OH:4343, V-A:ARG:545:CZ:4921, V-A:PRO:540:CA:4878, V-A:ASP:366:CG:3208, V-A:GLU:543:CD:4903, V-B:GLU:543:CG:9875, V-A:HIS:456:CE1:4064, V-B:HIS:456:CE1:9037, V-B:GLU:543:CD:9876, V-B:GLU:543:CB:9874, V-A:TYR:484:CE1:4340, V-A:TYR:484:CZ:4342, V-B:ARG:545:CZ:9894, H-B:TYR:484:OH:9315, V-A:TYR:539:CZ:4872, V-B:ARG:545:CG:9890, V-A:TYR:539:CE2:4871, H-B:GLY:454:N:9017, V-A:PRO:540:N:4879, V-A:HIS:456:CD2:4063, V-A:GLY:453:CA:4039, V-B:GLU:543:C:9870, V-B:GLU:543:CA:9872, V-A:TYR:484:CD1:4338, V-A:TYR:484:CD2:4339, V-A:TYR:484:CB:4336, H-A:HIS:456:NE2:4065, V-B:LYS:547:CE:9918, V-A:TYR:484:CG:4337, H-B:ARG:545:NH2:9896, H-B:ARG:545:NE:9892, V-B:LEU:475:CD2:9226, V-A:TYR:539:CD2:4869, H-B:ARG:545:NH1:9895, V-A:TYR:539:CG:4867, V-A:TYR:539:C:4862"]

$$$$
RR22_Rahimova_2017
     RDKit          3D

 49 54  0  0  0  0  0  0  0  0999 V2000
  134.8230  125.2030   64.9030 O   0  0  0  0  0  0  0  0  0  0  0  0
  133.6310  125.1490   64.6090 C   0  0  0  0  0  0  0  0  0  0  0  0
  132.6030  125.9340   65.1030 N   0  0  0  0  0  0  0  0  0  0  0  0
  131.2690  125.7830   64.6090 C   0  0  1  0  0  0  0  0  0  0  0  0
  130.4670  125.5270   65.7650 O   0  0  0  0  0  0  0  0  0  0  0  0
  129.4290  126.4120   66.0610 C   0  0  0  0  0  0  0  0  0  0  0  0
  128.9160  126.3580   67.3570 C   0  0  0  0  0  0  0  0  0  0  0  0
  127.8500  127.1840   67.7160 C   0  0  0  0  0  0  0  0  0  0  0  0
  127.2950  128.0540   66.7780 C   0  0  0  0  0  0  0  0  0  0  0  0
  127.8080  128.1080   65.4800 C   0  0  0  0  0  0  0  0  0  0  0  0
  128.8920  127.3040   65.1140 C   0  0  0  0  0  0  0  0  0  0  0  0
  129.4910  127.2560   63.7260 C   0  0  1  0  0  0  0  0  0  0  0  0
  129.5270  128.4650   62.8130 C   0  0  0  0  0  0  0  0  0  0  0  0
  130.8000  128.1550   62.0190 C   0  0  0  0  0  0  0  0  0  0  0  0
  131.1120  128.8000   60.7280 C   0  0  0  0  0  0  0  0  0  0  0  0
  130.3720  128.4880   59.5780 C   0  0  0  0  0  0  0  0  0  0  0  0
  130.6690  129.1000   58.3630 C   0  0  0  0  0  0  0  0  0  0  0  0
  131.7070  130.0250   58.2900 C   0  0  0  0  0  0  0  0  0  0  0  0
  132.4510  130.3450   59.4230 C   0  0  0  0  0  0  0  0  0  0  0  0
  132.1540  129.7360   60.6390 C   0  0  0  0  0  0  0  0  0  0  0  0
  131.5330  127.3050   62.6350 N   0  0  0  0  0  0  0  0  0  0  0  0
  130.8920  126.9800   63.8420 N   0  0  0  0  0  0  0  0  0  0  0  0
  131.2570  124.5150   63.7680 C   0  0  0  0  0  0  0  0  0  0  0  0
  130.1180  123.8690   63.4240 C   0  0  0  0  0  0  0  0  0  0  0  0
  129.9630  122.6520   62.6040 C   0  0  0  0  0  0  0  0  0  0  0  0
  130.8630  121.5770   62.6480 C   0  0  0  0  0  0  0  0  0  0  0  0
  130.6520  120.4570   61.8420 C   0  0  0  0  0  0  0  0  0  0  0  0
  129.5400  120.4430   61.0010 C   0  0  0  0  0  0  0  0  0  0  0  0
  128.6580  121.4710   60.9300 N   0  0  0  0  0  0  0  0  0  0  0  0
  128.8800  122.5510   61.7230 C   0  0  0  0  0  0  0  0  0  0  0  0
  132.9080  123.9830   63.4160 S   0  0  0  0  0  0  0  0  0  0  0  0
  132.7690  126.5930   65.8480 H   0  0  0  0  0  0  0  0  0  0  0  0
  129.3504  125.6664   68.0939 H   0  0  0  0  0  0  0  0  0  0  0  0
  127.4474  127.1488   68.7391 H   0  0  0  0  0  0  0  0  0  0  0  0
  126.4507  128.6997   67.0612 H   0  0  0  0  0  0  0  0  0  0  0  0
  127.3567  128.7869   64.7414 H   0  0  0  0  0  0  0  0  0  0  0  0
  128.7999  126.5293   63.2739 H   0  0  0  0  0  0  0  0  0  0  0  0
  128.6410  128.5131   62.1629 H   0  0  0  0  0  0  0  0  0  0  0  0
  129.5253  129.4370   63.3281 H   0  0  0  0  0  0  0  0  0  0  0  0
  129.5529  127.7561   59.6362 H   0  0  0  0  0  0  0  0  0  0  0  0
  130.0854  128.8534   57.4638 H   0  0  0  0  0  0  0  0  0  0  0  0
  131.9414  130.5071   57.3295 H   0  0  0  0  0  0  0  0  0  0  0  0
  133.2702  131.0762   59.3572 H   0  0  0  0  0  0  0  0  0  0  0  0
  132.7393  129.9898   61.5351 H   0  0  0  0  0  0  0  0  0  0  0  0
  129.1852  124.3094   63.8061 H   0  0  0  0  0  0  0  0  0  0  0  0
  131.7349  121.6166   63.3175 H   0  0  0  0  0  0  0  0  0  0  0  0
  131.3471  119.6049   61.8697 H   0  0  0  0  0  0  0  0  0  0  0  0
  129.3706  119.5598   60.3675 H   0  0  0  0  0  0  0  0  0  0  0  0
  128.1713  123.3906   61.6701 H   0  0  0  0  0  0  0  0  0  0  0  0
  1  2  2  0
  2  3  1  0
  3  4  1  0
  4  5  1  1
  5  6  1  0
  6  7  2  0
  7  8  1  0
  8  9  2  0
  9 10  1  0
 10 11  2  0
 11 12  1  0
 12 13  1  0
 13 14  1  0
 14 15  1  0
 15 16  2  0
 16 17  1  0
 17 18  2  0
 18 19  1  0
 19 20  2  0
 14 21  2  0
 21 22  1  0
  4 23  1  0
 23 24  2  0
 24 25  1  0
 25 26  2  0
 26 27  1  0
 27 28  2  0
 28 29  1  0
 29 30  2  0
 23 31  1  0
 31  2  1  0
 22  4  1  0
 30 25  1  0
 11  6  1  0
 22 12  1  0
 20 15  1  0
  3 32  1  0
  7 33  1  0
  8 34  1  0
  9 35  1  0
 10 36  1  0
 12 37  1  6
 13 38  1  0
 13 39  1  0
 16 40  1  0
 17 41  1  0
 18 42  1  0
 19 43  1  0
 20 44  1  0
 24 45  1  0
 26 46  1  0
 27 47  1  0
 28 48  1  0
 30 49  1  0
M  END
>  <Binding energies>  (1) 
[-8.47]

>  <Ligand effiencies>  (1) 
[-0.2646875]

>  <Interactions>  (1) 
["H-A:TYR:484:OH:4343, V-A:ARG:545:CZ:4921, H-A:GLY:454:N:4045, V-A:GLU:543:CD:4903, V-A:PRO:540:CB:4880, V-B:GLU:543:CG:9875, V-B:HIS:456:CE1:9037, H-A:GLU:543:OE1:4904, V-B:GLU:543:CD:9876, V-B:GLU:543:CB:9874, V-A:LEU:475:CD2:4254, V-B:ALA:541:CB:9860, H-A:ARG:545:NE:4919, V-B:PRO:540:C:9849, V-B:ALA:541:CA:9858, H-A:ARG:545:NH1:4922, H-A:ARG:545:NH2:4923, H-B:ALA:541:N:9859"]

$$$$
RR23_Rahimova_2017
     RDKit          3D

 65 70  0  0  0  0  0  0  0  0999 V2000
  124.4970  134.8800   60.8190 C   0  0  0  0  0  0  0  0  0  0  0  0
  125.7950  134.1150   61.0020 C   0  0  0  0  0  0  0  0  0  0  0  0
  126.9890  134.8060   61.2090 C   0  0  0  0  0  0  0  0  0  0  0  0
  128.1780  134.1020   61.3860 C   0  0  0  0  0  0  0  0  0  0  0  0
  128.1830  132.7030   61.3450 C   0  0  0  0  0  0  0  0  0  0  0  0
  129.4820  131.9580   61.5600 C   0  0  0  0  0  0  0  0  0  0  0  0
  130.5200  132.6210   61.6050 O   0  0  0  0  0  0  0  0  0  0  0  0
  129.4580  130.6000   61.7100 N   0  0  0  0  0  0  0  0  0  0  0  0
  130.1520  129.7090   60.7670 C   0  0  0  0  0  0  0  0  0  0  0  0
  130.0270  128.3040   61.3340 C   0  0  0  0  0  0  0  0  0  0  0  0
  129.5970  128.5530   62.7480 C   0  0  0  0  0  0  0  0  0  0  0  0
  129.4070  127.6370   63.7830 C   0  0  0  0  0  0  0  0  0  0  0  0
  128.8440  128.0490   65.0010 C   0  0  0  0  0  0  0  0  0  0  0  0
  128.6180  127.0730   66.1660 C   0  0  2  0  0  0  0  0  0  0  0  0
  128.6980  127.7310   67.4520 N   0  0  0  0  0  0  0  0  0  0  0  0
  129.1580  126.9580   68.3520 C   0  0  0  0  0  0  0  0  0  0  0  0
  129.3940  127.2420   69.6610 N   0  0  0  0  0  0  0  0  0  0  0  0
  129.3300  128.4420   70.2870 C   0  0  0  0  0  0  0  0  0  0  0  0
  128.9970  129.5070   69.7620 O   0  0  0  0  0  0  0  0  0  0  0  0
  129.7190  128.4350   71.7750 C   0  0  0  0  0  0  0  0  0  0  0  0
  129.7750  127.0360   72.2540 N   0  0  0  0  0  0  0  0  0  0  0  0
  128.7040  126.2340   71.8800 N   0  0  0  0  0  0  0  0  0  0  0  0
  128.6330  124.9910   72.2360 N   0  0  0  0  0  0  0  0  0  0  0  0
  129.6510  124.4320   73.0130 C   0  0  0  0  0  0  0  0  0  0  0  0
  129.5430  123.0890   73.3810 C   0  0  0  0  0  0  0  0  0  0  0  0
  130.5430  122.5020   74.1580 C   0  0  0  0  0  0  0  0  0  0  0  0
  131.6480  123.2540   74.5650 C   0  0  0  0  0  0  0  0  0  0  0  0
  131.7570  124.5960   74.1980 C   0  0  0  0  0  0  0  0  0  0  0  0
  130.7550  125.1840   73.4180 C   0  0  0  0  0  0  0  0  0  0  0  0
  130.8520  126.6370   73.0140 C   0  0  0  0  0  0  0  0  0  0  0  0
  131.7850  127.3780   73.3380 O   0  0  0  0  0  0  0  0  0  0  0  0
  129.5680  125.2910   67.8560 S   0  0  0  0  0  0  0  0  0  0  0  0
  129.5290  125.8240   66.1360 C   0  0  2  0  0  0  0  0  0  0  0  0
  130.9760  126.0340   65.6420 C   0  0  0  0  0  0  0  0  0  0  0  0
  128.4310  129.3790   65.1380 C   0  0  0  0  0  0  0  0  0  0  0  0
  128.6010  130.2910   64.0960 C   0  0  0  0  0  0  0  0  0  0  0  0
  129.2380  129.8920   62.9130 C   0  0  0  0  0  0  0  0  0  0  0  0
  126.9760  132.0160   61.1650 C   0  0  0  0  0  0  0  0  0  0  0  0
  125.7880  132.7190   60.9890 C   0  0  0  0  0  0  0  0  0  0  0  0
  124.0757  135.1283   61.8043 H   0  0  0  0  0  0  0  0  0  0  0  0
  124.6933  135.8068   60.2600 H   0  0  0  0  0  0  0  0  0  0  0  0
  123.7813  134.2593   60.2600 H   0  0  0  0  0  0  0  0  0  0  0  0
  126.9917  135.9057   61.2324 H   0  0  0  0  0  0  0  0  0  0  0  0
  129.1171  134.6481   61.5588 H   0  0  0  0  0  0  0  0  0  0  0  0
  129.6796  129.7625   59.7750 H   0  0  0  0  0  0  0  0  0  0  0  0
  131.2064  129.9985   60.6468 H   0  0  0  0  0  0  0  0  0  0  0  0
  129.2710  127.7218   60.7867 H   0  0  0  0  0  0  0  0  0  0  0  0
  130.9559  127.7197   61.2580 H   0  0  0  0  0  0  0  0  0  0  0  0
  129.7001  126.5859   63.6438 H   0  0  0  0  0  0  0  0  0  0  0  0
  127.5909  126.7068   66.0216 H   0  0  0  0  0  0  0  0  0  0  0  0
  129.7010  126.4690   70.2330 H   0  0  0  0  0  0  0  0  0  0  0  0
  130.7046  128.9070   71.9003 H   0  0  0  0  0  0  0  0  0  0  0  0
  128.9723  128.9961   72.3560 H   0  0  0  0  0  0  0  0  0  0  0  0
  128.6736  122.4965   73.0599 H   0  0  0  0  0  0  0  0  0  0  0  0
  130.4609  121.4448   74.4506 H   0  0  0  0  0  0  0  0  0  0  0  0
  132.4342  122.7870   75.1764 H   0  0  0  0  0  0  0  0  0  0  0  0
  132.6260  125.1885   74.5202 H   0  0  0  0  0  0  0  0  0  0  0  0
  129.1188  125.1058   65.4108 H   0  0  0  0  0  0  0  0  0  0  0  0
  131.6483  126.1316   66.5072 H   0  0  0  0  0  0  0  0  0  0  0  0
  131.2845  125.1712   65.0334 H   0  0  0  0  0  0  0  0  0  0  0  0
  131.0265  126.9489   65.0334 H   0  0  0  0  0  0  0  0  0  0  0  0
  127.9666  129.7095   66.0788 H   0  0  0  0  0  0  0  0  0  0  0  0
  128.2352  131.3229   64.2028 H   0  0  0  0  0  0  0  0  0  0  0  0
  126.9670  130.9160   61.1627 H   0  0  0  0  0  0  0  0  0  0  0  0
  124.8437  132.1749   60.8397 H   0  0  0  0  0  0  0  0  0  0  0  0
  1  2  1  0
  2  3  2  0
  3  4  1  0
  4  5  2  0
  5  6  1  0
  6  7  2  0
  6  8  1  0
  8  9  1  0
  9 10  1  0
 10 11  1  0
 11 12  2  0
 12 13  1  0
 13 14  1  0
 14 15  1  0
 15 16  2  0
 16 17  1  0
 17 18  1  0
 18 19  2  0
 18 20  1  0
 20 21  1  0
 21 22  1  0
 22 23  2  0
 23 24  1  0
 24 25  2  0
 25 26  1  0
 26 27  2  0
 27 28  1  0
 28 29  2  0
 29 30  1  0
 30 31  2  0
 16 32  1  0
 32 33  1  0
 33 34  1  0
 13 35  2  0
 35 36  1  0
 36 37  2  0
  5 38  1  0
 38 39  2  0
 39  2  1  0
 37  8  1  0
 37 11  1  0
 33 14  1  0
 30 21  1  0
 29 24  1  0
  1 40  1  0
  1 41  1  0
  1 42  1  0
  3 43  1  0
  4 44  1  0
  9 45  1  0
  9 46  1  0
 10 47  1  0
 10 48  1  0
 12 49  1  0
 14 50  1  6
 17 51  1  0
 20 52  1  0
 20 53  1  0
 25 54  1  0
 26 55  1  0
 27 56  1  0
 28 57  1  0
 33 58  1  6
 34 59  1  0
 34 60  1  0
 34 61  1  0
 35 62  1  0
 36 63  1  0
 38 64  1  0
 39 65  1  0
M  END
>  <Binding energies>  (1) 
[-9.61]

>  <Ligand effiencies>  (1) 
[-0.24025]

>  <Interactions>  (1) 
["V-A:PRO:540:CA:4878, V-A:GLU:543:CD:4903, V-A:GLU:543:CG:4902, V-B:GLU:543:CG:9875, V-A:HIS:456:CE1:4064, V-B:GLU:543:CD:9876, V-B:GLU:543:CB:9874, H-A:ALA:541:N:4886, V-A:ALA:541:CB:4887, V-A:TYR:539:CE2:4871, H-B:GLU:543:O:9871, H-A:HIS:456:ND1:4062, H-B:LYS:547:NZ:9919, H-A:LYS:547:NZ:4946, V-A:HIS:456:CG:4061, H-A:HIS:456:NE2:4065, V-B:LYS:547:CE:9918, V-A:LYS:547:CE:4945, V-B:ILE:369:CD1:8206, V-B:ILE:369:CG2:8204, V-B:LEU:475:CD2:9226, V-A:TYR:539:CD2:4869, V-A:ASP:473:CG:4235, V-B:TRP:381:CH2:8339, V-A:HIS:456:CB:4060"]

$$$$
RR24_Rahimova_2017
     RDKit          3D

 65 71  0  0  0  0  0  0  0  0999 V2000
  127.7470  134.8500   61.8300 C   0  0  0  0  0  0  0  0  0  0  0  0
  127.7090  133.3220   61.9690 C   0  0  2  0  0  0  0  0  0  0  0  0
  127.5520  132.8420   63.4420 C   0  0  0  0  0  0  0  0  0  0  0  0
  128.2160  133.3270   64.3640 O   0  0  0  0  0  0  0  0  0  0  0  0
  126.6400  131.8340   63.5690 O   0  0  0  0  0  0  0  0  0  0  0  0
  127.0280  130.6320   64.1160 C   0  0  0  0  0  0  0  0  0  0  0  0
  128.3570  130.4530   64.5040 C   0  0  0  0  0  0  0  0  0  0  0  0
  128.7590  129.2450   65.0670 C   0  0  0  0  0  0  0  0  0  0  0  0
  127.8320  128.2150   65.2530 C   0  0  0  0  0  0  0  0  0  0  0  0
  128.2850  126.8800   65.8560 C   0  0  1  0  0  0  0  0  0  0  0  0
  129.6750  126.4510   65.3320 C   0  0  0  0  0  0  0  0  0  0  0  0
  130.6820  126.0900   66.1490 C   0  0  0  0  0  0  0  0  0  0  0  0
  130.5470  126.0780   67.5160 N   0  0  0  0  0  0  0  0  0  0  0  0
  129.3660  126.4390   68.1210 C   0  0  0  0  0  0  0  0  0  0  0  0
  129.3950  126.3650   69.4760 N   0  0  0  0  0  0  0  0  0  0  0  0
  128.3460  126.7580   70.2490 C   0  0  0  0  0  0  0  0  0  0  0  0
  128.5290  126.9720   71.4490 O   0  0  0  0  0  0  0  0  0  0  0  0
  127.1910  127.0370   69.5350 N   0  0  0  0  0  0  0  0  0  0  0  0
  125.9960  127.3800   70.3320 C   0  0  0  0  0  0  0  0  0  0  0  0
  127.0520  127.1410   68.1610 C   0  0  0  0  0  0  0  0  0  0  0  0
  125.9990  127.4460   67.5930 O   0  0  0  0  0  0  0  0  0  0  0  0
  128.2740  126.8310   67.4130 C   0  0  0  0  0  0  0  0  0  0  0  0
  131.8670  125.7380   65.3860 C   0  0  0  0  0  0  0  0  0  0  0  0
  133.1450  125.3130   65.7530 C   0  0  0  0  0  0  0  0  0  0  0  0
  134.0880  125.0480   64.7570 C   0  0  0  0  0  0  0  0  0  0  0  0
  133.7520  125.2060   63.4090 C   0  0  0  0  0  0  0  0  0  0  0  0
  132.4710  125.6320   63.0470 C   0  0  0  0  0  0  0  0  0  0  0  0
  131.5330  125.8960   64.0470 C   0  0  0  0  0  0  0  0  0  0  0  0
  130.1290  126.3480   63.9490 C   0  0  0  0  0  0  0  0  0  0  0  0
  129.4500  126.5970   62.9550 O   0  0  0  0  0  0  0  0  0  0  0  0
  126.4970  128.4040   64.8810 C   0  0  0  0  0  0  0  0  0  0  0  0
  126.0950  129.6120   64.3190 C   0  0  0  0  0  0  0  0  0  0  0  0
  128.8590  132.6670   61.2770 N   0  0  0  0  0  0  0  0  0  0  0  0
  128.8610  132.4700   59.9280 C   0  0  0  0  0  0  0  0  0  0  0  0
  127.9750  132.7710   59.1270 O   0  0  0  0  0  0  0  0  0  0  0  0
  130.1590  131.8150   59.6280 C   0  0  0  0  0  0  0  0  0  0  0  0
  130.7040  131.3800   58.4190 C   0  0  0  0  0  0  0  0  0  0  0  0
  131.9720  130.7880   58.4310 C   0  0  0  0  0  0  0  0  0  0  0  0
  132.6710  130.6410   59.6350 C   0  0  0  0  0  0  0  0  0  0  0  0
  132.1080  131.0840   60.8370 C   0  0  0  0  0  0  0  0  0  0  0  0
  130.8420  131.6710   60.8050 C   0  0  0  0  0  0  0  0  0  0  0  0
  130.0000  132.2300   61.8920 C   0  0  0  0  0  0  0  0  0  0  0  0
  130.2750  132.2910   63.0910 O   0  0  0  0  0  0  0  0  0  0  0  0
  127.7584  135.3089   62.8296 H   0  0  0  0  0  0  0  0  0  0  0  0
  128.6528  135.1458   61.2804 H   0  0  0  0  0  0  0  0  0  0  0  0
  126.8570  135.1904   61.2804 H   0  0  0  0  0  0  0  0  0  0  0  0
  126.7947  132.9943   61.4525 H   0  0  0  0  0  0  0  0  0  0  0  0
  129.0855  131.2654   64.3650 H   0  0  0  0  0  0  0  0  0  0  0  0
  129.8077  129.1006   65.3660 H   0  0  0  0  0  0  0  0  0  0  0  0
  127.5237  126.1630   65.5148 H   0  0  0  0  0  0  0  0  0  0  0  0
  131.3290  125.7970   68.0920 H   0  0  0  0  0  0  0  0  0  0  0  0
  130.2180  126.0360   69.9590 H   0  0  0  0  0  0  0  0  0  0  0  0
  126.2373  127.3107   71.4030 H   0  0  0  0  0  0  0  0  0  0  0  0
  125.6781  128.4057   70.0933 H   0  0  0  0  0  0  0  0  0  0  0  0
  125.1825  126.6791   70.0933 H   0  0  0  0  0  0  0  0  0  0  0  0
  133.4065  125.1882   66.8142 H   0  0  0  0  0  0  0  0  0  0  0  0
  135.0987  124.7138   65.0343 H   0  0  0  0  0  0  0  0  0  0  0  0
  134.4991  124.9941   62.6300 H   0  0  0  0  0  0  0  0  0  0  0  0
  132.2050  125.7578   61.9871 H   0  0  0  0  0  0  0  0  0  0  0  0
  125.7645  127.5975   65.0327 H   0  0  0  0  0  0  0  0  0  0  0  0
  125.0432  129.7637   64.0348 H   0  0  0  0  0  0  0  0  0  0  0  0
  130.1488  131.4999   57.4770 H   0  0  0  0  0  0  0  0  0  0  0  0
  132.4213  130.4367   57.4904 H   0  0  0  0  0  0  0  0  0  0  0  0
  133.6675  130.1751   59.6361 H   0  0  0  0  0  0  0  0  0  0  0  0
  132.6515  130.9721   61.7868 H   0  0  0  0  0  0  0  0  0  0  0  0
  1  2  1  0
  2  3  1  0
  3  4  2  0
  3  5  1  0
  5  6  1  0
  6  7  2  0
  7  8  1  0
  8  9  2  0
  9 10  1  0
 10 11  1  0
 11 12  2  0
 12 13  1  0
 13 14  1  0
 14 15  1  0
 15 16  1  0
 16 17  2  0
 16 18  1  0
 18 19  1  0
 18 20  1  0
 20 21  2  0
 20 22  1  0
 12 23  1  0
 23 24  2  0
 24 25  1  0
 25 26  2  0
 26 27  1  0
 27 28  2  0
 28 29  1  0
 29 30  2  0
  9 31  1  0
 31 32  2  0
  2 33  1  0
 33 34  1  0
 34 35  2  0
 34 36  1  0
 36 37  2  0
 37 38  1  0
 38 39  2  0
 39 40  1  0
 40 41  2  0
 41 42  1  0
 42 43  2  0
 32  6  1  0
 42 33  1  0
 22 10  1  0
 28 23  1  0
 41 36  1  0
 29 11  1  0
 22 14  2  0
  1 44  1  0
  1 45  1  0
  1 46  1  0
  2 47  1  6
  7 48  1  0
  8 49  1  0
 10 50  1  6
 13 51  1  0
 15 52  1  0
 19 53  1  0
 19 54  1  0
 19 55  1  0
 24 56  1  0
 25 57  1  0
 26 58  1  0
 27 59  1  0
 31 60  1  0
 32 61  1  0
 37 62  1  0
 38 63  1  0
 39 64  1  0
 40 65  1  0
M  END
>  <Binding energies>  (1) 
[-10.32]

>  <Ligand effiencies>  (1) 
[-0.22933333333333333]

>  <Interactions>  (1) 
["V-A:ARG:545:CD:4918, V-A:ARG:545:CZ:4921, V-A:PRO:540:CA:4878, V-A:ASP:366:CG:3208, V-A:GLU:543:CD:4903, V-A:PRO:540:CB:4880, V-A:GLU:543:CG:4902, V-B:GLU:543:CG:9875, V-A:HIS:456:CE1:4064, V-B:HIS:456:CE1:9037, V-B:GLU:543:CD:9876, V-B:GLU:543:CB:9874, H-B:TYR:484:OH:9315, H-A:ALA:541:N:4886, V-A:ALA:541:CB:4887, V-A:GLY:453:C:4037, V-A:GLY:453:CA:4039, V-B:GLU:543:C:9870, H-B:GLU:543:O:9871, H-A:HIS:456:ND1:4062, H-B:LYS:547:NZ:9919, V-B:HIS:456:CD2:9035, V-B:GLY:544:CA:9882, V-B:HIS:456:CG:9033, V-B:LEU:475:CD2:9226, V-B:GLY:544:C:9880, V-B:ARG:545:CA:9887"]

$$$$
RR24_Rahimova_2017-again1
     RDKit          3D

 63 69  0  0  0  0  0  0  0  0999 V2000
  124.0980  130.3760   60.6020 C   0  0  0  0  0  0  0  0  0  0  0  0
  124.9480  130.7150   61.8340 C   0  0  2  0  0  0  0  0  0  0  0  0
  124.1840  130.5400   63.1780 C   0  0  0  0  0  0  0  0  0  0  0  0
  123.5220  131.4560   63.6800 O   0  0  0  0  0  0  0  0  0  0  0  0
  124.3560  129.3000   63.7240 O   0  0  0  0  0  0  0  0  0  0  0  0
  125.5750  128.9560   64.2600 C   0  0  0  0  0  0  0  0  0  0  0  0
  125.6500  128.5480   65.5930 C   0  0  0  0  0  0  0  0  0  0  0  0
  126.8770  128.1790   66.1380 C   0  0  0  0  0  0  0  0  0  0  0  0
  128.0330  128.2080   65.3520 C   0  0  0  0  0  0  0  0  0  0  0  0
  129.3880  127.8020   65.9480 C   0  0  1  0  0  0  0  0  0  0  0  0
  129.3780  127.9070   67.4910 C   0  0  0  0  0  0  0  0  0  0  0  0
  129.2340  128.9570   68.3300 C   0  0  0  0  0  0  0  0  0  0  0  0
  129.1030  130.1850   67.9600 O   0  0  0  0  0  0  0  0  0  0  0  0
  129.2210  128.4990   69.7190 C   0  0  0  0  0  0  0  0  0  0  0  0
  129.0870  129.1780   70.9370 C   0  0  0  0  0  0  0  0  0  0  0  0
  129.1050  128.4590   72.1320 C   0  0  0  0  0  0  0  0  0  0  0  0
  129.2570  127.0710   72.1120 C   0  0  0  0  0  0  0  0  0  0  0  0
  129.3910  126.3980   70.8960 C   0  0  0  0  0  0  0  0  0  0  0  0
  129.3700  127.1200   69.7000 C   0  0  0  0  0  0  0  0  0  0  0  0
  129.5000  126.7140   68.3120 C   0  0  0  0  0  0  0  0  0  0  0  0
  129.7000  125.5530   67.8100 N   0  0  0  0  0  0  0  0  0  0  0  0
  129.9200  125.3790   66.4760 C   0  0  0  0  0  0  0  0  0  0  0  0
  130.2730  124.1000   66.1550 N   0  0  0  0  0  0  0  0  0  0  0  0
  130.4920  123.7970   64.9240 C   0  0  0  0  0  0  0  0  0  0  0  0
  130.8000  122.6060   64.7490 O   0  0  0  0  0  0  0  0  0  0  0  0
  130.3910  124.7330   63.8960 N   0  0  0  0  0  0  0  0  0  0  0  0
  130.6360  124.4150   62.4690 C   0  0  0  0  0  0  0  0  0  0  0  0
  130.0570  126.0530   64.1300 C   0  0  0  0  0  0  0  0  0  0  0  0
  129.9810  126.9190   63.2520 O   0  0  0  0  0  0  0  0  0  0  0  0
  129.8000  126.3690   65.5380 C   0  0  0  0  0  0  0  0  0  0  0  0
  127.9520  128.6050   64.0140 C   0  0  0  0  0  0  0  0  0  0  0  0
  126.7260  128.9720   63.4670 C   0  0  0  0  0  0  0  0  0  0  0  0
  125.5920  132.0570   61.7180 N   0  0  0  0  0  0  0  0  0  0  0  0
  126.8400  132.2940   62.2100 C   0  0  0  0  0  0  0  0  0  0  0  0
  127.5810  131.4970   62.7890 O   0  0  0  0  0  0  0  0  0  0  0  0
  127.1220  133.7180   61.9010 C   0  0  0  0  0  0  0  0  0  0  0  0
  128.2410  134.5080   62.1710 C   0  0  0  0  0  0  0  0  0  0  0  0
  128.2320  135.8440   61.7570 C   0  0  0  0  0  0  0  0  0  0  0  0
  127.1200  136.3690   61.0850 C   0  0  0  0  0  0  0  0  0  0  0  0
  126.0080  135.5610   60.8230 C   0  0  0  0  0  0  0  0  0  0  0  0
  126.0360  134.2310   61.2460 C   0  0  0  0  0  0  0  0  0  0  0  0
  125.0290  133.1480   61.1150 C   0  0  0  0  0  0  0  0  0  0  0  0
  123.9240  133.2180   60.5760 O   0  0  0  0  0  0  0  0  0  0  0  0
  123.1216  129.9866   60.9261 H   0  0  0  0  0  0  0  0  0  0  0  0
  123.9489  131.2835   59.9984 H   0  0  0  0  0  0  0  0  0  0  0  0
  124.6143  129.6150   59.9984 H   0  0  0  0  0  0  0  0  0  0  0  0
  125.7567  129.9697   61.8559 H   0  0  0  0  0  0  0  0  0  0  0  0
  124.7411  128.5181   66.2118 H   0  0  0  0  0  0  0  0  0  0  0  0
  126.9371  127.8637   67.1901 H   0  0  0  0  0  0  0  0  0  0  0  0
  130.1269  128.5071   65.5396 H   0  0  0  0  0  0  0  0  0  0  0  0
  128.9683  130.2715   70.9508 H   0  0  0  0  0  0  0  0  0  0  0  0
  128.9993  128.9861   73.0917 H   0  0  0  0  0  0  0  0  0  0  0  0
  129.2712  126.5067   73.0561 H   0  0  0  0  0  0  0  0  0  0  0  0
  129.5125  125.3049   70.8797 H   0  0  0  0  0  0  0  0  0  0  0  0
  131.3059  123.5455   62.3969 H   0  0  0  0  0  0  0  0  0  0  0  0
  129.6805  124.1836   61.9756 H   0  0  0  0  0  0  0  0  0  0  0  0
  131.1034  125.2799   61.9756 H   0  0  0  0  0  0  0  0  0  0  0  0
  128.8592  128.6274   63.3922 H   0  0  0  0  0  0  0  0  0  0  0  0
  126.6628  129.2745   62.4113 H   0  0  0  0  0  0  0  0  0  0  0  0
  129.1109  134.0888   62.6979 H   0  0  0  0  0  0  0  0  0  0  0  0
  129.1021  136.4857   61.9599 H   0  0  0  0  0  0  0  0  0  0  0  0
  127.1213  137.4206   60.7622 H   0  0  0  0  0  0  0  0  0  0  0  0
  125.1313  135.9649   60.2955 H   0  0  0  0  0  0  0  0  0  0  0  0
  1  2  1  0
  2  3  1  0
  3  4  2  0
  3  5  1  0
  5  6  1  0
  6  7  2  0
  7  8  1  0
  8  9  2  0
  9 10  1  0
 10 11  1  0
 11 12  2  0
 12 13  1  0
 12 14  1  0
 14 15  2  0
 15 16  1  0
 16 17  2  0
 17 18  1  0
 18 19  2  0
 19 20  1  0
 20 21  2  0
 21 22  1  0
 22 23  1  0
 23 24  2  0
 24 25  1  0
 24 26  1  0
 26 27  1  0
 26 28  1  0
 28 29  2  0
 28 30  1  0
  9 31  1  0
 31 32  2  0
  2 33  1  0
 33 34  1  0
 34 35  2  0
 34 36  1  0
 36 37  2  0
 37 38  1  0
 38 39  2  0
 39 40  1  0
 40 41  2  0
 41 42  1  0
 42 43  2  0
 32  6  1  0
 42 33  1  0
 30 10  1  0
 41 36  1  0
 20 11  1  0
 30 22  2  0
 19 14  1  0
  1 44  1  0
  1 45  1  0
  1 46  1  0
  2 47  1  1
  7 48  1  0
  8 49  1  0
 10 50  1  6
 15 51  1  0
 16 52  1  0
 17 53  1  0
 18 54  1  0
 27 55  1  0
 27 56  1  0
 27 57  1  0
 31 58  1  0
 32 59  1  0
 37 60  1  0
 38 61  1  0
 39 62  1  0
 40 63  1  0
M  CHG  2  13  -1  25  -1
M  END
>  <Binding energies>  (1) 
[-9.08]

>  <Ligand effiencies>  (1) 
[-0.2111627906976744]

>  <Interactions>  (1) 
["H-A:TYR:484:OH:4343, V-A:GLU:543:CD:4903, V-A:GLU:543:CG:4902, V-A:GLU:543:CB:4901, V-B:GLU:543:CG:9875, V-A:HIS:456:CE1:4064, V-B:HIS:456:CE1:9037, V-B:GLU:543:CD:9876, V-B:GLU:543:CB:9874, V-A:TYR:484:CE1:4340, V-A:TYR:484:CZ:4342, V-B:ARG:545:CZ:9894, V-A:PRO:540:C:4876, V-B:ARG:545:CD:9891, V-A:ALA:541:CB:4887, V-A:ALA:541:CA:4885, V-B:ARG:545:CG:9890, V-A:TYR:539:CE2:4871, H-B:GLY:454:N:9017, V-B:HIS:456:CD2:9035, H-A:HIS:456:NE2:4065, V-B:ASP:366:CB:8179, H-B:ARG:545:NH2:9896, H-B:ARG:545:NE:9892, V-B:ASP:366:CG:8180, V-B:LEU:475:CD2:9226, V-A:TYR:539:CD2:4869, H-B:ARG:545:NH1:9895, V-A:TYR:539:C:4862, V-B:TRP:381:CH2:8339, V-B:TRP:381:CZ2:8337, V-B:LEU:475:CD1:9225, V-B:PRO:482:CG:9294, V-B:PRO:482:CB:9293, V-B:TRP:381:CZ3:8338"]

$$$$
RR25_Rahimova_2017
     RDKit          3D

 63 68  0  0  0  0  0  0  0  0999 V2000
  129.7670  123.1330   65.7870 O   0  0  0  0  0  0  0  0  0  0  0  0
  130.4950  123.4830   64.8570 C   0  0  0  0  0  0  0  0  0  0  0  0
  130.9140  122.4890   64.0070 O   0  0  0  0  0  0  0  0  0  0  0  0
  131.5200  122.7800   62.7990 C   0  0  0  0  0  0  0  0  0  0  0  0
  131.4080  121.8210   61.7940 C   0  0  0  0  0  0  0  0  0  0  0  0
  132.0020  122.0450   60.5530 C   0  0  0  0  0  0  0  0  0  0  0  0
  132.7170  123.2260   60.3020 C   0  0  0  0  0  0  0  0  0  0  0  0
  133.3420  123.4660   58.9780 N   0  0  0  0  0  0  0  0  0  0  0  0
  133.9190  122.5340   58.4220 O   0  0  0  0  0  0  0  0  0  0  0  0
  133.2600  124.5870   58.4850 O   0  0  0  0  0  0  0  0  0  0  0  0
  132.8280  124.1740   61.3320 C   0  0  0  0  0  0  0  0  0  0  0  0
  132.2450  123.9610   62.5840 C   0  0  0  0  0  0  0  0  0  0  0  0
  132.3280  124.9580   63.7250 C   0  0  0  0  0  0  0  0  0  0  0  0
  131.0110  124.9190   64.5510 C   0  0  2  0  0  0  0  0  0  0  0  0
  131.0970  125.8590   65.7880 C   0  0  0  0  0  0  0  0  0  0  0  0
  132.2100  125.9660   66.3120 O   0  0  0  0  0  0  0  0  0  0  0  0
  130.0390  126.6220   66.1980 N   0  0  0  0  0  0  0  0  0  0  0  0
  128.6410  126.3160   65.8280 C   0  0  0  0  0  0  0  0  0  0  0  0
  127.8820  127.6400   65.6000 C   0  0  0  0  0  0  0  0  0  0  0  0
  127.9810  128.5210   66.7680 N   0  0  0  0  0  0  0  0  0  0  0  0
  127.1510  129.7230   66.6070 C   0  0  0  0  0  0  0  0  0  0  0  0
  126.1410  129.6050   65.4350 C   0  0  0  0  0  0  0  0  0  0  0  0
  126.2510  130.6420   64.3680 N   0  0  0  0  0  0  0  0  0  0  0  0
  125.0560  131.1990   63.9620 C   0  0  0  0  0  0  0  0  0  0  0  0
  123.9590  130.8500   64.4140 O   0  0  0  0  0  0  0  0  0  0  0  0
  125.1910  132.2970   62.9250 C   0  0  0  0  0  0  0  0  0  0  0  0
  124.0420  132.9500   62.4610 C   0  0  0  0  0  0  0  0  0  0  0  0
  124.1300  133.9690   61.5150 C   0  0  0  0  0  0  0  0  0  0  0  0
  125.3640  134.3700   61.0050 C   0  0  0  0  0  0  0  0  0  0  0  0
  126.5520  133.7380   61.4440 C   0  0  0  0  0  0  0  0  0  0  0  0
  127.8370  134.0950   60.9700 C   0  0  0  0  0  0  0  0  0  0  0  0
  128.9670  133.4350   61.4470 C   0  0  0  0  0  0  0  0  0  0  0  0
  128.8560  132.4170   62.3910 C   0  0  0  0  0  0  0  0  0  0  0  0
  127.6050  132.0290   62.8890 C   0  0  0  0  0  0  0  0  0  0  0  0
  126.4500  132.6980   62.4090 C   0  0  0  0  0  0  0  0  0  0  0  0
  127.5270  130.9220   63.9230 C   0  0  0  0  0  0  0  0  0  0  0  0
  128.5340  130.3400   64.3380 O   0  0  0  0  0  0  0  0  0  0  0  0
  129.3830  128.8620   67.0150 C   0  0  0  0  0  0  0  0  0  0  0  0
  130.2380  127.6010   67.2910 C   0  0  0  0  0  0  0  0  0  0  0  0
  130.8524  120.8899   61.9795 H   0  0  0  0  0  0  0  0  0  0  0  0
  131.9092  121.2871   59.7612 H   0  0  0  0  0  0  0  0  0  0  0  0
  133.3859  125.1043   61.1494 H   0  0  0  0  0  0  0  0  0  0  0  0
  133.1759  124.6990   64.3761 H   0  0  0  0  0  0  0  0  0  0  0  0
  132.4721  125.9689   63.3160 H   0  0  0  0  0  0  0  0  0  0  0  0
  130.2163  125.3278   63.9097 H   0  0  0  0  0  0  0  0  0  0  0  0
  128.6260  125.7183   64.9047 H   0  0  0  0  0  0  0  0  0  0  0  0
  128.1589  125.7447   66.6349 H   0  0  0  0  0  0  0  0  0  0  0  0
  128.3117  128.1532   64.7271 H   0  0  0  0  0  0  0  0  0  0  0  0
  126.8204  127.4061   65.4316 H   0  0  0  0  0  0  0  0  0  0  0  0
  126.5902  129.8900   67.5385 H   0  0  0  0  0  0  0  0  0  0  0  0
  127.8248  130.5622   66.3797 H   0  0  0  0  0  0  0  0  0  0  0  0
  126.2857  128.6214   64.9642 H   0  0  0  0  0  0  0  0  0  0  0  0
  125.1475  129.7478   65.8851 H   0  0  0  0  0  0  0  0  0  0  0  0
  123.0562  132.6541   62.8490 H   0  0  0  0  0  0  0  0  0  0  0  0
  123.2123  134.4645   61.1653 H   0  0  0  0  0  0  0  0  0  0  0  0
  125.4144  135.1784   60.2607 H   0  0  0  0  0  0  0  0  0  0  0  0
  127.9435  134.8956   60.2232 H   0  0  0  0  0  0  0  0  0  0  0  0
  129.9609  133.7218   61.0729 H   0  0  0  0  0  0  0  0  0  0  0  0
  129.7636  131.9102   62.7509 H   0  0  0  0  0  0  0  0  0  0  0  0
  129.7852  129.3793   66.1315 H   0  0  0  0  0  0  0  0  0  0  0  0
  129.4276  129.5084   67.9039 H   0  0  0  0  0  0  0  0  0  0  0  0
  131.3002  127.8821   67.3428 H   0  0  0  0  0  0  0  0  0  0  0  0
  129.9311  127.1514   68.2469 H   0  0  0  0  0  0  0  0  0  0  0  0
  1  2  2  0
  2  3  1  0
  3  4  1  0
  4  5  2  0
  5  6  1  0
  6  7  2  0
  7  8  1  0
  8  9  2  0
  8 10  1  0
  7 11  1  0
 11 12  2  0
 12 13  1  0
 13 14  1  0
 14 15  1  0
 15 16  2  0
 15 17  1  0
 17 18  1  0
 18 19  1  0
 19 20  1  0
 20 21  1  0
 21 22  1  0
 22 23  1  0
 23 24  1  0
 24 25  2  0
 24 26  1  0
 26 27  2  0
 27 28  1  0
 28 29  2  0
 29 30  1  0
 30 31  2  0
 31 32  1  0
 32 33  2  0
 33 34  1  0
 34 35  2  0
 34 36  1  0
 36 37  2  0
 20 38  1  0
 38 39  1  0
 14  2  1  0
 39 17  1  0
 12  4  1  0
 36 23  1  0
 35 26  1  0
 35 30  1  0
  5 40  1  0
  6 41  1  0
 11 42  1  0
 13 43  1  0
 13 44  1  0
 14 45  1  6
 18 46  1  0
 18 47  1  0
 19 48  1  0
 19 49  1  0
 21 50  1  0
 21 51  1  0
 22 52  1  0
 22 53  1  0
 27 54  1  0
 28 55  1  0
 29 56  1  0
 31 57  1  0
 32 58  1  0
 33 59  1  0
 38 60  1  0
 38 61  1  0
 39 62  1  0
 39 63  1  0
M  CHG  2   8   1  10  -1
M  END
>  <Binding energies>  (1) 
[-9.72]

>  <Ligand effiencies>  (1) 
[-0.24923076923076926]

>  <Interactions>  (1) 
["H-A:TYR:484:OH:4343, V-A:PRO:540:CA:4878, V-A:ASP:366:CG:3208, V-A:GLU:543:CD:4903, V-A:GLU:543:CG:4902, V-A:GLU:543:CB:4901, V-B:GLU:543:CG:9875, V-A:HIS:456:CE1:4064, V-B:HIS:456:CE1:9037, V-B:GLU:543:CD:9876, V-B:GLU:543:CB:9874, V-A:LEU:475:CD2:4254, V-A:TYR:484:CE1:4340, V-A:TYR:484:CZ:4342, H-B:TYR:484:OH:9315, V-A:PRO:540:C:4876, V-A:ASP:366:CB:3207, V-A:ALA:541:CB:4887, V-A:TYR:539:CE2:4871, H-B:GLY:454:N:9017, V-A:ILE:369:CD1:3234, H-A:TYR:531:OH:4790, H-A:HIS:456:NE2:4065, V-B:ILE:369:CD1:8206, V-B:ILE:369:CG2:8204, V-B:LEU:475:CD2:9226, V-A:TYR:539:CD2:4869, V-B:TYR:484:CZ:9314, V-B:TRP:381:CH2:8339, V-B:GLY:454:CA:9016"]

$$$$
RR26_Rahimova_2017
     RDKit          3D

 59 65  0  0  0  0  0  0  0  0999 V2000
  125.0960  132.3220   61.5850 C   0  0  0  0  0  0  0  0  0  0  0  0
  126.1250  133.4440   61.6370 C   0  0  0  0  0  0  0  0  0  0  0  0
  125.8160  134.6550   61.0080 C   0  0  0  0  0  0  0  0  0  0  0  0
  126.7020  135.7290   61.0580 C   0  0  0  0  0  0  0  0  0  0  0  0
  127.9050  135.6040   61.7450 C   0  0  0  0  0  0  0  0  0  0  0  0
  128.2240  134.4040   62.3770 C   0  0  0  0  0  0  0  0  0  0  0  0
  127.3480  133.3080   62.3300 C   0  0  0  0  0  0  0  0  0  0  0  0
  127.7750  132.0470   63.0240 C   0  0  0  0  0  0  0  0  0  0  0  0
  128.1030  130.9440   62.3560 N   0  0  0  0  0  0  0  0  0  0  0  0
  128.4120  130.1240   63.3240 C   0  0  0  0  0  0  0  0  0  0  0  0
  128.9410  128.4860   63.4360 S   0  0  0  0  0  0  0  0  0  0  0  0
  128.9830  128.6470   65.2320 C   0  0  0  0  0  0  0  0  0  0  0  0
  129.3240  127.7050   66.1400 C   0  0  0  0  0  0  0  0  0  0  0  0
  129.7460  126.3360   65.8950 C   0  0  0  0  0  0  0  0  0  0  0  0
  130.0990  125.7510   64.6880 C   0  0  0  0  0  0  0  0  0  0  0  0
  130.4690  124.4540   64.9400 N   0  0  0  0  0  0  0  0  0  0  0  0
  130.9120  123.4720   64.0160 C   0  0  0  0  0  0  0  0  0  0  0  0
  130.0280  122.5040   63.5180 C   0  0  0  0  0  0  0  0  0  0  0  0
  130.4760  121.5450   62.6140 C   0  0  0  0  0  0  0  0  0  0  0  0
  131.8070  121.5510   62.2040 C   0  0  0  0  0  0  0  0  0  0  0  0
  132.6950  122.5090   62.6890 C   0  0  0  0  0  0  0  0  0  0  0  0
  132.2500  123.4680   63.5940 C   0  0  0  0  0  0  0  0  0  0  0  0
  130.3940  124.1960   66.2550 N   0  0  0  0  0  0  0  0  0  0  0  0
  129.9620  125.3000   66.8320 C   0  0  0  0  0  0  0  0  0  0  0  0
  129.7610  125.3360   68.3150 C   0  0  0  0  0  0  0  0  0  0  0  0
  129.2790  126.4970   68.9380 C   0  0  0  0  0  0  0  0  0  0  0  0
  129.0910  126.5430   70.3210 C   0  0  0  0  0  0  0  0  0  0  0  0
  129.3860  125.4220   71.0940 C   0  0  0  0  0  0  0  0  0  0  0  0
  129.8510  124.2480   70.4810 C   0  0  0  0  0  0  0  0  0  0  0  0
  130.0440  124.2080   69.1010 C   0  0  0  0  0  0  0  0  0  0  0  0
  130.1980  123.1290   71.2110 O   0  0  0  0  0  0  0  0  0  0  0  0
  129.6460  123.0970   72.5310 C   0  0  0  0  0  0  0  0  0  0  0  0
  129.7970  124.4770   73.2170 C   0  0  0  0  0  0  0  0  0  0  0  0
  129.1410  125.4930   72.4500 O   0  0  0  0  0  0  0  0  0  0  0  0
  128.5750  129.9750   65.6800 C   0  0  0  0  0  0  0  0  0  0  0  0
  128.4880  130.4160   66.8270 O   0  0  0  0  0  0  0  0  0  0  0  0
  128.2810  130.7160   64.5250 N   0  0  0  0  0  0  0  0  0  0  0  0
  127.8700  131.9740   64.3420 N   0  0  0  0  0  0  0  0  0  0  0  0
  124.8244  132.0258   62.6090 H   0  0  0  0  0  0  0  0  0  0  0  0
  124.1984  132.6720   61.0542 H   0  0  0  0  0  0  0  0  0  0  0  0
  125.5222  131.4579   61.0542 H   0  0  0  0  0  0  0  0  0  0  0  0
  124.8633  134.7602   60.4682 H   0  0  0  0  0  0  0  0  0  0  0  0
  126.4506  136.6744   60.5550 H   0  0  0  0  0  0  0  0  0  0  0  0
  128.6041  136.4521   61.7893 H   0  0  0  0  0  0  0  0  0  0  0  0
  129.1760  134.3141   62.9207 H   0  0  0  0  0  0  0  0  0  0  0  0
  129.2761  128.0129   67.1949 H   0  0  0  0  0  0  0  0  0  0  0  0
  130.0848  126.2403   63.7029 H   0  0  0  0  0  0  0  0  0  0  0  0
  128.9771  122.5025   63.8428 H   0  0  0  0  0  0  0  0  0  0  0  0
  129.7817  120.7856   62.2251 H   0  0  0  0  0  0  0  0  0  0  0  0
  132.1606  120.7922   61.4905 H   0  0  0  0  0  0  0  0  0  0  0  0
  133.7439  122.5073   62.3578 H   0  0  0  0  0  0  0  0  0  0  0  0
  132.9491  124.2248   63.9794 H   0  0  0  0  0  0  0  0  0  0  0  0
  129.0461  127.3829   68.3289 H   0  0  0  0  0  0  0  0  0  0  0  0
  128.7121  127.4592   70.7975 H   0  0  0  0  0  0  0  0  0  0  0  0
  130.4193  123.2894   68.6264 H   0  0  0  0  0  0  0  0  0  0  0  0
  128.5787  122.8379   72.4706 H   0  0  0  0  0  0  0  0  0  0  0  0
  130.1866  122.3445   73.1239 H   0  0  0  0  0  0  0  0  0  0  0  0
  129.3475  124.4337   74.2200 H   0  0  0  0  0  0  0  0  0  0  0  0
  130.8668  124.7223   73.2911 H   0  0  0  0  0  0  0  0  0  0  0  0
  1  2  1  0
  2  3  2  0
  3  4  1  0
  4  5  2  0
  5  6  1  0
  6  7  2  0
  7  8  1  0
  8  9  1  0
  9 10  2  0
 10 11  1  0
 11 12  1  0
 12 13  2  0
 13 14  1  0
 14 15  2  0
 15 16  1  0
 16 17  1  0
 17 18  2  0
 18 19  1  0
 19 20  2  0
 20 21  1  0
 21 22  2  0
 16 23  1  0
 23 24  2  0
 24 25  1  0
 25 26  2  0
 26 27  1  0
 27 28  2  0
 28 29  1  0
 29 30  2  0
 29 31  1  0
 31 32  1  0
 32 33  1  0
 33 34  1  0
 12 35  1  0
 35 36  2  0
 35 37  1  0
 37 38  1  0
  7  2  1  0
 38  8  2  0
 37 10  1  0
 24 14  1  0
 30 25  1  0
 22 17  1  0
 34 28  1  0
  1 39  1  0
  1 40  1  0
  1 41  1  0
  3 42  1  0
  4 43  1  0
  5 44  1  0
  6 45  1  0
 13 46  1  0
 15 47  1  0
 18 48  1  0
 19 49  1  0
 20 50  1  0
 21 51  1  0
 22 52  1  0
 26 53  1  0
 27 54  1  0
 30 55  1  0
 32 56  1  0
 32 57  1  0
 33 58  1  0
 33 59  1  0
M  END
>  <Binding energies>  (1) 
[-9.19]

>  <Ligand effiencies>  (1) 
[-0.24184210526315789]

>  <Interactions>  (1) 
["H-A:TYR:484:OH:4343, V-A:GLU:543:CD:4903, V-A:GLU:543:CG:4902, V-A:GLU:543:CB:4901, V-B:GLU:543:CG:9875, V-A:HIS:456:CE1:4064, V-B:GLU:543:CD:9876, V-B:GLU:543:CB:9874, V-A:LEU:475:CD2:4254, V-A:TYR:484:CE1:4340, V-A:TYR:484:CZ:4342, V-B:ALA:541:CB:9860, H-B:TYR:484:OH:9315, V-A:ALA:541:CB:4887, V-A:ALA:541:CA:4885, V-A:TYR:539:CE2:4871, V-A:HIS:456:CD2:4063, V-B:GLU:543:C:9870, V-B:GLU:543:CA:9872, H-B:LYS:547:NZ:9919, V-B:LYS:547:CE:9918, V-B:LEU:475:CD2:9226, V-A:TYR:539:CD2:4869, V-B:TRP:381:CH2:8339, V-B:TRP:381:CZ2:8337, V-B:LEU:475:CD1:9225, V-B:PRO:482:CB:9293, V-B:TRP:381:CZ3:8338"]

$$$$
RR27_Rahimova_2017
     RDKit          3D

 66 71  0  0  0  0  0  0  0  0999 V2000
  130.3100  132.2720   61.2520 O   0  0  0  0  0  0  0  0  0  0  0  0
  129.4380  131.4140   61.0890 C   0  0  0  0  0  0  0  0  0  0  0  0
  128.0010  131.7150   61.6060 C   0  0  0  0  0  0  0  0  0  0  0  0
  127.6240  133.2060   61.5130 C   0  0  0  0  0  0  0  0  0  0  0  0
  126.3690  133.6250   61.0470 C   0  0  0  0  0  0  0  0  0  0  0  0
  126.0610  134.9800   60.9780 C   0  0  0  0  0  0  0  0  0  0  0  0
  127.0060  135.9230   61.3730 C   0  0  0  0  0  0  0  0  0  0  0  0
  128.2560  135.5230   61.8350 C   0  0  0  0  0  0  0  0  0  0  0  0
  128.5640  134.1670   61.9040 C   0  0  0  0  0  0  0  0  0  0  0  0
  127.7390  131.0640   62.9780 C   0  0  0  0  0  0  0  0  0  0  0  0
  128.7200  131.0300   63.9770 C   0  0  0  0  0  0  0  0  0  0  0  0
  128.4540  130.4230   65.2020 C   0  0  0  0  0  0  0  0  0  0  0  0
  127.2080  129.8440   65.4300 C   0  0  0  0  0  0  0  0  0  0  0  0
  126.2270  129.8620   64.4420 C   0  0  0  0  0  0  0  0  0  0  0  0
  126.4950  130.4670   63.2180 C   0  0  0  0  0  0  0  0  0  0  0  0
  129.6660  130.2940   60.3460 N   0  0  0  0  0  0  0  0  0  0  0  0
  128.7630  129.1330   60.3300 C   0  0  0  0  0  0  0  0  0  0  0  0
  129.1920  128.2170   61.4970 C   0  0  0  0  0  0  0  0  0  0  0  0
  130.7020  127.8230   61.4320 C   0  0  0  0  0  0  0  0  0  0  0  0
  131.2070  127.0020   62.6330 C   0  0  0  0  0  0  0  0  0  0  0  0
  132.4340  126.4180   62.4960 N   0  0  0  0  0  0  0  0  0  0  0  0
  132.9390  125.7030   63.5390 C   0  0  0  0  0  0  0  0  0  0  0  0
  134.1570  125.0760   63.5240 O   0  0  0  0  0  0  0  0  0  0  0  0
  132.1740  125.5940   64.7170 C   0  0  0  0  0  0  0  0  0  0  0  0
  132.3770  124.9760   65.9160 N   0  0  0  0  0  0  0  0  0  0  0  0
  131.2580  125.2120   66.6930 N   0  0  0  0  0  0  0  0  0  0  0  0
  130.3890  125.9670   65.9890 N   0  0  0  0  0  0  0  0  0  0  0  0
  129.1010  126.3470   66.5640 C   0  0  0  0  0  0  0  0  0  0  0  0
  129.2200  127.1630   67.8440 C   0  0  0  0  0  0  0  0  0  0  0  0
  130.3080  128.0220   68.0340 C   0  0  0  0  0  0  0  0  0  0  0  0
  130.4110  128.7780   69.2020 C   0  0  0  0  0  0  0  0  0  0  0  0
  129.4250  128.6840   70.1840 C   0  0  0  0  0  0  0  0  0  0  0  0
  128.3320  127.8370   69.9970 C   0  0  0  0  0  0  0  0  0  0  0  0
  127.0970  127.7390   71.2000 Cl  0  0  0  0  0  0  0  0  0  0  0  0
  128.2330  127.0750   68.8330 C   0  0  0  0  0  0  0  0  0  0  0  0
  130.9150  126.2310   64.7350 C   0  0  0  0  0  0  0  0  0  0  0  0
  130.3930  126.9310   63.7250 N   0  0  0  0  0  0  0  0  0  0  0  0
  131.6080  129.0460   61.0940 C   0  0  0  0  0  0  0  0  0  0  0  0
  131.0380  129.9320   59.9570 C   0  0  0  0  0  0  0  0  0  0  0  0
  127.2964  131.2274   60.9162 H   0  0  0  0  0  0  0  0  0  0  0  0
  125.6243  132.8782   60.7344 H   0  0  0  0  0  0  0  0  0  0  0  0
  125.0754  135.3047   60.6131 H   0  0  0  0  0  0  0  0  0  0  0  0
  126.7621  136.9943   61.3193 H   0  0  0  0  0  0  0  0  0  0  0  0
  128.9973  136.2745   62.1443 H   0  0  0  0  0  0  0  0  0  0  0  0
  129.5520  133.8487   62.2680 H   0  0  0  0  0  0  0  0  0  0  0  0
  129.7047  131.4846   63.7934 H   0  0  0  0  0  0  0  0  0  0  0  0
  129.2250  130.4010   65.9863 H   0  0  0  0  0  0  0  0  0  0  0  0
  126.9970  129.3683   66.3991 H   0  0  0  0  0  0  0  0  0  0  0  0
  125.2459  129.4006   64.6280 H   0  0  0  0  0  0  0  0  0  0  0  0
  125.7243  130.4765   62.4332 H   0  0  0  0  0  0  0  0  0  0  0  0
  127.7223  129.4609   60.4690 H   0  0  0  0  0  0  0  0  0  0  0  0
  128.8216  128.6010   59.3690 H   0  0  0  0  0  0  0  0  0  0  0  0
  129.0066  128.7443   62.4444 H   0  0  0  0  0  0  0  0  0  0  0  0
  128.6039  127.2902   61.4247 H   0  0  0  0  0  0  0  0  0  0  0  0
  130.7825  127.1210   60.5890 H   0  0  0  0  0  0  0  0  0  0  0  0
  134.7510  125.4360   62.8610 H   0  0  0  0  0  0  0  0  0  0  0  0
  128.5515  126.9439   65.8212 H   0  0  0  0  0  0  0  0  0  0  0  0
  128.5771  125.4153   66.8238 H   0  0  0  0  0  0  0  0  0  0  0  0
  131.0851  128.1015   67.2595 H   0  0  0  0  0  0  0  0  0  0  0  0
  131.2705  129.4487   69.3486 H   0  0  0  0  0  0  0  0  0  0  0  0
  129.5090  129.2778   71.1062 H   0  0  0  0  0  0  0  0  0  0  0  0
  127.3750  126.4014   68.6913 H   0  0  0  0  0  0  0  0  0  0  0  0
  131.7141  129.6631   61.9984 H   0  0  0  0  0  0  0  0  0  0  0  0
  132.5745  128.6512   60.7477 H   0  0  0  0  0  0  0  0  0  0  0  0
  131.6501  130.8385   59.8406 H   0  0  0  0  0  0  0  0  0  0  0  0
  131.0470  129.3954   58.9968 H   0  0  0  0  0  0  0  0  0  0  0  0
  1  2  2  0
  2  3  1  0
  3  4  1  0
  4  5  2  0
  5  6  1  0
  6  7  2  0
  7  8  1  0
  8  9  2  0
  3 10  1  0
 10 11  2  0
 11 12  1  0
 12 13  2  0
 13 14  1  0
 14 15  2  0
  2 16  1  0
 16 17  1  0
 17 18  1  0
 18 19  1  0
 19 20  1  0
 20 21  2  0
 21 22  1  0
 22 23  1  0
 22 24  2  0
 24 25  1  0
 25 26  2  0
 26 27  1  0
 27 28  1  0
 28 29  1  0
 29 30  2  0
 30 31  1  0
 31 32  2  0
 32 33  1  0
 33 34  1  0
 33 35  2  0
 27 36  1  0
 36 37  2  0
 19 38  1  0
 38 39  1  0
  9  4  1  0
 15 10  1  0
 39 16  1  0
 37 20  1  0
 36 24  1  0
 35 29  1  0
  3 40  1  0
  5 41  1  0
  6 42  1  0
  7 43  1  0
  8 44  1  0
  9 45  1  0
 11 46  1  0
 12 47  1  0
 13 48  1  0
 14 49  1  0
 15 50  1  0
 17 51  1  0
 17 52  1  0
 18 53  1  0
 18 54  1  0
 19 55  1  0
 23 56  1  0
 28 57  1  0
 28 58  1  0
 30 59  1  0
 31 60  1  0
 32 61  1  0
 35 62  1  0
 38 63  1  0
 38 64  1  0
 39 65  1  0
 39 66  1  0
M  END
>  <Binding energies>  (1) 
[-10.09]

>  <Ligand effiencies>  (1) 
[-0.25225]

>  <Interactions>  (1) 
["H-A:ASP:366:OD2:3210, H-A:TYR:484:OH:4343, V-A:ARG:545:CZ:4921, H-A:GLY:454:N:4045, H-A:ASP:366:OD1:3209, V-A:PRO:540:CA:4878, V-A:GLU:543:CD:4903, V-A:GLU:543:CG:4902, V-A:GLU:543:CB:4901, V-B:GLU:543:CG:9875, V-A:HIS:456:CE1:4064, V-B:HIS:456:CE1:9037, V-B:GLU:543:CD:9876, V-A:GLU:543:C:4897, V-B:GLU:543:CB:9874, V-A:PRO:540:C:4876, H-A:ALA:541:N:4886, V-A:ALA:541:CB:4887, V-A:ALA:541:CA:4885, V-A:TYR:539:CE2:4871, V-B:HIS:456:CD2:9035, H-A:HIS:456:NE2:4065, V-B:HIS:456:CG:9033, V-B:LEU:475:CD2:9226, V-A:TYR:539:CD2:4869, H-A:ARG:545:NH1:4922, H-A:ARG:545:NH2:4923, V-B:TRP:381:CH2:8339, V-B:TRP:381:CZ2:8337, V-B:GLY:544:C:9880, V-B:LEU:475:CD1:9225, V-B:PRO:482:CB:9293"]

$$$$
RR27_Rahimova_2017-again1
     RDKit          3D

 66 71  0  0  0  0  0  0  0  0999 V2000
  129.4850  129.0890   59.6980 O   0  0  0  0  0  0  0  0  0  0  0  0
  129.0000  130.1400   59.2690 C   0  0  0  0  0  0  0  0  0  0  0  0
  129.7630  131.4700   59.5460 C   0  0  0  0  0  0  0  0  0  0  0  0
  131.2680  131.2480   59.7860 C   0  0  0  0  0  0  0  0  0  0  0  0
  131.8700  131.5010   61.0280 C   0  0  0  0  0  0  0  0  0  0  0  0
  133.2330  131.2860   61.2070 C   0  0  0  0  0  0  0  0  0  0  0  0
  134.0040  130.8190   60.1460 C   0  0  0  0  0  0  0  0  0  0  0  0
  133.4220  130.5630   58.9080 C   0  0  0  0  0  0  0  0  0  0  0  0
  132.0580  130.7770   58.7290 C   0  0  0  0  0  0  0  0  0  0  0  0
  129.0790  132.3120   60.6400 C   0  0  0  0  0  0  0  0  0  0  0  0
  128.8940  131.8130   61.9380 C   0  0  0  0  0  0  0  0  0  0  0  0
  128.2540  132.5850   62.9050 C   0  0  0  0  0  0  0  0  0  0  0  0
  127.7990  133.8600   62.5800 C   0  0  0  0  0  0  0  0  0  0  0  0
  127.9740  134.3680   61.2960 C   0  0  0  0  0  0  0  0  0  0  0  0
  128.6060  133.5930   60.3270 C   0  0  0  0  0  0  0  0  0  0  0  0
  127.9190  130.1310   58.4360 N   0  0  0  0  0  0  0  0  0  0  0  0
  127.1270  131.3270   58.1140 C   0  0  0  0  0  0  0  0  0  0  0  0
  126.0690  131.5040   59.2290 C   0  0  0  0  0  0  0  0  0  0  0  0
  125.3290  130.2000   59.6750 C   0  0  0  0  0  0  0  0  0  0  0  0
  124.7900  130.2640   61.1080 C   0  0  0  0  0  0  0  0  0  0  0  0
  125.5980  130.1990   62.1200 N   0  0  0  0  0  0  0  0  0  0  0  0
  125.0080  130.2600   63.3460 C   0  0  0  0  0  0  0  0  0  0  0  0
  123.6500  130.3790   63.5990 C   0  0  0  0  0  0  0  0  0  0  0  0
  123.4250  130.3980   64.9010 N   0  0  0  0  0  0  0  0  0  0  0  0
  124.6570  130.2920   65.5390 N   0  0  0  0  0  0  0  0  0  0  0  0
  125.5990  130.2270   64.5820 N   0  0  0  0  0  0  0  0  0  0  0  0
  127.0080  130.0870   64.9260 C   0  0  0  0  0  0  0  0  0  0  0  0
  127.2560  129.1180   66.0720 C   0  0  0  0  0  0  0  0  0  0  0  0
  126.3520  128.0800   66.3220 C   0  0  0  0  0  0  0  0  0  0  0  0
  126.5730  127.1960   67.3790 C   0  0  0  0  0  0  0  0  0  0  0  0
  127.6990  127.3420   68.1880 C   0  0  0  0  0  0  0  0  0  0  0  0
  128.6070  128.3720   67.9410 C   0  0  0  0  0  0  0  0  0  0  0  0
  129.9970  128.5550   68.9460 Cl  0  0  0  0  0  0  0  0  0  0  0  0
  128.3880  129.2570   66.8840 C   0  0  0  0  0  0  0  0  0  0  0  0
  122.7180  130.4610   62.4750 C   0  0  0  0  0  0  0  0  0  0  0  0
  121.4940  130.5730   62.5010 O   0  0  0  0  0  0  0  0  0  0  0  0
  123.4160  130.3950   61.2880 N   0  0  0  0  0  0  0  0  0  0  0  0
  126.0700  128.8570   59.3820 C   0  0  0  0  0  0  0  0  0  0  0  0
  127.1380  128.8980   58.2610 C   0  0  0  0  0  0  0  0  0  0  0  0
  129.7049  132.0723   58.6274 H   0  0  0  0  0  0  0  0  0  0  0  0
  131.2606  131.8716   61.8654 H   0  0  0  0  0  0  0  0  0  0  0  0
  133.6996  131.4843   62.1832 H   0  0  0  0  0  0  0  0  0  0  0  0
  135.0819  130.6510   60.2873 H   0  0  0  0  0  0  0  0  0  0  0  0
  134.0371  130.1931   58.0744 H   0  0  0  0  0  0  0  0  0  0  0  0
  131.5973  130.5749   57.7508 H   0  0  0  0  0  0  0  0  0  0  0  0
  129.2564  130.8064   62.1937 H   0  0  0  0  0  0  0  0  0  0  0  0
  128.1088  132.1889   63.9209 H   0  0  0  0  0  0  0  0  0  0  0  0
  127.2969  134.4711   63.3445 H   0  0  0  0  0  0  0  0  0  0  0  0
  127.6145  135.3775   61.0477 H   0  0  0  0  0  0  0  0  0  0  0  0
  128.7347  133.9893   59.3090 H   0  0  0  0  0  0  0  0  0  0  0  0
  127.7813  132.2104   58.0746 H   0  0  0  0  0  0  0  0  0  0  0  0
  126.6395  131.2144   57.1344 H   0  0  0  0  0  0  0  0  0  0  0  0
  126.5745  131.9242   60.1110 H   0  0  0  0  0  0  0  0  0  0  0  0
  125.2934  132.1589   58.8052 H   0  0  0  0  0  0  0  0  0  0  0  0
  124.4602  130.1776   59.0007 H   0  0  0  0  0  0  0  0  0  0  0  0
  127.5491  129.7246   64.0395 H   0  0  0  0  0  0  0  0  0  0  0  0
  127.3623  131.0755   65.2537 H   0  0  0  0  0  0  0  0  0  0  0  0
  125.4643  127.9603   65.6835 H   0  0  0  0  0  0  0  0  0  0  0  0
  125.8580  126.3831   67.5741 H   0  0  0  0  0  0  0  0  0  0  0  0
  127.8715  126.6449   69.0213 H   0  0  0  0  0  0  0  0  0  0  0  0
  129.1071  130.0661   66.6884 H   0  0  0  0  0  0  0  0  0  0  0  0
  122.8440  130.4430   60.4580 H   0  0  0  0  0  0  0  0  0  0  0  0
  126.5685  128.5390   60.3096 H   0  0  0  0  0  0  0  0  0  0  0  0
  125.2942  128.1634   59.0255 H   0  0  0  0  0  0  0  0  0  0  0  0
  127.7981  128.0216   58.3396 H   0  0  0  0  0  0  0  0  0  0  0  0
  126.6594  128.8811   57.2707 H   0  0  0  0  0  0  0  0  0  0  0  0
  1  2  2  0
  2  3  1  0
  3  4  1  0
  4  5  2  0
  5  6  1  0
  6  7  2  0
  7  8  1  0
  8  9  2  0
  3 10  1  0
 10 11  2  0
 11 12  1  0
 12 13  2  0
 13 14  1  0
 14 15  2  0
  2 16  1  0
 16 17  1  0
 17 18  1  0
 18 19  1  0
 19 20  1  0
 20 21  2  0
 21 22  1  0
 22 23  2  0
 23 24  1  0
 24 25  2  0
 25 26  1  0
 26 27  1  0
 27 28  1  0
 28 29  2  0
 29 30  1  0
 30 31  2  0
 31 32  1  0
 32 33  1  0
 32 34  2  0
 23 35  1  0
 35 36  2  0
 35 37  1  0
 19 38  1  0
 38 39  1  0
  9  4  1  0
 15 10  1  0
 39 16  1  0
 37 20  1  0
 26 22  1  0
 34 28  1  0
  3 40  1  0
  5 41  1  0
  6 42  1  0
  7 43  1  0
  8 44  1  0
  9 45  1  0
 11 46  1  0
 12 47  1  0
 13 48  1  0
 14 49  1  0
 15 50  1  0
 17 51  1  0
 17 52  1  0
 18 53  1  0
 18 54  1  0
 19 55  1  0
 27 56  1  0
 27 57  1  0
 29 58  1  0
 30 59  1  0
 31 60  1  0
 34 61  1  0
 37 62  1  0
 38 63  1  0
 38 64  1  0
 39 65  1  0
 39 66  1  0
M  END
>  <Binding energies>  (1) 
[-10.24]

>  <Ligand effiencies>  (1) 
[-0.256]

>  <Interactions>  (1) 
["V-A:LEU:363:CA:3180, V-A:ASN:362:CB:3171, V-A:ASN:362:C:3167, V-A:PRO:540:CA:4878, V-A:PRO:540:CB:4880, V-A:GLU:543:CG:4902, V-A:GLU:543:CB:4901, V-B:GLU:543:CG:9875, V-A:HIS:456:CE1:4064, V-B:HIS:456:CE1:9037, V-B:GLU:543:CD:9876, V-B:GLU:543:CB:9874, V-B:ARG:545:CZ:9894, H-B:TYR:484:OH:9315, V-A:PRO:540:C:4876, V-A:TYR:539:CZ:4872, V-A:ALA:541:CB:4887, V-B:ARG:545:CG:9890, V-A:TYR:539:CE2:4871, H-B:GLY:454:N:9017, V-A:PRO:540:N:4879, H-B:ASP:366:OD1:8181, V-B:ASP:366:CG:8180, V-B:ILE:369:CD1:8206, V-B:LEU:475:CD2:9226, V-B:ASP:366:CA:8177, V-A:TYR:539:CD2:4869, H-B:ARG:545:NH1:9895, V-B:GLY:453:CA:9011, V-A:TYR:539:CE1:4870, V-A:TYR:539:C:4862"]

$$$$
RR28_Rahimova_2017
     RDKit          3D

 82 85  0  0  0  0  0  0  0  0999 V2000
  127.5010  136.7440   61.3760 C   0  0  0  0  0  0  0  0  0  0  0  0
  127.5100  135.2550   61.7060 C   0  0  0  0  0  0  0  0  0  0  0  0
  127.8560  134.8840   62.8260 O   0  0  0  0  0  0  0  0  0  0  0  0
  127.1280  134.4220   60.7170 N   0  0  0  0  0  0  0  0  0  0  0  0
  127.0480  132.9440   60.7450 C   0  0  0  0  0  0  0  0  0  0  0  0
  128.3850  132.3730   60.1920 C   0  0  0  0  0  0  0  0  0  0  0  0
  128.4830  132.0450   58.8310 C   0  0  0  0  0  0  0  0  0  0  0  0
  129.6610  131.5290   58.3020 C   0  0  0  0  0  0  0  0  0  0  0  0
  130.7710  131.3260   59.1230 C   0  0  0  0  0  0  0  0  0  0  0  0
  132.0560  130.7540   58.5260 C   0  0  0  0  0  0  0  0  0  0  0  0
  132.6700  131.6220   57.7190 F   0  0  0  0  0  0  0  0  0  0  0  0
  132.9080  130.4180   59.4950 F   0  0  0  0  0  0  0  0  0  0  0  0
  131.7620  129.6630   57.8170 F   0  0  0  0  0  0  0  0  0  0  0  0
  130.6870  131.6470   60.4810 C   0  0  0  0  0  0  0  0  0  0  0  0
  129.5070  132.1640   61.0090 C   0  0  0  0  0  0  0  0  0  0  0  0
  125.7780  132.4470   59.9660 C   0  0  0  0  0  0  0  0  0  0  0  0
  124.4450  132.8660   60.6350 C   0  0  0  0  0  0  0  0  0  0  0  0
  124.4640  132.2990   61.9940 N   0  0  0  0  0  0  0  0  0  0  0  0
  123.8990  131.0860   62.2400 C   0  0  0  0  0  0  0  0  0  0  0  0
  123.2120  130.5000   61.3990 O   0  0  0  0  0  0  0  0  0  0  0  0
  123.9810  130.4990   63.6710 C   0  0  0  0  0  0  0  0  0  0  0  0
  124.9390  129.2910   63.8550 C   0  0  0  0  0  0  0  0  0  0  0  0
  126.4260  129.6600   64.0710 C   0  0  0  0  0  0  0  0  0  0  0  0
  127.0860  130.0030   63.0860 O   0  0  0  0  0  0  0  0  0  0  0  0
  126.9280  129.7310   65.3360 N   0  0  0  0  0  0  0  0  0  0  0  0
  126.3180  129.0520   66.4850 C   0  0  0  0  0  0  0  0  0  0  0  0
  126.8780  127.6120   66.4950 C   0  0  0  0  0  0  0  0  0  0  0  0
  128.4430  127.5180   66.5480 C   0  0  0  0  0  0  0  0  0  0  0  0
  128.8600  126.1550   66.1520 N   0  0  0  0  0  0  0  0  0  0  0  0
  130.0120  125.5200   66.4450 C   0  0  0  0  0  0  0  0  0  0  0  0
  130.1720  124.1130   65.8790 C   0  0  0  0  0  0  0  0  0  0  0  0
  130.9140  126.0080   67.1260 O   0  0  0  0  0  0  0  0  0  0  0  0
  128.8760  127.7300   68.0350 C   0  0  0  0  0  0  0  0  0  0  0  0
  128.2650  127.0600   69.1080 C   0  0  0  0  0  0  0  0  0  0  0  0
  128.6820  127.2770   70.4190 C   0  0  0  0  0  0  0  0  0  0  0  0
  129.7180  128.1730   70.6910 C   0  0  0  0  0  0  0  0  0  0  0  0
  130.1890  128.4190   72.1240 C   0  0  0  0  0  0  0  0  0  0  0  0
  129.2120  128.1490   72.9920 F   0  0  0  0  0  0  0  0  0  0  0  0
  131.2240  127.6220   72.3860 F   0  0  0  0  0  0  0  0  0  0  0  0
  130.5730  129.6820   72.3170 F   0  0  0  0  0  0  0  0  0  0  0  0
  130.3290  128.8530   69.6360 C   0  0  0  0  0  0  0  0  0  0  0  0
  129.9110  128.6330   68.3270 C   0  0  0  0  0  0  0  0  0  0  0  0
  129.0560  128.5880   65.5640 C   0  0  0  0  0  0  0  0  0  0  0  0
  128.3600  129.9760   65.5480 C   0  0  0  0  0  0  0  0  0  0  0  0
  125.5110  132.8740   62.8500 C   0  0  0  0  0  0  0  0  0  0  0  0
  126.8760  132.4780   62.2280 C   0  0  0  0  0  0  0  0  0  0  0  0
  127.4975  137.3264   62.3092 H   0  0  0  0  0  0  0  0  0  0  0  0
  128.3976  136.9952   60.7904 H   0  0  0  0  0  0  0  0  0  0  0  0
  126.6014  136.9844   60.7904 H   0  0  0  0  0  0  0  0  0  0  0  0
  126.8860  134.8410   59.8320 H   0  0  0  0  0  0  0  0  0  0  0  0
  127.6150  132.1984   58.1729 H   0  0  0  0  0  0  0  0  0  0  0  0
  129.7181  131.2799   57.2321 H   0  0  0  0  0  0  0  0  0  0  0  0
  131.5572  131.4904   61.1354 H   0  0  0  0  0  0  0  0  0  0  0  0
  129.4534  132.4117   62.0794 H   0  0  0  0  0  0  0  0  0  0  0  0
  125.8055  132.8668   58.9496 H   0  0  0  0  0  0  0  0  0  0  0  0
  125.8085  131.3474   59.9616 H   0  0  0  0  0  0  0  0  0  0  0  0
  124.3712  133.9625   60.6815 H   0  0  0  0  0  0  0  0  0  0  0  0
  123.5799  132.4997   60.0628 H   0  0  0  0  0  0  0  0  0  0  0  0
  124.3163  131.3007   64.3454 H   0  0  0  0  0  0  0  0  0  0  0  0
  122.9739  130.1167   63.8939 H   0  0  0  0  0  0  0  0  0  0  0  0
  124.5997  128.7171   64.7299 H   0  0  0  0  0  0  0  0  0  0  0  0
  124.8980  128.7213   62.9149 H   0  0  0  0  0  0  0  0  0  0  0  0
  126.5857  129.5698   67.4179 H   0  0  0  0  0  0  0  0  0  0  0  0
  125.2207  129.0504   66.4082 H   0  0  0  0  0  0  0  0  0  0  0  0
  126.4735  127.0931   67.3765 H   0  0  0  0  0  0  0  0  0  0  0  0
  126.5711  127.1525   65.5439 H   0  0  0  0  0  0  0  0  0  0  0  0
  128.2050  125.6680   65.5590 H   0  0  0  0  0  0  0  0  0  0  0  0
  130.2540  123.3923   66.7059 H   0  0  0  0  0  0  0  0  0  0  0  0
  129.2963  123.8644   65.2614 H   0  0  0  0  0  0  0  0  0  0  0  0
  131.0811  124.0674   65.2614 H   0  0  0  0  0  0  0  0  0  0  0  0
  127.4453  126.3537   68.9098 H   0  0  0  0  0  0  0  0  0  0  0  0
  128.1926  126.7397   71.2447 H   0  0  0  0  0  0  0  0  0  0  0  0
  131.1428  129.5644   69.8399 H   0  0  0  0  0  0  0  0  0  0  0  0
  130.4006  129.1767   67.5056 H   0  0  0  0  0  0  0  0  0  0  0  0
  130.1077  128.7422   65.8473 H   0  0  0  0  0  0  0  0  0  0  0  0
  128.9176  128.1753   64.5538 H   0  0  0  0  0  0  0  0  0  0  0  0
  128.5181  130.4898   66.5077 H   0  0  0  0  0  0  0  0  0  0  0  0
  128.7726  130.6149   64.7533 H   0  0  0  0  0  0  0  0  0  0  0  0
  125.4139  133.9693   62.8811 H   0  0  0  0  0  0  0  0  0  0  0  0
  125.4257  132.4975   63.8800 H   0  0  0  0  0  0  0  0  0  0  0  0
  127.6770  132.9317   62.8301 H   0  0  0  0  0  0  0  0  0  0  0  0
  126.9234  131.3790   62.2280 H   0  0  0  0  0  0  0  0  0  0  0  0
  1  2  1  0
  2  3  2  0
  2  4  1  0
  4  5  1  0
  5  6  1  0
  6  7  2  0
  7  8  1  0
  8  9  2  0
  9 10  1  0
 10 11  1  0
 10 12  1  0
 10 13  1  0
  9 14  1  0
 14 15  2  0
  5 16  1  0
 16 17  1  0
 17 18  1  0
 18 19  1  0
 19 20  2  0
 19 21  1  0
 21 22  1  0
 22 23  1  0
 23 24  2  0
 23 25  1  0
 25 26  1  0
 26 27  1  0
 27 28  1  0
 28 29  1  0
 29 30  1  0
 30 31  1  0
 30 32  2  0
 28 33  1  0
 33 34  2  0
 34 35  1  0
 35 36  2  0
 36 37  1  0
 37 38  1  0
 37 39  1  0
 37 40  1  0
 36 41  1  0
 41 42  2  0
 28 43  1  0
 43 44  1  0
 18 45  1  0
 45 46  1  0
 46  5  1  0
 15  6  1  0
 44 25  1  0
 42 33  1  0
  1 47  1  0
  1 48  1  0
  1 49  1  0
  4 50  1  0
  7 51  1  0
  8 52  1  0
 14 53  1  0
 15 54  1  0
 16 55  1  0
 16 56  1  0
 17 57  1  0
 17 58  1  0
 21 59  1  0
 21 60  1  0
 22 61  1  0
 22 62  1  0
 26 63  1  0
 26 64  1  0
 27 65  1  0
 27 66  1  0
 29 67  1  0
 31 68  1  0
 31 69  1  0
 31 70  1  0
 34 71  1  0
 35 72  1  0
 41 73  1  0
 42 74  1  0
 43 75  1  0
 43 76  1  0
 44 77  1  0
 44 78  1  0
 45 79  1  0
 45 80  1  0
 46 81  1  0
 46 82  1  0
M  END
>  <Binding energies>  (1) 
[-8.86]

>  <Ligand effiencies>  (1) 
[-0.18458333333333332]

>  <Interactions>  (1) 
["V-A:PRO:540:CA:4878, V-A:GLU:543:CD:4903, V-A:PRO:540:CB:4880, V-A:GLU:543:CG:4902, V-A:GLY:544:C:4907, V-A:GLU:543:CB:4901, V-B:GLU:543:CG:9875, V-A:HIS:456:CE1:4064, V-A:GLY:544:CA:4909, V-B:HIS:456:CE1:9037, V-B:GLU:543:CD:9876, V-A:GLU:543:C:4897, V-B:GLU:543:CB:9874, H-B:GLU:543:OE2:9878, H-B:GLU:543:OE1:9877, V-A:TYR:484:CE1:4340, V-A:TYR:484:CZ:4342, V-B:ARG:545:CZ:9894, H-A:ALA:541:N:4886, V-A:TYR:539:CZ:4872, V-A:TYR:531:CE2:4788, V-A:TYR:531:CZ:4789, V-A:ALA:541:CB:4887, V-A:TYR:539:CE2:4871, V-A:PRO:540:CG:4881, V-A:LEU:363:CD1:3184, H-A:HIS:456:NE2:4065, V-A:LYS:547:CE:4945, V-B:ILE:369:CD1:8206, V-B:ILE:369:CG2:8204, V-B:LEU:475:CD2:9226, V-A:TYR:539:CD2:4869, V-B:TRP:381:CH2:8339, V-B:TRP:381:CZ2:8337, V-B:LEU:475:CD1:9225, H-A:TYR:539:O:4863, V-B:PRO:482:CG:9294, V-B:PRO:482:CB:9293, V-B:TRP:381:CZ3:8338, V-B:TRP:381:CE2:8334"]

$$$$
RR29_Rahimova_2017
     RDKit          3D

 35 36  0  0  0  0  0  0  0  0999 V2000
  129.7910  124.3030   68.4950 C   0  0  0  0  0  0  0  0  0  0  0  0
  130.1030  125.4260   67.5170 C   0  0  0  0  0  0  0  0  0  0  0  0
  129.3050  126.7170   67.8070 C   0  0  0  0  0  0  0  0  0  0  0  0
  130.0750  127.6630   68.7530 C   0  0  0  0  0  0  0  0  0  0  0  0
  129.2970  127.9670   70.0240 C   0  0  0  0  0  0  0  0  0  0  0  0
  127.9560  127.5490   70.1450 C   0  0  0  0  0  0  0  0  0  0  0  0
  127.2210  127.8180   71.3080 C   0  0  0  0  0  0  0  0  0  0  0  0
  127.8600  128.5190   72.3240 C   0  0  0  0  0  0  0  0  0  0  0  0
  129.1580  128.9290   72.2110 C   0  0  0  0  0  0  0  0  0  0  0  0
  129.9150  128.6670   71.0740 C   0  0  0  0  0  0  0  0  0  0  0  0
  129.5330  129.5560   73.3580 O   0  0  0  0  0  0  0  0  0  0  0  0
  128.3570  129.7120   74.1060 C   0  0  0  0  0  0  0  0  0  0  0  0
  127.3800  128.8760   73.5450 O   0  0  0  0  0  0  0  0  0  0  0  0
  130.9510  125.2080   66.5810 N   0  0  0  0  0  0  0  0  0  0  0  0
  131.1710  126.1930   65.6440 N   0  0  0  0  0  0  0  0  0  0  0  0
  130.6080  126.2110   64.4250 C   0  0  0  0  0  0  0  0  0  0  0  0
  129.7530  125.2960   63.9670 N   0  0  0  0  0  0  0  0  0  0  0  0
  130.9220  127.2110   63.6150 N   0  0  0  0  0  0  0  0  0  0  0  0
  129.8943  124.6747   69.5251 H   0  0  0  0  0  0  0  0  0  0  0  0
  128.7612  123.9516   68.3335 H   0  0  0  0  0  0  0  0  0  0  0  0
  130.4920  123.4708   68.3335 H   0  0  0  0  0  0  0  0  0  0  0  0
  129.1146  127.2393   66.8578 H   0  0  0  0  0  0  0  0  0  0  0  0
  128.3617  126.4345   68.2973 H   0  0  0  0  0  0  0  0  0  0  0  0
  131.0293  127.1894   69.0271 H   0  0  0  0  0  0  0  0  0  0  0  0
  130.2358  128.6126   68.2216 H   0  0  0  0  0  0  0  0  0  0  0  0
  127.4802  127.0046   69.3160 H   0  0  0  0  0  0  0  0  0  0  0  0
  126.1773  127.4866   71.4126 H   0  0  0  0  0  0  0  0  0  0  0  0
  130.9618  128.9965   70.9993 H   0  0  0  0  0  0  0  0  0  0  0  0
  128.5382  129.4264   75.1527 H   0  0  0  0  0  0  0  0  0  0  0  0
  128.0243  130.7603   74.0862 H   0  0  0  0  0  0  0  0  0  0  0  0
  131.8200  126.9240   65.8990 H   0  0  0  0  0  0  0  0  0  0  0  0
  129.1360  125.5160   63.1980 H   0  0  0  0  0  0  0  0  0  0  0  0
  129.7190  124.3850   64.4020 H   0  0  0  0  0  0  0  0  0  0  0  0
  131.7720  127.7350   63.7650 H   0  0  0  0  0  0  0  0  0  0  0  0
  130.3130  127.4440   62.8440 H   0  0  0  0  0  0  0  0  0  0  0  0
  1  2  1  0
  2  3  1  0
  3  4  1  0
  4  5  1  0
  5  6  2  0
  6  7  1  0
  7  8  2  0
  8  9  1  0
  9 10  2  0
  9 11  1  0
 11 12  1  0
 12 13  1  0
  2 14  2  0
 14 15  1  0
 15 16  1  0
 16 17  1  0
 16 18  2  0
 10  5  1  0
 13  8  1  0
  1 19  1  0
  1 20  1  0
  1 21  1  0
  3 22  1  0
  3 23  1  0
  4 24  1  0
  4 25  1  0
  6 26  1  0
  7 27  1  0
 10 28  1  0
 12 29  1  0
 12 30  1  0
 15 31  1  0
 17 32  1  0
 17 33  1  0
 18 34  1  0
 18 35  1  0
M  CHG  1  18   1
M  END
>  <Binding energies>  (1) 
[-7.35]

>  <Ligand effiencies>  (1) 
[-0.31956521739130433]

>  <Interactions>  (1) 
["H-A:TYR:484:OH:4343, H-A:GLU:543:OE2:4905, V-A:GLU:543:CD:4903, V-B:GLU:543:CG:9875, V-A:HIS:456:CE1:4064, V-B:HIS:456:CE1:9037, H-A:GLU:543:OE1:4904, V-B:GLU:543:CD:9876, V-B:GLU:543:CB:9874, H-B:GLU:543:OE2:9878, V-A:TYR:484:CE1:4340, V-A:TYR:484:CZ:4342, V-B:GLU:543:C:9870, V-B:GLU:543:CA:9872, H-B:LYS:547:NZ:9919, V-B:HIS:456:CD2:9035, H-A:LYS:547:NZ:4946, H-A:HIS:456:NE2:4065, V-B:HIS:456:CG:9033, V-B:GLY:544:C:9880"]

$$$$
RR29_Rahimova_2017-again1
     RDKit          3D

 34 35  0  0  0  0  0  0  0  0999 V2000
  129.7250  121.7970   59.9950 C   0  0  0  0  0  0  0  0  0  0  0  0
  128.7030  122.4260   60.9300 C   0  0  0  0  0  0  0  0  0  0  0  0
  129.2990  122.8740   62.2780 C   0  0  0  0  0  0  0  0  0  0  0  0
  129.7670  124.3440   62.2290 C   0  0  0  0  0  0  0  0  0  0  0  0
  130.7100  124.6860   63.3730 C   0  0  0  0  0  0  0  0  0  0  0  0
  130.2160  125.3370   64.5200 C   0  0  0  0  0  0  0  0  0  0  0  0
  131.0660  125.6600   65.5870 C   0  0  0  0  0  0  0  0  0  0  0  0
  132.4100  125.3240   65.4630 C   0  0  0  0  0  0  0  0  0  0  0  0
  132.8950  124.6950   64.3510 C   0  0  0  0  0  0  0  0  0  0  0  0
  132.0720  124.3530   63.2830 C   0  0  0  0  0  0  0  0  0  0  0  0
  134.2230  124.4590   64.5130 O   0  0  0  0  0  0  0  0  0  0  0  0
  134.5930  125.1570   65.6710 C   0  0  0  0  0  0  0  0  0  0  0  0
  133.4180  125.5020   66.3560 O   0  0  0  0  0  0  0  0  0  0  0  0
  127.4770  122.5150   60.5510 N   0  0  0  0  0  0  0  0  0  0  0  0
  126.6340  123.0300   61.3870 N   0  0  0  0  0  0  0  0  0  0  0  0
  125.7010  123.7680   60.9060 C   0  0  0  0  0  0  0  0  0  0  0  0
  125.4660  124.1070   59.5440 N   0  0  0  0  0  0  0  0  0  0  0  0
  124.7350  124.3670   61.7430 N   0  0  0  0  0  0  0  0  0  0  0  0
  130.5142  121.3113   60.5877 H   0  0  0  0  0  0  0  0  0  0  0  0
  129.2292  121.0476   59.3606 H   0  0  0  0  0  0  0  0  0  0  0  0
  130.1707  122.5773   59.3606 H   0  0  0  0  0  0  0  0  0  0  0  0
  128.5328  122.7687   63.0602 H   0  0  0  0  0  0  0  0  0  0  0  0
  130.1717  122.2411   62.4969 H   0  0  0  0  0  0  0  0  0  0  0  0
  130.2884  124.5181   61.2762 H   0  0  0  0  0  0  0  0  0  0  0  0
  128.8776  124.9846   62.3219 H   0  0  0  0  0  0  0  0  0  0  0  0
  129.1485  125.5956   64.5795 H   0  0  0  0  0  0  0  0  0  0  0  0
  130.6842  126.1607   66.4890 H   0  0  0  0  0  0  0  0  0  0  0  0
  132.4741  123.8390   62.3975 H   0  0  0  0  0  0  0  0  0  0  0  0
  135.2238  124.5189   66.3074 H   0  0  0  0  0  0  0  0  0  0  0  0
  135.1654  126.0594   65.4101 H   0  0  0  0  0  0  0  0  0  0  0  0
  126.0620  123.7740   58.7990 H   0  0  0  0  0  0  0  0  0  0  0  0
  124.7040  124.7010   59.2570 H   0  0  0  0  0  0  0  0  0  0  0  0
  124.7430  124.2430   62.7450 H   0  0  0  0  0  0  0  0  0  0  0  0
  123.9970  124.9530   61.3850 H   0  0  0  0  0  0  0  0  0  0  0  0
  1  2  1  0
  2  3  1  0
  3  4  1  0
  4  5  1  0
  5  6  2  0
  6  7  1  0
  7  8  2  0
  8  9  1  0
  9 10  2  0
  9 11  1  0
 11 12  1  0
 12 13  1  0
  2 14  2  0
 14 15  1  0
 15 16  2  0
 16 17  1  0
 16 18  1  0
 10  5  1  0
 13  8  1  0
  1 19  1  0
  1 20  1  0
  1 21  1  0
  3 22  1  0
  3 23  1  0
  4 24  1  0
  4 25  1  0
  6 26  1  0
  7 27  1  0
 10 28  1  0
 12 29  1  0
 12 30  1  0
 17 31  1  0
 17 32  1  0
 18 33  1  0
 18 34  1  0
M  END
>  <Binding energies>  (1) 
[-6.4]

>  <Ligand effiencies>  (1) 
[-0.29090909090909095]

>  <Interactions>  (1) 
["V-A:ARG:545:CD:4918, H-A:TYR:484:OH:4343, V-A:ARG:545:CZ:4921, V-A:ARG:545:CG:4917, H-A:GLY:454:N:4045, V-B:GLU:543:CG:9875, V-B:GLU:543:CD:9876, H-B:GLU:543:OE2:9878, V-B:TYR:539:CD2:9842, H-B:GLU:543:OE1:9877, V-B:ALA:541:CB:9860, V-B:ARG:545:CZ:9894, V-A:GLY:453:C:4037, V-A:GLY:453:CA:4039, H-A:HIS:456:NE2:4065, H-A:ARG:545:NE:4919, V-B:PRO:540:CB:9853, V-B:PRO:540:CA:9851, H-B:ASP:366:OD2:8182, H-B:ASP:366:OD1:8181, V-B:ASN:362:CB:8143, H-B:ALA:541:N:9859, H-B:ALA:541:O:9857"]

$$$$
RR2_Rahimova_2017
     RDKit          3D

 76 80  0  0  0  0  0  0  0  0999 V2000
  130.8880  117.9130   76.3220 C   0  0  0  0  0  0  0  0  0  0  0  0
  130.9970  119.3000   76.6250 O   0  0  0  0  0  0  0  0  0  0  0  0
  130.7670  120.2280   75.6270 C   0  0  0  0  0  0  0  0  0  0  0  0
  130.5050  121.5860   75.8540 C   0  0  0  0  0  0  0  0  0  0  0  0
  130.2810  122.4480   74.7840 C   0  0  0  0  0  0  0  0  0  0  0  0
  130.3120  121.9750   73.4650 C   0  0  0  0  0  0  0  0  0  0  0  0
  130.0590  122.9330   72.3170 C   0  0  0  0  0  0  0  0  0  0  0  0
  130.3970  122.6300   71.1680 O   0  0  0  0  0  0  0  0  0  0  0  0
  129.4690  124.1050   72.6470 N   0  0  0  0  0  0  0  0  0  0  0  0
  129.2980  125.0580   71.6480 N   0  0  0  0  0  0  0  0  0  0  0  0
  129.5050  126.3530   71.9600 C   0  0  0  0  0  0  0  0  0  0  0  0
  129.6600  126.7870   73.1050 O   0  0  0  0  0  0  0  0  0  0  0  0
  129.5650  127.3190   70.7680 C   0  0  0  0  0  0  0  0  0  0  0  0
  128.2590  127.0770   69.5090 S   0  0  0  0  0  0  0  0  0  0  0  0
  129.1360  126.1190   68.3100 C   0  0  0  0  0  0  0  0  0  0  0  0
  129.7310  124.9890   68.5970 N   0  0  0  0  0  0  0  0  0  0  0  0
  130.3750  124.5530   67.4470 N   0  0  0  0  0  0  0  0  0  0  0  0
  130.1200  125.4230   66.4990 C   0  0  0  0  0  0  0  0  0  0  0  0
  130.6310  125.2880   65.1010 C   0  0  0  0  0  0  0  0  0  0  0  0
  130.4990  124.0700   64.4280 C   0  0  0  0  0  0  0  0  0  0  0  0
  130.9780  123.9320   63.1290 C   0  0  0  0  0  0  0  0  0  0  0  0
  131.5790  125.0180   62.4830 C   0  0  0  0  0  0  0  0  0  0  0  0
  132.0890  124.9330   61.1790 N   0  0  0  0  0  0  0  0  0  0  0  0
  133.1740  123.6500   60.5970 S   0  0  0  0  0  0  0  0  0  0  0  0
  134.1970  123.4850   61.6350 O   0  0  0  0  0  0  0  0  0  0  0  0
  133.5490  123.9640   59.2130 O   0  0  0  0  0  0  0  0  0  0  0  0
  132.1820  122.1590   60.6080 C   0  0  0  0  0  0  0  0  0  0  0  0
  132.7890  120.9010   60.6510 C   0  0  0  0  0  0  0  0  0  0  0  0
  132.0010  119.7540   60.6430 C   0  0  0  0  0  0  0  0  0  0  0  0
  130.6100  119.8630   60.5970 C   0  0  0  0  0  0  0  0  0  0  0  0
  129.7530  118.6100   60.5740 C   0  0  0  0  0  0  0  0  0  0  0  0
  130.0060  121.1210   60.5500 C   0  0  0  0  0  0  0  0  0  0  0  0
  130.7920  122.2690   60.5570 C   0  0  0  0  0  0  0  0  0  0  0  0
  131.7070  126.2340   63.1540 C   0  0  0  0  0  0  0  0  0  0  0  0
  131.2340  126.3710   64.4560 C   0  0  0  0  0  0  0  0  0  0  0  0
  129.3350  126.4560   66.9840 N   0  0  0  0  0  0  0  0  0  0  0  0
  128.8790  127.6040   66.3040 C   0  0  0  0  0  0  0  0  0  0  0  0
  129.0730  128.8680   66.8640 C   0  0  0  0  0  0  0  0  0  0  0  0
  128.6260  129.9980   66.1850 C   0  0  0  0  0  0  0  0  0  0  0  0
  127.9840  129.8780   64.9520 C   0  0  0  0  0  0  0  0  0  0  0  0
  127.5740  131.0560   64.3560 O   0  0  0  0  0  0  0  0  0  0  0  0
  126.3520  131.0770   63.6260 C   0  0  0  0  0  0  0  0  0  0  0  0
  127.7920  128.6030   64.3960 C   0  0  0  0  0  0  0  0  0  0  0  0
  128.2400  127.4700   65.0690 C   0  0  0  0  0  0  0  0  0  0  0  0
  130.5820  120.6150   73.2450 C   0  0  0  0  0  0  0  0  0  0  0  0
  130.8060  119.7550   74.3170 C   0  0  0  0  0  0  0  0  0  0  0  0
  130.8426  117.3358   77.2573 H   0  0  0  0  0  0  0  0  0  0  0  0
  129.9732  117.7362   75.7373 H   0  0  0  0  0  0  0  0  0  0  0  0
  131.7640  117.5955   75.7373 H   0  0  0  0  0  0  0  0  0  0  0  0
  130.4762  121.9729   76.8833 H   0  0  0  0  0  0  0  0  0  0  0  0
  130.0775  123.5119   74.9758 H   0  0  0  0  0  0  0  0  0  0  0  0
  129.6130  124.5330   73.5500 H   0  0  0  0  0  0  0  0  0  0  0  0
  129.4140  124.6840   70.7160 H   0  0  0  0  0  0  0  0  0  0  0  0
  129.4792  128.3449   71.1556 H   0  0  0  0  0  0  0  0  0  0  0  0
  130.5210  127.1219   70.2607 H   0  0  0  0  0  0  0  0  0  0  0  0
  130.0148  123.2177   64.9271 H   0  0  0  0  0  0  0  0  0  0  0  0
  130.8840  122.9673   62.6089 H   0  0  0  0  0  0  0  0  0  0  0  0
  131.8000  125.6380   60.5150 H   0  0  0  0  0  0  0  0  0  0  0  0
  133.8851  120.8178   60.6910 H   0  0  0  0  0  0  0  0  0  0  0  0
  132.4742  118.7614   60.6729 H   0  0  0  0  0  0  0  0  0  0  0  0
  129.5372  118.2944   61.6054 H   0  0  0  0  0  0  0  0  0  0  0  0
  128.8091  118.8209   60.0500 H   0  0  0  0  0  0  0  0  0  0  0  0
  130.2918  117.8068   60.0500 H   0  0  0  0  0  0  0  0  0  0  0  0
  128.9100  121.2043   60.5075 H   0  0  0  0  0  0  0  0  0  0  0  0
  130.3186  123.2613   60.5224 H   0  0  0  0  0  0  0  0  0  0  0  0
  132.1839  127.0887   62.6520 H   0  0  0  0  0  0  0  0  0  0  0  0
  131.3351  127.3338   64.9782 H   0  0  0  0  0  0  0  0  0  0  0  0
  129.5764  128.9705   67.8367 H   0  0  0  0  0  0  0  0  0  0  0  0
  128.7803  130.9945   66.6245 H   0  0  0  0  0  0  0  0  0  0  0  0
  125.5055  131.0915   64.3283 H   0  0  0  0  0  0  0  0  0  0  0  0
  126.3186  131.9759   62.9928 H   0  0  0  0  0  0  0  0  0  0  0  0
  126.2877  130.1798   62.9928 H   0  0  0  0  0  0  0  0  0  0  0  0
  127.2857  128.4992   63.4250 H   0  0  0  0  0  0  0  0  0  0  0  0
  128.0914  126.4725   64.6299 H   0  0  0  0  0  0  0  0  0  0  0  0
  130.6169  120.2254   72.2169 H   0  0  0  0  0  0  0  0  0  0  0  0
  131.0158  118.6919   74.1278 H   0  0  0  0  0  0  0  0  0  0  0  0
  1  2  1  0
  2  3  1  0
  3  4  2  0
  4  5  1  0
  5  6  2  0
  6  7  1  0
  7  8  2  0
  7  9  1  0
  9 10  1  0
 10 11  1  0
 11 12  2  0
 11 13  1  0
 13 14  1  0
 14 15  1  0
 15 16  2  0
 16 17  1  0
 17 18  2  0
 18 19  1  0
 19 20  2  0
 20 21  1  0
 21 22  2  0
 22 23  1  0
 23 24  1  0
 24 25  2  0
 24 26  2  0
 24 27  1  0
 27 28  2  0
 28 29  1  0
 29 30  2  0
 30 31  1  0
 30 32  1  0
 32 33  2  0
 22 34  1  0
 34 35  2  0
 18 36  1  0
 36 37  1  0
 37 38  2  0
 38 39  1  0
 39 40  2  0
 40 41  1  0
 41 42  1  0
 40 43  1  0
 43 44  2  0
  6 45  1  0
 45 46  2  0
 46  3  1  0
 36 15  1  0
 44 37  1  0
 35 19  1  0
 33 27  1  0
  1 47  1  0
  1 48  1  0
  1 49  1  0
  4 50  1  0
  5 51  1  0
  9 52  1  0
 10 53  1  0
 13 54  1  0
 13 55  1  0
 20 56  1  0
 21 57  1  0
 23 58  1  0
 28 59  1  0
 29 60  1  0
 31 61  1  0
 31 62  1  0
 31 63  1  0
 32 64  1  0
 33 65  1  0
 34 66  1  0
 35 67  1  0
 38 68  1  0
 39 69  1  0
 42 70  1  0
 42 71  1  0
 42 72  1  0
 43 73  1  0
 44 74  1  0
 45 75  1  0
 46 76  1  0
M  END
>  <Binding energies>  (1) 
[-9.88]

>  <Ligand effiencies>  (1) 
[-0.2016326530612245]

>  <Interactions>  (1) 
["H-A:ASP:366:OD2:3210, H-A:TYR:484:OH:4343, V-A:ASP:366:CG:3208, V-A:GLU:543:CD:4903, V-A:GLU:543:CG:4902, V-A:GLU:543:CB:4901, V-B:GLU:543:CG:9875, V-A:HIS:456:CE1:4064, V-B:GLU:543:CD:9876, V-B:GLU:543:CB:9874, V-A:PRO:482:CB:4321, V-A:LEU:475:CD2:4254, V-B:TYR:539:CD2:9842, V-A:TRP:381:CZ2:3365, V-A:PRO:482:CG:4322, V-A:TRP:381:CH2:3367, V-B:ALA:541:CB:9860, H-B:TYR:484:OH:9315, V-A:ILE:369:CD1:3234, V-B:GLU:543:C:9870, H-B:GLU:543:O:9871, H-B:LYS:547:NZ:9919, V-A:TYR:484:CB:4336, H-A:HIS:456:NE2:4065, V-B:LYS:547:CE:9918, V-A:ILE:369:CG2:3232, V-B:TYR:539:C:9835, V-A:ASP:473:CG:4235, V-A:ASP:473:CB:4234, H-A:LYS:471:NZ:4216, V-A:PRO:486:CD:4361, V-A:PRO:486:CG:4360"]

$$$$
RR30_Rahimova_2017
     RDKit          3D

 29 30  0  0  0  0  0  0  0  0999 V2000
  133.1070  122.9250   60.4570 C   0  0  0  0  0  0  0  0  0  0  0  0
  132.9010  124.3810   60.9020 C   0  0  0  0  0  0  0  0  0  0  0  0
  133.1810  124.5750   62.3760 C   0  0  0  0  0  0  0  0  0  0  0  0
  134.3010  124.3680   63.0220 N   0  0  0  0  0  0  0  0  0  0  0  0
  134.0390  124.6840   64.3530 N   0  0  0  0  0  0  0  0  0  0  0  0
  132.7810  125.0430   64.3980 C   0  0  0  0  0  0  0  0  0  0  0  0
  131.8640  125.5710   65.8090 S   0  0  0  0  0  0  0  0  0  0  0  0
  130.1750  125.1930   65.2430 C   0  0  0  0  0  0  0  0  0  0  0  0
  130.0910  123.8360   64.5400 C   0  0  0  0  0  0  0  0  0  0  0  0
  130.4750  122.8260   65.1330 O   0  0  0  0  0  0  0  0  0  0  0  0
  129.6190  123.8550   63.2730 N   0  0  0  0  0  0  0  0  0  0  0  0
  129.4550  122.7590   62.4390 C   0  0  0  0  0  0  0  0  0  0  0  0
  128.4480  122.4890   61.6390 N   0  0  0  0  0  0  0  0  0  0  0  0
  128.6260  121.2950   60.9510 N   0  0  0  0  0  0  0  0  0  0  0  0
  129.7550  120.6900   61.2400 C   0  0  0  0  0  0  0  0  0  0  0  0
  130.1710  119.3750   60.6230 C   0  0  0  0  0  0  0  0  0  0  0  0
  130.7120  121.5620   62.4070 S   0  0  0  0  0  0  0  0  0  0  0  0
  132.1770  125.0030   63.1830 O   0  0  0  0  0  0  0  0  0  0  0  0
  133.1982  122.2801   61.3434 H   0  0  0  0  0  0  0  0  0  0  0  0
  132.2458  122.6004   59.8545 H   0  0  0  0  0  0  0  0  0  0  0  0
  134.0244  122.8520   59.8545 H   0  0  0  0  0  0  0  0  0  0  0  0
  133.5792  125.0268   60.3249 H   0  0  0  0  0  0  0  0  0  0  0  0
  131.8478  124.6426   60.7218 H   0  0  0  0  0  0  0  0  0  0  0  0
  129.5034  125.1829   66.1141 H   0  0  0  0  0  0  0  0  0  0  0  0
  129.8802  125.9671   64.5192 H   0  0  0  0  0  0  0  0  0  0  0  0
  129.3620  124.7490   62.8820 H   0  0  0  0  0  0  0  0  0  0  0  0
  130.3997  118.6521   61.4200 H   0  0  0  0  0  0  0  0  0  0  0  0
  129.3518  118.9869   59.9999 H   0  0  0  0  0  0  0  0  0  0  0  0
  131.0644  119.5287   59.9999 H   0  0  0  0  0  0  0  0  0  0  0  0
  1  2  1  0
  2  3  1  0
  3  4  2  0
  4  5  1  0
  5  6  2  0
  6  7  1  0
  7  8  1  0
  8  9  1  0
  9 10  2  0
  9 11  1  0
 11 12  1  0
 12 13  2  0
 13 14  1  0
 14 15  2  0
 15 16  1  0
 15 17  1  0
  6 18  1  0
 18  3  1  0
 17 12  1  0
  1 19  1  0
  1 20  1  0
  1 21  1  0
  2 22  1  0
  2 23  1  0
  8 24  1  0
  8 25  1  0
 11 26  1  0
 16 27  1  0
 16 28  1  0
 16 29  1  0
M  END
>  <Binding energies>  (1) 
[-6.3]

>  <Ligand effiencies>  (1) 
[-0.33157894736842103]

>  <Interactions>  (1) 
["H-A:TYR:484:OH:4343, V-A:ARG:545:CZ:4921, H-A:GLY:454:N:4045, V-A:ASP:366:CG:3208, V-B:GLU:543:CG:9875, V-B:GLU:543:CD:9876, H-B:GLU:543:OE2:9878, V-A:LEU:475:CD2:4254, V-B:TYR:539:CD2:9842, V-A:TRP:381:CZ2:3365, V-A:TRP:381:CH2:3367, V-B:ALA:541:CB:9860, V-A:ILE:369:CD1:3234, H-A:HIS:456:NE2:4065, H-B:ALA:541:N:9859"]

$$$$
RR31_Rahimova_2017
     RDKit          3D

 44 45  0  0  0  0  0  0  0  0999 V2000
  122.8360  131.4450   59.4750 C   0  0  0  0  0  0  0  0  0  0  0  0
  124.3420  131.3630   59.2640 C   0  0  0  0  0  0  0  0  0  0  0  0
  124.8550  130.4100   58.3830 C   0  0  0  0  0  0  0  0  0  0  0  0
  126.2280  130.3110   58.1650 C   0  0  0  0  0  0  0  0  0  0  0  0
  127.1290  131.1690   58.8160 C   0  0  0  0  0  0  0  0  0  0  0  0
  128.5080  131.0770   58.6160 N   0  0  0  0  0  0  0  0  0  0  0  0
  129.4020  132.2390   58.7810 C   0  0  0  0  0  0  0  0  0  0  0  0
  130.7950  132.0610   58.1320 C   0  0  0  0  0  0  0  0  0  0  0  0
  131.4580  130.8570   58.6390 N   0  0  0  0  0  0  0  0  0  0  0  0
  132.7970  130.6800   58.0680 C   0  0  0  0  0  0  0  0  0  0  0  0
  133.8750  130.4000   59.1350 C   0  0  0  0  0  0  0  0  0  0  0  0
  133.3780  130.6990   60.5580 C   0  0  0  0  0  0  0  0  0  0  0  0
  132.3720  129.6280   60.9980 N   0  0  0  0  0  0  0  0  0  0  0  0
  130.6180  129.7130   58.2870 C   0  0  0  0  0  0  0  0  0  0  0  0
  129.2260  129.8300   58.9490 C   0  0  0  0  0  0  0  0  0  0  0  0
  126.6010  132.1170   59.7050 C   0  0  0  0  0  0  0  0  0  0  0  0
  125.2240  132.2250   59.9340 C   0  0  0  0  0  0  0  0  0  0  0  0
  124.7140  133.2730   60.9150 C   0  0  0  0  0  0  0  0  0  0  0  0
  122.6169  131.4569   60.5529 H   0  0  0  0  0  0  0  0  0  0  0  0
  122.4505  132.3655   59.0123 H   0  0  0  0  0  0  0  0  0  0  0  0
  122.3528  130.5718   59.0123 H   0  0  0  0  0  0  0  0  0  0  0  0
  124.1692  129.7306   57.8557 H   0  0  0  0  0  0  0  0  0  0  0  0
  126.6121  129.5483   57.4717 H   0  0  0  0  0  0  0  0  0  0  0  0
  128.9177  133.1150   58.3249 H   0  0  0  0  0  0  0  0  0  0  0  0
  129.5685  132.3604   59.8615 H   0  0  0  0  0  0  0  0  0  0  0  0
  130.6760  131.9746   57.0419 H   0  0  0  0  0  0  0  0  0  0  0  0
  131.4139  132.9351   58.3829 H   0  0  0  0  0  0  0  0  0  0  0  0
  132.7698  129.8331   57.3665 H   0  0  0  0  0  0  0  0  0  0  0  0
  133.0675  131.6206   57.5659 H   0  0  0  0  0  0  0  0  0  0  0  0
  134.1639  129.3402   59.0765 H   0  0  0  0  0  0  0  0  0  0  0  0
  134.7302  131.0611   58.9312 H   0  0  0  0  0  0  0  0  0  0  0  0
  134.2334  130.7014   61.2496 H   0  0  0  0  0  0  0  0  0  0  0  0
  132.8862  131.6829   60.5695 H   0  0  0  0  0  0  0  0  0  0  0  0
  132.7350  128.7070   60.7950 H   0  0  0  0  0  0  0  0  0  0  0  0
  131.4980  129.7490   60.5060 H   0  0  0  0  0  0  0  0  0  0  0  0
  132.2000  129.6970   61.9900 H   0  0  0  0  0  0  0  0  0  0  0  0
  130.4959  129.6778   57.1944 H   0  0  0  0  0  0  0  0  0  0  0  0
  131.1040  128.7944   58.6477 H   0  0  0  0  0  0  0  0  0  0  0  0
  128.6128  128.9785   58.6189 H   0  0  0  0  0  0  0  0  0  0  0  0
  129.3892  129.8362   60.0368 H   0  0  0  0  0  0  0  0  0  0  0  0
  127.2869  132.7933   60.2362 H   0  0  0  0  0  0  0  0  0  0  0  0
  124.8835  132.9247   61.9446 H   0  0  0  0  0  0  0  0  0  0  0  0
  125.2527  134.2185   60.7544 H   0  0  0  0  0  0  0  0  0  0  0  0
  123.6375  133.4325   60.7544 H   0  0  0  0  0  0  0  0  0  0  0  0
  1  2  1  0
  2  3  2  0
  3  4  1  0
  4  5  2  0
  5  6  1  0
  6  7  1  0
  7  8  1  0
  8  9  1  0
  9 10  1  0
 10 11  1  0
 11 12  1  0
 12 13  1  0
  9 14  1  0
 14 15  1  0
  5 16  1  0
 16 17  2  0
 17 18  1  0
 17  2  1  0
 15  6  1  0
  1 19  1  0
  1 20  1  0
  1 21  1  0
  3 22  1  0
  4 23  1  0
  7 24  1  0
  7 25  1  0
  8 26  1  0
  8 27  1  0
 10 28  1  0
 10 29  1  0
 11 30  1  0
 11 31  1  0
 12 32  1  0
 12 33  1  0
 13 34  1  0
 13 35  1  0
 13 36  1  0
 14 37  1  0
 14 38  1  0
 15 39  1  0
 15 40  1  0
 16 41  1  0
 18 42  1  0
 18 43  1  0
 18 44  1  0
M  CHG  1  13   1
M  END
>  <Binding energies>  (1) 
[-5.84]

>  <Ligand effiencies>  (1) 
[-0.27809523809523806]

>  <Interactions>  (1) 
["H-A:ASP:366:OD2:3210, V-A:LEU:363:CA:3180, V-A:ASN:362:CB:3171, V-A:ASN:362:C:3167, H-A:GLU:543:OE2:4905, V-A:PRO:540:CA:4878, V-A:ASP:366:CG:3208, V-A:GLU:543:CD:4903, V-A:PRO:540:CB:4880, H-A:GLU:543:OE1:4904, V-A:TYR:539:CZ:4872, V-A:TYR:531:CE2:4788, V-A:TYR:539:CE2:4871, V-A:PRO:540:N:4879, V-A:LEU:363:CD1:3184, V-A:LEU:363:CB:3182, V-B:ASP:366:CB:8179, V-B:ILE:369:CG1:8205, V-B:ILE:369:CD1:8206, V-B:ILE:369:CG2:8204, V-B:ILE:369:CB:8203, V-B:LEU:475:CD2:9226, V-B:ASP:366:CA:8177, V-B:ASP:366:C:8175"]

$$$$
RR32_Rahimova_2017
     RDKit          3D

 37 39  0  0  0  0  0  0  0  0999 V2000
  127.9840  135.8220   61.7500 C   0  0  0  0  0  0  0  0  0  0  0  0
  127.8380  134.4420   61.1160 C   0  0  0  0  0  0  0  0  0  0  0  0
  128.9970  133.7120   60.8500 C   0  0  0  0  0  0  0  0  0  0  0  0
  128.9020  132.4480   60.2760 C   0  0  0  0  0  0  0  0  0  0  0  0
  130.0540  131.7270   60.0140 N   0  0  0  0  0  0  0  0  0  0  0  0
  130.6210  131.8290   58.6570 C   0  0  0  0  0  0  0  0  0  0  0  0
  131.7950  130.8520   58.4110 C   0  0  0  0  0  0  0  0  0  0  0  0
  132.8620  131.0890   59.3820 N   0  0  0  0  0  0  0  0  0  0  0  0
  133.9820  130.1890   59.1300 C   0  0  0  0  0  0  0  0  0  0  0  0
  132.3170  130.8570   60.7180 C   0  0  0  0  0  0  0  0  0  0  0  0
  131.1490  131.8310   60.9980 C   0  0  0  0  0  0  0  0  0  0  0  0
  127.7120  131.8790   59.9510 N   0  0  0  0  0  0  0  0  0  0  0  0
  126.5640  132.5680   60.1950 C   0  0  0  0  0  0  0  0  0  0  0  0
  125.3380  131.9510   59.8440 C   0  0  0  0  0  0  0  0  0  0  0  0
  124.1340  132.6080   60.0700 C   0  0  0  0  0  0  0  0  0  0  0  0
  124.1180  133.8740   60.6420 C   0  0  0  0  0  0  0  0  0  0  0  0
  125.3050  134.5080   60.9990 C   0  0  0  0  0  0  0  0  0  0  0  0
  126.5630  133.8730   60.7850 C   0  0  0  0  0  0  0  0  0  0  0  0
  127.9737  135.7251   62.8457 H   0  0  0  0  0  0  0  0  0  0  0  0
  128.9349  136.2735   61.4307 H   0  0  0  0  0  0  0  0  0  0  0  0
  127.1486  136.4624   61.4307 H   0  0  0  0  0  0  0  0  0  0  0  0
  129.9830  134.1345   61.0934 H   0  0  0  0  0  0  0  0  0  0  0  0
  129.8261  131.6104   57.9288 H   0  0  0  0  0  0  0  0  0  0  0  0
  131.0162  132.8493   58.5442 H   0  0  0  0  0  0  0  0  0  0  0  0
  131.4343  129.8178   58.5129 H   0  0  0  0  0  0  0  0  0  0  0  0
  132.1901  131.0142   57.3973 H   0  0  0  0  0  0  0  0  0  0  0  0
  134.4032  129.8506   60.0882 H   0  0  0  0  0  0  0  0  0  0  0  0
  133.6311  129.3188   58.5559 H   0  0  0  0  0  0  0  0  0  0  0  0
  134.7563  130.7190   58.5559 H   0  0  0  0  0  0  0  0  0  0  0  0
  131.9505  129.8220   60.7857 H   0  0  0  0  0  0  0  0  0  0  0  0
  133.1096  131.0257   61.4619 H   0  0  0  0  0  0  0  0  0  0  0  0
  130.7431  131.6117   61.9966 H   0  0  0  0  0  0  0  0  0  0  0  0
  131.5526  132.8520   60.9299 H   0  0  0  0  0  0  0  0  0  0  0  0
  125.3388  130.9486   59.3911 H   0  0  0  0  0  0  0  0  0  0  0  0
  123.1867  132.1218   59.7938 H   0  0  0  0  0  0  0  0  0  0  0  0
  123.1572  134.3809   60.8147 H   0  0  0  0  0  0  0  0  0  0  0  0
  125.2716  135.5102   61.4513 H   0  0  0  0  0  0  0  0  0  0  0  0
  1  2  1  0
  2  3  2  0
  3  4  1  0
  4  5  1  0
  5  6  1  0
  6  7  1  0
  7  8  1  0
  8  9  1  0
  8 10  1  0
 10 11  1  0
  4 12  2  0
 12 13  1  0
 13 14  2  0
 14 15  1  0
 15 16  2  0
 16 17  1  0
 17 18  2  0
 18  2  1  0
 11  5  1  0
 18 13  1  0
  1 19  1  0
  1 20  1  0
  1 21  1  0
  3 22  1  0
  6 23  1  0
  6 24  1  0
  7 25  1  0
  7 26  1  0
  9 27  1  0
  9 28  1  0
  9 29  1  0
 10 30  1  0
 10 31  1  0
 11 32  1  0
 11 33  1  0
 14 34  1  0
 15 35  1  0
 16 36  1  0
 17 37  1  0
M  END
>  <Binding energies>  (1) 
[-5.71]

>  <Ligand effiencies>  (1) 
[-0.31722222222222224]

>  <Interactions>  (1) 
["V-A:LEU:363:CA:3180, V-A:ASN:362:C:3167, V-A:PRO:540:CA:4878, V-A:ASP:366:CG:3208, V-A:PRO:540:CB:4880, V-A:PRO:540:C:4876, V-A:TYR:539:CZ:4872, V-A:ASP:366:CB:3207, V-A:ALA:541:CB:4887, V-A:ALA:541:CA:4885, V-A:TYR:539:CE2:4871, V-A:PRO:540:N:4879, V-B:ILE:369:CD1:8206, V-B:ILE:369:CG2:8204, V-B:ILE:369:CB:8203, V-B:LEU:475:CD2:9226, V-A:TYR:539:CD2:4869, V-A:TYR:539:C:4862, V-B:TRP:381:CH2:8339, V-B:LEU:475:CD1:9225, V-B:PRO:482:CG:9294, V-B:PRO:482:CB:9293"]

$$$$
RR32_Rahimova_2017-again1
     RDKit          3D

 38 40  0  0  0  0  0  0  0  0999 V2000
  133.4940  122.5140   58.5920 C   0  0  0  0  0  0  0  0  0  0  0  0
  132.8210  122.7500   59.9360 C   0  0  0  0  0  0  0  0  0  0  0  0
  133.0390  123.9380   60.6330 C   0  0  0  0  0  0  0  0  0  0  0  0
  132.4150  124.1550   61.8670 C   0  0  0  0  0  0  0  0  0  0  0  0
  132.6270  125.3340   62.5880 N   0  0  0  0  0  0  0  0  0  0  0  0
  131.6350  126.4270   62.5400 C   0  0  0  0  0  0  0  0  0  0  0  0
  130.5070  126.2520   63.5840 C   0  0  0  0  0  0  0  0  0  0  0  0
  131.1360  126.2550   64.9910 N   0  0  0  0  0  0  0  0  0  0  0  0
  130.0560  126.0670   66.0740 C   0  0  0  0  0  0  0  0  0  0  0  0
  132.1860  125.1280   65.0660 C   0  0  0  0  0  0  0  0  0  0  0  0
  133.2250  125.3460   63.9400 C   0  0  0  0  0  0  0  0  0  0  0  0
  131.6100  123.2110   62.4280 N   0  0  0  0  0  0  0  0  0  0  0  0
  131.3760  122.0430   61.7710 C   0  0  0  0  0  0  0  0  0  0  0  0
  130.5210  121.0920   62.3770 C   0  0  0  0  0  0  0  0  0  0  0  0
  130.2520  119.8850   61.7390 C   0  0  0  0  0  0  0  0  0  0  0  0
  130.8190  119.5980   60.5010 C   0  0  0  0  0  0  0  0  0  0  0  0
  131.6660  120.5130   59.8800 C   0  0  0  0  0  0  0  0  0  0  0  0
  131.9640  121.7580   60.5010 C   0  0  0  0  0  0  0  0  0  0  0  0
  134.5207  122.1540   58.7542 H   0  0  0  0  0  0  0  0  0  0  0  0
  132.9267  121.7612   58.0250 H   0  0  0  0  0  0  0  0  0  0  0  0
  133.5211  123.4562   58.0250 H   0  0  0  0  0  0  0  0  0  0  0  0
  133.7034  124.7069   60.2118 H   0  0  0  0  0  0  0  0  0  0  0  0
  132.1502  127.3793   62.7341 H   0  0  0  0  0  0  0  0  0  0  0  0
  131.1713  126.4129   61.5426 H   0  0  0  0  0  0  0  0  0  0  0  0
  129.7893  127.0811   63.4969 H   0  0  0  0  0  0  0  0  0  0  0  0
  129.9776  125.3035   63.4105 H   0  0  0  0  0  0  0  0  0  0  0  0
  131.6050  127.1390   65.1310 H   0  0  0  0  0  0  0  0  0  0  0  0
  130.5171  126.1473   67.0695 H   0  0  0  0  0  0  0  0  0  0  0  0
  129.2860  126.8446   65.9628 H   0  0  0  0  0  0  0  0  0  0  0  0
  129.5940  125.0749   65.9628 H   0  0  0  0  0  0  0  0  0  0  0  0
  132.6885  125.1541   66.0442 H   0  0  0  0  0  0  0  0  0  0  0  0
  131.6975  124.1502   64.9426 H   0  0  0  0  0  0  0  0  0  0  0  0
  133.7134  126.3189   64.0980 H   0  0  0  0  0  0  0  0  0  0  0  0
  133.9411  124.5125   63.9890 H   0  0  0  0  0  0  0  0  0  0  0  0
  130.0675  121.3077   63.3557 H   0  0  0  0  0  0  0  0  0  0  0  0
  129.5858  119.1518   62.2171 H   0  0  0  0  0  0  0  0  0  0  0  0
  130.5963  118.6400   60.0084 H   0  0  0  0  0  0  0  0  0  0  0  0
  132.1078  120.2712   58.9021 H   0  0  0  0  0  0  0  0  0  0  0  0
  1  2  1  0
  2  3  2  0
  3  4  1  0
  4  5  1  0
  5  6  1  0
  6  7  1  0
  7  8  1  0
  8  9  1  0
  8 10  1  0
 10 11  1  0
  4 12  2  0
 12 13  1  0
 13 14  2  0
 14 15  1  0
 15 16  2  0
 16 17  1  0
 17 18  2  0
 18  2  1  0
 11  5  1  0
 18 13  1  0
  1 19  1  0
  1 20  1  0
  1 21  1  0
  3 22  1  0
  6 23  1  0
  6 24  1  0
  7 25  1  0
  7 26  1  0
  8 27  1  0
  9 28  1  0
  9 29  1  0
  9 30  1  0
 10 31  1  0
 10 32  1  0
 11 33  1  0
 11 34  1  0
 14 35  1  0
 15 36  1  0
 16 37  1  0
 17 38  1  0
M  CHG  1   8   1
M  END
>  <Binding energies>  (1) 
[-6.35]

>  <Ligand effiencies>  (1) 
[-0.33421052631578946]

>  <Interactions>  (1) 
["V-A:ARG:545:CZ:4921, H-A:GLU:543:OE2:4905, V-A:ASP:366:CG:3208, V-A:GLU:543:CD:4903, V-B:GLU:543:CG:9875, H-A:GLU:543:OE1:4904, V-A:LEU:475:CD2:4254, V-B:TYR:539:CD2:9842, V-A:TRP:381:CZ2:3365, V-A:TRP:381:CH2:3367, V-A:LEU:475:CD1:4253, V-B:TYR:539:CE2:9844, V-B:ALA:541:CB:9860, V-A:ILE:369:CD1:3234, V-A:ILE:369:CG2:3232, V-A:ILE:369:CB:3231"]

$$$$
RR32_Rahimova_2017-again2
     RDKit          3D

 39 41  0  0  0  0  0  0  0  0999 V2000
  133.5020  122.5310   58.5560 C   0  0  0  0  0  0  0  0  0  0  0  0
  132.8350  122.7810   59.9020 C   0  0  0  0  0  0  0  0  0  0  0  0
  133.0580  123.9810   60.5840 C   0  0  0  0  0  0  0  0  0  0  0  0
  132.4580  124.2270   61.8260 C   0  0  0  0  0  0  0  0  0  0  0  0
  132.6440  125.4520   62.5620 N   0  0  0  0  0  0  0  0  0  0  0  0
  131.6310  126.5400   62.5000 C   0  0  0  0  0  0  0  0  0  0  0  0
  130.5010  126.2980   63.5360 C   0  0  0  0  0  0  0  0  0  0  0  0
  131.1080  126.2430   64.9580 N   0  0  0  0  0  0  0  0  0  0  0  0
  130.0210  125.9470   66.0100 C   0  0  0  0  0  0  0  0  0  0  0  0
  132.2370  125.1870   65.0160 C   0  0  0  0  0  0  0  0  0  0  0  0
  133.2770  125.4900   63.9050 C   0  0  0  0  0  0  0  0  0  0  0  0
  131.6530  123.2740   62.3370 N   0  0  0  0  0  0  0  0  0  0  0  0
  131.3740  122.0660   61.7390 C   0  0  0  0  0  0  0  0  0  0  0  0
  130.5140  121.1350   62.3640 C   0  0  0  0  0  0  0  0  0  0  0  0
  130.2510  119.9240   61.7280 C   0  0  0  0  0  0  0  0  0  0  0  0
  130.8270  119.6310   60.4940 C   0  0  0  0  0  0  0  0  0  0  0  0
  131.6770  120.5410   59.8660 C   0  0  0  0  0  0  0  0  0  0  0  0
  131.9770  121.7920   60.4760 C   0  0  0  0  0  0  0  0  0  0  0  0
  134.5209  122.1491   58.7170 H   0  0  0  0  0  0  0  0  0  0  0  0
  132.9182  121.7907   57.9894 H   0  0  0  0  0  0  0  0  0  0  0  0
  133.5487  123.4727   57.9894 H   0  0  0  0  0  0  0  0  0  0  0  0
  133.7143  124.7433   60.1388 H   0  0  0  0  0  0  0  0  0  0  0  0
  132.1199  127.5012   62.7170 H   0  0  0  0  0  0  0  0  0  0  0  0
  131.1896  126.5548   61.4926 H   0  0  0  0  0  0  0  0  0  0  0  0
  129.7708  127.1188   63.4805 H   0  0  0  0  0  0  0  0  0  0  0  0
  129.9987  125.3447   63.3147 H   0  0  0  0  0  0  0  0  0  0  0  0
  131.5200  127.1450   65.1530 H   0  0  0  0  0  0  0  0  0  0  0  0
  130.4454  126.0626   67.0182 H   0  0  0  0  0  0  0  0  0  0  0  0
  129.1850  126.6502   65.8813 H   0  0  0  0  0  0  0  0  0  0  0  0
  129.6569  124.9170   65.8813 H   0  0  0  0  0  0  0  0  0  0  0  0
  132.7275  125.2266   65.9998 H   0  0  0  0  0  0  0  0  0  0  0  0
  131.8129  124.1839   64.8614 H   0  0  0  0  0  0  0  0  0  0  0  0
  133.7036  126.4897   64.0739 H   0  0  0  0  0  0  0  0  0  0  0  0
  134.0657  124.7242   63.9436 H   0  0  0  0  0  0  0  0  0  0  0  0
  131.2160  123.4650   63.2260 H   0  0  0  0  0  0  0  0  0  0  0  0
  130.0587  121.3634   63.3390 H   0  0  0  0  0  0  0  0  0  0  0  0
  129.5822  119.1922   62.2046 H   0  0  0  0  0  0  0  0  0  0  0  0
  130.6084  118.6686   60.0082 H   0  0  0  0  0  0  0  0  0  0  0  0
  132.1196  120.2900   58.8907 H   0  0  0  0  0  0  0  0  0  0  0  0
  1  2  1  0
  2  3  2  0
  3  4  1  0
  4  5  1  0
  5  6  1  0
  6  7  1  0
  7  8  1  0
  8  9  1  0
  8 10  1  0
 10 11  1  0
  4 12  2  0
 12 13  1  0
 13 14  2  0
 14 15  1  0
 15 16  2  0
 16 17  1  0
 17 18  2  0
 18  2  1  0
 11  5  1  0
 18 13  1  0
  1 19  1  0
  1 20  1  0
  1 21  1  0
  3 22  1  0
  6 23  1  0
  6 24  1  0
  7 25  1  0
  7 26  1  0
  8 27  1  0
  9 28  1  0
  9 29  1  0
  9 30  1  0
 10 31  1  0
 10 32  1  0
 11 33  1  0
 11 34  1  0
 12 35  1  0
 14 36  1  0
 15 37  1  0
 16 38  1  0
 17 39  1  0
M  CHG  2   8   1  12   1
M  END
>  <Binding energies>  (1) 
[-6.69]

>  <Ligand effiencies>  (1) 
[-0.3345]

>  <Interactions>  (1) 
["V-A:ARG:545:CZ:4921, H-A:GLU:543:OE2:4905, V-A:ASP:366:CG:3208, V-A:GLU:543:CD:4903, V-B:GLU:543:CG:9875, H-A:GLU:543:OE1:4904, V-A:LEU:475:CD2:4254, V-B:TYR:539:CD2:9842, V-A:TRP:381:CZ2:3365, V-A:TRP:381:CH2:3367, V-A:LEU:475:CD1:4253, V-B:TYR:539:CE2:9844, V-B:ALA:541:CB:9860, V-A:ILE:369:CD1:3234, V-A:ILE:369:CG2:3232, V-A:ILE:369:CB:3231"]

$$$$
RR33_Rahimova_2017
     RDKit          3D

 36 37  0  0  0  0  0  0  0  0999 V2000
  126.5060  129.7740   74.6220 C   0  0  0  0  0  0  0  0  0  0  0  0
  127.9290  130.1660   74.2130 C   0  0  0  0  0  0  0  0  0  0  0  0
  128.6610  128.9820   73.9120 O   0  0  0  0  0  0  0  0  0  0  0  0
  128.9170  128.6590   72.5940 C   0  0  0  0  0  0  0  0  0  0  0  0
  127.8590  128.1050   71.8730 C   0  0  0  0  0  0  0  0  0  0  0  0
  128.0230  127.7440   70.5390 C   0  0  0  0  0  0  0  0  0  0  0  0
  129.2530  127.9340   69.9020 C   0  0  0  0  0  0  0  0  0  0  0  0
  129.4280  127.5460   68.4690 C   0  0  0  0  0  0  0  0  0  0  0  0
  130.1820  126.5850   67.9840 N   0  0  0  0  0  0  0  0  0  0  0  0
  130.0060  126.6300   66.6730 C   0  0  0  0  0  0  0  0  0  0  0  0
  130.7120  125.6510   65.7590 C   0  0  0  0  0  0  0  0  0  0  0  0
  132.0170  125.2960   66.2980 N   0  0  0  0  0  0  0  0  0  0  0  0
  133.0520  125.4710   65.2920 C   0  0  0  0  0  0  0  0  0  0  0  0
  129.1190  127.6510   66.3560 C   0  0  0  0  0  0  0  0  0  0  0  0
  128.5210  128.1970   65.0820 C   0  0  0  0  0  0  0  0  0  0  0  0
  128.7500  128.2390   67.5170 O   0  0  0  0  0  0  0  0  0  0  0  0
  130.3150  128.4940   70.6190 C   0  0  0  0  0  0  0  0  0  0  0  0
  130.1520  128.8540   71.9550 C   0  0  0  0  0  0  0  0  0  0  0  0
  126.4323  129.7537   75.7193 H   0  0  0  0  0  0  0  0  0  0  0  0
  125.7933  130.5093   74.2202 H   0  0  0  0  0  0  0  0  0  0  0  0
  126.2704  128.7775   74.2202 H   0  0  0  0  0  0  0  0  0  0  0  0
  127.8934  130.8147   73.3254 H   0  0  0  0  0  0  0  0  0  0  0  0
  128.4182  130.7100   75.0344 H   0  0  0  0  0  0  0  0  0  0  0  0
  126.8863  127.9521   72.3634 H   0  0  0  0  0  0  0  0  0  0  0  0
  127.1806  127.3069   69.9829 H   0  0  0  0  0  0  0  0  0  0  0  0
  130.1011  124.7413   65.6627 H   0  0  0  0  0  0  0  0  0  0  0  0
  130.8512  126.1220   64.7747 H   0  0  0  0  0  0  0  0  0  0  0  0
  132.0050  124.3290   66.5900 H   0  0  0  0  0  0  0  0  0  0  0  0
  134.0206  125.6348   65.7870 H   0  0  0  0  0  0  0  0  0  0  0  0
  133.1090  124.5697   64.6639 H   0  0  0  0  0  0  0  0  0  0  0  0
  132.8095  126.3409   64.6639 H   0  0  0  0  0  0  0  0  0  0  0  0
  127.7294  128.9198   65.3289 H   0  0  0  0  0  0  0  0  0  0  0  0
  129.3045  128.6978   64.4944 H   0  0  0  0  0  0  0  0  0  0  0  0
  128.0933  127.3713   64.4944 H   0  0  0  0  0  0  0  0  0  0  0  0
  131.2852  128.6513   70.1251 H   0  0  0  0  0  0  0  0  0  0  0  0
  130.9937  129.2925   72.5111 H   0  0  0  0  0  0  0  0  0  0  0  0
  1  2  1  0
  2  3  1  0
  3  4  1  0
  4  5  2  0
  5  6  1  0
  6  7  2  0
  7  8  1  0
  8  9  2  0
  9 10  1  0
 10 11  1  0
 11 12  1  0
 12 13  1  0
 10 14  2  0
 14 15  1  0
 14 16  1  0
  7 17  1  0
 17 18  2  0
 18  4  1  0
 16  8  1  0
  1 19  1  0
  1 20  1  0
  1 21  1  0
  2 22  1  0
  2 23  1  0
  5 24  1  0
  6 25  1  0
 11 26  1  0
 11 27  1  0
 12 28  1  0
 13 29  1  0
 13 30  1  0
 13 31  1  0
 15 32  1  0
 15 33  1  0
 15 34  1  0
 17 35  1  0
 18 36  1  0
M  END
>  <Binding energies>  (1) 
[-5.31]

>  <Ligand effiencies>  (1) 
[-0.2794736842105263]

>  <Interactions>  (1) 
["H-A:TYR:484:OH:4343, V-A:ARG:545:CZ:4921, V-A:GLU:543:CD:4903, V-A:HIS:456:CE1:4064, V-B:HIS:456:CE1:9037, H-B:LYS:547:NZ:9919, V-B:HIS:456:CD2:9035, H-A:LYS:547:NZ:4946, H-A:HIS:456:NE2:4065, V-B:HIS:456:CB:9032"]

$$$$
RR33_Rahimova_2017-again1
     RDKit          3D

 37 38  0  0  0  0  0  0  0  0999 V2000
  135.0100  124.7560   66.6220 C   0  0  0  0  0  0  0  0  0  0  0  0
  133.8670  125.1580   65.6860 C   0  0  0  0  0  0  0  0  0  0  0  0
  133.9900  124.4260   64.4710 O   0  0  0  0  0  0  0  0  0  0  0  0
  132.9150  124.3630   63.6050 C   0  0  0  0  0  0  0  0  0  0  0  0
  132.5450  123.0920   63.1620 C   0  0  0  0  0  0  0  0  0  0  0  0
  131.4740  122.9290   62.2890 C   0  0  0  0  0  0  0  0  0  0  0  0
  130.7530  124.0410   61.8410 C   0  0  0  0  0  0  0  0  0  0  0  0
  129.6010  123.8700   60.9040 C   0  0  0  0  0  0  0  0  0  0  0  0
  128.3720  124.3120   61.0540 N   0  0  0  0  0  0  0  0  0  0  0  0
  127.7210  123.9170   59.9700 C   0  0  0  0  0  0  0  0  0  0  0  0
  126.2500  124.2320   59.7800 C   0  0  0  0  0  0  0  0  0  0  0  0
  125.6490  124.6630   61.1290 N   0  0  0  0  0  0  0  0  0  0  0  0
  124.7690  123.5870   61.7810 C   0  0  0  0  0  0  0  0  0  0  0  0
  128.5840  123.2060   59.1440 C   0  0  0  0  0  0  0  0  0  0  0  0
  128.4650  122.5090   57.8110 C   0  0  0  0  0  0  0  0  0  0  0  0
  129.7940  123.1820   59.7500 O   0  0  0  0  0  0  0  0  0  0  0  0
  131.1210  125.3170   62.2820 C   0  0  0  0  0  0  0  0  0  0  0  0
  132.1920  125.4790   63.1570 C   0  0  0  0  0  0  0  0  0  0  0  0
  134.6856  124.8701   67.6669 H   0  0  0  0  0  0  0  0  0  0  0  0
  135.2848  123.7073   66.4358 H   0  0  0  0  0  0  0  0  0  0  0  0
  135.8808  125.4018   66.4358 H   0  0  0  0  0  0  0  0  0  0  0  0
  132.9019  124.9271   66.1606 H   0  0  0  0  0  0  0  0  0  0  0  0
  133.9156  126.2372   65.4787 H   0  0  0  0  0  0  0  0  0  0  0  0
  133.1057  122.2106   63.5065 H   0  0  0  0  0  0  0  0  0  0  0  0
  131.1929  121.9212   61.9495 H   0  0  0  0  0  0  0  0  0  0  0  0
  126.1392  125.0474   59.0501 H   0  0  0  0  0  0  0  0  0  0  0  0
  125.7249  123.3396   59.4086 H   0  0  0  0  0  0  0  0  0  0  0  0
  126.4010  124.8990   61.7600 H   0  0  0  0  0  0  0  0  0  0  0  0
  125.0940  125.4940   60.9830 H   0  0  0  0  0  0  0  0  0  0  0  0
  124.8377  123.6710   62.8756 H   0  0  0  0  0  0  0  0  0  0  0  0
  123.7242  123.7282   61.4672 H   0  0  0  0  0  0  0  0  0  0  0  0
  125.1147  122.5910   61.4672 H   0  0  0  0  0  0  0  0  0  0  0  0
  128.2819  121.4365   57.9731 H   0  0  0  0  0  0  0  0  0  0  0  0
  127.6278  122.9423   57.2441 H   0  0  0  0  0  0  0  0  0  0  0  0
  129.3985  122.6400   57.2441 H   0  0  0  0  0  0  0  0  0  0  0  0
  130.5606  126.1977   61.9352 H   0  0  0  0  0  0  0  0  0  0  0  0
  132.4725  126.4863   63.4985 H   0  0  0  0  0  0  0  0  0  0  0  0
  1  2  1  0
  2  3  1  0
  3  4  1  0
  4  5  2  0
  5  6  1  0
  6  7  2  0
  7  8  1  0
  8  9  2  0
  9 10  1  0
 10 11  1  0
 11 12  1  0
 12 13  1  0
 10 14  2  0
 14 15  1  0
 14 16  1  0
  7 17  1  0
 17 18  2  0
 18  4  1  0
 16  8  1  0
  1 19  1  0
  1 20  1  0
  1 21  1  0
  2 22  1  0
  2 23  1  0
  5 24  1  0
  6 25  1  0
 11 26  1  0
 11 27  1  0
 12 28  1  0
 12 29  1  0
 13 30  1  0
 13 31  1  0
 13 32  1  0
 15 33  1  0
 15 34  1  0
 15 35  1  0
 17 36  1  0
 18 37  1  0
M  CHG  1  12   1
M  END
>  <Binding energies>  (1) 
[-5.69]

>  <Ligand effiencies>  (1) 
[-0.28450000000000003]

>  <Interactions>  (1) 
["V-A:ARG:545:CD:4918, H-A:TYR:484:OH:4343, V-A:ARG:545:CZ:4921, V-A:ARG:545:CG:4917, H-A:GLY:454:N:4045, V-A:GLY:454:CA:4044, V-B:GLU:543:CD:9876, H-B:GLU:543:OE2:9878, V-B:TYR:539:CD2:9842, H-B:GLU:543:OE1:9877, V-B:TYR:539:CE2:9844, V-A:HIS:456:CD2:4063, V-A:GLY:453:C:4037, V-A:GLY:453:CA:4039, V-B:PRO:540:CB:9853, V-B:PRO:540:CA:9851, H-B:ASP:366:OD2:8182, V-B:TYR:539:C:9835, V-B:ASN:362:CB:8143, V-B:PRO:540:N:9852, V-A:ILE:455:C:4047"]

$$$$
RR3_Rahimova_2017
     RDKit          3D

 63 69  0  0  0  0  0  0  0  0999 V2000
  128.9050  135.5590   74.5140 C   0  0  0  0  0  0  0  0  0  0  0  0
  129.6330  135.2400   73.3730 C   0  0  0  0  0  0  0  0  0  0  0  0
  129.7330  133.9130   72.9660 C   0  0  0  0  0  0  0  0  0  0  0  0
  129.1070  132.8890   73.6930 C   0  0  0  0  0  0  0  0  0  0  0  0
  129.2140  131.4610   73.2540 C   0  0  0  0  0  0  0  0  0  0  0  0
  130.3900  130.9750   72.6680 C   0  0  0  0  0  0  0  0  0  0  0  0
  130.4880  129.6480   72.2560 C   0  0  0  0  0  0  0  0  0  0  0  0
  129.4060  128.7780   72.4150 C   0  0  0  0  0  0  0  0  0  0  0  0
  129.5030  127.3530   71.9710 C   0  0  0  0  0  0  0  0  0  0  0  0
  129.9940  126.4320   72.7930 N   0  0  0  0  0  0  0  0  0  0  0  0
  129.9170  125.2850   72.1610 C   0  0  0  0  0  0  0  0  0  0  0  0
  130.3480  123.9980   72.6980 C   0  0  0  0  0  0  0  0  0  0  0  0
  131.4680  123.7820   73.4840 C   0  0  0  0  0  0  0  0  0  0  0  0
  131.5640  122.4550   73.8160 N   0  0  0  0  0  0  0  0  0  0  0  0
  130.5160  121.7560   73.2590 C   0  0  0  0  0  0  0  0  0  0  0  0
  130.1920  120.3960   73.3170 C   0  0  0  0  0  0  0  0  0  0  0  0
  129.0460  119.9880   72.6360 C   0  0  0  0  0  0  0  0  0  0  0  0
  128.2560  120.8860   71.9260 C   0  0  0  0  0  0  0  0  0  0  0  0
  128.5770  122.2410   71.8680 C   0  0  0  0  0  0  0  0  0  0  0  0
  129.7240  122.7050   72.5390 C   0  0  0  0  0  0  0  0  0  0  0  0
  129.3790  125.4500   70.9140 N   0  0  0  0  0  0  0  0  0  0  0  0
  129.1180  126.7850   70.7440 C   0  0  0  0  0  0  0  0  0  0  0  0
  128.5780  127.3500   69.4710 C   0  0  0  0  0  0  0  0  0  0  0  0
  129.2550  128.3810   68.8200 C   0  0  0  0  0  0  0  0  0  0  0  0
  128.7490  128.9180   67.6410 C   0  0  0  0  0  0  0  0  0  0  0  0
  127.5560  128.4360   67.0830 C   0  0  0  0  0  0  0  0  0  0  0  0
  127.0030  129.0290   65.8260 C   0  0  0  0  0  0  0  0  0  0  0  0
  125.6460  128.8860   65.4980 C   0  0  0  0  0  0  0  0  0  0  0  0
  125.1310  129.4420   64.3290 C   0  0  0  0  0  0  0  0  0  0  0  0
  125.9700  130.1510   63.4750 C   0  0  0  0  0  0  0  0  0  0  0  0
  127.3180  130.3070   63.7810 C   0  0  0  0  0  0  0  0  0  0  0  0
  127.8300  129.7480   64.9490 C   0  0  0  0  0  0  0  0  0  0  0  0
  126.8940  127.3880   67.7380 C   0  0  0  0  0  0  0  0  0  0  0  0
  127.3980  126.8480   68.9180 C   0  0  0  0  0  0  0  0  0  0  0  0
  128.2350  129.2500   73.0100 C   0  0  0  0  0  0  0  0  0  0  0  0
  128.1400  130.5780   73.4200 C   0  0  0  0  0  0  0  0  0  0  0  0
  128.3790  133.2330   74.8410 C   0  0  0  0  0  0  0  0  0  0  0  0
  128.2760  134.5600   75.2500 C   0  0  0  0  0  0  0  0  0  0  0  0
  128.8260  136.6077   74.8366 H   0  0  0  0  0  0  0  0  0  0  0  0
  130.1280  136.0337   72.7942 H   0  0  0  0  0  0  0  0  0  0  0  0
  130.3099  133.6637   72.0632 H   0  0  0  0  0  0  0  0  0  0  0  0
  131.2475  131.6503   72.5314 H   0  0  0  0  0  0  0  0  0  0  0  0
  131.4217  129.2831   71.8032 H   0  0  0  0  0  0  0  0  0  0  0  0
  132.1777  124.5621   73.7966 H   0  0  0  0  0  0  0  0  0  0  0  0
  132.3120  122.0930   74.3880 H   0  0  0  0  0  0  0  0  0  0  0  0
  130.8139  119.6806   73.8751 H   0  0  0  0  0  0  0  0  0  0  0  0
  128.7586  118.9265   72.6609 H   0  0  0  0  0  0  0  0  0  0  0  0
  127.3615  120.5200   71.4007 H   0  0  0  0  0  0  0  0  0  0  0  0
  127.9413  122.9397   71.3044 H   0  0  0  0  0  0  0  0  0  0  0  0
  129.2280  124.7220   70.2300 H   0  0  0  0  0  0  0  0  0  0  0  0
  130.1934  128.7712   69.2409 H   0  0  0  0  0  0  0  0  0  0  0  0
  129.2922  129.7323   67.1391 H   0  0  0  0  0  0  0  0  0  0  0  0
  124.9803  128.3277   66.1727 H   0  0  0  0  0  0  0  0  0  0  0  0
  124.0659  129.3210   64.0823 H   0  0  0  0  0  0  0  0  0  0  0  0
  125.5647  130.5910   62.5519 H   0  0  0  0  0  0  0  0  0  0  0  0
  127.9767  130.8696   63.1031 H   0  0  0  0  0  0  0  0  0  0  0  0
  128.8967  129.8715   65.1875 H   0  0  0  0  0  0  0  0  0  0  0  0
  125.9623  126.9863   67.3131 H   0  0  0  0  0  0  0  0  0  0  0  0
  126.8656  126.0241   69.4159 H   0  0  0  0  0  0  0  0  0  0  0  0
  127.3828  128.5699   73.1559 H   0  0  0  0  0  0  0  0  0  0  0  0
  127.2082  130.9380   73.8806 H   0  0  0  0  0  0  0  0  0  0  0  0
  127.8829  132.4445   75.4259 H   0  0  0  0  0  0  0  0  0  0  0  0
  127.6999  134.8173   76.1510 H   0  0  0  0  0  0  0  0  0  0  0  0
  1  2  2  0
  2  3  1  0
  3  4  2  0
  4  5  1  0
  5  6  2  0
  6  7  1  0
  7  8  2  0
  8  9  1  0
  9 10  1  0
 10 11  2  0
 11 12  1  0
 12 13  2  0
 13 14  1  0
 14 15  1  0
 15 16  2  0
 16 17  1  0
 17 18  2  0
 18 19  1  0
 19 20  2  0
 11 21  1  0
 21 22  1  0
 22 23  1  0
 23 24  2  0
 24 25  1  0
 25 26  2  0
 26 27  1  0
 27 28  2  0
 28 29  1  0
 29 30  2  0
 30 31  1  0
 31 32  2  0
 26 33  1  0
 33 34  2  0
  8 35  1  0
 35 36  2  0
  4 37  1  0
 37 38  2  0
 38  1  1  0
 36  5  1  0
 22  9  2  0
 34 23  1  0
 20 12  1  0
 32 27  1  0
 20 15  1  0
  1 39  1  0
  2 40  1  0
  3 41  1  0
  6 42  1  0
  7 43  1  0
 13 44  1  0
 14 45  1  0
 16 46  1  0
 17 47  1  0
 18 48  1  0
 19 49  1  0
 21 50  1  0
 24 51  1  0
 25 52  1  0
 28 53  1  0
 29 54  1  0
 30 55  1  0
 31 56  1  0
 32 57  1  0
 33 58  1  0
 34 59  1  0
 35 60  1  0
 36 61  1  0
 37 62  1  0
 38 63  1  0
M  END
>  <Binding energies>  (1) 
[-10.06]

>  <Ligand effiencies>  (1) 
[-0.2515]

>  <Interactions>  (1) 
["V-A:GLY:544:C:4907, V-A:GLU:543:CB:4901, V-A:HIS:456:CE1:4064, V-A:GLY:544:CA:4909, V-B:HIS:456:CE1:9037, V-A:GLU:543:C:4897, V-B:GLU:543:CB:9874, V-B:ARG:545:CZ:9894, V-B:ARG:545:CG:9890, V-B:GLU:543:C:9870, H-B:GLU:543:O:9871, H-B:LYS:547:NZ:9919, V-B:HIS:456:CD2:9035, V-B:GLY:544:CA:9882, V-A:HIS:456:CG:4061, V-A:TYR:484:CB:4336, V-B:ASP:473:CG:9207, V-B:TYR:484:CB:9308, V-B:ASP:473:CB:9206, V-A:LYS:547:CE:4945, V-A:ASP:473:CG:4235, V-A:ASP:473:CB:4234, V-A:HIS:456:CB:4060, H-A:ASP:473:OD1:4236, H-A:ASP:473:OD2:4237, V-B:TYR:484:C:9304"]

$$$$
RR4_Rahimova_2017
     RDKit          3D

 66 70  0  0  0  0  0  0  0  0999 V2000
  127.9630  129.8190   74.6050 C   0  0  0  0  0  0  0  0  0  0  0  0
  128.9530  128.9150   74.1270 O   0  0  0  0  0  0  0  0  0  0  0  0
  129.0700  128.7000   72.7670 C   0  0  0  0  0  0  0  0  0  0  0  0
  127.9450  128.2020   72.1140 C   0  0  0  0  0  0  0  0  0  0  0  0
  127.9700  127.9560   70.7440 C   0  0  0  0  0  0  0  0  0  0  0  0
  129.1250  128.2000   69.9860 C   0  0  0  0  0  0  0  0  0  0  0  0
  129.1490  127.9330   68.5080 C   0  0  0  0  0  0  0  0  0  0  0  0
  128.3940  128.6720   67.5920 C   0  0  0  0  0  0  0  0  0  0  0  0
  128.4540  128.3870   66.2220 C   0  0  0  0  0  0  0  0  0  0  0  0
  127.6420  129.2380   65.3010 C   0  0  0  0  0  0  0  0  0  0  0  0
  128.2400  130.2980   64.6140 C   0  0  0  0  0  0  0  0  0  0  0  0
  127.4930  131.0890   63.7450 C   0  0  0  0  0  0  0  0  0  0  0  0
  126.1380  130.8310   63.5400 C   0  0  0  0  0  0  0  0  0  0  0  0
  125.4780  131.6670   62.6600 O   0  0  0  0  0  0  0  0  0  0  0  0
  126.0080  132.9630   62.4030 C   0  0  0  0  0  0  0  0  0  0  0  0
  125.5340  129.7640   64.2230 C   0  0  0  0  0  0  0  0  0  0  0  0
  126.2840  128.9750   65.0920 C   0  0  0  0  0  0  0  0  0  0  0  0
  129.2730  127.3150   65.7910 C   0  0  0  0  0  0  0  0  0  0  0  0
  129.3740  126.9740   64.3690 C   0  0  0  0  0  0  0  0  0  0  0  0
  129.4520  126.7050   63.2460 N   0  0  0  0  0  0  0  0  0  0  0  0
  129.9860  126.5910   66.7740 C   0  0  0  0  0  0  0  0  0  0  0  0
  131.0510  125.2100   66.4170 S   0  0  0  0  0  0  0  0  0  0  0  0
  132.6570  125.8740   65.8640 C   0  0  0  0  0  0  0  0  0  0  0  0
  133.1730  125.2790   64.5470 C   0  0  0  0  0  0  0  0  0  0  0  0
  134.3210  124.8350   64.4670 O   0  0  0  0  0  0  0  0  0  0  0  0
  132.2840  125.3050   63.5270 N   0  0  0  0  0  0  0  0  0  0  0  0
  132.4490  124.8430   62.2180 C   0  0  0  0  0  0  0  0  0  0  0  0
  133.2490  123.3410   61.8370 S   0  0  0  0  0  0  0  0  0  0  0  0
  133.0090  123.5820   60.1340 C   0  0  0  0  0  0  0  0  0  0  0  0
  132.3370  124.7860   59.8720 C   0  0  0  0  0  0  0  0  0  0  0  0
  132.0070  125.4910   61.0550 C   0  0  0  0  0  0  0  0  0  0  0  0
  131.2890  126.7620   61.0600 C   0  0  0  0  0  0  0  0  0  0  0  0
  130.7210  127.7700   61.0630 N   0  0  0  0  0  0  0  0  0  0  0  0
  131.9720  125.2080   58.4440 C   0  0  0  0  0  0  0  0  0  0  0  0
  132.0710  124.0050   57.4780 C   0  0  0  0  0  0  0  0  0  0  0  0
  133.3650  123.1980   57.6870 C   0  0  0  0  0  0  0  0  0  0  0  0
  133.4270  122.5560   59.0890 C   0  0  0  0  0  0  0  0  0  0  0  0
  129.9350  126.9080   68.0890 N   0  0  0  0  0  0  0  0  0  0  0  0
  130.2520  128.7060   70.6530 C   0  0  0  0  0  0  0  0  0  0  0  0
  130.2300  128.9520   72.0220 C   0  0  0  0  0  0  0  0  0  0  0  0
  127.9652  129.8170   75.7050 H   0  0  0  0  0  0  0  0  0  0  0  0
  128.1850  130.8326   74.2397 H   0  0  0  0  0  0  0  0  0  0  0  0
  126.9737  129.5061   74.2397 H   0  0  0  0  0  0  0  0  0  0  0  0
  127.0275  128.0011   72.6866 H   0  0  0  0  0  0  0  0  0  0  0  0
  127.0698  127.5641   70.2479 H   0  0  0  0  0  0  0  0  0  0  0  0
  127.7464  129.4854   67.9510 H   0  0  0  0  0  0  0  0  0  0  0  0
  129.3095  130.5091   64.7610 H   0  0  0  0  0  0  0  0  0  0  0  0
  127.9756  131.9240   63.2160 H   0  0  0  0  0  0  0  0  0  0  0  0
  126.2154  133.4701   63.3569 H   0  0  0  0  0  0  0  0  0  0  0  0
  126.9404  132.8702   61.8268 H   0  0  0  0  0  0  0  0  0  0  0  0
  125.2778  133.5501   61.8268 H   0  0  0  0  0  0  0  0  0  0  0  0
  124.4656  129.5503   64.0717 H   0  0  0  0  0  0  0  0  0  0  0  0
  125.8039  128.1372   65.6189 H   0  0  0  0  0  0  0  0  0  0  0  0
  132.5521  126.9610   65.7320 H   0  0  0  0  0  0  0  0  0  0  0  0
  133.3903  125.6031   66.6378 H   0  0  0  0  0  0  0  0  0  0  0  0
  131.3770  125.6980   63.7280 H   0  0  0  0  0  0  0  0  0  0  0  0
  130.9427  125.5959   58.4338 H   0  0  0  0  0  0  0  0  0  0  0  0
  132.6757  125.9863   58.1138 H   0  0  0  0  0  0  0  0  0  0  0  0
  131.2091  123.3428   57.6470 H   0  0  0  0  0  0  0  0  0  0  0  0
  132.0788  124.3964   56.4500 H   0  0  0  0  0  0  0  0  0  0  0  0
  133.4130  122.4018   56.9296 H   0  0  0  0  0  0  0  0  0  0  0  0
  134.2152  123.8895   57.5925 H   0  0  0  0  0  0  0  0  0  0  0  0
  132.7453  121.6936   59.1282 H   0  0  0  0  0  0  0  0  0  0  0  0
  134.4541  122.2200   59.2942 H   0  0  0  0  0  0  0  0  0  0  0  0
  131.1696  128.9118   70.0824 H   0  0  0  0  0  0  0  0  0  0  0  0
  131.1271  129.3461   72.5220 H   0  0  0  0  0  0  0  0  0  0  0  0
  1  2  1  0
  2  3  1  0
  3  4  2  0
  4  5  1  0
  5  6  2  0
  6  7  1  0
  7  8  2  0
  8  9  1  0
  9 10  1  0
 10 11  2  0
 11 12  1  0
 12 13  2  0
 13 14  1  0
 14 15  1  0
 13 16  1  0
 16 17  2  0
  9 18  2  0
 18 19  1  0
 19 20  3  0
 18 21  1  0
 21 22  1  0
 22 23  1  0
 23 24  1  0
 24 25  2  0
 24 26  1  0
 26 27  1  0
 27 28  1  0
 28 29  1  0
 29 30  2  0
 30 31  1  0
 31 32  1  0
 32 33  3  0
 30 34  1  0
 34 35  1  0
 35 36  1  0
 36 37  1  0
 21 38  2  0
  6 39  1  0
 39 40  2  0
 40  3  1  0
 38  7  1  0
 17 10  1  0
 31 27  2  0
 37 29  1  0
  1 41  1  0
  1 42  1  0
  1 43  1  0
  4 44  1  0
  5 45  1  0
  8 46  1  0
 11 47  1  0
 12 48  1  0
 15 49  1  0
 15 50  1  0
 15 51  1  0
 16 52  1  0
 17 53  1  0
 23 54  1  0
 23 55  1  0
 26 56  1  0
 34 57  1  0
 34 58  1  0
 35 59  1  0
 35 60  1  0
 36 61  1  0
 36 62  1  0
 37 63  1  0
 37 64  1  0
 39 65  1  0
 40 66  1  0
M  END
>  <Binding energies>  (1) 
[-9.85]

>  <Ligand effiencies>  (1) 
[-0.24024390243902438]

>  <Interactions>  (1) 
["V-A:ARG:545:CD:4918, H-A:TYR:484:OH:4343, V-A:ARG:545:CZ:4921, V-A:ARG:545:CG:4917, H-A:GLY:454:N:4045, V-A:ASP:366:CG:3208, V-A:GLU:543:CD:4903, V-A:GLU:543:CG:4902, V-A:GLY:544:C:4907, V-A:HIS:456:CE1:4064, V-B:HIS:456:CE1:9037, H-A:GLU:543:OE1:4904, V-B:GLU:543:CD:9876, V-A:GLU:543:C:4897, V-B:TYR:539:CE2:9844, V-A:ASP:366:CB:3207, V-A:ILE:369:CD1:3234, H-B:LYS:547:NZ:9919, V-B:HIS:456:CD2:9035, H-A:LYS:547:NZ:4946, H-A:HIS:456:NE2:4065, V-A:LYS:547:CE:4945, V-B:LEU:475:CD2:9226, V-A:ILE:369:CG2:3232, H-A:ARG:545:NH1:4922, V-A:ILE:369:CB:3231, V-B:TYR:539:CZ:9845"]

$$$$
RR5_Rahimova_2017
     RDKit          3D

 77 82  0  0  0  0  0  0  0  0999 V2000
  128.7570  122.5280   58.1080 O   0  0  0  0  0  0  0  0  0  0  0  0
  128.3310  123.1280   59.0940 C   0  0  0  0  0  0  0  0  0  0  0  0
  126.9000  123.6970   59.0820 C   0  0  0  0  0  0  0  0  0  0  0  0
  126.4620  124.3550   60.4390 C   0  0  2  0  0  0  0  0  0  0  0  0
  127.4110  125.3460   60.9860 N   0  0  0  0  0  0  0  0  0  0  0  0
  127.5570  126.6040   60.4190 C   0  0  0  0  0  0  0  0  0  0  0  0
  126.9190  127.0610   59.4670 O   0  0  0  0  0  0  0  0  0  0  0  0
  128.5330  127.2540   61.0750 O   0  0  0  0  0  0  0  0  0  0  0  0
  128.8090  126.9910   62.4480 C   0  0  0  0  0  0  0  0  0  0  0  0
  128.4340  128.2050   63.3260 C   0  0  0  0  0  0  0  0  0  0  0  0
  127.0650  128.7830   63.0130 C   0  0  0  0  0  0  0  0  0  0  0  0
  126.5670  129.2880   61.8090 C   0  0  0  0  0  0  0  0  0  0  0  0
  125.2530  129.7540   61.7410 C   0  0  0  0  0  0  0  0  0  0  0  0
  124.4370  129.7180   62.8730 C   0  0  0  0  0  0  0  0  0  0  0  0
  124.9330  129.2170   64.0780 C   0  0  0  0  0  0  0  0  0  0  0  0
  126.2480  128.7510   64.1440 C   0  0  0  0  0  0  0  0  0  0  0  0
  127.0210  128.1890   65.2620 C   0  0  0  0  0  0  0  0  0  0  0  0
  126.6740  127.9580   66.5950 C   0  0  0  0  0  0  0  0  0  0  0  0
  127.6200  127.4250   67.4720 C   0  0  0  0  0  0  0  0  0  0  0  0
  128.9050  127.1210   67.0170 C   0  0  0  0  0  0  0  0  0  0  0  0
  129.2450  127.3490   65.6830 C   0  0  0  0  0  0  0  0  0  0  0  0
  128.3010  127.8800   64.8010 C   0  0  0  0  0  0  0  0  0  0  0  0
  126.1670  123.2720   61.5050 C   0  0  0  0  0  0  0  0  0  0  0  0
  125.0620  122.8380   61.7640 O   0  0  0  0  0  0  0  0  0  0  0  0
  127.3350  122.8700   62.0880 O   0  0  0  0  0  0  0  0  0  0  0  0
  129.0210  123.3120   60.2430 N   0  0  0  0  0  0  0  0  0  0  0  0
  130.3970  122.9360   60.6860 C   0  0  0  0  0  0  0  0  0  0  0  0
  130.3010  121.3750   60.7630 C   0  0  0  0  0  0  0  0  0  0  0  0
  129.0790  120.7270   61.0090 C   0  0  0  0  0  0  0  0  0  0  0  0
  129.0050  119.3380   61.0730 C   0  0  0  0  0  0  0  0  0  0  0  0
  130.1540  118.5740   60.9020 C   0  0  0  0  0  0  0  0  0  0  0  0
  131.3770  119.1890   60.6550 C   0  0  0  0  0  0  0  0  0  0  0  0
  131.4470  120.5770   60.5810 C   0  0  0  0  0  0  0  0  0  0  0  0
  131.3930  123.4250   59.5830 C   0  0  0  0  0  0  0  0  0  0  0  0
  132.7340  123.0080   59.5610 C   0  0  0  0  0  0  0  0  0  0  0  0
  133.6080  123.4710   58.5810 C   0  0  0  0  0  0  0  0  0  0  0  0
  133.1540  124.3580   57.6110 C   0  0  0  0  0  0  0  0  0  0  0  0
  131.8300  124.7830   57.6090 C   0  0  0  0  0  0  0  0  0  0  0  0
  130.9560  124.3130   58.5840 C   0  0  0  0  0  0  0  0  0  0  0  0
  130.5980  123.6030   62.0890 C   0  0  0  0  0  0  0  0  0  0  0  0
  131.3430  124.7880   62.2270 C   0  0  0  0  0  0  0  0  0  0  0  0
  131.5320  125.3810   63.4730 C   0  0  0  0  0  0  0  0  0  0  0  0
  130.9730  124.8000   64.6050 C   0  0  0  0  0  0  0  0  0  0  0  0
  130.2200  123.6370   64.4990 C   0  0  0  0  0  0  0  0  0  0  0  0
  130.0330  123.0470   63.2520 C   0  0  0  0  0  0  0  0  0  0  0  0
  126.8379  124.4598   58.2919 H   0  0  0  0  0  0  0  0  0  0  0  0
  126.2220  122.8487   58.9066 H   0  0  0  0  0  0  0  0  0  0  0  0
  125.5474  124.9153   60.1951 H   0  0  0  0  0  0  0  0  0  0  0  0
  128.0810  125.0360   61.6740 H   0  0  0  0  0  0  0  0  0  0  0  0
  128.2245  126.1174   62.7723 H   0  0  0  0  0  0  0  0  0  0  0  0
  129.8856  126.7948   62.5595 H   0  0  0  0  0  0  0  0  0  0  0  0
  129.2631  128.8935   63.1058 H   0  0  0  0  0  0  0  0  0  0  0  0
  127.2093  129.3182   60.9165 H   0  0  0  0  0  0  0  0  0  0  0  0
  124.8597  130.1505   60.7933 H   0  0  0  0  0  0  0  0  0  0  0  0
  123.4016  130.0849   62.8155 H   0  0  0  0  0  0  0  0  0  0  0  0
  124.2913  129.1894   64.9710 H   0  0  0  0  0  0  0  0  0  0  0  0
  125.6608  128.1948   66.9517 H   0  0  0  0  0  0  0  0  0  0  0  0
  127.3530  127.2440   68.5236 H   0  0  0  0  0  0  0  0  0  0  0  0
  129.6491  126.7018   67.7103 H   0  0  0  0  0  0  0  0  0  0  0  0
  130.2576  127.1103   65.3256 H   0  0  0  0  0  0  0  0  0  0  0  0
  127.7080  123.5460   62.6570 H   0  0  0  0  0  0  0  0  0  0  0  0
  128.5560  123.9100   60.9100 H   0  0  0  0  0  0  0  0  0  0  0  0
  128.1674  121.3256   61.1531 H   0  0  0  0  0  0  0  0  0  0  0  0
  128.0389  118.8459   61.2586 H   0  0  0  0  0  0  0  0  0  0  0  0
  130.0956  117.4772   60.9624 H   0  0  0  0  0  0  0  0  0  0  0  0
  132.2839  118.5816   60.5189 H   0  0  0  0  0  0  0  0  0  0  0  0
  132.4144  121.0592   60.3768 H   0  0  0  0  0  0  0  0  0  0  0  0
  133.0980  122.3074   60.3270 H   0  0  0  0  0  0  0  0  0  0  0  0
  134.6557  123.1358   58.5741 H   0  0  0  0  0  0  0  0  0  0  0  0
  133.8470  124.7259   56.8400 H   0  0  0  0  0  0  0  0  0  0  0  0
  131.4759  125.4866   56.8412 H   0  0  0  0  0  0  0  0  0  0  0  0
  129.9062  124.6413   58.5733 H   0  0  0  0  0  0  0  0  0  0  0  0
  131.7846  125.2551   61.3343 H   0  0  0  0  0  0  0  0  0  0  0  0
  132.1214  126.3056   63.5607 H   0  0  0  0  0  0  0  0  0  0  0  0
  131.1275  125.2635   65.5906 H   0  0  0  0  0  0  0  0  0  0  0  0
  129.7735  123.1844   65.3967 H   0  0  0  0  0  0  0  0  0  0  0  0
  129.4323  122.1288   63.1742 H   0  0  0  0  0  0  0  0  0  0  0  0
  1  2  2  0
  2  3  1  0
  3  4  1  0
  4  5  1  0
  5  6  1  0
  6  7  2  0
  6  8  1  0
  8  9  1  0
  9 10  1  0
 10 11  1  0
 11 12  2  0
 12 13  1  0
 13 14  2  0
 14 15  1  0
 15 16  2  0
 16 17  1  0
 17 18  2  0
 18 19  1  0
 19 20  2  0
 20 21  1  0
 21 22  2  0
  4 23  1  0
 23 24  2  0
 23 25  1  0
  2 26  1  0
 26 27  1  0
 27 28  1  0
 28 29  2  0
 29 30  1  0
 30 31  2  0
 31 32  1  0
 32 33  2  0
 27 34  1  0
 34 35  2  0
 35 36  1  0
 36 37  2  0
 37 38  1  0
 38 39  2  0
 27 40  1  0
 40 41  2  0
 41 42  1  0
 42 43  2  0
 43 44  1  0
 44 45  2  0
 22 10  1  0
 33 28  1  0
 39 34  1  0
 45 40  1  0
 16 11  1  0
 22 17  1  0
  3 46  1  0
  3 47  1  0
  4 48  1  6
  5 49  1  0
  9 50  1  0
  9 51  1  0
 10 52  1  0
 12 53  1  0
 13 54  1  0
 14 55  1  0
 15 56  1  0
 18 57  1  0
 19 58  1  0
 20 59  1  0
 21 60  1  0
 25 61  1  0
 26 62  1  0
 29 63  1  0
 30 64  1  0
 31 65  1  0
 32 66  1  0
 33 67  1  0
 35 68  1  0
 36 69  1  0
 37 70  1  0
 38 71  1  0
 39 72  1  0
 41 73  1  0
 42 74  1  0
 43 75  1  0
 44 76  1  0
 45 77  1  0
M  END
>  <Binding energies>  (1) 
[-9.86]

>  <Ligand effiencies>  (1) 
[-0.20541666666666666]

>  <Interactions>  (1) 
["V-A:ASP:366:CG:3208, V-A:GLU:543:CD:4903, V-B:GLU:543:CG:9875, V-B:HIS:456:CE1:9037, V-B:GLU:543:CD:9876, V-B:GLU:543:CB:9874, V-A:PRO:482:CB:4321, H-B:GLU:543:OE2:9878, V-A:LEU:475:CD2:4254, V-B:TYR:539:CD2:9842, V-A:TRP:381:CZ3:3366, V-A:TRP:381:CZ2:3365, H-B:GLU:543:OE1:9877, V-A:TYR:484:CE1:4340, V-A:PRO:482:CG:4322, V-A:TRP:381:CH2:3367, V-B:ALA:541:CB:9860, V-B:ARG:545:CZ:9894, V-A:ASP:366:CB:3207, V-A:TYR:531:CZ:4789, V-A:ILE:369:CD1:3234, V-B:PRO:540:CB:9853, V-B:PRO:540:CA:9851, V-B:ASP:366:CG:8180, V-A:ILE:369:CG2:3232, V-B:PRO:540:C:9849, V-B:ALA:541:CA:9858, V-B:TYR:539:C:9835, V-A:TRP:381:CE2:3362, H-B:ALA:541:N:9859, V-A:ILE:369:CB:3231, V-A:ASP:366:C:3203, V-A:ASP:366:CA:3205"]

$$$$
RR5_Rahimova_2017-again1
     RDKit          3D

 76 81  0  0  0  0  0  0  0  0999 V2000
  131.2430  126.3400   60.7700 O   0  0  0  0  0  0  0  0  0  0  0  0
  131.2490  126.9270   61.8520 C   0  0  0  0  0  0  0  0  0  0  0  0
  131.7490  126.1740   63.1020 C   0  0  0  0  0  0  0  0  0  0  0  0
  130.7590  125.1510   63.7480 C   0  0  2  0  0  0  0  0  0  0  0  0
  130.3580  125.6420   65.0840 N   0  0  0  0  0  0  0  0  0  0  0  0
  131.2310  125.6100   66.1660 C   0  0  0  0  0  0  0  0  0  0  0  0
  132.3850  125.1720   66.1650 O   0  0  0  0  0  0  0  0  0  0  0  0
  130.6110  126.1420   67.2360 O   0  0  0  0  0  0  0  0  0  0  0  0
  130.9940  127.4150   67.7450 C   0  0  0  0  0  0  0  0  0  0  0  0
  129.7490  128.2970   67.9570 C   0  0  0  0  0  0  0  0  0  0  0  0
  128.7160  128.1630   66.8520 C   0  0  0  0  0  0  0  0  0  0  0  0
  128.8370  128.4160   65.4830 C   0  0  0  0  0  0  0  0  0  0  0  0
  127.7470  128.2070   64.6360 C   0  0  0  0  0  0  0  0  0  0  0  0
  126.5330  127.7520   65.1560 C   0  0  0  0  0  0  0  0  0  0  0  0
  126.4070  127.5040   66.5230 C   0  0  0  0  0  0  0  0  0  0  0  0
  127.5000  127.7130   67.3670 C   0  0  0  0  0  0  0  0  0  0  0  0
  127.6430  127.5470   68.8220 C   0  0  0  0  0  0  0  0  0  0  0  0
  126.7300  127.1350   69.7940 C   0  0  0  0  0  0  0  0  0  0  0  0
  127.1250  127.0770   71.1320 C   0  0  0  0  0  0  0  0  0  0  0  0
  128.4260  127.4290   71.4950 C   0  0  0  0  0  0  0  0  0  0  0  0
  129.3380  127.8390   70.5200 C   0  0  0  0  0  0  0  0  0  0  0  0
  128.9470  127.8960   69.1790 C   0  0  0  0  0  0  0  0  0  0  0  0
  131.3710  123.6940   63.8160 C   0  0  0  0  0  0  0  0  0  0  0  0
  130.7890  122.9250   64.6170 O   0  0  0  0  0  0  0  0  0  0  0  0
  132.3330  123.4480   63.0490 O   0  0  0  0  0  0  0  0  0  0  0  0
  130.9560  128.2390   61.9760 N   0  0  0  0  0  0  0  0  0  0  0  0
  130.4770  129.2020   60.9520 C   0  0  0  0  0  0  0  0  0  0  0  0
  129.8540  130.4560   61.6450 C   0  0  0  0  0  0  0  0  0  0  0  0
  129.7970  131.6940   60.9810 C   0  0  0  0  0  0  0  0  0  0  0  0
  129.2320  132.8100   61.5910 C   0  0  0  0  0  0  0  0  0  0  0  0
  128.7100  132.7020   62.8760 C   0  0  0  0  0  0  0  0  0  0  0  0
  128.7500  131.4880   63.5540 C   0  0  0  0  0  0  0  0  0  0  0  0
  129.3170  130.3730   62.9420 C   0  0  0  0  0  0  0  0  0  0  0  0
  131.5870  129.8040   60.0320 C   0  0  0  0  0  0  0  0  0  0  0  0
  132.8930  130.0020   60.5120 C   0  0  0  0  0  0  0  0  0  0  0  0
  133.8840  130.5390   59.6960 C   0  0  0  0  0  0  0  0  0  0  0  0
  133.5830  130.8810   58.3810 C   0  0  0  0  0  0  0  0  0  0  0  0
  132.3010  130.6850   57.8780 C   0  0  0  0  0  0  0  0  0  0  0  0
  131.3120  130.1480   58.6980 C   0  0  0  0  0  0  0  0  0  0  0  0
  129.3800  128.4070   60.1610 C   0  0  0  0  0  0  0  0  0  0  0  0
  128.0410  128.3740   60.5860 C   0  0  0  0  0  0  0  0  0  0  0  0
  127.0760  127.6800   59.8630 C   0  0  0  0  0  0  0  0  0  0  0  0
  127.4340  127.0170   58.6940 C   0  0  0  0  0  0  0  0  0  0  0  0
  128.7470  127.0530   58.2380 C   0  0  0  0  0  0  0  0  0  0  0  0
  129.7110  127.7480   58.9640 C   0  0  0  0  0  0  0  0  0  0  0  0
  132.6585  125.6241   62.8183 H   0  0  0  0  0  0  0  0  0  0  0  0
  131.9013  126.9508   63.8658 H   0  0  0  0  0  0  0  0  0  0  0  0
  129.8651  125.0731   63.1117 H   0  0  0  0  0  0  0  0  0  0  0  0
  129.4490  126.0690   65.1890 H   0  0  0  0  0  0  0  0  0  0  0  0
  131.5131  127.2815   68.7056 H   0  0  0  0  0  0  0  0  0  0  0  0
  131.6634  127.9049   67.0226 H   0  0  0  0  0  0  0  0  0  0  0  0
  130.1858  129.3045   68.0213 H   0  0  0  0  0  0  0  0  0  0  0  0
  129.7907  128.7797   65.0729 H   0  0  0  0  0  0  0  0  0  0  0  0
  127.8443  128.4009   63.5576 H   0  0  0  0  0  0  0  0  0  0  0  0
  125.6753  127.5891   64.4868 H   0  0  0  0  0  0  0  0  0  0  0  0
  125.4517  127.1457   66.9341 H   0  0  0  0  0  0  0  0  0  0  0  0
  125.7049  126.8575   69.5075 H   0  0  0  0  0  0  0  0  0  0  0  0
  126.4092  126.7531   71.9019 H   0  0  0  0  0  0  0  0  0  0  0  0
  128.7333  127.3834   72.5502 H   0  0  0  0  0  0  0  0  0  0  0  0
  130.3629  128.1168   70.8069 H   0  0  0  0  0  0  0  0  0  0  0  0
  130.9330  128.5990   62.9190 H   0  0  0  0  0  0  0  0  0  0  0  0
  130.2054  131.7819   59.9634 H   0  0  0  0  0  0  0  0  0  0  0  0
  129.1983  133.7726   61.0598 H   0  0  0  0  0  0  0  0  0  0  0  0
  128.2624  133.5829   63.3594 H   0  0  0  0  0  0  0  0  0  0  0  0
  128.3353  131.4091   64.5698 H   0  0  0  0  0  0  0  0  0  0  0  0
  129.3452  129.4142   63.4805 H   0  0  0  0  0  0  0  0  0  0  0  0
  133.1357  129.7281   61.5493 H   0  0  0  0  0  0  0  0  0  0  0  0
  134.9001  130.6924   60.0883 H   0  0  0  0  0  0  0  0  0  0  0  0
  134.3639  131.3091   57.7352 H   0  0  0  0  0  0  0  0  0  0  0  0
  132.0694  130.9532   56.8366 H   0  0  0  0  0  0  0  0  0  0  0  0
  130.3005  129.9908   58.2953 H   0  0  0  0  0  0  0  0  0  0  0  0
  127.7513  128.9052   61.5047 H   0  0  0  0  0  0  0  0  0  0  0  0
  126.0340  127.6558   60.2146 H   0  0  0  0  0  0  0  0  0  0  0  0
  126.6735  126.4606   58.1265 H   0  0  0  0  0  0  0  0  0  0  0  0
  129.0231  126.5348   57.3078 H   0  0  0  0  0  0  0  0  0  0  0  0
  130.7469  127.7819   58.5954 H   0  0  0  0  0  0  0  0  0  0  0  0
  1  2  2  0
  2  3  1  0
  3  4  1  0
  4  5  1  0
  5  6  1  0
  6  7  2  0
  6  8  1  0
  8  9  1  0
  9 10  1  0
 10 11  1  0
 11 12  2  0
 12 13  1  0
 13 14  2  0
 14 15  1  0
 15 16  2  0
 16 17  1  0
 17 18  2  0
 18 19  1  0
 19 20  2  0
 20 21  1  0
 21 22  2  0
  4 23  1  0
 23 24  2  0
 23 25  1  0
  2 26  1  0
 26 27  1  0
 27 28  1  0
 28 29  2  0
 29 30  1  0
 30 31  2  0
 31 32  1  0
 32 33  2  0
 27 34  1  0
 34 35  2  0
 35 36  1  0
 36 37  2  0
 37 38  1  0
 38 39  2  0
 27 40  1  0
 40 41  2  0
 41 42  1  0
 42 43  2  0
 43 44  1  0
 44 45  2  0
 22 10  1  0
 33 28  1  0
 39 34  1  0
 45 40  1  0
 16 11  1  0
 22 17  1  0
  3 46  1  0
  3 47  1  0
  4 48  1  6
  5 49  1  0
  9 50  1  0
  9 51  1  0
 10 52  1  0
 12 53  1  0
 13 54  1  0
 14 55  1  0
 15 56  1  0
 18 57  1  0
 19 58  1  0
 20 59  1  0
 21 60  1  0
 26 61  1  0
 29 62  1  0
 30 63  1  0
 31 64  1  0
 32 65  1  0
 33 66  1  0
 35 67  1  0
 36 68  1  0
 37 69  1  0
 38 70  1  0
 39 71  1  0
 41 72  1  0
 42 73  1  0
 43 74  1  0
 44 75  1  0
 45 76  1  0
M  CHG  1  25  -1
M  END
>  <Binding energies>  (1) 
[-8.7]

>  <Ligand effiencies>  (1) 
[-0.1851063829787234]

>  <Interactions>  (1) 
["V-A:LEU:363:CA:3180, H-A:TYR:484:OH:4343, V-A:ASN:362:C:3167, H-A:GLU:543:OE2:4905, V-A:PRO:540:CA:4878, V-A:ASP:366:CG:3208, V-A:GLU:543:CD:4903, V-A:PRO:540:CB:4880, V-A:GLU:543:CG:4902, V-A:GLU:543:CB:4901, V-B:GLU:543:CG:9875, V-A:HIS:456:CE1:4064, V-B:HIS:456:CE1:9037, H-A:GLU:543:OE1:4904, V-B:GLU:543:CD:9876, V-B:GLU:543:CB:9874, H-B:GLU:543:OE2:9878, V-A:PRO:540:C:4876, V-A:TYR:531:CE2:4788, V-A:ALA:541:CB:4887, V-B:ARG:545:CG:9890, V-A:LEU:363:CD1:3184, V-B:GLU:543:C:9870, V-B:GLY:544:CA:9882, V-A:LEU:363:CB:3182, H-A:HIS:456:NE2:4065, V-B:GLY:544:C:9880, V-B:ARG:545:CA:9887"]

$$$$
RR6_Rahimova_2017
     RDKit          3D

 63 66  0  0  0  0  0  0  0  0999 V2000
  125.1620  133.6170   61.1010 C   0  0  0  0  0  0  0  0  0  0  0  0
  125.9750  134.7190   60.7240 O   0  0  0  0  0  0  0  0  0  0  0  0
  127.1830  134.9280   61.3080 C   0  0  0  0  0  0  0  0  0  0  0  0
  127.5580  136.0310   61.7190 O   0  0  0  0  0  0  0  0  0  0  0  0
  128.0190  133.6840   61.4040 C   0  0  0  0  0  0  0  0  0  0  0  0
  128.6650  133.1340   60.2870 C   0  0  0  0  0  0  0  0  0  0  0  0
  129.4280  131.9750   60.4080 C   0  0  0  0  0  0  0  0  0  0  0  0
  129.5540  131.3420   61.6540 C   0  0  0  0  0  0  0  0  0  0  0  0
  130.2740  130.1540   61.8820 N   0  0  0  0  0  0  0  0  0  0  0  0
  129.8750  128.8710   61.7420 C   0  0  0  0  0  0  0  0  0  0  0  0
  128.7620  128.5070   61.3620 O   0  0  0  0  0  0  0  0  0  0  0  0
  130.9000  127.8110   62.1570 C   0  0  0  0  0  0  0  0  0  0  0  0
  130.1890  126.4500   63.1430 S   0  0  0  0  0  0  0  0  0  0  0  0
  129.1830  127.2020   64.4050 C   0  0  0  0  0  0  0  0  0  0  0  0
  128.1060  127.8740   63.9330 N   0  0  0  0  0  0  0  0  0  0  0  0
  127.2470  128.4660   64.8010 C   0  0  0  0  0  0  0  0  0  0  0  0
  126.0470  129.1370   64.2000 C   0  0  0  0  0  0  0  0  0  0  0  0
  125.9870  129.4130   62.8250 C   0  0  0  0  0  0  0  0  0  0  0  0
  124.8790  130.0480   62.2700 C   0  0  0  0  0  0  0  0  0  0  0  0
  123.8060  130.4140   63.0800 C   0  0  0  0  0  0  0  0  0  0  0  0
  122.6040  131.1140   62.4720 C   0  0  0  0  0  0  0  0  0  0  0  0
  123.8450  130.1470   64.4470 C   0  0  0  0  0  0  0  0  0  0  0  0
  124.9540  129.5120   64.9960 C   0  0  0  0  0  0  0  0  0  0  0  0
  127.4680  128.4010   66.1810 C   0  0  0  0  0  0  0  0  0  0  0  0
  128.5780  127.7150   66.6940 C   0  0  0  0  0  0  0  0  0  0  0  0
  128.7420  127.6690   68.1780 C   0  0  0  0  0  0  0  0  0  0  0  0
  127.7630  127.0690   68.9750 C   0  0  0  0  0  0  0  0  0  0  0  0
  127.9160  127.0080   70.3580 C   0  0  0  0  0  0  0  0  0  0  0  0
  129.0510  127.5390   70.9690 C   0  0  0  0  0  0  0  0  0  0  0  0
  129.1180  127.4310   72.3450 O   0  0  0  0  0  0  0  0  0  0  0  0
  130.3580  127.0850   72.9530 C   0  0  0  0  0  0  0  0  0  0  0  0
  130.0390  128.1380   70.1720 C   0  0  0  0  0  0  0  0  0  0  0  0
  129.8830  128.1970   68.7900 C   0  0  0  0  0  0  0  0  0  0  0  0
  129.4700  127.1000   65.7820 C   0  0  0  0  0  0  0  0  0  0  0  0
  130.6650  126.3910   66.2500 C   0  0  0  0  0  0  0  0  0  0  0  0
  131.6080  125.8310   66.6190 N   0  0  0  0  0  0  0  0  0  0  0  0
  128.9260  131.8960   62.7700 C   0  0  0  0  0  0  0  0  0  0  0  0
  128.1620  133.0530   62.6470 C   0  0  0  0  0  0  0  0  0  0  0  0
  125.1155  133.5540   62.1982 H   0  0  0  0  0  0  0  0  0  0  0  0
  124.1477  133.7550   60.6984 H   0  0  0  0  0  0  0  0  0  0  0  0
  125.5932  132.6886   60.6984 H   0  0  0  0  0  0  0  0  0  0  0  0
  128.5681  133.6226   59.3062 H   0  0  0  0  0  0  0  0  0  0  0  0
  129.9326  131.5552   59.5253 H   0  0  0  0  0  0  0  0  0  0  0  0
  131.1880  130.2940   62.2850 H   0  0  0  0  0  0  0  0  0  0  0  0
  131.3462  127.3841   61.2467 H   0  0  0  0  0  0  0  0  0  0  0  0
  131.6436  128.3141   62.7925 H   0  0  0  0  0  0  0  0  0  0  0  0
  126.8272  129.1235   62.1767 H   0  0  0  0  0  0  0  0  0  0  0  0
  124.8508  130.2609   61.1912 H   0  0  0  0  0  0  0  0  0  0  0  0
  121.9547  131.4921   63.2754 H   0  0  0  0  0  0  0  0  0  0  0  0
  122.9451  131.9547   61.8500 H   0  0  0  0  0  0  0  0  0  0  0  0
  122.0412  130.4024   61.8500 H   0  0  0  0  0  0  0  0  0  0  0  0
  123.0012  130.4376   65.0901 H   0  0  0  0  0  0  0  0  0  0  0  0
  124.9746  129.2997   66.0751 H   0  0  0  0  0  0  0  0  0  0  0  0
  126.7648  128.8924   66.8695 H   0  0  0  0  0  0  0  0  0  0  0  0
  126.8644  126.6415   68.5062 H   0  0  0  0  0  0  0  0  0  0  0  0
  127.1350  126.5371   70.9731 H   0  0  0  0  0  0  0  0  0  0  0  0
  130.2508  127.1149   74.0474 H   0  0  0  0  0  0  0  0  0  0  0  0
  130.6493  126.0713   72.6407 H   0  0  0  0  0  0  0  0  0  0  0  0
  131.1320  127.8015   72.6407 H   0  0  0  0  0  0  0  0  0  0  0  0
  130.9392  128.5621   70.6409 H   0  0  0  0  0  0  0  0  0  0  0  0
  130.6652  128.6637   68.1732 H   0  0  0  0  0  0  0  0  0  0  0  0
  129.0354  131.4153   63.7534 H   0  0  0  0  0  0  0  0  0  0  0  0
  127.6662  133.4757   63.5333 H   0  0  0  0  0  0  0  0  0  0  0  0
  1  2  1  0
  2  3  1  0
  3  4  2  0
  3  5  1  0
  5  6  2  0
  6  7  1  0
  7  8  2  0
  8  9  1  0
  9 10  1  0
 10 11  2  0
 10 12  1  0
 12 13  1  0
 13 14  1  0
 14 15  2  0
 15 16  1  0
 16 17  1  0
 17 18  2  0
 18 19  1  0
 19 20  2  0
 20 21  1  0
 20 22  1  0
 22 23  2  0
 16 24  2  0
 24 25  1  0
 25 26  1  0
 26 27  2  0
 27 28  1  0
 28 29  2  0
 29 30  1  0
 30 31  1  0
 29 32  1  0
 32 33  2  0
 25 34  2  0
 34 35  1  0
 35 36  3  0
  8 37  1  0
 37 38  2  0
 38  5  1  0
 34 14  1  0
 23 17  1  0
 33 26  1  0
  1 39  1  0
  1 40  1  0
  1 41  1  0
  6 42  1  0
  7 43  1  0
  9 44  1  0
 12 45  1  0
 12 46  1  0
 18 47  1  0
 19 48  1  0
 21 49  1  0
 21 50  1  0
 21 51  1  0
 22 52  1  0
 23 53  1  0
 24 54  1  0
 27 55  1  0
 28 56  1  0
 31 57  1  0
 31 58  1  0
 31 59  1  0
 32 60  1  0
 33 61  1  0
 37 62  1  0
 38 63  1  0
M  END
>  <Binding energies>  (1) 
[-8.81]

>  <Ligand effiencies>  (1) 
[-0.2258974358974359]

>  <Interactions>  (1) 
["H-A:TYR:484:OH:4343, H-A:GLU:543:OE2:4905, V-A:PRO:540:CA:4878, V-A:GLU:543:CD:4903, V-A:GLU:543:CG:4902, V-A:GLU:543:CB:4901, V-A:HIS:456:CE1:4064, V-B:HIS:456:CE1:9037, H-A:GLU:543:OE1:4904, V-B:GLU:543:CD:9876, V-B:GLU:543:CB:9874, V-B:ARG:545:CZ:9894, V-A:ALA:541:CB:4887, V-A:TYR:539:CE2:4871, V-B:GLU:543:C:9870, H-B:LYS:547:NZ:9919, H-A:HIS:456:NE2:4065, V-A:LYS:547:CE:4945, V-B:ILE:369:CD1:8206, V-B:LEU:475:CD2:9226, V-A:TYR:539:CD2:4869, V-B:GLY:453:CA:9011, V-A:TYR:539:C:4862, V-B:GLY:453:C:9009"]

$$$$
RR7_Rahimova_2017
     RDKit          3D

 80 86  0  0  0  0  0  0  0  0999 V2000
  122.4630  129.9880   67.0280 C   0  0  0  0  0  0  0  0  0  0  0  0
  122.5970  130.0210   65.6100 O   0  0  0  0  0  0  0  0  0  0  0  0
  123.8420  129.8150   65.0480 C   0  0  0  0  0  0  0  0  0  0  0  0
  124.7750  129.1350   65.8290 C   0  0  0  0  0  0  0  0  0  0  0  0
  126.0530  128.8770   65.3450 C   0  0  0  0  0  0  0  0  0  0  0  0
  126.4350  129.3050   64.0650 C   0  0  0  0  0  0  0  0  0  0  0  0
  127.8510  129.0000   63.4840 C   0  0  0  0  0  0  0  0  0  0  0  0
  128.6730  128.6010   64.6040 O   0  0  0  0  0  0  0  0  0  0  0  0
  128.6260  127.2530   65.0840 C   0  0  0  0  0  0  0  0  0  0  0  0
  129.9310  126.9430   65.8340 C   0  0  1  0  0  0  0  0  0  0  0  0
  129.8540  127.6140   67.0900 O   0  0  0  0  0  0  0  0  0  0  0  0
  129.9600  126.7260   68.1650 C   0  0  1  0  0  0  0  0  0  0  0  0
  129.1600  127.1950   69.2800 N   0  0  0  0  0  0  0  0  0  0  0  0
  127.7880  127.1120   69.4390 C   0  0  0  0  0  0  0  0  0  0  0  0
  127.3160  127.6610   70.5310 N   0  0  0  0  0  0  0  0  0  0  0  0
  128.4230  128.1920   71.1350 C   0  0  0  0  0  0  0  0  0  0  0  0
  128.5880  128.9220   72.3280 C   0  0  0  0  0  0  0  0  0  0  0  0
  127.4530  129.1900   73.1180 N   0  0  0  0  0  0  0  0  0  0  0  0
  127.3900  129.6320   74.3960 C   0  0  0  0  0  0  0  0  0  0  0  0
  128.3750  129.8600   75.1020 O   0  0  0  0  0  0  0  0  0  0  0  0
  125.9960  129.8110   74.9590 C   0  0  0  0  0  0  0  0  0  0  0  0
  125.0280  128.8180   74.7440 C   0  0  0  0  0  0  0  0  0  0  0  0
  123.7420  128.9600   75.2570 C   0  0  0  0  0  0  0  0  0  0  0  0
  123.4140  130.0940   75.9930 C   0  0  0  0  0  0  0  0  0  0  0  0
  124.3610  131.0890   76.2210 C   0  0  0  0  0  0  0  0  0  0  0  0
  125.6480  130.9480   75.7070 C   0  0  0  0  0  0  0  0  0  0  0  0
  129.8370  129.3500   72.6820 N   0  0  0  0  0  0  0  0  0  0  0  0
  130.8700  129.0470   71.8530 C   0  0  0  0  0  0  0  0  0  0  0  0
  130.8240  128.3500   70.6860 N   0  0  0  0  0  0  0  0  0  0  0  0
  129.5900  127.9380   70.3690 C   0  0  0  0  0  0  0  0  0  0  0  0
  129.5510  125.3680   67.6050 C   0  0  0  0  0  0  0  0  0  0  0  0
  130.1320  125.4670   66.2050 C   0  0  2  0  0  0  0  0  0  0  0  0
  131.4950  125.0800   66.1660 O   0  0  0  0  0  0  0  0  0  0  0  0
  127.8360  127.8110   62.4860 C   0  0  0  0  0  0  0  0  0  0  0  0
  126.6250  127.3700   61.9280 C   0  0  0  0  0  0  0  0  0  0  0  0
  126.5990  126.2960   61.0440 C   0  0  0  0  0  0  0  0  0  0  0  0
  127.7850  125.6510   60.7080 C   0  0  0  0  0  0  0  0  0  0  0  0
  128.9960  126.0710   61.2500 C   0  0  0  0  0  0  0  0  0  0  0  0
  129.0220  127.1440   62.1350 C   0  0  0  0  0  0  0  0  0  0  0  0
  128.5380  130.1720   62.7270 C   0  0  0  0  0  0  0  0  0  0  0  0
  128.7200  130.1090   61.3360 C   0  0  0  0  0  0  0  0  0  0  0  0
  129.3430  131.1480   60.6520 C   0  0  0  0  0  0  0  0  0  0  0  0
  129.7990  132.2600   61.3530 C   0  0  0  0  0  0  0  0  0  0  0  0
  129.6410  132.3380   62.7340 C   0  0  0  0  0  0  0  0  0  0  0  0
  129.0180  131.2970   63.4170 C   0  0  0  0  0  0  0  0  0  0  0  0
  125.4880  129.9750   63.2770 C   0  0  0  0  0  0  0  0  0  0  0  0
  124.2090  130.2330   63.7610 C   0  0  0  0  0  0  0  0  0  0  0  0
  123.4308  130.2263   67.4934 H   0  0  0  0  0  0  0  0  0  0  0  0
  121.7126  130.7282   67.3427 H   0  0  0  0  0  0  0  0  0  0  0  0
  122.1421  128.9840   67.3427 H   0  0  0  0  0  0  0  0  0  0  0  0
  124.4975  128.7988   66.8389 H   0  0  0  0  0  0  0  0  0  0  0  0
  126.7724  128.3311   65.9731 H   0  0  0  0  0  0  0  0  0  0  0  0
  127.7714  127.1341   65.7663 H   0  0  0  0  0  0  0  0  0  0  0  0
  128.5108  126.5608   64.2369 H   0  0  0  0  0  0  0  0  0  0  0  0
  130.7475  127.2488   65.1633 H   0  0  0  0  0  0  0  0  0  0  0  0
  130.9753  126.6491   68.5812 H   0  0  0  0  0  0  0  0  0  0  0  0
  127.1388  126.6194   68.7001 H   0  0  0  0  0  0  0  0  0  0  0  0
  126.5720  129.0210   72.6550 H   0  0  0  0  0  0  0  0  0  0  0  0
  125.2879  127.9196   74.1650 H   0  0  0  0  0  0  0  0  0  0  0  0
  122.9880  128.1786   75.0812 H   0  0  0  0  0  0  0  0  0  0  0  0
  122.3976  130.2056   76.3984 H   0  0  0  0  0  0  0  0  0  0  0  0
  124.0940  131.9825   76.8045 H   0  0  0  0  0  0  0  0  0  0  0  0
  126.3973  131.7327   75.8882 H   0  0  0  0  0  0  0  0  0  0  0  0
  131.8617  129.4085   72.1626 H   0  0  0  0  0  0  0  0  0  0  0  0
  129.9997  124.5408   68.1745 H   0  0  0  0  0  0  0  0  0  0  0  0
  128.4715  125.1602   67.6424 H   0  0  0  0  0  0  0  0  0  0  0  0
  129.6427  124.7865   65.4926 H   0  0  0  0  0  0  0  0  0  0  0  0
  131.6240  124.3530   66.7810 H   0  0  0  0  0  0  0  0  0  0  0  0
  125.6867  127.8794   62.1928 H   0  0  0  0  0  0  0  0  0  0  0  0
  125.6451  125.9584   60.6127 H   0  0  0  0  0  0  0  0  0  0  0  0
  127.7654  124.8024   60.0084 H   0  0  0  0  0  0  0  0  0  0  0  0
  129.9297  125.5562   60.9795 H   0  0  0  0  0  0  0  0  0  0  0  0
  129.9798  127.4734   62.5640 H   0  0  0  0  0  0  0  0  0  0  0  0
  128.3659  129.2279   60.7808 H   0  0  0  0  0  0  0  0  0  0  0  0
  129.4745  131.0906   59.5614 H   0  0  0  0  0  0  0  0  0  0  0  0
  130.2880  133.0836   60.8121 H   0  0  0  0  0  0  0  0  0  0  0  0
  130.0068  133.2182   63.2831 H   0  0  0  0  0  0  0  0  0  0  0  0
  128.9005  131.3564   64.5091 H   0  0  0  0  0  0  0  0  0  0  0  0
  125.7599  130.3011   62.2623 H   0  0  0  0  0  0  0  0  0  0  0  0
  123.4827  130.7673   63.1310 H   0  0  0  0  0  0  0  0  0  0  0  0
  1  2  1  0
  2  3  1  0
  3  4  2  0
  4  5  1  0
  5  6  2  0
  6  7  1  0
  7  8  1  0
  8  9  1  0
  9 10  1  0
 10 11  1  0
 11 12  1  0
 12 13  1  0
 13 14  1  0
 14 15  2  0
 15 16  1  0
 16 17  2  0
 17 18  1  0
 18 19  1  0
 19 20  2  0
 19 21  1  0
 21 22  2  0
 22 23  1  0
 23 24  2  0
 24 25  1  0
 25 26  2  0
 17 27  1  0
 27 28  2  0
 28 29  1  0
 29 30  2  0
 12 31  1  0
 31 32  1  0
 32 33  1  0
  7 34  1  0
 34 35  2  0
 35 36  1  0
 36 37  2  0
 37 38  1  0
 38 39  2  0
  7 40  1  0
 40 41  2  0
 41 42  1  0
 42 43  2  0
 43 44  1  0
 44 45  2  0
  6 46  1  0
 46 47  2  0
 47  3  1  0
 32 10  1  0
 39 34  1  0
 45 40  1  0
 30 13  1  0
 30 16  1  0
 26 21  1  0
  1 48  1  0
  1 49  1  0
  1 50  1  0
  4 51  1  0
  5 52  1  0
  9 53  1  0
  9 54  1  0
 10 55  1  6
 12 56  1  1
 14 57  1  0
 18 58  1  0
 22 59  1  0
 23 60  1  0
 24 61  1  0
 25 62  1  0
 26 63  1  0
 28 64  1  0
 31 65  1  0
 31 66  1  0
 32 67  1  6
 33 68  1  0
 35 69  1  0
 36 70  1  0
 37 71  1  0
 38 72  1  0
 39 73  1  0
 41 74  1  0
 42 75  1  0
 43 76  1  0
 44 77  1  0
 45 78  1  0
 46 79  1  0
 47 80  1  0
M  END
>  <Binding energies>  (1) 
[-9.65]

>  <Ligand effiencies>  (1) 
[-0.19693877551020408]

>  <Interactions>  (1) 
["H-A:TYR:484:OH:4343, V-A:PRO:540:CA:4878, V-A:GLU:543:CD:4903, V-A:GLU:543:CG:4902, V-A:GLY:544:C:4907, V-B:GLU:543:CG:9875, V-A:HIS:456:CE1:4064, V-A:GLY:544:CA:4909, V-B:HIS:456:CE1:9037, V-B:GLU:543:CD:9876, V-B:GLU:543:CB:9874, V-B:ARG:545:CZ:9894, V-B:ARG:545:CD:9891, V-A:ALA:541:CB:4887, V-A:ALA:541:CA:4885, V-B:ARG:545:CG:9890, H-B:GLY:454:N:9017, V-B:GLU:543:C:9870, V-B:GLU:543:CA:9872, V-B:HIS:456:CD2:9035, H-A:LYS:547:NZ:4946, H-A:HIS:456:NE2:4065, V-B:LYS:547:CE:9918, H-B:HIS:456:NE2:9038, V-B:ASP:473:CG:9207, V-B:HIS:456:CG:9033, V-B:HIS:456:CB:9032, H-B:ARG:545:NE:9892, V-A:LYS:547:CE:4945, H-B:ARG:545:NH1:9895, V-B:GLY:453:CA:9011, V-B:LYS:547:CD:9917, V-B:GLY:453:C:9009, H-B:GLY:544:O:9881, V-B:VAL:458:CG2:9054, V-B:HIS:456:C:9028, V-B:LYS:547:CG:9916, V-B:ARG:545:CB:9889, V-B:ILE:455:C:9019, V-B:VAL:457:C:9040, V-B:HIS:456:CA:9030, V-B:VAL:457:CA:9042"]

$$$$
RR8_A_Rahimova_2017
     RDKit          3D

 73 77  0  0  0  0  0  0  0  0999 V2000
  129.4090  125.8020   67.8030 O   0  0  0  0  0  0  0  0  0  0  0  0
  129.3780  127.0130   68.0430 C   0  0  0  0  0  0  0  0  0  0  0  0
  129.3940  127.9930   67.0870 O   0  0  0  0  0  0  0  0  0  0  0  0
  128.3700  127.9810   66.1310 C   0  0  1  0  0  0  0  0  0  0  0  0
  127.3640  128.9010   66.4420 O   0  0  0  0  0  0  0  0  0  0  0  0
  126.8540  129.5440   65.2770 C   0  0  2  0  0  0  0  0  0  0  0  0
  125.3310  129.3320   65.2270 C   0  0  0  0  0  0  0  0  0  0  0  0
  124.8870  129.5090   63.8890 O   0  0  0  0  0  0  0  0  0  0  0  0
  123.7970  130.4120   63.7560 C   0  0  0  0  0  0  0  0  0  0  0  0
  124.0110  131.3030   62.5420 C   0  0  0  0  0  0  0  0  0  0  0  0
  124.1370  132.6850   62.7050 C   0  0  0  0  0  0  0  0  0  0  0  0
  124.3390  133.5030   61.5960 C   0  0  0  0  0  0  0  0  0  0  0  0
  124.4190  132.9360   60.3260 C   0  0  0  0  0  0  0  0  0  0  0  0
  124.3000  131.5580   60.1540 C   0  0  0  0  0  0  0  0  0  0  0  0
  124.0990  130.7410   61.2630 C   0  0  0  0  0  0  0  0  0  0  0  0
  127.6470  128.9030   64.1300 C   0  0  1  0  0  0  0  0  0  0  0  0
  128.0000  129.8290   63.1060 O   0  0  0  0  0  0  0  0  0  0  0  0
  128.7780  130.9450   63.5240 C   0  0  0  0  0  0  0  0  0  0  0  0
  128.4280  132.1660   62.6850 C   0  0  0  0  0  0  0  0  0  0  0  0
  127.8100  133.2670   63.2870 C   0  0  0  0  0  0  0  0  0  0  0  0
  127.4790  134.3830   62.5250 C   0  0  0  0  0  0  0  0  0  0  0  0
  127.7620  134.3960   61.1600 C   0  0  0  0  0  0  0  0  0  0  0  0
  128.3710  133.3020   60.5510 C   0  0  0  0  0  0  0  0  0  0  0  0
  128.7020  132.1840   61.3130 C   0  0  0  0  0  0  0  0  0  0  0  0
  128.9350  128.4600   64.8010 C   0  0  2  0  0  0  0  0  0  0  0  0
  129.5670  127.4310   64.0440 O   0  0  0  0  0  0  0  0  0  0  0  0
  129.7420  126.1890   64.7170 C   0  0  0  0  0  0  0  0  0  0  0  0
  131.2180  125.8200   64.7470 C   0  0  0  0  0  0  0  0  0  0  0  0
  131.9300  125.8630   65.9500 C   0  0  0  0  0  0  0  0  0  0  0  0
  133.2780  125.5150   65.9740 C   0  0  0  0  0  0  0  0  0  0  0  0
  133.9100  125.1200   64.7970 C   0  0  0  0  0  0  0  0  0  0  0  0
  133.2070  125.0690   63.5960 C   0  0  0  0  0  0  0  0  0  0  0  0
  131.8580  125.4170   63.5710 C   0  0  0  0  0  0  0  0  0  0  0  0
  129.3080  127.5670   69.4370 C   0  0  0  0  0  0  0  0  0  0  0  0
  128.1980  127.3450   70.2680 C   0  0  0  0  0  0  0  0  0  0  0  0
  128.1620  127.8730   71.5560 C   0  0  0  0  0  0  0  0  0  0  0  0
  129.2300  128.6360   72.0450 C   0  0  0  0  0  0  0  0  0  0  0  0
  129.1910  129.1970   73.4180 N   0  0  0  0  0  0  0  0  0  0  0  0
  128.6210  128.5590   74.2980 O   0  0  0  0  0  0  0  0  0  0  0  0
  129.7300  130.2800   73.6260 O   0  0  0  0  0  0  0  0  0  0  0  0
  130.3350  128.8590   71.2140 C   0  0  0  0  0  0  0  0  0  0  0  0
  130.3740  128.3320   69.9270 C   0  0  0  0  0  0  0  0  0  0  0  0
  127.9705  126.9566   66.0985 H   0  0  0  0  0  0  0  0  0  0  0  0
  126.9791  130.6361   65.2362 H   0  0  0  0  0  0  0  0  0  0  0  0
  125.0883  128.3138   65.5653 H   0  0  0  0  0  0  0  0  0  0  0  0
  124.8312  130.0577   65.8854 H   0  0  0  0  0  0  0  0  0  0  0  0
  122.8642  129.8425   63.6311 H   0  0  0  0  0  0  0  0  0  0  0  0
  123.7315  131.0375   64.6585 H   0  0  0  0  0  0  0  0  0  0  0  0
  124.0766  133.1274   63.7103 H   0  0  0  0  0  0  0  0  0  0  0  0
  124.4349  134.5915   61.7223 H   0  0  0  0  0  0  0  0  0  0  0  0
  124.5777  133.5823   59.4502 H   0  0  0  0  0  0  0  0  0  0  0  0
  124.3645  131.1186   59.1477 H   0  0  0  0  0  0  0  0  0  0  0  0
  124.0092  129.6523   61.1341 H   0  0  0  0  0  0  0  0  0  0  0  0
  127.0551  128.1104   63.6490 H   0  0  0  0  0  0  0  0  0  0  0  0
  128.5696  131.1584   64.5828 H   0  0  0  0  0  0  0  0  0  0  0  0
  129.8449  130.7109   63.3940 H   0  0  0  0  0  0  0  0  0  0  0  0
  127.5855  133.2505   64.3637 H   0  0  0  0  0  0  0  0  0  0  0  0
  126.9962  135.2512   62.9974 H   0  0  0  0  0  0  0  0  0  0  0  0
  127.5016  135.2792   60.5582 H   0  0  0  0  0  0  0  0  0  0  0  0
  128.5897  133.3205   59.4731 H   0  0  0  0  0  0  0  0  0  0  0  0
  129.1789  131.3150   60.8361 H   0  0  0  0  0  0  0  0  0  0  0  0
  129.7252  129.2185   64.9022 H   0  0  0  0  0  0  0  0  0  0  0  0
  129.3668  126.2764   65.7473 H   0  0  0  0  0  0  0  0  0  0  0  0
  129.1836  125.4059   64.1832 H   0  0  0  0  0  0  0  0  0  0  0  0
  131.4251  126.1717   66.8772 H   0  0  0  0  0  0  0  0  0  0  0  0
  133.8414  125.5518   66.9181 H   0  0  0  0  0  0  0  0  0  0  0  0
  134.9751  124.8456   64.8165 H   0  0  0  0  0  0  0  0  0  0  0  0
  133.7142  124.7555   62.6716 H   0  0  0  0  0  0  0  0  0  0  0  0
  131.2965  125.3747   62.6260 H   0  0  0  0  0  0  0  0  0  0  0  0
  127.3503  126.7493   69.8986 H   0  0  0  0  0  0  0  0  0  0  0  0
  127.2862  127.6891   72.1957 H   0  0  0  0  0  0  0  0  0  0  0  0
  131.1812  129.4573   71.5828 H   0  0  0  0  0  0  0  0  0  0  0  0
  131.2501  128.5179   69.2884 H   0  0  0  0  0  0  0  0  0  0  0  0
  1  2  2  0
  2  3  1  0
  3  4  1  0
  4  5  1  0
  5  6  1  0
  6  7  1  0
  7  8  1  0
  8  9  1  0
  9 10  1  0
 10 11  2  0
 11 12  1  0
 12 13  2  0
 13 14  1  0
 14 15  2  0
  6 16  1  0
 16 17  1  0
 17 18  1  0
 18 19  1  0
 19 20  2  0
 20 21  1  0
 21 22  2  0
 22 23  1  0
 23 24  2  0
 16 25  1  0
 25 26  1  0
 26 27  1  0
 27 28  1  0
 28 29  2  0
 29 30  1  0
 30 31  2  0
 31 32  1  0
 32 33  2  0
  2 34  1  0
 34 35  2  0
 35 36  1  0
 36 37  2  0
 37 38  1  0
 38 39  2  0
 38 40  1  0
 37 41  1  0
 41 42  2  0
 25  4  1  0
 33 28  1  0
 42 34  1  0
 15 10  1  0
 24 19  1  0
  4 43  1  6
  6 44  1  1
  7 45  1  0
  7 46  1  0
  9 47  1  0
  9 48  1  0
 11 49  1  0
 12 50  1  0
 13 51  1  0
 14 52  1  0
 15 53  1  0
 16 54  1  6
 18 55  1  0
 18 56  1  0
 20 57  1  0
 21 58  1  0
 22 59  1  0
 23 60  1  0
 24 61  1  0
 25 62  1  1
 27 63  1  0
 27 64  1  0
 29 65  1  0
 30 66  1  0
 31 67  1  0
 32 68  1  0
 33 69  1  0
 35 70  1  0
 36 71  1  0
 41 72  1  0
 42 73  1  0
M  CHG  2  38   1  40  -1
M  END
>  <Binding energies>  (1) 
[-9.13]

>  <Ligand effiencies>  (1) 
[-0.2173809523809524]

>  <Interactions>  (1) 
["V-A:ARG:545:CD:4918, V-A:ARG:545:CZ:4921, V-A:ARG:545:CG:4917, V-A:PRO:540:CA:4878, V-A:GLU:543:CD:4903, V-A:GLU:543:CG:4902, V-A:GLY:544:C:4907, V-B:GLU:543:CG:9875, V-A:HIS:456:CE1:4064, V-B:HIS:456:CE1:9037, V-B:GLU:543:CD:9876, V-B:ARG:545:CZ:9894, V-A:ALA:541:CB:4887, V-A:TYR:539:CE2:4871, V-A:HIS:456:CD2:4063, V-A:GLY:453:CA:4039, H-B:LYS:547:NZ:9919, V-B:HIS:456:CD2:9035, H-A:LYS:547:NZ:4946, H-B:ARG:545:NH2:9896, V-A:LYS:547:CE:4945, V-B:ASP:366:CG:8180, V-B:ILE:369:CD1:8206, V-B:ILE:369:CG2:8204, V-B:LEU:475:CD2:9226, V-A:TYR:539:CD2:4869, V-B:GLY:454:CA:9016, V-B:LEU:475:CD1:9225"]

$$$$
RR8_B_Rahimova_2017
     RDKit          3D

 73 77  0  0  0  0  0  0  0  0999 V2000
  129.5080  127.9820   64.1170 O   0  0  0  0  0  0  0  0  0  0  0  0
  128.5830  127.6880   64.8800 C   0  0  0  0  0  0  0  0  0  0  0  0
  128.6650  126.7460   65.8670 O   0  0  0  0  0  0  0  0  0  0  0  0
  129.9190  126.5120   66.4590 C   0  0  2  0  0  0  0  0  0  0  0  0
  130.6710  125.5780   65.7380 O   0  0  0  0  0  0  0  0  0  0  0  0
  130.4540  124.2510   66.2160 C   0  0  2  0  0  0  0  0  0  0  0  0
  129.9320  123.3700   65.0680 C   0  0  0  0  0  0  0  0  0  0  0  0
  131.0370  122.8040   64.3730 O   0  0  0  0  0  0  0  0  0  0  0  0
  131.2000  123.2590   63.0380 C   0  0  0  0  0  0  0  0  0  0  0  0
  131.2520  122.0600   62.1030 C   0  0  0  0  0  0  0  0  0  0  0  0
  132.4420  121.7500   61.4380 C   0  0  0  0  0  0  0  0  0  0  0  0
  132.4900  120.6680   60.5620 C   0  0  0  0  0  0  0  0  0  0  0  0
  131.3460  119.8980   60.3560 C   0  0  0  0  0  0  0  0  0  0  0  0
  130.1590  120.1980   61.0200 C   0  0  0  0  0  0  0  0  0  0  0  0
  130.1100  121.2810   61.8940 C   0  0  0  0  0  0  0  0  0  0  0  0
  129.4960  124.4270   67.4000 C   0  0  1  0  0  0  0  0  0  0  0  0
  129.8040  123.4740   68.4210 O   0  0  0  0  0  0  0  0  0  0  0  0
  130.1140  123.9880   69.7180 C   0  0  0  0  0  0  0  0  0  0  0  0
  130.0780  122.9050   70.7930 C   0  0  0  0  0  0  0  0  0  0  0  0
  131.1060  122.8200   71.7360 C   0  0  0  0  0  0  0  0  0  0  0  0
  131.0540  121.8510   72.7350 C   0  0  0  0  0  0  0  0  0  0  0  0
  129.9770  120.9680   72.7840 C   0  0  0  0  0  0  0  0  0  0  0  0
  128.9510  121.0440   71.8440 C   0  0  0  0  0  0  0  0  0  0  0  0
  129.0020  122.0160   70.8470 C   0  0  0  0  0  0  0  0  0  0  0  0
  129.7230  125.8710   67.8330 C   0  0  2  0  0  0  0  0  0  0  0  0
  128.5880  126.3630   68.5400 O   0  0  0  0  0  0  0  0  0  0  0  0
  128.6570  127.7220   68.9440 C   0  0  0  0  0  0  0  0  0  0  0  0
  129.3090  127.7780   70.3140 C   0  0  0  0  0  0  0  0  0  0  0  0
  130.0860  128.8800   70.6820 C   0  0  0  0  0  0  0  0  0  0  0  0
  130.6950  128.9120   71.9340 C   0  0  0  0  0  0  0  0  0  0  0  0
  130.5270  127.8440   72.8120 C   0  0  0  0  0  0  0  0  0  0  0  0
  129.7520  126.7420   72.4520 C   0  0  0  0  0  0  0  0  0  0  0  0
  129.1430  126.7100   71.2010 C   0  0  0  0  0  0  0  0  0  0  0  0
  127.2190  128.3110   64.7950 C   0  0  0  0  0  0  0  0  0  0  0  0
  126.6980  128.7880   63.5830 C   0  0  0  0  0  0  0  0  0  0  0  0
  125.4350  129.3680   63.5350 C   0  0  0  0  0  0  0  0  0  0  0  0
  124.6650  129.4960   64.6980 C   0  0  0  0  0  0  0  0  0  0  0  0
  123.3290  130.1400   64.6490 N   0  0  0  0  0  0  0  0  0  0  0  0
  123.0040  130.7450   63.6320 O   0  0  0  0  0  0  0  0  0  0  0  0
  122.5930  130.0400   65.6280 O   0  0  0  0  0  0  0  0  0  0  0  0
  125.1830  129.0150   65.9070 C   0  0  0  0  0  0  0  0  0  0  0  0
  126.4430  128.4280   65.9540 C   0  0  0  0  0  0  0  0  0  0  0  0
  130.4293  127.4856   66.4987 H   0  0  0  0  0  0  0  0  0  0  0  0
  131.3574  123.7259   66.5597 H   0  0  0  0  0  0  0  0  0  0  0  0
  129.3040  122.5653   65.4781 H   0  0  0  0  0  0  0  0  0  0  0  0
  129.3338  123.9809   64.3760 H   0  0  0  0  0  0  0  0  0  0  0  0
  130.3520  123.9034   62.7629 H   0  0  0  0  0  0  0  0  0  0  0  0
  132.1348  123.8329   62.9550 H   0  0  0  0  0  0  0  0  0  0  0  0
  133.3411  122.3609   61.6066 H   0  0  0  0  0  0  0  0  0  0  0  0
  133.4245  120.4226   60.0361 H   0  0  0  0  0  0  0  0  0  0  0  0
  131.3813  119.0451   59.6622 H   0  0  0  0  0  0  0  0  0  0  0  0
  129.2632  119.5815   60.8546 H   0  0  0  0  0  0  0  0  0  0  0  0
  129.1743  121.5232   62.4191 H   0  0  0  0  0  0  0  0  0  0  0  0
  128.4376  124.2493   67.1586 H   0  0  0  0  0  0  0  0  0  0  0  0
  131.1218  124.4282   69.6927 H   0  0  0  0  0  0  0  0  0  0  0  0
  129.3536  124.7409   69.9726 H   0  0  0  0  0  0  0  0  0  0  0  0
  131.9552  123.5176   71.6892 H   0  0  0  0  0  0  0  0  0  0  0  0
  131.8590  121.7830   73.4816 H   0  0  0  0  0  0  0  0  0  0  0  0
  129.9363  120.2028   73.5732 H   0  0  0  0  0  0  0  0  0  0  0  0
  128.1061  120.3410   71.8888 H   0  0  0  0  0  0  0  0  0  0  0  0
  128.1950  122.0832   70.1025 H   0  0  0  0  0  0  0  0  0  0  0  0
  130.5532  126.0565   68.5304 H   0  0  0  0  0  0  0  0  0  0  0  0
  129.2577  128.2948   68.2222 H   0  0  0  0  0  0  0  0  0  0  0  0
  127.6477  128.1573   68.9859 H   0  0  0  0  0  0  0  0  0  0  0  0
  130.2162  129.7203   69.9841 H   0  0  0  0  0  0  0  0  0  0  0  0
  131.3065  129.7777   72.2284 H   0  0  0  0  0  0  0  0  0  0  0  0
  131.0106  127.8700   73.7996 H   0  0  0  0  0  0  0  0  0  0  0  0
  129.6229  125.9035   73.1522 H   0  0  0  0  0  0  0  0  0  0  0  0
  128.5306  125.8439   70.9098 H   0  0  0  0  0  0  0  0  0  0  0  0
  127.2939  128.7025   62.6623 H   0  0  0  0  0  0  0  0  0  0  0  0
  125.0372  129.7294   62.5753 H   0  0  0  0  0  0  0  0  0  0  0  0
  124.5878  129.1023   66.8279 H   0  0  0  0  0  0  0  0  0  0  0  0
  126.8334  128.0521   66.9112 H   0  0  0  0  0  0  0  0  0  0  0  0
  1  2  2  0
  2  3  1  0
  3  4  1  0
  4  5  1  0
  5  6  1  0
  6  7  1  0
  7  8  1  0
  8  9  1  0
  9 10  1  0
 10 11  2  0
 11 12  1  0
 12 13  2  0
 13 14  1  0
 14 15  2  0
  6 16  1  0
 16 17  1  0
 17 18  1  0
 18 19  1  0
 19 20  2  0
 20 21  1  0
 21 22  2  0
 22 23  1  0
 23 24  2  0
 16 25  1  0
 25 26  1  0
 26 27  1  0
 27 28  1  0
 28 29  2  0
 29 30  1  0
 30 31  2  0
 31 32  1  0
 32 33  2  0
  2 34  1  0
 34 35  2  0
 35 36  1  0
 36 37  2  0
 37 38  1  0
 38 39  2  0
 38 40  1  0
 37 41  1  0
 41 42  2  0
 25  4  1  0
 33 28  1  0
 42 34  1  0
 15 10  1  0
 24 19  1  0
  4 43  1  1
  6 44  1  1
  7 45  1  0
  7 46  1  0
  9 47  1  0
  9 48  1  0
 11 49  1  0
 12 50  1  0
 13 51  1  0
 14 52  1  0
 15 53  1  0
 16 54  1  6
 18 55  1  0
 18 56  1  0
 20 57  1  0
 21 58  1  0
 22 59  1  0
 23 60  1  0
 24 61  1  0
 25 62  1  1
 27 63  1  0
 27 64  1  0
 29 65  1  0
 30 66  1  0
 31 67  1  0
 32 68  1  0
 33 69  1  0
 35 70  1  0
 36 71  1  0
 41 72  1  0
 42 73  1  0
M  CHG  2  38   1  40  -1
M  END
>  <Binding energies>  (1) 
[-9.46]

>  <Ligand effiencies>  (1) 
[-0.22523809523809527]

>  <Interactions>  (1) 
["H-A:TYR:484:OH:4343, V-A:GLY:544:C:4907, V-B:GLU:543:CG:9875, V-A:HIS:456:CE1:4064, V-A:GLY:544:CA:4909, V-B:HIS:456:CE1:9037, V-B:GLU:543:CD:9876, V-A:GLU:543:C:4897, V-B:GLU:543:CB:9874, V-A:LEU:475:CD2:4254, V-B:TYR:539:CD2:9842, V-A:TRP:381:CZ2:3365, V-A:TYR:484:CE1:4340, V-A:TYR:484:CZ:4342, V-A:TRP:381:CH2:3367, V-B:TYR:539:CE2:9844, V-B:ALA:541:CB:9860, V-B:ARG:545:CZ:9894, V-B:ARG:545:CD:9891, V-B:ARG:545:CG:9890, H-B:GLY:454:N:9017, V-A:HIS:456:CD2:4063, V-B:GLU:543:C:9870, V-B:GLU:543:CA:9872, V-A:TYR:484:CD1:4338, V-A:TYR:484:CD2:4339, V-A:HIS:456:CG:4061, V-A:TYR:484:CB:4336, H-A:HIS:456:NE2:4065, V-A:TYR:484:CG:4337, H-B:ARG:545:NE:9892, V-A:LYS:547:CE:4945, H-B:ARG:545:NH1:9895, V-B:GLY:453:CA:9011, V-A:ASP:473:CB:4234, V-B:GLY:453:C:9009"]

$$$$
RR9_Rahimova_2017
     RDKit          3D

 64 68  0  0  0  0  0  0  0  0999 V2000
  126.4840  129.6750   74.4870 C   0  0  0  0  0  0  0  0  0  0  0  0
  127.9360  130.0430   74.1690 C   0  0  0  0  0  0  0  0  0  0  0  0
  128.6250  128.8690   73.7490 O   0  0  0  0  0  0  0  0  0  0  0  0
  128.8280  128.6470   72.4010 C   0  0  0  0  0  0  0  0  0  0  0  0
  127.7860  128.0350   71.7060 C   0  0  0  0  0  0  0  0  0  0  0  0
  127.9020  127.7700   70.3450 C   0  0  0  0  0  0  0  0  0  0  0  0
  129.0650  128.1100   69.6390 C   0  0  0  0  0  0  0  0  0  0  0  0
  129.1970  127.8220   68.1730 C   0  0  0  0  0  0  0  0  0  0  0  0
  129.8720  126.6840   67.7040 C   0  0  0  0  0  0  0  0  0  0  0  0
  129.9810  126.4120   66.3280 C   0  0  0  0  0  0  0  0  0  0  0  0
  130.6280  125.1260   65.8930 C   0  0  0  0  0  0  0  0  0  0  0  0
  131.7310  124.8030   66.3340 O   0  0  0  0  0  0  0  0  0  0  0  0
  129.9360  124.3970   64.9950 N   0  0  0  0  0  0  0  0  0  0  0  0
  130.4110  123.1820   64.3250 C   0  0  0  0  0  0  0  0  0  0  0  0
  129.6420  122.8690   63.0200 C   0  0  0  0  0  0  0  0  0  0  0  0
  130.3940  121.9830   62.0340 C   0  0  0  0  0  0  0  0  0  0  0  0
  131.7820  122.0950   61.9070 C   0  0  0  0  0  0  0  0  0  0  0  0
  132.4700  121.2610   61.0310 C   0  0  0  0  0  0  0  0  0  0  0  0
  131.7690  120.3200   60.2800 C   0  0  0  0  0  0  0  0  0  0  0  0
  130.3850  120.2050   60.3980 C   0  0  0  0  0  0  0  0  0  0  0  0
  129.6960  121.0390   61.2760 C   0  0  0  0  0  0  0  0  0  0  0  0
  129.4040  127.3650   65.4520 C   0  0  0  0  0  0  0  0  0  0  0  0
  129.2650  127.5920   64.0330 C   0  0  0  0  0  0  0  0  0  0  0  0
  129.8290  126.8170   62.8890 C   0  0  0  0  0  0  0  0  0  0  0  0
  129.0070  126.4380   61.8230 C   0  0  0  0  0  0  0  0  0  0  0  0
  129.5310  125.7010   60.7630 C   0  0  0  0  0  0  0  0  0  0  0  0
  130.8800  125.3430   60.7650 C   0  0  0  0  0  0  0  0  0  0  0  0
  131.4480  124.5240   59.6200 C   0  0  0  0  0  0  0  0  0  0  0  0
  131.7040  125.7170   61.8280 C   0  0  0  0  0  0  0  0  0  0  0  0
  131.1790  126.4560   62.8850 C   0  0  0  0  0  0  0  0  0  0  0  0
  128.5440  128.6670   63.8070 N   0  0  0  0  0  0  0  0  0  0  0  0
  128.2340  129.2140   64.9930 N   0  0  0  0  0  0  0  0  0  0  0  0
  128.7410  128.4720   66.0340 C   0  0  0  0  0  0  0  0  0  0  0  0
  128.6240  128.7320   67.3350 N   0  0  0  0  0  0  0  0  0  0  0  0
  130.1090  128.7230   70.3450 C   0  0  0  0  0  0  0  0  0  0  0  0
  129.9960  128.9910   71.7070 C   0  0  0  0  0  0  0  0  0  0  0  0
  126.3451  129.6398   75.5776 H   0  0  0  0  0  0  0  0  0  0  0  0
  125.8113  130.4310   74.0559 H   0  0  0  0  0  0  0  0  0  0  0  0
  126.2526  128.6898   74.0559 H   0  0  0  0  0  0  0  0  0  0  0  0
  127.9598  130.7933   73.3650 H   0  0  0  0  0  0  0  0  0  0  0  0
  128.4204  130.4611   75.0637 H   0  0  0  0  0  0  0  0  0  0  0  0
  126.8638  127.7591   72.2383 H   0  0  0  0  0  0  0  0  0  0  0  0
  127.0685  127.2863   69.8146 H   0  0  0  0  0  0  0  0  0  0  0  0
  130.3252  125.9904   68.4275 H   0  0  0  0  0  0  0  0  0  0  0  0
  129.0020  124.6970   64.7560 H   0  0  0  0  0  0  0  0  0  0  0  0
  131.4761  123.3099   64.0817 H   0  0  0  0  0  0  0  0  0  0  0  0
  130.2442  122.3408   65.0139 H   0  0  0  0  0  0  0  0  0  0  0  0
  128.7033  122.3625   63.2887 H   0  0  0  0  0  0  0  0  0  0  0  0
  129.4845  123.8328   62.5137 H   0  0  0  0  0  0  0  0  0  0  0  0
  132.3300  122.8424   62.4996 H   0  0  0  0  0  0  0  0  0  0  0  0
  133.5624  121.3443   60.9319 H   0  0  0  0  0  0  0  0  0  0  0  0
  132.3131  119.6613   59.5871 H   0  0  0  0  0  0  0  0  0  0  0  0
  129.8394  119.4595   59.8009 H   0  0  0  0  0  0  0  0  0  0  0  0
  128.6035  120.9545   61.3725 H   0  0  0  0  0  0  0  0  0  0  0  0
  127.9444  126.7224   61.8213 H   0  0  0  0  0  0  0  0  0  0  0  0
  128.8827  125.4019   59.9262 H   0  0  0  0  0  0  0  0  0  0  0  0
  132.0310  123.6834   60.0244 H   0  0  0  0  0  0  0  0  0  0  0  0
  130.6243  124.1357   59.0030 H   0  0  0  0  0  0  0  0  0  0  0  0
  132.1003  125.1594   59.0030 H   0  0  0  0  0  0  0  0  0  0  0  0
  132.7655  125.4286   61.8306 H   0  0  0  0  0  0  0  0  0  0  0  0
  131.8292  126.7567   63.7198 H   0  0  0  0  0  0  0  0  0  0  0  0
  127.6900  130.0640   65.0420 H   0  0  0  0  0  0  0  0  0  0  0  0
  131.0329  128.9970   69.8146 H   0  0  0  0  0  0  0  0  0  0  0  0
  130.8274  129.4749   72.2405 H   0  0  0  0  0  0  0  0  0  0  0  0
  1  2  1  0
  2  3  1  0
  3  4  1  0
  4  5  2  0
  5  6  1  0
  6  7  2  0
  7  8  1  0
  8  9  2  0
  9 10  1  0
 10 11  1  0
 11 12  2  0
 11 13  1  0
 13 14  1  0
 14 15  1  0
 15 16  1  0
 16 17  2  0
 17 18  1  0
 18 19  2  0
 19 20  1  0
 20 21  2  0
 10 22  2  0
 22 23  1  0
 23 24  1  0
 24 25  2  0
 25 26  1  0
 26 27  2  0
 27 28  1  0
 27 29  1  0
 29 30  2  0
 23 31  2  0
 31 32  1  0
 32 33  1  0
 33 34  2  0
  7 35  1  0
 35 36  2  0
 36  4  1  0
 34  8  1  0
 21 16  1  0
 33 22  1  0
 30 24  1  0
  1 37  1  0
  1 38  1  0
  1 39  1  0
  2 40  1  0
  2 41  1  0
  5 42  1  0
  6 43  1  0
  9 44  1  0
 13 45  1  0
 14 46  1  0
 14 47  1  0
 15 48  1  0
 15 49  1  0
 17 50  1  0
 18 51  1  0
 19 52  1  0
 20 53  1  0
 21 54  1  0
 25 55  1  0
 26 56  1  0
 28 57  1  0
 28 58  1  0
 28 59  1  0
 29 60  1  0
 30 61  1  0
 32 62  1  0
 35 63  1  0
 36 64  1  0
M  END
>  <Binding energies>  (1) 
[-8.75]

>  <Ligand effiencies>  (1) 
[-0.23026315789473684]

>  <Interactions>  (1) 
["H-A:TYR:484:OH:4343, V-A:ASP:366:CG:3208, V-A:GLU:543:CD:4903, V-A:GLU:543:CG:4902, V-B:GLU:543:CG:9875, V-A:HIS:456:CE1:4064, V-B:HIS:456:CE1:9037, V-B:GLU:543:CD:9876, V-A:GLU:543:C:4897, H-B:GLU:543:OE2:9878, V-A:LEU:475:CD2:4254, V-B:TYR:539:CD2:9842, V-A:TYR:484:CE1:4340, V-A:TYR:484:CZ:4342, V-A:TRP:381:CH2:3367, V-B:TYR:539:CE2:9844, V-B:ALA:541:CB:9860, H-B:TYR:484:OH:9315, H-B:LYS:547:NZ:9919, V-B:HIS:456:CD2:9035, H-A:LYS:547:NZ:4946, H-A:HIS:456:NE2:4065, V-B:HIS:456:CG:9033, V-B:HIS:456:CB:9032"]

$$$$
