1a_Grossjean_2025
     RDKit          3D

 26 27  0  0  0  0  0  0  0  0999 V2000
  131.5010  125.9800   74.1130 C   0  0  0  0  0  0  0  0  0  0  0  0
  130.4820  125.7470   72.9940 C   0  0  0  0  0  0  0  0  0  0  0  0
  129.3780  126.6260   73.1670 O   0  0  0  0  0  0  0  0  0  0  0  0
  129.4540  127.9290   72.7900 C   0  0  0  0  0  0  0  0  0  0  0  0
  129.4460  128.8700   73.5890 O   0  0  0  0  0  0  0  0  0  0  0  0
  129.5310  128.1120   71.3010 C   0  0  0  0  0  0  0  0  0  0  0  0
  128.4660  127.6740   70.5030 C   0  0  0  0  0  0  0  0  0  0  0  0
  128.5100  127.8260   69.1200 C   0  0  0  0  0  0  0  0  0  0  0  0
  129.6160  128.4140   68.5060 C   0  0  0  0  0  0  0  0  0  0  0  0
  129.5550  128.5140   67.1030 N   0  0  0  0  0  0  0  0  0  0  0  0
  128.7350  129.2470   66.3190 C   0  0  0  0  0  0  0  0  0  0  0  0
  127.8490  130.0010   66.7200 O   0  0  0  0  0  0  0  0  0  0  0  0
  128.9620  129.0980   64.8140 C   0  0  0  0  0  0  0  0  0  0  0  0
  127.6370  128.1440   64.0120 S   0  0  0  0  0  0  0  0  0  0  0  0
  126.1150  129.0290   64.2630 C   0  0  0  0  0  0  0  0  0  0  0  0
  125.7430  129.7910   63.2040 N   0  0  0  0  0  0  0  0  0  0  0  0
  124.6000  130.5110   63.2900 C   0  0  0  0  0  0  0  0  0  0  0  0
  124.2550  131.3490   62.0720 C   0  0  0  0  0  0  0  0  0  0  0  0
  123.7840  130.4960   64.4190 C   0  0  0  0  0  0  0  0  0  0  0  0
  124.1470  129.6980   65.5090 C   0  0  0  0  0  0  0  0  0  0  0  0
  123.2300  129.6840   66.7290 C   0  0  0  0  0  0  0  0  0  0  0  0
  125.3350  128.9330   65.4400 C   0  0  0  0  0  0  0  0  0  0  0  0
  125.7110  128.0530   66.5500 C   0  0  0  0  0  0  0  0  0  0  0  0
  126.0050  127.3590   67.4280 N   0  0  0  0  0  0  0  0  0  0  0  0
  130.6840  128.8630   69.2990 C   0  0  0  0  0  0  0  0  0  0  0  0
  130.6390  128.7100   70.6820 C   0  0  0  0  0  0  0  0  0  0  0  0
  1  2  1  0
  2  3  1  0
  3  4  1  0
  4  5  2  0
  4  6  1  0
  6  7  2  0
  7  8  1  0
  8  9  2  0
  9 10  1  0
 10 11  1  0
 11 12  2  0
 11 13  1  0
 13 14  1  0
 14 15  1  0
 15 16  2  0
 16 17  1  0
 17 18  1  0
 17 19  2  0
 19 20  1  0
 20 21  1  0
 20 22  2  0
 22 23  1  0
 23 24  3  0
  9 25  1  0
 25 26  2  0
 26  6  1  0
 22 15  1  0
M  END
>  <Binding energies>  (1) 
[-6.81]

>  <Ligand effiencies>  (1) 
[-0.2522222222222222]

>  <Interactions>  (1) 
["V-A:GLU:543:CD:4903, V-A:GLU:543:CG:4902, V-A:GLY:544:C:4907, V-A:GLU:543:CB:4901, V-A:GLU:543:CA:4899, V-A:HIS:456:CE1:4064, V-B:HIS:456:CE1:9037, H-A:GLU:543:OE1:4904, V-A:GLU:543:C:4897, V-B:ARG:545:CZ:9894, H-B:TYR:484:OH:9315, V-B:ARG:545:CD:9891, V-B:ARG:545:CG:9890, H-B:LYS:547:NZ:9919, H-A:LYS:547:NZ:4946, V-A:LYS:547:CE:4945, V-B:GLY:453:CA:9011, V-B:ARG:545:CB:9889"]

$$$$
1aa_Ghoteimi_2023
     RDKit          3D

 40 43  0  0  0  0  0  0  0  0999 V2000
  129.4000  117.6330   59.8930 C   0  0  0  0  0  0  0  0  0  0  0  0
  130.1330  118.6640   60.7570 C   0  0  0  0  0  0  0  0  0  0  0  0
  130.5490  119.7530   59.9430 O   0  0  0  0  0  0  0  0  0  0  0  0
  131.8030  120.2640   60.0430 C   0  0  0  0  0  0  0  0  0  0  0  0
  132.7430  119.9050   59.3270 O   0  0  0  0  0  0  0  0  0  0  0  0
  131.9350  121.3100   61.1120 C   0  0  0  0  0  0  0  0  0  0  0  0
  133.1440  121.9840   61.3460 C   0  0  0  0  0  0  0  0  0  0  0  0
  133.2370  122.9500   62.3450 C   0  0  0  0  0  0  0  0  0  0  0  0
  132.1170  123.2620   63.1290 C   0  0  0  0  0  0  0  0  0  0  0  0
  132.0920  124.2160   64.1630 N   0  0  0  0  0  0  0  0  0  0  0  0
  133.1050  124.8790   64.7680 C   0  0  0  0  0  0  0  0  0  0  0  0
  134.2970  124.7500   64.4890 O   0  0  0  0  0  0  0  0  0  0  0  0
  132.7320  125.8660   65.8860 C   0  0  0  0  0  0  0  0  0  0  0  0
  131.5220  125.4540   66.5350 O   0  0  0  0  0  0  0  0  0  0  0  0
  130.5280  126.3800   66.8200 C   0  0  0  0  0  0  0  0  0  0  0  0
  130.3580  126.7600   68.1160 N   0  0  0  0  0  0  0  0  0  0  0  0
  129.3850  127.6540   68.4360 C   0  0  0  0  0  0  0  0  0  0  0  0
  129.2640  128.0220   69.8870 C   0  0  0  0  0  0  0  0  0  0  0  0
  130.3330  128.6180   70.5730 C   0  0  0  0  0  0  0  0  0  0  0  0
  130.2230  128.9580   71.9180 C   0  0  0  0  0  0  0  0  0  0  0  0
  129.0440  128.7160   72.6190 C   0  0  0  0  0  0  0  0  0  0  0  0
  129.0270  129.0860   73.9500 O   0  0  0  0  0  0  0  0  0  0  0  0
  128.2230  130.1890   74.3540 C   0  0  0  0  0  0  0  0  0  0  0  0
  127.9650  128.1260   71.9470 C   0  0  0  0  0  0  0  0  0  0  0  0
  128.0770  127.7870   70.6010 C   0  0  0  0  0  0  0  0  0  0  0  0
  128.5680  128.2050   67.4430 C   0  0  0  0  0  0  0  0  0  0  0  0
  128.7290  127.8400   66.0990 C   0  0  0  0  0  0  0  0  0  0  0  0
  127.8330  128.4710   65.0860 C   0  0  0  0  0  0  0  0  0  0  0  0
  126.4720  128.1510   65.0550 C   0  0  0  0  0  0  0  0  0  0  0  0
  125.6270  128.7430   64.1190 C   0  0  0  0  0  0  0  0  0  0  0  0
  126.1220  129.6690   63.2020 C   0  0  0  0  0  0  0  0  0  0  0  0
  125.2120  130.2040   62.3120 O   0  0  0  0  0  0  0  0  0  0  0  0
  123.8360  130.2530   62.6710 C   0  0  0  0  0  0  0  0  0  0  0  0
  127.4860  129.9990   63.2350 C   0  0  0  0  0  0  0  0  0  0  0  0
  128.3290  129.4050   64.1710 C   0  0  0  0  0  0  0  0  0  0  0  0
  129.7320  126.8940   65.7820 C   0  0  0  0  0  0  0  0  0  0  0  0
  129.9460  126.4190   64.4140 C   0  0  0  0  0  0  0  0  0  0  0  0
  130.1160  126.0430   63.3330 N   0  0  0  0  0  0  0  0  0  0  0  0
  130.9140  122.5920   62.9000 C   0  0  0  0  0  0  0  0  0  0  0  0
  130.8230  121.6260   61.9020 C   0  0  0  0  0  0  0  0  0  0  0  0
  1  2  1  0
  2  3  1  0
  3  4  1  0
  4  5  2  0
  4  6  1  0
  6  7  2  0
  7  8  1  0
  8  9  2  0
  9 10  1  0
 10 11  1  0
 11 12  2  0
 11 13  1  0
 13 14  1  0
 14 15  1  0
 15 16  2  0
 16 17  1  0
 17 18  1  0
 18 19  2  0
 19 20  1  0
 20 21  2  0
 21 22  1  0
 22 23  1  0
 21 24  1  0
 24 25  2  0
 17 26  2  0
 26 27  1  0
 27 28  1  0
 28 29  2  0
 29 30  1  0
 30 31  2  0
 31 32  1  0
 32 33  1  0
 31 34  1  0
 34 35  2  0
 27 36  2  0
 36 37  1  0
 37 38  3  0
  9 39  1  0
 39 40  2  0
 40  6  1  0
 36 15  1  0
 25 18  1  0
 35 28  1  0
M  END
>  <Binding energies>  (2) 
[-9.38]

>  <Ligand effiencies>  (2) 
[-0.22878048780487806]

>  <Interactions>  (2) 
["V-A:ARG:545:CD:4918, H-A:TYR:484:OH:4343, V-A:ARG:545:CZ:4921, V-A:ARG:545:CG:4917, H-A:GLY:454:N:4045, V-A:GLU:543:CD:4903, V-A:GLU:543:CG:4902, V-A:GLY:544:C:4907, V-A:HIS:456:CE1:4064, V-B:HIS:456:CE1:9037, V-B:GLU:543:CD:9876, V-A:GLU:543:C:4897, V-A:PRO:482:CB:4321, V-A:LEU:475:CD2:4254, V-B:TYR:539:CD2:9842, V-A:TRP:381:CZ3:3366, V-A:TRP:381:CZ2:3365, V-A:PRO:482:CG:4322, V-A:TRP:381:CH2:3367, V-B:TYR:539:CE2:9844, V-B:ALA:541:CB:9860, V-B:ARG:545:CZ:9894, V-A:ILE:369:CD1:3234, H-B:LYS:547:NZ:9919, V-B:HIS:456:CD2:9035, H-A:LYS:547:NZ:4946, H-A:HIS:456:NE2:4065, V-B:TYR:539:C:9835, H-A:ARG:545:NH1:4922, V-A:TRP:381:CE3:3363, V-B:TYR:539:CA:9837, V-B:TYR:539:CB:9839, V-A:TRP:381:CD2:3360, V-A:TRP:381:CE2:3362"]

$$$$
1b_Grossjean_2025
     RDKit          3D

 25 26  0  0  0  0  0  0  0  0999 V2000
  122.5890  130.2320   66.9800 C   0  0  0  0  0  0  0  0  0  0  0  0
  123.5000  131.0200   66.2250 O   0  0  0  0  0  0  0  0  0  0  0  0
  124.1190  130.5120   65.1290 C   0  0  0  0  0  0  0  0  0  0  0  0
  123.7630  130.7550   63.9720 O   0  0  0  0  0  0  0  0  0  0  0  0
  125.2890  129.6310   65.4630 C   0  0  0  0  0  0  0  0  0  0  0  0
  125.1470  128.4720   66.2410 C   0  0  0  0  0  0  0  0  0  0  0  0
  126.2510  127.6780   66.5330 C   0  0  0  0  0  0  0  0  0  0  0  0
  127.5160  128.0200   66.0570 C   0  0  0  0  0  0  0  0  0  0  0  0
  128.5600  127.1450   66.4150 N   0  0  0  0  0  0  0  0  0  0  0  0
  128.8010  126.5110   67.5830 C   0  0  0  0  0  0  0  0  0  0  0  0
  128.1070  126.5890   68.5960 O   0  0  0  0  0  0  0  0  0  0  0  0
  130.0470  125.6240   67.6020 C   0  0  0  0  0  0  0  0  0  0  0  0
  131.5200  126.4980   66.9910 S   0  0  0  0  0  0  0  0  0  0  0  0
  131.7740  125.9950   65.3030 C   0  0  0  0  0  0  0  0  0  0  0  0
  130.7070  126.2240   64.4980 N   0  0  0  0  0  0  0  0  0  0  0  0
  130.7920  125.8800   63.1920 C   0  0  0  0  0  0  0  0  0  0  0  0
  129.5660  126.1800   62.3490 C   0  0  0  0  0  0  0  0  0  0  0  0
  131.9280  125.2890   62.6420 C   0  0  0  0  0  0  0  0  0  0  0  0
  133.0250  125.0290   63.4690 C   0  0  0  0  0  0  0  0  0  0  0  0
  134.2540  124.3650   62.8480 C   0  0  0  0  0  0  0  0  0  0  0  0
  132.9600  125.3790   64.8370 C   0  0  0  0  0  0  0  0  0  0  0  0
  134.0790  125.0750   65.7310 C   0  0  0  0  0  0  0  0  0  0  0  0
  134.9650  124.8340   66.4350 N   0  0  0  0  0  0  0  0  0  0  0  0
  127.6670  129.1770   65.2770 C   0  0  0  0  0  0  0  0  0  0  0  0
  126.5620  129.9710   64.9850 C   0  0  0  0  0  0  0  0  0  0  0  0
  1  2  1  0
  2  3  1  0
  3  4  2  0
  3  5  1  0
  5  6  2  0
  6  7  1  0
  7  8  2  0
  8  9  1  0
  9 10  1  0
 10 11  2  0
 10 12  1  0
 12 13  1  0
 13 14  1  0
 14 15  2  0
 15 16  1  0
 16 17  1  0
 16 18  2  0
 18 19  1  0
 19 20  1  0
 19 21  2  0
 21 22  1  0
 22 23  3  0
  8 24  1  0
 24 25  2  0
 25  5  1  0
 21 14  1  0
M  END
>  <Binding energies>  (3) 
[-6.39]

>  <Ligand effiencies>  (3) 
[-0.24576923076923077]

>  <Interactions>  (3) 
["V-A:ARG:545:CD:4918, H-A:TYR:484:OH:4343, V-A:ARG:545:CZ:4921, H-A:GLY:454:N:4045, V-A:ASP:366:CG:3208, V-A:GLU:543:CD:4903, V-B:GLU:543:CG:9875, V-A:HIS:456:CE1:4064, V-B:HIS:456:CE1:9037, H-A:GLU:543:OE1:4904, V-B:GLU:543:CD:9876, V-B:GLU:543:CB:9874, H-B:GLU:543:OE2:9878, V-B:ARG:545:CZ:9894, H-B:TYR:484:OH:9315, V-B:ARG:545:CD:9891, V-B:ARG:545:CG:9890, H-B:GLY:454:N:9017, V-A:ILE:369:CD1:3234, V-A:GLY:453:C:4037, V-A:GLY:453:CA:4039, H-A:HIS:456:NE2:4065, V-B:GLY:453:CA:9011, V-B:GLY:453:C:9009, V-B:GLY:454:CA:9016, H-B:ILE:455:N:9022, V-B:GLY:454:C:9014, V-B:ILE:455:C:9019, H-A:ILE:455:N:4050"]

$$$$
1c_Grossjean_2025
     RDKit          3D

 23 24  0  0  0  0  0  0  0  0999 V2000
  122.6590  129.9890   66.9680 C   0  0  0  0  0  0  0  0  0  0  0  0
  122.7200  129.9830   65.5460 O   0  0  0  0  0  0  0  0  0  0  0  0
  123.9120  130.2960   64.9210 C   0  0  0  0  0  0  0  0  0  0  0  0
  124.9610  129.3930   65.0930 C   0  0  0  0  0  0  0  0  0  0  0  0
  126.2010  129.6200   64.5020 C   0  0  0  0  0  0  0  0  0  0  0  0
  126.4040  130.7660   63.7190 C   0  0  0  0  0  0  0  0  0  0  0  0
  127.6180  131.0990   63.0860 N   0  0  0  0  0  0  0  0  0  0  0  0
  128.6060  131.9170   63.5050 C   0  0  0  0  0  0  0  0  0  0  0  0
  128.6230  132.5290   64.5720 O   0  0  0  0  0  0  0  0  0  0  0  0
  129.7890  132.0620   62.5440 C   0  0  0  0  0  0  0  0  0  0  0  0
  129.3400  133.0010   61.0540 S   0  0  0  0  0  0  0  0  0  0  0  0
  127.5770  132.8860   60.8280 C   0  0  0  0  0  0  0  0  0  0  0  0
  127.1650  131.6630   60.4060 N   0  0  0  0  0  0  0  0  0  0  0  0
  125.8440  131.4560   60.1990 C   0  0  0  0  0  0  0  0  0  0  0  0
  125.4600  130.0620   59.7390 C   0  0  0  0  0  0  0  0  0  0  0  0
  124.8880  132.4510   60.3890 C   0  0  0  0  0  0  0  0  0  0  0  0
  125.3030  133.7220   60.7990 C   0  0  0  0  0  0  0  0  0  0  0  0
  124.2380  134.8020   60.9840 C   0  0  0  0  0  0  0  0  0  0  0  0
  126.6790  133.9630   61.0200 C   0  0  0  0  0  0  0  0  0  0  0  0
  127.1380  135.3030   61.3970 C   0  0  0  0  0  0  0  0  0  0  0  0
  127.4990  136.3600   61.6950 N   0  0  0  0  0  0  0  0  0  0  0  0
  125.3610  131.6780   63.5540 C   0  0  0  0  0  0  0  0  0  0  0  0
  124.1230  131.4470   64.1470 C   0  0  0  0  0  0  0  0  0  0  0  0
  1  2  1  0
  2  3  1  0
  3  4  2  0
  4  5  1  0
  5  6  2  0
  6  7  1  0
  7  8  1  0
  8  9  2  0
  8 10  1  0
 10 11  1  0
 11 12  1  0
 12 13  2  0
 13 14  1  0
 14 15  1  0
 14 16  2  0
 16 17  1  0
 17 18  1  0
 17 19  2  0
 19 20  1  0
 20 21  3  0
  6 22  1  0
 22 23  2  0
 23  3  1  0
 19 12  1  0
M  END
>  <Binding energies>  (4) 
[-6.62]

>  <Ligand effiencies>  (4) 
[-0.2758333333333333]

>  <Interactions>  (4) 
["V-A:GLU:543:CD:4903, V-A:GLU:543:CG:4902, V-B:HIS:456:CE1:9037, V-B:ARG:545:CZ:9894, H-B:TYR:484:OH:9315, H-A:ALA:541:N:4886, V-B:ARG:545:CD:9891, V-A:ALA:541:CB:4887, V-B:ARG:545:CG:9890, V-A:TYR:539:CE2:4871, H-B:GLY:454:N:9017, H-B:ARG:545:NE:9892, V-B:ASP:366:CG:8180, V-B:ILE:369:CD1:8206, V-B:ILE:369:CG2:8204, V-B:LEU:475:CD2:9226, V-A:TYR:539:CD2:4869, H-B:ARG:545:NH1:9895, V-B:GLY:453:CA:9011, V-B:TRP:381:CH2:8339, V-B:GLY:453:C:9009, V-B:GLY:454:CA:9016, V-B:ARG:545:CB:9889, V-B:ILE:455:C:9019"]

$$$$
1d_Grossjean_2025
     RDKit          3D

 21 22  0  0  0  0  0  0  0  0999 V2000
  127.8250  132.2320   58.3870 C   0  0  0  0  0  0  0  0  0  0  0  0
  126.8780  132.0290   59.5530 C   0  0  0  0  0  0  0  0  0  0  0  0
  125.5450  131.6750   59.3580 C   0  0  0  0  0  0  0  0  0  0  0  0
  124.7190  131.4920   60.4720 C   0  0  0  0  0  0  0  0  0  0  0  0
  123.2650  131.0880   60.2330 C   0  0  0  0  0  0  0  0  0  0  0  0
  125.2540  131.6790   61.7670 C   0  0  0  0  0  0  0  0  0  0  0  0
  124.4210  131.4460   62.9490 C   0  0  0  0  0  0  0  0  0  0  0  0
  123.7610  131.2610   63.8810 N   0  0  0  0  0  0  0  0  0  0  0  0
  126.6120  132.0620   61.8710 C   0  0  0  0  0  0  0  0  0  0  0  0
  127.4460  132.3410   63.4170 S   0  0  0  0  0  0  0  0  0  0  0  0
  129.0260  131.4430   63.3510 C   0  0  0  0  0  0  0  0  0  0  0  0
  129.8720  131.8530   62.1440 C   0  0  0  0  0  0  0  0  0  0  0  0
  129.7830  133.0020   61.7100 O   0  0  0  0  0  0  0  0  0  0  0  0
  130.6880  130.8930   61.6580 N   0  0  0  0  0  0  0  0  0  0  0  0
  131.5720  130.9300   60.5640 C   0  0  0  0  0  0  0  0  0  0  0  0
  132.9250  130.7630   60.8710 C   0  0  0  0  0  0  0  0  0  0  0  0
  133.8830  130.7770   59.8620 C   0  0  0  0  0  0  0  0  0  0  0  0
  133.4880  130.9530   58.5380 C   0  0  0  0  0  0  0  0  0  0  0  0
  132.1430  131.1120   58.2160 C   0  0  0  0  0  0  0  0  0  0  0  0
  131.1820  131.1000   59.2240 C   0  0  0  0  0  0  0  0  0  0  0  0
  127.4100  132.2170   60.7840 N   0  0  0  0  0  0  0  0  0  0  0  0
  1  2  1  0
  2  3  2  0
  3  4  1  0
  4  5  1  0
  4  6  2  0
  6  7  1  0
  7  8  3  0
  6  9  1  0
  9 10  1  0
 10 11  1  0
 11 12  1  0
 12 13  2  0
 12 14  1  0
 14 15  1  0
 15 16  2  0
 16 17  1  0
 17 18  2  0
 18 19  1  0
 19 20  2  0
  9 21  2  0
 21  2  1  0
 20 15  1  0
M  END
>  <Binding energies>  (5) 
[-6.52]

>  <Ligand effiencies>  (5) 
[-0.29636363636363633]

>  <Interactions>  (5) 
["V-A:LEU:363:CA:3180, V-A:ASN:362:CB:3171, V-A:ASN:362:C:3167, H-A:GLU:543:OE2:4905, V-A:PRO:540:CA:4878, V-A:GLU:543:CD:4903, V-A:PRO:540:CB:4880, V-A:GLU:543:CG:4902, H-B:TYR:484:OH:9315, H-A:ALA:541:N:4886, V-A:TYR:539:CZ:4872, V-A:TYR:539:CE2:4871, H-B:GLY:454:N:9017, V-A:LEU:363:CD1:3184, V-A:LEU:363:CB:3182, V-B:ASP:366:CB:8179, V-B:ASP:366:CG:8180, V-B:ILE:369:CD1:8206, V-B:ILE:369:CB:8203, V-B:ASP:366:CA:8177, V-A:TYR:539:CD2:4869, V-A:TYR:539:CE1:4870"]

$$$$
1e_Grossjean_2025
     RDKit          3D

 22 23  0  0  0  0  0  0  0  0999 V2000
  135.0310  124.8900   66.5250 C   0  0  0  0  0  0  0  0  0  0  0  0
  133.8700  125.1180   65.5760 C   0  0  0  0  0  0  0  0  0  0  0  0
  132.6330  125.5830   66.0320 C   0  0  0  0  0  0  0  0  0  0  0  0
  131.6100  125.7660   65.1010 C   0  0  0  0  0  0  0  0  0  0  0  0
  131.8430  125.4830   63.7530 C   0  0  0  0  0  0  0  0  0  0  0  0
  133.1070  125.0250   63.3630 C   0  0  0  0  0  0  0  0  0  0  0  0
  133.2790  124.7460   61.9960 N   0  0  0  0  0  0  0  0  0  0  0  0
  133.6320  123.5790   61.4140 C   0  0  0  0  0  0  0  0  0  0  0  0
  133.8810  122.5350   62.0180 O   0  0  0  0  0  0  0  0  0  0  0  0
  133.7500  123.6050   59.8890 C   0  0  0  0  0  0  0  0  0  0  0  0
  133.1220  122.0760   59.1320 S   0  0  0  0  0  0  0  0  0  0  0  0
  131.5620  121.6640   59.8880 C   0  0  0  0  0  0  0  0  0  0  0  0
  131.3840  120.3290   60.0640 N   0  0  0  0  0  0  0  0  0  0  0  0
  130.2330  119.8930   60.6280 C   0  0  0  0  0  0  0  0  0  0  0  0
  130.1090  118.3920   60.7990 C   0  0  0  0  0  0  0  0  0  0  0  0
  129.2160  120.7590   61.0260 C   0  0  0  0  0  0  0  0  0  0  0  0
  129.3790  122.1340   60.8270 C   0  0  0  0  0  0  0  0  0  0  0  0
  128.2410  123.0600   61.2560 C   0  0  0  0  0  0  0  0  0  0  0  0
  130.5710  122.6120   60.2370 C   0  0  0  0  0  0  0  0  0  0  0  0
  130.7310  124.0430   59.9680 C   0  0  0  0  0  0  0  0  0  0  0  0
  130.8560  125.1740   59.7570 N   0  0  0  0  0  0  0  0  0  0  0  0
  134.1120  124.8400   64.2700 N   0  0  0  0  0  0  0  0  0  0  0  0
  1  2  1  0
  2  3  2  0
  3  4  1  0
  4  5  2  0
  5  6  1  0
  6  7  1  0
  7  8  1  0
  8  9  2  0
  8 10  1  0
 10 11  1  0
 11 12  1  0
 12 13  2  0
 13 14  1  0
 14 15  1  0
 14 16  2  0
 16 17  1  0
 17 18  1  0
 17 19  2  0
 19 20  1  0
 20 21  3  0
  6 22  2  0
 22  2  1  0
 19 12  1  0
M  END
>  <Binding energies>  (6) 
[-7.2]

>  <Ligand effiencies>  (6) 
[-0.3130434782608696]

>  <Interactions>  (6) 
["H-A:ASP:366:OD2:3210, V-A:ARG:545:CD:4918, H-A:TYR:484:OH:4343, V-A:ARG:545:CZ:4921, V-A:ARG:545:CG:4917, H-A:GLY:454:N:4045, H-A:ASP:366:OD1:3209, V-A:ASP:366:CG:3208, V-A:GLY:454:CA:4044, V-A:PRO:482:CB:4321, V-A:LEU:475:CD2:4254, V-B:TYR:539:CD2:9842, V-A:TRP:381:CZ3:3366, V-A:TRP:381:CZ2:3365, V-A:PRO:482:CG:4322, V-A:TRP:381:CH2:3367, V-B:TYR:539:CE2:9844, V-B:ALA:541:CB:9860, V-A:ASP:366:CB:3207, V-A:ILE:369:CD1:3234, V-A:HIS:456:CD2:4063, V-A:GLY:453:C:4037, V-A:GLY:453:CA:4039, V-B:PRO:540:C:9849, V-B:ALA:541:CA:9858, V-B:TYR:539:C:9835, H-A:ARG:545:NH1:4922, V-A:TRP:381:CE2:3362, V-A:ASP:366:CA:3205"]

$$$$
1f_Grossjean_2025
     RDKit          3D

 21 22  0  0  0  0  0  0  0  0999 V2000
  132.6240  124.4830   58.3800 C   0  0  0  0  0  0  0  0  0  0  0  0
  132.1450  123.2220   59.0760 C   0  0  0  0  0  0  0  0  0  0  0  0
  133.0100  122.1660   59.3480 C   0  0  0  0  0  0  0  0  0  0  0  0
  132.5080  121.0230   59.9800 C   0  0  0  0  0  0  0  0  0  0  0  0
  133.4730  119.8690   60.2510 C   0  0  0  0  0  0  0  0  0  0  0  0
  131.1410  120.9730   60.3350 C   0  0  0  0  0  0  0  0  0  0  0  0
  130.5850  119.7630   60.9470 C   0  0  0  0  0  0  0  0  0  0  0  0
  130.1480  118.8070   61.4310 N   0  0  0  0  0  0  0  0  0  0  0  0
  130.3420  122.1030   60.0460 C   0  0  0  0  0  0  0  0  0  0  0  0
  128.6030  122.2230   60.4170 S   0  0  0  0  0  0  0  0  0  0  0  0
  128.4190  122.6430   62.1840 C   0  0  0  0  0  0  0  0  0  0  0  0
  129.7380  122.7480   62.9640 C   0  0  0  0  0  0  0  0  0  0  0  0
  130.4030  121.7400   63.2070 O   0  0  0  0  0  0  0  0  0  0  0  0
  130.0580  123.9990   63.3590 N   0  0  0  0  0  0  0  0  0  0  0  0
  131.1810  124.4560   64.0750 C   0  0  0  0  0  0  0  0  0  0  0  0
  131.1450  125.2840   65.2130 C   0  0  0  0  0  0  0  0  0  0  0  0
  132.3410  125.6600   65.8310 C   0  0  0  0  0  0  0  0  0  0  0  0
  133.5440  125.1970   65.2980 C   0  0  0  0  0  0  0  0  0  0  0  0
  133.6050  124.3950   64.2060 N   0  0  0  0  0  0  0  0  0  0  0  0
  132.4350  124.0370   63.6160 C   0  0  0  0  0  0  0  0  0  0  0  0
  130.8330  123.1970   59.4100 N   0  0  0  0  0  0  0  0  0  0  0  0
  1  2  1  0
  2  3  2  0
  3  4  1  0
  4  5  1  0
  4  6  2  0
  6  7  1  0
  7  8  3  0
  6  9  1  0
  9 10  1  0
 10 11  1  0
 11 12  1  0
 12 13  2  0
 12 14  1  0
 14 15  1  0
 15 16  2  0
 16 17  1  0
 17 18  2  0
 18 19  1  0
 19 20  2  0
  9 21  2  0
 21  2  1  0
 20 15  1  0
M  END
>  <Binding energies>  (7) 
[-6.77]

>  <Ligand effiencies>  (7) 
[-0.3077272727272727]

>  <Interactions>  (7) 
["V-A:ARG:545:CD:4918, H-A:TYR:484:OH:4343, V-A:ARG:545:CZ:4921, H-A:GLY:454:N:4045, V-A:ASP:366:CG:3208, V-B:GLU:543:CG:9875, V-B:GLU:543:CD:9876, H-B:GLU:543:OE2:9878, V-A:LEU:475:CD2:4254, V-B:TYR:539:CD2:9842, V-A:TRP:381:CZ2:3365, V-A:TRP:381:CH2:3367, V-B:TYR:539:CE2:9844, V-B:ALA:541:CB:9860, V-A:ASP:366:CB:3207, V-A:ILE:369:CD1:3234, V-A:ILE:369:CG2:3232, V-B:ALA:541:CA:9858, H-B:ALA:541:N:9859"]

$$$$
1g_Grossjean_2025
     RDKit          3D

 22 23  0  0  0  0  0  0  0  0999 V2000
  128.2410  123.4050   61.3100 C   0  0  0  0  0  0  0  0  0  0  0  0
  129.4390  122.4980   61.1010 C   0  0  0  0  0  0  0  0  0  0  0  0
  129.2980  121.1150   61.0010 C   0  0  0  0  0  0  0  0  0  0  0  0
  130.4400  120.3270   60.8240 C   0  0  0  0  0  0  0  0  0  0  0  0
  130.2620  118.8120   60.7330 C   0  0  0  0  0  0  0  0  0  0  0  0
  131.7050  120.9510   60.7430 C   0  0  0  0  0  0  0  0  0  0  0  0
  132.9200  120.1430   60.6100 C   0  0  0  0  0  0  0  0  0  0  0  0
  133.8780  119.5010   60.5070 N   0  0  0  0  0  0  0  0  0  0  0  0
  131.7510  122.3630   60.8280 C   0  0  0  0  0  0  0  0  0  0  0  0
  133.2540  123.3100   60.7350 S   0  0  0  0  0  0  0  0  0  0  0  0
  133.9630  123.3640   62.4080 C   0  0  0  0  0  0  0  0  0  0  0  0
  133.4950  124.5930   63.1890 C   0  0  0  0  0  0  0  0  0  0  0  0
  134.2180  125.0860   64.0560 O   0  0  0  0  0  0  0  0  0  0  0  0
  132.2790  125.0710   62.8730 N   0  0  0  0  0  0  0  0  0  0  0  0
  131.6600  126.2650   63.4490 C   0  0  0  0  0  0  0  0  0  0  0  0
  130.8570  126.0050   64.7200 C   0  0  0  0  0  0  0  0  0  0  0  0
  131.2200  124.9580   65.5730 C   0  0  0  0  0  0  0  0  0  0  0  0
  130.4870  124.7210   66.7330 C   0  0  0  0  0  0  0  0  0  0  0  0
  129.3970  125.5340   67.0390 C   0  0  0  0  0  0  0  0  0  0  0  0
  129.0340  126.5820   66.1960 C   0  0  0  0  0  0  0  0  0  0  0  0
  129.7650  126.8190   65.0350 C   0  0  0  0  0  0  0  0  0  0  0  0
  130.6400  123.1170   61.0230 N   0  0  0  0  0  0  0  0  0  0  0  0
  1  2  1  0
  2  3  2  0
  3  4  1  0
  4  5  1  0
  4  6  2  0
  6  7  1  0
  7  8  3  0
  6  9  1  0
  9 10  1  0
 10 11  1  0
 11 12  1  0
 12 13  2  0
 12 14  1  0
 14 15  1  0
 15 16  1  0
 16 17  2  0
 17 18  1  0
 18 19  2  0
 19 20  1  0
 20 21  2  0
  9 22  2  0
 22  2  1  0
 21 16  1  0
M  END
>  <Binding energies>  (8) 
[-6.13]

>  <Ligand effiencies>  (8) 
[-0.26652173913043475]

>  <Interactions>  (8) 
["H-A:GLY:454:N:4045, V-A:GLU:543:CD:4903, V-B:GLU:543:CG:9875, V-A:GLY:454:CA:4044, V-B:GLU:543:CD:9876, V-B:GLU:543:CB:9874, V-A:PRO:482:CB:4321, V-A:LEU:475:CD2:4254, V-B:TYR:539:CD2:9842, V-A:TRP:381:CZ3:3366, V-A:TRP:381:CZ2:3365, V-A:TYR:484:CE1:4340, V-A:TYR:484:CZ:4342, V-A:TRP:381:CH2:3367, V-B:ALA:541:CB:9860, V-A:ILE:369:CD1:3234, V-B:GLU:543:CA:9872, H-A:ARG:545:NE:4919, V-A:ILE:369:CG2:3232, V-B:PRO:540:C:9849, H-A:ARG:545:NH1:4922, H-A:ARG:545:NH2:4923"]

$$$$
1h_Grossjean_2025
     RDKit          3D

 28 29  0  0  0  0  0  0  0  0999 V2000
  130.1530  131.1470   73.1200 C   0  0  0  0  0  0  0  0  0  0  0  0
  130.1270  129.7420   73.3450 O   0  0  0  0  0  0  0  0  0  0  0  0
  129.7900  128.8940   72.3060 C   0  0  0  0  0  0  0  0  0  0  0  0
  129.6890  129.2990   70.9660 C   0  0  0  0  0  0  0  0  0  0  0  0
  129.3290  128.3900   69.9700 C   0  0  0  0  0  0  0  0  0  0  0  0
  129.2450  128.8380   68.5140 C   0  0  0  0  0  0  0  0  0  0  0  0
  130.1060  128.0790   67.6070 N   0  0  0  0  0  0  0  0  0  0  0  0
  129.8270  126.8600   67.1100 C   0  0  0  0  0  0  0  0  0  0  0  0
  128.7870  126.2480   67.3460 O   0  0  0  0  0  0  0  0  0  0  0  0
  130.8920  126.2320   66.2100 C   0  0  0  0  0  0  0  0  0  0  0  0
  130.6820  124.4320   66.0620 S   0  0  0  0  0  0  0  0  0  0  0  0
  130.9170  123.9860   64.3500 C   0  0  0  0  0  0  0  0  0  0  0  0
  129.8270  123.4760   63.7180 N   0  0  0  0  0  0  0  0  0  0  0  0
  129.9350  123.1210   62.4160 C   0  0  0  0  0  0  0  0  0  0  0  0
  128.6750  122.5660   61.7790 C   0  0  0  0  0  0  0  0  0  0  0  0
  131.1200  123.2540   61.6960 C   0  0  0  0  0  0  0  0  0  0  0  0
  132.2500  123.7750   62.3360 C   0  0  0  0  0  0  0  0  0  0  0  0
  133.5380  123.9140   61.5270 C   0  0  0  0  0  0  0  0  0  0  0  0
  132.1600  124.1530   63.6950 C   0  0  0  0  0  0  0  0  0  0  0  0
  133.3270  124.6980   64.3920 C   0  0  0  0  0  0  0  0  0  0  0  0
  134.2500  125.1300   64.9420 N   0  0  0  0  0  0  0  0  0  0  0  0
  129.1030  127.0550   70.3050 C   0  0  0  0  0  0  0  0  0  0  0  0
  129.2030  126.6210   71.6360 C   0  0  0  0  0  0  0  0  0  0  0  0
  128.9910  125.3150   72.0410 O   0  0  0  0  0  0  0  0  0  0  0  0
  129.8320  124.2820   71.5390 C   0  0  0  0  0  0  0  0  0  0  0  0
  129.5360  127.5530   72.6290 C   0  0  0  0  0  0  0  0  0  0  0  0
  129.6430  127.1410   73.9360 O   0  0  0  0  0  0  0  0  0  0  0  0
  130.7930  126.3500   74.2010 C   0  0  0  0  0  0  0  0  0  0  0  0
  1  2  1  0
  2  3  1  0
  3  4  2  0
  4  5  1  0
  5  6  1  0
  6  7  1  0
  7  8  1  0
  8  9  2  0
  8 10  1  0
 10 11  1  0
 11 12  1  0
 12 13  2  0
 13 14  1  0
 14 15  1  0
 14 16  2  0
 16 17  1  0
 17 18  1  0
 17 19  2  0
 19 20  1  0
 20 21  3  0
  5 22  2  0
 22 23  1  0
 23 24  1  0
 24 25  1  0
 23 26  2  0
 26 27  1  0
 27 28  1  0
 26  3  1  0
 19 12  1  0
M  END
>  <Binding energies>  (9) 
[-7.3]

>  <Ligand effiencies>  (9) 
[-0.2517241379310345]

>  <Interactions>  (9) 
["H-A:TYR:484:OH:4343, V-A:ARG:545:CZ:4921, H-A:GLY:454:N:4045, V-A:ASP:366:CG:3208, V-A:GLU:543:CD:4903, V-A:GLU:543:CG:4902, V-A:GLU:543:CB:4901, V-A:HIS:456:CE1:4064, V-A:GLY:544:CA:4909, V-B:HIS:456:CE1:9037, H-A:GLU:543:OE1:4904, V-A:GLU:543:C:4897, V-B:ALA:541:CB:9860, V-A:ILE:369:CD1:3234, H-B:LYS:547:NZ:9919, V-B:HIS:456:CD2:9035, H-A:LYS:547:NZ:4946, H-A:ARG:545:NE:4919, V-A:LYS:547:CE:4945, H-A:ARG:545:NH1:4922"]

$$$$
1i_Grossjean_2025
     RDKit          3D

 20 21  0  0  0  0  0  0  0  0999 V2000
  130.7510  126.5940   59.5910 C   0  0  0  0  0  0  0  0  0  0  0  0
  131.3050  125.1840   59.5220 C   0  0  0  0  0  0  0  0  0  0  0  0
  132.4330  124.8790   58.7640 C   0  0  0  0  0  0  0  0  0  0  0  0
  132.9050  123.5620   58.7460 C   0  0  0  0  0  0  0  0  0  0  0  0
  134.1540  123.2560   57.9200 C   0  0  0  0  0  0  0  0  0  0  0  0
  132.2220  122.5730   59.4910 C   0  0  0  0  0  0  0  0  0  0  0  0
  132.7290  121.1990   59.5260 C   0  0  0  0  0  0  0  0  0  0  0  0
  133.1310  120.1140   59.5540 N   0  0  0  0  0  0  0  0  0  0  0  0
  131.0710  122.9680   60.2120 C   0  0  0  0  0  0  0  0  0  0  0  0
  130.0930  121.8570   61.1990 S   0  0  0  0  0  0  0  0  0  0  0  0
  129.4520  122.7990   62.6160 C   0  0  0  0  0  0  0  0  0  0  0  0
  130.5510  123.1400   63.6250 C   0  0  0  0  0  0  0  0  0  0  0  0
  130.5250  122.6240   64.7430 O   0  0  0  0  0  0  0  0  0  0  0  0
  131.4930  124.0060   63.1900 N   0  0  0  0  0  0  0  0  0  0  0  0
  132.5870  124.4830   63.8980 C   0  0  0  0  0  0  0  0  0  0  0  0
  132.4690  125.2310   65.0680 C   0  0  0  0  0  0  0  0  0  0  0  0
  133.7620  125.5040   65.4500 C   0  0  0  0  0  0  0  0  0  0  0  0
  134.6150  124.9510   64.5550 O   0  0  0  0  0  0  0  0  0  0  0  0
  133.8580  124.3070   63.5750 N   0  0  0  0  0  0  0  0  0  0  0  0
  130.6330  124.2520   60.2390 N   0  0  0  0  0  0  0  0  0  0  0  0
  1  2  1  0
  2  3  2  0
  3  4  1  0
  4  5  1  0
  4  6  2  0
  6  7  1  0
  7  8  3  0
  6  9  1  0
  9 10  1  0
 10 11  1  0
 11 12  1  0
 12 13  2  0
 12 14  1  0
 14 15  1  0
 15 16  1  0
 16 17  2  0
 17 18  1  0
 18 19  1  0
  9 20  2  0
 20  2  1  0
 19 15  2  0
M  END
>  <Binding energies>  (10) 
[-6.2]

>  <Ligand effiencies>  (10) 
[-0.29523809523809524]

>  <Interactions>  (10) 
["V-A:ARG:545:CD:4918, H-A:TYR:484:OH:4343, V-A:ARG:545:CZ:4921, V-A:ARG:545:CG:4917, H-A:GLY:454:N:4045, V-A:ASP:366:CG:3208, V-B:GLU:543:CD:9876, V-B:TYR:539:CD2:9842, V-B:TYR:539:CE2:9844, V-B:ALA:541:CB:9860, V-A:ASP:366:CB:3207, V-A:ILE:369:CD1:3234, H-A:ARG:545:NE:4919, V-A:ILE:369:CG2:3232, H-A:ARG:545:NH1:4922, V-A:ILE:369:CB:3231, V-A:ASP:366:C:3203, V-A:ASP:366:CA:3205, V-A:ILE:369:CG1:3233"]

$$$$
1k_Grossjean_2025
     RDKit          3D

 25 25  0  0  0  0  0  0  0  0999 V2000
  123.8900  130.8190   63.2190 C   0  0  0  0  0  0  0  0  0  0  0  0
  123.3440  130.4350   64.4710 O   0  0  0  0  0  0  0  0  0  0  0  0
  124.3200  130.2860   65.4930 C   0  0  0  0  0  0  0  0  0  0  0  0
  125.0420  128.9420   65.3200 C   0  0  0  0  0  0  0  0  0  0  0  0
  125.2580  128.3540   66.5960 O   0  0  0  0  0  0  0  0  0  0  0  0
  126.4090  127.5220   66.6540 C   0  0  0  0  0  0  0  0  0  0  0  0
  127.3380  127.8550   65.4800 C   0  0  0  0  0  0  0  0  0  0  0  0
  128.6900  127.6520   65.8720 O   0  0  0  0  0  0  0  0  0  0  0  0
  128.8300  126.8990   67.0690 C   0  0  0  0  0  0  0  0  0  0  0  0
  129.9670  125.8730   66.9030 C   0  0  0  0  0  0  0  0  0  0  0  0
  130.6240  125.9180   65.5960 N   0  0  0  0  0  0  0  0  0  0  0  0
  131.8930  125.5480   65.3530 C   0  0  0  0  0  0  0  0  0  0  0  0
  132.6470  125.1170   66.2280 O   0  0  0  0  0  0  0  0  0  0  0  0
  132.3610  125.7000   63.8970 C   0  0  0  0  0  0  0  0  0  0  0  0
  133.5870  124.4710   63.3280 S   0  0  0  0  0  0  0  0  0  0  0  0
  132.9040  123.5530   61.9550 C   0  0  0  0  0  0  0  0  0  0  0  0
  133.5360  123.7110   60.7630 N   0  0  0  0  0  0  0  0  0  0  0  0
  133.0640  123.0530   59.6800 C   0  0  0  0  0  0  0  0  0  0  0  0
  133.8170  123.2880   58.3860 C   0  0  0  0  0  0  0  0  0  0  0  0
  131.9570  122.2080   59.7380 C   0  0  0  0  0  0  0  0  0  0  0  0
  131.3020  122.0300   60.9610 C   0  0  0  0  0  0  0  0  0  0  0  0
  130.0910  121.1010   61.0020 C   0  0  0  0  0  0  0  0  0  0  0  0
  131.7760  122.7130   62.1030 C   0  0  0  0  0  0  0  0  0  0  0  0
  131.1070  122.5490   63.3970 C   0  0  0  0  0  0  0  0  0  0  0  0
  130.5770  122.4180   64.4180 N   0  0  0  0  0  0  0  0  0  0  0  0
  1  2  1  0
  2  3  1  0
  3  4  1  0
  4  5  1  0
  5  6  1  0
  6  7  1  0
  7  8  1  0
  8  9  1  0
  9 10  1  0
 10 11  1  0
 11 12  1  0
 12 13  2  0
 12 14  1  0
 14 15  1  0
 15 16  1  0
 16 17  2  0
 17 18  1  0
 18 19  1  0
 18 20  2  0
 20 21  1  0
 21 22  1  0
 21 23  2  0
 23 24  1  0
 24 25  3  0
 23 16  1  0
M  END
>  <Binding energies>  (11) 
[-5.75]

>  <Ligand effiencies>  (11) 
[-0.22115384615384615]

>  <Interactions>  (11) 
["H-A:TYR:484:OH:4343, V-A:ARG:545:CZ:4921, H-A:GLY:454:N:4045, V-B:GLU:543:CG:9875, V-A:HIS:456:CE1:4064, V-B:HIS:456:CE1:9037, H-A:GLU:543:OE1:4904, V-B:GLU:543:CD:9876, V-B:GLU:543:CB:9874, H-B:GLU:543:OE2:9878, V-B:TYR:539:CE2:9844, V-B:ALA:541:CB:9860, V-B:ARG:545:CZ:9894, V-B:ARG:545:CD:9891, V-A:ASP:366:CB:3207, V-B:ARG:545:CG:9890, H-B:GLY:454:N:9017, V-A:ILE:369:CD1:3234, H-A:HIS:456:NE2:4065, H-B:ARG:545:NE:9892, H-B:ARG:545:NH1:9895, V-A:ILE:369:CG2:3232, V-A:ILE:369:CB:3231, V-A:ASP:366:CA:3205"]

$$$$
1l_Grossjean_2025
     RDKit          3D

 17 17  0  0  0  0  0  0  0  0999 V2000
  133.5430  125.2750   65.1740 C   0  0  0  0  0  0  0  0  0  0  0  0
  134.3950  124.7670   64.1570 O   0  0  0  0  0  0  0  0  0  0  0  0
  133.8550  125.0450   62.9020 N   0  0  0  0  0  0  0  0  0  0  0  0
  133.4170  124.0270   62.1390 C   0  0  0  0  0  0  0  0  0  0  0  0
  133.2500  122.8790   62.5600 O   0  0  0  0  0  0  0  0  0  0  0  0
  133.1140  124.3900   60.6780 C   0  0  0  0  0  0  0  0  0  0  0  0
  132.8930  122.9650   59.5580 S   0  0  0  0  0  0  0  0  0  0  0  0
  131.4970  122.0150   60.1370 C   0  0  0  0  0  0  0  0  0  0  0  0
  130.3010  122.6580   60.1280 N   0  0  0  0  0  0  0  0  0  0  0  0
  129.2000  121.9960   60.5560 C   0  0  0  0  0  0  0  0  0  0  0  0
  127.9020  122.7800   60.5150 C   0  0  0  0  0  0  0  0  0  0  0  0
  129.2430  120.6780   61.0050 C   0  0  0  0  0  0  0  0  0  0  0  0
  130.4680  120.0050   61.0180 C   0  0  0  0  0  0  0  0  0  0  0  0
  130.4920  118.5600   61.5130 C   0  0  0  0  0  0  0  0  0  0  0  0
  131.6300  120.6780   60.5770 C   0  0  0  0  0  0  0  0  0  0  0  0
  132.9280  119.9960   60.5790 C   0  0  0  0  0  0  0  0  0  0  0  0
  133.9520  119.4570   60.5820 N   0  0  0  0  0  0  0  0  0  0  0  0
  1  2  1  0
  2  3  1  0
  3  4  1  0
  4  5  2  0
  4  6  1  0
  6  7  1  0
  7  8  1  0
  8  9  2  0
  9 10  1  0
 10 11  1  0
 10 12  2  0
 12 13  1  0
 13 14  1  0
 13 15  2  0
 15 16  1  0
 16 17  3  0
 15  8  1  0
M  END
>  <Binding energies>  (12) 
[-5.82]

>  <Ligand effiencies>  (12) 
[-0.32333333333333336]

>  <Interactions>  (12) 
["H-A:ASP:366:OD2:3210, V-A:ARG:545:CD:4918, H-A:TYR:484:OH:4343, V-A:ARG:545:CZ:4921, H-A:GLY:454:N:4045, H-A:ASP:366:OD1:3209, V-A:ASP:366:CG:3208, V-A:PRO:482:CB:4321, V-A:LEU:475:CD2:4254, V-B:TYR:539:CD2:9842, V-A:TRP:381:CZ2:3365, V-A:TRP:381:CH2:3367, V-A:LEU:475:CD1:4253, V-B:TYR:539:CE2:9844, V-B:ALA:541:CB:9860, V-A:ASP:366:CB:3207, V-A:ILE:369:CD1:3234, V-B:PRO:540:CA:9851, V-A:ILE:369:CG2:3232, V-B:PRO:540:C:9849, V-B:ALA:541:CA:9858, V-B:TYR:539:C:9835, H-A:ARG:545:NH1:4922, V-A:TRP:381:CE2:3362, V-A:LEU:475:CG:4252"]

$$$$
1m_Grossjean_2025
     RDKit          3D

 20 20  0  0  0  0  0  0  0  0999 V2000
  129.7440  122.4570   64.1630 C   0  0  0  0  0  0  0  0  0  0  0  0
  130.8430  123.1430   64.7470 O   0  0  0  0  0  0  0  0  0  0  0  0
  130.7480  124.4530   65.0550 C   0  0  0  0  0  0  0  0  0  0  0  0
  130.2170  124.9150   66.0690 O   0  0  0  0  0  0  0  0  0  0  0  0
  131.4040  125.3370   63.9740 C   0  0  0  0  0  0  0  0  0  0  0  0
  132.1580  124.5580   62.9810 N   0  0  0  0  0  0  0  0  0  0  0  0
  133.4800  124.3050   63.0190 C   0  0  0  0  0  0  0  0  0  0  0  0
  134.2190  124.7270   63.9110 O   0  0  0  0  0  0  0  0  0  0  0  0
  134.0240  123.4530   61.8650 C   0  0  0  0  0  0  0  0  0  0  0  0
  133.0130  123.4930   60.3460 S   0  0  0  0  0  0  0  0  0  0  0  0
  131.5940  122.4480   60.6010 C   0  0  0  0  0  0  0  0  0  0  0  0
  130.4310  123.1360   60.7350 N   0  0  0  0  0  0  0  0  0  0  0  0
  129.2840  122.4450   60.9270 C   0  0  0  0  0  0  0  0  0  0  0  0
  128.0240  123.2800   61.0480 C   0  0  0  0  0  0  0  0  0  0  0  0
  129.2480  121.0540   61.0070 C   0  0  0  0  0  0  0  0  0  0  0  0
  130.4440  120.3360   60.8970 C   0  0  0  0  0  0  0  0  0  0  0  0
  130.3830  118.8140   61.0030 C   0  0  0  0  0  0  0  0  0  0  0  0
  131.6560  121.0370   60.6960 C   0  0  0  0  0  0  0  0  0  0  0  0
  132.9250  120.3090   60.6280 C   0  0  0  0  0  0  0  0  0  0  0  0
  133.9270  119.7330   60.5740 N   0  0  0  0  0  0  0  0  0  0  0  0
  1  2  1  0
  2  3  1  0
  3  4  2  0
  3  5  1  0
  5  6  1  0
  6  7  1  0
  7  8  2  0
  7  9  1  0
  9 10  1  0
 10 11  1  0
 11 12  2  0
 12 13  1  0
 13 14  1  0
 13 15  2  0
 15 16  1  0
 16 17  1  0
 16 18  2  0
 18 19  1  0
 19 20  3  0
 18 11  1  0
M  END
>  <Binding energies>  (13) 
[-5.47]

>  <Ligand effiencies>  (13) 
[-0.2604761904761905]

>  <Interactions>  (13) 
["H-A:TYR:484:OH:4343, H-A:GLY:454:N:4045, V-A:ASP:366:CG:3208, V-B:GLU:543:CG:9875, V-B:GLU:543:CD:9876, V-A:PRO:482:CB:4321, V-A:LEU:475:CD2:4254, V-A:TRP:381:CZ2:3365, V-A:TYR:484:CE1:4340, V-A:TRP:381:CH2:3367, V-B:ALA:541:CB:9860, V-A:ILE:369:CD1:3234, V-A:ILE:369:CG2:3232, V-B:PRO:540:C:9849, V-B:ALA:541:CA:9858, H-A:ARG:545:NH1:4922"]

$$$$
1n_Grossjean_2025
     RDKit          3D

 27 28  0  0  0  0  0  0  0  0999 V2000
  130.4690  128.7030   71.3470 C   0  0  0  0  0  0  0  0  0  0  0  0
  129.2740  128.4530   72.2720 C   0  0  0  0  0  0  0  0  0  0  0  0
  128.5730  127.2940   71.8360 O   0  0  0  0  0  0  0  0  0  0  0  0
  127.6460  127.3670   70.8470 C   0  0  0  0  0  0  0  0  0  0  0  0
  126.4780  127.7190   71.0340 O   0  0  0  0  0  0  0  0  0  0  0  0
  128.1870  126.9880   69.4980 C   0  0  0  0  0  0  0  0  0  0  0  0
  129.3390  126.1980   69.3540 C   0  0  0  0  0  0  0  0  0  0  0  0
  129.8150  125.8680   68.0900 C   0  0  0  0  0  0  0  0  0  0  0  0
  129.1600  126.3220   66.9450 C   0  0  0  0  0  0  0  0  0  0  0  0
  129.7300  125.9330   65.7170 N   0  0  0  0  0  0  0  0  0  0  0  0
  130.9940  125.5490   65.4360 C   0  0  0  0  0  0  0  0  0  0  0  0
  131.9120  125.4610   66.2520 O   0  0  0  0  0  0  0  0  0  0  0  0
  131.2680  125.1970   63.9680 C   0  0  0  0  0  0  0  0  0  0  0  0
  132.7200  125.4960   63.5340 C   0  0  0  0  0  0  0  0  0  0  0  0
  133.7300  124.0190   63.2120 S   0  0  0  0  0  0  0  0  0  0  0  0
  132.9550  123.1120   61.8920 C   0  0  0  0  0  0  0  0  0  0  0  0
  133.5280  123.3220   60.6800 N   0  0  0  0  0  0  0  0  0  0  0  0
  133.0300  122.6700   59.6040 C   0  0  0  0  0  0  0  0  0  0  0  0
  133.7270  122.9440   58.2850 C   0  0  0  0  0  0  0  0  0  0  0  0
  131.9480  121.7960   59.6880 C   0  0  0  0  0  0  0  0  0  0  0  0
  131.3360  121.5890   60.9300 C   0  0  0  0  0  0  0  0  0  0  0  0
  130.1440  120.6380   60.9950 C   0  0  0  0  0  0  0  0  0  0  0  0
  131.8360  122.2640   62.0670 C   0  0  0  0  0  0  0  0  0  0  0  0
  131.1810  122.1020   63.3660 C   0  0  0  0  0  0  0  0  0  0  0  0
  130.6600  121.9740   64.3910 N   0  0  0  0  0  0  0  0  0  0  0  0
  128.0020  127.1030   67.0800 C   0  0  0  0  0  0  0  0  0  0  0  0
  127.5250  127.4300   68.3460 C   0  0  0  0  0  0  0  0  0  0  0  0
  1  2  1  0
  2  3  1  0
  3  4  1  0
  4  5  2  0
  4  6  1  0
  6  7  2  0
  7  8  1  0
  8  9  2  0
  9 10  1  0
 10 11  1  0
 11 12  2  0
 11 13  1  0
 13 14  1  0
 14 15  1  0
 15 16  1  0
 16 17  2  0
 17 18  1  0
 18 19  1  0
 18 20  2  0
 20 21  1  0
 21 22  1  0
 21 23  2  0
 23 24  1  0
 24 25  3  0
  9 26  1  0
 26 27  2  0
 27  6  1  0
 23 16  1  0
M  END
>  <Binding energies>  (14) 
[-7.69]

>  <Ligand effiencies>  (14) 
[-0.27464285714285713]

>  <Interactions>  (14) 
["H-A:TYR:484:OH:4343, V-A:ARG:545:CZ:4921, H-A:GLY:454:N:4045, V-A:GLY:544:C:4907, V-B:GLU:543:CG:9875, V-A:HIS:456:CE1:4064, V-B:HIS:456:CE1:9037, V-B:GLU:543:CD:9876, V-B:GLU:543:CB:9874, H-B:GLU:543:OE2:9878, V-A:LEU:475:CD2:4254, V-B:TYR:539:CD2:9842, V-B:TYR:539:CE2:9844, V-B:ALA:541:CB:9860, V-A:ILE:369:CD1:3234, V-B:GLU:543:C:9870, H-B:LYS:547:NZ:9919, V-B:HIS:456:CD2:9035, H-A:HIS:456:NE2:4065, V-A:ILE:369:CG2:3232, V-B:GLY:544:C:9880, H-B:HIS:456:ND1:9034, H-B:ARG:545:N:9888, V-A:ILE:369:CB:3231"]

$$$$
1q_Grossjean_2025
     RDKit          3D

 21 21  0  0  0  0  0  0  0  0999 V2000
  123.7300  130.0690   63.0620 C   0  0  0  0  0  0  0  0  0  0  0  0
  123.3310  130.4060   64.3830 O   0  0  0  0  0  0  0  0  0  0  0  0
  124.2070  130.3080   65.4130 C   0  0  0  0  0  0  0  0  0  0  0  0
  124.1080  130.8900   66.4950 O   0  0  0  0  0  0  0  0  0  0  0  0
  125.4200  129.3990   65.1230 C   0  0  0  0  0  0  0  0  0  0  0  0
  126.4650  129.4880   66.1540 N   0  0  0  0  0  0  0  0  0  0  0  0
  127.2870  128.4910   66.5320 C   0  0  0  0  0  0  0  0  0  0  0  0
  127.2520  127.3630   66.0350 O   0  0  0  0  0  0  0  0  0  0  0  0
  128.3070  128.8390   67.6260 C   0  0  0  0  0  0  0  0  0  0  0  0
  129.7390  128.3460   67.3380 C   0  0  0  0  0  0  0  0  0  0  0  0
  129.8820  126.5360   67.2470 S   0  0  0  0  0  0  0  0  0  0  0  0
  131.1340  126.1250   66.0490 C   0  0  0  0  0  0  0  0  0  0  0  0
  132.2720  125.6360   66.6050 N   0  0  0  0  0  0  0  0  0  0  0  0
  133.2980  125.2900   65.7930 C   0  0  0  0  0  0  0  0  0  0  0  0
  134.5410  124.7670   66.4890 C   0  0  0  0  0  0  0  0  0  0  0  0
  133.2310  125.4040   64.4060 C   0  0  0  0  0  0  0  0  0  0  0  0
  132.0550  125.8830   63.8210 C   0  0  0  0  0  0  0  0  0  0  0  0
  132.0000  125.9820   62.2970 C   0  0  0  0  0  0  0  0  0  0  0  0
  130.9690  126.2490   64.6480 C   0  0  0  0  0  0  0  0  0  0  0  0
  129.7100  126.6980   64.0490 C   0  0  0  0  0  0  0  0  0  0  0  0
  128.7170  127.0520   63.5720 N   0  0  0  0  0  0  0  0  0  0  0  0
  1  2  1  0
  2  3  1  0
  3  4  2  0
  3  5  1  0
  5  6  1  0
  6  7  1  0
  7  8  2  0
  7  9  1  0
  9 10  1  0
 10 11  1  0
 11 12  1  0
 12 13  2  0
 13 14  1  0
 14 15  1  0
 14 16  2  0
 16 17  1  0
 17 18  1  0
 17 19  2  0
 19 20  1  0
 20 21  3  0
 19 12  1  0
M  END
>  <Binding energies>  (15) 
[-5.42]

>  <Ligand effiencies>  (15) 
[-0.24636363636363637]

>  <Interactions>  (15) 
["V-A:ARG:545:CD:4918, H-A:TYR:484:OH:4343, V-A:ARG:545:CZ:4921, V-A:ARG:545:CG:4917, V-A:ASP:366:CG:3208, V-A:GLU:543:CD:4903, V-A:GLU:543:CG:4902, V-A:GLU:543:CB:4901, V-B:HIS:456:CE1:9037, V-A:GLY:454:CA:4044, V-B:GLU:543:CD:9876, V-A:TYR:484:CZ:4342, V-B:ARG:545:CZ:9894, H-B:TYR:484:OH:9315, H-B:GLY:454:N:9017, V-A:HIS:456:CD2:4063, V-A:GLY:453:C:4037, H-A:HIS:456:NE2:4065, H-B:HIS:456:NE2:9038, H-B:ARG:545:NH1:9895, H-B:HIS:456:ND1:9034"]

$$$$
2a_Grossjean_2025
     RDKit          3D

 29 30  0  0  0  0  0  0  0  0999 V2000
  130.0230  128.5920   71.9470 C   0  0  0  0  0  0  0  0  0  0  0  0
  130.0730  127.0960   72.2700 C   0  0  0  0  0  0  0  0  0  0  0  0
  128.9130  126.4620   71.7430 O   0  0  0  0  0  0  0  0  0  0  0  0
  128.2330  127.0030   70.6990 C   0  0  0  0  0  0  0  0  0  0  0  0
  127.1650  127.6100   70.8230 O   0  0  0  0  0  0  0  0  0  0  0  0
  128.9230  126.8060   69.3790 C   0  0  0  0  0  0  0  0  0  0  0  0
  129.1330  127.8680   68.4870 C   0  0  0  0  0  0  0  0  0  0  0  0
  129.7740  127.6520   67.2710 C   0  0  0  0  0  0  0  0  0  0  0  0
  130.2100  126.3740   66.9170 C   0  0  0  0  0  0  0  0  0  0  0  0
  130.8320  126.2700   65.6590 N   0  0  0  0  0  0  0  0  0  0  0  0
  132.0050  125.6950   65.3160 C   0  0  0  0  0  0  0  0  0  0  0  0
  132.7910  125.1540   66.0940 O   0  0  0  0  0  0  0  0  0  0  0  0
  132.3530  125.7460   63.8240 C   0  0  0  0  0  0  0  0  0  0  0  0
  133.5860  124.4960   63.3280 S   0  0  0  0  0  0  0  0  0  0  0  0
  132.9430  123.5170   61.9760 C   0  0  0  0  0  0  0  0  0  0  0  0
  133.5700  123.6770   60.7830 N   0  0  0  0  0  0  0  0  0  0  0  0
  133.1290  122.9780   59.7130 C   0  0  0  0  0  0  0  0  0  0  0  0
  133.8620  123.2320   58.4090 C   0  0  0  0  0  0  0  0  0  0  0  0
  132.0590  122.0900   59.7860 C   0  0  0  0  0  0  0  0  0  0  0  0
  131.4020  121.9010   61.0110 C   0  0  0  0  0  0  0  0  0  0  0  0
  130.2210  120.9140   61.0750 C   0  0  0  0  0  0  0  0  0  0  0  0
  129.0800  121.5770   61.2630 F   0  0  0  0  0  0  0  0  0  0  0  0
  130.1400  120.2270   59.9350 F   0  0  0  0  0  0  0  0  0  0  0  0
  130.3410  120.0310   62.0690 F   0  0  0  0  0  0  0  0  0  0  0  0
  131.8520  122.6320   62.1400 C   0  0  0  0  0  0  0  0  0  0  0  0
  131.1990  122.4760   63.4440 C   0  0  0  0  0  0  0  0  0  0  0  0
  130.6840  122.3530   64.4730 N   0  0  0  0  0  0  0  0  0  0  0  0
  130.0110  125.3090   67.8070 C   0  0  0  0  0  0  0  0  0  0  0  0
  129.3730  125.5280   69.0260 C   0  0  0  0  0  0  0  0  0  0  0  0
  1  2  1  0
  2  3  1  0
  3  4  1  0
  4  5  2  0
  4  6  1  0
  6  7  2  0
  7  8  1  0
  8  9  2  0
  9 10  1  0
 10 11  1  0
 11 12  2  0
 11 13  1  0
 13 14  1  0
 14 15  1  0
 15 16  2  0
 16 17  1  0
 17 18  1  0
 17 19  2  0
 19 20  1  0
 20 21  1  0
 21 22  1  0
 21 23  1  0
 21 24  1  0
 20 25  2  0
 25 26  1  0
 26 27  3  0
  9 28  1  0
 28 29  2  0
 29  6  1  0
 25 15  1  0
M  END
>  <Binding energies>  (16) 
[-7.25]

>  <Ligand effiencies>  (16) 
[-0.24166666666666667]

>  <Interactions>  (16) 
["H-A:TYR:484:OH:4343, V-A:ARG:545:CZ:4921, H-A:GLY:454:N:4045, V-A:GLU:543:CD:4903, V-A:GLU:543:CB:4901, V-A:HIS:456:CE1:4064, H-A:GLU:543:OE1:4904, V-B:GLU:543:CB:9874, V-A:LEU:475:CD2:4254, V-B:TYR:539:CD2:9842, V-A:LEU:475:CD1:4253, V-B:TYR:539:CE2:9844, V-B:ALA:541:CB:9860, V-A:ASP:366:CB:3207, V-A:ILE:369:CD1:3234, V-B:GLU:543:C:9870, V-B:GLU:543:CA:9872, H-B:LYS:547:NZ:9919, H-A:HIS:456:NE2:4065, V-A:ILE:369:CG2:3232, V-B:PRO:540:C:9849, V-B:ALA:541:CA:9858, V-B:TYR:539:C:9835, V-A:ILE:369:CB:3231, V-A:ASP:366:CA:3205, V-A:ILE:369:CG1:3233"]

$$$$
2b_Grossjean_2025
     RDKit          3D

 28 29  0  0  0  0  0  0  0  0999 V2000
  130.3400  125.3850   72.6610 C   0  0  0  0  0  0  0  0  0  0  0  0
  129.3740  126.3630   73.0160 O   0  0  0  0  0  0  0  0  0  0  0  0
  129.4970  127.6510   72.6030 C   0  0  0  0  0  0  0  0  0  0  0  0
  129.8340  128.5750   73.3490 O   0  0  0  0  0  0  0  0  0  0  0  0
  129.1790  127.8390   71.1470 C   0  0  0  0  0  0  0  0  0  0  0  0
  129.9430  128.6790   70.3240 C   0  0  0  0  0  0  0  0  0  0  0  0
  129.6210  128.8330   68.9780 C   0  0  0  0  0  0  0  0  0  0  0  0
  128.5370  128.1490   68.4280 C   0  0  0  0  0  0  0  0  0  0  0  0
  128.2960  128.3820   67.0600 N   0  0  0  0  0  0  0  0  0  0  0  0
  127.1750  128.1810   66.3360 C   0  0  0  0  0  0  0  0  0  0  0  0
  126.1220  127.7090   66.7680 O   0  0  0  0  0  0  0  0  0  0  0  0
  127.2740  128.5690   64.8570 C   0  0  0  0  0  0  0  0  0  0  0  0
  128.3040  130.0460   64.5710 S   0  0  0  0  0  0  0  0  0  0  0  0
  127.3870  131.2570   63.6290 C   0  0  0  0  0  0  0  0  0  0  0  0
  126.0370  131.2090   63.7640 N   0  0  0  0  0  0  0  0  0  0  0  0
  125.2800  132.0920   63.0770 C   0  0  0  0  0  0  0  0  0  0  0  0
  123.7810  131.9640   63.2720 C   0  0  0  0  0  0  0  0  0  0  0  0
  125.8280  133.0590   62.2390 C   0  0  0  0  0  0  0  0  0  0  0  0
  127.2210  133.1320   62.0890 C   0  0  0  0  0  0  0  0  0  0  0  0
  127.8120  134.2110   61.1620 C   0  0  0  0  0  0  0  0  0  0  0  0
  126.8310  134.9400   60.6280 F   0  0  0  0  0  0  0  0  0  0  0  0
  128.6220  135.0160   61.8520 F   0  0  0  0  0  0  0  0  0  0  0  0
  128.5220  133.6960   60.1560 F   0  0  0  0  0  0  0  0  0  0  0  0
  128.0280  132.2070   62.8000 C   0  0  0  0  0  0  0  0  0  0  0  0
  129.4890  132.2340   62.6770 C   0  0  0  0  0  0  0  0  0  0  0  0
  130.6420  132.2550   62.5800 N   0  0  0  0  0  0  0  0  0  0  0  0
  127.7630  127.3130   69.2460 C   0  0  0  0  0  0  0  0  0  0  0  0
  128.0860  127.1610   70.5910 C   0  0  0  0  0  0  0  0  0  0  0  0
  1  2  1  0
  2  3  1  0
  3  4  2  0
  3  5  1  0
  5  6  2  0
  6  7  1  0
  7  8  2  0
  8  9  1  0
  9 10  1  0
 10 11  2  0
 10 12  1  0
 12 13  1  0
 13 14  1  0
 14 15  2  0
 15 16  1  0
 16 17  1  0
 16 18  2  0
 18 19  1  0
 19 20  1  0
 20 21  1  0
 20 22  1  0
 20 23  1  0
 19 24  2  0
 24 25  1  0
 25 26  3  0
  8 27  1  0
 27 28  2  0
 28  5  1  0
 24 14  1  0
M  END
>  <Binding energies>  (17) 
[-6.76]

>  <Ligand effiencies>  (17) 
[-0.23310344827586207]

>  <Interactions>  (17) 
["V-A:PRO:540:CA:4878, V-A:GLU:543:CG:4902, V-A:GLU:543:CB:4901, V-A:HIS:456:CE1:4064, V-B:HIS:456:CE1:9037, H-A:GLU:543:OE1:4904, H-B:TYR:484:OH:9315, V-A:PRO:540:C:4876, H-A:ALA:541:N:4886, V-A:ALA:541:CB:4887, V-A:ALA:541:CA:4885, V-A:TYR:539:CE2:4871, V-A:PRO:540:N:4879, H-B:LYS:547:NZ:9919, H-A:LYS:547:NZ:4946, H-B:ARG:545:NE:9892, V-B:ILE:369:CD1:8206, V-B:LEU:475:CD2:9226, V-A:TYR:539:CD2:4869, V-A:TYR:539:C:4862, V-B:TRP:381:CH2:8339, V-B:GLY:454:CA:9016"]

$$$$
2c_Grossjean_2025
     RDKit          3D

 26 27  0  0  0  0  0  0  0  0999 V2000
  129.3560  128.5240   67.4220 C   0  0  0  0  0  0  0  0  0  0  0  0
  128.8630  127.2850   66.9230 O   0  0  0  0  0  0  0  0  0  0  0  0
  129.6450  126.5510   66.0520 C   0  0  0  0  0  0  0  0  0  0  0  0
  129.6530  126.9670   64.7210 C   0  0  0  0  0  0  0  0  0  0  0  0
  130.4090  126.2890   63.7680 C   0  0  0  0  0  0  0  0  0  0  0  0
  131.1660  125.1700   64.1420 C   0  0  0  0  0  0  0  0  0  0  0  0
  131.9740  124.4340   63.2570 N   0  0  0  0  0  0  0  0  0  0  0  0
  133.3080  124.2280   63.3060 C   0  0  0  0  0  0  0  0  0  0  0  0
  134.0630  124.7210   64.1460 O   0  0  0  0  0  0  0  0  0  0  0  0
  133.8670  123.3370   62.1860 C   0  0  0  0  0  0  0  0  0  0  0  0
  132.9580  123.4020   60.6030 S   0  0  0  0  0  0  0  0  0  0  0  0
  131.4380  122.4710   60.7510 C   0  0  0  0  0  0  0  0  0  0  0  0
  130.3050  123.2100   60.8690 N   0  0  0  0  0  0  0  0  0  0  0  0
  129.1200  122.5730   60.9950 C   0  0  0  0  0  0  0  0  0  0  0  0
  127.9040  123.4680   61.1390 C   0  0  0  0  0  0  0  0  0  0  0  0
  129.0110  121.1840   60.9990 C   0  0  0  0  0  0  0  0  0  0  0  0
  130.1660  120.4010   60.8710 C   0  0  0  0  0  0  0  0  0  0  0  0
  130.0280  118.8660   60.8750 C   0  0  0  0  0  0  0  0  0  0  0  0
  128.7670  118.5220   61.1410 F   0  0  0  0  0  0  0  0  0  0  0  0
  130.3710  118.3720   59.6850 F   0  0  0  0  0  0  0  0  0  0  0  0
  130.8050  118.2820   61.7910 F   0  0  0  0  0  0  0  0  0  0  0  0
  131.4170  121.0560   60.7430 C   0  0  0  0  0  0  0  0  0  0  0  0
  132.6590  120.2870   60.6080 C   0  0  0  0  0  0  0  0  0  0  0  0
  133.6390  119.6800   60.5010 N   0  0  0  0  0  0  0  0  0  0  0  0
  131.1750  124.7590   65.4760 C   0  0  0  0  0  0  0  0  0  0  0  0
  130.4170  125.4390   66.4250 C   0  0  0  0  0  0  0  0  0  0  0  0
  1  2  1  0
  2  3  1  0
  3  4  2  0
  4  5  1  0
  5  6  2  0
  6  7  1  0
  7  8  1  0
  8  9  2  0
  8 10  1  0
 10 11  1  0
 11 12  1  0
 12 13  2  0
 13 14  1  0
 14 15  1  0
 14 16  2  0
 16 17  1  0
 17 18  1  0
 18 19  1  0
 18 20  1  0
 18 21  1  0
 17 22  2  0
 22 23  1  0
 23 24  3  0
  6 25  1  0
 25 26  2  0
 26  3  1  0
 22 12  1  0
M  END
>  <Binding energies>  (18) 
[-5.85]

>  <Ligand effiencies>  (18) 
[-0.21666666666666665]

>  <Interactions>  (18) 
["H-A:TYR:484:OH:4343, H-A:GLY:454:N:4045, V-A:GLU:543:CD:4903, V-A:GLU:543:CG:4902, V-A:GLU:543:CB:4901, V-B:GLU:543:CG:9875, V-B:GLU:543:CD:9876, V-A:PRO:482:CB:4321, V-A:LEU:475:CD2:4254, V-B:TYR:539:CD2:9842, V-A:TRP:381:CZ3:3366, V-A:TRP:381:CZ2:3365, V-A:TYR:484:CZ:4342, V-A:PRO:482:CG:4322, V-A:TRP:381:CH2:3367, V-A:LEU:475:CD1:4253, V-B:TYR:539:CE2:9844, V-B:ALA:541:CB:9860, V-A:ILE:369:CD1:3234, V-B:PRO:540:CA:9851, V-A:ILE:369:CG2:3232, V-B:PRO:540:C:9849, V-B:ALA:541:CA:9858, V-B:TYR:539:C:9835, V-A:TRP:381:CE3:3363, V-B:TYR:539:CB:9839, V-A:TRP:381:CD2:3360, V-A:TRP:381:CE2:3362, V-A:LEU:475:CG:4252, V-B:TYR:539:CG:9840"]

$$$$
2d_Ghoteimi_2023
     RDKit          3D

 38 42  0  0  0  0  0  0  0  0999 V2000
  129.7050  126.7770   71.8600 C   0  0  0  0  0  0  0  0  0  0  0  0
  128.3980  126.3080   71.5640 O   0  0  0  0  0  0  0  0  0  0  0  0
  127.5040  127.1120   70.9520 C   0  0  0  0  0  0  0  0  0  0  0  0
  126.6920  127.8460   71.5230 O   0  0  0  0  0  0  0  0  0  0  0  0
  127.6190  127.0130   69.4240 C   0  0  0  0  0  0  0  0  0  0  0  0
  129.0630  127.9440   68.8080 S   0  0  0  0  0  0  0  0  0  0  0  0
  129.1550  127.7320   67.0420 C   0  0  0  0  0  0  0  0  0  0  0  0
  128.7520  128.8260   66.3500 N   0  0  0  0  0  0  0  0  0  0  0  0
  128.7620  128.8030   64.9930 C   0  0  0  0  0  0  0  0  0  0  0  0
  128.2870  130.0380   64.2990 C   0  0  0  0  0  0  0  0  0  0  0  0
  126.9270  130.3660   64.2800 C   0  0  0  0  0  0  0  0  0  0  0  0
  126.4770  131.5150   63.6360 C   0  0  0  0  0  0  0  0  0  0  0  0
  127.3740  132.3850   62.9960 C   0  0  0  0  0  0  0  0  0  0  0  0
  126.9360  133.5340   62.3280 N   0  0  0  0  0  0  0  0  0  0  0  0
  127.8800  134.5860   61.9020 C   0  0  0  0  0  0  0  0  0  0  0  0
  127.1960  135.9180   61.5310 C   0  0  0  0  0  0  0  0  0  0  0  0
  126.2080  135.6930   60.5370 O   0  0  0  0  0  0  0  0  0  0  0  0
  125.2040  134.8010   60.9910 C   0  0  0  0  0  0  0  0  0  0  0  0
  125.8300  133.4380   61.3540 C   0  0  0  0  0  0  0  0  0  0  0  0
  128.7340  132.0450   63.0050 C   0  0  0  0  0  0  0  0  0  0  0  0
  129.1830  130.8950   63.6480 C   0  0  0  0  0  0  0  0  0  0  0  0
  129.1880  127.6690   64.2950 C   0  0  0  0  0  0  0  0  0  0  0  0
  129.6410  126.5390   64.9860 C   0  0  0  0  0  0  0  0  0  0  0  0
  130.1070  125.3750   64.1740 C   0  0  0  0  0  0  0  0  0  0  0  0
  129.7730  124.0740   64.5540 C   0  0  0  0  0  0  0  0  0  0  0  0
  130.1910  122.9830   63.7980 C   0  0  0  0  0  0  0  0  0  0  0  0
  130.9620  123.1640   62.6370 C   0  0  0  0  0  0  0  0  0  0  0  0
  131.3820  122.0840   61.8560 N   0  0  0  0  0  0  0  0  0  0  0  0
  132.6290  122.1430   61.0690 C   0  0  0  0  0  0  0  0  0  0  0  0
  133.1090  120.7630   60.5700 C   0  0  0  0  0  0  0  0  0  0  0  0
  132.0750  120.1270   59.8350 O   0  0  0  0  0  0  0  0  0  0  0  0
  130.9130  119.9310   60.6260 C   0  0  0  0  0  0  0  0  0  0  0  0
  130.3760  121.2900   61.1230 C   0  0  0  0  0  0  0  0  0  0  0  0
  131.2780  124.4740   62.2530 C   0  0  0  0  0  0  0  0  0  0  0  0
  130.8580  125.5640   63.0090 C   0  0  0  0  0  0  0  0  0  0  0  0
  129.6330  126.5650   66.4030 C   0  0  0  0  0  0  0  0  0  0  0  0
  130.1160  125.4130   67.1700 C   0  0  0  0  0  0  0  0  0  0  0  0
  130.4980  124.5020   67.7730 N   0  0  0  0  0  0  0  0  0  0  0  0
  1  2  1  0
  2  3  1  0
  3  4  2  0
  3  5  1  0
  5  6  1  0
  6  7  1  0
  7  8  2  0
  8  9  1  0
  9 10  1  0
 10 11  2  0
 11 12  1  0
 12 13  2  0
 13 14  1  0
 14 15  1  0
 15 16  1  0
 16 17  1  0
 17 18  1  0
 18 19  1  0
 13 20  1  0
 20 21  2  0
  9 22  2  0
 22 23  1  0
 23 24  1  0
 24 25  2  0
 25 26  1  0
 26 27  2  0
 27 28  1  0
 28 29  1  0
 29 30  1  0
 30 31  1  0
 31 32  1  0
 32 33  1  0
 27 34  1  0
 34 35  2  0
 23 36  2  0
 36 37  1  0
 37 38  3  0
 36  7  1  0
 21 10  1  0
 35 24  1  0
 19 14  1  0
 33 28  1  0
M  END
>  <Binding energies>  (19) 
[-8.15]

>  <Ligand effiencies>  (19) 
[-0.21447368421052632]

>  <Interactions>  (19) 
["H-A:TYR:484:OH:4343, V-A:GLU:543:CD:4903, V-A:GLU:543:CG:4902, V-B:GLU:543:CG:9875, V-A:HIS:456:CE1:4064, V-B:HIS:456:CE1:9037, V-B:GLU:543:CD:9876, V-B:GLU:543:CB:9874, V-A:LEU:475:CD2:4254, V-B:TYR:539:CD2:9842, V-A:TRP:381:CH2:3367, V-B:ALA:541:CB:9860, V-A:ALA:541:CB:4887, V-A:TYR:539:CE2:4871, V-A:ILE:369:CD1:3234, V-B:GLU:543:C:9870, H-B:LYS:547:NZ:9919, H-A:HIS:456:NE2:4065, V-B:LEU:475:CG:9224, V-B:LEU:475:CD2:9226, V-A:TYR:539:CD2:4869, V-A:ILE:369:CG2:3232, V-B:TRP:381:CH2:8339, V-B:TRP:381:CZ2:8337, V-B:GLY:544:C:9880, H-B:HIS:456:ND1:9034, V-B:LEU:475:CD1:9225"]

$$$$
2d_Grossjean_2025
     RDKit          3D

 24 25  0  0  0  0  0  0  0  0999 V2000
  133.8970  123.5550   59.0280 C   0  0  0  0  0  0  0  0  0  0  0  0
  133.0270  123.2890   60.2420 C   0  0  0  0  0  0  0  0  0  0  0  0
  131.8480  122.5540   60.1480 C   0  0  0  0  0  0  0  0  0  0  0  0
  131.0800  122.3300   61.3010 C   0  0  0  0  0  0  0  0  0  0  0  0
  129.7840  121.5070   61.1790 C   0  0  0  0  0  0  0  0  0  0  0  0
  128.7900  122.1230   61.8190 F   0  0  0  0  0  0  0  0  0  0  0  0
  129.4500  121.3670   59.8940 F   0  0  0  0  0  0  0  0  0  0  0  0
  129.8980  120.2830   61.6980 F   0  0  0  0  0  0  0  0  0  0  0  0
  131.5320  122.8710   62.5310 C   0  0  0  0  0  0  0  0  0  0  0  0
  130.7910  122.6270   63.7720 C   0  0  0  0  0  0  0  0  0  0  0  0
  130.2060  122.4320   64.7510 N   0  0  0  0  0  0  0  0  0  0  0  0
  132.7290  123.6260   62.5270 C   0  0  0  0  0  0  0  0  0  0  0  0
  133.4230  124.4010   63.9750 S   0  0  0  0  0  0  0  0  0  0  0  0
  132.4550  125.8980   64.3580 C   0  0  0  0  0  0  0  0  0  0  0  0
  131.5240  125.7180   65.5610 C   0  0  0  0  0  0  0  0  0  0  0  0
  131.6940  124.7550   66.3100 O   0  0  0  0  0  0  0  0  0  0  0  0
  130.5470  126.6410   65.6870 N   0  0  0  0  0  0  0  0  0  0  0  0
  129.5510  126.7510   66.6740 C   0  0  0  0  0  0  0  0  0  0  0  0
  128.3100  127.2250   66.2420 C   0  0  0  0  0  0  0  0  0  0  0  0
  127.2620  127.3740   67.1470 C   0  0  0  0  0  0  0  0  0  0  0  0
  127.4590  127.0570   68.4890 C   0  0  0  0  0  0  0  0  0  0  0  0
  128.6950  126.5970   68.9340 C   0  0  0  0  0  0  0  0  0  0  0  0
  129.7440  126.4460   68.0320 C   0  0  0  0  0  0  0  0  0  0  0  0
  133.4690  123.8140   61.4070 N   0  0  0  0  0  0  0  0  0  0  0  0
  1  2  1  0
  2  3  2  0
  3  4  1  0
  4  5  1  0
  5  6  1  0
  5  7  1  0
  5  8  1  0
  4  9  2  0
  9 10  1  0
 10 11  3  0
  9 12  1  0
 12 13  1  0
 13 14  1  0
 14 15  1  0
 15 16  2  0
 15 17  1  0
 17 18  1  0
 18 19  2  0
 19 20  1  0
 20 21  2  0
 21 22  1  0
 22 23  2  0
 12 24  2  0
 24  2  1  0
 23 18  1  0
M  END
>  <Binding energies>  (20) 
[-6.34]

>  <Ligand effiencies>  (20) 
[-0.2536]

>  <Interactions>  (20) 
["H-A:TYR:484:OH:4343, V-A:ARG:545:CZ:4921, H-A:GLU:543:OE2:4905, H-A:GLY:454:N:4045, V-A:ASP:366:CG:3208, V-A:GLU:543:CD:4903, V-B:GLU:543:CG:9875, V-A:HIS:456:CE1:4064, V-B:HIS:456:CE1:9037, H-A:GLU:543:OE1:4904, V-B:GLU:543:CD:9876, V-B:GLU:543:CB:9874, V-A:LEU:475:CD2:4254, V-B:TYR:539:CD2:9842, V-A:TYR:484:CE1:4340, V-B:TYR:539:CE2:9844, V-B:ALA:541:CB:9860, V-A:ASP:366:CB:3207, V-A:ILE:369:CD1:3234, V-B:GLU:543:C:9870, H-A:HIS:456:NE2:4065, V-A:ILE:369:CG2:3232, V-B:ALA:541:CA:9858, V-B:TYR:539:C:9835, V-A:ILE:369:CB:3231, V-A:ASP:366:CA:3205"]

$$$$
2e_Grossjean_2025
     RDKit          3D

 25 26  0  0  0  0  0  0  0  0999 V2000
  130.0900  123.6450   69.0170 C   0  0  0  0  0  0  0  0  0  0  0  0
  129.9310  124.8680   68.1350 C   0  0  0  0  0  0  0  0  0  0  0  0
  129.0250  125.8850   68.4500 C   0  0  0  0  0  0  0  0  0  0  0  0
  128.9410  126.9870   67.5970 C   0  0  0  0  0  0  0  0  0  0  0  0
  129.7550  127.0450   66.4620 C   0  0  0  0  0  0  0  0  0  0  0  0
  130.6330  125.9870   66.2010 C   0  0  0  0  0  0  0  0  0  0  0  0
  131.4590  126.1170   65.0710 N   0  0  0  0  0  0  0  0  0  0  0  0
  131.2740  125.5930   63.8390 C   0  0  0  0  0  0  0  0  0  0  0  0
  130.2810  124.9550   63.4850 O   0  0  0  0  0  0  0  0  0  0  0  0
  132.4290  125.7890   62.8520 C   0  0  0  0  0  0  0  0  0  0  0  0
  133.5790  124.3770   62.8550 S   0  0  0  0  0  0  0  0  0  0  0  0
  132.9620  123.2590   61.6150 C   0  0  0  0  0  0  0  0  0  0  0  0
  133.5030  123.4280   60.3830 N   0  0  0  0  0  0  0  0  0  0  0  0
  133.0580  122.6490   59.3710 C   0  0  0  0  0  0  0  0  0  0  0  0
  133.7050  122.8900   58.0210 C   0  0  0  0  0  0  0  0  0  0  0  0
  132.0630  121.6880   59.5420 C   0  0  0  0  0  0  0  0  0  0  0  0
  131.4870  121.5070   60.8090 C   0  0  0  0  0  0  0  0  0  0  0  0
  130.3750  120.4560   60.9780 C   0  0  0  0  0  0  0  0  0  0  0  0
  129.1830  121.0520   61.0220 F   0  0  0  0  0  0  0  0  0  0  0  0
  130.3950  119.6030   59.9530 F   0  0  0  0  0  0  0  0  0  0  0  0
  130.5070  119.7410   62.0970 F   0  0  0  0  0  0  0  0  0  0  0  0
  131.9470  122.3120   61.8810 C   0  0  0  0  0  0  0  0  0  0  0  0
  131.3650  122.1930   63.2210 C   0  0  0  0  0  0  0  0  0  0  0  0
  130.9040  122.0990   64.2790 N   0  0  0  0  0  0  0  0  0  0  0  0
  130.7270  124.9100   67.0350 N   0  0  0  0  0  0  0  0  0  0  0  0
  1  2  1  0
  2  3  2  0
  3  4  1  0
  4  5  2  0
  5  6  1  0
  6  7  1  0
  7  8  1  0
  8  9  2  0
  8 10  1  0
 10 11  1  0
 11 12  1  0
 12 13  2  0
 13 14  1  0
 14 15  1  0
 14 16  2  0
 16 17  1  0
 17 18  1  0
 18 19  1  0
 18 20  1  0
 18 21  1  0
 17 22  2  0
 22 23  1  0
 23 24  3  0
  6 25  2  0
 25  2  1  0
 22 12  1  0
M  END
>  <Binding energies>  (21) 
[-6.68]

>  <Ligand effiencies>  (21) 
[-0.2569230769230769]

>  <Interactions>  (21) 
["H-A:TYR:484:OH:4343, V-A:ARG:545:CZ:4921, H-A:GLU:543:OE2:4905, H-A:GLY:454:N:4045, V-A:ASP:366:CG:3208, V-A:GLU:543:CD:4903, V-A:HIS:456:CE1:4064, H-A:GLU:543:OE1:4904, V-B:GLU:543:CB:9874, V-A:LEU:475:CD2:4254, V-B:TYR:539:CD2:9842, V-A:TRP:381:CZ3:3366, V-A:TYR:484:CE1:4340, V-A:TYR:484:CZ:4342, V-A:TRP:381:CH2:3367, V-A:LEU:475:CD1:4253, V-B:TYR:539:CE2:9844, V-B:ALA:541:CB:9860, V-A:ILE:369:CD1:3234, V-A:HIS:456:CD2:4063, V-B:GLU:543:C:9870, V-B:GLU:543:CA:9872, V-A:TYR:484:CD1:4338, H-A:HIS:456:NE2:4065, V-A:ILE:369:CG2:3232, V-B:PRO:540:C:9849, V-B:ALA:541:CA:9858, V-B:TYR:539:C:9835, V-A:LEU:475:CG:4252, V-A:ILE:369:CB:3231, V-B:TYR:539:CG:9840"]

$$$$
2f_Grossjean_2025
     RDKit          3D

 24 25  0  0  0  0  0  0  0  0999 V2000
  127.4920  136.6890   61.5890 C   0  0  0  0  0  0  0  0  0  0  0  0
  127.3240  135.2010   61.3440 C   0  0  0  0  0  0  0  0  0  0  0  0
  126.0880  134.6510   61.0120 C   0  0  0  0  0  0  0  0  0  0  0  0
  125.9820  133.2680   60.8030 C   0  0  0  0  0  0  0  0  0  0  0  0
  124.6040  132.6770   60.4470 C   0  0  0  0  0  0  0  0  0  0  0  0
  124.3190  131.6560   61.2580 F   0  0  0  0  0  0  0  0  0  0  0  0
  123.6610  133.6110   60.5810 F   0  0  0  0  0  0  0  0  0  0  0  0
  124.5430  132.2210   59.1950 F   0  0  0  0  0  0  0  0  0  0  0  0
  127.1480  132.4710   60.9310 C   0  0  0  0  0  0  0  0  0  0  0  0
  127.0770  131.0150   60.7790 C   0  0  0  0  0  0  0  0  0  0  0  0
  127.0210  129.8660   60.6570 N   0  0  0  0  0  0  0  0  0  0  0  0
  128.3660  133.1200   61.2460 C   0  0  0  0  0  0  0  0  0  0  0  0
  129.9260  132.2800   61.4350 S   0  0  0  0  0  0  0  0  0  0  0  0
  129.7240  130.9910   62.7120 C   0  0  0  0  0  0  0  0  0  0  0  0
  128.5560  131.2150   63.6830 C   0  0  0  0  0  0  0  0  0  0  0  0
  128.6140  132.0960   64.5420 O   0  0  0  0  0  0  0  0  0  0  0  0
  127.5180  130.3680   63.5150 N   0  0  0  0  0  0  0  0  0  0  0  0
  126.2980  130.2970   64.2130 C   0  0  0  0  0  0  0  0  0  0  0  0
  126.0100  129.4080   65.2650 C   0  0  0  0  0  0  0  0  0  0  0  0
  124.7560  129.4470   65.8790 C   0  0  0  0  0  0  0  0  0  0  0  0
  123.8210  130.3780   65.4280 C   0  0  0  0  0  0  0  0  0  0  0  0
  124.0760  131.2520   64.4210 N   0  0  0  0  0  0  0  0  0  0  0  0
  125.3000  131.2020   63.8350 C   0  0  0  0  0  0  0  0  0  0  0  0
  128.4450  134.4550   61.4670 N   0  0  0  0  0  0  0  0  0  0  0  0
  1  2  1  0
  2  3  2  0
  3  4  1  0
  4  5  1  0
  5  6  1  0
  5  7  1  0
  5  8  1  0
  4  9  2  0
  9 10  1  0
 10 11  3  0
  9 12  1  0
 12 13  1  0
 13 14  1  0
 14 15  1  0
 15 16  2  0
 15 17  1  0
 17 18  1  0
 18 19  2  0
 19 20  1  0
 20 21  2  0
 21 22  1  0
 22 23  2  0
 12 24  2  0
 24  2  1  0
 23 18  1  0
M  END
>  <Binding energies>  (22) 
[-5.81]

>  <Ligand effiencies>  (22) 
[-0.2324]

>  <Interactions>  (22) 
["V-A:GLU:543:CD:4903, V-A:GLU:543:CG:4902, V-B:HIS:456:CE1:9037, V-B:ARG:545:CZ:9894, H-B:TYR:484:OH:9315, H-A:ALA:541:N:4886, V-A:TYR:539:CZ:4872, V-B:ARG:545:CD:9891, V-B:ARG:545:CG:9890, V-A:TYR:539:CE2:4871, H-B:GLY:454:N:9017, V-B:ILE:369:CG1:8205, V-B:ILE:369:CD1:8206, V-B:ILE:369:CG2:8204, V-B:ILE:369:CB:8203, V-B:LEU:475:CG:9224, V-B:LEU:475:CD2:9226, V-A:TYR:539:CD2:4869, V-B:TRP:381:CH2:8339, V-B:TRP:381:CZ2:8337, V-B:GLY:454:CA:9016, V-B:LEU:475:CD1:9225, V-B:PRO:482:CG:9294, V-B:PRO:482:CB:9293, V-B:TRP:381:CE2:8334"]

$$$$
2g_Grossjean_2025
     RDKit          3D

 25 26  0  0  0  0  0  0  0  0999 V2000
  133.8860  123.1830   58.4320 C   0  0  0  0  0  0  0  0  0  0  0  0
  133.1260  122.9260   59.7190 C   0  0  0  0  0  0  0  0  0  0  0  0
  132.0480  122.0450   59.7660 C   0  0  0  0  0  0  0  0  0  0  0  0
  131.3720  121.8480   60.9800 C   0  0  0  0  0  0  0  0  0  0  0  0
  130.1760  120.8760   61.0110 C   0  0  0  0  0  0  0  0  0  0  0  0
  129.0340  121.5520   61.1470 F   0  0  0  0  0  0  0  0  0  0  0  0
  130.1320  120.1770   59.8750 F   0  0  0  0  0  0  0  0  0  0  0  0
  130.2450  120.0040   62.0190 F   0  0  0  0  0  0  0  0  0  0  0  0
  131.8180  122.5510   62.1280 C   0  0  0  0  0  0  0  0  0  0  0  0
  131.1120  122.4240   63.4060 C   0  0  0  0  0  0  0  0  0  0  0  0
  130.5540  122.3230   64.4150 N   0  0  0  0  0  0  0  0  0  0  0  0
  132.9410  123.4020   61.9920 C   0  0  0  0  0  0  0  0  0  0  0  0
  133.6460  124.3380   63.3320 S   0  0  0  0  0  0  0  0  0  0  0  0
  132.3980  125.5570   63.8660 C   0  0  0  0  0  0  0  0  0  0  0  0
  131.9450  125.4150   65.3260 C   0  0  0  0  0  0  0  0  0  0  0  0
  132.6300  125.8470   66.2550 O   0  0  0  0  0  0  0  0  0  0  0  0
  130.7680  124.7880   65.5080 N   0  0  0  0  0  0  0  0  0  0  0  0
  130.1280  124.5420   66.8010 C   0  0  0  0  0  0  0  0  0  0  0  0
  129.5770  125.7930   67.4780 C   0  0  0  0  0  0  0  0  0  0  0  0
  129.2160  126.9000   66.7050 C   0  0  0  0  0  0  0  0  0  0  0  0
  128.6770  128.0300   67.3180 C   0  0  0  0  0  0  0  0  0  0  0  0
  128.4920  128.0440   68.6980 C   0  0  0  0  0  0  0  0  0  0  0  0
  128.8390  126.9380   69.4720 C   0  0  0  0  0  0  0  0  0  0  0  0
  129.3770  125.8090   68.8610 C   0  0  0  0  0  0  0  0  0  0  0  0
  133.5680  123.5990   60.8060 N   0  0  0  0  0  0  0  0  0  0  0  0
  1  2  1  0
  2  3  2  0
  3  4  1  0
  4  5  1  0
  5  6  1  0
  5  7  1  0
  5  8  1  0
  4  9  2  0
  9 10  1  0
 10 11  3  0
  9 12  1  0
 12 13  1  0
 13 14  1  0
 14 15  1  0
 15 16  2  0
 15 17  1  0
 17 18  1  0
 18 19  1  0
 19 20  2  0
 20 21  1  0
 21 22  2  0
 22 23  1  0
 23 24  2  0
 12 25  2  0
 25  2  1  0
 24 19  1  0
M  END
>  <Binding energies>  (23) 
[-6.52]

>  <Ligand effiencies>  (23) 
[-0.25076923076923074]

>  <Interactions>  (23) 
["H-A:TYR:484:OH:4343, V-A:ARG:545:CZ:4921, H-A:GLY:454:N:4045, V-B:GLU:543:CG:9875, V-A:HIS:456:CE1:4064, V-B:HIS:456:CE1:9037, V-B:GLU:543:CB:9874, H-B:GLU:543:OE2:9878, V-A:LEU:475:CD2:4254, V-B:TYR:539:CD2:9842, V-A:TYR:484:CE1:4340, V-A:TYR:484:CZ:4342, V-A:LEU:475:CD1:4253, V-B:TYR:539:CE2:9844, V-B:ALA:541:CB:9860, V-A:ASP:366:CB:3207, V-A:ILE:369:CD1:3234, V-B:GLU:543:C:9870, H-A:HIS:456:NE2:4065, H-A:ARG:545:NE:4919, V-A:ILE:369:CG2:3232, V-B:PRO:540:C:9849, V-B:ALA:541:CA:9858, V-B:TYR:539:C:9835, V-A:ILE:369:CB:3231, V-A:ASP:366:CA:3205, V-A:ILE:369:CG1:3233, V-B:TYR:539:CG:9840"]

$$$$
2h_Grossjean_2025
     RDKit          3D

 31 32  0  0  0  0  0  0  0  0999 V2000
  132.4130  130.2500   60.5790 C   0  0  0  0  0  0  0  0  0  0  0  0
  131.8740  131.4500   60.0370 O   0  0  0  0  0  0  0  0  0  0  0  0
  130.5400  131.4900   59.6700 C   0  0  0  0  0  0  0  0  0  0  0  0
  130.0400  130.9500   58.4740 C   0  0  0  0  0  0  0  0  0  0  0  0
  128.6820  131.0220   58.1760 C   0  0  0  0  0  0  0  0  0  0  0  0
  127.7930  131.6320   59.0630 C   0  0  0  0  0  0  0  0  0  0  0  0
  126.3040  131.6800   58.7240 C   0  0  0  0  0  0  0  0  0  0  0  0
  125.4320  131.4770   59.8810 N   0  0  0  0  0  0  0  0  0  0  0  0
  124.0940  131.3600   59.8260 C   0  0  0  0  0  0  0  0  0  0  0  0
  123.4460  131.4960   58.7860 O   0  0  0  0  0  0  0  0  0  0  0  0
  123.4020  131.0330   61.1560 C   0  0  0  0  0  0  0  0  0  0  0  0
  124.0090  131.9770   62.5940 S   0  0  0  0  0  0  0  0  0  0  0  0
  124.3960  130.7910   63.8620 C   0  0  0  0  0  0  0  0  0  0  0  0
  123.4900  130.7540   64.8700 N   0  0  0  0  0  0  0  0  0  0  0  0
  123.6970  129.9000   65.8970 C   0  0  0  0  0  0  0  0  0  0  0  0
  122.6480  129.9190   66.9920 C   0  0  0  0  0  0  0  0  0  0  0  0
  124.8010  129.0520   65.9590 C   0  0  0  0  0  0  0  0  0  0  0  0
  125.7380  129.0600   64.9150 C   0  0  0  0  0  0  0  0  0  0  0  0
  126.9470  128.1090   64.9970 C   0  0  0  0  0  0  0  0  0  0  0  0
  128.0680  128.8110   65.1630 F   0  0  0  0  0  0  0  0  0  0  0  0
  126.8600  127.2480   66.0140 F   0  0  0  0  0  0  0  0  0  0  0  0
  127.0460  127.3950   63.8750 F   0  0  0  0  0  0  0  0  0  0  0  0
  125.5310  129.9460   63.8270 C   0  0  0  0  0  0  0  0  0  0  0  0
  126.4490  129.9520   62.6840 C   0  0  0  0  0  0  0  0  0  0  0  0
  127.1730  129.9520   61.7820 N   0  0  0  0  0  0  0  0  0  0  0  0
  128.2820  132.1970   60.2500 C   0  0  0  0  0  0  0  0  0  0  0  0
  127.4140  132.8030   61.1270 O   0  0  0  0  0  0  0  0  0  0  0  0
  127.4880  134.2230   61.1390 C   0  0  0  0  0  0  0  0  0  0  0  0
  129.6500  132.1070   60.5580 C   0  0  0  0  0  0  0  0  0  0  0  0
  130.1300  132.6430   61.7300 O   0  0  0  0  0  0  0  0  0  0  0  0
  129.7670  131.9130   62.8940 C   0  0  0  0  0  0  0  0  0  0  0  0
  1  2  1  0
  2  3  1  0
  3  4  2  0
  4  5  1  0
  5  6  2  0
  6  7  1  0
  7  8  1  0
  8  9  1  0
  9 10  2  0
  9 11  1  0
 11 12  1  0
 12 13  1  0
 13 14  2  0
 14 15  1  0
 15 16  1  0
 15 17  2  0
 17 18  1  0
 18 19  1  0
 19 20  1  0
 19 21  1  0
 19 22  1  0
 18 23  2  0
 23 24  1  0
 24 25  3  0
  6 26  1  0
 26 27  1  0
 27 28  1  0
 26 29  2  0
 29 30  1  0
 30 31  1  0
 29  3  1  0
 23 13  1  0
M  END
>  <Binding energies>  (24) 
[-5.85]

>  <Ligand effiencies>  (24) 
[-0.1828125]

>  <Interactions>  (24) 
["V-A:PRO:540:CA:4878, V-A:GLU:543:CD:4903, V-A:PRO:540:CB:4880, V-A:GLU:543:CG:4902, V-B:GLU:543:CG:9875, V-B:HIS:456:CE1:9037, V-B:GLU:543:CD:9876, V-B:GLU:543:CB:9874, V-B:ARG:545:CZ:9894, H-B:TYR:484:OH:9315, H-A:ALA:541:N:4886, V-A:TYR:539:CZ:4872, V-B:ARG:545:CD:9891, V-A:ALA:541:CB:4887, V-B:ARG:545:CG:9890, V-A:TYR:539:CE2:4871, H-B:GLY:454:N:9017, V-B:ASP:366:CG:8180, V-B:ILE:369:CD1:8206, V-A:TYR:539:CD2:4869, H-A:TYR:539:OH:4873, V-B:GLY:453:CA:9011, V-B:GLY:453:C:9009, V-B:ARG:545:CB:9889, V-B:ILE:455:C:9019"]

$$$$
2i_Grossjean_2025
     RDKit          3D

 23 24  0  0  0  0  0  0  0  0999 V2000
  133.0780  123.2550   57.5620 C   0  0  0  0  0  0  0  0  0  0  0  0
  132.5250  122.9950   58.9510 C   0  0  0  0  0  0  0  0  0  0  0  0
  131.1880  122.6680   59.1550 C   0  0  0  0  0  0  0  0  0  0  0  0
  130.7260  122.4340   60.4580 C   0  0  0  0  0  0  0  0  0  0  0  0
  129.2420  122.0740   60.6660 C   0  0  0  0  0  0  0  0  0  0  0  0
  128.7130  122.8490   61.6140 F   0  0  0  0  0  0  0  0  0  0  0  0
  128.5640  122.2540   59.5320 F   0  0  0  0  0  0  0  0  0  0  0  0
  129.0660  120.8050   61.0410 F   0  0  0  0  0  0  0  0  0  0  0  0
  131.6460  122.5390   61.5320 C   0  0  0  0  0  0  0  0  0  0  0  0
  131.2180  122.3040   62.9150 C   0  0  0  0  0  0  0  0  0  0  0  0
  130.8800  122.1180   64.0060 N   0  0  0  0  0  0  0  0  0  0  0  0
  132.9860  122.8780   61.2350 C   0  0  0  0  0  0  0  0  0  0  0  0
  134.2300  123.0470   62.5050 S   0  0  0  0  0  0  0  0  0  0  0  0
  134.2620  124.7860   63.0370 C   0  0  0  0  0  0  0  0  0  0  0  0
  133.5480  124.9960   64.3730 C   0  0  0  0  0  0  0  0  0  0  0  0
  134.2050  124.9620   65.4150 O   0  0  0  0  0  0  0  0  0  0  0  0
  132.2120  125.1820   64.3030 N   0  0  0  0  0  0  0  0  0  0  0  0
  131.3470  125.3750   65.3670 C   0  0  0  0  0  0  0  0  0  0  0  0
  130.1790  126.1470   65.4530 C   0  0  0  0  0  0  0  0  0  0  0  0
  129.7330  125.9630   66.7420 C   0  0  0  0  0  0  0  0  0  0  0  0
  130.5770  125.1250   67.3880 O   0  0  0  0  0  0  0  0  0  0  0  0
  131.5920  124.7570   66.5020 N   0  0  0  0  0  0  0  0  0  0  0  0
  133.4130  123.1000   59.9650 N   0  0  0  0  0  0  0  0  0  0  0  0
  1  2  1  0
  2  3  2  0
  3  4  1  0
  4  5  1  0
  5  6  1  0
  5  7  1  0
  5  8  1  0
  4  9  2  0
  9 10  1  0
 10 11  3  0
  9 12  1  0
 12 13  1  0
 13 14  1  0
 14 15  1  0
 15 16  2  0
 15 17  1  0
 17 18  1  0
 18 19  1  0
 19 20  2  0
 20 21  1  0
 21 22  1  0
 12 23  2  0
 23  2  1  0
 22 18  2  0
M  END
>  <Binding energies>  (25) 
[-6.12]

>  <Ligand effiencies>  (25) 
[-0.255]

>  <Interactions>  (25) 
["H-A:TYR:484:OH:4343, V-A:ARG:545:CZ:4921, H-A:GLY:454:N:4045, V-A:ASP:366:CG:3208, V-B:GLU:543:CG:9875, V-B:GLU:543:CB:9874, V-A:LEU:475:CD2:4254, V-B:TYR:539:CD2:9842, V-B:TYR:539:CE2:9844, V-B:ALA:541:CB:9860, V-A:ILE:369:CD1:3234, V-A:GLY:453:C:4037, V-A:GLY:453:CA:4039, H-A:HIS:456:NE2:4065, H-A:ARG:545:NE:4919, V-B:PRO:540:CA:9851, V-B:PRO:540:C:9849, V-B:ALA:541:CA:9858, V-B:TYR:539:C:9835, V-B:PRO:540:N:9852, V-B:TYR:539:CZ:9845"]

$$$$
2k_Grossjean_2025
     RDKit          3D

 28 28  0  0  0  0  0  0  0  0999 V2000
  129.7360  124.6910   71.8470 C   0  0  0  0  0  0  0  0  0  0  0  0
  129.0010  125.8340   72.2570 O   0  0  0  0  0  0  0  0  0  0  0  0
  129.0220  126.8920   71.3070 C   0  0  0  0  0  0  0  0  0  0  0  0
  130.1970  127.8320   71.6060 C   0  0  0  0  0  0  0  0  0  0  0  0
  130.1920  128.8940   70.6630 O   0  0  0  0  0  0  0  0  0  0  0  0
  130.7440  128.5530   69.3970 C   0  0  0  0  0  0  0  0  0  0  0  0
  129.6050  128.5000   68.3700 C   0  0  0  0  0  0  0  0  0  0  0  0
  129.4660  127.1530   67.9450 O   0  0  0  0  0  0  0  0  0  0  0  0
  130.0070  126.8650   66.6650 C   0  0  0  0  0  0  0  0  0  0  0  0
  130.2690  125.3500   66.5620 C   0  0  0  0  0  0  0  0  0  0  0  0
  131.1770  125.0000   65.4670 N   0  0  0  0  0  0  0  0  0  0  0  0
  132.5150  125.1480   65.4810 C   0  0  0  0  0  0  0  0  0  0  0  0
  133.1390  125.5780   66.4530 O   0  0  0  0  0  0  0  0  0  0  0  0
  133.2420  124.7630   64.1840 C   0  0  0  0  0  0  0  0  0  0  0  0
  132.4310  125.3100   62.6410 S   0  0  0  0  0  0  0  0  0  0  0  0
  132.2310  123.9110   61.5470 C   0  0  0  0  0  0  0  0  0  0  0  0
  132.7960  124.0380   60.3190 N   0  0  0  0  0  0  0  0  0  0  0  0
  132.6800  123.0200   59.4380 C   0  0  0  0  0  0  0  0  0  0  0  0
  133.3270  123.2440   58.0850 C   0  0  0  0  0  0  0  0  0  0  0  0
  132.0130  121.8360   59.7410 C   0  0  0  0  0  0  0  0  0  0  0  0
  131.4290  121.6790   61.0080 C   0  0  0  0  0  0  0  0  0  0  0  0
  130.7000  120.3600   61.3290 C   0  0  0  0  0  0  0  0  0  0  0  0
  130.5250  120.1720   62.6380 F   0  0  0  0  0  0  0  0  0  0  0  0
  129.4940  120.3540   60.7580 F   0  0  0  0  0  0  0  0  0  0  0  0
  131.4020  119.3250   60.8660 F   0  0  0  0  0  0  0  0  0  0  0  0
  131.5360  122.7420   61.9400 C   0  0  0  0  0  0  0  0  0  0  0  0
  130.9420  122.6340   63.2750 C   0  0  0  0  0  0  0  0  0  0  0  0
  130.4720  122.5470   64.3300 N   0  0  0  0  0  0  0  0  0  0  0  0
  1  2  1  0
  2  3  1  0
  3  4  1  0
  4  5  1  0
  5  6  1  0
  6  7  1  0
  7  8  1  0
  8  9  1  0
  9 10  1  0
 10 11  1  0
 11 12  1  0
 12 13  2  0
 12 14  1  0
 14 15  1  0
 15 16  1  0
 16 17  2  0
 17 18  1  0
 18 19  1  0
 18 20  2  0
 20 21  1  0
 21 22  1  0
 22 23  1  0
 22 24  1  0
 22 25  1  0
 21 26  2  0
 26 27  1  0
 27 28  3  0
 26 16  1  0
M  END
>  <Binding energies>  (26) 
[-5.02]

>  <Ligand effiencies>  (26) 
[-0.17310344827586205]

>  <Interactions>  (26) 
["H-A:TYR:484:OH:4343, V-A:ARG:545:CZ:4921, V-A:GLU:543:CD:4903, V-A:GLU:543:CB:4901, V-B:GLU:543:CG:9875, V-A:HIS:456:CE1:4064, V-A:GLU:543:C:4897, H-B:GLU:543:OE2:9878, V-A:LEU:475:CD2:4254, V-B:TYR:539:CD2:9842, V-A:TRP:381:CZ3:3366, V-A:TRP:381:CZ2:3365, V-A:TRP:381:CH2:3367, V-A:LEU:475:CD1:4253, V-B:TYR:539:CE2:9844, V-B:ALA:541:CB:9860, H-B:LYS:547:NZ:9919, H-A:HIS:456:NE2:4065, H-A:ARG:545:NE:4919, V-A:ILE:369:CG2:3232, V-B:PRO:540:C:9849, V-B:TYR:539:C:9835, H-A:ARG:545:NH2:4923, V-A:LEU:475:CG:4252, V-A:ILE:369:CB:3231"]

$$$$
3aa_Grossjean_2025
     RDKit          3D

 34 36  0  0  0  0  0  0  0  0999 V2000
  130.1490  123.8660   71.9970 C   0  0  0  0  0  0  0  0  0  0  0  0
  130.4620  125.0880   72.8670 C   0  0  0  0  0  0  0  0  0  0  0  0
  129.3610  125.9880   72.8350 O   0  0  0  0  0  0  0  0  0  0  0  0
  129.5510  127.3170   72.6330 C   0  0  0  0  0  0  0  0  0  0  0  0
  129.7940  128.1160   73.5430 O   0  0  0  0  0  0  0  0  0  0  0  0
  129.4210  127.7230   71.1920 C   0  0  0  0  0  0  0  0  0  0  0  0
  130.3920  128.5050   70.5500 C   0  0  0  0  0  0  0  0  0  0  0  0
  130.2430  128.8600   69.2120 C   0  0  0  0  0  0  0  0  0  0  0  0
  129.1260  128.4360   68.4880 C   0  0  0  0  0  0  0  0  0  0  0  0
  129.0740  128.8470   67.1410 N   0  0  0  0  0  0  0  0  0  0  0  0
  128.5730  128.2030   66.0640 C   0  0  0  0  0  0  0  0  0  0  0  0
  128.0710  127.0790   66.0730 O   0  0  0  0  0  0  0  0  0  0  0  0
  128.6680  128.9620   64.7400 C   0  0  0  0  0  0  0  0  0  0  0  0
  127.3580  130.2150   64.5850 S   0  0  0  0  0  0  0  0  0  0  0  0
  127.9140  131.4030   63.3830 C   0  0  0  0  0  0  0  0  0  0  0  0
  129.1650  131.1650   62.9220 N   0  0  0  0  0  0  0  0  0  0  0  0
  129.7130  131.9990   62.0010 C   0  0  0  0  0  0  0  0  0  0  0  0
  131.0950  131.6600   61.5290 C   0  0  0  0  0  0  0  0  0  0  0  0
  131.2880  130.7550   60.4740 C   0  0  0  0  0  0  0  0  0  0  0  0
  132.5690  130.4360   60.0290 C   0  0  0  0  0  0  0  0  0  0  0  0
  133.6750  131.0200   60.6370 C   0  0  0  0  0  0  0  0  0  0  0  0
  133.5100  131.9220   61.6830 C   0  0  0  0  0  0  0  0  0  0  0  0
  132.2290  132.2400   62.1230 C   0  0  0  0  0  0  0  0  0  0  0  0
  128.9990  133.0990   61.5130 C   0  0  0  0  0  0  0  0  0  0  0  0
  127.7080  133.3750   61.9890 C   0  0  0  0  0  0  0  0  0  0  0  0
  126.9600  134.6030   61.4350 C   0  0  0  0  0  0  0  0  0  0  0  0
  127.3900  134.9700   60.2260 F   0  0  0  0  0  0  0  0  0  0  0  0
  125.6570  134.3380   61.3300 F   0  0  0  0  0  0  0  0  0  0  0  0
  127.1250  135.6420   62.2540 F   0  0  0  0  0  0  0  0  0  0  0  0
  127.1480  132.5130   62.9620 C   0  0  0  0  0  0  0  0  0  0  0  0
  125.8280  132.7850   63.5370 C   0  0  0  0  0  0  0  0  0  0  0  0
  124.7850  133.0010   63.9910 N   0  0  0  0  0  0  0  0  0  0  0  0
  128.1440  127.6650   69.1280 C   0  0  0  0  0  0  0  0  0  0  0  0
  128.2950  127.3140   70.4660 C   0  0  0  0  0  0  0  0  0  0  0  0
  1  2  1  0
  2  3  1  0
  3  4  1  0
  4  5  2  0
  4  6  1  0
  6  7  2  0
  7  8  1  0
  8  9  2  0
  9 10  1  0
 10 11  1  0
 11 12  2  0
 11 13  1  0
 13 14  1  0
 14 15  1  0
 15 16  2  0
 16 17  1  0
 17 18  1  0
 18 19  2  0
 19 20  1  0
 20 21  2  0
 21 22  1  0
 22 23  2  0
 17 24  2  0
 24 25  1  0
 25 26  1  0
 26 27  1  0
 26 28  1  0
 26 29  1  0
 25 30  2  0
 30 31  1  0
 31 32  3  0
  9 33  1  0
 33 34  2  0
 34  6  1  0
 30 15  1  0
 23 18  1  0
M  END
>  <Binding energies>  (27) 
[-7.59]

>  <Ligand effiencies>  (27) 
[-0.21685714285714286]

>  <Interactions>  (27) 
["V-A:LEU:363:CA:3180, V-A:ASN:362:CB:3171, V-A:ASN:362:C:3167, V-A:PRO:540:CA:4878, V-A:GLU:543:CD:4903, V-A:PRO:540:CB:4880, V-A:GLU:543:CG:4902, V-A:GLY:544:C:4907, V-A:GLU:543:CB:4901, V-A:HIS:456:CE1:4064, V-B:HIS:456:CE1:9037, H-A:GLU:543:OE1:4904, V-A:GLU:543:C:4897, H-B:TYR:484:OH:9315, V-A:PRO:540:C:4876, V-A:ALA:541:CB:4887, V-A:ALA:541:CA:4885, V-A:TYR:539:CE2:4871, V-A:ALA:541:C:4883, H-B:GLY:454:N:9017, H-B:LYS:547:NZ:9919, H-A:LYS:547:NZ:4946, V-A:HIS:456:CG:4061, V-B:LEU:475:CG:9224, V-B:LEU:475:CD2:9226, V-A:TYR:539:CD2:4869, V-A:TYR:539:CG:4867, V-A:TYR:539:C:4862, V-B:LEU:475:CD1:9225, V-B:PRO:482:CB:9293, V-A:ASN:362:CG:3172"]

$$$$
3ad_Grossjean_2025
     RDKit          3D

 29 31  0  0  0  0  0  0  0  0999 V2000
  128.7520  128.3080   67.4030 N   0  0  0  0  0  0  0  0  0  0  0  0
  129.0270  127.3970   68.0620 C   0  0  0  0  0  0  0  0  0  0  0  0
  129.3780  126.2420   68.8940 C   0  0  0  0  0  0  0  0  0  0  0  0
  129.8250  125.0350   68.3040 C   0  0  0  0  0  0  0  0  0  0  0  0
  130.0140  124.8710   66.7840 C   0  0  0  0  0  0  0  0  0  0  0  0
  129.9940  123.5950   66.3940 F   0  0  0  0  0  0  0  0  0  0  0  0
  129.0380  125.5070   66.1330 F   0  0  0  0  0  0  0  0  0  0  0  0
  131.1880  125.3830   66.4100 F   0  0  0  0  0  0  0  0  0  0  0  0
  130.1030  123.9430   69.1410 C   0  0  0  0  0  0  0  0  0  0  0  0
  129.9360  124.0530   70.5260 C   0  0  0  0  0  0  0  0  0  0  0  0
  130.2030  122.9140   71.4640 C   0  0  0  0  0  0  0  0  0  0  0  0
  131.4220  122.8250   72.1550 C   0  0  0  0  0  0  0  0  0  0  0  0
  131.6770  121.7710   73.0290 C   0  0  0  0  0  0  0  0  0  0  0  0
  130.7110  120.7880   73.2240 C   0  0  0  0  0  0  0  0  0  0  0  0
  129.4940  120.8550   72.5530 C   0  0  0  0  0  0  0  0  0  0  0  0
  129.2440  121.9110   71.6810 C   0  0  0  0  0  0  0  0  0  0  0  0
  129.5000  125.2100   71.0850 N   0  0  0  0  0  0  0  0  0  0  0  0
  129.2460  126.2830   70.3000 C   0  0  0  0  0  0  0  0  0  0  0  0
  128.6980  127.7140   71.2030 S   0  0  0  0  0  0  0  0  0  0  0  0
  130.0890  128.2670   72.2340 C   0  0  0  0  0  0  0  0  0  0  0  0
  130.6250  127.1470   73.1290 C   0  0  0  0  0  0  0  0  0  0  0  0
  129.8430  126.3010   73.5630 O   0  0  0  0  0  0  0  0  0  0  0  0
  131.9530  127.1860   73.3730 N   0  0  0  0  0  0  0  0  0  0  0  0
  132.7550  126.3140   74.1320 C   0  0  0  0  0  0  0  0  0  0  0  0
  134.1170  126.6290   74.1770 C   0  0  0  0  0  0  0  0  0  0  0  0
  135.0000  125.8290   74.8970 C   0  0  0  0  0  0  0  0  0  0  0  0
  134.5240  124.7080   75.5700 C   0  0  0  0  0  0  0  0  0  0  0  0
  133.1720  124.3790   75.5290 C   0  0  0  0  0  0  0  0  0  0  0  0
  132.2850  125.1760   74.8100 C   0  0  0  0  0  0  0  0  0  0  0  0
  1  2  3  0
  2  3  1  0
  3  4  2  0
  4  5  1  0
  5  6  1  0
  5  7  1  0
  5  8  1  0
  4  9  1  0
  9 10  2  0
 10 11  1  0
 11 12  2  0
 12 13  1  0
 13 14  2  0
 14 15  1  0
 15 16  2  0
 10 17  1  0
 17 18  2  0
 18 19  1  0
 19 20  1  0
 20 21  1  0
 21 22  2  0
 21 23  1  0
 23 24  1  0
 24 25  2  0
 25 26  1  0
 26 27  2  0
 27 28  1  0
 28 29  2  0
 18  3  1  0
 29 24  1  0
 16 11  1  0
M  END
>  <Binding energies>  (28) 
[-7.2]

>  <Ligand effiencies>  (28) 
[-0.24000000000000002]

>  <Interactions>  (28) 
["V-B:GLU:543:CG:9875, V-A:HIS:456:CE1:4064, V-B:GLU:543:CD:9876, V-B:GLU:543:CB:9874, V-A:TYR:484:CE1:4340, V-A:TYR:484:CZ:4342, V-A:HIS:456:CD2:4063, V-B:GLU:543:C:9870, V-B:GLU:543:CA:9872, H-A:HIS:456:ND1:4062, H-B:LYS:547:NZ:9919, V-A:TYR:484:CD1:4338, V-A:TYR:484:CD2:4339, V-A:HIS:456:CG:4061, V-A:TYR:484:CB:4336, V-A:TYR:484:CG:4337, V-A:LYS:547:CE:4945, V-A:ASP:473:CG:4235, V-A:ASP:473:CB:4234, V-A:HIS:456:CB:4060, H-A:GLY:544:O:4908, V-A:LYS:547:CG:4943, V-A:ARG:545:C:4912, V-A:LYS:547:CD:4944, V-A:VAL:458:CG2:4082, V-A:HIS:456:C:4056, V-A:VAL:457:C:4068, V-A:VAL:457:CA:4070"]

$$$$
3ai_Grossjean_2025
     RDKit          3D

 28 30  0  0  0  0  0  0  0  0999 V2000
  124.1260  133.6890   60.8940 N   0  0  0  0  0  0  0  0  0  0  0  0
  125.2070  133.3730   60.6270 C   0  0  0  0  0  0  0  0  0  0  0  0
  126.5760  132.9720   60.2900 C   0  0  0  0  0  0  0  0  0  0  0  0
  127.6850  133.7130   60.7670 C   0  0  0  0  0  0  0  0  0  0  0  0
  127.5320  134.9370   61.6900 C   0  0  0  0  0  0  0  0  0  0  0  0
  128.6420  135.6760   61.7580 F   0  0  0  0  0  0  0  0  0  0  0  0
  126.5520  135.7240   61.2440 F   0  0  0  0  0  0  0  0  0  0  0  0
  127.2400  134.5430   62.9300 F   0  0  0  0  0  0  0  0  0  0  0  0
  128.9730  133.3170   60.3770 C   0  0  0  0  0  0  0  0  0  0  0  0
  129.1500  132.2160   59.5340 C   0  0  0  0  0  0  0  0  0  0  0  0
  130.5020  131.7550   59.0770 C   0  0  0  0  0  0  0  0  0  0  0  0
  130.8960  131.9070   57.7380 C   0  0  0  0  0  0  0  0  0  0  0  0
  132.1510  131.4860   57.3080 C   0  0  0  0  0  0  0  0  0  0  0  0
  133.0330  130.9080   58.2150 C   0  0  0  0  0  0  0  0  0  0  0  0
  132.6680  130.7480   59.5470 C   0  0  0  0  0  0  0  0  0  0  0  0
  131.4130  131.1700   59.9740 C   0  0  0  0  0  0  0  0  0  0  0  0
  128.0840  131.5130   59.0720 N   0  0  0  0  0  0  0  0  0  0  0  0
  126.8320  131.8610   59.4540 C   0  0  0  0  0  0  0  0  0  0  0  0
  125.5650  130.8140   58.7690 S   0  0  0  0  0  0  0  0  0  0  0  0
  125.3250  129.4080   59.9070 C   0  0  0  0  0  0  0  0  0  0  0  0
  125.5370  129.7320   61.3930 C   0  0  0  0  0  0  0  0  0  0  0  0
  126.6650  129.9710   61.8310 O   0  0  0  0  0  0  0  0  0  0  0  0
  124.4090  129.7260   62.1380 N   0  0  0  0  0  0  0  0  0  0  0  0
  124.2980  129.9880   63.4970 C   0  0  0  0  0  0  0  0  0  0  0  0
  125.1690  129.4600   64.4490 C   0  0  0  0  0  0  0  0  0  0  0  0
  124.7220  129.9480   65.6550 C   0  0  0  0  0  0  0  0  0  0  0  0
  123.6380  130.7310   65.4410 O   0  0  0  0  0  0  0  0  0  0  0  0
  123.3790  130.7490   64.0690 N   0  0  0  0  0  0  0  0  0  0  0  0
  1  2  3  0
  2  3  1  0
  3  4  2  0
  4  5  1  0
  5  6  1  0
  5  7  1  0
  5  8  1  0
  4  9  1  0
  9 10  2  0
 10 11  1  0
 11 12  2  0
 12 13  1  0
 13 14  2  0
 14 15  1  0
 15 16  2  0
 10 17  1  0
 17 18  2  0
 18 19  1  0
 19 20  1  0
 20 21  1  0
 21 22  2  0
 21 23  1  0
 23 24  1  0
 24 25  1  0
 25 26  2  0
 26 27  1  0
 27 28  1  0
 18  3  1  0
 28 24  2  0
 16 11  1  0
M  END
>  <Binding energies>  (29) 
[-7.46]

>  <Ligand effiencies>  (29) 
[-0.25724137931034485]

>  <Interactions>  (29) 
["V-A:LEU:363:CA:3180, V-A:PRO:540:CA:4878, V-A:PRO:540:CB:4880, V-B:HIS:456:CE1:9037, V-B:ARG:545:CZ:9894, H-B:TYR:484:OH:9315, V-A:PRO:540:C:4876, V-A:TYR:539:CZ:4872, V-A:TYR:531:CE2:4788, V-A:ALA:541:CB:4887, V-A:ALA:541:CA:4885, V-A:TYR:539:CE2:4871, H-B:GLY:454:N:9017, V-A:PRO:540:N:4879, V-A:LEU:363:CD1:3184, V-B:ASP:366:CB:8179, H-B:ASP:366:OD2:8182, H-B:ASP:366:OD1:8181, V-B:ASP:366:CG:8180, V-B:LEU:475:CG:9224, V-B:LEU:475:CD2:9226, V-A:TYR:539:CD2:4869, H-A:TYR:539:OH:4873, V-A:TYR:539:C:4862, V-B:TRP:381:CH2:8339, V-B:TRP:381:CZ2:8337, V-B:LEU:475:CD1:9225, V-B:PRO:482:CG:9294, V-B:PRO:482:CB:9293"]

$$$$
3aj_Grossjean_2025
     RDKit          3D

 28 30  0  0  0  0  0  0  0  0999 V2000
  124.1140  133.7470   60.7910 N   0  0  0  0  0  0  0  0  0  0  0  0
  125.2010  133.4130   60.5770 C   0  0  0  0  0  0  0  0  0  0  0  0
  126.5790  132.9930   60.3070 C   0  0  0  0  0  0  0  0  0  0  0  0
  127.6750  133.7460   60.7950 C   0  0  0  0  0  0  0  0  0  0  0  0
  127.4960  135.0080   61.6610 C   0  0  0  0  0  0  0  0  0  0  0  0
  128.6150  135.7300   61.7600 F   0  0  0  0  0  0  0  0  0  0  0  0
  126.5550  135.7930   61.1360 F   0  0  0  0  0  0  0  0  0  0  0  0
  127.1330  134.6650   62.8980 F   0  0  0  0  0  0  0  0  0  0  0  0
  128.9740  133.3270   60.4690 C   0  0  0  0  0  0  0  0  0  0  0  0
  129.1740  132.1920   59.6760 C   0  0  0  0  0  0  0  0  0  0  0  0
  130.5380  131.7080   59.2900 C   0  0  0  0  0  0  0  0  0  0  0  0
  131.4200  131.2080   60.2600 C   0  0  0  0  0  0  0  0  0  0  0  0
  132.6890  130.7510   59.9080 C   0  0  0  0  0  0  0  0  0  0  0  0
  133.0910  130.7910   58.5760 C   0  0  0  0  0  0  0  0  0  0  0  0
  132.2340  131.2810   57.5970 C   0  0  0  0  0  0  0  0  0  0  0  0
  130.9680  131.7340   57.9530 C   0  0  0  0  0  0  0  0  0  0  0  0
  128.1200  131.4780   59.2040 N   0  0  0  0  0  0  0  0  0  0  0  0
  126.8570  131.8480   59.5250 C   0  0  0  0  0  0  0  0  0  0  0  0
  125.6090  130.7820   58.8380 S   0  0  0  0  0  0  0  0  0  0  0  0
  124.3000  130.5710   60.0930 C   0  0  0  0  0  0  0  0  0  0  0  0
  124.8030  130.4140   61.5350 C   0  0  0  0  0  0  0  0  0  0  0  0
  125.9950  130.5720   61.8090 O   0  0  0  0  0  0  0  0  0  0  0  0
  123.8450  130.1000   62.4350 N   0  0  0  0  0  0  0  0  0  0  0  0
  124.0210  129.9070   63.8000 C   0  0  0  0  0  0  0  0  0  0  0  0
  123.2790  130.3700   64.7820 N   0  0  0  0  0  0  0  0  0  0  0  0
  123.7360  129.9870   65.9580 C   0  0  0  0  0  0  0  0  0  0  0  0
  124.8800  129.1930   65.9440 C   0  0  0  0  0  0  0  0  0  0  0  0
  125.3740  128.9420   64.2970 S   0  0  0  0  0  0  0  0  0  0  0  0
  1  2  3  0
  2  3  1  0
  3  4  2  0
  4  5  1  0
  5  6  1  0
  5  7  1  0
  5  8  1  0
  4  9  1  0
  9 10  2  0
 10 11  1  0
 11 12  2  0
 12 13  1  0
 13 14  2  0
 14 15  1  0
 15 16  2  0
 10 17  1  0
 17 18  2  0
 18 19  1  0
 19 20  1  0
 20 21  1  0
 21 22  2  0
 21 23  1  0
 23 24  1  0
 24 25  2  0
 25 26  1  0
 26 27  2  0
 27 28  1  0
 18  3  1  0
 28 24  1  0
 16 11  1  0
M  END
>  <Binding energies>  (30) 
[-7.27]

>  <Ligand effiencies>  (30) 
[-0.25068965517241376]

>  <Interactions>  (30) 
["V-A:LEU:363:CA:3180, V-A:PRO:540:CA:4878, V-A:PRO:540:CB:4880, V-B:HIS:456:CE1:9037, V-B:ARG:545:CZ:9894, V-A:PRO:540:C:4876, V-A:TYR:539:CZ:4872, V-B:ARG:545:CD:9891, V-A:ALA:541:CB:4887, V-A:ALA:541:CA:4885, V-B:ARG:545:CG:9890, V-A:TYR:539:CE2:4871, H-B:GLY:454:N:9017, V-A:PRO:540:N:4879, V-A:LEU:363:CD1:3184, V-B:ASP:366:CB:8179, H-B:ASP:366:OD1:8181, V-B:ASP:366:CG:8180, V-B:LEU:475:CG:9224, V-B:LEU:475:CD2:9226, V-A:TYR:539:CD2:4869, H-B:ARG:545:NH1:9895, H-A:TYR:539:OH:4873, V-A:TYR:539:C:4862, V-B:TRP:381:CH2:8339, V-B:TRP:381:CZ2:8337, V-B:LEU:475:CD1:9225, V-B:PRO:482:CG:9294, V-B:PRO:482:CB:9293, V-B:TRP:381:CZ3:8338"]

$$$$
3ak_Grossjean_2025
     RDKit          3D

 33 34  0  0  0  0  0  0  0  0999 V2000
  124.3770  128.5250   74.5110 C   0  0  0  0  0  0  0  0  0  0  0  0
  125.7550  128.8640   74.4970 O   0  0  0  0  0  0  0  0  0  0  0  0
  126.1520  129.6670   75.5990 C   0  0  0  0  0  0  0  0  0  0  0  0
  127.6010  130.1220   75.3900 C   0  0  0  0  0  0  0  0  0  0  0  0
  128.2360  129.2380   74.4720 O   0  0  0  0  0  0  0  0  0  0  0  0
  128.5700  129.8030   73.2070 C   0  0  0  0  0  0  0  0  0  0  0  0
  130.0790  129.7830   72.8980 C   0  0  0  0  0  0  0  0  0  0  0  0
  130.4430  128.4910   72.4320 O   0  0  0  0  0  0  0  0  0  0  0  0
  130.3170  127.4680   73.4110 C   0  0  0  0  0  0  0  0  0  0  0  0
  129.7500  126.1880   72.7710 C   0  0  0  0  0  0  0  0  0  0  0  0
  129.3310  126.3650   71.3790 N   0  0  0  0  0  0  0  0  0  0  0  0
  128.2400  127.0350   70.9610 C   0  0  0  0  0  0  0  0  0  0  0  0
  127.4670  127.6000   71.7360 O   0  0  0  0  0  0  0  0  0  0  0  0
  127.9420  127.0980   69.4540 C   0  0  0  0  0  0  0  0  0  0  0  0
  129.0460  126.1290   68.3610 S   0  0  0  0  0  0  0  0  0  0  0  0
  128.8750  126.7370   66.6900 C   0  0  0  0  0  0  0  0  0  0  0  0
  127.7450  127.4420   66.4350 N   0  0  0  0  0  0  0  0  0  0  0  0
  127.5210  127.9390   65.1920 C   0  0  0  0  0  0  0  0  0  0  0  0
  126.2480  128.7070   64.9990 C   0  0  0  0  0  0  0  0  0  0  0  0
  125.8830  129.1850   63.7310 C   0  0  0  0  0  0  0  0  0  0  0  0
  124.6990  129.8950   63.5460 C   0  0  0  0  0  0  0  0  0  0  0  0
  123.8610  130.1350   64.6300 C   0  0  0  0  0  0  0  0  0  0  0  0
  124.1970  129.6690   65.8960 C   0  0  0  0  0  0  0  0  0  0  0  0
  125.3810  128.9590   66.0780 C   0  0  0  0  0  0  0  0  0  0  0  0
  128.4530  127.7490   64.1650 C   0  0  0  0  0  0  0  0  0  0  0  0
  129.6310  127.0260   64.4020 C   0  0  0  0  0  0  0  0  0  0  0  0
  130.6320  126.8360   63.2460 C   0  0  0  0  0  0  0  0  0  0  0  0
  130.5020  125.6150   62.7260 F   0  0  0  0  0  0  0  0  0  0  0  0
  130.4050  127.7390   62.2920 F   0  0  0  0  0  0  0  0  0  0  0  0
  131.9020  126.9740   63.6330 F   0  0  0  0  0  0  0  0  0  0  0  0
  129.8530  126.5010   65.6990 C   0  0  0  0  0  0  0  0  0  0  0  0
  131.0660  125.7360   66.0040 C   0  0  0  0  0  0  0  0  0  0  0  0
  132.0230  125.1310   66.2450 N   0  0  0  0  0  0  0  0  0  0  0  0
  1  2  1  0
  2  3  1  0
  3  4  1  0
  4  5  1  0
  5  6  1  0
  6  7  1  0
  7  8  1  0
  8  9  1  0
  9 10  1  0
 10 11  1  0
 11 12  1  0
 12 13  2  0
 12 14  1  0
 14 15  1  0
 15 16  1  0
 16 17  2  0
 17 18  1  0
 18 19  1  0
 19 20  2  0
 20 21  1  0
 21 22  2  0
 22 23  1  0
 23 24  2  0
 18 25  2  0
 25 26  1  0
 26 27  1  0
 27 28  1  0
 27 29  1  0
 27 30  1  0
 26 31  2  0
 31 32  1  0
 32 33  3  0
 31 16  1  0
 24 19  1  0
M  END
>  <Binding energies>  (31) 
[-6.07]

>  <Ligand effiencies>  (31) 
[-0.17852941176470588]

>  <Interactions>  (31) 
["H-A:TYR:484:OH:4343, V-A:ARG:545:CZ:4921, V-A:GLU:543:CD:4903, V-B:GLU:543:CG:9875, V-A:HIS:456:CE1:4064, V-B:HIS:456:CE1:9037, V-B:GLU:543:CD:9876, V-B:GLU:543:CB:9874, V-B:ARG:545:CZ:9894, V-B:ARG:545:CD:9891, V-B:ARG:545:CG:9890, V-B:GLU:543:C:9870, H-B:GLU:543:O:9871, H-A:HIS:456:ND1:4062, H-B:LYS:547:NZ:9919, V-B:HIS:456:CD2:9035, H-A:LYS:547:NZ:4946, H-A:HIS:456:NE2:4065, V-B:LYS:547:CE:9918, V-B:HIS:456:CB:9032, V-A:LYS:547:CE:4945, V-B:LYS:547:CD:9917, V-B:HIS:456:C:9028, V-B:LYS:547:CG:9916, V-B:HIS:456:CA:9030"]

$$$$
3bk_Grossjean_2025
     RDKit          3D

 30 31  0  0  0  0  0  0  0  0999 V2000
  131.3880  131.7000   61.3730 C   0  0  0  0  0  0  0  0  0  0  0  0
  130.3290  132.3630   62.0490 O   0  0  0  0  0  0  0  0  0  0  0  0
  129.3920  131.4730   62.6410 C   0  0  0  0  0  0  0  0  0  0  0  0
  129.0040  131.9870   64.0340 C   0  0  0  0  0  0  0  0  0  0  0  0
  127.6530  132.4250   64.0150 O   0  0  0  0  0  0  0  0  0  0  0  0
  127.4890  133.7630   63.5630 C   0  0  0  0  0  0  0  0  0  0  0  0
  127.0340  133.7500   62.0980 C   0  0  0  0  0  0  0  0  0  0  0  0
  126.1030  132.6940   61.9020 O   0  0  0  0  0  0  0  0  0  0  0  0
  124.7490  133.1250   61.8470 C   0  0  0  0  0  0  0  0  0  0  0  0
  123.9630  132.4870   63.0020 C   0  0  0  0  0  0  0  0  0  0  0  0
  124.7810  131.5620   63.7880 N   0  0  0  0  0  0  0  0  0  0  0  0
  124.3100  130.5970   64.5960 C   0  0  0  0  0  0  0  0  0  0  0  0
  123.1100  130.3640   64.7560 O   0  0  0  0  0  0  0  0  0  0  0  0
  125.3530  129.7430   65.3200 C   0  0  0  0  0  0  0  0  0  0  0  0
  126.8370  129.4700   64.2990 S   0  0  0  0  0  0  0  0  0  0  0  0
  127.9730  128.4230   65.1940 C   0  0  0  0  0  0  0  0  0  0  0  0
  127.8980  128.4870   66.5470 N   0  0  0  0  0  0  0  0  0  0  0  0
  128.7270  127.7270   67.3110 C   0  0  0  0  0  0  0  0  0  0  0  0
  128.5630  127.8410   68.7960 C   0  0  0  0  0  0  0  0  0  0  0  0
  129.4990  128.5480   69.5690 C   0  0  0  0  0  0  0  0  0  0  0  0
  129.3540  128.6520   70.9510 C   0  0  0  0  0  0  0  0  0  0  0  0
  128.2690  128.0520   71.5790 C   0  0  0  0  0  0  0  0  0  0  0  0
  127.3250  127.3500   70.8360 C   0  0  0  0  0  0  0  0  0  0  0  0
  127.4720  127.2480   69.4550 C   0  0  0  0  0  0  0  0  0  0  0  0
  129.6610  126.8680   66.7190 C   0  0  0  0  0  0  0  0  0  0  0  0
  129.7530  126.7910   65.3250 C   0  0  0  0  0  0  0  0  0  0  0  0
  130.7860  125.8420   64.7210 C   0  0  0  0  0  0  0  0  0  0  0  0
  128.8940  127.5820   64.5330 C   0  0  0  0  0  0  0  0  0  0  0  0
  128.9660  127.5210   63.0700 C   0  0  0  0  0  0  0  0  0  0  0  0
  129.0240  127.4730   61.9150 N   0  0  0  0  0  0  0  0  0  0  0  0
  1  2  1  0
  2  3  1  0
  3  4  1  0
  4  5  1  0
  5  6  1  0
  6  7  1  0
  7  8  1  0
  8  9  1  0
  9 10  1  0
 10 11  1  0
 11 12  1  0
 12 13  2  0
 12 14  1  0
 14 15  1  0
 15 16  1  0
 16 17  2  0
 17 18  1  0
 18 19  1  0
 19 20  2  0
 20 21  1  0
 21 22  2  0
 22 23  1  0
 23 24  2  0
 18 25  2  0
 25 26  1  0
 26 27  1  0
 26 28  2  0
 28 29  1  0
 29 30  3  0
 28 16  1  0
 24 19  1  0
M  END
>  <Binding energies>  (32) 
[-5.62]

>  <Ligand effiencies>  (32) 
[-0.18129032258064517]

>  <Interactions>  (32) 
["V-A:PRO:540:CA:4878, V-A:GLU:543:CD:4903, V-A:PRO:540:CB:4880, V-A:GLU:543:CG:4902, V-A:HIS:456:CE1:4064, V-B:HIS:456:CE1:9037, V-B:GLU:543:CD:9876, H-B:TYR:484:OH:9315, H-A:ALA:541:N:4886, V-A:ALA:541:CB:4887, H-B:GLY:454:N:9017, V-B:GLU:543:C:9870, V-B:HIS:456:CD2:9035, V-B:ILE:369:CD1:8206, V-B:LEU:475:CD2:9226, H-B:ARG:545:NH1:9895, V-B:GLY:454:CA:9016, V-B:GLY:544:C:9880, V-B:LEU:475:CD1:9225"]

$$$$
3cb_Grossjean_2025
     RDKit          3D

 30 32  0  0  0  0  0  0  0  0999 V2000
  127.0050  130.1160   74.1420 C   0  0  0  0  0  0  0  0  0  0  0  0
  127.3720  128.8820   73.5430 O   0  0  0  0  0  0  0  0  0  0  0  0
  128.6160  128.6970   73.0290 C   0  0  0  0  0  0  0  0  0  0  0  0
  129.6400  128.6800   73.7180 O   0  0  0  0  0  0  0  0  0  0  0  0
  128.6210  128.5160   71.5380 C   0  0  0  0  0  0  0  0  0  0  0  0
  129.4810  129.2460   70.7040 C   0  0  0  0  0  0  0  0  0  0  0  0
  129.4630  129.0520   69.3260 C   0  0  0  0  0  0  0  0  0  0  0  0
  128.5840  128.1330   68.7510 C   0  0  0  0  0  0  0  0  0  0  0  0
  128.6520  128.0150   67.3480 N   0  0  0  0  0  0  0  0  0  0  0  0
  127.7020  127.6510   66.4610 C   0  0  0  0  0  0  0  0  0  0  0  0
  126.5400  127.3610   66.7510 O   0  0  0  0  0  0  0  0  0  0  0  0
  128.1690  127.6370   64.9970 C   0  0  0  0  0  0  0  0  0  0  0  0
  128.9510  129.1830   64.4230 S   0  0  0  0  0  0  0  0  0  0  0  0
  127.6530  130.3180   63.9800 C   0  0  0  0  0  0  0  0  0  0  0  0
  126.4170  129.8900   64.3370 N   0  0  0  0  0  0  0  0  0  0  0  0
  125.3530  130.6720   64.0500 C   0  0  0  0  0  0  0  0  0  0  0  0
  124.0040  130.1370   64.4900 C   0  0  0  0  0  0  0  0  0  0  0  0
  125.4750  131.8960   63.3990 C   0  0  0  0  0  0  0  0  0  0  0  0
  126.7410  132.3510   63.0060 C   0  0  0  0  0  0  0  0  0  0  0  0
  126.8190  133.6690   62.3040 C   0  0  0  0  0  0  0  0  0  0  0  0
  125.8730  134.0030   61.3260 C   0  0  0  0  0  0  0  0  0  0  0  0
  125.9300  135.2320   60.6750 C   0  0  0  0  0  0  0  0  0  0  0  0
  126.9360  136.1370   61.0020 C   0  0  0  0  0  0  0  0  0  0  0  0
  127.8800  135.8250   61.9760 C   0  0  0  0  0  0  0  0  0  0  0  0
  127.8190  134.5960   62.6270 C   0  0  0  0  0  0  0  0  0  0  0  0
  127.8670  131.5350   63.2870 C   0  0  0  0  0  0  0  0  0  0  0  0
  129.2030  131.9170   62.8170 C   0  0  0  0  0  0  0  0  0  0  0  0
  130.2560  132.2180   62.4470 N   0  0  0  0  0  0  0  0  0  0  0  0
  127.7240  127.3960   69.5790 C   0  0  0  0  0  0  0  0  0  0  0  0
  127.7440  127.5900   70.9580 C   0  0  0  0  0  0  0  0  0  0  0  0
  1  2  1  0
  2  3  1  0
  3  4  2  0
  3  5  1  0
  5  6  2  0
  6  7  1  0
  7  8  2  0
  8  9  1  0
  9 10  1  0
 10 11  2  0
 10 12  1  0
 12 13  1  0
 13 14  1  0
 14 15  2  0
 15 16  1  0
 16 17  1  0
 16 18  2  0
 18 19  1  0
 19 20  1  0
 20 21  2  0
 21 22  1  0
 22 23  2  0
 23 24  1  0
 24 25  2  0
 19 26  2  0
 26 27  1  0
 27 28  3  0
  8 29  1  0
 29 30  2  0
 30  5  1  0
 26 14  1  0
 25 20  1  0
M  END
>  <Binding energies>  (33) 
[-8.13]

>  <Ligand effiencies>  (33) 
[-0.26225806451612904]

>  <Interactions>  (33) 
["V-A:GLU:543:CG:4902, V-A:GLU:543:CB:4901, V-B:HIS:456:CE1:9037, H-A:GLU:543:OE1:4904, V-B:GLU:543:CD:9876, V-A:GLU:543:C:4897, V-B:GLU:543:CB:9874, V-B:ARG:545:CZ:9894, H-B:TYR:484:OH:9315, H-A:ALA:541:N:4886, V-A:ALA:541:CB:4887, V-A:ALA:541:CA:4885, V-A:TYR:539:CE2:4871, H-B:LYS:547:NZ:9919, V-B:HIS:456:CD2:9035, H-A:LYS:547:NZ:4946, V-B:HIS:456:CG:9033, V-B:HIS:456:CB:9032, V-B:LEU:475:CD2:9226, V-A:TYR:539:CD2:4869, V-B:TRP:381:CH2:8339, V-B:TRP:381:CZ2:8337, V-B:LEU:475:CD1:9225, V-B:PRO:482:CG:9294, V-B:PRO:482:CB:9293, V-B:TRP:381:CZ3:8338"]

$$$$
3ch_Grossjean_2025
     RDKit          3D

 32 34  0  0  0  0  0  0  0  0999 V2000
  129.6280  131.2940   72.8620 C   0  0  0  0  0  0  0  0  0  0  0  0
  129.9810  129.9370   73.1080 O   0  0  0  0  0  0  0  0  0  0  0  0
  129.6540  128.9670   72.1770 C   0  0  0  0  0  0  0  0  0  0  0  0
  129.4800  129.2210   70.8070 C   0  0  0  0  0  0  0  0  0  0  0  0
  129.1570  128.1840   69.9190 C   0  0  0  0  0  0  0  0  0  0  0  0
  128.9690  128.3400   68.5320 N   0  0  0  0  0  0  0  0  0  0  0  0
  128.8920  129.4680   67.7930 C   0  0  0  0  0  0  0  0  0  0  0  0
  128.9910  130.6150   68.2290 O   0  0  0  0  0  0  0  0  0  0  0  0
  128.7060  129.2600   66.2910 C   0  0  0  0  0  0  0  0  0  0  0  0
  127.3350  128.1270   65.9180 S   0  0  0  0  0  0  0  0  0  0  0  0
  125.9820  129.1500   65.3800 C   0  0  0  0  0  0  0  0  0  0  0  0
  124.9650  129.2310   66.2730 N   0  0  0  0  0  0  0  0  0  0  0  0
  123.8840  129.9790   65.9560 C   0  0  0  0  0  0  0  0  0  0  0  0
  122.7820  130.0220   66.9960 C   0  0  0  0  0  0  0  0  0  0  0  0
  123.7750  130.6660   64.7490 C   0  0  0  0  0  0  0  0  0  0  0  0
  124.8190  130.6000   63.8160 C   0  0  0  0  0  0  0  0  0  0  0  0
  124.6530  131.3460   62.5300 C   0  0  0  0  0  0  0  0  0  0  0  0
  125.1740  132.6380   62.3940 C   0  0  0  0  0  0  0  0  0  0  0  0
  125.0160  133.3410   61.2030 C   0  0  0  0  0  0  0  0  0  0  0  0
  124.3310  132.7540   60.1420 C   0  0  0  0  0  0  0  0  0  0  0  0
  123.8010  131.4730   60.2630 C   0  0  0  0  0  0  0  0  0  0  0  0
  123.9600  130.7730   61.4570 C   0  0  0  0  0  0  0  0  0  0  0  0
  125.9680  129.8360   64.1430 C   0  0  0  0  0  0  0  0  0  0  0  0
  127.1280  129.8090   63.2470 C   0  0  0  0  0  0  0  0  0  0  0  0
  128.0430  129.7860   62.5390 N   0  0  0  0  0  0  0  0  0  0  0  0
  128.9890  126.8910   70.4170 C   0  0  0  0  0  0  0  0  0  0  0  0
  129.1550  126.6130   71.7820 C   0  0  0  0  0  0  0  0  0  0  0  0
  129.0110  125.3530   72.3380 O   0  0  0  0  0  0  0  0  0  0  0  0
  129.7550  124.2630   71.8040 C   0  0  0  0  0  0  0  0  0  0  0  0
  129.4850  127.6600   72.6520 C   0  0  0  0  0  0  0  0  0  0  0  0
  129.6680  127.3980   73.9890 O   0  0  0  0  0  0  0  0  0  0  0  0
  130.7910  126.5740   74.2700 C   0  0  0  0  0  0  0  0  0  0  0  0
  1  2  1  0
  2  3  1  0
  3  4  2  0
  4  5  1  0
  5  6  1  0
  6  7  1  0
  7  8  2  0
  7  9  1  0
  9 10  1  0
 10 11  1  0
 11 12  2  0
 12 13  1  0
 13 14  1  0
 13 15  2  0
 15 16  1  0
 16 17  1  0
 17 18  2  0
 18 19  1  0
 19 20  2  0
 20 21  1  0
 21 22  2  0
 16 23  2  0
 23 24  1  0
 24 25  3  0
  5 26  2  0
 26 27  1  0
 27 28  1  0
 28 29  1  0
 27 30  2  0
 30 31  1  0
 31 32  1  0
 30  3  1  0
 23 11  1  0
 22 17  1  0
M  END
>  <Binding energies>  (34) 
[-7.84]

>  <Ligand effiencies>  (34) 
[-0.23757575757575758]

>  <Interactions>  (34) 
["V-A:GLU:543:CD:4903, V-A:GLU:543:CG:4902, V-A:GLU:543:CB:4901, V-A:HIS:456:CE1:4064, V-B:HIS:456:CE1:9037, V-A:GLU:543:C:4897, V-B:ARG:545:CZ:9894, H-B:TYR:484:OH:9315, V-A:TYR:539:CZ:4872, V-B:ARG:545:CD:9891, V-B:ARG:545:CG:9890, V-A:TYR:539:CE2:4871, H-B:LYS:547:NZ:9919, V-B:HIS:456:CD2:9035, H-A:LYS:547:NZ:4946, H-B:ARG:545:NE:9892, V-A:LYS:547:CE:4945, V-B:ASP:366:CG:8180, V-B:ILE:369:CD1:8206, V-B:ILE:369:CG2:8204, V-B:LEU:475:CD2:9226, V-B:GLY:453:CA:9011, V-B:GLY:453:C:9009, V-B:GLY:454:CA:9016, V-B:ARG:545:CB:9889, V-B:ILE:455:C:9019"]

$$$$
3ci_Grossjean_2025
     RDKit          3D

 25 27  0  0  0  0  0  0  0  0999 V2000
  128.6060  131.2610   64.6160 C   0  0  0  0  0  0  0  0  0  0  0  0
  128.7850  131.6830   63.1690 C   0  0  0  0  0  0  0  0  0  0  0  0
  129.9350  131.3640   62.4520 C   0  0  0  0  0  0  0  0  0  0  0  0
  130.0480  131.7610   61.1120 C   0  0  0  0  0  0  0  0  0  0  0  0
  131.2920  131.3830   60.3780 C   0  0  0  0  0  0  0  0  0  0  0  0
  131.2320  130.9160   59.0580 C   0  0  0  0  0  0  0  0  0  0  0  0
  132.3940  130.5580   58.3810 C   0  0  0  0  0  0  0  0  0  0  0  0
  133.6240  130.6580   59.0240 C   0  0  0  0  0  0  0  0  0  0  0  0
  133.7010  131.1120   60.3380 C   0  0  0  0  0  0  0  0  0  0  0  0
  132.5370  131.4700   61.0120 C   0  0  0  0  0  0  0  0  0  0  0  0
  128.9790  132.4920   60.5340 C   0  0  0  0  0  0  0  0  0  0  0  0
  129.0580  132.9710   59.1500 C   0  0  0  0  0  0  0  0  0  0  0  0
  129.1230  133.3480   58.0570 N   0  0  0  0  0  0  0  0  0  0  0  0
  127.8430  132.7690   61.3330 C   0  0  0  0  0  0  0  0  0  0  0  0
  126.4300  133.6640   60.7000 S   0  0  0  0  0  0  0  0  0  0  0  0
  125.2260  132.4850   60.0060 C   0  0  0  0  0  0  0  0  0  0  0  0
  124.3620  131.8000   61.0710 C   0  0  0  0  0  0  0  0  0  0  0  0
  123.1970  131.5010   60.8010 O   0  0  0  0  0  0  0  0  0  0  0  0
  124.9600  131.5870   62.2640 N   0  0  0  0  0  0  0  0  0  0  0  0
  124.4150  130.9650   63.3790 C   0  0  0  0  0  0  0  0  0  0  0  0
  125.1910  130.4370   64.4100 C   0  0  0  0  0  0  0  0  0  0  0  0
  124.2860  129.9160   65.3080 C   0  0  0  0  0  0  0  0  0  0  0  0
  123.0320  130.1210   64.8400 O   0  0  0  0  0  0  0  0  0  0  0  0
  123.1260  130.7860   63.6170 N   0  0  0  0  0  0  0  0  0  0  0  0
  127.7580  132.3750   62.6290 N   0  0  0  0  0  0  0  0  0  0  0  0
  1  2  1  0
  2  3  2  0
  3  4  1  0
  4  5  1  0
  5  6  2  0
  6  7  1  0
  7  8  2  0
  8  9  1  0
  9 10  2  0
  4 11  2  0
 11 12  1  0
 12 13  3  0
 11 14  1  0
 14 15  1  0
 15 16  1  0
 16 17  1  0
 17 18  2  0
 17 19  1  0
 19 20  1  0
 20 21  1  0
 21 22  2  0
 22 23  1  0
 23 24  1  0
 14 25  2  0
 25  2  1  0
 10  5  1  0
 24 20  2  0
M  END
>  <Binding energies>  (35) 
[-7.3]

>  <Ligand effiencies>  (35) 
[-0.28076923076923077]

>  <Interactions>  (35) 
["V-A:LEU:363:CA:3180, V-A:ASN:362:CB:3171, V-A:ASN:362:C:3167, V-A:PRO:540:CA:4878, V-A:GLU:543:CD:4903, V-A:PRO:540:CB:4880, V-A:GLU:543:CG:4902, V-B:ARG:545:CZ:9894, V-A:TYR:539:CZ:4872, V-B:ARG:545:CD:9891, V-A:TYR:539:CE2:4871, H-B:GLY:454:N:9017, V-A:PRO:540:N:4879, H-B:ARG:545:NE:9892, V-B:ILE:369:CD1:8206, V-A:TYR:539:CD2:4869, H-B:ARG:545:NH1:9895, V-A:TYR:539:C:4862"]

$$$$
3ck_Grossjean_2025
     RDKit          3D

 30 31  0  0  0  0  0  0  0  0999 V2000
  134.6280  125.0570   66.2480 C   0  0  0  0  0  0  0  0  0  0  0  0
  134.0840  124.7500   64.9740 O   0  0  0  0  0  0  0  0  0  0  0  0
  133.0560  125.6430   64.5680 C   0  0  0  0  0  0  0  0  0  0  0  0
  131.6870  125.0390   64.9060 C   0  0  0  0  0  0  0  0  0  0  0  0
  131.5580  124.9270   66.3180 O   0  0  0  0  0  0  0  0  0  0  0  0
  130.3750  125.5190   66.8380 C   0  0  0  0  0  0  0  0  0  0  0  0
  130.6590  126.9870   67.1810 C   0  0  0  0  0  0  0  0  0  0  0  0
  129.5090  127.5280   67.8160 O   0  0  0  0  0  0  0  0  0  0  0  0
  129.6270  128.8880   68.2030 C   0  0  0  0  0  0  0  0  0  0  0  0
  128.5730  129.7300   67.4590 C   0  0  0  0  0  0  0  0  0  0  0  0
  128.2060  129.1890   66.1470 N   0  0  0  0  0  0  0  0  0  0  0  0
  127.1450  128.4030   65.8920 C   0  0  0  0  0  0  0  0  0  0  0  0
  126.3310  128.0650   66.7540 O   0  0  0  0  0  0  0  0  0  0  0  0
  126.9970  127.9440   64.4320 C   0  0  0  0  0  0  0  0  0  0  0  0
  128.5630  127.6350   63.5460 S   0  0  0  0  0  0  0  0  0  0  0  0
  129.1690  129.1760   62.8730 C   0  0  0  0  0  0  0  0  0  0  0  0
  128.6380  130.3010   63.4160 N   0  0  0  0  0  0  0  0  0  0  0  0
  129.0480  131.5020   62.9520 C   0  0  0  0  0  0  0  0  0  0  0  0
  128.4090  132.7130   63.6040 C   0  0  0  0  0  0  0  0  0  0  0  0
  129.9930  131.6320   61.9370 C   0  0  0  0  0  0  0  0  0  0  0  0
  130.5500  130.4850   61.3580 C   0  0  0  0  0  0  0  0  0  0  0  0
  131.5420  130.6720   60.2580 C   0  0  0  0  0  0  0  0  0  0  0  0
  131.1060  130.9580   58.9580 C   0  0  0  0  0  0  0  0  0  0  0  0
  132.0260  131.1240   57.9250 C   0  0  0  0  0  0  0  0  0  0  0  0
  133.3860  130.9990   58.1870 C   0  0  0  0  0  0  0  0  0  0  0  0
  133.8360  130.7060   59.4730 C   0  0  0  0  0  0  0  0  0  0  0  0
  132.9150  130.5410   60.5030 C   0  0  0  0  0  0  0  0  0  0  0  0
  130.1380  129.2170   61.8440 C   0  0  0  0  0  0  0  0  0  0  0  0
  130.7180  127.9820   61.3040 C   0  0  0  0  0  0  0  0  0  0  0  0
  131.1760  127.0080   60.8780 N   0  0  0  0  0  0  0  0  0  0  0  0
  1  2  1  0
  2  3  1  0
  3  4  1  0
  4  5  1  0
  5  6  1  0
  6  7  1  0
  7  8  1  0
  8  9  1  0
  9 10  1  0
 10 11  1  0
 11 12  1  0
 12 13  2  0
 12 14  1  0
 14 15  1  0
 15 16  1  0
 16 17  2  0
 17 18  1  0
 18 19  1  0
 18 20  2  0
 20 21  1  0
 21 22  1  0
 22 23  2  0
 23 24  1  0
 24 25  2  0
 25 26  1  0
 26 27  2  0
 21 28  2  0
 28 29  1  0
 29 30  3  0
 28 16  1  0
 27 22  1  0
M  END
>  <Binding energies>  (36) 
[-5.46]

>  <Ligand effiencies>  (36) 
[-0.1761290322580645]

>  <Interactions>  (36) 
["V-A:ARG:545:CD:4918, V-A:LEU:363:CA:3180, H-A:TYR:484:OH:4343, V-A:ARG:545:CZ:4921, V-A:ARG:545:CG:4917, V-A:ASN:362:C:3167, H-A:GLY:454:N:4045, V-A:GLU:543:CD:4903, V-A:PRO:540:CB:4880, V-A:GLU:543:CG:4902, V-A:GLU:543:CB:4901, V-A:HIS:456:CE1:4064, V-B:HIS:456:CE1:9037, H-A:GLU:543:OE1:4904, V-B:GLU:543:CD:9876, V-A:TYR:531:CE2:4788, V-A:ALA:541:CB:4887, V-A:LEU:363:CD1:3184, V-A:HIS:456:CD2:4063, V-A:GLY:453:C:4037, V-A:GLY:453:CA:4039, V-A:LEU:363:CB:3182, H-A:HIS:456:NE2:4065"]

$$$$
4aa_Grossjean_2025
     RDKit          3D

 26 28  0  0  0  0  0  0  0  0999 V2000
  124.8100  129.5470   75.3160 C   0  0  0  0  0  0  0  0  0  0  0  0
  126.1660  130.0640   74.8260 C   0  0  0  0  0  0  0  0  0  0  0  0
  126.8560  129.0170   74.1560 O   0  0  0  0  0  0  0  0  0  0  0  0
  128.0780  129.2250   73.6010 C   0  0  0  0  0  0  0  0  0  0  0  0
  128.9500  129.9310   74.1200 O   0  0  0  0  0  0  0  0  0  0  0  0
  128.2650  128.5140   72.2920 C   0  0  0  0  0  0  0  0  0  0  0  0
  129.5600  128.3420   71.7860 C   0  0  0  0  0  0  0  0  0  0  0  0
  129.7650  127.6920   70.5720 C   0  0  0  0  0  0  0  0  0  0  0  0
  128.6840  127.1930   69.8450 C   0  0  0  0  0  0  0  0  0  0  0  0
  129.0040  126.5620   68.6280 N   0  0  0  0  0  0  0  0  0  0  0  0
  129.6540  127.0410   67.5400 C   0  0  0  0  0  0  0  0  0  0  0  0
  130.0540  128.2000   67.4270 O   0  0  0  0  0  0  0  0  0  0  0  0
  129.8420  126.0800   66.4510 C   0  0  0  0  0  0  0  0  0  0  0  0
  130.0890  124.3680   66.8070 S   0  0  0  0  0  0  0  0  0  0  0  0
  130.2570  123.9910   65.1070 C   0  0  0  0  0  0  0  0  0  0  0  0
  130.4800  122.7480   64.6790 N   0  0  0  0  0  0  0  0  0  0  0  0
  130.5950  122.5930   63.3370 C   0  0  0  0  0  0  0  0  0  0  0  0
  130.8530  121.1710   62.8710 C   0  0  0  0  0  0  0  0  0  0  0  0
  130.4890  123.6390   62.4240 C   0  0  0  0  0  0  0  0  0  0  0  0
  130.2540  124.9420   62.8770 C   0  0  0  0  0  0  0  0  0  0  0  0
  130.1470  126.0520   61.8410 C   0  0  0  0  0  0  0  0  0  0  0  0
  130.1320  125.1460   64.2780 C   0  0  0  0  0  0  0  0  0  0  0  0
  129.9000  126.3240   65.0700 C   0  0  0  0  0  0  0  0  0  0  0  0
  129.7490  127.5660   64.5060 N   0  0  0  0  0  0  0  0  0  0  0  0
  127.3830  127.3660   70.3410 C   0  0  0  0  0  0  0  0  0  0  0  0
  127.1790  128.0200   71.5540 C   0  0  0  0  0  0  0  0  0  0  0  0
  1  2  1  0
  2  3  1  0
  3  4  1  0
  4  5  2  0
  4  6  1  0
  6  7  2  0
  7  8  1  0
  8  9  2  0
  9 10  1  0
 10 11  1  0
 11 12  2  0
 11 13  1  0
 13 14  1  0
 14 15  1  0
 15 16  2  0
 16 17  1  0
 17 18  1  0
 17 19  2  0
 19 20  1  0
 20 21  1  0
 20 22  2  0
 22 23  1  0
 23 24  1  0
  9 25  1  0
 25 26  2  0
 26  6  1  0
 23 13  2  0
 22 15  1  0
M  END
>  <Binding energies>  (37) 
[-6.7]

>  <Ligand effiencies>  (37) 
[-0.2310344827586207]

>  <Interactions>  (37) 
["H-A:TYR:484:OH:4343, H-A:GLU:543:OE2:4905, V-A:GLU:543:CD:4903, V-B:GLU:543:CG:9875, V-A:HIS:456:CE1:4064, V-B:HIS:456:CE1:9037, H-A:GLU:543:OE1:4904, V-B:GLU:543:CD:9876, V-B:GLU:543:CB:9874, H-B:GLU:543:OE2:9878, V-A:LEU:475:CD2:4254, V-A:TYR:484:CE1:4340, V-A:TYR:484:CZ:4342, V-A:LEU:475:CD1:4253, V-B:ALA:541:CB:9860, V-B:GLU:543:CA:9872, H-B:GLU:543:O:9871, H-B:LYS:547:NZ:9919, V-B:HIS:456:CD2:9035, H-A:LYS:547:NZ:4946, V-B:HIS:456:CG:9033, V-B:HIS:456:CB:9032, V-B:LYS:547:CD:9917, V-B:GLY:544:C:9880, V-B:VAL:458:CG2:9054, V-B:HIS:456:C:9028"]

$$$$
4ab_Grossjean_2025
     RDKit          3D

 25 27  0  0  0  0  0  0  0  0999 V2000
  129.7560  127.4860   71.8900 C   0  0  0  0  0  0  0  0  0  0  0  0
  128.6250  126.7120   71.5170 O   0  0  0  0  0  0  0  0  0  0  0  0
  127.8430  127.0770   70.4690 C   0  0  0  0  0  0  0  0  0  0  0  0
  126.7790  127.6920   70.5960 O   0  0  0  0  0  0  0  0  0  0  0  0
  128.3960  126.6520   69.1390 C   0  0  0  0  0  0  0  0  0  0  0  0
  129.3810  125.6550   69.0970 C   0  0  0  0  0  0  0  0  0  0  0  0
  129.9150  125.2410   67.8790 C   0  0  0  0  0  0  0  0  0  0  0  0
  129.4710  125.8040   66.6830 C   0  0  0  0  0  0  0  0  0  0  0  0
  130.0840  125.3160   65.5140 N   0  0  0  0  0  0  0  0  0  0  0  0
  131.3800  124.9980   65.2740 C   0  0  0  0  0  0  0  0  0  0  0  0
  132.2900  125.1360   66.0930 O   0  0  0  0  0  0  0  0  0  0  0  0
  131.6580  124.4840   63.9320 C   0  0  0  0  0  0  0  0  0  0  0  0
  133.1140  124.9870   63.0700 S   0  0  0  0  0  0  0  0  0  0  0  0
  132.6750  124.0320   61.6720 C   0  0  0  0  0  0  0  0  0  0  0  0
  133.4370  123.9870   60.5790 N   0  0  0  0  0  0  0  0  0  0  0  0
  132.9810  123.2120   59.5660 C   0  0  0  0  0  0  0  0  0  0  0  0
  133.8610  123.1780   58.3300 C   0  0  0  0  0  0  0  0  0  0  0  0
  131.7940  122.4850   59.6200 C   0  0  0  0  0  0  0  0  0  0  0  0
  130.9950  122.5350   60.7690 C   0  0  0  0  0  0  0  0  0  0  0  0
  129.7070  121.7250   60.7800 C   0  0  0  0  0  0  0  0  0  0  0  0
  131.4390  123.3410   61.8520 C   0  0  0  0  0  0  0  0  0  0  0  0
  130.8780  123.6210   63.1460 C   0  0  0  0  0  0  0  0  0  0  0  0
  129.6870  123.0800   63.5600 N   0  0  0  0  0  0  0  0  0  0  0  0
  128.4890  126.8060   66.7160 C   0  0  0  0  0  0  0  0  0  0  0  0
  127.9580  127.2220   67.9350 C   0  0  0  0  0  0  0  0  0  0  0  0
  1  2  1  0
  2  3  1  0
  3  4  2  0
  3  5  1  0
  5  6  2  0
  6  7  1  0
  7  8  2  0
  8  9  1  0
  9 10  1  0
 10 11  2  0
 10 12  1  0
 12 13  1  0
 13 14  1  0
 14 15  2  0
 15 16  1  0
 16 17  1  0
 16 18  2  0
 18 19  1  0
 19 20  1  0
 19 21  2  0
 21 22  1  0
 22 23  1  0
  8 24  1  0
 24 25  2  0
 25  5  1  0
 22 12  2  0
 21 14  1  0
M  END
>  <Binding energies>  (38) 
[-6.72]

>  <Ligand effiencies>  (38) 
[-0.24]

>  <Interactions>  (38) 
["H-A:TYR:484:OH:4343, V-A:ARG:545:CZ:4921, V-A:ASP:366:CG:3208, V-B:GLU:543:CG:9875, V-A:HIS:456:CE1:4064, V-B:HIS:456:CE1:9037, V-B:GLU:543:CD:9876, V-B:GLU:543:CB:9874, H-B:GLU:543:OE2:9878, V-B:TYR:539:CE2:9844, V-B:ALA:541:CB:9860, V-A:ASP:366:CB:3207, V-A:ILE:369:CD1:3234, V-B:GLU:543:C:9870, H-B:LYS:547:NZ:9919, H-A:HIS:456:NE2:4065, V-A:ILE:369:CG2:3232, H-B:HIS:456:ND1:9034, V-A:ILE:369:CB:3231, V-A:ASP:366:CA:3205, V-A:ILE:369:CG1:3233"]

$$$$
4ac_Grossjean_2025
     RDKit          3D

 23 25  0  0  0  0  0  0  0  0999 V2000
  122.6490  130.7260   62.4900 C   0  0  0  0  0  0  0  0  0  0  0  0
  123.0040  130.6210   63.8650 O   0  0  0  0  0  0  0  0  0  0  0  0
  124.2000  130.0210   64.2100 C   0  0  0  0  0  0  0  0  0  0  0  0
  124.9610  129.5040   63.1620 C   0  0  0  0  0  0  0  0  0  0  0  0
  126.1810  128.8820   63.4120 C   0  0  0  0  0  0  0  0  0  0  0  0
  126.6610  128.7770   64.7180 C   0  0  0  0  0  0  0  0  0  0  0  0
  127.8960  128.1210   64.8760 N   0  0  0  0  0  0  0  0  0  0  0  0
  128.2530  127.1690   65.7700 C   0  0  0  0  0  0  0  0  0  0  0  0
  127.5070  126.7380   66.6520 O   0  0  0  0  0  0  0  0  0  0  0  0
  129.6220  126.6640   65.6380 C   0  0  0  0  0  0  0  0  0  0  0  0
  130.6630  126.5260   67.0560 S   0  0  0  0  0  0  0  0  0  0  0  0
  131.9820  125.9100   66.0870 C   0  0  0  0  0  0  0  0  0  0  0  0
  133.1580  125.5820   66.6230 N   0  0  0  0  0  0  0  0  0  0  0  0
  134.0960  125.1180   65.7620 C   0  0  0  0  0  0  0  0  0  0  0  0
  135.4270  124.7500   66.3910 C   0  0  0  0  0  0  0  0  0  0  0  0
  133.8870  124.9770   64.3900 C   0  0  0  0  0  0  0  0  0  0  0  0
  132.6510  125.3220   63.8320 C   0  0  0  0  0  0  0  0  0  0  0  0
  132.4720  125.1500   62.3310 C   0  0  0  0  0  0  0  0  0  0  0  0
  131.6430  125.8110   64.7050 C   0  0  0  0  0  0  0  0  0  0  0  0
  130.2910  126.2460   64.4770 C   0  0  0  0  0  0  0  0  0  0  0  0
  129.7230  126.2450   63.2270 N   0  0  0  0  0  0  0  0  0  0  0  0
  125.8960  129.2830   65.7790 C   0  0  0  0  0  0  0  0  0  0  0  0
  124.6760  129.9050   65.5250 C   0  0  0  0  0  0  0  0  0  0  0  0
  1  2  1  0
  2  3  1  0
  3  4  2  0
  4  5  1  0
  5  6  2  0
  6  7  1  0
  7  8  1  0
  8  9  2  0
  8 10  1  0
 10 11  1  0
 11 12  1  0
 12 13  2  0
 13 14  1  0
 14 15  1  0
 14 16  2  0
 16 17  1  0
 17 18  1  0
 17 19  2  0
 19 20  1  0
 20 21  1  0
  6 22  1  0
 22 23  2  0
 23  3  1  0
 20 10  2  0
 19 12  1  0
M  END
>  <Binding energies>  (39) 
[-6.76]

>  <Ligand effiencies>  (39) 
[-0.26]

>  <Interactions>  (39) 
["V-A:ARG:545:CD:4918, H-A:TYR:484:OH:4343, V-A:ARG:545:CZ:4921, V-A:ARG:545:CG:4917, V-A:ASP:366:CG:3208, V-B:GLU:543:CG:9875, V-A:HIS:456:CE1:4064, V-B:HIS:456:CE1:9037, V-A:GLY:454:CA:4044, H-A:GLU:543:OE1:4904, V-B:GLU:543:CD:9876, V-B:GLU:543:CB:9874, H-B:GLU:543:OE2:9878, V-B:ARG:545:CZ:9894, H-B:GLY:454:N:9017, V-A:HIS:456:CD2:4063, V-A:GLY:453:C:4037, V-A:GLY:453:CA:4039, H-A:HIS:456:NE2:4065, H-A:ARG:545:NE:4919, V-B:ILE:369:CD1:8206, H-B:ARG:545:NH1:9895, V-B:GLY:453:CA:9011, V-B:GLY:453:C:9009, V-A:ILE:455:C:4047, V-A:GLY:454:C:4042"]

$$$$
4ad_Grossjean_2025
     RDKit          3D

 21 23  0  0  0  0  0  0  0  0999 V2000
  135.5100  125.1340   66.5490 C   0  0  0  0  0  0  0  0  0  0  0  0
  134.2540  125.1460   65.6970 C   0  0  0  0  0  0  0  0  0  0  0  0
  133.0220  125.5020   66.2410 C   0  0  0  0  0  0  0  0  0  0  0  0
  131.8760  125.5040   65.4370 C   0  0  0  0  0  0  0  0  0  0  0  0
  130.5530  125.8980   66.0760 C   0  0  0  0  0  0  0  0  0  0  0  0
  132.0230  125.1350   64.0720 C   0  0  0  0  0  0  0  0  0  0  0  0
  131.0830  125.0310   62.9890 C   0  0  0  0  0  0  0  0  0  0  0  0
  129.7490  125.3150   63.1480 N   0  0  0  0  0  0  0  0  0  0  0  0
  131.6540  124.6180   61.7750 C   0  0  0  0  0  0  0  0  0  0  0  0
  130.9940  124.3930   60.4870 C   0  0  0  0  0  0  0  0  0  0  0  0
  131.5410  124.7300   59.4350 O   0  0  0  0  0  0  0  0  0  0  0  0
  129.7800  123.7940   60.5530 N   0  0  0  0  0  0  0  0  0  0  0  0
  128.8800  123.4790   59.5170 C   0  0  0  0  0  0  0  0  0  0  0  0
  129.4370  122.8770   58.3840 C   0  0  0  0  0  0  0  0  0  0  0  0
  128.6270  122.5190   57.3100 C   0  0  0  0  0  0  0  0  0  0  0  0
  127.2560  122.7540   57.3710 C   0  0  0  0  0  0  0  0  0  0  0  0
  126.6870  123.3410   58.4990 C   0  0  0  0  0  0  0  0  0  0  0  0
  127.4940  123.7010   59.5740 C   0  0  0  0  0  0  0  0  0  0  0  0
  133.3890  124.3510   61.9470 S   0  0  0  0  0  0  0  0  0  0  0  0
  133.3380  124.7900   63.6380 C   0  0  0  0  0  0  0  0  0  0  0  0
  134.4320  124.7880   64.4030 N   0  0  0  0  0  0  0  0  0  0  0  0
  1  2  1  0
  2  3  2  0
  3  4  1  0
  4  5  1  0
  4  6  2  0
  6  7  1  0
  7  8  1  0
  7  9  2  0
  9 10  1  0
 10 11  2  0
 10 12  1  0
 12 13  1  0
 13 14  2  0
 14 15  1  0
 15 16  2  0
 16 17  1  0
 17 18  2  0
  9 19  1  0
 19 20  1  0
 20 21  2  0
 21  2  1  0
 20  6  1  0
 18 13  1  0
M  END
>  <Binding energies>  (40) 
[-6.48]

>  <Ligand effiencies>  (40) 
[-0.27]

>  <Interactions>  (40) 
["V-A:ARG:545:CD:4918, H-A:TYR:484:OH:4343, V-A:ARG:545:CZ:4921, V-A:ARG:545:CG:4917, H-A:GLY:454:N:4045, V-A:ASP:366:CG:3208, V-A:HIS:456:CE1:4064, V-B:GLU:543:CD:9876, H-B:GLU:543:OE2:9878, V-B:TYR:539:CD2:9842, V-B:TYR:539:CE2:9844, V-A:HIS:456:CD2:4063, V-A:GLY:453:C:4037, V-A:GLY:453:CA:4039, V-B:PRO:540:CB:9853, V-B:PRO:540:CA:9851, V-B:TYR:539:C:9835, H-A:ARG:545:NH1:4922, V-B:PRO:540:N:9852, V-B:TYR:539:CZ:9845, V-B:MET:535:CE:9803, V-A:ILE:455:C:4047, V-A:ARG:545:CB:4916, V-B:TYR:539:CE1:9843, V-B:TYR:539:CG:9840, V-B:TYR:539:CD1:9841"]

$$$$
4ae_Grossjean_2025
     RDKit          3D

 22 24  0  0  0  0  0  0  0  0999 V2000
  123.0420  130.0030   66.9900 C   0  0  0  0  0  0  0  0  0  0  0  0
  123.8280  129.6950   65.7300 C   0  0  0  0  0  0  0  0  0  0  0  0
  123.3230  129.9960   64.4620 C   0  0  0  0  0  0  0  0  0  0  0  0
  124.0990  129.6770   63.3470 C   0  0  0  0  0  0  0  0  0  0  0  0
  125.3450  129.0710   63.5240 C   0  0  0  0  0  0  0  0  0  0  0  0
  125.7940  128.8050   64.8220 C   0  0  0  0  0  0  0  0  0  0  0  0
  127.0460  128.1770   64.9350 N   0  0  0  0  0  0  0  0  0  0  0  0
  127.5140  127.3920   65.9380 C   0  0  0  0  0  0  0  0  0  0  0  0
  126.8680  127.1140   66.9490 O   0  0  0  0  0  0  0  0  0  0  0  0
  128.8730  126.8810   65.7520 C   0  0  0  0  0  0  0  0  0  0  0  0
  129.8470  126.4110   67.1460 S   0  0  0  0  0  0  0  0  0  0  0  0
  131.2030  126.0010   66.1220 C   0  0  0  0  0  0  0  0  0  0  0  0
  132.3530  125.5460   66.6210 N   0  0  0  0  0  0  0  0  0  0  0  0
  133.3260  125.2710   65.7200 C   0  0  0  0  0  0  0  0  0  0  0  0
  134.6280  124.7610   66.3110 C   0  0  0  0  0  0  0  0  0  0  0  0
  133.1780  125.4360   64.3440 C   0  0  0  0  0  0  0  0  0  0  0  0
  131.9690  125.9130   63.8230 C   0  0  0  0  0  0  0  0  0  0  0  0
  131.8570  126.0800   62.3150 C   0  0  0  0  0  0  0  0  0  0  0  0
  130.9250  126.2150   64.7390 C   0  0  0  0  0  0  0  0  0  0  0  0
  129.5890  126.7150   64.5550 C   0  0  0  0  0  0  0  0  0  0  0  0
  129.0770  127.0000   63.3140 N   0  0  0  0  0  0  0  0  0  0  0  0
  125.0370  129.1090   65.9180 N   0  0  0  0  0  0  0  0  0  0  0  0
  1  2  1  0
  2  3  2  0
  3  4  1  0
  4  5  2  0
  5  6  1  0
  6  7  1  0
  7  8  1  0
  8  9  2  0
  8 10  1  0
 10 11  1  0
 11 12  1  0
 12 13  2  0
 13 14  1  0
 14 15  1  0
 14 16  2  0
 16 17  1  0
 17 18  1  0
 17 19  2  0
 19 20  1  0
 20 21  1  0
  6 22  2  0
 22  2  1  0
 20 10  2  0
 19 12  1  0
M  END
>  <Binding energies>  (41) 
[-6.78]

>  <Ligand effiencies>  (41) 
[-0.2712]

>  <Interactions>  (41) 
["V-A:ARG:545:CD:4918, H-A:TYR:484:OH:4343, V-A:ARG:545:CZ:4921, V-A:ARG:545:CG:4917, H-A:GLU:543:OE2:4905, V-A:ASP:366:CG:3208, V-A:GLU:543:CD:4903, V-B:GLU:543:CG:9875, V-A:HIS:456:CE1:4064, V-B:HIS:456:CE1:9037, V-A:GLY:454:CA:4044, V-B:GLU:543:CD:9876, V-B:GLU:543:CB:9874, H-B:GLU:543:OE2:9878, V-B:ARG:545:CZ:9894, V-B:ARG:545:CD:9891, V-B:ARG:545:CG:9890, V-A:HIS:456:CD2:4063, V-A:GLY:453:C:4037, V-A:GLY:453:CA:4039, H-A:HIS:456:NE2:4065, H-B:ARG:545:NE:9892, V-B:GLY:453:CA:9011, V-B:GLY:453:C:9009, V-B:ARG:545:CB:9889, V-B:ILE:455:C:9019"]

$$$$
4af_Grossjean_2025
     RDKit          3D

 21 23  0  0  0  0  0  0  0  0999 V2000
  135.5120  125.1420   66.5180 C   0  0  0  0  0  0  0  0  0  0  0  0
  134.2560  125.1500   65.6650 C   0  0  0  0  0  0  0  0  0  0  0  0
  133.0230  125.5030   66.2080 C   0  0  0  0  0  0  0  0  0  0  0  0
  131.8770  125.5010   65.4030 C   0  0  0  0  0  0  0  0  0  0  0  0
  130.5540  125.8920   66.0410 C   0  0  0  0  0  0  0  0  0  0  0  0
  132.0260  125.1300   64.0390 C   0  0  0  0  0  0  0  0  0  0  0  0
  131.0850  125.0200   62.9560 C   0  0  0  0  0  0  0  0  0  0  0  0
  129.7500  125.2940   63.1160 N   0  0  0  0  0  0  0  0  0  0  0  0
  131.6590  124.6120   61.7420 C   0  0  0  0  0  0  0  0  0  0  0  0
  130.9980  124.3700   60.4580 C   0  0  0  0  0  0  0  0  0  0  0  0
  131.5440  124.6920   59.4020 O   0  0  0  0  0  0  0  0  0  0  0  0
  129.7870  123.7670   60.5340 N   0  0  0  0  0  0  0  0  0  0  0  0
  128.8830  123.4410   59.5050 C   0  0  0  0  0  0  0  0  0  0  0  0
  127.4900  123.6310   59.5530 C   0  0  0  0  0  0  0  0  0  0  0  0
  126.7030  123.2460   58.4660 C   0  0  0  0  0  0  0  0  0  0  0  0
  127.3270  122.6760   57.3560 C   0  0  0  0  0  0  0  0  0  0  0  0
  128.6670  122.4740   57.2880 N   0  0  0  0  0  0  0  0  0  0  0  0
  129.4190  122.8530   58.3530 C   0  0  0  0  0  0  0  0  0  0  0  0
  133.3960  124.3490   61.9150 S   0  0  0  0  0  0  0  0  0  0  0  0
  133.3430  124.7910   63.6060 C   0  0  0  0  0  0  0  0  0  0  0  0
  134.4360  124.7920   64.3700 N   0  0  0  0  0  0  0  0  0  0  0  0
  1  2  1  0
  2  3  2  0
  3  4  1  0
  4  5  1  0
  4  6  2  0
  6  7  1  0
  7  8  1  0
  7  9  2  0
  9 10  1  0
 10 11  2  0
 10 12  1  0
 12 13  1  0
 13 14  2  0
 14 15  1  0
 15 16  2  0
 16 17  1  0
 17 18  2  0
  9 19  1  0
 19 20  1  0
 20 21  2  0
 21  2  1  0
 20  6  1  0
 18 13  1  0
M  END
>  <Binding energies>  (42) 
[-6.2]

>  <Ligand effiencies>  (42) 
[-0.25833333333333336]

>  <Interactions>  (42) 
["V-A:ARG:545:CD:4918, H-A:TYR:484:OH:4343, V-A:ARG:545:CZ:4921, V-A:ARG:545:CG:4917, H-A:GLY:454:N:4045, V-A:ASP:366:CG:3208, V-A:HIS:456:CE1:4064, V-B:GLU:543:CD:9876, H-B:GLU:543:OE2:9878, V-B:TYR:539:CD2:9842, V-B:TYR:539:CE2:9844, V-A:HIS:456:CD2:4063, V-A:GLY:453:C:4037, V-A:GLY:453:CA:4039, V-B:PRO:540:CB:9853, V-B:PRO:540:CA:9851, V-B:TYR:539:C:9835, H-A:ARG:545:NH1:4922, V-B:PRO:540:N:9852, V-B:MET:535:CE:9803, V-A:ILE:455:C:4047, V-A:ARG:545:CB:4916"]

$$$$
4ag_Grossjean_2025
     RDKit          3D

 22 24  0  0  0  0  0  0  0  0999 V2000
  135.0790  125.1290   66.5100 C   0  0  0  0  0  0  0  0  0  0  0  0
  133.9310  125.0220   65.5230 C   0  0  0  0  0  0  0  0  0  0  0  0
  132.6620  125.4980   65.8450 C   0  0  0  0  0  0  0  0  0  0  0  0
  131.6180  125.3900   64.9190 C   0  0  0  0  0  0  0  0  0  0  0  0
  130.2500  125.9240   65.3160 C   0  0  0  0  0  0  0  0  0  0  0  0
  131.9040  124.7870   63.6650 C   0  0  0  0  0  0  0  0  0  0  0  0
  131.0900  124.5210   62.5090 C   0  0  0  0  0  0  0  0  0  0  0  0
  129.7610  124.8570   62.4550 N   0  0  0  0  0  0  0  0  0  0  0  0
  131.7780  123.8930   61.4610 C   0  0  0  0  0  0  0  0  0  0  0  0
  131.2680  123.4910   60.1510 C   0  0  0  0  0  0  0  0  0  0  0  0
  131.9520  123.6060   59.1320 O   0  0  0  0  0  0  0  0  0  0  0  0
  130.0070  123.0090   60.1270 N   0  0  0  0  0  0  0  0  0  0  0  0
  129.3070  122.5270   58.9370 C   0  0  0  0  0  0  0  0  0  0  0  0
  127.8680  123.0180   58.8230 C   0  0  0  0  0  0  0  0  0  0  0  0
  127.1880  122.9010   57.6080 C   0  0  0  0  0  0  0  0  0  0  0  0
  125.8650  123.3260   57.5080 C   0  0  0  0  0  0  0  0  0  0  0  0
  125.2240  123.8550   58.6260 C   0  0  0  0  0  0  0  0  0  0  0  0
  125.8910  123.9600   59.8440 C   0  0  0  0  0  0  0  0  0  0  0  0
  127.2130  123.5350   59.9450 C   0  0  0  0  0  0  0  0  0  0  0  0
  133.4700  123.6210   61.8790 S   0  0  0  0  0  0  0  0  0  0  0  0
  133.2440  124.3420   63.4570 C   0  0  0  0  0  0  0  0  0  0  0  0
  134.2410  124.4440   64.3370 N   0  0  0  0  0  0  0  0  0  0  0  0
  1  2  1  0
  2  3  2  0
  3  4  1  0
  4  5  1  0
  4  6  2  0
  6  7  1  0
  7  8  1  0
  7  9  2  0
  9 10  1  0
 10 11  2  0
 10 12  1  0
 12 13  1  0
 13 14  1  0
 14 15  2  0
 15 16  1  0
 16 17  2  0
 17 18  1  0
 18 19  2  0
  9 20  1  0
 20 21  1  0
 21 22  2  0
 22  2  1  0
 21  6  1  0
 19 14  1  0
M  END
>  <Binding energies>  (43) 
[-6.76]

>  <Ligand effiencies>  (43) 
[-0.2704]

>  <Interactions>  (43) 
["V-A:ARG:545:CD:4918, H-A:TYR:484:OH:4343, V-A:ARG:545:CZ:4921, V-A:ARG:545:CG:4917, H-A:GLY:454:N:4045, V-A:ASP:366:CG:3208, V-B:GLU:543:CD:9876, H-B:GLU:543:OE2:9878, V-B:TYR:539:CD2:9842, V-B:TYR:539:CE2:9844, V-A:ILE:369:CD1:3234, V-A:HIS:456:CD2:4063, V-A:GLY:453:C:4037, V-A:GLY:453:CA:4039, V-B:PRO:540:CB:9853, V-B:PRO:540:CA:9851, V-B:TYR:539:C:9835, V-B:PRO:540:N:9852, V-B:MET:535:CE:9803"]

$$$$
4ah_Grossjean_2025
     RDKit          3D

 28 30  0  0  0  0  0  0  0  0999 V2000
  129.9810  124.2590   71.4940 C   0  0  0  0  0  0  0  0  0  0  0  0
  128.9720  125.2190   71.7880 O   0  0  0  0  0  0  0  0  0  0  0  0
  129.1870  126.5490   71.4700 C   0  0  0  0  0  0  0  0  0  0  0  0
  129.0310  127.0800   70.1800 C   0  0  0  0  0  0  0  0  0  0  0  0
  129.2660  128.4330   69.9320 C   0  0  0  0  0  0  0  0  0  0  0  0
  129.0460  129.0030   68.5350 C   0  0  0  0  0  0  0  0  0  0  0  0
  129.7420  128.2600   67.4840 N   0  0  0  0  0  0  0  0  0  0  0  0
  129.3540  127.0690   66.9810 C   0  0  0  0  0  0  0  0  0  0  0  0
  128.3680  126.4610   67.3990 O   0  0  0  0  0  0  0  0  0  0  0  0
  130.2020  126.5120   65.9270 C   0  0  0  0  0  0  0  0  0  0  0  0
  131.7580  125.7860   66.3340 S   0  0  0  0  0  0  0  0  0  0  0  0
  132.0930  125.4550   64.6490 C   0  0  0  0  0  0  0  0  0  0  0  0
  133.2180  124.8570   64.2570 N   0  0  0  0  0  0  0  0  0  0  0  0
  133.3540  124.6570   62.9240 C   0  0  0  0  0  0  0  0  0  0  0  0
  134.6430  123.9780   62.5000 C   0  0  0  0  0  0  0  0  0  0  0  0
  132.4000  125.0370   61.9830 C   0  0  0  0  0  0  0  0  0  0  0  0
  131.2210  125.6680   62.3950 C   0  0  0  0  0  0  0  0  0  0  0  0
  130.2100  126.0650   61.3310 C   0  0  0  0  0  0  0  0  0  0  0  0
  131.0430  125.8960   63.7870 C   0  0  0  0  0  0  0  0  0  0  0  0
  129.9820  126.5060   64.5420 C   0  0  0  0  0  0  0  0  0  0  0  0
  128.8600  127.0220   63.9460 N   0  0  0  0  0  0  0  0  0  0  0  0
  129.6340  129.2720   70.9850 C   0  0  0  0  0  0  0  0  0  0  0  0
  129.8030  128.7670   72.2830 C   0  0  0  0  0  0  0  0  0  0  0  0
  130.1800  129.5380   73.3680 O   0  0  0  0  0  0  0  0  0  0  0  0
  130.1140  130.9570   73.2730 C   0  0  0  0  0  0  0  0  0  0  0  0
  129.5820  127.4020   72.5110 C   0  0  0  0  0  0  0  0  0  0  0  0
  129.7260  126.8960   73.7810 O   0  0  0  0  0  0  0  0  0  0  0  0
  130.9920  126.3000   74.0270 C   0  0  0  0  0  0  0  0  0  0  0  0
  1  2  1  0
  2  3  1  0
  3  4  2  0
  4  5  1  0
  5  6  1  0
  6  7  1  0
  7  8  1  0
  8  9  2  0
  8 10  1  0
 10 11  1  0
 11 12  1  0
 12 13  2  0
 13 14  1  0
 14 15  1  0
 14 16  2  0
 16 17  1  0
 17 18  1  0
 17 19  2  0
 19 20  1  0
 20 21  1  0
  5 22  2  0
 22 23  1  0
 23 24  1  0
 24 25  1  0
 23 26  2  0
 26 27  1  0
 27 28  1  0
 26  3  1  0
 20 10  2  0
 19 12  1  0
M  END
>  <Binding energies>  (44) 
[-6.71]

>  <Ligand effiencies>  (44) 
[-0.21645161290322582]

>  <Interactions>  (44) 
["H-A:TYR:484:OH:4343, V-A:ASP:366:CG:3208, V-A:GLU:543:CD:4903, V-A:GLU:543:CG:4902, V-A:GLU:543:CB:4901, V-A:HIS:456:CE1:4064, V-A:GLY:544:CA:4909, V-B:HIS:456:CE1:9037, V-A:GLY:454:CA:4044, H-A:GLU:543:OE1:4904, V-B:GLU:543:CD:9876, V-A:GLU:543:C:4897, H-B:GLU:543:OE2:9878, H-B:GLU:543:OE1:9877, V-A:ILE:369:CD1:3234, V-A:GLY:453:C:4037, V-A:GLY:453:CA:4039, H-B:LYS:547:NZ:9919, V-B:HIS:456:CD2:9035, H-A:LYS:547:NZ:4946, V-A:LYS:547:CE:4945"]

$$$$
4ai_Grossjean_2025
     RDKit          3D

 20 22  0  0  0  0  0  0  0  0999 V2000
  123.8780  129.7110   66.2580 C   0  0  0  0  0  0  0  0  0  0  0  0
  125.1120  129.0260   65.6980 C   0  0  0  0  0  0  0  0  0  0  0  0
  125.3380  128.9670   64.3240 C   0  0  0  0  0  0  0  0  0  0  0  0
  126.4860  128.3360   63.8300 C   0  0  0  0  0  0  0  0  0  0  0  0
  126.6890  128.2990   62.3240 C   0  0  0  0  0  0  0  0  0  0  0  0
  127.3890  127.7720   64.7720 C   0  0  0  0  0  0  0  0  0  0  0  0
  128.6340  127.0680   64.6180 C   0  0  0  0  0  0  0  0  0  0  0  0
  129.1820  126.8100   63.3870 N   0  0  0  0  0  0  0  0  0  0  0  0
  129.2260  126.6840   65.8320 C   0  0  0  0  0  0  0  0  0  0  0  0
  130.4760  125.9520   66.0440 C   0  0  0  0  0  0  0  0  0  0  0  0
  130.5650  125.1050   66.9350 O   0  0  0  0  0  0  0  0  0  0  0  0
  131.4840  126.2640   65.1920 N   0  0  0  0  0  0  0  0  0  0  0  0
  132.7620  125.7210   65.1610 C   0  0  0  0  0  0  0  0  0  0  0  0
  133.6040  125.6910   66.2730 C   0  0  0  0  0  0  0  0  0  0  0  0
  134.7580  125.0850   65.8310 C   0  0  0  0  0  0  0  0  0  0  0  0
  134.6180  124.7650   64.5230 O   0  0  0  0  0  0  0  0  0  0  0  0
  133.3480  125.1720   64.1090 N   0  0  0  0  0  0  0  0  0  0  0  0
  128.2300  127.1680   67.2070 S   0  0  0  0  0  0  0  0  0  0  0  0
  127.0420  127.8990   66.1500 C   0  0  0  0  0  0  0  0  0  0  0  0
  125.9490  128.4980   66.6240 N   0  0  0  0  0  0  0  0  0  0  0  0
  1  2  1  0
  2  3  2  0
  3  4  1  0
  4  5  1  0
  4  6  2  0
  6  7  1  0
  7  8  1  0
  7  9  2  0
  9 10  1  0
 10 11  2  0
 10 12  1  0
 12 13  1  0
 13 14  1  0
 14 15  2  0
 15 16  1  0
 16 17  1  0
  9 18  1  0
 18 19  1  0
 19 20  2  0
 20  2  1  0
 19  6  1  0
 17 13  2  0
M  END
>  <Binding energies>  (45) 
[-6.21]

>  <Ligand effiencies>  (45) 
[-0.27]

>  <Interactions>  (45) 
["V-A:ARG:545:CD:4918, H-A:TYR:484:OH:4343, V-A:ARG:545:CZ:4921, V-A:ARG:545:CG:4917, H-A:GLU:543:OE2:4905, H-A:GLY:454:N:4045, V-A:GLU:543:CD:4903, V-B:GLU:543:CG:9875, V-A:HIS:456:CE1:4064, V-B:HIS:456:CE1:9037, V-A:GLY:454:CA:4044, H-A:GLU:543:OE1:4904, V-B:GLU:543:CD:9876, V-B:GLU:543:CB:9874, H-B:GLU:543:OE2:9878, V-B:ARG:545:CZ:9894, V-B:ARG:545:CD:9891, V-B:ARG:545:CG:9890, V-A:HIS:456:CD2:4063, V-A:GLY:453:C:4037, V-A:GLY:453:CA:4039, H-A:HIS:456:NE2:4065, H-A:ARG:545:NH1:4922, H-A:ARG:545:NH2:4923"]

$$$$
4aj_Grossjean_2025
     RDKit          3D

 20 22  0  0  0  0  0  0  0  0999 V2000
  128.7190  127.8320   70.5290 C   0  0  0  0  0  0  0  0  0  0  0  0
  128.9340  127.4780   69.0690 C   0  0  0  0  0  0  0  0  0  0  0  0
  128.6860  128.4080   68.0620 C   0  0  0  0  0  0  0  0  0  0  0  0
  128.8850  128.0590   66.7210 C   0  0  0  0  0  0  0  0  0  0  0  0
  128.6000  129.1090   65.6590 C   0  0  0  0  0  0  0  0  0  0  0  0
  129.3430  126.7440   66.4400 C   0  0  0  0  0  0  0  0  0  0  0  0
  129.6450  126.0650   65.2080 C   0  0  0  0  0  0  0  0  0  0  0  0
  129.5120  126.6730   63.9860 N   0  0  0  0  0  0  0  0  0  0  0  0
  130.0880  124.7440   65.3790 C   0  0  0  0  0  0  0  0  0  0  0  0
  130.4670  123.7710   64.3520 C   0  0  0  0  0  0  0  0  0  0  0  0
  131.5800  123.2400   64.3690 O   0  0  0  0  0  0  0  0  0  0  0  0
  129.5170  123.5040   63.4240 N   0  0  0  0  0  0  0  0  0  0  0  0
  129.6170  122.6180   62.3590 C   0  0  0  0  0  0  0  0  0  0  0  0
  129.1210  122.7520   61.1480 N   0  0  0  0  0  0  0  0  0  0  0  0
  129.4130  121.7160   60.3870 C   0  0  0  0  0  0  0  0  0  0  0  0
  130.1640  120.7060   60.9840 C   0  0  0  0  0  0  0  0  0  0  0  0
  130.5000  121.1510   62.6300 S   0  0  0  0  0  0  0  0  0  0  0  0
  130.1250  124.3000   67.0860 S   0  0  0  0  0  0  0  0  0  0  0  0
  129.5630  125.8870   67.5610 C   0  0  0  0  0  0  0  0  0  0  0  0
  129.3730  126.2160   68.8390 N   0  0  0  0  0  0  0  0  0  0  0  0
  1  2  1  0
  2  3  2  0
  3  4  1  0
  4  5  1  0
  4  6  2  0
  6  7  1  0
  7  8  1  0
  7  9  2  0
  9 10  1  0
 10 11  2  0
 10 12  1  0
 12 13  1  0
 13 14  2  0
 14 15  1  0
 15 16  2  0
 16 17  1  0
  9 18  1  0
 18 19  1  0
 19 20  2  0
 20  2  1  0
 19  6  1  0
 17 13  1  0
M  END
>  <Binding energies>  (46) 
[-5.87]

>  <Ligand effiencies>  (46) 
[-0.25521739130434784]

>  <Interactions>  (46) 
["H-A:TYR:484:OH:4343, H-A:GLU:543:OE2:4905, V-A:GLU:543:CD:4903, V-A:GLU:543:CG:4902, V-B:GLU:543:CG:9875, V-A:HIS:456:CE1:4064, V-B:HIS:456:CE1:9037, H-A:GLU:543:OE1:4904, V-B:GLU:543:CD:9876, V-B:GLU:543:CB:9874, H-B:GLU:543:OE2:9878, V-A:LEU:475:CD2:4254, H-B:GLU:543:OE1:9877, V-A:TYR:484:CE1:4340, V-A:TYR:484:CZ:4342, V-A:LEU:475:CD1:4253, V-B:ALA:541:CB:9860, V-B:GLU:543:CA:9872, H-A:HIS:456:NE2:4065"]

$$$$
4ak_Grossjean_2025
     RDKit          3D

 25 26  0  0  0  0  0  0  0  0999 V2000
  129.7490  122.5380   64.3780 C   0  0  0  0  0  0  0  0  0  0  0  0
  131.1680  122.5870   64.3660 O   0  0  0  0  0  0  0  0  0  0  0  0
  131.7010  123.2850   63.2480 C   0  0  0  0  0  0  0  0  0  0  0  0
  133.2160  123.0570   63.1780 C   0  0  0  0  0  0  0  0  0  0  0  0
  133.8800  124.0590   63.9360 O   0  0  0  0  0  0  0  0  0  0  0  0
  133.1030  125.2320   64.1410 C   0  0  0  0  0  0  0  0  0  0  0  0
  133.4320  125.8240   65.5170 C   0  0  0  0  0  0  0  0  0  0  0  0
  132.6130  125.2070   66.5010 O   0  0  0  0  0  0  0  0  0  0  0  0
  131.2210  125.2790   66.2180 C   0  0  0  0  0  0  0  0  0  0  0  0
  130.5540  126.2670   67.1930 C   0  0  0  0  0  0  0  0  0  0  0  0
  129.6900  127.2460   66.5350 N   0  0  0  0  0  0  0  0  0  0  0  0
  128.3700  127.4000   66.7640 C   0  0  0  0  0  0  0  0  0  0  0  0
  127.7590  126.7210   67.5910 O   0  0  0  0  0  0  0  0  0  0  0  0
  127.6970  128.4320   65.9770 C   0  0  0  0  0  0  0  0  0  0  0  0
  128.6270  129.4940   64.9200 S   0  0  0  0  0  0  0  0  0  0  0  0
  127.1780  130.3270   64.4050 C   0  0  0  0  0  0  0  0  0  0  0  0
  127.2160  131.3340   63.5320 N   0  0  0  0  0  0  0  0  0  0  0  0
  126.0220  131.8950   63.2190 C   0  0  0  0  0  0  0  0  0  0  0  0
  126.0860  133.0390   62.2230 C   0  0  0  0  0  0  0  0  0  0  0  0
  124.8050  131.4760   63.7520 C   0  0  0  0  0  0  0  0  0  0  0  0
  124.7690  130.4180   64.6680 C   0  0  0  0  0  0  0  0  0  0  0  0
  123.4170  129.9990   65.2250 C   0  0  0  0  0  0  0  0  0  0  0  0
  126.0010  129.8060   65.0210 C   0  0  0  0  0  0  0  0  0  0  0  0
  126.3250  128.7220   65.9090 C   0  0  0  0  0  0  0  0  0  0  0  0
  125.3670  128.0440   66.6200 N   0  0  0  0  0  0  0  0  0  0  0  0
  1  2  1  0
  2  3  1  0
  3  4  1  0
  4  5  1  0
  5  6  1  0
  6  7  1  0
  7  8  1  0
  8  9  1  0
  9 10  1  0
 10 11  1  0
 11 12  1  0
 12 13  2  0
 12 14  1  0
 14 15  1  0
 15 16  1  0
 16 17  2  0
 17 18  1  0
 18 19  1  0
 18 20  2  0
 20 21  1  0
 21 22  1  0
 21 23  2  0
 23 24  1  0
 24 25  1  0
 24 14  2  0
 23 16  1  0
M  END
>  <Binding energies>  (47) 
[-5.0]

>  <Ligand effiencies>  (47) 
[-0.17857142857142858]

>  <Interactions>  (47) 
["V-A:ARG:545:CD:4918, H-A:TYR:484:OH:4343, V-A:ARG:545:CZ:4921, V-A:ARG:545:CG:4917, H-A:GLU:543:OE2:4905, H-A:GLY:454:N:4045, V-A:GLU:543:CD:4903, V-A:GLU:543:CG:4902, V-B:GLU:543:CG:9875, V-A:HIS:456:CE1:4064, V-B:HIS:456:CE1:9037, V-A:GLY:454:CA:4044, H-A:GLU:543:OE1:4904, V-B:GLU:543:CD:9876, V-B:GLU:543:CB:9874, H-B:GLU:543:OE1:9877, V-A:TYR:484:CE1:4340, V-B:ALA:541:CB:9860, V-B:ARG:545:CZ:9894, H-B:TYR:484:OH:9315, V-B:ARG:545:CD:9891, V-B:ARG:545:CG:9890, H-A:HIS:456:NE2:4065, V-B:LEU:475:CD2:9226, V-B:GLY:453:CA:9011, V-B:GLY:453:C:9009"]

$$$$
4al_Grossjean_2025
     RDKit          3D

 16 17  0  0  0  0  0  0  0  0999 V2000
  134.2550  125.1220   65.7570 C   0  0  0  0  0  0  0  0  0  0  0  0
  133.9180  124.7140   64.4400 O   0  0  0  0  0  0  0  0  0  0  0  0
  132.7640  125.1290   63.8560 C   0  0  0  0  0  0  0  0  0  0  0  0
  132.3630  126.2950   63.8730 O   0  0  0  0  0  0  0  0  0  0  0  0
  132.0290  124.0320   63.1890 C   0  0  0  0  0  0  0  0  0  0  0  0
  132.8120  122.4700   62.9410 S   0  0  0  0  0  0  0  0  0  0  0  0
  131.3800  121.8290   62.1670 C   0  0  0  0  0  0  0  0  0  0  0  0
  131.3270  120.5790   61.7080 N   0  0  0  0  0  0  0  0  0  0  0  0
  130.1580  120.2060   61.1290 C   0  0  0  0  0  0  0  0  0  0  0  0
  130.1190  118.7790   60.6130 C   0  0  0  0  0  0  0  0  0  0  0  0
  129.0550  121.0460   61.0000 C   0  0  0  0  0  0  0  0  0  0  0  0
  129.1130  122.3580   61.4830 C   0  0  0  0  0  0  0  0  0  0  0  0
  127.8840  123.2370   61.3210 C   0  0  0  0  0  0  0  0  0  0  0  0
  130.3230  122.7840   62.0970 C   0  0  0  0  0  0  0  0  0  0  0  0
  130.7220  124.0310   62.6870 C   0  0  0  0  0  0  0  0  0  0  0  0
  129.8890  125.1190   62.7500 N   0  0  0  0  0  0  0  0  0  0  0  0
  1  2  1  0
  2  3  1  0
  3  4  2  0
  3  5  1  0
  5  6  1  0
  6  7  1  0
  7  8  2  0
  8  9  1  0
  9 10  1  0
  9 11  2  0
 11 12  1  0
 12 13  1  0
 12 14  2  0
 14 15  1  0
 15 16  1  0
 15  5  2  0
 14  7  1  0
M  END
>  <Binding energies>  (48) 
[-4.9]

>  <Ligand effiencies>  (48) 
[-0.27222222222222225]

>  <Interactions>  (48) 
["V-A:ARG:545:CD:4918, H-A:TYR:484:OH:4343, V-A:ARG:545:CZ:4921, V-A:ARG:545:CG:4917, H-A:GLY:454:N:4045, V-A:GLY:454:CA:4044, V-B:GLU:543:CD:9876, V-A:PRO:482:CB:4321, H-B:GLU:543:OE2:9878, V-A:LEU:475:CD2:4254, V-B:TYR:539:CD2:9842, V-A:TRP:381:CZ3:3366, V-A:TRP:381:CZ2:3365, V-A:TRP:381:CH2:3367, V-B:ALA:541:CB:9860, V-A:GLY:453:CA:4039, H-A:ARG:545:NE:4919, V-B:PRO:540:CA:9851, V-B:PRO:540:C:9849, V-B:ALA:541:CA:9858, V-B:TYR:539:C:9835, H-A:ARG:545:NH2:4923"]

$$$$
4bc_Grossjean_2025
     RDKit          3D

 26 28  0  0  0  0  0  0  0  0999 V2000
  122.5940  130.7310   62.4730 C   0  0  0  0  0  0  0  0  0  0  0  0
  122.9820  130.6910   63.8430 O   0  0  0  0  0  0  0  0  0  0  0  0
  124.1590  130.0570   64.1910 C   0  0  0  0  0  0  0  0  0  0  0  0
  125.0500  129.7860   63.1540 C   0  0  0  0  0  0  0  0  0  0  0  0
  126.2620  129.1490   63.4080 C   0  0  0  0  0  0  0  0  0  0  0  0
  126.6030  128.7820   64.7110 C   0  0  0  0  0  0  0  0  0  0  0  0
  127.8400  128.1300   64.8690 N   0  0  0  0  0  0  0  0  0  0  0  0
  128.2280  127.2460   65.8210 C   0  0  0  0  0  0  0  0  0  0  0  0
  127.5160  126.8930   66.7610 O   0  0  0  0  0  0  0  0  0  0  0  0
  129.5880  126.7190   65.6730 C   0  0  0  0  0  0  0  0  0  0  0  0
  130.6570  126.6190   67.0710 S   0  0  0  0  0  0  0  0  0  0  0  0
  131.9440  125.9510   66.0960 C   0  0  0  0  0  0  0  0  0  0  0  0
  133.1240  125.6290   66.6280 N   0  0  0  0  0  0  0  0  0  0  0  0
  134.0420  125.1220   65.7740 C   0  0  0  0  0  0  0  0  0  0  0  0
  135.3750  124.7580   66.4000 C   0  0  0  0  0  0  0  0  0  0  0  0
  133.8110  124.9310   64.4130 C   0  0  0  0  0  0  0  0  0  0  0  0
  132.5720  125.2680   63.8480 C   0  0  0  0  0  0  0  0  0  0  0  0
  132.3670  125.0410   62.3460 C   0  0  0  0  0  0  0  0  0  0  0  0
  131.9600  126.1380   61.7040 F   0  0  0  0  0  0  0  0  0  0  0  0
  133.5140  124.6540   61.7890 F   0  0  0  0  0  0  0  0  0  0  0  0
  131.4430  124.1000   62.1520 F   0  0  0  0  0  0  0  0  0  0  0  0
  131.5800  125.8040   64.7220 C   0  0  0  0  0  0  0  0  0  0  0  0
  130.2240  126.2500   64.5130 C   0  0  0  0  0  0  0  0  0  0  0  0
  129.6150  126.2160   63.2840 N   0  0  0  0  0  0  0  0  0  0  0  0
  125.7060  129.0390   65.7580 C   0  0  0  0  0  0  0  0  0  0  0  0
  124.4950  129.6750   65.5000 C   0  0  0  0  0  0  0  0  0  0  0  0
  1  2  1  0
  2  3  1  0
  3  4  2  0
  4  5  1  0
  5  6  2  0
  6  7  1  0
  7  8  1  0
  8  9  2  0
  8 10  1  0
 10 11  1  0
 11 12  1  0
 12 13  2  0
 13 14  1  0
 14 15  1  0
 14 16  2  0
 16 17  1  0
 17 18  1  0
 18 19  1  0
 18 20  1  0
 18 21  1  0
 17 22  2  0
 22 23  1  0
 23 24  1  0
  6 25  1  0
 25 26  2  0
 26  3  1  0
 23 10  2  0
 22 12  1  0
M  END
>  <Binding energies>  (49) 
[-6.32]

>  <Ligand effiencies>  (49) 
[-0.21793103448275863]

>  <Interactions>  (49) 
["V-A:ARG:545:CD:4918, H-A:TYR:484:OH:4343, V-A:ARG:545:CZ:4921, V-A:ARG:545:CG:4917, V-A:ASP:366:CG:3208, V-B:GLU:543:CG:9875, V-A:HIS:456:CE1:4064, V-B:HIS:456:CE1:9037, V-A:GLY:454:CA:4044, V-B:GLU:543:CD:9876, V-B:GLU:543:CB:9874, H-B:GLU:543:OE2:9878, V-B:ARG:545:CZ:9894, V-B:ARG:545:CD:9891, H-B:GLY:454:N:9017, V-A:HIS:456:CD2:4063, V-A:GLY:453:C:4037, V-A:GLY:453:CA:4039, H-A:HIS:456:NE2:4065, H-A:ARG:545:NE:4919, V-B:ILE:369:CD1:8206, H-B:ARG:545:NH1:9895, V-B:GLY:453:CA:9011, V-B:GLY:453:C:9009, V-A:ILE:455:C:4047, V-A:GLY:454:C:4042"]

$$$$
4bf_Grossjean_2025
     RDKit          3D

 24 26  0  0  0  0  0  0  0  0999 V2000
  133.8570  123.1140   58.5840 C   0  0  0  0  0  0  0  0  0  0  0  0
  132.9640  123.1200   59.8120 C   0  0  0  0  0  0  0  0  0  0  0  0
  131.8890  122.2420   59.9220 C   0  0  0  0  0  0  0  0  0  0  0  0
  131.0690  122.2620   61.0610 C   0  0  0  0  0  0  0  0  0  0  0  0
  129.8960  121.2780   61.1360 C   0  0  0  0  0  0  0  0  0  0  0  0
  128.7260  121.8780   61.3670 F   0  0  0  0  0  0  0  0  0  0  0  0
  129.7860  120.6180   59.9840 F   0  0  0  0  0  0  0  0  0  0  0  0
  130.1000  120.4080   62.1260 F   0  0  0  0  0  0  0  0  0  0  0  0
  131.3880  123.2090   62.0790 C   0  0  0  0  0  0  0  0  0  0  0  0
  130.7910  123.5170   63.3550 C   0  0  0  0  0  0  0  0  0  0  0  0
  129.6910  122.8540   63.8360 N   0  0  0  0  0  0  0  0  0  0  0  0
  131.4370  124.5480   64.0580 C   0  0  0  0  0  0  0  0  0  0  0  0
  131.0810  125.1310   65.3550 C   0  0  0  0  0  0  0  0  0  0  0  0
  131.9150  125.2040   66.2590 O   0  0  0  0  0  0  0  0  0  0  0  0
  129.8060  125.5790   65.4610 N   0  0  0  0  0  0  0  0  0  0  0  0
  129.1420  126.1380   66.5690 C   0  0  0  0  0  0  0  0  0  0  0  0
  128.0700  127.0460   66.5030 C   0  0  0  0  0  0  0  0  0  0  0  0
  127.5090  127.5390   67.6830 C   0  0  0  0  0  0  0  0  0  0  0  0
  128.0370  127.1140   68.9030 C   0  0  0  0  0  0  0  0  0  0  0  0
  129.0740  126.2450   68.9930 N   0  0  0  0  0  0  0  0  0  0  0  0
  129.6100  125.7750   67.8370 C   0  0  0  0  0  0  0  0  0  0  0  0
  132.8110  125.1740   63.1500 S   0  0  0  0  0  0  0  0  0  0  0  0
  132.5180  124.0520   61.8420 C   0  0  0  0  0  0  0  0  0  0  0  0
  133.2940  124.0290   60.7590 N   0  0  0  0  0  0  0  0  0  0  0  0
  1  2  1  0
  2  3  2  0
  3  4  1  0
  4  5  1  0
  5  6  1  0
  5  7  1  0
  5  8  1  0
  4  9  2  0
  9 10  1  0
 10 11  1  0
 10 12  2  0
 12 13  1  0
 13 14  2  0
 13 15  1  0
 15 16  1  0
 16 17  2  0
 17 18  1  0
 18 19  2  0
 19 20  1  0
 20 21  2  0
 12 22  1  0
 22 23  1  0
 23 24  2  0
 24  2  1  0
 23  9  1  0
 21 16  1  0
M  END
>  <Binding energies>  (50) 
[-5.67]

>  <Ligand effiencies>  (50) 
[-0.21]

>  <Interactions>  (50) 
["H-A:TYR:484:OH:4343, V-A:ARG:545:CZ:4921, V-B:GLU:543:CG:9875, V-A:HIS:456:CE1:4064, V-B:HIS:456:CE1:9037, V-B:GLU:543:CD:9876, V-B:GLU:543:CB:9874, H-B:GLU:543:OE2:9878, V-A:LEU:475:CD2:4254, V-B:TYR:539:CD2:9842, V-A:LEU:475:CD1:4253, V-B:TYR:539:CE2:9844, V-B:ALA:541:CB:9860, V-A:ASP:366:CB:3207, V-A:ILE:369:CD1:3234, H-A:HIS:456:NE2:4065, V-B:PRO:540:CA:9851, V-A:ILE:369:CG2:3232, V-B:PRO:540:C:9849, V-B:ALA:541:CA:9858, V-B:TYR:539:C:9835, V-A:ILE:369:CB:3231, V-A:ASP:366:CA:3205, V-A:ILE:369:CG1:3233"]

$$$$
4bh_Grossjean_2025
     RDKit          3D

 31 33  0  0  0  0  0  0  0  0999 V2000
  129.7340  131.2980   73.5580 C   0  0  0  0  0  0  0  0  0  0  0  0
  129.7600  129.8810   73.6830 O   0  0  0  0  0  0  0  0  0  0  0  0
  129.5630  129.0960   72.5610 C   0  0  0  0  0  0  0  0  0  0  0  0
  129.5490  129.5950   71.2490 C   0  0  0  0  0  0  0  0  0  0  0  0
  129.3420  128.7440   70.1620 C   0  0  0  0  0  0  0  0  0  0  0  0
  129.3750  129.2960   68.7420 C   0  0  0  0  0  0  0  0  0  0  0  0
  129.6770  128.2840   67.7290 N   0  0  0  0  0  0  0  0  0  0  0  0
  128.8990  127.2250   67.4250 C   0  0  0  0  0  0  0  0  0  0  0  0
  127.8460  126.9840   68.0200 O   0  0  0  0  0  0  0  0  0  0  0  0
  129.3980  126.3430   66.3700 C   0  0  0  0  0  0  0  0  0  0  0  0
  129.8500  124.6840   66.7500 S   0  0  0  0  0  0  0  0  0  0  0  0
  130.3340  124.3920   65.0960 C   0  0  0  0  0  0  0  0  0  0  0  0
  130.8060  123.2080   64.7080 N   0  0  0  0  0  0  0  0  0  0  0  0
  131.1450  123.1020   63.4030 C   0  0  0  0  0  0  0  0  0  0  0  0
  131.6820  121.7450   62.9830 C   0  0  0  0  0  0  0  0  0  0  0  0
  131.0220  124.1400   62.4830 C   0  0  0  0  0  0  0  0  0  0  0  0
  130.5260  125.3910   62.8860 C   0  0  0  0  0  0  0  0  0  0  0  0
  130.4060  126.5030   61.8380 C   0  0  0  0  0  0  0  0  0  0  0  0
  129.1670  126.9860   61.7280 F   0  0  0  0  0  0  0  0  0  0  0  0
  131.2030  127.5190   62.1660 F   0  0  0  0  0  0  0  0  0  0  0  0
  130.7610  126.0340   60.6420 F   0  0  0  0  0  0  0  0  0  0  0  0
  130.1630  125.5370   64.2570 C   0  0  0  0  0  0  0  0  0  0  0  0
  129.6370  126.6420   65.0200 C   0  0  0  0  0  0  0  0  0  0  0  0
  129.3880  127.8730   64.4700 N   0  0  0  0  0  0  0  0  0  0  0  0
  129.1760  127.3760   70.3830 C   0  0  0  0  0  0  0  0  0  0  0  0
  129.1780  126.8500   71.6840 C   0  0  0  0  0  0  0  0  0  0  0  0
  129.0050  125.5090   71.9760 O   0  0  0  0  0  0  0  0  0  0  0  0
  129.7860  124.5390   71.2860 C   0  0  0  0  0  0  0  0  0  0  0  0
  129.3670  127.7230   72.7650 C   0  0  0  0  0  0  0  0  0  0  0  0
  129.3900  127.2190   74.0450 O   0  0  0  0  0  0  0  0  0  0  0  0
  130.4990  126.3720   74.3120 C   0  0  0  0  0  0  0  0  0  0  0  0
  1  2  1  0
  2  3  1  0
  3  4  2  0
  4  5  1  0
  5  6  1  0
  6  7  1  0
  7  8  1  0
  8  9  2  0
  8 10  1  0
 10 11  1  0
 11 12  1  0
 12 13  2  0
 13 14  1  0
 14 15  1  0
 14 16  2  0
 16 17  1  0
 17 18  1  0
 18 19  1  0
 18 20  1  0
 18 21  1  0
 17 22  2  0
 22 23  1  0
 23 24  1  0
  5 25  2  0
 25 26  1  0
 26 27  1  0
 27 28  1  0
 26 29  2  0
 29 30  1  0
 30 31  1  0
 29  3  1  0
 23 10  2  0
 22 12  1  0
M  END
>  <Binding energies>  (51) 
[-6.35]

>  <Ligand effiencies>  (51) 
[-0.18676470588235294]

>  <Interactions>  (51) 
["H-A:TYR:484:OH:4343, H-A:GLU:543:OE2:4905, V-A:GLU:543:CD:4903, V-A:GLU:543:CG:4902, V-A:GLU:543:CB:4901, V-B:GLU:543:CG:9875, V-A:GLU:543:CA:4899, V-A:HIS:456:CE1:4064, V-B:HIS:456:CE1:9037, H-A:GLU:543:OE1:4904, V-B:GLU:543:CD:9876, V-A:GLU:543:C:4897, V-B:GLU:543:CB:9874, H-B:GLU:543:OE2:9878, V-A:LEU:475:CD2:4254, V-A:TYR:484:CE1:4340, V-B:GLU:543:C:9870, V-B:GLU:543:CA:9872, H-B:LYS:547:NZ:9919, V-B:HIS:456:CD2:9035, H-A:LYS:547:NZ:4946, V-B:LYS:547:CE:9918, V-A:LYS:547:CE:4945"]

$$$$
4bi_Grossjean_2025
     RDKit          3D

 23 25  0  0  0  0  0  0  0  0999 V2000
  134.1750  125.4920   75.7400 C   0  0  0  0  0  0  0  0  0  0  0  0
  133.0190  125.2830   74.7790 C   0  0  0  0  0  0  0  0  0  0  0  0
  132.2520  126.3580   74.3360 C   0  0  0  0  0  0  0  0  0  0  0  0
  131.1880  126.1510   73.4430 C   0  0  0  0  0  0  0  0  0  0  0  0
  130.3770  127.3640   72.9770 C   0  0  0  0  0  0  0  0  0  0  0  0
  129.8990  127.2300   71.7380 F   0  0  0  0  0  0  0  0  0  0  0  0
  129.3350  127.5490   73.7880 F   0  0  0  0  0  0  0  0  0  0  0  0
  131.1450  128.4540   72.9930 F   0  0  0  0  0  0  0  0  0  0  0  0
  130.9380  124.8090   73.0250 C   0  0  0  0  0  0  0  0  0  0  0  0
  129.9590  124.2230   72.1440 C   0  0  0  0  0  0  0  0  0  0  0  0
  128.9990  124.9640   71.5040 N   0  0  0  0  0  0  0  0  0  0  0  0
  130.0810  122.8310   71.9950 C   0  0  0  0  0  0  0  0  0  0  0  0
  129.2550  121.9220   71.1960 C   0  0  0  0  0  0  0  0  0  0  0  0
  129.0290  122.1570   70.0070 O   0  0  0  0  0  0  0  0  0  0  0  0
  128.7930  120.8270   71.8510 N   0  0  0  0  0  0  0  0  0  0  0  0
  128.0050  119.8050   71.3380 C   0  0  0  0  0  0  0  0  0  0  0  0
  127.2420  118.9570   72.1390 C   0  0  0  0  0  0  0  0  0  0  0  0
  126.6210  118.0970   71.2620 C   0  0  0  0  0  0  0  0  0  0  0  0
  126.9910  118.4120   69.9970 O   0  0  0  0  0  0  0  0  0  0  0  0
  127.8700  119.4960   70.0590 N   0  0  0  0  0  0  0  0  0  0  0  0
  131.4070  122.2000   72.9700 S   0  0  0  0  0  0  0  0  0  0  0  0
  131.8000  123.8000   73.5530 C   0  0  0  0  0  0  0  0  0  0  0  0
  132.8090  124.0020   74.4000 N   0  0  0  0  0  0  0  0  0  0  0  0
  1  2  1  0
  2  3  2  0
  3  4  1  0
  4  5  1  0
  5  6  1  0
  5  7  1  0
  5  8  1  0
  4  9  2  0
  9 10  1  0
 10 11  1  0
 10 12  2  0
 12 13  1  0
 13 14  2  0
 13 15  1  0
 15 16  1  0
 16 17  1  0
 17 18  2  0
 18 19  1  0
 19 20  1  0
 12 21  1  0
 21 22  1  0
 22 23  2  0
 23  2  1  0
 22  9  1  0
 20 16  2  0
M  END
>  <Binding energies>  (52) 
[-6.02]

>  <Ligand effiencies>  (52) 
[-0.23153846153846153]

>  <Interactions>  (52) 
["V-A:GLY:544:C:4907, V-A:HIS:456:CE1:4064, V-B:GLU:543:C:9870, H-B:GLU:543:O:9871, V-A:TYR:484:CD1:4338, V-A:HIS:456:CG:4061, V-A:TYR:484:CB:4336, V-B:LYS:547:CE:9918, V-A:TYR:484:CG:4337, V-A:LYS:547:CE:4945, V-A:ASP:473:CG:4235, V-A:ASP:473:CB:4234, V-A:HIS:456:CB:4060, V-A:LYS:547:CD:4944, H-B:GLY:544:O:9881, V-A:VAL:458:CG2:4082, V-B:VAL:542:CG1:9867, H-A:TYR:484:N:4335, V-A:SER:483:CB:4328"]

$$$$
4bj_Grossjean_2025
     RDKit          3D

 23 25  0  0  0  0  0  0  0  0999 V2000
  135.5280  125.1290   66.5490 C   0  0  0  0  0  0  0  0  0  0  0  0
  134.2710  125.0940   65.6980 C   0  0  0  0  0  0  0  0  0  0  0  0
  133.0260  125.3920   66.2460 C   0  0  0  0  0  0  0  0  0  0  0  0
  131.8710  125.3490   65.4490 C   0  0  0  0  0  0  0  0  0  0  0  0
  130.5220  125.6830   66.0970 C   0  0  0  0  0  0  0  0  0  0  0  0
  130.6410  126.1280   67.3490 F   0  0  0  0  0  0  0  0  0  0  0  0
  129.9050  126.6300   65.3920 F   0  0  0  0  0  0  0  0  0  0  0  0
  129.7580  124.5910   66.1320 F   0  0  0  0  0  0  0  0  0  0  0  0
  132.0370  124.9940   64.0780 C   0  0  0  0  0  0  0  0  0  0  0  0
  131.1090  124.8450   62.9830 C   0  0  0  0  0  0  0  0  0  0  0  0
  129.7590  125.0450   63.1230 N   0  0  0  0  0  0  0  0  0  0  0  0
  131.7110  124.4860   61.7660 C   0  0  0  0  0  0  0  0  0  0  0  0
  131.0740  124.2430   60.4700 C   0  0  0  0  0  0  0  0  0  0  0  0
  131.6410  124.5540   59.4200 O   0  0  0  0  0  0  0  0  0  0  0  0
  129.8540  123.6540   60.5210 N   0  0  0  0  0  0  0  0  0  0  0  0
  129.0500  123.3070   59.4440 C   0  0  0  0  0  0  0  0  0  0  0  0
  129.4260  122.8730   58.2610 N   0  0  0  0  0  0  0  0  0  0  0  0
  128.3910  122.6340   57.4800 C   0  0  0  0  0  0  0  0  0  0  0  0
  127.1360  122.8790   58.0290 C   0  0  0  0  0  0  0  0  0  0  0  0
  127.3350  123.4540   59.6580 S   0  0  0  0  0  0  0  0  0  0  0  0
  133.4540  124.2980   61.9460 S   0  0  0  0  0  0  0  0  0  0  0  0
  133.3690  124.7160   63.6410 C   0  0  0  0  0  0  0  0  0  0  0  0
  134.4620  124.7560   64.4020 N   0  0  0  0  0  0  0  0  0  0  0  0
  1  2  1  0
  2  3  2  0
  3  4  1  0
  4  5  1  0
  5  6  1  0
  5  7  1  0
  5  8  1  0
  4  9  2  0
  9 10  1  0
 10 11  1  0
 10 12  2  0
 12 13  1  0
 13 14  2  0
 13 15  1  0
 15 16  1  0
 16 17  2  0
 17 18  1  0
 18 19  2  0
 19 20  1  0
 12 21  1  0
 21 22  1  0
 22 23  2  0
 23  2  1  0
 22  9  1  0
 20 16  1  0
M  END
>  <Binding energies>  (53) 
[-5.61]

>  <Ligand effiencies>  (53) 
[-0.21576923076923077]

>  <Interactions>  (53) 
["V-A:ARG:545:CD:4918, H-A:TYR:484:OH:4343, V-A:ARG:545:CZ:4921, V-A:ARG:545:CG:4917, H-A:GLY:454:N:4045, V-A:ASP:366:CG:3208, V-A:GLU:543:CD:4903, V-B:GLU:543:CG:9875, V-A:HIS:456:CE1:4064, V-B:GLU:543:CD:9876, V-B:GLU:543:CB:9874, H-B:GLU:543:OE2:9878, V-B:TYR:539:CD2:9842, V-A:TYR:484:CE1:4340, V-B:TYR:539:CE2:9844, V-A:HIS:456:CD2:4063, V-A:GLY:453:C:4037, V-A:GLY:453:CA:4039, V-B:PRO:540:CA:9851, V-B:TYR:539:C:9835, H-A:ARG:545:NH1:4922, V-B:PRO:540:N:9852, V-B:TYR:539:CZ:9845, V-A:ILE:455:C:4047, V-A:ARG:545:CB:4916"]

$$$$
4bk_Grossjean_2025
     RDKit          3D

 28 29  0  0  0  0  0  0  0  0999 V2000
  133.3790  125.0510   63.4800 C   0  0  0  0  0  0  0  0  0  0  0  0
  134.1980  124.7260   64.5910 O   0  0  0  0  0  0  0  0  0  0  0  0
  133.8440  125.4220   65.7790 C   0  0  0  0  0  0  0  0  0  0  0  0
  132.3470  125.7580   65.7480 C   0  0  0  0  0  0  0  0  0  0  0  0
  131.6290  124.7850   66.4950 O   0  0  0  0  0  0  0  0  0  0  0  0
  130.2220  124.8370   66.3020 C   0  0  0  0  0  0  0  0  0  0  0  0
  129.5630  125.4780   67.5310 C   0  0  0  0  0  0  0  0  0  0  0  0
  128.8130  126.6140   67.1220 O   0  0  0  0  0  0  0  0  0  0  0  0
  129.5960  127.7890   66.9510 C   0  0  0  0  0  0  0  0  0  0  0  0
  130.5160  127.9710   68.1700 C   0  0  0  0  0  0  0  0  0  0  0  0
  129.8160  128.4280   69.3710 N   0  0  0  0  0  0  0  0  0  0  0  0
  130.3950  128.6720   70.5650 C   0  0  0  0  0  0  0  0  0  0  0  0
  131.6070  128.5450   70.7500 O   0  0  0  0  0  0  0  0  0  0  0  0
  129.5000  129.1080   71.6380 C   0  0  0  0  0  0  0  0  0  0  0  0
  127.9550  128.2990   71.8840 S   0  0  0  0  0  0  0  0  0  0  0  0
  127.5830  129.3270   73.2470 C   0  0  0  0  0  0  0  0  0  0  0  0
  126.4430  129.1990   73.9240 N   0  0  0  0  0  0  0  0  0  0  0  0
  126.2680  130.0510   74.9610 C   0  0  0  0  0  0  0  0  0  0  0  0
  124.9640  129.8850   75.7200 C   0  0  0  0  0  0  0  0  0  0  0  0
  127.1980  131.0190   75.3320 C   0  0  0  0  0  0  0  0  0  0  0  0
  128.4000  131.1610   74.6220 C   0  0  0  0  0  0  0  0  0  0  0  0
  129.3900  132.2430   75.0660 C   0  0  0  0  0  0  0  0  0  0  0  0
  129.8000  133.0190   74.0600 F   0  0  0  0  0  0  0  0  0  0  0  0
  128.8170  133.0330   75.9730 F   0  0  0  0  0  0  0  0  0  0  0  0
  130.4710  131.6750   75.5970 F   0  0  0  0  0  0  0  0  0  0  0  0
  128.6160  130.2760   73.5230 C   0  0  0  0  0  0  0  0  0  0  0  0
  129.7020  130.1220   72.5870 C   0  0  0  0  0  0  0  0  0  0  0  0
  130.8290  130.9020   72.6230 N   0  0  0  0  0  0  0  0  0  0  0  0
  1  2  1  0
  2  3  1  0
  3  4  1  0
  4  5  1  0
  5  6  1  0
  6  7  1  0
  7  8  1  0
  8  9  1  0
  9 10  1  0
 10 11  1  0
 11 12  1  0
 12 13  2  0
 12 14  1  0
 14 15  1  0
 15 16  1  0
 16 17  2  0
 17 18  1  0
 18 19  1  0
 18 20  2  0
 20 21  1  0
 21 22  1  0
 22 23  1  0
 22 24  1  0
 22 25  1  0
 21 26  2  0
 26 27  1  0
 27 28  1  0
 27 14  2  0
 26 16  1  0
M  END
>  <Binding energies>  (54) 
[-5.45]

>  <Ligand effiencies>  (54) 
[-0.17580645161290323]

>  <Interactions>  (54) 
["V-A:ARG:545:CD:4918, H-A:TYR:484:OH:4343, V-A:ARG:545:CZ:4921, V-A:ARG:545:CG:4917, H-A:GLY:454:N:4045, V-A:GLU:543:CD:4903, V-A:GLY:544:C:4907, V-A:GLU:543:CB:4901, V-B:GLU:543:CG:9875, V-A:HIS:456:CE1:4064, V-A:GLY:544:CA:4909, V-A:GLU:543:C:4897, V-B:GLU:543:CB:9874, V-A:TYR:484:CE1:4340, V-B:GLU:543:CA:9872, H-B:LYS:547:NZ:9919, V-B:HIS:456:CD2:9035, H-A:HIS:456:NE2:4065, H-A:GLU:543:O:4898, H-B:HIS:456:NE2:9038, V-B:HIS:456:CG:9033, V-B:HIS:456:CB:9032, V-A:LYS:547:CE:4945, H-A:GLY:544:O:4908, V-A:LYS:547:CD:4944, H-A:ARG:545:N:4915, V-B:VAL:458:CG2:9054"]

$$$$
4cd_Grossjean_2025
     RDKit          3D

 29 32  0  0  0  0  0  0  0  0999 V2000
  129.2940  126.6190   63.8470 N   0  0  0  0  0  0  0  0  0  0  0  0
  129.5770  126.1230   65.0950 C   0  0  0  0  0  0  0  0  0  0  0  0
  130.0300  124.8130   65.3180 C   0  0  0  0  0  0  0  0  0  0  0  0
  130.2680  123.7490   64.3370 C   0  0  0  0  0  0  0  0  0  0  0  0
  130.8680  122.7230   64.6570 O   0  0  0  0  0  0  0  0  0  0  0  0
  129.7780  123.9850   63.0950 N   0  0  0  0  0  0  0  0  0  0  0  0
  129.8780  123.2030   61.9290 C   0  0  0  0  0  0  0  0  0  0  0  0
  128.7790  123.2470   61.0660 C   0  0  0  0  0  0  0  0  0  0  0  0
  128.7880  122.5190   59.8800 C   0  0  0  0  0  0  0  0  0  0  0  0
  129.9020  121.7500   59.5510 C   0  0  0  0  0  0  0  0  0  0  0  0
  131.0090  121.7080   60.3940 C   0  0  0  0  0  0  0  0  0  0  0  0
  131.0030  122.4350   61.5830 C   0  0  0  0  0  0  0  0  0  0  0  0
  130.3030  124.5180   67.0330 S   0  0  0  0  0  0  0  0  0  0  0  0
  129.8010  126.1420   67.4390 C   0  0  0  0  0  0  0  0  0  0  0  0
  129.7820  126.5690   68.6990 N   0  0  0  0  0  0  0  0  0  0  0  0
  129.3640  127.8430   68.9170 C   0  0  0  0  0  0  0  0  0  0  0  0
  129.3510  128.2950   70.3480 C   0  0  0  0  0  0  0  0  0  0  0  0
  130.4850  128.8900   70.9250 C   0  0  0  0  0  0  0  0  0  0  0  0
  130.4800  129.3120   72.2520 C   0  0  0  0  0  0  0  0  0  0  0  0
  129.3350  129.1460   73.0230 C   0  0  0  0  0  0  0  0  0  0  0  0
  128.1970  128.5630   72.4770 C   0  0  0  0  0  0  0  0  0  0  0  0
  128.2060  128.1450   71.1500 C   0  0  0  0  0  0  0  0  0  0  0  0
  128.9860  128.6870   67.8690 C   0  0  0  0  0  0  0  0  0  0  0  0
  129.0070  128.2470   66.5350 C   0  0  0  0  0  0  0  0  0  0  0  0
  128.5760  129.2240   65.4340 C   0  0  0  0  0  0  0  0  0  0  0  0
  129.3630  129.1790   64.3560 F   0  0  0  0  0  0  0  0  0  0  0  0
  127.3370  128.9370   65.0350 F   0  0  0  0  0  0  0  0  0  0  0  0
  128.6110  130.4720   65.9000 F   0  0  0  0  0  0  0  0  0  0  0  0
  129.4320  126.9100   66.2950 C   0  0  0  0  0  0  0  0  0  0  0  0
  1  2  1  0
  2  3  2  0
  3  4  1  0
  4  5  2  0
  4  6  1  0
  6  7  1  0
  7  8  2  0
  8  9  1  0
  9 10  2  0
 10 11  1  0
 11 12  2  0
  3 13  1  0
 13 14  1  0
 14 15  2  0
 15 16  1  0
 16 17  1  0
 17 18  2  0
 18 19  1  0
 19 20  2  0
 20 21  1  0
 21 22  2  0
 16 23  2  0
 23 24  1  0
 24 25  1  0
 25 26  1  0
 25 27  1  0
 25 28  1  0
 24 29  2  0
 29  2  1  0
 12  7  1  0
 29 14  1  0
 22 17  1  0
M  END
>  <Binding energies>  (55) 
[-7.17]

>  <Ligand effiencies>  (55) 
[-0.2240625]

>  <Interactions>  (55) 
["H-A:TYR:484:OH:4343, H-A:GLU:543:OE2:4905, V-A:GLU:543:CD:4903, V-A:GLU:543:CG:4902, V-A:GLY:544:C:4907, V-A:GLU:543:CB:4901, V-B:GLU:543:CG:9875, V-A:HIS:456:CE1:4064, V-A:GLY:544:CA:4909, V-B:HIS:456:CE1:9037, H-A:GLU:543:OE1:4904, V-B:GLU:543:CD:9876, V-A:GLU:543:C:4897, V-B:GLU:543:CB:9874, H-B:GLU:543:OE2:9878, V-B:TYR:539:CD2:9842, V-A:TYR:484:CE1:4340, V-A:TYR:484:CZ:4342, V-B:TYR:539:CE2:9844, V-B:HIS:456:CD2:9035, H-A:HIS:456:NE2:4065, V-B:PRO:540:CA:9851, V-A:LYS:547:CE:4945, V-B:TYR:484:CZ:9314, V-B:TYR:484:CE1:9312"]

$$$$
4cg_Grossjean_2025
     RDKit          3D

 30 33  0  0  0  0  0  0  0  0999 V2000
  129.3740  126.5390   63.5460 N   0  0  0  0  0  0  0  0  0  0  0  0
  129.6400  126.0490   64.7980 C   0  0  0  0  0  0  0  0  0  0  0  0
  130.0840  124.7390   65.0320 C   0  0  0  0  0  0  0  0  0  0  0  0
  130.3910  123.6930   64.0580 C   0  0  0  0  0  0  0  0  0  0  0  0
  131.2600  122.8460   64.2770 O   0  0  0  0  0  0  0  0  0  0  0  0
  129.6970  123.7390   62.9010 N   0  0  0  0  0  0  0  0  0  0  0  0
  129.8220  122.7860   61.7990 C   0  0  0  0  0  0  0  0  0  0  0  0
  128.7960  123.0020   60.6920 C   0  0  0  0  0  0  0  0  0  0  0  0
  129.1390  122.7280   59.3650 C   0  0  0  0  0  0  0  0  0  0  0  0
  128.1950  122.8930   58.3540 C   0  0  0  0  0  0  0  0  0  0  0  0
  126.9100  123.3220   58.6760 C   0  0  0  0  0  0  0  0  0  0  0  0
  126.5570  123.5810   59.9990 C   0  0  0  0  0  0  0  0  0  0  0  0
  127.4990  123.4140   61.0090 C   0  0  0  0  0  0  0  0  0  0  0  0
  130.3480  124.4470   66.7490 S   0  0  0  0  0  0  0  0  0  0  0  0
  129.8390  126.0720   67.1450 C   0  0  0  0  0  0  0  0  0  0  0  0
  129.8120  126.5030   68.4030 N   0  0  0  0  0  0  0  0  0  0  0  0
  129.4070  127.7830   68.6140 C   0  0  0  0  0  0  0  0  0  0  0  0
  129.3860  128.2390   70.0450 C   0  0  0  0  0  0  0  0  0  0  0  0
  130.5220  128.8170   70.6350 C   0  0  0  0  0  0  0  0  0  0  0  0
  130.5080  129.2400   71.9610 C   0  0  0  0  0  0  0  0  0  0  0  0
  129.3520  129.0900   72.7210 C   0  0  0  0  0  0  0  0  0  0  0  0
  128.2140  128.5190   72.1640 C   0  0  0  0  0  0  0  0  0  0  0  0
  128.2320  128.0970   70.8380 C   0  0  0  0  0  0  0  0  0  0  0  0
  129.0130  128.6160   67.5610 C   0  0  0  0  0  0  0  0  0  0  0  0
  129.0370  128.1710   66.2300 C   0  0  0  0  0  0  0  0  0  0  0  0
  128.5920  129.1350   65.1240 C   0  0  0  0  0  0  0  0  0  0  0  0
  129.3780  129.0940   64.0460 F   0  0  0  0  0  0  0  0  0  0  0  0
  127.3560  128.8290   64.7300 F   0  0  0  0  0  0  0  0  0  0  0  0
  128.6100  130.3860   65.5830 F   0  0  0  0  0  0  0  0  0  0  0  0
  129.4750  126.8350   65.9960 C   0  0  0  0  0  0  0  0  0  0  0  0
  1  2  1  0
  2  3  2  0
  3  4  1  0
  4  5  2  0
  4  6  1  0
  6  7  1  0
  7  8  1  0
  8  9  2  0
  9 10  1  0
 10 11  2  0
 11 12  1  0
 12 13  2  0
  3 14  1  0
 14 15  1  0
 15 16  2  0
 16 17  1  0
 17 18  1  0
 18 19  2  0
 19 20  1  0
 20 21  2  0
 21 22  1  0
 22 23  2  0
 17 24  2  0
 24 25  1  0
 25 26  1  0
 26 27  1  0
 26 28  1  0
 26 29  1  0
 25 30  2  0
 30  2  1  0
 13  8  1  0
 30 15  1  0
 23 18  1  0
M  END
>  <Binding energies>  (56) 
[-7.37]

>  <Ligand effiencies>  (56) 
[-0.22333333333333333]

>  <Interactions>  (56) 
["H-A:TYR:484:OH:4343, H-A:GLU:543:OE2:4905, V-A:GLU:543:CD:4903, V-A:GLU:543:CG:4902, V-A:GLY:544:C:4907, V-A:GLU:543:CB:4901, V-B:GLU:543:CG:9875, V-A:HIS:456:CE1:4064, V-A:GLY:544:CA:4909, V-B:HIS:456:CE1:9037, H-A:GLU:543:OE1:4904, V-B:GLU:543:CD:9876, V-A:GLU:543:C:4897, V-B:GLU:543:CB:9874, H-B:GLU:543:OE2:9878, V-A:TYR:484:CE1:4340, V-A:TYR:484:CZ:4342, V-B:ALA:541:CB:9860, V-B:HIS:456:CD2:9035, H-A:HIS:456:NE2:4065, V-B:PRO:540:CB:9853, V-B:PRO:540:CA:9851, V-A:LYS:547:CE:4945, V-B:TYR:539:C:9835, V-B:PRO:540:N:9852"]

$$$$
4ch_Grossjean_2025
     RDKit          3D

 36 39  0  0  0  0  0  0  0  0999 V2000
  129.9770  122.5790   62.3280 C   0  0  0  0  0  0  0  0  0  0  0  0
  131.3230  122.8490   62.7050 O   0  0  0  0  0  0  0  0  0  0  0  0
  131.5740  123.7120   63.7560 C   0  0  0  0  0  0  0  0  0  0  0  0
  130.5730  124.2620   64.5740 C   0  0  0  0  0  0  0  0  0  0  0  0
  130.9000  125.1260   65.6200 C   0  0  0  0  0  0  0  0  0  0  0  0
  129.7980  125.7360   66.4800 C   0  0  0  0  0  0  0  0  0  0  0  0
  129.1170  126.8750   65.8650 N   0  0  0  0  0  0  0  0  0  0  0  0
  128.1060  127.5770   66.4180 C   0  0  0  0  0  0  0  0  0  0  0  0
  127.6660  127.3300   67.5430 O   0  0  0  0  0  0  0  0  0  0  0  0
  127.5780  128.6820   65.6160 C   0  0  0  0  0  0  0  0  0  0  0  0
  128.6320  130.0100   65.1430 S   0  0  0  0  0  0  0  0  0  0  0  0
  127.3330  130.7890   64.2740 C   0  0  0  0  0  0  0  0  0  0  0  0
  127.5140  131.9470   63.6430 N   0  0  0  0  0  0  0  0  0  0  0  0
  126.4460  132.4740   62.9900 C   0  0  0  0  0  0  0  0  0  0  0  0
  126.6830  133.7840   62.2940 C   0  0  0  0  0  0  0  0  0  0  0  0
  127.7850  134.5870   62.6290 C   0  0  0  0  0  0  0  0  0  0  0  0
  128.0100  135.8030   61.9880 C   0  0  0  0  0  0  0  0  0  0  0  0
  127.1320  136.2350   61.0000 C   0  0  0  0  0  0  0  0  0  0  0  0
  126.0300  135.4610   60.6510 C   0  0  0  0  0  0  0  0  0  0  0  0
  125.8080  134.2470   61.2960 C   0  0  0  0  0  0  0  0  0  0  0  0
  125.1980  131.8450   62.9870 C   0  0  0  0  0  0  0  0  0  0  0  0
  124.9930  130.6230   63.6500 C   0  0  0  0  0  0  0  0  0  0  0  0
  123.6000  129.9880   63.6080 C   0  0  0  0  0  0  0  0  0  0  0  0
  123.1490  129.6320   64.8130 F   0  0  0  0  0  0  0  0  0  0  0  0
  122.7250  130.8520   63.0940 F   0  0  0  0  0  0  0  0  0  0  0  0
  123.6270  128.8900   62.8530 F   0  0  0  0  0  0  0  0  0  0  0  0
  126.1100  130.0560   64.3280 C   0  0  0  0  0  0  0  0  0  0  0  0
  126.2860  128.8460   65.0950 C   0  0  0  0  0  0  0  0  0  0  0  0
  125.2730  127.9440   65.3030 N   0  0  0  0  0  0  0  0  0  0  0  0
  132.2350  125.4610   65.8460 C   0  0  0  0  0  0  0  0  0  0  0  0
  133.2560  124.9270   65.0420 C   0  0  0  0  0  0  0  0  0  0  0  0
  134.5990  125.2130   65.2090 O   0  0  0  0  0  0  0  0  0  0  0  0
  135.1850  125.0900   66.5010 C   0  0  0  0  0  0  0  0  0  0  0  0
  132.9120  124.0480   64.0050 C   0  0  0  0  0  0  0  0  0  0  0  0
  133.8990  123.5300   63.2020 O   0  0  0  0  0  0  0  0  0  0  0  0
  133.8630  124.0020   61.8620 C   0  0  0  0  0  0  0  0  0  0  0  0
  1  2  1  0
  2  3  1  0
  3  4  2  0
  4  5  1  0
  5  6  1  0
  6  7  1  0
  7  8  1  0
  8  9  2  0
  8 10  1  0
 10 11  1  0
 11 12  1  0
 12 13  2  0
 13 14  1  0
 14 15  1  0
 15 16  2  0
 16 17  1  0
 17 18  2  0
 18 19  1  0
 19 20  2  0
 14 21  2  0
 21 22  1  0
 22 23  1  0
 23 24  1  0
 23 25  1  0
 23 26  1  0
 22 27  2  0
 27 28  1  0
 28 29  1  0
  5 30  2  0
 30 31  1  0
 31 32  1  0
 32 33  1  0
 31 34  2  0
 34 35  1  0
 35 36  1  0
 34  3  1  0
 28 10  2  0
 27 12  1  0
 20 15  1  0
M  END
>  <Binding energies>  (57) 
[-6.6]

>  <Ligand effiencies>  (57) 
[-0.1692307692307692]

>  <Interactions>  (57) 
["V-A:ARG:545:CD:4918, H-A:TYR:484:OH:4343, V-A:ARG:545:CZ:4921, V-A:ARG:545:CG:4917, H-A:GLY:454:N:4045, V-A:ASP:366:CG:3208, V-A:GLU:543:CD:4903, V-A:GLU:543:CG:4902, V-A:GLU:543:CB:4901, V-B:GLU:543:CG:9875, H-A:GLU:543:OE1:4904, V-B:GLU:543:CD:9876, V-B:GLU:543:CB:9874, H-B:GLU:543:OE2:9878, H-B:GLU:543:OE1:9877, V-B:ALA:541:CB:9860, V-B:ARG:545:CZ:9894, H-B:TYR:484:OH:9315, V-A:PRO:540:C:4876, V-B:ARG:545:CD:9891, V-A:ALA:541:CB:4887, V-A:ALA:541:CA:4885, V-B:ARG:545:CG:9890, V-A:TYR:539:CE2:4871, V-A:ILE:369:CD1:3234, V-A:HIS:456:CD2:4063, V-A:GLY:453:C:4037, V-A:GLY:453:CA:4039, H-A:ARG:545:NE:4919, V-B:ASP:366:CG:8180, V-B:ILE:369:CD1:8206, V-B:LEU:475:CD2:9226, V-A:TYR:539:CD2:4869, V-B:GLY:453:CA:9011, H-A:ARG:545:NH1:4922, V-B:TRP:381:CH2:8339, V-B:TRP:381:CZ2:8337, V-B:GLY:453:C:9009, V-B:LEU:475:CD1:9225, V-B:PRO:482:CG:9294, V-B:PRO:482:CB:9293, V-B:TRP:381:CZ3:8338"]

$$$$
4cj_Grossjean_2025
     RDKit          3D

 28 31  0  0  0  0  0  0  0  0999 V2000
  129.3760  126.4930   63.6020 N   0  0  0  0  0  0  0  0  0  0  0  0
  129.6290  126.0070   64.8590 C   0  0  0  0  0  0  0  0  0  0  0  0
  130.0850  124.7010   65.1010 C   0  0  0  0  0  0  0  0  0  0  0  0
  130.3790  123.6420   64.1320 C   0  0  0  0  0  0  0  0  0  0  0  0
  131.2520  122.8010   64.3620 O   0  0  0  0  0  0  0  0  0  0  0  0
  129.6420  123.6720   62.9940 N   0  0  0  0  0  0  0  0  0  0  0  0
  129.7220  122.7900   61.9250 C   0  0  0  0  0  0  0  0  0  0  0  0
  129.3360  122.9900   60.6830 N   0  0  0  0  0  0  0  0  0  0  0  0
  129.5670  121.9340   59.9290 C   0  0  0  0  0  0  0  0  0  0  0  0
  130.1550  120.8420   60.5600 C   0  0  0  0  0  0  0  0  0  0  0  0
  130.4180  121.2310   62.2340 S   0  0  0  0  0  0  0  0  0  0  0  0
  130.3180  124.4170   66.8240 S   0  0  0  0  0  0  0  0  0  0  0  0
  129.8020  126.0420   67.2070 C   0  0  0  0  0  0  0  0  0  0  0  0
  129.7610  126.4800   68.4630 N   0  0  0  0  0  0  0  0  0  0  0  0
  129.3550  127.7600   68.6630 C   0  0  0  0  0  0  0  0  0  0  0  0
  129.3330  128.2260   70.0900 C   0  0  0  0  0  0  0  0  0  0  0  0
  128.1780  128.0800   70.8750 C   0  0  0  0  0  0  0  0  0  0  0  0
  128.1480  128.5150   72.1980 C   0  0  0  0  0  0  0  0  0  0  0  0
  129.2780  129.1070   72.7550 C   0  0  0  0  0  0  0  0  0  0  0  0
  130.4330  129.2660   71.9990 C   0  0  0  0  0  0  0  0  0  0  0  0
  130.4580  128.8280   70.6780 C   0  0  0  0  0  0  0  0  0  0  0  0
  128.9690  128.5860   67.6020 C   0  0  0  0  0  0  0  0  0  0  0  0
  129.0070  128.1350   66.2730 C   0  0  0  0  0  0  0  0  0  0  0  0
  128.5730  129.0940   65.1590 C   0  0  0  0  0  0  0  0  0  0  0  0
  129.3700  129.0500   64.0900 F   0  0  0  0  0  0  0  0  0  0  0  0
  127.3420  128.7840   64.7530 F   0  0  0  0  0  0  0  0  0  0  0  0
  128.5830  130.3480   65.6130 F   0  0  0  0  0  0  0  0  0  0  0  0
  129.4500  126.7990   66.0510 C   0  0  0  0  0  0  0  0  0  0  0  0
  1  2  1  0
  2  3  2  0
  3  4  1  0
  4  5  2  0
  4  6  1  0
  6  7  1  0
  7  8  2  0
  8  9  1  0
  9 10  2  0
 10 11  1  0
  3 12  1  0
 12 13  1  0
 13 14  2  0
 14 15  1  0
 15 16  1  0
 16 17  2  0
 17 18  1  0
 18 19  2  0
 19 20  1  0
 20 21  2  0
 15 22  2  0
 22 23  1  0
 23 24  1  0
 24 25  1  0
 24 26  1  0
 24 27  1  0
 23 28  2  0
 28  2  1  0
 11  7  1  0
 28 13  1  0
 21 16  1  0
M  END
>  <Binding energies>  (58) 
[-6.9]

>  <Ligand effiencies>  (58) 
[-0.22258064516129034]

>  <Interactions>  (58) 
["H-A:TYR:484:OH:4343, H-A:GLU:543:OE2:4905, V-A:GLU:543:CD:4903, V-A:GLU:543:CG:4902, V-A:GLY:544:C:4907, V-A:GLU:543:CB:4901, V-B:GLU:543:CG:9875, V-A:HIS:456:CE1:4064, V-A:GLY:544:CA:4909, V-B:HIS:456:CE1:9037, H-A:GLU:543:OE1:4904, V-B:GLU:543:CD:9876, V-A:GLU:543:C:4897, V-B:GLU:543:CB:9874, H-B:GLU:543:OE2:9878, V-A:LEU:475:CD2:4254, V-B:TYR:539:CD2:9842, V-A:TYR:484:CE1:4340, V-A:TYR:484:CZ:4342, V-B:ALA:541:CB:9860, V-B:HIS:456:CD2:9035, H-A:HIS:456:NE2:4065, V-A:LYS:547:CE:4945"]

$$$$
4ck_Grossjean_2025
     RDKit          3D

 33 35  0  0  0  0  0  0  0  0999 V2000
  134.5060  125.1280   66.2620 C   0  0  0  0  0  0  0  0  0  0  0  0
  134.4650  125.1500   64.8440 O   0  0  0  0  0  0  0  0  0  0  0  0
  133.1920  125.5040   64.3210 C   0  0  0  0  0  0  0  0  0  0  0  0
  133.0820  124.9910   62.8800 C   0  0  0  0  0  0  0  0  0  0  0  0
  131.8970  125.5090   62.2920 O   0  0  0  0  0  0  0  0  0  0  0  0
  131.5620  124.8950   61.0540 C   0  0  0  0  0  0  0  0  0  0  0  0
  130.2610  125.5100   60.5240 C   0  0  0  0  0  0  0  0  0  0  0  0
  129.2160  124.5550   60.6570 O   0  0  0  0  0  0  0  0  0  0  0  0
  129.6480  123.2080   60.5160 C   0  0  0  0  0  0  0  0  0  0  0  0
  129.7520  122.5520   61.9010 C   0  0  0  0  0  0  0  0  0  0  0  0
  129.6380  123.5310   62.9830 N   0  0  0  0  0  0  0  0  0  0  0  0
  130.3580  123.5360   64.1240 C   0  0  0  0  0  0  0  0  0  0  0  0
  131.2340  122.7020   64.3610 O   0  0  0  0  0  0  0  0  0  0  0  0
  130.0470  124.6060   65.0720 C   0  0  0  0  0  0  0  0  0  0  0  0
  130.2680  124.3470   66.8000 S   0  0  0  0  0  0  0  0  0  0  0  0
  129.7730  125.9860   67.1520 C   0  0  0  0  0  0  0  0  0  0  0  0
  129.7280  126.4460   68.4000 N   0  0  0  0  0  0  0  0  0  0  0  0
  129.3300  127.7330   68.5750 C   0  0  0  0  0  0  0  0  0  0  0  0
  129.3070  128.2260   69.9930 C   0  0  0  0  0  0  0  0  0  0  0  0
  128.1620  128.0680   70.7910 C   0  0  0  0  0  0  0  0  0  0  0  0
  128.1330  128.5260   72.1070 C   0  0  0  0  0  0  0  0  0  0  0  0
  129.2540  129.1490   72.6450 C   0  0  0  0  0  0  0  0  0  0  0  0
  130.4030  129.3140   71.8780 C   0  0  0  0  0  0  0  0  0  0  0  0
  130.4270  128.8540   70.5640 C   0  0  0  0  0  0  0  0  0  0  0  0
  128.9880  128.5550   67.4960 C   0  0  0  0  0  0  0  0  0  0  0  0
  129.0320  128.0800   66.1760 C   0  0  0  0  0  0  0  0  0  0  0  0
  128.6400  129.0330   65.0400 C   0  0  0  0  0  0  0  0  0  0  0  0
  129.4450  128.9440   63.9800 F   0  0  0  0  0  0  0  0  0  0  0  0
  127.4040  128.7580   64.6270 F   0  0  0  0  0  0  0  0  0  0  0  0
  128.6890  130.2930   65.4740 F   0  0  0  0  0  0  0  0  0  0  0  0
  129.4450  126.7310   65.9800 C   0  0  0  0  0  0  0  0  0  0  0  0
  129.6200  125.9150   64.8030 C   0  0  0  0  0  0  0  0  0  0  0  0
  129.3830  126.3810   63.5350 N   0  0  0  0  0  0  0  0  0  0  0  0
  1  2  1  0
  2  3  1  0
  3  4  1  0
  4  5  1  0
  5  6  1  0
  6  7  1  0
  7  8  1  0
  8  9  1  0
  9 10  1  0
 10 11  1  0
 11 12  1  0
 12 13  2  0
 12 14  1  0
 14 15  1  0
 15 16  1  0
 16 17  2  0
 17 18  1  0
 18 19  1  0
 19 20  2  0
 20 21  1  0
 21 22  2  0
 22 23  1  0
 23 24  2  0
 18 25  2  0
 25 26  1  0
 26 27  1  0
 27 28  1  0
 27 29  1  0
 27 30  1  0
 26 31  2  0
 31 32  1  0
 32 33  1  0
 32 14  2  0
 31 16  1  0
 24 19  1  0
M  END
>  <Binding energies>  (59) 
[-5.54]

>  <Ligand effiencies>  (59) 
[-0.15388888888888888]

>  <Interactions>  (59) 
["V-A:ARG:545:CD:4918, H-A:TYR:484:OH:4343, V-A:ARG:545:CZ:4921, V-A:ARG:545:CG:4917, H-A:GLY:454:N:4045, V-A:ASP:366:CG:3208, V-A:GLU:543:CD:4903, V-A:GLU:543:CG:4902, V-A:GLY:544:C:4907, V-A:GLU:543:CB:4901, V-B:GLU:543:CG:9875, V-A:HIS:456:CE1:4064, V-A:GLY:544:CA:4909, V-B:HIS:456:CE1:9037, V-B:GLU:543:CD:9876, V-A:GLU:543:C:4897, V-B:GLU:543:CB:9874, H-B:GLU:543:OE2:9878, V-A:TYR:484:CE1:4340, V-A:TYR:484:CZ:4342, V-B:ALA:541:CB:9860, V-A:HIS:456:CD2:4063, V-A:GLY:453:CA:4039, V-B:HIS:456:CD2:9035, H-A:HIS:456:NE2:4065, H-A:ARG:545:NE:4919, V-A:LYS:547:CE:4945, H-A:ARG:545:NH1:4922"]

$$$$
4dd_Grossjean_2025
     RDKit          3D

 26 29  0  0  0  0  0  0  0  0999 V2000
  128.7790  129.1240   65.3820 C   0  0  0  0  0  0  0  0  0  0  0  0
  129.1260  128.1580   66.5050 C   0  0  0  0  0  0  0  0  0  0  0  0
  129.0720  128.6300   67.8220 C   0  0  0  0  0  0  0  0  0  0  0  0
  129.3790  127.7900   68.9000 C   0  0  0  0  0  0  0  0  0  0  0  0
  129.3360  128.2700   70.3210 C   0  0  0  0  0  0  0  0  0  0  0  0
  130.4550  128.8820   70.9090 C   0  0  0  0  0  0  0  0  0  0  0  0
  130.4200  129.3320   72.2260 C   0  0  0  0  0  0  0  0  0  0  0  0
  129.2620  129.1750   72.9780 C   0  0  0  0  0  0  0  0  0  0  0  0
  128.1380  128.5740   72.4210 C   0  0  0  0  0  0  0  0  0  0  0  0
  128.1760  128.1270   71.1030 C   0  0  0  0  0  0  0  0  0  0  0  0
  129.7520  126.4940   68.7180 N   0  0  0  0  0  0  0  0  0  0  0  0
  129.7970  126.0420   67.4660 C   0  0  0  0  0  0  0  0  0  0  0  0
  130.2420  124.3930   67.0890 S   0  0  0  0  0  0  0  0  0  0  0  0
  130.0380  124.6820   65.3600 C   0  0  0  0  0  0  0  0  0  0  0  0
  130.2610  123.6030   64.3970 C   0  0  0  0  0  0  0  0  0  0  0  0
  130.8710  122.5840   64.7260 O   0  0  0  0  0  0  0  0  0  0  0  0
  129.7490  123.8140   63.1600 N   0  0  0  0  0  0  0  0  0  0  0  0
  129.8330  123.0130   62.0060 C   0  0  0  0  0  0  0  0  0  0  0  0
  130.8670  122.0710   61.9900 C   0  0  0  0  0  0  0  0  0  0  0  0
  131.0250  121.2210   60.8990 C   0  0  0  0  0  0  0  0  0  0  0  0
  130.1430  121.3060   59.8240 C   0  0  0  0  0  0  0  0  0  0  0  0
  129.1020  122.2310   59.8330 C   0  0  0  0  0  0  0  0  0  0  0  0
  128.9420  123.0830   60.9220 C   0  0  0  0  0  0  0  0  0  0  0  0
  129.6470  126.0070   65.1130 C   0  0  0  0  0  0  0  0  0  0  0  0
  129.4200  126.5150   63.8570 N   0  0  0  0  0  0  0  0  0  0  0  0
  129.5000  126.8050   66.3010 C   0  0  0  0  0  0  0  0  0  0  0  0
  1  2  1  0
  2  3  2  0
  3  4  1  0
  4  5  1  0
  5  6  2  0
  6  7  1  0
  7  8  2  0
  8  9  1  0
  9 10  2  0
  4 11  2  0
 11 12  1  0
 12 13  1  0
 13 14  1  0
 14 15  1  0
 15 16  2  0
 15 17  1  0
 17 18  1  0
 18 19  2  0
 19 20  1  0
 20 21  2  0
 21 22  1  0
 22 23  2  0
 14 24  2  0
 24 25  1  0
 24 26  1  0
 26  2  1  0
 10  5  1  0
 26 12  2  0
 23 18  1  0
M  END
>  <Binding energies>  (60) 
[-7.65]

>  <Ligand effiencies>  (60) 
[-0.2637931034482759]

>  <Interactions>  (60) 
["H-A:TYR:484:OH:4343, H-A:GLU:543:OE2:4905, V-A:GLU:543:CD:4903, V-A:GLU:543:CG:4902, V-A:GLY:544:C:4907, V-A:GLU:543:CB:4901, V-B:GLU:543:CG:9875, V-A:HIS:456:CE1:4064, V-A:GLY:544:CA:4909, V-B:HIS:456:CE1:9037, H-A:GLU:543:OE1:4904, V-B:GLU:543:CD:9876, V-A:GLU:543:C:4897, V-B:GLU:543:CB:9874, H-B:GLU:543:OE2:9878, V-A:LEU:475:CD2:4254, V-B:TYR:539:CD2:9842, V-A:TYR:484:CE1:4340, V-A:TYR:484:CZ:4342, V-B:TYR:539:CE2:9844, V-B:HIS:456:CD2:9035, H-A:HIS:456:NE2:4065, V-A:LYS:547:CE:4945"]

$$$$
4dg_Grossjean_2025
     RDKit          3D

 27 30  0  0  0  0  0  0  0  0999 V2000
  128.9500  128.9700   65.0500 C   0  0  0  0  0  0  0  0  0  0  0  0
  129.2580  128.0090   66.1880 C   0  0  0  0  0  0  0  0  0  0  0  0
  129.2020  128.4990   67.4980 C   0  0  0  0  0  0  0  0  0  0  0  0
  129.4750  127.6660   68.5900 C   0  0  0  0  0  0  0  0  0  0  0  0
  129.4210  128.1620   70.0080 C   0  0  0  0  0  0  0  0  0  0  0  0
  128.2570  128.0130   70.7800 C   0  0  0  0  0  0  0  0  0  0  0  0
  128.2010  128.4750   72.0930 C   0  0  0  0  0  0  0  0  0  0  0  0
  129.3110  129.0950   72.6550 C   0  0  0  0  0  0  0  0  0  0  0  0
  130.4760  129.2590   71.9120 C   0  0  0  0  0  0  0  0  0  0  0  0
  130.5280  128.7970   70.6000 C   0  0  0  0  0  0  0  0  0  0  0  0
  129.7860  126.3510   68.4300 N   0  0  0  0  0  0  0  0  0  0  0  0
  129.8410  125.8830   67.1830 C   0  0  0  0  0  0  0  0  0  0  0  0
  130.2350  124.2160   66.8360 S   0  0  0  0  0  0  0  0  0  0  0  0
  130.0770  124.4940   65.1020 C   0  0  0  0  0  0  0  0  0  0  0  0
  130.3420  123.4110   64.1570 C   0  0  0  0  0  0  0  0  0  0  0  0
  131.2210  122.5740   64.3690 O   0  0  0  0  0  0  0  0  0  0  0  0
  129.5940  123.4130   63.0340 N   0  0  0  0  0  0  0  0  0  0  0  0
  129.6700  122.4180   61.9640 C   0  0  0  0  0  0  0  0  0  0  0  0
  128.8050  122.7610   60.7560 C   0  0  0  0  0  0  0  0  0  0  0  0
  129.2860  122.5130   59.4660 C   0  0  0  0  0  0  0  0  0  0  0  0
  128.4870  122.7950   58.3620 C   0  0  0  0  0  0  0  0  0  0  0  0
  127.2080  123.3130   58.5500 C   0  0  0  0  0  0  0  0  0  0  0  0
  126.7160  123.5470   59.8320 C   0  0  0  0  0  0  0  0  0  0  0  0
  127.5140  123.2630   60.9370 C   0  0  0  0  0  0  0  0  0  0  0  0
  129.7480  125.8300   64.8280 C   0  0  0  0  0  0  0  0  0  0  0  0
  129.5770  126.3300   63.5620 N   0  0  0  0  0  0  0  0  0  0  0  0
  129.5950  126.6440   66.0040 C   0  0  0  0  0  0  0  0  0  0  0  0
  1  2  1  0
  2  3  2  0
  3  4  1  0
  4  5  1  0
  5  6  2  0
  6  7  1  0
  7  8  2  0
  8  9  1  0
  9 10  2  0
  4 11  2  0
 11 12  1  0
 12 13  1  0
 13 14  1  0
 14 15  1  0
 15 16  2  0
 15 17  1  0
 17 18  1  0
 18 19  1  0
 19 20  2  0
 20 21  1  0
 21 22  2  0
 22 23  1  0
 23 24  2  0
 14 25  2  0
 25 26  1  0
 25 27  1  0
 27  2  1  0
 10  5  1  0
 27 12  2  0
 24 19  1  0
M  END
>  <Binding energies>  (61) 
[-7.72]

>  <Ligand effiencies>  (61) 
[-0.2573333333333333]

>  <Interactions>  (61) 
["H-A:TYR:484:OH:4343, H-A:GLU:543:OE2:4905, V-A:GLU:543:CD:4903, V-A:GLU:543:CG:4902, V-A:GLY:544:C:4907, V-A:GLU:543:CB:4901, V-B:GLU:543:CG:9875, V-A:HIS:456:CE1:4064, V-A:GLY:544:CA:4909, V-B:HIS:456:CE1:9037, H-A:GLU:543:OE1:4904, V-B:GLU:543:CD:9876, V-A:GLU:543:C:4897, V-B:GLU:543:CB:9874, H-B:GLU:543:OE2:9878, V-A:TYR:484:CE1:4340, V-A:TYR:484:CZ:4342, V-B:ALA:541:CB:9860, V-B:HIS:456:CD2:9035, H-A:HIS:456:NE2:4065, V-B:PRO:540:CB:9853, V-B:PRO:540:CA:9851, V-A:LYS:547:CE:4945, V-B:TYR:539:C:9835, V-B:PRO:540:N:9852"]

$$$$
4dj_Grossjean_2025
     RDKit          3D

 25 28  0  0  0  0  0  0  0  0999 V2000
  128.6260  129.0600   65.1870 C   0  0  0  0  0  0  0  0  0  0  0  0
  129.0360  128.1070   66.3000 C   0  0  0  0  0  0  0  0  0  0  0  0
  128.9840  128.5720   67.6190 C   0  0  0  0  0  0  0  0  0  0  0  0
  129.3500  127.7460   68.6890 C   0  0  0  0  0  0  0  0  0  0  0  0
  129.2990  128.2160   70.1150 C   0  0  0  0  0  0  0  0  0  0  0  0
  130.4170  128.8160   70.7160 C   0  0  0  0  0  0  0  0  0  0  0  0
  130.3770  129.2540   72.0370 C   0  0  0  0  0  0  0  0  0  0  0  0
  129.2120  129.0930   72.7810 C   0  0  0  0  0  0  0  0  0  0  0  0
  128.0910  128.4990   72.2130 C   0  0  0  0  0  0  0  0  0  0  0  0
  128.1360  128.0640   70.8920 C   0  0  0  0  0  0  0  0  0  0  0  0
  129.7530  126.4600   68.4980 N   0  0  0  0  0  0  0  0  0  0  0  0
  129.8040  126.0160   67.2430 C   0  0  0  0  0  0  0  0  0  0  0  0
  130.3120  124.3880   66.8540 S   0  0  0  0  0  0  0  0  0  0  0  0
  130.0810  124.6780   65.1280 C   0  0  0  0  0  0  0  0  0  0  0  0
  130.3650  123.6210   64.1570 C   0  0  0  0  0  0  0  0  0  0  0  0
  131.2460  122.7850   64.3740 O   0  0  0  0  0  0  0  0  0  0  0  0
  129.6090  123.6440   63.0320 N   0  0  0  0  0  0  0  0  0  0  0  0
  129.6780  122.7640   61.9610 C   0  0  0  0  0  0  0  0  0  0  0  0
  129.2350  122.9470   60.7350 N   0  0  0  0  0  0  0  0  0  0  0  0
  129.4710  121.8970   59.9730 C   0  0  0  0  0  0  0  0  0  0  0  0
  130.1230  120.8280   60.5810 C   0  0  0  0  0  0  0  0  0  0  0  0
  130.4390  121.2310   62.2430 S   0  0  0  0  0  0  0  0  0  0  0  0
  129.6340  125.9870   64.8910 C   0  0  0  0  0  0  0  0  0  0  0  0
  129.3750  126.4900   63.6410 N   0  0  0  0  0  0  0  0  0  0  0  0
  129.4650  126.7720   66.0840 C   0  0  0  0  0  0  0  0  0  0  0  0
  1  2  1  0
  2  3  2  0
  3  4  1  0
  4  5  1  0
  5  6  2  0
  6  7  1  0
  7  8  2  0
  8  9  1  0
  9 10  2  0
  4 11  2  0
 11 12  1  0
 12 13  1  0
 13 14  1  0
 14 15  1  0
 15 16  2  0
 15 17  1  0
 17 18  1  0
 18 19  2  0
 19 20  1  0
 20 21  2  0
 21 22  1  0
 14 23  2  0
 23 24  1  0
 23 25  1  0
 25  2  1  0
 10  5  1  0
 25 12  2  0
 22 18  1  0
M  END
>  <Binding energies>  (62) 
[-7.24]

>  <Ligand effiencies>  (62) 
[-0.25857142857142856]

>  <Interactions>  (62) 
["H-A:TYR:484:OH:4343, H-A:GLU:543:OE2:4905, V-A:GLU:543:CD:4903, V-A:GLU:543:CG:4902, V-A:GLY:544:C:4907, V-A:GLU:543:CB:4901, V-B:GLU:543:CG:9875, V-A:HIS:456:CE1:4064, V-A:GLY:544:CA:4909, V-B:HIS:456:CE1:9037, H-A:GLU:543:OE1:4904, V-B:GLU:543:CD:9876, V-A:GLU:543:C:4897, V-B:GLU:543:CB:9874, H-B:GLU:543:OE2:9878, V-A:LEU:475:CD2:4254, V-B:TYR:539:CD2:9842, V-A:TYR:484:CE1:4340, V-A:TYR:484:CZ:4342, V-B:ALA:541:CB:9860, V-B:HIS:456:CD2:9035, H-A:HIS:456:NE2:4065, V-A:LYS:547:CE:4945"]

$$$$
4ea_Grossjean_2025
     RDKit          3D

 31 34  0  0  0  0  0  0  0  0999 V2000
  130.7660  128.8790   71.1790 C   0  0  0  0  0  0  0  0  0  0  0  0
  129.3180  129.0130   71.6610 C   0  0  0  0  0  0  0  0  0  0  0  0
  128.4760  128.1970   70.8590 O   0  0  0  0  0  0  0  0  0  0  0  0
  128.7570  126.8840   70.6560 C   0  0  0  0  0  0  0  0  0  0  0  0
  128.6120  126.0160   71.5230 O   0  0  0  0  0  0  0  0  0  0  0  0
  129.2620  126.5920   69.2720 C   0  0  0  0  0  0  0  0  0  0  0  0
  129.6450  125.2850   68.9460 C   0  0  0  0  0  0  0  0  0  0  0  0
  130.1170  124.9820   67.6720 C   0  0  0  0  0  0  0  0  0  0  0  0
  130.2170  125.9770   66.6990 C   0  0  0  0  0  0  0  0  0  0  0  0
  130.7070  125.5560   65.4480 N   0  0  0  0  0  0  0  0  0  0  0  0
  131.9570  125.1870   65.0730 C   0  0  0  0  0  0  0  0  0  0  0  0
  132.9290  125.1640   65.8290 O   0  0  0  0  0  0  0  0  0  0  0  0
  132.0990  124.8030   63.6660 C   0  0  0  0  0  0  0  0  0  0  0  0
  133.7010  124.5900   62.9550 S   0  0  0  0  0  0  0  0  0  0  0  0
  133.0100  124.1760   61.4030 C   0  0  0  0  0  0  0  0  0  0  0  0
  133.7720  123.8800   60.3490 N   0  0  0  0  0  0  0  0  0  0  0  0
  133.1130  123.5760   59.2040 C   0  0  0  0  0  0  0  0  0  0  0  0
  133.9990  123.2430   58.0180 C   0  0  0  0  0  0  0  0  0  0  0  0
  131.7250  123.5620   59.0890 C   0  0  0  0  0  0  0  0  0  0  0  0
  130.9300  123.8730   60.1970 C   0  0  0  0  0  0  0  0  0  0  0  0
  129.4560  123.8530   60.0600 C   0  0  0  0  0  0  0  0  0  0  0  0
  128.6960  122.9140   60.7650 C   0  0  0  0  0  0  0  0  0  0  0  0
  127.3100  122.8960   60.6380 C   0  0  0  0  0  0  0  0  0  0  0  0
  126.6830  123.8160   59.8020 C   0  0  0  0  0  0  0  0  0  0  0  0
  127.4290  124.7530   59.0910 C   0  0  0  0  0  0  0  0  0  0  0  0
  128.8160  124.7690   59.2190 C   0  0  0  0  0  0  0  0  0  0  0  0
  131.5830  124.1970   61.4180 C   0  0  0  0  0  0  0  0  0  0  0  0
  131.0890  124.5580   62.7220 C   0  0  0  0  0  0  0  0  0  0  0  0
  129.7490  124.6490   62.9970 N   0  0  0  0  0  0  0  0  0  0  0  0
  129.8350  127.2900   67.0170 C   0  0  0  0  0  0  0  0  0  0  0  0
  129.3630  127.5910   68.2920 C   0  0  0  0  0  0  0  0  0  0  0  0
  1  2  1  0
  2  3  1  0
  3  4  1  0
  4  5  2  0
  4  6  1  0
  6  7  2  0
  7  8  1  0
  8  9  2  0
  9 10  1  0
 10 11  1  0
 11 12  2  0
 11 13  1  0
 13 14  1  0
 14 15  1  0
 15 16  2  0
 16 17  1  0
 17 18  1  0
 17 19  2  0
 19 20  1  0
 20 21  1  0
 21 22  2  0
 22 23  1  0
 23 24  2  0
 24 25  1  0
 25 26  2  0
 20 27  2  0
 27 28  1  0
 28 29  1  0
  9 30  1  0
 30 31  2  0
 31  6  1  0
 28 13  2  0
 27 15  1  0
 26 21  1  0
M  END
>  <Binding energies>  (63) 
[-7.47]

>  <Ligand effiencies>  (63) 
[-0.21970588235294117]

>  <Interactions>  (63) 
["H-A:TYR:484:OH:4343, V-A:ARG:545:CZ:4921, V-A:ASP:366:CG:3208, V-A:GLU:543:CD:4903, V-A:GLY:544:C:4907, V-B:GLU:543:CG:9875, V-A:HIS:456:CE1:4064, V-A:GLY:544:CA:4909, V-B:GLU:543:CD:9876, V-A:GLU:543:C:4897, V-B:GLU:543:CB:9874, H-B:GLU:543:OE2:9878, V-A:TYR:484:CE1:4340, V-B:TYR:539:CE2:9844, V-A:ASP:366:CB:3207, V-A:ILE:369:CD1:3234, V-B:GLU:543:C:9870, V-B:GLU:543:CA:9872, H-B:LYS:547:NZ:9919, V-B:HIS:456:CD2:9035, H-A:HIS:456:NE2:4065, V-B:PRO:540:CA:9851, V-A:ILE:369:CG2:3232, V-B:PRO:540:C:9849, V-A:ILE:369:CB:3231, V-A:ASP:366:C:3203, V-A:ASP:366:CA:3205, V-A:ILE:369:CG1:3233"]

$$$$
4eb_Grossjean_2025
     RDKit          3D

 30 33  0  0  0  0  0  0  0  0999 V2000
  130.1010  126.3890   72.6020 C   0  0  0  0  0  0  0  0  0  0  0  0
  128.8910  126.2630   71.8700 O   0  0  0  0  0  0  0  0  0  0  0  0
  128.5450  127.1790   70.9280 C   0  0  0  0  0  0  0  0  0  0  0  0
  127.8480  128.1690   71.1670 O   0  0  0  0  0  0  0  0  0  0  0  0
  129.0950  126.8660   69.5660 C   0  0  0  0  0  0  0  0  0  0  0  0
  129.3940  125.5370   69.2390 C   0  0  0  0  0  0  0  0  0  0  0  0
  129.9050  125.2150   67.9850 C   0  0  0  0  0  0  0  0  0  0  0  0
  130.1270  126.2120   67.0330 C   0  0  0  0  0  0  0  0  0  0  0  0
  130.6470  125.7700   65.8010 N   0  0  0  0  0  0  0  0  0  0  0  0
  131.9040  125.3950   65.4620 C   0  0  0  0  0  0  0  0  0  0  0  0
  132.8590  125.3840   66.2400 O   0  0  0  0  0  0  0  0  0  0  0  0
  132.0800  124.9880   64.0650 C   0  0  0  0  0  0  0  0  0  0  0  0
  133.6990  124.7520   63.4020 S   0  0  0  0  0  0  0  0  0  0  0  0
  133.0470  124.3190   61.8380 C   0  0  0  0  0  0  0  0  0  0  0  0
  133.8340  124.0010   60.8090 N   0  0  0  0  0  0  0  0  0  0  0  0
  133.2050  123.6850   59.6520 C   0  0  0  0  0  0  0  0  0  0  0  0
  134.1200  123.3260   58.4950 C   0  0  0  0  0  0  0  0  0  0  0  0
  131.8200  123.6790   59.4990 C   0  0  0  0  0  0  0  0  0  0  0  0
  130.9970  124.0130   60.5810 C   0  0  0  0  0  0  0  0  0  0  0  0
  129.5270  124.0020   60.4040 C   0  0  0  0  0  0  0  0  0  0  0  0
  128.7860  122.8710   60.7570 C   0  0  0  0  0  0  0  0  0  0  0  0
  127.4020  122.8600   60.5920 C   0  0  0  0  0  0  0  0  0  0  0  0
  126.7620  123.9820   60.0710 C   0  0  0  0  0  0  0  0  0  0  0  0
  127.4930  125.1130   59.7130 C   0  0  0  0  0  0  0  0  0  0  0  0
  128.8750  125.1220   59.8790 C   0  0  0  0  0  0  0  0  0  0  0  0
  131.6200  124.3510   61.8140 C   0  0  0  0  0  0  0  0  0  0  0  0
  131.0950  124.7360   63.0970 C   0  0  0  0  0  0  0  0  0  0  0  0
  129.7480  124.8410   63.3360 N   0  0  0  0  0  0  0  0  0  0  0  0
  129.8300  127.5460   67.3520 C   0  0  0  0  0  0  0  0  0  0  0  0
  129.3190  127.8660   68.6070 C   0  0  0  0  0  0  0  0  0  0  0  0
  1  2  1  0
  2  3  1  0
  3  4  2  0
  3  5  1  0
  5  6  2  0
  6  7  1  0
  7  8  2  0
  8  9  1  0
  9 10  1  0
 10 11  2  0
 10 12  1  0
 12 13  1  0
 13 14  1  0
 14 15  2  0
 15 16  1  0
 16 17  1  0
 16 18  2  0
 18 19  1  0
 19 20  1  0
 20 21  2  0
 21 22  1  0
 22 23  2  0
 23 24  1  0
 24 25  2  0
 19 26  2  0
 26 27  1  0
 27 28  1  0
  8 29  1  0
 29 30  2  0
 30  5  1  0
 27 12  2  0
 26 14  1  0
 25 20  1  0
M  END
>  <Binding energies>  (64) 
[-7.34]

>  <Ligand effiencies>  (64) 
[-0.2224242424242424]

>  <Interactions>  (64) 
["H-A:TYR:484:OH:4343, V-A:ARG:545:CZ:4921, V-A:ASP:366:CG:3208, V-A:GLU:543:CD:4903, V-B:GLU:543:CG:9875, V-A:HIS:456:CE1:4064, V-B:GLU:543:CD:9876, V-B:GLU:543:CB:9874, H-B:GLU:543:OE2:9878, V-A:ASP:366:CB:3207, V-A:ILE:369:CD1:3234, V-B:GLU:543:C:9870, V-B:GLU:543:CA:9872, H-B:LYS:547:NZ:9919, H-A:HIS:456:NE2:4065, V-B:PRO:540:CA:9851, V-A:ILE:369:CG2:3232, V-B:PRO:540:C:9849, V-A:ILE:369:CB:3231, V-A:ASP:366:C:3203, V-A:ASP:366:CA:3205, V-A:ILE:369:CG1:3233"]

$$$$
8b_Ghoteimi_2023
     RDKit          3D

 34 38  0  0  0  0  0  0  0  0999 V2000
  128.1760  130.5690   74.5670 C   0  0  0  0  0  0  0  0  0  0  0  0
  128.9930  129.4540   74.2260 O   0  0  0  0  0  0  0  0  0  0  0  0
  129.0980  129.0770   72.9010 C   0  0  0  0  0  0  0  0  0  0  0  0
  127.9700  128.4960   72.3260 C   0  0  0  0  0  0  0  0  0  0  0  0
  127.9840  128.0850   70.9970 C   0  0  0  0  0  0  0  0  0  0  0  0
  129.1310  128.2440   70.2060 C   0  0  0  0  0  0  0  0  0  0  0  0
  129.1530  127.8020   68.7770 C   0  0  0  0  0  0  0  0  0  0  0  0
  128.5810  128.5720   67.7590 C   0  0  0  0  0  0  0  0  0  0  0  0
  128.6160  128.1360   66.4310 C   0  0  0  0  0  0  0  0  0  0  0  0
  127.9920  128.9700   65.3780 C   0  0  0  0  0  0  0  0  0  0  0  0
  126.7770  128.5890   64.8070 C   0  0  0  0  0  0  0  0  0  0  0  0
  126.1870  129.3800   63.8240 C   0  0  0  0  0  0  0  0  0  0  0  0
  126.8030  130.5580   63.3960 C   0  0  0  0  0  0  0  0  0  0  0  0
  126.1450  131.2790   62.4180 O   0  0  0  0  0  0  0  0  0  0  0  0
  125.1020  130.6540   61.6780 C   0  0  0  0  0  0  0  0  0  0  0  0
  128.0270  130.9360   63.9690 C   0  0  0  0  0  0  0  0  0  0  0  0
  128.6150  130.1450   64.9530 C   0  0  0  0  0  0  0  0  0  0  0  0
  129.2530  126.8970   66.1500 C   0  0  0  0  0  0  0  0  0  0  0  0
  129.4720  126.1670   64.9280 C   0  0  0  0  0  0  0  0  0  0  0  0
  129.0400  126.6280   63.7110 N   0  0  0  0  0  0  0  0  0  0  0  0
  130.1620  124.9580   65.1050 C   0  0  0  0  0  0  0  0  0  0  0  0
  130.5560  123.9770   64.0920 C   0  0  0  0  0  0  0  0  0  0  0  0
  131.7270  123.6030   64.0000 O   0  0  0  0  0  0  0  0  0  0  0  0
  129.5540  123.5340   63.2910 N   0  0  0  0  0  0  0  0  0  0  0  0
  129.6420  122.6090   62.2600 C   0  0  0  0  0  0  0  0  0  0  0  0
  130.8480  122.0470   61.8420 C   0  0  0  0  0  0  0  0  0  0  0  0
  130.5100  121.1990   60.8130 C   0  0  0  0  0  0  0  0  0  0  0  0
  129.1710  121.2440   60.6220 O   0  0  0  0  0  0  0  0  0  0  0  0
  128.6300  122.1400   61.5470 N   0  0  0  0  0  0  0  0  0  0  0  0
  130.5620  124.6950   66.8030 S   0  0  0  0  0  0  0  0  0  0  0  0
  129.8040  126.2020   67.2640 C   0  0  0  0  0  0  0  0  0  0  0  0
  129.7690  126.6150   68.5300 N   0  0  0  0  0  0  0  0  0  0  0  0
  130.2620  128.8310   70.7890 C   0  0  0  0  0  0  0  0  0  0  0  0
  130.2510  129.2430   72.1190 C   0  0  0  0  0  0  0  0  0  0  0  0
  1  2  1  0
  2  3  1  0
  3  4  2  0
  4  5  1  0
  5  6  2  0
  6  7  1  0
  7  8  2  0
  8  9  1  0
  9 10  1  0
 10 11  2  0
 11 12  1  0
 12 13  2  0
 13 14  1  0
 14 15  1  0
 13 16  1  0
 16 17  2  0
  9 18  2  0
 18 19  1  0
 19 20  1  0
 19 21  2  0
 21 22  1  0
 22 23  2  0
 22 24  1  0
 24 25  1  0
 25 26  1  0
 26 27  2  0
 27 28  1  0
 28 29  1  0
 21 30  1  0
 30 31  1  0
 31 32  2  0
  6 33  1  0
 33 34  2  0
 34  3  1  0
 32  7  1  0
 17 10  1  0
 31 18  1  0
 29 25  2  0
M  END
>  <Binding energies>  (65) 
[-7.9]

>  <Ligand effiencies>  (65) 
[-0.21351351351351353]

>  <Interactions>  (65) 
["H-A:TYR:484:OH:4343, V-A:GLU:543:CD:4903, V-A:GLU:543:CG:4902, V-A:GLY:544:C:4907, V-B:GLU:543:CG:9875, V-A:HIS:456:CE1:4064, V-B:HIS:456:CE1:9037, V-B:GLU:543:CD:9876, V-A:GLU:543:C:4897, V-B:GLU:543:CB:9874, H-B:GLU:543:OE2:9878, H-B:GLU:543:OE1:9877, V-A:TYR:484:CE1:4340, V-A:TYR:484:CZ:4342, V-B:ALA:541:CB:9860, V-B:HIS:456:CD2:9035, H-A:LYS:547:NZ:4946, H-A:HIS:456:NE2:4065, V-B:HIS:456:CG:9033, V-A:LYS:547:CE:4945, H-B:ALA:541:N:9859"]

$$$$
9d_Ghoteimi_2023
     RDKit          3D

 38 43  0  0  0  0  0  0  0  0999 V2000
  123.0740  130.0430   66.3180 C   0  0  0  0  0  0  0  0  0  0  0  0
  123.7500  130.9840   65.4970 O   0  0  0  0  0  0  0  0  0  0  0  0
  124.0150  130.7070   64.1940 C   0  0  0  0  0  0  0  0  0  0  0  0
  123.3400  131.1230   63.2490 O   0  0  0  0  0  0  0  0  0  0  0  0
  125.2040  129.8430   64.0180 C   0  0  0  0  0  0  0  0  0  0  0  0
  125.5500  129.1360   62.4410 S   0  0  0  0  0  0  0  0  0  0  0  0
  126.9960  128.3710   63.0570 C   0  0  0  0  0  0  0  0  0  0  0  0
  127.7920  127.6490   62.2700 N   0  0  0  0  0  0  0  0  0  0  0  0
  128.9020  127.1110   62.8420 C   0  0  0  0  0  0  0  0  0  0  0  0
  129.7940  126.3260   61.9340 C   0  0  0  0  0  0  0  0  0  0  0  0
  131.1620  126.2170   62.2040 C   0  0  0  0  0  0  0  0  0  0  0  0
  132.0020  125.4910   61.3640 C   0  0  0  0  0  0  0  0  0  0  0  0
  131.5010  124.8360   60.2280 C   0  0  0  0  0  0  0  0  0  0  0  0
  132.3350  124.1170   59.3650 N   0  0  0  0  0  0  0  0  0  0  0  0
  132.3040  122.6410   59.3180 C   0  0  0  0  0  0  0  0  0  0  0  0
  133.5080  122.0140   58.5850 C   0  0  0  0  0  0  0  0  0  0  0  0
  133.6220  122.5620   57.2820 O   0  0  0  0  0  0  0  0  0  0  0  0
  133.8260  123.9640   57.3250 C   0  0  0  0  0  0  0  0  0  0  0  0
  132.6320  124.6540   58.0210 C   0  0  0  0  0  0  0  0  0  0  0  0
  130.1310  124.9620   59.9530 C   0  0  0  0  0  0  0  0  0  0  0  0
  129.2920  125.6910   60.7920 C   0  0  0  0  0  0  0  0  0  0  0  0
  129.1920  127.2680   64.1990 C   0  0  0  0  0  0  0  0  0  0  0  0
  128.3480  128.0090   65.0340 C   0  0  0  0  0  0  0  0  0  0  0  0
  128.6890  128.1210   66.4770 C   0  0  0  0  0  0  0  0  0  0  0  0
  129.0470  129.3520   67.0310 C   0  0  0  0  0  0  0  0  0  0  0  0
  129.3470  129.4560   68.3870 C   0  0  0  0  0  0  0  0  0  0  0  0
  129.2810  128.3330   69.2280 C   0  0  0  0  0  0  0  0  0  0  0  0
  129.5860  128.4090   70.5880 N   0  0  0  0  0  0  0  0  0  0  0  0
  129.4170  127.2080   71.4290 C   0  0  0  0  0  0  0  0  0  0  0  0
  130.1440  127.3090   72.7880 C   0  0  0  0  0  0  0  0  0  0  0  0
  129.7220  128.4750   73.4790 O   0  0  0  0  0  0  0  0  0  0  0  0
  130.0050  129.6540   72.7390 C   0  0  0  0  0  0  0  0  0  0  0  0
  129.2710  129.6120   71.3820 C   0  0  0  0  0  0  0  0  0  0  0  0
  128.9200  127.1020   68.6590 C   0  0  0  0  0  0  0  0  0  0  0  0
  128.6220  126.9990   67.3040 C   0  0  0  0  0  0  0  0  0  0  0  0
  127.2030  128.6160   64.4470 C   0  0  0  0  0  0  0  0  0  0  0  0
  126.1710  129.4780   64.9630 C   0  0  0  0  0  0  0  0  0  0  0  0
  126.1500  129.9200   66.2610 N   0  0  0  0  0  0  0  0  0  0  0  0
  1  2  1  0
  2  3  1  0
  3  4  2  0
  3  5  1  0
  5  6  1  0
  6  7  1  0
  7  8  2  0
  8  9  1  0
  9 10  1  0
 10 11  2  0
 11 12  1  0
 12 13  2  0
 13 14  1  0
 14 15  1  0
 15 16  1  0
 16 17  1  0
 17 18  1  0
 18 19  1  0
 13 20  1  0
 20 21  2  0
  9 22  2  0
 22 23  1  0
 23 24  1  0
 24 25  2  0
 25 26  1  0
 26 27  2  0
 27 28  1  0
 28 29  1  0
 29 30  1  0
 30 31  1  0
 31 32  1  0
 32 33  1  0
 27 34  1  0
 34 35  2  0
 23 36  2  0
 36 37  1  0
 37 38  1  0
 37  5  2  0
 36  7  1  0
 21 10  1  0
 35 24  1  0
 19 14  1  0
 33 28  1  0
M  END
>  <Binding energies>  (66) 
[-8.2]

>  <Ligand effiencies>  (66) 
[-0.205]

>  <Interactions>  (66) 
["V-A:ASP:366:CG:3208, V-A:GLU:543:CD:4903, V-A:GLU:543:CG:4902, V-A:GLU:543:CB:4901, V-A:GLU:543:CA:4899, V-A:HIS:456:CE1:4064, V-B:HIS:456:CE1:9037, V-B:GLU:543:CD:9876, V-A:GLU:543:C:4897, V-B:GLU:543:CB:9874, V-B:TYR:539:CE2:9844, V-B:ARG:545:CZ:9894, H-B:TYR:484:OH:9315, V-B:ARG:545:CD:9891, V-A:ASP:366:CB:3207, V-A:TYR:531:CZ:4789, V-B:ARG:545:CG:9890, H-B:GLY:454:N:9017, V-A:ILE:369:CD1:3234, H-B:LYS:547:NZ:9919, V-B:HIS:456:CD2:9035, H-A:LYS:547:NZ:4946, H-B:HIS:456:NE2:9038, V-A:LYS:547:CE:4945, V-B:GLY:453:CA:9011, V-A:ILE:369:CG2:3232, V-B:TYR:484:CZ:9314, V-B:GLY:453:C:9009, V-A:ILE:369:CB:3231, V-A:ASP:366:C:3203, V-A:ASP:366:CA:3205, V-A:ILE:369:CG1:3233, H-B:TYR:539:OH:9846"]

$$$$
RR10_Rahimova_2017
     RDKit          3D

 34 38  0  0  0  0  0  0  0  0999 V2000
  124.6600  119.7780   72.4150 C   0  0  0  0  0  0  0  0  0  0  0  0
  126.1620  119.6270   72.1220 C   0  0  1  0  0  0  0  0  0  0  0  0
  126.6390  120.6100   71.0280 C   0  0  0  0  0  0  0  0  0  0  0  0
  128.1420  120.4170   70.7260 C   0  0  0  0  0  0  0  0  0  0  0  0
  129.0200  120.6000   71.9910 C   0  0  1  0  0  0  0  0  0  0  0  0
  129.0050  121.9990   72.4380 N   0  0  0  0  0  0  0  0  0  0  0  0
  129.8230  122.9700   71.9910 C   0  0  0  0  0  0  0  0  0  0  0  0
  130.6760  122.7810   71.1210 O   0  0  0  0  0  0  0  0  0  0  0  0
  129.6600  124.3640   72.6320 C   0  0  1  0  0  0  0  0  0  0  0  0
  131.0060  124.7960   73.2710 C   0  0  0  0  0  0  0  0  0  0  0  0
  130.8740  126.2320   73.8340 C   0  0  0  0  0  0  0  0  0  0  0  0
  130.3250  127.2300   72.7880 C   0  0  0  0  0  0  0  0  0  0  0  0
  129.0710  126.7130   72.1760 N   0  0  0  0  0  0  0  0  0  0  0  0
  128.1950  127.8950   71.1890 S   0  0  0  0  0  0  0  0  0  0  0  0
  128.8530  129.1980   71.3470 O   0  0  0  0  0  0  0  0  0  0  0  0
  126.7630  127.7510   71.4770 O   0  0  0  0  0  0  0  0  0  0  0  0
  128.4710  127.3820   69.4940 C   0  0  0  0  0  0  0  0  0  0  0  0
  127.3980  127.3760   68.5970 C   0  0  0  0  0  0  0  0  0  0  0  0
  127.5450  126.9840   67.2630 C   0  0  0  0  0  0  0  0  0  0  0  0
  128.8270  126.5980   66.8650 C   0  0  0  0  0  0  0  0  0  0  0  0
  129.3630  126.1560   65.6780 N   0  0  0  0  0  0  0  0  0  0  0  0
  130.7070  125.9190   65.8810 C   0  0  0  0  0  0  0  0  0  0  0  0
  131.6330  125.4150   64.8120 C   0  0  0  0  0  0  0  0  0  0  0  0
  131.1220  124.9460   63.5940 C   0  0  0  0  0  0  0  0  0  0  0  0
  131.9790  124.4820   62.6000 C   0  0  0  0  0  0  0  0  0  0  0  0
  133.3540  124.4820   62.8190 C   0  0  0  0  0  0  0  0  0  0  0  0
  133.8780  124.9450   64.0230 C   0  0  0  0  0  0  0  0  0  0  0  0
  133.0190  125.4090   65.0160 C   0  0  0  0  0  0  0  0  0  0  0  0
  131.0730  126.1850   67.1160 N   0  0  0  0  0  0  0  0  0  0  0  0
  129.9330  126.6040   67.7490 C   0  0  0  0  0  0  0  0  0  0  0  0
  129.7540  127.0040   69.0810 C   0  0  0  0  0  0  0  0  0  0  0  0
  129.2260  125.3780   71.5450 C   0  0  0  0  0  0  0  0  0  0  0  0
  128.5200  119.6190   73.0860 C   0  0  0  0  0  0  0  0  0  0  0  0
  127.0190  119.8140   73.3960 C   0  0  0  0  0  0  0  0  0  0  0  0
  2  1  1  1
  2  3  1  0
  3  4  1  0
  4  5  1  0
  5  6  1  1
  6  7  1  0
  7  8  2  0
  9  7  1  6
  9 10  1  0
 10 11  1  0
 11 12  1  0
 12 13  1  0
 13 14  1  0
 14 15  2  0
 14 16  2  0
 14 17  1  0
 17 18  2  0
 18 19  1  0
 19 20  2  0
 20 21  1  0
 21 22  1  0
 22 23  1  0
 23 24  2  0
 24 25  1  0
 25 26  2  0
 26 27  1  0
 27 28  2  0
 22 29  2  0
 29 30  1  0
 30 31  2  0
 13 32  1  0
  5 33  1  0
 33 34  1  0
 34  2  1  0
 32  9  1  0
 31 17  1  0
 30 20  1  0
 28 23  1  0
M  END
>  <Binding energies>  (67) 
[-9.23]

>  <Ligand effiencies>  (67) 
[-0.2563888888888889]

>  <Interactions>  (67) 
["V-A:ARG:545:CZ:4921, V-A:ASP:366:CG:3208, V-B:GLU:543:CG:9875, V-A:HIS:456:CE1:4064, V-B:HIS:456:CE1:9037, V-B:GLU:543:CD:9876, V-B:GLU:543:CB:9874, H-B:GLU:543:OE2:9878, V-A:GLY:453:CA:4039, V-B:GLU:543:C:9870, V-B:GLU:543:CA:9872, H-B:LYS:547:NZ:9919, V-B:HIS:456:CD2:9035, V-B:GLY:544:CA:9882, V-A:TYR:484:CD1:4338, V-A:HIS:456:CG:4061, V-A:TYR:484:CB:4336, H-A:HIS:456:NE2:4065, V-B:LYS:547:CE:9918, V-A:TYR:484:CG:4337, V-B:VAL:542:C:9862, V-A:LYS:547:CE:4945, H-B:HIS:456:ND1:9034, V-B:VAL:542:CG1:9867"]

$$$$
RR12_Rahimova_2017
     RDKit          3D

 26 28  0  0  0  0  0  0  0  0999 V2000
  128.6740  133.3050   72.8580 C   0  0  0  0  0  0  0  0  0  0  0  0
  127.7610  133.3470   74.0900 C   0  0  0  0  0  0  0  0  0  0  0  0
  128.0720  132.2230   75.0950 C   0  0  0  0  0  0  0  0  0  0  0  0
  127.4380  130.9720   74.6860 N   0  0  0  0  0  0  0  0  0  0  0  0
  127.9950  129.9520   73.9290 C   0  0  0  0  0  0  0  0  0  0  0  0
  129.3960  129.9990   73.3450 C   0  0  0  0  0  0  0  0  0  0  0  0
  129.3910  129.9790   71.8050 C   0  0  0  0  0  0  0  0  0  0  0  0
  130.1400  128.7650   71.2230 C   0  0  0  0  0  0  0  0  0  0  0  0
  130.5320  127.7760   72.2270 N   0  0  0  0  0  0  0  0  0  0  0  0
  129.8740  126.6290   72.4790 C   0  0  0  0  0  0  0  0  0  0  0  0
  128.8520  126.2910   71.8790 O   0  0  0  0  0  0  0  0  0  0  0  0
  130.4820  125.7430   73.5730 C   0  0  0  0  0  0  0  0  0  0  0  0
  131.3580  126.5240   74.3870 O   0  0  0  0  0  0  0  0  0  0  0  0
  132.6060  126.0240   74.7110 C   0  0  0  0  0  0  0  0  0  0  0  0
  133.7030  126.6960   74.1670 C   0  0  0  0  0  0  0  0  0  0  0  0
  135.0000  126.2680   74.4390 C   0  0  0  0  0  0  0  0  0  0  0  0
  135.2020  125.1640   75.2610 C   0  0  0  0  0  0  0  0  0  0  0  0
  134.1200  124.4810   75.8110 C   0  0  0  0  0  0  0  0  0  0  0  0
  132.8230  124.9090   75.5370 C   0  0  0  0  0  0  0  0  0  0  0  0
  127.1860  128.9380   73.7470 N   0  0  0  0  0  0  0  0  0  0  0  0
  126.0470  129.2720   74.4270 C   0  0  0  0  0  0  0  0  0  0  0  0
  124.8610  128.5380   74.5750 C   0  0  0  0  0  0  0  0  0  0  0  0
  123.8320  129.0990   75.3320 C   0  0  0  0  0  0  0  0  0  0  0  0
  123.9710  130.3520   75.9290 C   0  0  0  0  0  0  0  0  0  0  0  0
  125.1380  131.1080   75.7980 C   0  0  0  0  0  0  0  0  0  0  0  0
  126.1710  130.5450   75.0370 C   0  0  0  0  0  0  0  0  0  0  0  0
  1  2  1  0
  2  3  1  0
  3  4  1  0
  4  5  1  0
  5  6  1  0
  6  7  1  0
  7  8  1  0
  8  9  1  0
  9 10  1  0
 10 11  2  0
 10 12  1  0
 12 13  1  0
 13 14  1  0
 14 15  2  0
 15 16  1  0
 16 17  2  0
 17 18  1  0
 18 19  2  0
  5 20  2  0
 20 21  1  0
 21 22  2  0
 22 23  1  0
 23 24  2  0
 24 25  1  0
 25 26  2  0
 26  4  1  0
 19 14  1  0
 26 21  1  0
M  END
>  <Binding energies>  (68) 
[-6.92]

>  <Ligand effiencies>  (68) 
[-0.2562962962962963]

>  <Interactions>  (68) 
["V-A:HIS:456:CE1:4064, H-A:HIS:456:ND1:4062, H-B:LYS:547:NZ:9919, V-B:HIS:456:CD2:9035, H-A:LYS:547:NZ:4946, V-A:HIS:456:CG:4061, V-B:LYS:547:CE:9918, V-B:TYR:484:CG:9309, V-B:ASP:473:CG:9207, V-B:HIS:456:CG:9033, V-B:TYR:484:CB:9308, V-B:HIS:456:CB:9032, V-B:ASP:473:CB:9206, V-A:LYS:547:CE:4945, V-A:HIS:456:CB:4060, H-A:GLY:544:O:4908, V-A:LYS:547:CG:4943, V-B:LYS:547:CD:9917, V-A:ARG:545:C:4912, V-A:LYS:547:CD:4944, V-A:VAL:458:CG2:4082, V-A:HIS:456:C:4056, V-A:HIS:456:CA:4058, V-A:VAL:457:C:4068, V-A:VAL:457:CA:4070, V-B:VAL:458:CG2:9054, V-B:HIS:456:C:9028, V-B:LYS:547:CG:9916, V-B:VAL:457:C:9040, V-B:HIS:456:CA:9030, V-B:VAL:457:CA:9042"]

$$$$
RR13_Rahimova_2017
     RDKit          3D

 48 54  0  0  0  0  0  0  0  0999 V2000
  128.5940  132.1850   62.8360 Cl  0  0  0  0  0  0  0  0  0  0  0  0
  127.0450  132.3870   62.0900 C   0  0  0  0  0  0  0  0  0  0  0  0
  126.8450  133.5230   61.3030 C   0  0  0  0  0  0  0  0  0  0  0  0
  125.6150  133.7540   60.6940 C   0  0  0  0  0  0  0  0  0  0  0  0
  124.5720  132.8480   60.8710 C   0  0  0  0  0  0  0  0  0  0  0  0
  124.7630  131.7120   61.6550 C   0  0  0  0  0  0  0  0  0  0  0  0
  126.0010  131.4560   62.2680 C   0  0  0  0  0  0  0  0  0  0  0  0
  126.1800  130.2030   63.1520 C   0  0  1  0  0  0  0  0  0  0  0  0
  125.1040  130.1410   64.2460 C   0  0  0  0  0  0  0  0  0  0  0  0
  124.0810  130.9540   64.3880 N   0  0  0  0  0  0  0  0  0  0  0  0
  123.4050  130.5230   65.5260 N   0  0  0  0  0  0  0  0  0  0  0  0
  124.0560  129.4380   66.0800 N   0  0  0  0  0  0  0  0  0  0  0  0
  125.1140  129.2370   65.2870 N   0  0  0  0  0  0  0  0  0  0  0  0
  126.0290  128.1310   65.5440 C   0  0  0  0  0  0  0  0  0  0  0  0
  127.4630  128.6580   65.7390 C   0  0  0  0  0  0  0  0  0  0  0  0
  127.9840  128.4010   67.1440 C   0  0  0  0  0  0  0  0  0  0  0  0
  128.9980  129.2060   67.6700 C   0  0  0  0  0  0  0  0  0  0  0  0
  129.4800  128.9640   68.9540 C   0  0  0  0  0  0  0  0  0  0  0  0
  128.9460  127.9190   69.7060 C   0  0  0  0  0  0  0  0  0  0  0  0
  127.9370  127.1130   69.1870 C   0  0  0  0  0  0  0  0  0  0  0  0
  127.4540  127.3530   67.9020 C   0  0  0  0  0  0  0  0  0  0  0  0
  126.2720  128.9420   62.3780 N   0  0  0  0  0  0  0  0  0  0  0  0
  127.6280  128.3710   62.4770 C   0  0  0  0  0  0  0  0  0  0  0  0
  127.6940  126.9900   61.7830 C   0  0  0  0  0  0  0  0  0  0  0  0
  127.3740  127.1130   60.3510 N   0  0  0  0  0  0  0  0  0  0  0  0
  127.5060  125.8260   59.6290 C   0  0  1  0  0  0  0  0  0  0  0  0
  128.9270  125.4860   59.1280 C   0  0  0  0  0  0  0  0  0  0  0  0
  129.9630  126.3510   59.5070 C   0  0  0  0  0  0  0  0  0  0  0  0
  131.2800  126.1130   59.1150 C   0  0  0  0  0  0  0  0  0  0  0  0
  131.5800  125.0040   58.3290 C   0  0  0  0  0  0  0  0  0  0  0  0
  130.5640  124.1430   57.9270 C   0  0  0  0  0  0  0  0  0  0  0  0
  129.2400  124.3740   58.3110 C   0  0  0  0  0  0  0  0  0  0  0  0
  128.0390  123.2850   57.7040 Cl  0  0  0  0  0  0  0  0  0  0  0  0
  126.9230  124.6410   60.4010 C   0  0  0  0  0  0  0  0  0  0  0  0
  125.6820  124.2190   60.3260 N   0  0  0  0  0  0  0  0  0  0  0  0
  125.6010  123.1190   61.1740 N   0  0  0  0  0  0  0  0  0  0  0  0
  126.8290  122.8760   61.7530 N   0  0  0  0  0  0  0  0  0  0  0  0
  127.6360  123.8150   61.2440 N   0  0  0  0  0  0  0  0  0  0  0  0
  129.0340  123.8780   61.6570 C   0  0  0  0  0  0  0  0  0  0  0  0
  129.4530  122.5630   62.3390 C   0  0  0  0  0  0  0  0  0  0  0  0
  130.3900  121.7390   61.4690 C   0  0  0  0  0  0  0  0  0  0  0  0
  131.5910  122.2930   61.0180 C   0  0  0  0  0  0  0  0  0  0  0  0
  132.4520  121.5360   60.2270 C   0  0  0  0  0  0  0  0  0  0  0  0
  132.1090  120.2270   59.8910 C   0  0  0  0  0  0  0  0  0  0  0  0
  130.9120  119.6700   60.3390 C   0  0  0  0  0  0  0  0  0  0  0  0
  130.0520  120.4250   61.1300 C   0  0  0  0  0  0  0  0  0  0  0  0
  126.0160  127.6790   60.2570 C   0  0  0  0  0  0  0  0  0  0  0  0
  125.9580  129.0630   60.9430 C   0  0  0  0  0  0  0  0  0  0  0  0
  1  2  1  0
  2  3  2  0
  3  4  1  0
  4  5  2  0
  5  6  1  0
  6  7  2  0
  7  8  1  0
  8  9  1  0
  9 10  2  0
 10 11  1  0
 11 12  2  0
 12 13  1  0
 13 14  1  0
 14 15  1  0
 15 16  1  0
 16 17  2  0
 17 18  1  0
 18 19  2  0
 19 20  1  0
 20 21  2  0
  8 22  1  6
 22 23  1  0
 23 24  1  0
 24 25  1  0
 26 25  1  1
 26 27  1  0
 27 28  2  0
 28 29  1  0
 29 30  2  0
 30 31  1  0
 31 32  2  0
 32 33  1  0
 26 34  1  0
 34 35  2  0
 35 36  1  0
 36 37  2  0
 37 38  1  0
 38 39  1  0
 39 40  1  0
 40 41  1  0
 41 42  2  0
 42 43  1  0
 43 44  2  0
 44 45  1  0
 45 46  2  0
 25 47  1  0
 47 48  1  0
  7  2  1  0
 13  9  1  0
 21 16  1  0
 48 22  1  0
 32 27  1  0
 38 34  1  0
 46 41  1  0
M  END
>  <Binding energies>  (69) 
[-11.87]

>  <Ligand effiencies>  (69) 
[-0.24729166666666666]

>  <Interactions>  (69) 
["V-A:ASP:366:CG:3208, V-A:GLU:543:CG:4902, V-A:GLU:543:CB:4901, V-B:HIS:456:CE1:9037, V-B:GLU:543:CD:9876, V-A:GLU:543:C:4897, V-B:GLU:543:CB:9874, V-A:LEU:475:CD2:4254, V-B:TYR:539:CD2:9842, V-A:TRP:381:CZ2:3365, V-A:TRP:381:CH2:3367, V-B:TYR:539:CE2:9844, V-B:ALA:541:CB:9860, V-B:ARG:545:CZ:9894, H-B:TYR:484:OH:9315, V-B:ARG:545:CD:9891, V-A:ALA:541:CB:4887, V-A:TYR:539:CE2:4871, H-B:GLY:454:N:9017, V-B:GLU:543:C:9870, H-B:ARG:545:NH2:9896, H-B:ARG:545:NE:9892, V-B:ASP:366:CG:8180, V-B:ILE:369:CD1:8206, V-B:LEU:475:CD2:9226, V-A:TYR:539:CD2:4869, H-B:ALA:541:N:9859"]

$$$$
RR14_Rahimova_2017
     RDKit          3D

 39 43  0  0  0  0  0  0  0  0999 V2000
  130.1350  119.3670   61.0110 C   0  0  0  0  0  0  0  0  0  0  0  0
  131.4310  119.9290   60.8290 O   0  0  0  0  0  0  0  0  0  0  0  0
  131.7040  121.1750   61.3600 C   0  0  0  0  0  0  0  0  0  0  0  0
  130.6180  121.8860   61.8720 C   0  0  0  0  0  0  0  0  0  0  0  0
  130.7920  123.1590   62.4040 C   0  0  0  0  0  0  0  0  0  0  0  0
  132.0620  123.7400   62.4240 C   0  0  0  0  0  0  0  0  0  0  0  0
  132.2460  125.1600   62.9460 C   0  0  0  0  0  0  0  0  0  0  0  0
  132.5600  125.2160   64.3730 N   0  0  0  0  0  0  0  0  0  0  0  0
  133.8170  125.0440   64.7970 N   0  0  0  0  0  0  0  0  0  0  0  0
  133.7390  125.1280   66.1730 N   0  0  0  0  0  0  0  0  0  0  0  0
  132.4210  125.3440   66.5650 N   0  0  0  0  0  0  0  0  0  0  0  0
  131.7220  125.3870   65.4550 C   0  0  0  0  0  0  0  0  0  0  0  0
  130.2140  125.5800   65.3740 C   0  0  0  0  0  0  0  0  0  0  0  0
  129.7950  126.9210   65.8140 N   0  0  0  0  0  0  0  0  0  0  0  0
  129.3720  127.7610   64.6860 C   0  0  0  0  0  0  0  0  0  0  0  0
  127.8430  127.7730   64.4710 C   0  0  0  0  0  0  0  0  0  0  0  0
  127.2620  129.1830   64.2320 C   0  0  0  0  0  0  0  0  0  0  0  0
  125.8050  129.2460   64.3940 N   0  0  0  0  0  0  0  0  0  0  0  0
  125.2160  130.1240   63.3760 C   0  0  0  0  0  0  0  0  0  0  0  0
  123.6880  130.2540   63.5510 C   0  0  0  0  0  0  0  0  0  0  0  0
  123.3810  130.6790   64.8750 O   0  0  0  0  0  0  0  0  0  0  0  0
  123.8560  129.7670   65.8580 C   0  0  0  0  0  0  0  0  0  0  0  0
  125.3890  129.6240   65.7540 C   0  0  0  0  0  0  0  0  0  0  0  0
  128.7180  126.8130   66.8090 C   0  0  0  0  0  0  0  0  0  0  0  0
  129.0370  127.3450   68.2040 C   0  0  0  0  0  0  0  0  0  0  0  0
  129.2350  126.5020   69.2460 C   0  0  0  0  0  0  0  0  0  0  0  0
  129.5060  126.9910   70.6130 C   0  0  0  0  0  0  0  0  0  0  0  0
  129.7350  126.1450   71.7120 C   0  0  0  0  0  0  0  0  0  0  0  0
  129.7210  124.6290   71.5690 C   0  0  0  0  0  0  0  0  0  0  0  0
  129.9850  126.7110   72.9650 C   0  0  0  0  0  0  0  0  0  0  0  0
  130.0080  128.0950   73.1290 C   0  0  0  0  0  0  0  0  0  0  0  0
  129.7830  128.9450   72.0420 C   0  0  0  0  0  0  0  0  0  0  0  0
  129.8160  130.4530   72.2530 C   0  0  0  0  0  0  0  0  0  0  0  0
  129.5310  128.3880   70.7790 C   0  0  0  0  0  0  0  0  0  0  0  0
  129.2960  129.2060   69.6540 N   0  0  0  0  0  0  0  0  0  0  0  0
  129.0430  128.8010   68.3840 C   0  0  0  0  0  0  0  0  0  0  0  0
  128.8400  129.6280   67.4950 O   0  0  0  0  0  0  0  0  0  0  0  0
  133.1600  123.0250   61.9410 C   0  0  0  0  0  0  0  0  0  0  0  0
  132.9840  121.7520   61.4080 C   0  0  0  0  0  0  0  0  0  0  0  0
  1  2  1  0
  2  3  1  0
  3  4  2  0
  4  5  1  0
  5  6  2  0
  6  7  1  0
  7  8  1  0
  8  9  1  0
  9 10  2  0
 10 11  1  0
 11 12  2  0
 12 13  1  0
 13 14  1  0
 14 15  1  0
 15 16  1  0
 16 17  1  0
 17 18  1  0
 18 19  1  0
 19 20  1  0
 20 21  1  0
 21 22  1  0
 22 23  1  0
 14 24  1  0
 24 25  1  0
 25 26  2  0
 26 27  1  0
 27 28  2  0
 28 29  1  0
 28 30  1  0
 30 31  2  0
 31 32  1  0
 32 33  1  0
 32 34  2  0
 34 35  1  0
 35 36  1  0
 36 37  2  0
  6 38  1  0
 38 39  2  0
 39  3  1  0
 12  8  1  0
 23 18  1  0
 36 25  1  0
 34 27  1  0
M  END
>  <Binding energies>  (70) 
[-9.66]

>  <Ligand effiencies>  (70) 
[-0.2415]

>  <Interactions>  (70) 
["H-A:TYR:484:OH:4343, V-A:ARG:545:CZ:4921, H-A:GLY:454:N:4045, V-A:GLU:543:CD:4903, V-A:GLU:543:CB:4901, V-B:GLU:543:CG:9875, V-A:HIS:456:CE1:4064, V-A:GLY:544:CA:4909, V-B:HIS:456:CE1:9037, V-B:GLU:543:CD:9876, V-A:GLU:543:C:4897, V-B:GLU:543:CB:9874, V-A:LEU:475:CD2:4254, V-A:TRP:381:CH2:3367, V-B:ALA:541:CB:9860, V-B:ARG:545:CZ:9894, V-B:ARG:545:CD:9891, V-B:ARG:545:CG:9890, H-B:GLY:454:N:9017, V-A:ILE:369:CD1:3234, V-B:HIS:456:CD2:9035, H-A:HIS:456:NE2:4065, V-B:LYS:547:CE:9918, H-A:GLU:543:O:4898, H-B:HIS:456:NE2:9038, H-A:ARG:545:NE:4919, V-A:LYS:547:CE:4945"]

$$$$
RR15_Rahimova_2017
     RDKit          3D

 45 49  0  0  0  0  0  0  0  0999 V2000
  129.1830  132.7830   57.9760 C   0  0  0  0  0  0  0  0  0  0  0  0
  129.3380  133.3790   59.2600 O   0  0  0  0  0  0  0  0  0  0  0  0
  128.8310  132.7370   60.3760 C   0  0  0  0  0  0  0  0  0  0  0  0
  127.4590  132.6120   60.6450 C   0  0  0  0  0  0  0  0  0  0  0  0
  127.0160  131.9540   61.7890 C   0  0  0  0  0  0  0  0  0  0  0  0
  127.9260  131.4060   62.6990 C   0  0  0  0  0  0  0  0  0  0  0  0
  127.4470  130.7020   63.9380 C   0  0  0  0  0  0  0  0  0  0  0  0
  126.1650  130.4720   64.1860 N   0  0  0  0  0  0  0  0  0  0  0  0
  126.1220  129.8230   65.4030 N   0  0  0  0  0  0  0  0  0  0  0  0
  127.4060  129.6970   65.7370 N   0  0  0  0  0  0  0  0  0  0  0  0
  127.8200  129.2020   67.0490 C   0  0  0  0  0  0  0  0  0  0  0  0
  127.6010  127.6850   67.2700 C   0  0  0  0  0  0  0  0  0  0  0  0
  126.4660  127.2950   67.5560 O   0  0  0  0  0  0  0  0  0  0  0  0
  128.6490  126.8190   67.1130 N   0  0  0  0  0  0  0  0  0  0  0  0
  128.9840  126.2490   65.7930 C   0  0  0  0  0  0  0  0  0  0  0  0
  129.6750  127.2520   64.8440 C   0  0  0  0  0  0  0  0  0  0  0  0
  130.4520  126.6070   63.6730 C   0  0  0  0  0  0  0  0  0  0  0  0
  131.8560  126.3190   63.9830 N   0  0  0  0  0  0  0  0  0  0  0  0
  132.0660  125.8300   65.3540 C   0  0  0  0  0  0  0  0  0  0  0  0
  133.5450  125.4610   65.6020 C   0  0  0  0  0  0  0  0  0  0  0  0
  133.9890  124.5280   64.6230 O   0  0  0  0  0  0  0  0  0  0  0  0
  133.8830  125.0400   63.2980 C   0  0  0  0  0  0  0  0  0  0  0  0
  132.4130  125.3940   62.9870 C   0  0  0  0  0  0  0  0  0  0  0  0
  129.6460  126.5320   68.1900 C   0  0  2  0  0  0  0  0  0  0  0  0
  130.0190  125.0220   68.3260 C   0  0  0  0  0  0  0  0  0  0  0  0
  130.5550  124.4140   67.3990 O   0  0  0  0  0  0  0  0  0  0  0  0
  129.7540  124.4630   69.5200 N   0  0  0  0  0  0  0  0  0  0  0  0
  130.1070  123.1030   69.9110 C   0  0  0  0  0  0  0  0  0  0  0  0
  130.1190  122.9500   71.4430 C   0  0  2  0  0  0  0  0  0  0  0  0
  129.3860  121.7110   71.9880 C   0  0  0  0  0  0  0  0  0  0  0  0
  128.0590  122.2410   72.4760 C   0  0  0  0  0  0  0  0  0  0  0  0
  128.4500  123.6260   72.9620 C   0  0  0  0  0  0  0  0  0  0  0  0
  129.3660  124.0560   71.9610 O   0  0  0  0  0  0  0  0  0  0  0  0
  129.2910  127.2850   69.4670 C   0  0  0  0  0  0  0  0  0  0  0  0
  130.1690  128.2790   69.9130 C   0  0  0  0  0  0  0  0  0  0  0  0
  129.8960  128.9990   71.0720 C   0  0  0  0  0  0  0  0  0  0  0  0
  128.7390  128.7290   71.7960 C   0  0  0  0  0  0  0  0  0  0  0  0
  128.4730  129.4280   72.9230 F   0  0  0  0  0  0  0  0  0  0  0  0
  127.8520  127.7440   71.3680 C   0  0  0  0  0  0  0  0  0  0  0  0
  128.1270  127.0250   70.2090 C   0  0  0  0  0  0  0  0  0  0  0  0
  128.2620  130.2630   64.8780 N   0  0  0  0  0  0  0  0  0  0  0  0
  129.2950  131.5310   62.4270 C   0  0  0  0  0  0  0  0  0  0  0  0
  129.7580  132.1880   61.2740 C   0  0  0  0  0  0  0  0  0  0  0  0
  131.0990  132.3340   60.9610 O   0  0  0  0  0  0  0  0  0  0  0  0
  131.9550  131.1970   60.9890 C   0  0  0  0  0  0  0  0  0  0  0  0
  1  2  1  0
  2  3  1  0
  3  4  2  0
  4  5  1  0
  5  6  2  0
  6  7  1  0
  7  8  1  0
  8  9  2  0
  9 10  1  0
 10 11  1  0
 11 12  1  0
 12 13  2  0
 12 14  1  0
 14 15  1  0
 15 16  1  0
 16 17  1  0
 17 18  1  0
 18 19  1  0
 19 20  1  0
 20 21  1  0
 21 22  1  0
 22 23  1  0
 24 14  1  6
 24 25  1  0
 25 26  2  0
 25 27  1  0
 27 28  1  0
 29 28  1  6
 29 30  1  0
 30 31  1  0
 31 32  1  0
 32 33  1  0
 24 34  1  0
 34 35  2  0
 35 36  1  0
 36 37  2  0
 37 38  1  0
 37 39  1  0
 39 40  2  0
 10 41  1  0
  6 42  1  0
 42 43  2  0
 43 44  1  0
 44 45  1  0
 43  3  1  0
 41  7  2  0
 23 18  1  0
 33 29  1  0
 40 34  1  0
M  END
>  <Binding energies>  (71) 
[-8.67]

>  <Ligand effiencies>  (71) 
[-0.1884782608695652]

>  <Interactions>  (71) 
["V-A:ARG:545:CD:4918, H-A:TYR:484:OH:4343, V-A:ARG:545:CZ:4921, V-A:ARG:545:CG:4917, H-A:GLY:454:N:4045, V-A:PRO:540:CA:4878, V-A:ASP:366:CG:3208, V-A:GLU:543:CD:4903, V-A:PRO:540:CB:4880, V-A:GLU:543:CG:4902, V-B:GLU:543:CG:9875, V-A:HIS:456:CE1:4064, V-B:HIS:456:CE1:9037, V-B:GLU:543:CD:9876, V-B:GLU:543:CB:9874, V-A:TYR:484:CE1:4340, V-A:TYR:484:CZ:4342, H-B:TYR:484:OH:9315, H-A:ALA:541:N:4886, V-A:PRO:540:N:4879, V-A:HIS:456:CD2:4063, V-B:GLU:543:C:9870, V-B:GLU:543:CA:9872, H-B:GLU:543:O:9871, V-B:HIS:456:CD2:9035, V-B:GLY:544:CA:9882, V-A:TYR:484:CD1:4338, V-A:TYR:484:CD2:4339, V-A:TYR:484:CB:4336, H-A:HIS:456:NE2:4065, V-B:LYS:547:CE:9918, V-A:TYR:484:CG:4337, V-A:TYR:539:CD2:4869, H-A:ARG:545:NH2:4923, V-A:TYR:539:CE1:4870, V-A:TYR:539:CD1:4868, V-A:TYR:539:CG:4867, V-A:TYR:539:C:4862, V-A:TYR:484:CE2:4341"]

$$$$
RR17_Rahimova_2017
     RDKit          3D

 38 41  0  0  0  0  0  0  0  0999 V2000
  125.5200  129.9350   75.2950 C   0  0  0  0  0  0  0  0  0  0  0  0
  126.7760  130.3550   74.5250 C   0  0  0  0  0  0  0  0  0  0  0  0
  127.6240  129.2190   74.3790 O   0  0  0  0  0  0  0  0  0  0  0  0
  128.3260  129.0440   73.2010 C   0  0  0  0  0  0  0  0  0  0  0  0
  129.6280  129.5420   73.1720 C   0  0  0  0  0  0  0  0  0  0  0  0
  130.4110  129.4140   72.0300 C   0  0  0  0  0  0  0  0  0  0  0  0
  129.9040  128.7830   70.8850 C   0  0  0  0  0  0  0  0  0  0  0  0
  130.7730  128.6580   69.6670 C   0  0  0  0  0  0  0  0  0  0  0  0
  131.9730  128.9480   69.6780 O   0  0  0  0  0  0  0  0  0  0  0  0
  130.0960  128.1620   68.3700 C   0  0  0  0  0  0  0  0  0  0  0  0
  129.7390  126.3690   68.4220 S   0  0  0  0  0  0  0  0  0  0  0  0
  130.3080  125.8990   66.8120 C   0  0  0  0  0  0  0  0  0  0  0  0
  131.2920  125.0660   66.5660 N   0  0  0  0  0  0  0  0  0  0  0  0
  131.4220  124.9550   65.1880 N   0  0  0  0  0  0  0  0  0  0  0  0
  130.5070  125.7230   64.6510 C   0  0  0  0  0  0  0  0  0  0  0  0
  130.2880  125.8880   63.1540 C   0  0  0  0  0  0  0  0  0  0  0  0
  129.7170  124.7100   62.5080 N   0  0  0  0  0  0  0  0  0  0  0  0
  130.4860  123.6450   62.0060 C   0  0  0  0  0  0  0  0  0  0  0  0
  129.8030  122.5840   61.4110 C   0  0  0  0  0  0  0  0  0  0  0  0
  130.5020  121.4950   60.8980 C   0  0  0  0  0  0  0  0  0  0  0  0
  131.8970  121.4570   60.9710 C   0  0  0  0  0  0  0  0  0  0  0  0
  132.6500  120.2510   60.4090 C   0  0  0  0  0  0  0  0  0  0  0  0
  133.8630  120.1150   60.9490 F   0  0  0  0  0  0  0  0  0  0  0  0
  131.9690  119.1280   60.6410 F   0  0  0  0  0  0  0  0  0  0  0  0
  132.7920  120.4000   59.0920 F   0  0  0  0  0  0  0  0  0  0  0  0
  132.5850  122.5230   61.5600 C   0  0  0  0  0  0  0  0  0  0  0  0
  131.8850  123.6120   62.0710 C   0  0  0  0  0  0  0  0  0  0  0  0
  129.7710  126.3610   65.6270 N   0  0  0  0  0  0  0  0  0  0  0  0
  128.7010  127.2520   65.4530 C   0  0  0  0  0  0  0  0  0  0  0  0
  127.5370  127.0820   66.2020 C   0  0  0  0  0  0  0  0  0  0  0  0
  126.4730  127.9630   66.0270 C   0  0  0  0  0  0  0  0  0  0  0  0
  126.5710  129.0150   65.1020 C   0  0  0  0  0  0  0  0  0  0  0  0
  125.5700  129.9360   64.8620 O   0  0  0  0  0  0  0  0  0  0  0  0
  124.4680  130.0150   65.7610 C   0  0  0  0  0  0  0  0  0  0  0  0
  127.7440  129.1680   64.3590 C   0  0  0  0  0  0  0  0  0  0  0  0
  128.8120  128.2920   64.5310 C   0  0  0  0  0  0  0  0  0  0  0  0
  128.5950  128.2810   70.9150 C   0  0  0  0  0  0  0  0  0  0  0  0
  127.8130  128.4100   72.0600 C   0  0  0  0  0  0  0  0  0  0  0  0
  1  2  1  0
  2  3  1  0
  3  4  1  0
  4  5  2  0
  5  6  1  0
  6  7  2  0
  7  8  1  0
  8  9  2  0
  8 10  1  0
 10 11  1  0
 11 12  1  0
 12 13  2  0
 13 14  1  0
 14 15  2  0
 15 16  1  0
 16 17  1  0
 17 18  1  0
 18 19  2  0
 19 20  1  0
 20 21  2  0
 21 22  1  0
 22 23  1  0
 22 24  1  0
 22 25  1  0
 21 26  1  0
 26 27  2  0
 15 28  1  0
 28 29  1  0
 29 30  2  0
 30 31  1  0
 31 32  2  0
 32 33  1  0
 33 34  1  0
 32 35  1  0
 35 36  2  0
  7 37  1  0
 37 38  2  0
 38  4  1  0
 28 12  1  0
 36 29  1  0
 27 18  1  0
M  END
>  <Binding energies>  (72) 
[-7.3]

>  <Ligand effiencies>  (72) 
[-0.18717948717948718]

>  <Interactions>  (72) 
["H-A:TYR:484:OH:4343, V-A:GLU:543:CD:4903, V-A:GLY:544:C:4907, V-A:GLU:543:CB:4901, V-B:GLU:543:CG:9875, V-A:HIS:456:CE1:4064, V-A:GLY:544:CA:4909, V-B:HIS:456:CE1:9037, V-B:GLU:543:CD:9876, V-A:GLU:543:C:4897, V-B:GLU:543:CB:9874, H-B:GLU:543:OE2:9878, V-A:LEU:475:CD2:4254, V-B:TYR:539:CD2:9842, V-A:TRP:381:CZ3:3366, V-A:TRP:381:CZ2:3365, V-A:TRP:381:CH2:3367, V-B:TYR:539:CE2:9844, H-B:TYR:484:OH:9315, V-B:ARG:545:CD:9891, V-A:ILE:369:CD1:3234, H-B:LYS:547:NZ:9919, V-B:HIS:456:CD2:9035, H-A:HIS:456:NE2:4065, V-B:HIS:456:CG:9033, V-B:HIS:456:CB:9032, V-A:LYS:547:CE:4945, V-A:ILE:369:CG2:3232, H-A:GLY:544:N:4910, H-A:ARG:545:N:4915"]

$$$$
RR19_Rahimova_2017
     RDKit          3D

 46 51  0  0  0  0  0  0  0  0999 V2000
  129.6100  127.6560   67.3480 O   0  0  0  0  0  0  0  0  0  0  0  0
  129.0700  127.4740   66.2530 C   0  0  0  0  0  0  0  0  0  0  0  0
  129.3020  126.4330   65.4130 N   0  0  0  0  0  0  0  0  0  0  0  0
  129.9600  125.2370   65.5640 C   0  0  0  0  0  0  0  0  0  0  0  0
  130.5060  124.5910   67.0300 S   0  0  0  0  0  0  0  0  0  0  0  0
  130.0990  124.6540   64.3290 N   0  0  0  0  0  0  0  0  0  0  0  0
  130.5350  123.4330   63.9280 C   0  0  0  0  0  0  0  0  0  0  0  0
  130.7510  122.4590   64.6530 O   0  0  0  0  0  0  0  0  0  0  0  0
  130.7860  123.3250   62.4030 C   0  0  2  0  0  0  0  0  0  0  0  0
  132.1370  123.9290   61.9200 C   0  0  0  0  0  0  0  0  0  0  0  0
  132.4270  123.7620   60.4370 C   0  0  0  0  0  0  0  0  0  0  0  0
  132.1310  124.7940   59.5200 C   0  0  0  0  0  0  0  0  0  0  0  0
  132.4750  124.6560   58.1830 C   0  0  0  0  0  0  0  0  0  0  0  0
  133.1280  123.5110   57.7420 C   0  0  0  0  0  0  0  0  0  0  0  0
  133.4530  122.5000   58.6380 C   0  0  0  0  0  0  0  0  0  0  0  0
  133.1190  122.6200   59.9800 C   0  0  0  0  0  0  0  0  0  0  0  0
  129.6370  123.8660   61.6260 N   0  0  0  0  0  0  0  0  0  0  0  0
  128.6130  123.0620   61.2230 C   0  0  0  0  0  0  0  0  0  0  0  0
  128.5030  121.8470   61.3990 O   0  0  0  0  0  0  0  0  0  0  0  0
  127.6540  123.9570   60.5290 C   0  0  0  0  0  0  0  0  0  0  0  0
  126.4340  123.6870   59.9100 C   0  0  0  0  0  0  0  0  0  0  0  0
  125.7260  124.7470   59.3330 C   0  0  0  0  0  0  0  0  0  0  0  0
  126.2410  126.0500   59.3820 C   0  0  0  0  0  0  0  0  0  0  0  0
  127.4670  126.3000   60.0090 C   0  0  0  0  0  0  0  0  0  0  0  0
  128.1570  125.2290   60.5770 C   0  0  0  0  0  0  0  0  0  0  0  0
  129.4500  125.1810   61.3040 C   0  0  0  0  0  0  0  0  0  0  0  0
  130.1910  126.1300   61.5660 O   0  0  0  0  0  0  0  0  0  0  0  0
  128.0340  128.5040   65.7300 C   0  0  2  0  0  0  0  0  0  0  0  0
  126.6060  127.9180   65.5340 C   0  0  0  0  0  0  0  0  0  0  0  0
  125.6370  128.8700   64.8570 C   0  0  0  0  0  0  0  0  0  0  0  0
  125.5580  128.9180   63.4480 C   0  0  0  0  0  0  0  0  0  0  0  0
  124.6000  129.7140   62.8340 C   0  0  0  0  0  0  0  0  0  0  0  0
  123.7000  130.4450   63.5980 C   0  0  0  0  0  0  0  0  0  0  0  0
  123.7410  130.3770   64.9860 C   0  0  0  0  0  0  0  0  0  0  0  0
  124.6910  129.5880   65.6200 C   0  0  0  0  0  0  0  0  0  0  0  0
  128.4930  129.2420   64.5180 N   0  0  0  0  0  0  0  0  0  0  0  0
  128.7910  128.5960   63.3560 C   0  0  0  0  0  0  0  0  0  0  0  0
  128.7490  127.3830   63.1440 O   0  0  0  0  0  0  0  0  0  0  0  0
  129.1770  129.6640   62.4010 C   0  0  0  0  0  0  0  0  0  0  0  0
  129.5840  129.5940   61.0670 C   0  0  0  0  0  0  0  0  0  0  0  0
  129.8880  130.7840   60.3970 C   0  0  0  0  0  0  0  0  0  0  0  0
  129.7800  132.0150   61.0580 C   0  0  0  0  0  0  0  0  0  0  0  0
  129.3680  132.0640   62.3950 C   0  0  0  0  0  0  0  0  0  0  0  0
  129.0710  130.8650   63.0460 C   0  0  0  0  0  0  0  0  0  0  0  0
  128.6160  130.6000   64.4320 C   0  0  0  0  0  0  0  0  0  0  0  0
  128.3940  131.4270   65.3160 O   0  0  0  0  0  0  0  0  0  0  0  0
  1  2  2  0
  2  3  1  0
  3  4  1  0
  4  5  2  0
  4  6  1  0
  6  7  1  0
  7  8  2  0
  7  9  1  0
  9 10  1  1
 10 11  1  0
 11 12  2  0
 12 13  1  0
 13 14  2  0
 14 15  1  0
 15 16  2  0
  9 17  1  0
 17 18  1  0
 18 19  2  0
 18 20  1  0
 20 21  2  0
 21 22  1  0
 22 23  2  0
 23 24  1  0
 24 25  2  0
 25 26  1  0
 26 27  2  0
  2 28  1  0
 28 29  1  6
 29 30  1  0
 30 31  2  0
 31 32  1  0
 32 33  2  0
 33 34  1  0
 34 35  2  0
 28 36  1  0
 36 37  1  0
 37 38  2  0
 37 39  1  0
 39 40  2  0
 40 41  1  0
 41 42  2  0
 42 43  1  0
 43 44  2  0
 44 45  1  0
 45 46  2  0
 16 11  1  0
 26 17  1  0
 35 30  1  0
 45 36  1  0
 25 20  1  0
 44 39  1  0
M  END
>  <Binding energies>  (73) 
[-10.18]

>  <Ligand effiencies>  (73) 
[-0.21208333333333332]

>  <Interactions>  (73) 
["H-A:TYR:484:OH:4343, V-A:PRO:540:CA:4878, V-A:ASP:366:CG:3208, V-A:GLU:543:CD:4903, V-A:GLU:543:CG:4902, V-B:GLU:543:CG:9875, V-A:HIS:456:CE1:4064, V-B:HIS:456:CE1:9037, V-B:GLU:543:CD:9876, V-B:GLU:543:CB:9874, H-B:GLU:543:OE2:9878, V-A:TYR:484:CE1:4340, V-A:TYR:484:CZ:4342, V-B:TYR:539:CE2:9844, V-B:ARG:545:CZ:9894, H-B:TYR:484:OH:9315, V-B:ARG:545:CD:9891, V-A:ASP:366:CB:3207, V-A:ALA:541:CB:4887, V-A:ILE:369:CD1:3234, V-B:PRO:540:CB:9853, V-B:PRO:540:CA:9851, V-B:ASP:366:CG:8180, V-B:GLY:453:CA:9011, V-A:ILE:369:CG2:3232, V-B:GLY:454:CA:9016, H-B:ALA:541:N:9859, V-A:ILE:369:CB:3231, V-B:TYR:539:CZ:9845"]

$$$$
RR1_Rahimova_2017
     RDKit          3D

 41 44  0  0  0  0  0  0  0  0999 V2000
  136.0940  123.5020   75.7800 C   0  0  0  0  0  0  0  0  0  0  0  0
  135.1130  124.3660   76.3410 O   0  0  0  0  0  0  0  0  0  0  0  0
  134.3260  125.1290   75.5000 C   0  0  0  0  0  0  0  0  0  0  0  0
  134.7770  126.2650   74.8080 C   0  0  0  0  0  0  0  0  0  0  0  0
  133.9080  126.9770   73.9870 C   0  0  0  0  0  0  0  0  0  0  0  0
  132.5820  126.5670   73.8360 C   0  0  0  0  0  0  0  0  0  0  0  0
  131.7710  127.3780   73.0210 N   0  0  0  0  0  0  0  0  0  0  0  0
  130.4950  127.7790   73.2120 C   0  0  0  0  0  0  0  0  0  0  0  0
  129.7810  127.4210   74.1490 O   0  0  0  0  0  0  0  0  0  0  0  0
  129.9610  128.7440   72.1430 C   0  0  0  0  0  0  0  0  0  0  0  0
  128.6490  128.0710   71.0640 S   0  0  0  0  0  0  0  0  0  0  0  0
  129.2220  126.4060   71.0000 C   0  0  0  0  0  0  0  0  0  0  0  0
  129.2880  125.6110   72.0380 N   0  0  0  0  0  0  0  0  0  0  0  0
  129.7550  124.4720   71.5360 C   0  0  0  0  0  0  0  0  0  0  0  0
  129.9800  123.2520   72.3840 C   0  0  0  0  0  0  0  0  0  0  0  0
  131.1000  122.4250   72.1980 C   0  0  0  0  0  0  0  0  0  0  0  0
  131.2810  121.2970   73.0000 C   0  0  0  0  0  0  0  0  0  0  0  0
  130.3300  121.0180   73.9800 C   0  0  0  0  0  0  0  0  0  0  0  0
  129.2370  121.7950   74.1870 N   0  0  0  0  0  0  0  0  0  0  0  0
  129.0790  122.8880   73.3970 C   0  0  0  0  0  0  0  0  0  0  0  0
  130.0020  124.4840   70.2390 N   0  0  0  0  0  0  0  0  0  0  0  0
  129.6610  125.7280   69.8920 N   0  0  0  0  0  0  0  0  0  0  0  0
  129.7610  126.1650   68.5000 C   0  0  0  0  0  0  0  0  0  0  0  0
  128.4470  126.6750   67.8820 C   0  0  0  0  0  0  0  0  0  0  0  0
  127.4030  126.6970   68.5450 O   0  0  0  0  0  0  0  0  0  0  0  0
  128.5390  127.0750   66.6000 N   0  0  0  0  0  0  0  0  0  0  0  0
  127.4330  127.6830   66.0230 N   0  0  0  0  0  0  0  0  0  0  0  0
  127.6510  128.6170   65.0720 C   0  0  0  0  0  0  0  0  0  0  0  0
  128.7650  128.8890   64.6110 O   0  0  0  0  0  0  0  0  0  0  0  0
  126.4160  129.3260   64.5530 C   0  0  0  0  0  0  0  0  0  0  0  0
  126.4160  129.8790   63.2680 C   0  0  0  0  0  0  0  0  0  0  0  0
  125.2980  130.5450   62.7770 C   0  0  0  0  0  0  0  0  0  0  0  0
  124.1420  130.6840   63.5630 C   0  0  0  0  0  0  0  0  0  0  0  0
  123.0030  131.3450   63.1400 O   0  0  0  0  0  0  0  0  0  0  0  0
  122.1790  130.7540   62.1410 C   0  0  0  0  0  0  0  0  0  0  0  0
  124.1250  130.1430   64.8550 C   0  0  0  0  0  0  0  0  0  0  0  0
  122.9690  130.3250   65.5960 O   0  0  0  0  0  0  0  0  0  0  0  0
  123.0060  130.1610   67.0090 C   0  0  0  0  0  0  0  0  0  0  0  0
  125.2590  129.4660   65.3370 C   0  0  0  0  0  0  0  0  0  0  0  0
  132.1280  125.4320   74.5250 C   0  0  0  0  0  0  0  0  0  0  0  0
  133.0010  124.7220   75.3450 C   0  0  0  0  0  0  0  0  0  0  0  0
  1  2  1  0
  2  3  1  0
  3  4  2  0
  4  5  1  0
  5  6  2  0
  6  7  1  0
  7  8  1  0
  8  9  2  0
  8 10  1  0
 10 11  1  0
 11 12  1  0
 12 13  2  0
 13 14  1  0
 14 15  1  0
 15 16  2  0
 16 17  1  0
 17 18  2  0
 18 19  1  0
 19 20  2  0
 14 21  2  0
 21 22  1  0
 22 23  1  0
 23 24  1  0
 24 25  2  0
 24 26  1  0
 26 27  1  0
 27 28  1  0
 28 29  2  0
 28 30  1  0
 30 31  2  0
 31 32  1  0
 32 33  2  0
 33 34  1  0
 34 35  1  0
 33 36  1  0
 36 37  1  0
 37 38  1  0
 36 39  2  0
  6 40  1  0
 40 41  2  0
 41  3  1  0
 22 12  1  0
 39 30  1  0
 20 15  1  0
M  END
>  <Binding energies>  (74) 
[-8.48]

>  <Ligand effiencies>  (74) 
[-0.19272727272727275]

>  <Interactions>  (74) 
["V-A:GLY:544:C:4907, V-B:GLU:543:CG:9875, V-A:HIS:456:CE1:4064, V-B:HIS:456:CE1:9037, H-A:GLU:543:OE1:4904, V-B:GLU:543:CD:9876, V-B:GLU:543:CB:9874, V-B:ARG:545:CZ:9894, V-B:ARG:545:CD:9891, V-B:ARG:545:CG:9890, H-B:GLY:454:N:9017, V-B:GLU:543:C:9870, H-A:HIS:456:ND1:4062, H-B:LYS:547:NZ:9919, H-A:LYS:547:NZ:4946, V-A:TYR:484:CD2:4339, V-A:HIS:456:CG:4061, V-A:TYR:484:CB:4336, H-A:HIS:456:NE2:4065, V-B:LYS:547:CE:9918, V-A:TYR:484:CG:4337, V-A:LYS:547:CE:4945, V-B:ILE:369:CD1:8206, V-B:GLY:453:CA:9011, V-A:ASP:473:CG:4235, V-A:ASP:473:CB:4234, V-A:HIS:456:CB:4060, H-A:GLY:544:O:4908, V-A:LYS:547:CG:4943, V-A:ARG:545:C:4912, V-A:LYS:547:CD:4944, V-B:GLY:453:C:9009, V-A:VAL:458:CG2:4082, V-A:HIS:456:C:4056, V-A:VAL:457:C:4068, V-A:VAL:457:CA:4070, V-B:ILE:455:C:9019, V-A:LYS:471:C:4208, V-A:LYS:471:CB:4212, V-A:LYS:471:CG:4213"]

$$$$
RR22_Rahimova_2017
     RDKit          3D

 31 36  0  0  0  0  0  0  0  0999 V2000
  134.8230  125.2030   64.9030 O   0  0  0  0  0  0  0  0  0  0  0  0
  133.6310  125.1490   64.6090 C   0  0  0  0  0  0  0  0  0  0  0  0
  132.6030  125.9340   65.1030 N   0  0  0  0  0  0  0  0  0  0  0  0
  131.2690  125.7830   64.6090 C   0  0  1  0  0  0  0  0  0  0  0  0
  130.4670  125.5270   65.7650 O   0  0  0  0  0  0  0  0  0  0  0  0
  129.4290  126.4120   66.0610 C   0  0  0  0  0  0  0  0  0  0  0  0
  128.9160  126.3580   67.3570 C   0  0  0  0  0  0  0  0  0  0  0  0
  127.8500  127.1840   67.7160 C   0  0  0  0  0  0  0  0  0  0  0  0
  127.2950  128.0540   66.7780 C   0  0  0  0  0  0  0  0  0  0  0  0
  127.8080  128.1080   65.4800 C   0  0  0  0  0  0  0  0  0  0  0  0
  128.8920  127.3040   65.1140 C   0  0  0  0  0  0  0  0  0  0  0  0
  129.4910  127.2560   63.7260 C   0  0  1  0  0  0  0  0  0  0  0  0
  129.5270  128.4650   62.8130 C   0  0  0  0  0  0  0  0  0  0  0  0
  130.8000  128.1550   62.0190 C   0  0  0  0  0  0  0  0  0  0  0  0
  131.1120  128.8000   60.7280 C   0  0  0  0  0  0  0  0  0  0  0  0
  130.3720  128.4880   59.5780 C   0  0  0  0  0  0  0  0  0  0  0  0
  130.6690  129.1000   58.3630 C   0  0  0  0  0  0  0  0  0  0  0  0
  131.7070  130.0250   58.2900 C   0  0  0  0  0  0  0  0  0  0  0  0
  132.4510  130.3450   59.4230 C   0  0  0  0  0  0  0  0  0  0  0  0
  132.1540  129.7360   60.6390 C   0  0  0  0  0  0  0  0  0  0  0  0
  131.5330  127.3050   62.6350 N   0  0  0  0  0  0  0  0  0  0  0  0
  130.8920  126.9800   63.8420 N   0  0  0  0  0  0  0  0  0  0  0  0
  131.2570  124.5150   63.7680 C   0  0  0  0  0  0  0  0  0  0  0  0
  130.1180  123.8690   63.4240 C   0  0  0  0  0  0  0  0  0  0  0  0
  129.9630  122.6520   62.6040 C   0  0  0  0  0  0  0  0  0  0  0  0
  130.8630  121.5770   62.6480 C   0  0  0  0  0  0  0  0  0  0  0  0
  130.6520  120.4570   61.8420 C   0  0  0  0  0  0  0  0  0  0  0  0
  129.5400  120.4430   61.0010 C   0  0  0  0  0  0  0  0  0  0  0  0
  128.6580  121.4710   60.9300 N   0  0  0  0  0  0  0  0  0  0  0  0
  128.8800  122.5510   61.7230 C   0  0  0  0  0  0  0  0  0  0  0  0
  132.9080  123.9830   63.4160 S   0  0  0  0  0  0  0  0  0  0  0  0
  1  2  2  0
  2  3  1  0
  4  3  1  1
  4  5  1  0
  5  6  1  0
  6  7  2  0
  7  8  1  0
  8  9  2  0
  9 10  1  0
 10 11  2  0
 11 12  1  0
 12 13  1  1
 13 14  1  0
 14 15  1  0
 15 16  2  0
 16 17  1  0
 17 18  2  0
 18 19  1  0
 19 20  2  0
 14 21  2  0
 21 22  1  0
  4 23  1  0
 23 24  2  0
 24 25  1  0
 25 26  2  0
 26 27  1  0
 27 28  2  0
 28 29  1  0
 29 30  2  0
 23 31  1  0
 31  2  1  0
 22  4  1  0
 30 25  1  0
 11  6  1  0
 22 12  1  0
 20 15  1  0
M  END
>  <Binding energies>  (75) 
[-8.47]

>  <Ligand effiencies>  (75) 
[-0.2646875]

>  <Interactions>  (75) 
["H-A:TYR:484:OH:4343, V-A:ARG:545:CZ:4921, H-A:GLY:454:N:4045, V-A:GLU:543:CD:4903, V-A:PRO:540:CB:4880, V-B:GLU:543:CG:9875, V-B:HIS:456:CE1:9037, H-A:GLU:543:OE1:4904, V-B:GLU:543:CD:9876, V-B:GLU:543:CB:9874, V-A:LEU:475:CD2:4254, V-B:ALA:541:CB:9860, H-A:ARG:545:NE:4919, V-B:PRO:540:C:9849, V-B:ALA:541:CA:9858, H-A:ARG:545:NH1:4922, H-A:ARG:545:NH2:4923, H-B:ALA:541:N:9859"]

$$$$
RR24_Rahimova_2017
     RDKit          3D

 43 49  0  0  0  0  0  0  0  0999 V2000
  127.7470  134.8500   61.8300 C   0  0  0  0  0  0  0  0  0  0  0  0
  127.7090  133.3220   61.9690 C   0  0  2  0  0  0  0  0  0  0  0  0
  127.5520  132.8420   63.4420 C   0  0  0  0  0  0  0  0  0  0  0  0
  128.2160  133.3270   64.3640 O   0  0  0  0  0  0  0  0  0  0  0  0
  126.6400  131.8340   63.5690 O   0  0  0  0  0  0  0  0  0  0  0  0
  127.0280  130.6320   64.1160 C   0  0  0  0  0  0  0  0  0  0  0  0
  128.3570  130.4530   64.5040 C   0  0  0  0  0  0  0  0  0  0  0  0
  128.7590  129.2450   65.0670 C   0  0  0  0  0  0  0  0  0  0  0  0
  127.8320  128.2150   65.2530 C   0  0  0  0  0  0  0  0  0  0  0  0
  128.2850  126.8800   65.8560 C   0  0  1  0  0  0  0  0  0  0  0  0
  129.6750  126.4510   65.3320 C   0  0  0  0  0  0  0  0  0  0  0  0
  130.6820  126.0900   66.1490 C   0  0  0  0  0  0  0  0  0  0  0  0
  130.5470  126.0780   67.5160 N   0  0  0  0  0  0  0  0  0  0  0  0
  129.3660  126.4390   68.1210 C   0  0  0  0  0  0  0  0  0  0  0  0
  129.3950  126.3650   69.4760 N   0  0  0  0  0  0  0  0  0  0  0  0
  128.3460  126.7580   70.2490 C   0  0  0  0  0  0  0  0  0  0  0  0
  128.5290  126.9720   71.4490 O   0  0  0  0  0  0  0  0  0  0  0  0
  127.1910  127.0370   69.5350 N   0  0  0  0  0  0  0  0  0  0  0  0
  125.9960  127.3800   70.3320 C   0  0  0  0  0  0  0  0  0  0  0  0
  127.0520  127.1410   68.1610 C   0  0  0  0  0  0  0  0  0  0  0  0
  125.9990  127.4460   67.5930 O   0  0  0  0  0  0  0  0  0  0  0  0
  128.2740  126.8310   67.4130 C   0  0  0  0  0  0  0  0  0  0  0  0
  131.8670  125.7380   65.3860 C   0  0  0  0  0  0  0  0  0  0  0  0
  133.1450  125.3130   65.7530 C   0  0  0  0  0  0  0  0  0  0  0  0
  134.0880  125.0480   64.7570 C   0  0  0  0  0  0  0  0  0  0  0  0
  133.7520  125.2060   63.4090 C   0  0  0  0  0  0  0  0  0  0  0  0
  132.4710  125.6320   63.0470 C   0  0  0  0  0  0  0  0  0  0  0  0
  131.5330  125.8960   64.0470 C   0  0  0  0  0  0  0  0  0  0  0  0
  130.1290  126.3480   63.9490 C   0  0  0  0  0  0  0  0  0  0  0  0
  129.4500  126.5970   62.9550 O   0  0  0  0  0  0  0  0  0  0  0  0
  126.4970  128.4040   64.8810 C   0  0  0  0  0  0  0  0  0  0  0  0
  126.0950  129.6120   64.3190 C   0  0  0  0  0  0  0  0  0  0  0  0
  128.8590  132.6670   61.2770 N   0  0  0  0  0  0  0  0  0  0  0  0
  128.8610  132.4700   59.9280 C   0  0  0  0  0  0  0  0  0  0  0  0
  127.9750  132.7710   59.1270 O   0  0  0  0  0  0  0  0  0  0  0  0
  130.1590  131.8150   59.6280 C   0  0  0  0  0  0  0  0  0  0  0  0
  130.7040  131.3800   58.4190 C   0  0  0  0  0  0  0  0  0  0  0  0
  131.9720  130.7880   58.4310 C   0  0  0  0  0  0  0  0  0  0  0  0
  132.6710  130.6410   59.6350 C   0  0  0  0  0  0  0  0  0  0  0  0
  132.1080  131.0840   60.8370 C   0  0  0  0  0  0  0  0  0  0  0  0
  130.8420  131.6710   60.8050 C   0  0  0  0  0  0  0  0  0  0  0  0
  130.0000  132.2300   61.8920 C   0  0  0  0  0  0  0  0  0  0  0  0
  130.2750  132.2910   63.0910 O   0  0  0  0  0  0  0  0  0  0  0  0
  2  1  1  1
  2  3  1  0
  3  4  2  0
  3  5  1  0
  5  6  1  0
  6  7  2  0
  7  8  1  0
  8  9  2  0
 10  9  1  1
 10 11  1  0
 11 12  2  0
 12 13  1  0
 13 14  1  0
 14 15  1  0
 15 16  1  0
 16 17  2  0
 16 18  1  0
 18 19  1  0
 18 20  1  0
 20 21  2  0
 20 22  1  0
 12 23  1  0
 23 24  2  0
 24 25  1  0
 25 26  2  0
 26 27  1  0
 27 28  2  0
 28 29  1  0
 29 30  2  0
  9 31  1  0
 31 32  2  0
  2 33  1  0
 33 34  1  0
 34 35  2  0
 34 36  1  0
 36 37  2  0
 37 38  1  0
 38 39  2  0
 39 40  1  0
 40 41  2  0
 41 42  1  0
 42 43  2  0
 32  6  1  0
 42 33  1  0
 22 10  1  0
 28 23  1  0
 41 36  1  0
 29 11  1  0
 22 14  2  0
M  END
>  <Binding energies>  (76) 
[-10.32]

>  <Ligand effiencies>  (76) 
[-0.22933333333333333]

>  <Interactions>  (76) 
["V-A:ARG:545:CD:4918, V-A:ARG:545:CZ:4921, V-A:PRO:540:CA:4878, V-A:ASP:366:CG:3208, V-A:GLU:543:CD:4903, V-A:PRO:540:CB:4880, V-A:GLU:543:CG:4902, V-B:GLU:543:CG:9875, V-A:HIS:456:CE1:4064, V-B:HIS:456:CE1:9037, V-B:GLU:543:CD:9876, V-B:GLU:543:CB:9874, H-B:TYR:484:OH:9315, H-A:ALA:541:N:4886, V-A:ALA:541:CB:4887, V-A:GLY:453:C:4037, V-A:GLY:453:CA:4039, V-B:GLU:543:C:9870, H-B:GLU:543:O:9871, H-A:HIS:456:ND1:4062, H-B:LYS:547:NZ:9919, V-B:HIS:456:CD2:9035, V-B:GLY:544:CA:9882, V-B:HIS:456:CG:9033, V-B:LEU:475:CD2:9226, V-B:GLY:544:C:9880, V-B:ARG:545:CA:9887"]

$$$$
RR25_Rahimova_2017
     RDKit          3D

 39 44  0  0  0  0  0  0  0  0999 V2000
  129.7670  123.1330   65.7870 O   0  0  0  0  0  0  0  0  0  0  0  0
  130.4950  123.4830   64.8570 C   0  0  0  0  0  0  0  0  0  0  0  0
  130.9140  122.4890   64.0070 O   0  0  0  0  0  0  0  0  0  0  0  0
  131.5200  122.7800   62.7990 C   0  0  0  0  0  0  0  0  0  0  0  0
  131.4080  121.8210   61.7940 C   0  0  0  0  0  0  0  0  0  0  0  0
  132.0020  122.0450   60.5530 C   0  0  0  0  0  0  0  0  0  0  0  0
  132.7170  123.2260   60.3020 C   0  0  0  0  0  0  0  0  0  0  0  0
  133.3420  123.4660   58.9780 N   0  0  0  0  0  0  0  0  0  0  0  0
  133.9190  122.5340   58.4220 O   0  0  0  0  0  0  0  0  0  0  0  0
  133.2600  124.5870   58.4850 O   0  0  0  0  0  0  0  0  0  0  0  0
  132.8280  124.1740   61.3320 C   0  0  0  0  0  0  0  0  0  0  0  0
  132.2450  123.9610   62.5840 C   0  0  0  0  0  0  0  0  0  0  0  0
  132.3280  124.9580   63.7250 C   0  0  0  0  0  0  0  0  0  0  0  0
  131.0110  124.9190   64.5510 C   0  0  2  0  0  0  0  0  0  0  0  0
  131.0970  125.8590   65.7880 C   0  0  0  0  0  0  0  0  0  0  0  0
  132.2100  125.9660   66.3120 O   0  0  0  0  0  0  0  0  0  0  0  0
  130.0390  126.6220   66.1980 N   0  0  0  0  0  0  0  0  0  0  0  0
  128.6410  126.3160   65.8280 C   0  0  0  0  0  0  0  0  0  0  0  0
  127.8820  127.6400   65.6000 C   0  0  0  0  0  0  0  0  0  0  0  0
  127.9810  128.5210   66.7680 N   0  0  0  0  0  0  0  0  0  0  0  0
  127.1510  129.7230   66.6070 C   0  0  0  0  0  0  0  0  0  0  0  0
  126.1410  129.6050   65.4350 C   0  0  0  0  0  0  0  0  0  0  0  0
  126.2510  130.6420   64.3680 N   0  0  0  0  0  0  0  0  0  0  0  0
  125.0560  131.1990   63.9620 C   0  0  0  0  0  0  0  0  0  0  0  0
  123.9590  130.8500   64.4140 O   0  0  0  0  0  0  0  0  0  0  0  0
  125.1910  132.2970   62.9250 C   0  0  0  0  0  0  0  0  0  0  0  0
  124.0420  132.9500   62.4610 C   0  0  0  0  0  0  0  0  0  0  0  0
  124.1300  133.9690   61.5150 C   0  0  0  0  0  0  0  0  0  0  0  0
  125.3640  134.3700   61.0050 C   0  0  0  0  0  0  0  0  0  0  0  0
  126.5520  133.7380   61.4440 C   0  0  0  0  0  0  0  0  0  0  0  0
  127.8370  134.0950   60.9700 C   0  0  0  0  0  0  0  0  0  0  0  0
  128.9670  133.4350   61.4470 C   0  0  0  0  0  0  0  0  0  0  0  0
  128.8560  132.4170   62.3910 C   0  0  0  0  0  0  0  0  0  0  0  0
  127.6050  132.0290   62.8890 C   0  0  0  0  0  0  0  0  0  0  0  0
  126.4500  132.6980   62.4090 C   0  0  0  0  0  0  0  0  0  0  0  0
  127.5270  130.9220   63.9230 C   0  0  0  0  0  0  0  0  0  0  0  0
  128.5340  130.3400   64.3380 O   0  0  0  0  0  0  0  0  0  0  0  0
  129.3830  128.8620   67.0150 C   0  0  0  0  0  0  0  0  0  0  0  0
  130.2380  127.6010   67.2910 C   0  0  0  0  0  0  0  0  0  0  0  0
  1  2  2  0
  2  3  1  0
  3  4  1  0
  4  5  2  0
  5  6  1  0
  6  7  2  0
  7  8  1  0
  8  9  2  0
  8 10  1  0
  7 11  1  0
 11 12  2  0
 12 13  1  0
 13 14  1  0
 14 15  1  1
 15 16  2  0
 15 17  1  0
 17 18  1  0
 18 19  1  0
 19 20  1  0
 20 21  1  0
 21 22  1  0
 22 23  1  0
 23 24  1  0
 24 25  2  0
 24 26  1  0
 26 27  2  0
 27 28  1  0
 28 29  2  0
 29 30  1  0
 30 31  2  0
 31 32  1  0
 32 33  2  0
 33 34  1  0
 34 35  2  0
 34 36  1  0
 36 37  2  0
 20 38  1  0
 38 39  1  0
 14  2  1  0
 39 17  1  0
 12  4  1  0
 36 23  1  0
 35 26  1  0
 35 30  1  0
M  CHG  2   8   1  10  -1
M  END
>  <Binding energies>  (77) 
[-9.72]

>  <Ligand effiencies>  (77) 
[-0.24923076923076926]

>  <Interactions>  (77) 
["H-A:TYR:484:OH:4343, V-A:PRO:540:CA:4878, V-A:ASP:366:CG:3208, V-A:GLU:543:CD:4903, V-A:GLU:543:CG:4902, V-A:GLU:543:CB:4901, V-B:GLU:543:CG:9875, V-A:HIS:456:CE1:4064, V-B:HIS:456:CE1:9037, V-B:GLU:543:CD:9876, V-B:GLU:543:CB:9874, V-A:LEU:475:CD2:4254, V-A:TYR:484:CE1:4340, V-A:TYR:484:CZ:4342, H-B:TYR:484:OH:9315, V-A:PRO:540:C:4876, V-A:ASP:366:CB:3207, V-A:ALA:541:CB:4887, V-A:TYR:539:CE2:4871, H-B:GLY:454:N:9017, V-A:ILE:369:CD1:3234, H-A:TYR:531:OH:4790, H-A:HIS:456:NE2:4065, V-B:ILE:369:CD1:8206, V-B:ILE:369:CG2:8204, V-B:LEU:475:CD2:9226, V-A:TYR:539:CD2:4869, V-B:TYR:484:CZ:9314, V-B:TRP:381:CH2:8339, V-B:GLY:454:CA:9016"]

$$$$
RR27_Rahimova_2017
     RDKit          3D

 39 44  0  0  0  0  0  0  0  0999 V2000
  130.3100  132.2720   61.2520 O   0  0  0  0  0  0  0  0  0  0  0  0
  129.4380  131.4140   61.0890 C   0  0  0  0  0  0  0  0  0  0  0  0
  128.0010  131.7150   61.6060 C   0  0  0  0  0  0  0  0  0  0  0  0
  127.6240  133.2060   61.5130 C   0  0  0  0  0  0  0  0  0  0  0  0
  126.3690  133.6250   61.0470 C   0  0  0  0  0  0  0  0  0  0  0  0
  126.0610  134.9800   60.9780 C   0  0  0  0  0  0  0  0  0  0  0  0
  127.0060  135.9230   61.3730 C   0  0  0  0  0  0  0  0  0  0  0  0
  128.2560  135.5230   61.8350 C   0  0  0  0  0  0  0  0  0  0  0  0
  128.5640  134.1670   61.9040 C   0  0  0  0  0  0  0  0  0  0  0  0
  127.7390  131.0640   62.9780 C   0  0  0  0  0  0  0  0  0  0  0  0
  128.7200  131.0300   63.9770 C   0  0  0  0  0  0  0  0  0  0  0  0
  128.4540  130.4230   65.2020 C   0  0  0  0  0  0  0  0  0  0  0  0
  127.2080  129.8440   65.4300 C   0  0  0  0  0  0  0  0  0  0  0  0
  126.2270  129.8620   64.4420 C   0  0  0  0  0  0  0  0  0  0  0  0
  126.4950  130.4670   63.2180 C   0  0  0  0  0  0  0  0  0  0  0  0
  129.6660  130.2940   60.3460 N   0  0  0  0  0  0  0  0  0  0  0  0
  128.7630  129.1330   60.3300 C   0  0  0  0  0  0  0  0  0  0  0  0
  129.1920  128.2170   61.4970 C   0  0  0  0  0  0  0  0  0  0  0  0
  130.7020  127.8230   61.4320 C   0  0  0  0  0  0  0  0  0  0  0  0
  131.2070  127.0020   62.6330 C   0  0  0  0  0  0  0  0  0  0  0  0
  132.4340  126.4180   62.4960 N   0  0  0  0  0  0  0  0  0  0  0  0
  132.9390  125.7030   63.5390 C   0  0  0  0  0  0  0  0  0  0  0  0
  134.1570  125.0760   63.5240 O   0  0  0  0  0  0  0  0  0  0  0  0
  132.1740  125.5940   64.7170 C   0  0  0  0  0  0  0  0  0  0  0  0
  132.3770  124.9760   65.9160 N   0  0  0  0  0  0  0  0  0  0  0  0
  131.2580  125.2120   66.6930 N   0  0  0  0  0  0  0  0  0  0  0  0
  130.3890  125.9670   65.9890 N   0  0  0  0  0  0  0  0  0  0  0  0
  129.1010  126.3470   66.5640 C   0  0  0  0  0  0  0  0  0  0  0  0
  129.2200  127.1630   67.8440 C   0  0  0  0  0  0  0  0  0  0  0  0
  130.3080  128.0220   68.0340 C   0  0  0  0  0  0  0  0  0  0  0  0
  130.4110  128.7780   69.2020 C   0  0  0  0  0  0  0  0  0  0  0  0
  129.4250  128.6840   70.1840 C   0  0  0  0  0  0  0  0  0  0  0  0
  128.3320  127.8370   69.9970 C   0  0  0  0  0  0  0  0  0  0  0  0
  127.0970  127.7390   71.2000 Cl  0  0  0  0  0  0  0  0  0  0  0  0
  128.2330  127.0750   68.8330 C   0  0  0  0  0  0  0  0  0  0  0  0
  130.9150  126.2310   64.7350 C   0  0  0  0  0  0  0  0  0  0  0  0
  130.3930  126.9310   63.7250 N   0  0  0  0  0  0  0  0  0  0  0  0
  131.6080  129.0460   61.0940 C   0  0  0  0  0  0  0  0  0  0  0  0
  131.0380  129.9320   59.9570 C   0  0  0  0  0  0  0  0  0  0  0  0
  1  2  2  0
  2  3  1  0
  3  4  1  0
  4  5  2  0
  5  6  1  0
  6  7  2  0
  7  8  1  0
  8  9  2  0
  3 10  1  0
 10 11  2  0
 11 12  1  0
 12 13  2  0
 13 14  1  0
 14 15  2  0
  2 16  1  0
 16 17  1  0
 17 18  1  0
 18 19  1  0
 19 20  1  0
 20 21  2  0
 21 22  1  0
 22 23  1  0
 22 24  2  0
 24 25  1  0
 25 26  2  0
 26 27  1  0
 27 28  1  0
 28 29  1  0
 29 30  2  0
 30 31  1  0
 31 32  2  0
 32 33  1  0
 33 34  1  0
 33 35  2  0
 27 36  1  0
 36 37  2  0
 19 38  1  0
 38 39  1  0
  9  4  1  0
 15 10  1  0
 39 16  1  0
 37 20  1  0
 36 24  1  0
 35 29  1  0
M  END
>  <Binding energies>  (78) 
[-10.09]

>  <Ligand effiencies>  (78) 
[-0.25225]

>  <Interactions>  (78) 
["H-A:ASP:366:OD2:3210, H-A:TYR:484:OH:4343, V-A:ARG:545:CZ:4921, H-A:GLY:454:N:4045, H-A:ASP:366:OD1:3209, V-A:PRO:540:CA:4878, V-A:GLU:543:CD:4903, V-A:GLU:543:CG:4902, V-A:GLU:543:CB:4901, V-B:GLU:543:CG:9875, V-A:HIS:456:CE1:4064, V-B:HIS:456:CE1:9037, V-B:GLU:543:CD:9876, V-A:GLU:543:C:4897, V-B:GLU:543:CB:9874, V-A:PRO:540:C:4876, H-A:ALA:541:N:4886, V-A:ALA:541:CB:4887, V-A:ALA:541:CA:4885, V-A:TYR:539:CE2:4871, V-B:HIS:456:CD2:9035, H-A:HIS:456:NE2:4065, V-B:HIS:456:CG:9033, V-B:LEU:475:CD2:9226, V-A:TYR:539:CD2:4869, H-A:ARG:545:NH1:4922, H-A:ARG:545:NH2:4923, V-B:TRP:381:CH2:8339, V-B:TRP:381:CZ2:8337, V-B:GLY:544:C:9880, V-B:LEU:475:CD1:9225, V-B:PRO:482:CB:9293"]

$$$$
RR28_Rahimova_2017
     RDKit          3D

 46 49  0  0  0  0  0  0  0  0999 V2000
  127.5010  136.7440   61.3760 C   0  0  0  0  0  0  0  0  0  0  0  0
  127.5100  135.2550   61.7060 C   0  0  0  0  0  0  0  0  0  0  0  0
  127.8560  134.8840   62.8260 O   0  0  0  0  0  0  0  0  0  0  0  0
  127.1280  134.4220   60.7170 N   0  0  0  0  0  0  0  0  0  0  0  0
  127.0480  132.9440   60.7450 C   0  0  0  0  0  0  0  0  0  0  0  0
  128.3850  132.3730   60.1920 C   0  0  0  0  0  0  0  0  0  0  0  0
  128.4830  132.0450   58.8310 C   0  0  0  0  0  0  0  0  0  0  0  0
  129.6610  131.5290   58.3020 C   0  0  0  0  0  0  0  0  0  0  0  0
  130.7710  131.3260   59.1230 C   0  0  0  0  0  0  0  0  0  0  0  0
  132.0560  130.7540   58.5260 C   0  0  0  0  0  0  0  0  0  0  0  0
  132.6700  131.6220   57.7190 F   0  0  0  0  0  0  0  0  0  0  0  0
  132.9080  130.4180   59.4950 F   0  0  0  0  0  0  0  0  0  0  0  0
  131.7620  129.6630   57.8170 F   0  0  0  0  0  0  0  0  0  0  0  0
  130.6870  131.6470   60.4810 C   0  0  0  0  0  0  0  0  0  0  0  0
  129.5070  132.1640   61.0090 C   0  0  0  0  0  0  0  0  0  0  0  0
  125.7780  132.4470   59.9660 C   0  0  0  0  0  0  0  0  0  0  0  0
  124.4450  132.8660   60.6350 C   0  0  0  0  0  0  0  0  0  0  0  0
  124.4640  132.2990   61.9940 N   0  0  0  0  0  0  0  0  0  0  0  0
  123.8990  131.0860   62.2400 C   0  0  0  0  0  0  0  0  0  0  0  0
  123.2120  130.5000   61.3990 O   0  0  0  0  0  0  0  0  0  0  0  0
  123.9810  130.4990   63.6710 C   0  0  0  0  0  0  0  0  0  0  0  0
  124.9390  129.2910   63.8550 C   0  0  0  0  0  0  0  0  0  0  0  0
  126.4260  129.6600   64.0710 C   0  0  0  0  0  0  0  0  0  0  0  0
  127.0860  130.0030   63.0860 O   0  0  0  0  0  0  0  0  0  0  0  0
  126.9280  129.7310   65.3360 N   0  0  0  0  0  0  0  0  0  0  0  0
  126.3180  129.0520   66.4850 C   0  0  0  0  0  0  0  0  0  0  0  0
  126.8780  127.6120   66.4950 C   0  0  0  0  0  0  0  0  0  0  0  0
  128.4430  127.5180   66.5480 C   0  0  0  0  0  0  0  0  0  0  0  0
  128.8600  126.1550   66.1520 N   0  0  0  0  0  0  0  0  0  0  0  0
  130.0120  125.5200   66.4450 C   0  0  0  0  0  0  0  0  0  0  0  0
  130.1720  124.1130   65.8790 C   0  0  0  0  0  0  0  0  0  0  0  0
  130.9140  126.0080   67.1260 O   0  0  0  0  0  0  0  0  0  0  0  0
  128.8760  127.7300   68.0350 C   0  0  0  0  0  0  0  0  0  0  0  0
  128.2650  127.0600   69.1080 C   0  0  0  0  0  0  0  0  0  0  0  0
  128.6820  127.2770   70.4190 C   0  0  0  0  0  0  0  0  0  0  0  0
  129.7180  128.1730   70.6910 C   0  0  0  0  0  0  0  0  0  0  0  0
  130.1890  128.4190   72.1240 C   0  0  0  0  0  0  0  0  0  0  0  0
  129.2120  128.1490   72.9920 F   0  0  0  0  0  0  0  0  0  0  0  0
  131.2240  127.6220   72.3860 F   0  0  0  0  0  0  0  0  0  0  0  0
  130.5730  129.6820   72.3170 F   0  0  0  0  0  0  0  0  0  0  0  0
  130.3290  128.8530   69.6360 C   0  0  0  0  0  0  0  0  0  0  0  0
  129.9110  128.6330   68.3270 C   0  0  0  0  0  0  0  0  0  0  0  0
  129.0560  128.5880   65.5640 C   0  0  0  0  0  0  0  0  0  0  0  0
  128.3600  129.9760   65.5480 C   0  0  0  0  0  0  0  0  0  0  0  0
  125.5110  132.8740   62.8500 C   0  0  0  0  0  0  0  0  0  0  0  0
  126.8760  132.4780   62.2280 C   0  0  0  0  0  0  0  0  0  0  0  0
  1  2  1  0
  2  3  2  0
  2  4  1  0
  4  5  1  0
  5  6  1  0
  6  7  2  0
  7  8  1  0
  8  9  2  0
  9 10  1  0
 10 11  1  0
 10 12  1  0
 10 13  1  0
  9 14  1  0
 14 15  2  0
  5 16  1  0
 16 17  1  0
 17 18  1  0
 18 19  1  0
 19 20  2  0
 19 21  1  0
 21 22  1  0
 22 23  1  0
 23 24  2  0
 23 25  1  0
 25 26  1  0
 26 27  1  0
 27 28  1  0
 28 29  1  0
 29 30  1  0
 30 31  1  0
 30 32  2  0
 28 33  1  0
 33 34  2  0
 34 35  1  0
 35 36  2  0
 36 37  1  0
 37 38  1  0
 37 39  1  0
 37 40  1  0
 36 41  1  0
 41 42  2  0
 28 43  1  0
 43 44  1  0
 18 45  1  0
 45 46  1  0
 46  5  1  0
 15  6  1  0
 44 25  1  0
 42 33  1  0
M  END
>  <Binding energies>  (79) 
[-8.86]

>  <Ligand effiencies>  (79) 
[-0.18458333333333332]

>  <Interactions>  (79) 
["V-A:PRO:540:CA:4878, V-A:GLU:543:CD:4903, V-A:PRO:540:CB:4880, V-A:GLU:543:CG:4902, V-A:GLY:544:C:4907, V-A:GLU:543:CB:4901, V-B:GLU:543:CG:9875, V-A:HIS:456:CE1:4064, V-A:GLY:544:CA:4909, V-B:HIS:456:CE1:9037, V-B:GLU:543:CD:9876, V-A:GLU:543:C:4897, V-B:GLU:543:CB:9874, H-B:GLU:543:OE2:9878, H-B:GLU:543:OE1:9877, V-A:TYR:484:CE1:4340, V-A:TYR:484:CZ:4342, V-B:ARG:545:CZ:9894, H-A:ALA:541:N:4886, V-A:TYR:539:CZ:4872, V-A:TYR:531:CE2:4788, V-A:TYR:531:CZ:4789, V-A:ALA:541:CB:4887, V-A:TYR:539:CE2:4871, V-A:PRO:540:CG:4881, V-A:LEU:363:CD1:3184, H-A:HIS:456:NE2:4065, V-A:LYS:547:CE:4945, V-B:ILE:369:CD1:8206, V-B:ILE:369:CG2:8204, V-B:LEU:475:CD2:9226, V-A:TYR:539:CD2:4869, V-B:TRP:381:CH2:8339, V-B:TRP:381:CZ2:8337, V-B:LEU:475:CD1:9225, H-A:TYR:539:O:4863, V-B:PRO:482:CG:9294, V-B:PRO:482:CB:9293, V-B:TRP:381:CZ3:8338, V-B:TRP:381:CE2:8334"]

$$$$
RR29_Rahimova_2017
     RDKit          3D

 18 19  0  0  0  0  0  0  0  0999 V2000
  129.7910  124.3030   68.4950 C   0  0  0  0  0  0  0  0  0  0  0  0
  130.1030  125.4260   67.5170 C   0  0  0  0  0  0  0  0  0  0  0  0
  129.3050  126.7170   67.8070 C   0  0  0  0  0  0  0  0  0  0  0  0
  130.0750  127.6630   68.7530 C   0  0  0  0  0  0  0  0  0  0  0  0
  129.2970  127.9670   70.0240 C   0  0  0  0  0  0  0  0  0  0  0  0
  127.9560  127.5490   70.1450 C   0  0  0  0  0  0  0  0  0  0  0  0
  127.2210  127.8180   71.3080 C   0  0  0  0  0  0  0  0  0  0  0  0
  127.8600  128.5190   72.3240 C   0  0  0  0  0  0  0  0  0  0  0  0
  129.1580  128.9290   72.2110 C   0  0  0  0  0  0  0  0  0  0  0  0
  129.9150  128.6670   71.0740 C   0  0  0  0  0  0  0  0  0  0  0  0
  129.5330  129.5560   73.3580 O   0  0  0  0  0  0  0  0  0  0  0  0
  128.3570  129.7120   74.1060 C   0  0  0  0  0  0  0  0  0  0  0  0
  127.3800  128.8760   73.5450 O   0  0  0  0  0  0  0  0  0  0  0  0
  130.9510  125.2080   66.5810 N   0  0  0  0  0  0  0  0  0  0  0  0
  131.1710  126.1930   65.6440 N   0  0  0  0  0  0  0  0  0  0  0  0
  130.6080  126.2110   64.4250 C   0  0  0  0  0  0  0  0  0  0  0  0
  129.7530  125.2960   63.9670 N   0  0  0  0  0  0  0  0  0  0  0  0
  130.9220  127.2110   63.6150 N   0  0  0  0  0  0  0  0  0  0  0  0
  1  2  1  0
  2  3  1  0
  3  4  1  0
  4  5  1  0
  5  6  2  0
  6  7  1  0
  7  8  2  0
  8  9  1  0
  9 10  2  0
  9 11  1  0
 11 12  1  0
 12 13  1  0
  2 14  2  0
 14 15  1  0
 15 16  1  0
 16 17  1  0
 16 18  2  0
 10  5  1  0
 13  8  1  0
M  CHG  1  18   1
M  END
>  <Binding energies>  (80) 
[-7.35]

>  <Ligand effiencies>  (80) 
[-0.31956521739130433]

>  <Interactions>  (80) 
["H-A:TYR:484:OH:4343, H-A:GLU:543:OE2:4905, V-A:GLU:543:CD:4903, V-B:GLU:543:CG:9875, V-A:HIS:456:CE1:4064, V-B:HIS:456:CE1:9037, H-A:GLU:543:OE1:4904, V-B:GLU:543:CD:9876, V-B:GLU:543:CB:9874, H-B:GLU:543:OE2:9878, V-A:TYR:484:CE1:4340, V-A:TYR:484:CZ:4342, V-B:GLU:543:C:9870, V-B:GLU:543:CA:9872, H-B:LYS:547:NZ:9919, V-B:HIS:456:CD2:9035, H-A:LYS:547:NZ:4946, H-A:HIS:456:NE2:4065, V-B:HIS:456:CG:9033, V-B:GLY:544:C:9880"]

$$$$
RR30_Rahimova_2017
     RDKit          3D

 18 19  0  0  0  0  0  0  0  0999 V2000
  133.1070  122.9250   60.4570 C   0  0  0  0  0  0  0  0  0  0  0  0
  132.9010  124.3810   60.9020 C   0  0  0  0  0  0  0  0  0  0  0  0
  133.1810  124.5750   62.3760 C   0  0  0  0  0  0  0  0  0  0  0  0
  134.3010  124.3680   63.0220 N   0  0  0  0  0  0  0  0  0  0  0  0
  134.0390  124.6840   64.3530 N   0  0  0  0  0  0  0  0  0  0  0  0
  132.7810  125.0430   64.3980 C   0  0  0  0  0  0  0  0  0  0  0  0
  131.8640  125.5710   65.8090 S   0  0  0  0  0  0  0  0  0  0  0  0
  130.1750  125.1930   65.2430 C   0  0  0  0  0  0  0  0  0  0  0  0
  130.0910  123.8360   64.5400 C   0  0  0  0  0  0  0  0  0  0  0  0
  130.4750  122.8260   65.1330 O   0  0  0  0  0  0  0  0  0  0  0  0
  129.6190  123.8550   63.2730 N   0  0  0  0  0  0  0  0  0  0  0  0
  129.4550  122.7590   62.4390 C   0  0  0  0  0  0  0  0  0  0  0  0
  128.4480  122.4890   61.6390 N   0  0  0  0  0  0  0  0  0  0  0  0
  128.6260  121.2950   60.9510 N   0  0  0  0  0  0  0  0  0  0  0  0
  129.7550  120.6900   61.2400 C   0  0  0  0  0  0  0  0  0  0  0  0
  130.1710  119.3750   60.6230 C   0  0  0  0  0  0  0  0  0  0  0  0
  130.7120  121.5620   62.4070 S   0  0  0  0  0  0  0  0  0  0  0  0
  132.1770  125.0030   63.1830 O   0  0  0  0  0  0  0  0  0  0  0  0
  1  2  1  0
  2  3  1  0
  3  4  2  0
  4  5  1  0
  5  6  2  0
  6  7  1  0
  7  8  1  0
  8  9  1  0
  9 10  2  0
  9 11  1  0
 11 12  1  0
 12 13  2  0
 13 14  1  0
 14 15  2  0
 15 16  1  0
 15 17  1  0
  6 18  1  0
 18  3  1  0
 17 12  1  0
M  END
>  <Binding energies>  (81) 
[-6.3]

>  <Ligand effiencies>  (81) 
[-0.33157894736842103]

>  <Interactions>  (81) 
["H-A:TYR:484:OH:4343, V-A:ARG:545:CZ:4921, H-A:GLY:454:N:4045, V-A:ASP:366:CG:3208, V-B:GLU:543:CG:9875, V-B:GLU:543:CD:9876, H-B:GLU:543:OE2:9878, V-A:LEU:475:CD2:4254, V-B:TYR:539:CD2:9842, V-A:TRP:381:CZ2:3365, V-A:TRP:381:CH2:3367, V-B:ALA:541:CB:9860, V-A:ILE:369:CD1:3234, H-A:HIS:456:NE2:4065, H-B:ALA:541:N:9859"]

$$$$
RR31_Rahimova_2017
     RDKit          3D

 18 19  0  0  0  0  0  0  0  0999 V2000
  122.8360  131.4450   59.4750 C   0  0  0  0  0  0  0  0  0  0  0  0
  124.3420  131.3630   59.2640 C   0  0  0  0  0  0  0  0  0  0  0  0
  124.8550  130.4100   58.3830 C   0  0  0  0  0  0  0  0  0  0  0  0
  126.2280  130.3110   58.1650 C   0  0  0  0  0  0  0  0  0  0  0  0
  127.1290  131.1690   58.8160 C   0  0  0  0  0  0  0  0  0  0  0  0
  128.5080  131.0770   58.6160 N   0  0  0  0  0  0  0  0  0  0  0  0
  129.4020  132.2390   58.7810 C   0  0  0  0  0  0  0  0  0  0  0  0
  130.7950  132.0610   58.1320 C   0  0  0  0  0  0  0  0  0  0  0  0
  131.4580  130.8570   58.6390 N   0  0  0  0  0  0  0  0  0  0  0  0
  132.7970  130.6800   58.0680 C   0  0  0  0  0  0  0  0  0  0  0  0
  133.8750  130.4000   59.1350 C   0  0  0  0  0  0  0  0  0  0  0  0
  133.3780  130.6990   60.5580 C   0  0  0  0  0  0  0  0  0  0  0  0
  132.3720  129.6280   60.9980 N   0  0  0  0  0  0  0  0  0  0  0  0
  130.6180  129.7130   58.2870 C   0  0  0  0  0  0  0  0  0  0  0  0
  129.2260  129.8300   58.9490 C   0  0  0  0  0  0  0  0  0  0  0  0
  126.6010  132.1170   59.7050 C   0  0  0  0  0  0  0  0  0  0  0  0
  125.2240  132.2250   59.9340 C   0  0  0  0  0  0  0  0  0  0  0  0
  124.7140  133.2730   60.9150 C   0  0  0  0  0  0  0  0  0  0  0  0
  1  2  1  0
  2  3  2  0
  3  4  1  0
  4  5  2  0
  5  6  1  0
  6  7  1  0
  7  8  1  0
  8  9  1  0
  9 10  1  0
 10 11  1  0
 11 12  1  0
 12 13  1  0
  9 14  1  0
 14 15  1  0
  5 16  1  0
 16 17  2  0
 17 18  1  0
 17  2  1  0
 15  6  1  0
M  CHG  1  13   1
M  END
>  <Binding energies>  (82) 
[-5.84]

>  <Ligand effiencies>  (82) 
[-0.27809523809523806]

>  <Interactions>  (82) 
["H-A:ASP:366:OD2:3210, V-A:LEU:363:CA:3180, V-A:ASN:362:CB:3171, V-A:ASN:362:C:3167, H-A:GLU:543:OE2:4905, V-A:PRO:540:CA:4878, V-A:ASP:366:CG:3208, V-A:GLU:543:CD:4903, V-A:PRO:540:CB:4880, H-A:GLU:543:OE1:4904, V-A:TYR:539:CZ:4872, V-A:TYR:531:CE2:4788, V-A:TYR:539:CE2:4871, V-A:PRO:540:N:4879, V-A:LEU:363:CD1:3184, V-A:LEU:363:CB:3182, V-B:ASP:366:CB:8179, V-B:ILE:369:CG1:8205, V-B:ILE:369:CD1:8206, V-B:ILE:369:CG2:8204, V-B:ILE:369:CB:8203, V-B:LEU:475:CD2:9226, V-B:ASP:366:CA:8177, V-B:ASP:366:C:8175"]

$$$$
RR32_Rahimova_2017
     RDKit          3D

 18 20  0  0  0  0  0  0  0  0999 V2000
  127.9840  135.8220   61.7500 C   0  0  0  0  0  0  0  0  0  0  0  0
  127.8380  134.4420   61.1160 C   0  0  0  0  0  0  0  0  0  0  0  0
  128.9970  133.7120   60.8500 C   0  0  0  0  0  0  0  0  0  0  0  0
  128.9020  132.4480   60.2760 C   0  0  0  0  0  0  0  0  0  0  0  0
  130.0540  131.7270   60.0140 N   0  0  0  0  0  0  0  0  0  0  0  0
  130.6210  131.8290   58.6570 C   0  0  0  0  0  0  0  0  0  0  0  0
  131.7950  130.8520   58.4110 C   0  0  0  0  0  0  0  0  0  0  0  0
  132.8620  131.0890   59.3820 N   0  0  0  0  0  0  0  0  0  0  0  0
  133.9820  130.1890   59.1300 C   0  0  0  0  0  0  0  0  0  0  0  0
  132.3170  130.8570   60.7180 C   0  0  0  0  0  0  0  0  0  0  0  0
  131.1490  131.8310   60.9980 C   0  0  0  0  0  0  0  0  0  0  0  0
  127.7120  131.8790   59.9510 N   0  0  0  0  0  0  0  0  0  0  0  0
  126.5640  132.5680   60.1950 C   0  0  0  0  0  0  0  0  0  0  0  0
  125.3380  131.9510   59.8440 C   0  0  0  0  0  0  0  0  0  0  0  0
  124.1340  132.6080   60.0700 C   0  0  0  0  0  0  0  0  0  0  0  0
  124.1180  133.8740   60.6420 C   0  0  0  0  0  0  0  0  0  0  0  0
  125.3050  134.5080   60.9990 C   0  0  0  0  0  0  0  0  0  0  0  0
  126.5630  133.8730   60.7850 C   0  0  0  0  0  0  0  0  0  0  0  0
  1  2  1  0
  2  3  2  0
  3  4  1  0
  4  5  1  0
  5  6  1  0
  6  7  1  0
  7  8  1  0
  8  9  1  0
  8 10  1  0
 10 11  1  0
  4 12  2  0
 12 13  1  0
 13 14  2  0
 14 15  1  0
 15 16  2  0
 16 17  1  0
 17 18  2  0
 18  2  1  0
 11  5  1  0
 18 13  1  0
M  END
>  <Binding energies>  (83) 
[-5.71]

>  <Ligand effiencies>  (83) 
[-0.31722222222222224]

>  <Interactions>  (83) 
["V-A:LEU:363:CA:3180, V-A:ASN:362:C:3167, V-A:PRO:540:CA:4878, V-A:ASP:366:CG:3208, V-A:PRO:540:CB:4880, V-A:PRO:540:C:4876, V-A:TYR:539:CZ:4872, V-A:ASP:366:CB:3207, V-A:ALA:541:CB:4887, V-A:ALA:541:CA:4885, V-A:TYR:539:CE2:4871, V-A:PRO:540:N:4879, V-B:ILE:369:CD1:8206, V-B:ILE:369:CG2:8204, V-B:ILE:369:CB:8203, V-B:LEU:475:CD2:9226, V-A:TYR:539:CD2:4869, V-A:TYR:539:C:4862, V-B:TRP:381:CH2:8339, V-B:LEU:475:CD1:9225, V-B:PRO:482:CG:9294, V-B:PRO:482:CB:9293"]

$$$$
RR5_Rahimova_2017
     RDKit          3D

 45 50  0  0  0  0  0  0  0  0999 V2000
  128.7570  122.5280   58.1080 O   0  0  0  0  0  0  0  0  0  0  0  0
  128.3310  123.1280   59.0940 C   0  0  0  0  0  0  0  0  0  0  0  0
  126.9000  123.6970   59.0820 C   0  0  0  0  0  0  0  0  0  0  0  0
  126.4620  124.3550   60.4390 C   0  0  2  0  0  0  0  0  0  0  0  0
  127.4110  125.3460   60.9860 N   0  0  0  0  0  0  0  0  0  0  0  0
  127.5570  126.6040   60.4190 C   0  0  0  0  0  0  0  0  0  0  0  0
  126.9190  127.0610   59.4670 O   0  0  0  0  0  0  0  0  0  0  0  0
  128.5330  127.2540   61.0750 O   0  0  0  0  0  0  0  0  0  0  0  0
  128.8090  126.9910   62.4480 C   0  0  0  0  0  0  0  0  0  0  0  0
  128.4340  128.2050   63.3260 C   0  0  0  0  0  0  0  0  0  0  0  0
  127.0650  128.7830   63.0130 C   0  0  0  0  0  0  0  0  0  0  0  0
  126.5670  129.2880   61.8090 C   0  0  0  0  0  0  0  0  0  0  0  0
  125.2530  129.7540   61.7410 C   0  0  0  0  0  0  0  0  0  0  0  0
  124.4370  129.7180   62.8730 C   0  0  0  0  0  0  0  0  0  0  0  0
  124.9330  129.2170   64.0780 C   0  0  0  0  0  0  0  0  0  0  0  0
  126.2480  128.7510   64.1440 C   0  0  0  0  0  0  0  0  0  0  0  0
  127.0210  128.1890   65.2620 C   0  0  0  0  0  0  0  0  0  0  0  0
  126.6740  127.9580   66.5950 C   0  0  0  0  0  0  0  0  0  0  0  0
  127.6200  127.4250   67.4720 C   0  0  0  0  0  0  0  0  0  0  0  0
  128.9050  127.1210   67.0170 C   0  0  0  0  0  0  0  0  0  0  0  0
  129.2450  127.3490   65.6830 C   0  0  0  0  0  0  0  0  0  0  0  0
  128.3010  127.8800   64.8010 C   0  0  0  0  0  0  0  0  0  0  0  0
  126.1670  123.2720   61.5050 C   0  0  0  0  0  0  0  0  0  0  0  0
  125.0620  122.8380   61.7640 O   0  0  0  0  0  0  0  0  0  0  0  0
  127.3350  122.8700   62.0880 O   0  0  0  0  0  0  0  0  0  0  0  0
  129.0210  123.3120   60.2430 N   0  0  0  0  0  0  0  0  0  0  0  0
  130.3970  122.9360   60.6860 C   0  0  0  0  0  0  0  0  0  0  0  0
  130.3010  121.3750   60.7630 C   0  0  0  0  0  0  0  0  0  0  0  0
  129.0790  120.7270   61.0090 C   0  0  0  0  0  0  0  0  0  0  0  0
  129.0050  119.3380   61.0730 C   0  0  0  0  0  0  0  0  0  0  0  0
  130.1540  118.5740   60.9020 C   0  0  0  0  0  0  0  0  0  0  0  0
  131.3770  119.1890   60.6550 C   0  0  0  0  0  0  0  0  0  0  0  0
  131.4470  120.5770   60.5810 C   0  0  0  0  0  0  0  0  0  0  0  0
  131.3930  123.4250   59.5830 C   0  0  0  0  0  0  0  0  0  0  0  0
  132.7340  123.0080   59.5610 C   0  0  0  0  0  0  0  0  0  0  0  0
  133.6080  123.4710   58.5810 C   0  0  0  0  0  0  0  0  0  0  0  0
  133.1540  124.3580   57.6110 C   0  0  0  0  0  0  0  0  0  0  0  0
  131.8300  124.7830   57.6090 C   0  0  0  0  0  0  0  0  0  0  0  0
  130.9560  124.3130   58.5840 C   0  0  0  0  0  0  0  0  0  0  0  0
  130.5980  123.6030   62.0890 C   0  0  0  0  0  0  0  0  0  0  0  0
  131.3430  124.7880   62.2270 C   0  0  0  0  0  0  0  0  0  0  0  0
  131.5320  125.3810   63.4730 C   0  0  0  0  0  0  0  0  0  0  0  0
  130.9730  124.8000   64.6050 C   0  0  0  0  0  0  0  0  0  0  0  0
  130.2200  123.6370   64.4990 C   0  0  0  0  0  0  0  0  0  0  0  0
  130.0330  123.0470   63.2520 C   0  0  0  0  0  0  0  0  0  0  0  0
  1  2  2  0
  2  3  1  0
  4  3  1  6
  4  5  1  0
  5  6  1  0
  6  7  2  0
  6  8  1  0
  8  9  1  0
  9 10  1  0
 10 11  1  0
 11 12  2  0
 12 13  1  0
 13 14  2  0
 14 15  1  0
 15 16  2  0
 16 17  1  0
 17 18  2  0
 18 19  1  0
 19 20  2  0
 20 21  1  0
 21 22  2  0
  4 23  1  0
 23 24  2  0
 23 25  1  0
  2 26  1  0
 26 27  1  0
 27 28  1  0
 28 29  2  0
 29 30  1  0
 30 31  2  0
 31 32  1  0
 32 33  2  0
 27 34  1  0
 34 35  2  0
 35 36  1  0
 36 37  2  0
 37 38  1  0
 38 39  2  0
 27 40  1  0
 40 41  2  0
 41 42  1  0
 42 43  2  0
 43 44  1  0
 44 45  2  0
 22 10  1  0
 33 28  1  0
 39 34  1  0
 45 40  1  0
 16 11  1  0
 22 17  1  0
M  END
>  <Binding energies>  (84) 
[-9.86]

>  <Ligand effiencies>  (84) 
[-0.20541666666666666]

>  <Interactions>  (84) 
["V-A:ASP:366:CG:3208, V-A:GLU:543:CD:4903, V-B:GLU:543:CG:9875, V-B:HIS:456:CE1:9037, V-B:GLU:543:CD:9876, V-B:GLU:543:CB:9874, V-A:PRO:482:CB:4321, H-B:GLU:543:OE2:9878, V-A:LEU:475:CD2:4254, V-B:TYR:539:CD2:9842, V-A:TRP:381:CZ3:3366, V-A:TRP:381:CZ2:3365, H-B:GLU:543:OE1:9877, V-A:TYR:484:CE1:4340, V-A:PRO:482:CG:4322, V-A:TRP:381:CH2:3367, V-B:ALA:541:CB:9860, V-B:ARG:545:CZ:9894, V-A:ASP:366:CB:3207, V-A:TYR:531:CZ:4789, V-A:ILE:369:CD1:3234, V-B:PRO:540:CB:9853, V-B:PRO:540:CA:9851, V-B:ASP:366:CG:8180, V-A:ILE:369:CG2:3232, V-B:PRO:540:C:9849, V-B:ALA:541:CA:9858, V-B:TYR:539:C:9835, V-A:TRP:381:CE2:3362, H-B:ALA:541:N:9859, V-A:ILE:369:CB:3231, V-A:ASP:366:C:3203, V-A:ASP:366:CA:3205"]

$$$$
