1a_Ghoteimi_2023
     RDKit          3D

 40 43  0  0  0  0  0  0  0  0999 V2000
  133.2280  120.2760   60.2800 C   0  0  0  0  0  0  0  0  0  0  0  0
  132.3910  121.2760   59.4780 C   0  0  0  0  0  0  0  0  0  0  0  0
  133.2300  121.9610   58.5560 O   0  0  0  0  0  0  0  0  0  0  0  0
  133.3600  123.3120   58.5950 C   0  0  0  0  0  0  0  0  0  0  0  0
  133.6880  123.9930   57.6180 O   0  0  0  0  0  0  0  0  0  0  0  0
  133.0620  123.8960   59.9460 C   0  0  0  0  0  0  0  0  0  0  0  0
  131.9970  124.7860   60.1500 C   0  0  0  0  0  0  0  0  0  0  0  0
  131.7470  125.3150   61.4140 C   0  0  0  0  0  0  0  0  0  0  0  0
  132.5580  124.9570   62.5010 C   0  0  0  0  0  0  0  0  0  0  0  0
  132.3990  125.4330   63.8170 N   0  0  0  0  0  0  0  0  0  0  0  0
  133.2880  125.4780   64.8330 C   0  0  0  0  0  0  0  0  0  0  0  0
  134.4590  125.1050   64.7780 O   0  0  0  0  0  0  0  0  0  0  0  0
  132.7560  126.0560   66.1450 C   0  0  0  0  0  0  0  0  0  0  0  0
  131.1620  125.3170   66.6090 S   0  0  0  0  0  0  0  0  0  0  0  0
  130.0620  126.6750   66.9350 C   0  0  0  0  0  0  0  0  0  0  0  0
  129.9530  126.9920   68.2470 N   0  0  0  0  0  0  0  0  0  0  0  0
  129.1470  128.0160   68.6300 C   0  0  0  0  0  0  0  0  0  0  0  0
  129.0960  128.3190   70.1000 C   0  0  0  0  0  0  0  0  0  0  0  0
  127.9270  128.1060   70.8490 C   0  0  0  0  0  0  0  0  0  0  0  0
  127.8830  128.3870   72.2110 C   0  0  0  0  0  0  0  0  0  0  0  0
  129.0040  128.8900   72.8680 C   0  0  0  0  0  0  0  0  0  0  0  0
  128.8700  129.1370   74.2210 O   0  0  0  0  0  0  0  0  0  0  0  0
  127.8980  130.0780   74.6620 C   0  0  0  0  0  0  0  0  0  0  0  0
  130.1770  129.1120   72.1330 C   0  0  0  0  0  0  0  0  0  0  0  0
  130.2170  128.8300   70.7710 C   0  0  0  0  0  0  0  0  0  0  0  0
  128.4240  128.7470   67.6790 C   0  0  0  0  0  0  0  0  0  0  0  0
  128.5010  128.4220   66.3180 C   0  0  0  0  0  0  0  0  0  0  0  0
  127.6780  129.2260   65.3640 C   0  0  0  0  0  0  0  0  0  0  0  0
  128.2470  130.2720   64.6300 C   0  0  0  0  0  0  0  0  0  0  0  0
  127.4770  131.0060   63.7330 C   0  0  0  0  0  0  0  0  0  0  0  0
  126.1280  130.7050   63.5450 C   0  0  0  0  0  0  0  0  0  0  0  0
  125.4440  131.4860   62.6340 O   0  0  0  0  0  0  0  0  0  0  0  0
  124.2930  130.9520   61.9880 C   0  0  0  0  0  0  0  0  0  0  0  0
  125.5550  129.6510   64.2730 C   0  0  0  0  0  0  0  0  0  0  0  0
  126.3280  128.9190   65.1710 C   0  0  0  0  0  0  0  0  0  0  0  0
  129.3470  127.3570   65.9260 C   0  0  0  0  0  0  0  0  0  0  0  0
  129.4810  126.9800   64.5150 C   0  0  0  0  0  0  0  0  0  0  0  0
  129.5860  126.6840   63.4020 N   0  0  0  0  0  0  0  0  0  0  0  0
  133.6200  124.0750   62.3000 C   0  0  0  0  0  0  0  0  0  0  0  0
  133.8700  123.5480   61.0350 C   0  0  0  0  0  0  0  0  0  0  0  0
  1  2  1  0
  2  3  1  0
  3  4  1  0
  4  5  2  0
  4  6  1  0
  6  7  2  0
  7  8  1  0
  8  9  2  0
  9 10  1  0
 10 11  1  0
 11 12  2  0
 11 13  1  0
 13 14  1  0
 14 15  1  0
 15 16  2  0
 16 17  1  0
 17 18  1  0
 18 19  2  0
 19 20  1  0
 20 21  2  0
 21 22  1  0
 22 23  1  0
 21 24  1  0
 24 25  2  0
 17 26  2  0
 26 27  1  0
 27 28  1  0
 28 29  2  0
 29 30  1  0
 30 31  2  0
 31 32  1  0
 32 33  1  0
 31 34  1  0
 34 35  2  0
 27 36  2  0
 36 37  1  0
 37 38  3  0
  9 39  1  0
 39 40  2  0
 40  6  1  0
 36 15  1  0
 25 18  1  0
 35 28  1  0
M  END
>  <Binding energies>  (1) 
[-8.83]

>  <Ligand effiencies>  (1) 
[-0.21536585365853658]

>  <Interactions>  (1) 
["V-A:ARG:545:CD:4918, H-A:TYR:484:OH:4343, V-A:ARG:545:CZ:4921, V-A:ARG:545:CG:4917, H-A:GLY:454:N:4045, V-A:ASP:366:CG:3208, V-A:GLU:543:CD:4903, V-A:GLU:543:CG:4902, V-A:GLY:544:C:4907, V-A:HIS:456:CE1:4064, V-B:HIS:456:CE1:9037, H-A:GLU:543:OE1:4904, V-B:GLU:543:CD:9876, V-A:GLU:543:C:4897, V-A:LEU:475:CD2:4254, V-B:TYR:539:CD2:9842, V-A:TRP:381:CH2:3367, V-B:TYR:539:CE2:9844, V-A:ASP:366:CB:3207, V-A:ILE:369:CD1:3234, H-B:LYS:547:NZ:9919, V-B:HIS:456:CD2:9035, H-A:LYS:547:NZ:4946, H-A:HIS:456:NE2:4065, H-A:ARG:545:NE:4919, V-B:HIS:456:CG:9033, V-A:LYS:547:CE:4945, V-A:ILE:369:CG2:3232, H-A:ARG:545:NH1:4922, V-A:ILE:369:CB:3231, H-B:TYR:539:OH:9846"]

$$$$
1b_Ghoteimi_2023
     RDKit          3D

 34 37  0  0  0  0  0  0  0  0999 V2000
  130.4830  126.6140   74.2590 C   0  0  0  0  0  0  0  0  0  0  0  0
  129.9310  127.7900   73.6780 O   0  0  0  0  0  0  0  0  0  0  0  0
  129.7280  127.8350   72.3120 C   0  0  0  0  0  0  0  0  0  0  0  0
  129.2160  126.6820   71.7190 C   0  0  0  0  0  0  0  0  0  0  0  0
  128.9800  126.6340   70.3480 C   0  0  0  0  0  0  0  0  0  0  0  0
  129.2460  127.7410   69.5280 C   0  0  0  0  0  0  0  0  0  0  0  0
  128.9920  127.6850   68.0470 C   0  0  0  0  0  0  0  0  0  0  0  0
  127.9560  128.3890   67.4250 C   0  0  0  0  0  0  0  0  0  0  0  0
  127.7640  128.3050   66.0400 C   0  0  0  0  0  0  0  0  0  0  0  0
  126.6340  129.0800   65.4460 C   0  0  0  0  0  0  0  0  0  0  0  0
  125.3230  128.8560   65.8740 C   0  0  0  0  0  0  0  0  0  0  0  0
  124.2650  129.5690   65.3170 C   0  0  0  0  0  0  0  0  0  0  0  0
  124.4970  130.5160   64.3180 C   0  0  0  0  0  0  0  0  0  0  0  0
  123.3880  131.1750   63.8240 O   0  0  0  0  0  0  0  0  0  0  0  0
  122.8160  130.7450   62.5930 C   0  0  0  0  0  0  0  0  0  0  0  0
  125.8110  130.7390   63.8800 C   0  0  0  0  0  0  0  0  0  0  0  0
  126.8650  130.0230   64.4390 C   0  0  0  0  0  0  0  0  0  0  0  0
  128.6520  127.5010   65.2840 C   0  0  0  0  0  0  0  0  0  0  0  0
  128.5540  127.4560   63.8220 C   0  0  0  0  0  0  0  0  0  0  0  0
  128.4750  127.4220   62.6680 N   0  0  0  0  0  0  0  0  0  0  0  0
  129.6650  126.8000   65.9760 C   0  0  0  0  0  0  0  0  0  0  0  0
  130.8620  125.7390   65.1930 S   0  0  0  0  0  0  0  0  0  0  0  0
  130.4560  124.0150   65.6310 C   0  0  0  0  0  0  0  0  0  0  0  0
  130.2300  123.0780   64.4370 C   0  0  0  0  0  0  0  0  0  0  0  0
  130.7760  121.9730   64.3910 O   0  0  0  0  0  0  0  0  0  0  0  0
  129.4080  123.5690   63.4820 N   0  0  0  0  0  0  0  0  0  0  0  0
  129.0250  122.9460   62.3000 C   0  0  0  0  0  0  0  0  0  0  0  0
  129.9350  122.3870   61.4050 C   0  0  0  0  0  0  0  0  0  0  0  0
  129.1650  121.8790   60.3830 C   0  0  0  0  0  0  0  0  0  0  0  0
  127.8590  122.1180   60.6510 O   0  0  0  0  0  0  0  0  0  0  0  0
  127.7830  122.7950   61.8690 N   0  0  0  0  0  0  0  0  0  0  0  0
  129.8360  126.9100   67.3160 N   0  0  0  0  0  0  0  0  0  0  0  0
  129.7640  128.8960   70.1350 C   0  0  0  0  0  0  0  0  0  0  0  0
  130.0020  128.9470   71.5050 C   0  0  0  0  0  0  0  0  0  0  0  0
  1  2  1  0
  2  3  1  0
  3  4  2  0
  4  5  1  0
  5  6  2  0
  6  7  1  0
  7  8  2  0
  8  9  1  0
  9 10  1  0
 10 11  2  0
 11 12  1  0
 12 13  2  0
 13 14  1  0
 14 15  1  0
 13 16  1  0
 16 17  2  0
  9 18  2  0
 18 19  1  0
 19 20  3  0
 18 21  1  0
 21 22  1  0
 22 23  1  0
 23 24  1  0
 24 25  2  0
 24 26  1  0
 26 27  1  0
 27 28  1  0
 28 29  2  0
 29 30  1  0
 30 31  1  0
 21 32  2  0
  6 33  1  0
 33 34  2  0
 34  3  1  0
 32  7  1  0
 17 10  1  0
 31 27  2  0
M  END
>  <Binding energies>  (2) 
[-8.97]

>  <Ligand effiencies>  (2) 
[-0.2562857142857143]

>  <Interactions>  (2) 
["H-A:TYR:484:OH:4343, V-A:GLU:543:CD:4903, V-B:GLU:543:CG:9875, V-A:HIS:456:CE1:4064, V-B:HIS:456:CE1:9037, V-B:GLU:543:CD:9876, V-A:GLU:543:C:4897, H-B:GLU:543:OE2:9878, V-A:TYR:484:CE1:4340, V-A:TYR:484:CZ:4342, V-B:ALA:541:CB:9860, V-B:ARG:545:CZ:9894, V-B:ARG:545:CD:9891, V-B:ARG:545:CG:9890, H-B:GLY:454:N:9017, H-B:LYS:547:NZ:9919, H-A:LYS:547:NZ:4946, V-B:LYS:547:CE:9918, V-A:LYS:547:CE:4945, V-B:ILE:369:CD1:8206, V-B:GLY:453:CA:9011, V-B:GLY:453:C:9009, H-B:ALA:541:N:9859"]

$$$$
1c_Ghoteimi_2023
     RDKit          3D

 34 37  0  0  0  0  0  0  0  0999 V2000
  124.1300  132.1940   61.7730 C   0  0  0  0  0  0  0  0  0  0  0  0
  124.8720  132.5460   62.9360 O   0  0  0  0  0  0  0  0  0  0  0  0
  125.6160  131.5770   63.5820 C   0  0  0  0  0  0  0  0  0  0  0  0
  124.9080  130.6430   64.3330 C   0  0  0  0  0  0  0  0  0  0  0  0
  125.5770  129.6330   65.0200 C   0  0  0  0  0  0  0  0  0  0  0  0
  126.9760  129.5280   64.9750 C   0  0  0  0  0  0  0  0  0  0  0  0
  127.7020  128.4440   65.7180 C   0  0  0  0  0  0  0  0  0  0  0  0
  128.8140  127.7790   65.1900 C   0  0  0  0  0  0  0  0  0  0  0  0
  129.4750  126.7930   65.9320 C   0  0  0  0  0  0  0  0  0  0  0  0
  130.6940  126.1730   65.3340 C   0  0  0  0  0  0  0  0  0  0  0  0
  131.8590  126.0220   66.0910 C   0  0  0  0  0  0  0  0  0  0  0  0
  133.0020  125.4640   65.5260 C   0  0  0  0  0  0  0  0  0  0  0  0
  133.0030  125.0510   64.1940 C   0  0  0  0  0  0  0  0  0  0  0  0
  134.1820  124.5080   63.7170 O   0  0  0  0  0  0  0  0  0  0  0  0
  134.2230  123.9940   62.3900 C   0  0  0  0  0  0  0  0  0  0  0  0
  131.8370  125.2070   63.4280 C   0  0  0  0  0  0  0  0  0  0  0  0
  130.6960  125.7660   63.9960 C   0  0  0  0  0  0  0  0  0  0  0  0
  128.9720  126.4640   67.2130 C   0  0  0  0  0  0  0  0  0  0  0  0
  129.5990  125.4160   68.0260 C   0  0  0  0  0  0  0  0  0  0  0  0
  130.0950  124.5890   68.6660 N   0  0  0  0  0  0  0  0  0  0  0  0
  127.8590  127.1850   67.6910 C   0  0  0  0  0  0  0  0  0  0  0  0
  127.2290  126.9960   69.3450 S   0  0  0  0  0  0  0  0  0  0  0  0
  128.3760  127.9490   70.3920 C   0  0  0  0  0  0  0  0  0  0  0  0
  128.9830  127.0950   71.5100 C   0  0  0  0  0  0  0  0  0  0  0  0
  129.2110  127.6030   72.6090 O   0  0  0  0  0  0  0  0  0  0  0  0
  129.1870  125.7960   71.1960 N   0  0  0  0  0  0  0  0  0  0  0  0
  129.5760  124.7860   72.0610 C   0  0  0  0  0  0  0  0  0  0  0  0
  129.3960  124.7240   73.3630 N   0  0  0  0  0  0  0  0  0  0  0  0
  129.8600  123.5940   73.8610 C   0  0  0  0  0  0  0  0  0  0  0  0
  130.4310  122.7090   72.9520 C   0  0  0  0  0  0  0  0  0  0  0  0
  130.3540  123.4040   71.3600 S   0  0  0  0  0  0  0  0  0  0  0  0
  127.2480  128.1520   66.9660 N   0  0  0  0  0  0  0  0  0  0  0  0
  127.6780  130.4710   64.2100 C   0  0  0  0  0  0  0  0  0  0  0  0
  127.0140  131.4830   63.5240 C   0  0  0  0  0  0  0  0  0  0  0  0
  1  2  1  0
  2  3  1  0
  3  4  2  0
  4  5  1  0
  5  6  2  0
  6  7  1  0
  7  8  2  0
  8  9  1  0
  9 10  1  0
 10 11  2  0
 11 12  1  0
 12 13  2  0
 13 14  1  0
 14 15  1  0
 13 16  1  0
 16 17  2  0
  9 18  2  0
 18 19  1  0
 19 20  3  0
 18 21  1  0
 21 22  1  0
 22 23  1  0
 23 24  1  0
 24 25  2  0
 24 26  1  0
 26 27  1  0
 27 28  2  0
 28 29  1  0
 29 30  2  0
 30 31  1  0
 21 32  2  0
  6 33  1  0
 33 34  2  0
 34  3  1  0
 32  7  1  0
 17 10  1  0
 31 27  1  0
M  END
>  <Binding energies>  (3) 
[-8.44]

>  <Ligand effiencies>  (3) 
[-0.24114285714285713]

>  <Interactions>  (3) 
["V-A:ARG:545:CZ:4921, H-A:GLY:454:N:4045, V-A:ASP:366:CG:3208, V-A:GLU:543:CD:4903, V-B:GLU:543:CG:9875, V-A:HIS:456:CE1:4064, V-B:HIS:456:CE1:9037, V-B:GLU:543:CD:9876, V-B:GLU:543:CB:9874, V-A:ILE:369:CD1:3234, V-A:HIS:456:CD2:4063, V-B:GLU:543:C:9870, V-B:GLU:543:CA:9872, H-B:GLU:543:O:9871, H-B:LYS:547:NZ:9919, V-B:HIS:456:CD2:9035, V-A:HIS:456:CG:4061, H-A:HIS:456:NE2:4065, V-B:LYS:547:CE:9918, V-B:ILE:369:CD1:8206"]

$$$$
1d_Ghoteimi_2023
     RDKit          3D

 30 32  0  0  0  0  0  0  0  0999 V2000
  123.8010  129.9900   63.5580 C   0  0  0  0  0  0  0  0  0  0  0  0
  123.9160  130.6880   64.7880 O   0  0  0  0  0  0  0  0  0  0  0  0
  124.0170  130.0130   65.9520 C   0  0  0  0  0  0  0  0  0  0  0  0
  123.3820  130.2390   66.9830 O   0  0  0  0  0  0  0  0  0  0  0  0
  125.0450  128.8860   65.8810 C   0  0  0  0  0  0  0  0  0  0  0  0
  126.6330  129.6240   65.3920 S   0  0  0  0  0  0  0  0  0  0  0  0
  127.9150  128.6400   66.1350 C   0  0  0  0  0  0  0  0  0  0  0  0
  127.9980  128.7760   67.4800 N   0  0  0  0  0  0  0  0  0  0  0  0
  128.9360  128.0840   68.1750 C   0  0  0  0  0  0  0  0  0  0  0  0
  128.9570  128.2870   69.6620 C   0  0  0  0  0  0  0  0  0  0  0  0
  127.8710  127.9050   70.4650 C   0  0  0  0  0  0  0  0  0  0  0  0
  127.8900  128.1000   71.8430 C   0  0  0  0  0  0  0  0  0  0  0  0
  128.9920  128.6850   72.4620 C   0  0  0  0  0  0  0  0  0  0  0  0
  128.9220  128.8420   73.8320 O   0  0  0  0  0  0  0  0  0  0  0  0
  128.1360  129.9020   74.3690 C   0  0  0  0  0  0  0  0  0  0  0  0
  130.0840  129.0720   71.6740 C   0  0  0  0  0  0  0  0  0  0  0  0
  130.0630  128.8750   70.2960 C   0  0  0  0  0  0  0  0  0  0  0  0
  129.8170  127.2190   67.5150 C   0  0  0  0  0  0  0  0  0  0  0  0
  129.7640  127.0700   66.1240 C   0  0  0  0  0  0  0  0  0  0  0  0
  130.7390  126.1350   65.4830 C   0  0  0  0  0  0  0  0  0  0  0  0
  132.0800  126.1360   65.8810 C   0  0  0  0  0  0  0  0  0  0  0  0
  132.9930  125.2680   65.2890 C   0  0  0  0  0  0  0  0  0  0  0  0
  132.5860  124.3800   64.2940 C   0  0  0  0  0  0  0  0  0  0  0  0
  133.5620  123.5610   63.7590 O   0  0  0  0  0  0  0  0  0  0  0  0
  134.0730  123.8460   62.4610 C   0  0  0  0  0  0  0  0  0  0  0  0
  131.2390  124.3670   63.9010 C   0  0  0  0  0  0  0  0  0  0  0  0
  130.3270  125.2350   64.4950 C   0  0  0  0  0  0  0  0  0  0  0  0
  128.7990  127.8160   65.4020 C   0  0  0  0  0  0  0  0  0  0  0  0
  128.7670  127.7780   63.9370 C   0  0  0  0  0  0  0  0  0  0  0  0
  128.7430  127.7480   62.7810 N   0  0  0  0  0  0  0  0  0  0  0  0
  1  2  1  0
  2  3  1  0
  3  4  2  0
  3  5  1  0
  5  6  1  0
  6  7  1  0
  7  8  2  0
  8  9  1  0
  9 10  1  0
 10 11  2  0
 11 12  1  0
 12 13  2  0
 13 14  1  0
 14 15  1  0
 13 16  1  0
 16 17  2  0
  9 18  2  0
 18 19  1  0
 19 20  1  0
 20 21  2  0
 21 22  1  0
 22 23  2  0
 23 24  1  0
 24 25  1  0
 23 26  1  0
 26 27  2  0
 19 28  2  0
 28 29  1  0
 29 30  3  0
 28  7  1  0
 17 10  1  0
 27 20  1  0
M  END
>  <Binding energies>  (4) 
[-7.61]

>  <Ligand effiencies>  (4) 
[-0.25366666666666665]

>  <Interactions>  (4) 
["H-A:TYR:484:OH:4343, V-A:ARG:545:CZ:4921, H-A:GLY:454:N:4045, V-A:ASP:366:CG:3208, V-A:GLU:543:CD:4903, V-B:GLU:543:CG:9875, V-A:HIS:456:CE1:4064, V-B:HIS:456:CE1:9037, V-B:GLU:543:CD:9876, V-A:GLU:543:C:4897, V-B:ARG:545:CZ:9894, H-B:TYR:484:OH:9315, V-B:ARG:545:CD:9891, V-B:ARG:545:CG:9890, H-B:GLY:454:N:9017, V-A:ILE:369:CD1:3234, H-B:LYS:547:NZ:9919, V-B:HIS:456:CD2:9035, H-A:LYS:547:NZ:4946, H-B:HIS:456:ND1:9034, H-B:ILE:455:N:9022"]

$$$$
1j_Grossjean_2025
     RDKit          3D

 20 21  0  0  0  0  0  0  0  0999 V2000
  127.6850  123.1970   61.0390 C   0  0  0  0  0  0  0  0  0  0  0  0
  128.9780  122.4130   60.9040 C   0  0  0  0  0  0  0  0  0  0  0  0
  129.0050  121.0260   61.0260 C   0  0  0  0  0  0  0  0  0  0  0  0
  130.2230  120.3550   60.8780 C   0  0  0  0  0  0  0  0  0  0  0  0
  130.2260  118.8320   61.0000 C   0  0  0  0  0  0  0  0  0  0  0  0
  131.3950  121.1000   60.6170 C   0  0  0  0  0  0  0  0  0  0  0  0
  132.6730  120.4140   60.4070 C   0  0  0  0  0  0  0  0  0  0  0  0
  133.6800  119.8690   60.2400 N   0  0  0  0  0  0  0  0  0  0  0  0
  131.2780  122.5080   60.5350 C   0  0  0  0  0  0  0  0  0  0  0  0
  132.6470  123.6000   60.2160 S   0  0  0  0  0  0  0  0  0  0  0  0
  133.8670  123.3580   61.5420 C   0  0  0  0  0  0  0  0  0  0  0  0
  133.3750  123.9080   62.8820 C   0  0  0  0  0  0  0  0  0  0  0  0
  134.1880  124.3870   63.6740 O   0  0  0  0  0  0  0  0  0  0  0  0
  132.0430  123.8240   63.0930 N   0  0  0  0  0  0  0  0  0  0  0  0
  131.3550  124.2420   64.2230 C   0  0  0  0  0  0  0  0  0  0  0  0
  130.4940  123.5560   64.9440 N   0  0  0  0  0  0  0  0  0  0  0  0
  130.0320  124.2690   65.9520 C   0  0  0  0  0  0  0  0  0  0  0  0
  130.5220  125.5670   66.0660 C   0  0  0  0  0  0  0  0  0  0  0  0
  131.6510  125.8590   64.7760 S   0  0  0  0  0  0  0  0  0  0  0  0
  130.0880  123.1480   60.6580 N   0  0  0  0  0  0  0  0  0  0  0  0
  1  2  1  0
  2  3  2  0
  3  4  1  0
  4  5  1  0
  4  6  2  0
  6  7  1  0
  7  8  3  0
  6  9  1  0
  9 10  1  0
 10 11  1  0
 11 12  1  0
 12 13  2  0
 12 14  1  0
 14 15  1  0
 15 16  2  0
 16 17  1  0
 17 18  2  0
 18 19  1  0
  9 20  2  0
 20  2  1  0
 19 15  1  0
M  END
>  <Binding energies>  (5) 
[-5.88]

>  <Ligand effiencies>  (5) 
[-0.27999999999999997]

>  <Interactions>  (5) 
["H-A:TYR:484:OH:4343, H-A:GLY:454:N:4045, V-A:ASP:366:CG:3208, V-B:GLU:543:CG:9875, V-B:GLU:543:CD:9876, V-B:GLU:543:CB:9874, V-A:PRO:482:CB:4321, V-A:LEU:475:CD2:4254, V-B:TYR:539:CD2:9842, V-A:TRP:381:CZ2:3365, V-A:TYR:484:CE1:4340, V-A:TYR:484:CZ:4342, V-A:TRP:381:CH2:3367, V-B:ALA:541:CB:9860, V-A:ILE:369:CD1:3234, V-B:PRO:540:CA:9851, V-A:ILE:369:CG2:3232, V-B:PRO:540:C:9849, V-B:ALA:541:CA:9858, V-B:TYR:539:C:9835"]

$$$$
1o_Grossjean_2025
     RDKit          3D

 26 27  0  0  0  0  0  0  0  0999 V2000
  129.7530  130.4550   73.3530 C   0  0  0  0  0  0  0  0  0  0  0  0
  129.3860  129.0830   73.3140 O   0  0  0  0  0  0  0  0  0  0  0  0
  128.4730  128.6280   72.4180 C   0  0  0  0  0  0  0  0  0  0  0  0
  127.2670  128.5340   72.6640 O   0  0  0  0  0  0  0  0  0  0  0  0
  129.0760  128.2530   71.0940 C   0  0  0  0  0  0  0  0  0  0  0  0
  130.2310  128.8780   70.6010 C   0  0  0  0  0  0  0  0  0  0  0  0
  130.7660  128.5050   69.3700 C   0  0  0  0  0  0  0  0  0  0  0  0
  130.1570  127.5070   68.6070 C   0  0  0  0  0  0  0  0  0  0  0  0
  130.7860  127.2030   67.3840 N   0  0  0  0  0  0  0  0  0  0  0  0
  130.9730  126.0080   66.7810 C   0  0  0  0  0  0  0  0  0  0  0  0
  130.5610  124.9280   67.2030 O   0  0  0  0  0  0  0  0  0  0  0  0
  131.7380  126.0530   65.4500 C   0  0  0  0  0  0  0  0  0  0  0  0
  131.6420  124.7400   64.6460 C   0  0  0  0  0  0  0  0  0  0  0  0
  133.1600  124.3180   63.7400 S   0  0  0  0  0  0  0  0  0  0  0  0
  132.7240  123.2660   62.3690 C   0  0  0  0  0  0  0  0  0  0  0  0
  133.3580  123.5920   61.2150 N   0  0  0  0  0  0  0  0  0  0  0  0
  133.1120  122.8560   60.1060 C   0  0  0  0  0  0  0  0  0  0  0  0
  133.8690  123.2710   58.8580 C   0  0  0  0  0  0  0  0  0  0  0  0
  132.2230  121.7840   60.0980 C   0  0  0  0  0  0  0  0  0  0  0  0
  131.5440  121.4550   61.2750 C   0  0  0  0  0  0  0  0  0  0  0  0
  130.5640  120.2840   61.2370 C   0  0  0  0  0  0  0  0  0  0  0  0
  131.7820  122.2120   62.4450 C   0  0  0  0  0  0  0  0  0  0  0  0
  131.0360  121.9200   63.6720 C   0  0  0  0  0  0  0  0  0  0  0  0
  130.4470  121.6860   64.6400 N   0  0  0  0  0  0  0  0  0  0  0  0
  129.0050  126.8740   69.0970 C   0  0  0  0  0  0  0  0  0  0  0  0
  128.4720  127.2480   70.3280 C   0  0  0  0  0  0  0  0  0  0  0  0
  1  2  1  0
  2  3  1  0
  3  4  2  0
  3  5  1  0
  5  6  2  0
  6  7  1  0
  7  8  2  0
  8  9  1  0
  9 10  1  0
 10 11  2  0
 10 12  1  0
 12 13  1  0
 13 14  1  0
 14 15  1  0
 15 16  2  0
 16 17  1  0
 17 18  1  0
 17 19  2  0
 19 20  1  0
 20 21  1  0
 20 22  2  0
 22 23  1  0
 23 24  3  0
  8 25  1  0
 25 26  2  0
 26  5  1  0
 22 15  1  0
M  END
>  <Binding energies>  (6) 
[-7.64]

>  <Ligand effiencies>  (6) 
[-0.28296296296296297]

>  <Interactions>  (6) 
["H-A:TYR:484:OH:4343, H-A:GLY:454:N:4045, V-A:ASP:366:CG:3208, V-A:GLU:543:CD:4903, V-A:GLY:544:C:4907, V-A:GLU:543:CB:4901, V-A:HIS:456:CE1:4064, H-A:GLU:543:OE1:4904, V-A:GLU:543:C:4897, V-A:LEU:475:CD2:4254, V-A:TYR:484:CE1:4340, V-A:LEU:475:CD1:4253, V-B:TYR:539:CE2:9844, V-B:ALA:541:CB:9860, V-A:ASP:366:CB:3207, V-A:ILE:369:CD1:3234, H-B:LYS:547:NZ:9919, V-B:HIS:456:CD2:9035, H-A:LYS:547:NZ:4946, H-A:HIS:456:NE2:4065, V-A:LYS:547:CE:4945, V-A:ILE:369:CG2:3232, V-A:ILE:369:CB:3231, V-A:ASP:366:CA:3205, V-A:ILE:369:CG1:3233"]

$$$$
1p_Grossjean_2025
     RDKit          3D

 21 22  0  0  0  0  0  0  0  0999 V2000
  134.3120  124.9450   66.2010 C   0  0  0  0  0  0  0  0  0  0  0  0
  133.0390  125.4480   65.5480 C   0  0  0  0  0  0  0  0  0  0  0  0
  132.9370  125.5890   64.1650 C   0  0  0  0  0  0  0  0  0  0  0  0
  131.7430  126.0700   63.6170 C   0  0  0  0  0  0  0  0  0  0  0  0
  131.6580  126.2310   62.1010 C   0  0  0  0  0  0  0  0  0  0  0  0
  130.6690  126.3930   64.4770 C   0  0  0  0  0  0  0  0  0  0  0  0
  129.4260  126.9430   63.9330 C   0  0  0  0  0  0  0  0  0  0  0  0
  128.4440  127.3780   63.5010 N   0  0  0  0  0  0  0  0  0  0  0  0
  130.8540  126.1970   65.8670 C   0  0  0  0  0  0  0  0  0  0  0  0
  129.6050  126.5420   67.0840 S   0  0  0  0  0  0  0  0  0  0  0  0
  128.8840  128.1540   66.6560 C   0  0  0  0  0  0  0  0  0  0  0  0
  127.4960  128.3990   67.2790 C   0  0  0  0  0  0  0  0  0  0  0  0
  126.3540  128.3990   66.2520 C   0  0  0  0  0  0  0  0  0  0  0  0
  125.8830  127.3270   65.8670 O   0  0  0  0  0  0  0  0  0  0  0  0
  125.9320  129.6180   65.8470 N   0  0  0  0  0  0  0  0  0  0  0  0
  124.9230  129.8980   64.9350 C   0  0  0  0  0  0  0  0  0  0  0  0
  125.0400  129.6460   63.5680 C   0  0  0  0  0  0  0  0  0  0  0  0
  123.8450  130.0570   63.0240 C   0  0  0  0  0  0  0  0  0  0  0  0
  123.0500  130.5330   64.0110 O   0  0  0  0  0  0  0  0  0  0  0  0
  123.7450  130.4290   65.2180 N   0  0  0  0  0  0  0  0  0  0  0  0
  132.0230  125.7490   66.3900 N   0  0  0  0  0  0  0  0  0  0  0  0
  1  2  1  0
  2  3  2  0
  3  4  1  0
  4  5  1  0
  4  6  2  0
  6  7  1  0
  7  8  3  0
  6  9  1  0
  9 10  1  0
 10 11  1  0
 11 12  1  0
 12 13  1  0
 13 14  2  0
 13 15  1  0
 15 16  1  0
 16 17  1  0
 17 18  2  0
 18 19  1  0
 19 20  1  0
  9 21  2  0
 21  2  1  0
 20 16  2  0
M  END
>  <Binding energies>  (7) 
[-6.59]

>  <Ligand effiencies>  (7) 
[-0.29954545454545456]

>  <Interactions>  (7) 
["V-A:ARG:545:CD:4918, H-A:TYR:484:OH:4343, V-A:ARG:545:CZ:4921, V-A:ARG:545:CG:4917, V-A:ASP:366:CG:3208, V-A:GLU:543:CD:4903, V-B:HIS:456:CE1:9037, V-B:GLU:543:CD:9876, V-B:ARG:545:CZ:9894, H-B:TYR:484:OH:9315, H-B:GLY:454:N:9017, V-A:HIS:456:CD2:4063, H-A:HIS:456:NE2:4065, H-B:HIS:456:NE2:9038, H-B:ARG:545:NE:9892, H-B:ARG:545:NH1:9895"]

$$$$
2a_Ghoteimi_2023
     RDKit          3D

 48 53  0  0  0  0  0  0  0  0999 V2000
  127.1780  133.6110   60.6440 C   0  0  0  0  0  0  0  0  0  0  0  0
  128.6410  133.3870   60.2500 C   0  0  0  0  0  0  0  0  0  0  0  0
  128.7210  133.1390   58.8520 O   0  0  0  0  0  0  0  0  0  0  0  0
  129.8150  132.5480   58.3060 C   0  0  0  0  0  0  0  0  0  0  0  0
  130.4850  133.0600   57.4040 O   0  0  0  0  0  0  0  0  0  0  0  0
  130.1310  131.2110   58.9130 C   0  0  0  0  0  0  0  0  0  0  0  0
  129.1640  130.2030   59.0340 C   0  0  0  0  0  0  0  0  0  0  0  0
  129.4910  128.9750   59.6000 C   0  0  0  0  0  0  0  0  0  0  0  0
  130.7880  128.7250   60.0520 C   0  0  0  0  0  0  0  0  0  0  0  0
  131.0060  127.4510   60.6100 N   0  0  0  0  0  0  0  0  0  0  0  0
  130.7090  126.2280   60.1190 C   0  0  0  0  0  0  0  0  0  0  0  0
  130.1200  126.0140   59.0580 O   0  0  0  0  0  0  0  0  0  0  0  0
  131.1220  125.0490   61.0100 C   0  0  0  0  0  0  0  0  0  0  0  0
  131.9610  125.5300   62.5540 S   0  0  0  0  0  0  0  0  0  0  0  0
  130.7370  126.3850   63.5190 C   0  0  0  0  0  0  0  0  0  0  0  0
  129.7740  126.9820   62.7780 N   0  0  0  0  0  0  0  0  0  0  0  0
  128.7870  127.6740   63.4000 C   0  0  0  0  0  0  0  0  0  0  0  0
  127.7640  128.3150   62.5180 C   0  0  0  0  0  0  0  0  0  0  0  0
  127.4980  129.6880   62.5940 C   0  0  0  0  0  0  0  0  0  0  0  0
  126.5360  130.2760   61.7780 C   0  0  0  0  0  0  0  0  0  0  0  0
  125.8090  129.5170   60.8500 C   0  0  0  0  0  0  0  0  0  0  0  0
  124.8250  130.1180   60.0580 N   0  0  0  0  0  0  0  0  0  0  0  0
  125.0320  130.3480   58.6140 C   0  0  0  0  0  0  0  0  0  0  0  0
  123.7360  130.6750   57.8420 C   0  0  0  0  0  0  0  0  0  0  0  0
  123.0770  131.7780   58.4430 O   0  0  0  0  0  0  0  0  0  0  0  0
  122.7220  131.4980   59.7880 C   0  0  0  0  0  0  0  0  0  0  0  0
  123.9850  131.1970   60.6200 C   0  0  0  0  0  0  0  0  0  0  0  0
  126.0720  128.1390   60.7860 C   0  0  0  0  0  0  0  0  0  0  0  0
  127.0350  127.5510   61.6000 C   0  0  0  0  0  0  0  0  0  0  0  0
  128.7390  127.7710   64.7930 C   0  0  0  0  0  0  0  0  0  0  0  0
  129.7250  127.1610   65.5810 C   0  0  0  0  0  0  0  0  0  0  0  0
  129.6170  127.3100   67.0640 C   0  0  0  0  0  0  0  0  0  0  0  0
  128.6160  126.6330   67.7670 C   0  0  0  0  0  0  0  0  0  0  0  0
  128.4950  126.7810   69.1450 C   0  0  0  0  0  0  0  0  0  0  0  0
  129.3730  127.6060   69.8640 C   0  0  0  0  0  0  0  0  0  0  0  0
  129.2570  127.7820   71.2460 N   0  0  0  0  0  0  0  0  0  0  0  0
  128.7450  129.0640   71.7710 C   0  0  0  0  0  0  0  0  0  0  0  0
  128.3040  128.9850   73.2480 C   0  0  0  0  0  0  0  0  0  0  0  0
  129.3720  128.5020   74.0490 O   0  0  0  0  0  0  0  0  0  0  0  0
  129.7870  127.2070   73.6460 C   0  0  0  0  0  0  0  0  0  0  0  0
  130.2620  127.2370   72.1780 C   0  0  0  0  0  0  0  0  0  0  0  0
  130.3670  128.2910   69.1490 C   0  0  0  0  0  0  0  0  0  0  0  0
  130.4870  128.1450   67.7700 C   0  0  0  0  0  0  0  0  0  0  0  0
  130.7550  126.4390   64.9300 C   0  0  0  0  0  0  0  0  0  0  0  0
  131.7830  125.7330   65.7030 C   0  0  0  0  0  0  0  0  0  0  0  0
  132.5930  125.1780   66.3150 N   0  0  0  0  0  0  0  0  0  0  0  0
  131.7590  129.7310   59.9410 C   0  0  0  0  0  0  0  0  0  0  0  0
  131.4310  130.9590   59.3730 C   0  0  0  0  0  0  0  0  0  0  0  0
  1  2  1  0
  2  3  1  0
  3  4  1  0
  4  5  2  0
  4  6  1  0
  6  7  2  0
  7  8  1  0
  8  9  2  0
  9 10  1  0
 10 11  1  0
 11 12  2  0
 11 13  1  0
 13 14  1  0
 14 15  1  0
 15 16  2  0
 16 17  1  0
 17 18  1  0
 18 19  2  0
 19 20  1  0
 20 21  2  0
 21 22  1  0
 22 23  1  0
 23 24  1  0
 24 25  1  0
 25 26  1  0
 26 27  1  0
 21 28  1  0
 28 29  2  0
 17 30  2  0
 30 31  1  0
 31 32  1  0
 32 33  2  0
 33 34  1  0
 34 35  2  0
 35 36  1  0
 36 37  1  0
 37 38  1  0
 38 39  1  0
 39 40  1  0
 40 41  1  0
 35 42  1  0
 42 43  2  0
 31 44  2  0
 44 45  1  0
 45 46  3  0
  9 47  1  0
 47 48  2  0
 48  6  1  0
 44 15  1  0
 29 18  1  0
 43 32  1  0
 27 22  1  0
 41 36  1  0
M  END
>  <Binding energies>  (8) 
[-9.05]

>  <Ligand effiencies>  (8) 
[-0.18469387755102043]

>  <Interactions>  (8) 
["H-A:ASP:366:OD2:3210, H-A:TYR:484:OH:4343, H-A:GLU:543:OE2:4905, V-A:PRO:540:CA:4878, V-A:GLU:543:CD:4903, V-A:PRO:540:CB:4880, V-A:GLU:543:CG:4902, V-A:GLU:543:CB:4901, V-A:HIS:456:CE1:4064, V-B:GLU:543:CD:9876, V-B:GLU:543:CB:9874, V-A:TYR:539:CZ:4872, V-A:TYR:539:CE2:4871, V-A:PRO:540:N:4879, V-B:GLU:543:C:9870, H-B:LYS:547:NZ:9919, V-B:HIS:456:CD2:9035, H-A:LYS:547:NZ:4946, H-A:HIS:456:NE2:4065, V-B:LYS:547:CE:9918, V-B:ASP:366:CB:8179, V-A:LYS:547:CE:4945, V-B:ASP:366:CG:8180, V-B:ILE:369:CG1:8205, V-B:ILE:369:CD1:8206, V-B:ILE:369:CG2:8204, V-B:ILE:369:CB:8203, V-B:ASP:366:CA:8177, V-A:TYR:539:CD2:4869, H-A:TYR:539:OH:4873, H-A:ARG:545:NH2:4923, V-A:TYR:539:C:4862, V-B:ASP:366:C:8175, H-A:TYR:539:N:4865"]

$$$$
2aa_Ghoteimi_2023
     RDKit          3D

 48 53  0  0  0  0  0  0  0  0999 V2000
  134.5730  126.5820   74.5240 C   0  0  0  0  0  0  0  0  0  0  0  0
  134.1460  125.3580   75.3420 C   0  0  0  0  0  0  0  0  0  0  0  0
  132.8700  125.6010   75.9210 O   0  0  0  0  0  0  0  0  0  0  0  0
  131.7940  124.8420   75.5930 C   0  0  0  0  0  0  0  0  0  0  0  0
  131.3800  123.9100   76.2910 O   0  0  0  0  0  0  0  0  0  0  0  0
  131.1450  125.2570   74.3030 C   0  0  0  0  0  0  0  0  0  0  0  0
  131.0670  126.6030   73.9140 C   0  0  0  0  0  0  0  0  0  0  0  0
  130.4640  126.9560   72.7110 C   0  0  0  0  0  0  0  0  0  0  0  0
  129.9200  125.9770   71.8780 C   0  0  0  0  0  0  0  0  0  0  0  0
  129.3370  126.4460   70.6840 N   0  0  0  0  0  0  0  0  0  0  0  0
  128.1130  126.9760   70.4690 C   0  0  0  0  0  0  0  0  0  0  0  0
  127.2640  127.1740   71.3400 O   0  0  0  0  0  0  0  0  0  0  0  0
  127.8320  127.3590   69.0100 C   0  0  0  0  0  0  0  0  0  0  0  0
  129.0610  127.6840   68.3520 O   0  0  0  0  0  0  0  0  0  0  0  0
  129.1380  127.6560   66.9660 C   0  0  0  0  0  0  0  0  0  0  0  0
  128.7130  128.7530   66.2780 N   0  0  0  0  0  0  0  0  0  0  0  0
  128.7780  128.7600   64.9230 C   0  0  0  0  0  0  0  0  0  0  0  0
  128.2900  129.9960   64.2360 C   0  0  0  0  0  0  0  0  0  0  0  0
  129.1770  130.8260   63.5450 C   0  0  0  0  0  0  0  0  0  0  0  0
  128.7270  131.9750   62.8980 C   0  0  0  0  0  0  0  0  0  0  0  0
  127.3690  132.3280   62.9070 C   0  0  0  0  0  0  0  0  0  0  0  0
  126.9020  133.4850   62.2730 N   0  0  0  0  0  0  0  0  0  0  0  0
  127.8260  134.5540   61.8430 C   0  0  0  0  0  0  0  0  0  0  0  0
  127.1230  135.8830   61.4970 C   0  0  0  0  0  0  0  0  0  0  0  0
  126.1170  135.6600   60.5220 O   0  0  0  0  0  0  0  0  0  0  0  0
  125.1290  134.7570   60.9930 C   0  0  0  0  0  0  0  0  0  0  0  0
  125.7730  133.3940   61.3240 C   0  0  0  0  0  0  0  0  0  0  0  0
  126.4870  131.5030   63.6200 C   0  0  0  0  0  0  0  0  0  0  0  0
  126.9380  130.3570   64.2690 C   0  0  0  0  0  0  0  0  0  0  0  0
  129.2590  127.6530   64.2170 C   0  0  0  0  0  0  0  0  0  0  0  0
  129.6910  126.5080   64.8990 C   0  0  0  0  0  0  0  0  0  0  0  0
  130.1700  125.3470   64.0890 C   0  0  0  0  0  0  0  0  0  0  0  0
  129.8110  124.0440   64.4420 C   0  0  0  0  0  0  0  0  0  0  0  0
  130.2700  122.9570   63.7040 C   0  0  0  0  0  0  0  0  0  0  0  0
  131.1140  123.1410   62.5980 C   0  0  0  0  0  0  0  0  0  0  0  0
  131.5850  122.0650   61.8410 N   0  0  0  0  0  0  0  0  0  0  0  0
  132.8530  122.1480   61.0910 C   0  0  0  0  0  0  0  0  0  0  0  0
  133.3780  120.7760   60.6170 C   0  0  0  0  0  0  0  0  0  0  0  0
  132.3810  120.1130   59.8540 O   0  0  0  0  0  0  0  0  0  0  0  0
  131.2020  119.8940   60.6120 C   0  0  0  0  0  0  0  0  0  0  0  0
  130.6190  121.2420   61.0840 C   0  0  0  0  0  0  0  0  0  0  0  0
  131.4640  124.4520   62.2480 C   0  0  0  0  0  0  0  0  0  0  0  0
  131.0050  125.5390   62.9850 C   0  0  0  0  0  0  0  0  0  0  0  0
  129.6420  126.5170   66.3130 C   0  0  0  0  0  0  0  0  0  0  0  0
  130.1190  125.3850   67.1100 C   0  0  0  0  0  0  0  0  0  0  0  0
  130.4970  124.4900   67.7400 N   0  0  0  0  0  0  0  0  0  0  0  0
  130.0000  124.6300   72.2570 C   0  0  0  0  0  0  0  0  0  0  0  0
  130.6070  124.2780   73.4590 C   0  0  0  0  0  0  0  0  0  0  0  0
  1  2  1  0
  2  3  1  0
  3  4  1  0
  4  5  2  0
  4  6  1  0
  6  7  2  0
  7  8  1  0
  8  9  2  0
  9 10  1  0
 10 11  1  0
 11 12  2  0
 11 13  1  0
 13 14  1  0
 14 15  1  0
 15 16  2  0
 16 17  1  0
 17 18  1  0
 18 19  2  0
 19 20  1  0
 20 21  2  0
 21 22  1  0
 22 23  1  0
 23 24  1  0
 24 25  1  0
 25 26  1  0
 26 27  1  0
 21 28  1  0
 28 29  2  0
 17 30  2  0
 30 31  1  0
 31 32  1  0
 32 33  2  0
 33 34  1  0
 34 35  2  0
 35 36  1  0
 36 37  1  0
 37 38  1  0
 38 39  1  0
 39 40  1  0
 40 41  1  0
 35 42  1  0
 42 43  2  0
 31 44  2  0
 44 45  1  0
 45 46  3  0
  9 47  1  0
 47 48  2  0
 48  6  1  0
 44 15  1  0
 29 18  1  0
 43 32  1  0
 27 22  1  0
 41 36  1  0
M  END
>  <Binding energies>  (9) 
[-8.97]

>  <Ligand effiencies>  (9) 
[-0.18306122448979592]

>  <Interactions>  (9) 
["H-A:TYR:484:OH:4343, V-A:GLU:543:CD:4903, V-A:GLU:543:CG:4902, V-B:GLU:543:CG:9875, V-A:HIS:456:CE1:4064, V-B:HIS:456:CE1:9037, V-B:GLU:543:CD:9876, V-B:GLU:543:CB:9874, V-A:LEU:475:CD2:4254, V-B:TYR:539:CD2:9842, V-A:TRP:381:CZ2:3365, V-A:TRP:381:CH2:3367, V-B:ALA:541:CB:9860, V-A:ALA:541:CB:4887, V-A:TYR:539:CE2:4871, V-A:ILE:369:CD1:3234, V-B:GLU:543:C:9870, H-B:GLU:543:O:9871, H-A:HIS:456:ND1:4062, H-B:LYS:547:NZ:9919, H-A:HIS:456:NE2:4065, V-A:LYS:547:CE:4945, V-B:LEU:475:CG:9224, V-B:LEU:475:CD2:9226, V-A:TYR:539:CD2:4869, V-A:ILE:369:CG2:3232, V-B:TRP:381:CH2:8339, V-A:HIS:456:CB:4060, V-A:LYS:547:CG:4943, V-A:LYS:547:CD:4944, V-B:TRP:381:CZ2:8337, V-A:VAL:458:CG2:4082, V-B:LEU:475:CD1:9225"]

$$$$
2b_Ghoteimi_2023
     RDKit          3D

 42 47  0  0  0  0  0  0  0  0999 V2000
  130.2590  124.1880   67.7510 N   0  0  0  0  0  0  0  0  0  0  0  0
  129.9630  125.1270   67.1430 C   0  0  0  0  0  0  0  0  0  0  0  0
  129.5900  126.3130   66.3680 C   0  0  0  0  0  0  0  0  0  0  0  0
  129.7650  126.3390   64.9610 C   0  0  0  0  0  0  0  0  0  0  0  0
  130.3230  125.2000   64.1730 C   0  0  0  0  0  0  0  0  0  0  0  0
  131.3700  125.4120   63.2750 C   0  0  0  0  0  0  0  0  0  0  0  0
  131.8940  124.3540   62.5370 C   0  0  0  0  0  0  0  0  0  0  0  0
  131.3720  123.0570   62.6650 C   0  0  0  0  0  0  0  0  0  0  0  0
  131.8880  121.9780   61.9460 N   0  0  0  0  0  0  0  0  0  0  0  0
  131.0120  121.2580   61.0000 C   0  0  0  0  0  0  0  0  0  0  0  0
  131.5730  119.8870   60.5690 C   0  0  0  0  0  0  0  0  0  0  0  0
  132.8810  120.0380   60.0390 O   0  0  0  0  0  0  0  0  0  0  0  0
  133.7710  120.5980   60.9920 C   0  0  0  0  0  0  0  0  0  0  0  0
  133.2700  121.9910   61.4250 C   0  0  0  0  0  0  0  0  0  0  0  0
  130.3190  122.8550   63.5680 C   0  0  0  0  0  0  0  0  0  0  0  0
  129.7980  123.9120   64.3080 C   0  0  0  0  0  0  0  0  0  0  0  0
  129.3890  127.4930   64.2630 C   0  0  0  0  0  0  0  0  0  0  0  0
  128.8250  128.5780   64.9400 C   0  0  0  0  0  0  0  0  0  0  0  0
  128.3800  129.8210   64.2380 C   0  0  0  0  0  0  0  0  0  0  0  0
  127.0430  130.2320   64.2920 C   0  0  0  0  0  0  0  0  0  0  0  0
  126.6250  131.3960   63.6540 C   0  0  0  0  0  0  0  0  0  0  0  0
  127.5260  132.1880   62.9250 C   0  0  0  0  0  0  0  0  0  0  0  0
  127.1260  133.3770   62.3040 N   0  0  0  0  0  0  0  0  0  0  0  0
  128.1260  134.4220   62.0040 C   0  0  0  0  0  0  0  0  0  0  0  0
  127.5040  135.8010   61.6910 C   0  0  0  0  0  0  0  0  0  0  0  0
  126.5610  135.6800   60.6370 O   0  0  0  0  0  0  0  0  0  0  0  0
  125.5050  134.7990   60.9830 C   0  0  0  0  0  0  0  0  0  0  0  0
  126.0660  133.3910   61.2780 C   0  0  0  0  0  0  0  0  0  0  0  0
  128.8660  131.7760   62.8790 C   0  0  0  0  0  0  0  0  0  0  0  0
  129.2840  130.6130   63.5200 C   0  0  0  0  0  0  0  0  0  0  0  0
  128.6570  128.5510   66.2870 N   0  0  0  0  0  0  0  0  0  0  0  0
  129.0440  127.4590   66.9880 C   0  0  0  0  0  0  0  0  0  0  0  0
  128.7550  127.5980   68.7390 S   0  0  0  0  0  0  0  0  0  0  0  0
  130.2420  128.3340   69.4840 C   0  0  0  0  0  0  0  0  0  0  0  0
  130.1060  128.4960   70.9980 C   0  0  0  0  0  0  0  0  0  0  0  0
  130.4440  127.5700   71.7380 O   0  0  0  0  0  0  0  0  0  0  0  0
  129.6040  129.6790   71.4140 N   0  0  0  0  0  0  0  0  0  0  0  0
  129.3880  130.0900   72.7210 C   0  0  0  0  0  0  0  0  0  0  0  0
  129.4970  131.4190   73.1290 C   0  0  0  0  0  0  0  0  0  0  0  0
  129.2110  131.4050   74.4740 C   0  0  0  0  0  0  0  0  0  0  0  0
  128.9420  130.1340   74.8560 O   0  0  0  0  0  0  0  0  0  0  0  0
  129.0560  129.3090   73.7350 N   0  0  0  0  0  0  0  0  0  0  0  0
  1  2  3  0
  2  3  1  0
  3  4  2  0
  4  5  1  0
  5  6  2  0
  6  7  1  0
  7  8  2  0
  8  9  1  0
  9 10  1  0
 10 11  1  0
 11 12  1  0
 12 13  1  0
 13 14  1  0
  8 15  1  0
 15 16  2  0
  4 17  1  0
 17 18  2  0
 18 19  1  0
 19 20  2  0
 20 21  1  0
 21 22  2  0
 22 23  1  0
 23 24  1  0
 24 25  1  0
 25 26  1  0
 26 27  1  0
 27 28  1  0
 22 29  1  0
 29 30  2  0
 18 31  1  0
 31 32  2  0
 32 33  1  0
 33 34  1  0
 34 35  1  0
 35 36  2  0
 35 37  1  0
 37 38  1  0
 38 39  1  0
 39 40  2  0
 40 41  1  0
 41 42  1  0
 32  3  1  0
 42 38  2  0
 16  5  1  0
 30 19  1  0
 14  9  1  0
 28 23  1  0
M  END
>  <Binding energies>  (10) 
[-9.86]

>  <Ligand effiencies>  (10) 
[-0.22930232558139532]

>  <Interactions>  (10) 
["H-A:TYR:484:OH:4343, V-A:GLU:543:CD:4903, V-A:GLU:543:CG:4902, V-A:GLU:543:CB:4901, V-B:GLU:543:CG:9875, V-A:HIS:456:CE1:4064, V-B:GLU:543:CD:9876, V-A:GLU:543:C:4897, V-B:GLU:543:CB:9874, V-A:LEU:475:CD2:4254, V-B:TYR:539:CD2:9842, V-A:TRP:381:CZ2:3365, V-A:TRP:381:CH2:3367, V-B:ALA:541:CB:9860, V-A:ALA:541:CB:4887, V-A:ALA:541:CA:4885, V-A:TYR:539:CE2:4871, V-A:ILE:369:CD1:3234, V-B:HIS:456:CD2:9035, H-A:LYS:547:NZ:4946, H-A:HIS:456:NE2:4065, H-A:GLU:543:O:4898, H-B:HIS:456:NE2:9038, V-A:LYS:547:CE:4945, V-B:LEU:475:CD2:9226, V-A:TYR:539:CD2:4869, V-A:ILE:369:CG2:3232, V-B:TRP:381:CH2:8339, V-B:LEU:475:CD1:9225, V-B:PRO:482:CB:9293"]

$$$$
2c_Ghoteimi_2023
     RDKit          3D

 42 47  0  0  0  0  0  0  0  0999 V2000
  131.5670  126.6450   74.5030 N   0  0  0  0  0  0  0  0  0  0  0  0
  131.0010  126.8270   73.5110 C   0  0  0  0  0  0  0  0  0  0  0  0
  130.2810  127.0520   72.2540 C   0  0  0  0  0  0  0  0  0  0  0  0
  129.7050  125.9670   71.5480 C   0  0  0  0  0  0  0  0  0  0  0  0
  129.7810  124.5460   72.0020 C   0  0  0  0  0  0  0  0  0  0  0  0
  129.2460  124.1730   73.2360 C   0  0  0  0  0  0  0  0  0  0  0  0
  129.3080  122.8500   73.6640 C   0  0  0  0  0  0  0  0  0  0  0  0
  129.9200  121.8630   72.8750 C   0  0  0  0  0  0  0  0  0  0  0  0
  129.9750  120.5260   73.2760 N   0  0  0  0  0  0  0  0  0  0  0  0
  131.1570  120.0430   74.0170 C   0  0  0  0  0  0  0  0  0  0  0  0
  131.2660  118.5030   74.0520 C   0  0  0  0  0  0  0  0  0  0  0  0
  130.0740  117.9430   74.5800 O   0  0  0  0  0  0  0  0  0  0  0  0
  128.9420  118.2830   73.7940 C   0  0  0  0  0  0  0  0  0  0  0  0
  128.7720  119.8160   73.7510 C   0  0  0  0  0  0  0  0  0  0  0  0
  130.4570  122.2480   71.6390 C   0  0  0  0  0  0  0  0  0  0  0  0
  130.3930  123.5710   71.2100 C   0  0  0  0  0  0  0  0  0  0  0  0
  129.0240  126.2350   70.3530 C   0  0  0  0  0  0  0  0  0  0  0  0
  128.8970  127.5480   69.8900 C   0  0  0  0  0  0  0  0  0  0  0  0
  128.1660  127.8870   68.6310 C   0  0  0  0  0  0  0  0  0  0  0  0
  127.0370  127.1590   68.2420 C   0  0  0  0  0  0  0  0  0  0  0  0
  126.3480  127.4740   67.0730 C   0  0  0  0  0  0  0  0  0  0  0  0
  126.7710  128.5240   66.2420 C   0  0  0  0  0  0  0  0  0  0  0  0
  126.0760  128.8700   65.0780 N   0  0  0  0  0  0  0  0  0  0  0  0
  125.0700  129.9510   65.1160 C   0  0  0  0  0  0  0  0  0  0  0  0
  124.1280  129.9620   63.8940 C   0  0  0  0  0  0  0  0  0  0  0  0
  124.8850  130.0190   62.6970 O   0  0  0  0  0  0  0  0  0  0  0  0
  125.7420  128.8960   62.5700 C   0  0  0  0  0  0  0  0  0  0  0  0
  126.7310  128.8480   63.7540 C   0  0  0  0  0  0  0  0  0  0  0  0
  127.8950  129.2590   66.6430 C   0  0  0  0  0  0  0  0  0  0  0  0
  128.5820  128.9450   67.8130 C   0  0  0  0  0  0  0  0  0  0  0  0
  129.4470  128.5860   70.5700 N   0  0  0  0  0  0  0  0  0  0  0  0
  130.1370  128.3490   71.7110 C   0  0  0  0  0  0  0  0  0  0  0  0
  130.7970  129.8200   72.4620 S   0  0  0  0  0  0  0  0  0  0  0  0
  129.3890  130.8360   73.0010 C   0  0  0  0  0  0  0  0  0  0  0  0
  128.3320  130.0100   73.7350 C   0  0  0  0  0  0  0  0  0  0  0  0
  128.6200  128.8820   74.1390 O   0  0  0  0  0  0  0  0  0  0  0  0
  127.1270  130.6020   73.8800 N   0  0  0  0  0  0  0  0  0  0  0  0
  126.0140  130.0730   74.5170 C   0  0  0  0  0  0  0  0  0  0  0  0
  125.5180  128.8600   74.4030 N   0  0  0  0  0  0  0  0  0  0  0  0
  124.4530  128.6990   75.1630 C   0  0  0  0  0  0  0  0  0  0  0  0
  124.0630  129.8010   75.9180 C   0  0  0  0  0  0  0  0  0  0  0  0
  125.1590  131.1140   75.6090 S   0  0  0  0  0  0  0  0  0  0  0  0
  1  2  3  0
  2  3  1  0
  3  4  2  0
  4  5  1  0
  5  6  2  0
  6  7  1  0
  7  8  2  0
  8  9  1  0
  9 10  1  0
 10 11  1  0
 11 12  1  0
 12 13  1  0
 13 14  1  0
  8 15  1  0
 15 16  2  0
  4 17  1  0
 17 18  2  0
 18 19  1  0
 19 20  2  0
 20 21  1  0
 21 22  2  0
 22 23  1  0
 23 24  1  0
 24 25  1  0
 25 26  1  0
 26 27  1  0
 27 28  1  0
 22 29  1  0
 29 30  2  0
 18 31  1  0
 31 32  2  0
 32 33  1  0
 33 34  1  0
 34 35  1  0
 35 36  2  0
 35 37  1  0
 37 38  1  0
 38 39  2  0
 39 40  1  0
 40 41  2  0
 41 42  1  0
 32  3  1  0
 42 38  1  0
 16  5  1  0
 30 19  1  0
 14  9  1  0
 28 23  1  0
M  END
>  <Binding energies>  (11) 
[-9.89]

>  <Ligand effiencies>  (11) 
[-0.23]

>  <Interactions>  (11) 
["V-A:GLU:543:CB:4901, V-A:HIS:456:CE1:4064, V-B:HIS:456:CE1:9037, V-B:GLU:543:CD:9876, V-B:GLU:543:CB:9874, V-B:ARG:545:CZ:9894, V-B:ARG:545:CG:9890, V-A:HIS:456:CD2:4063, V-B:GLU:543:C:9870, H-B:LYS:547:NZ:9919, V-B:HIS:456:CD2:9035, H-A:LYS:547:NZ:4946, V-A:TYR:484:CD1:4338, V-A:TYR:484:CD2:4339, V-A:HIS:456:CG:4061, V-A:TYR:484:CB:4336, V-B:LYS:547:CE:9918, V-A:TYR:484:CG:4337, V-B:ASP:473:CG:9207, V-B:HIS:456:CG:9033, V-B:HIS:456:CB:9032, V-A:LYS:547:CE:4945, V-A:ASP:473:CG:4235, V-A:ASP:473:CB:4234, V-A:TYR:484:C:4332, V-B:LYS:547:CD:9917, V-B:VAL:458:CG2:9054, V-B:HIS:456:C:9028, V-B:LYS:547:CG:9916, V-A:ASP:485:CA:4348, V-B:VAL:457:C:9040, V-B:VAL:457:CA:9042, V-A:ASP:485:C:4346"]

$$$$
2j_Grossjean_2025
     RDKit          3D

 23 24  0  0  0  0  0  0  0  0999 V2000
  133.6860  122.9810   58.0770 C   0  0  0  0  0  0  0  0  0  0  0  0
  133.0230  122.7450   59.4210 C   0  0  0  0  0  0  0  0  0  0  0  0
  132.0400  121.7730   59.5900 C   0  0  0  0  0  0  0  0  0  0  0  0
  131.4590  121.5900   60.8530 C   0  0  0  0  0  0  0  0  0  0  0  0
  130.3740  120.5100   61.0220 C   0  0  0  0  0  0  0  0  0  0  0  0
  129.1650  121.0740   61.0210 F   0  0  0  0  0  0  0  0  0  0  0  0
  130.4420  119.6330   60.0190 F   0  0  0  0  0  0  0  0  0  0  0  0
  130.4980  119.8270   62.1620 F   0  0  0  0  0  0  0  0  0  0  0  0
  131.8970  122.4090   61.9240 C   0  0  0  0  0  0  0  0  0  0  0  0
  131.3250  122.2620   63.2660 C   0  0  0  0  0  0  0  0  0  0  0  0
  130.8730  122.1440   64.3250 N   0  0  0  0  0  0  0  0  0  0  0  0
  132.9010  123.3720   61.6630 C   0  0  0  0  0  0  0  0  0  0  0  0
  133.5300  124.4570   62.9370 S   0  0  0  0  0  0  0  0  0  0  0  0
  132.3320  125.8130   63.1800 C   0  0  0  0  0  0  0  0  0  0  0  0
  131.2440  125.5330   64.2270 C   0  0  0  0  0  0  0  0  0  0  0  0
  130.2520  124.8600   63.9400 O   0  0  0  0  0  0  0  0  0  0  0  0
  131.4690  126.0880   65.4390 N   0  0  0  0  0  0  0  0  0  0  0  0
  130.6540  125.9930   66.5590 C   0  0  0  0  0  0  0  0  0  0  0  0
  130.5070  124.9630   67.3650 N   0  0  0  0  0  0  0  0  0  0  0  0
  129.6490  125.2230   68.3330 C   0  0  0  0  0  0  0  0  0  0  0  0
  129.0780  126.4920   68.3240 C   0  0  0  0  0  0  0  0  0  0  0  0
  129.7050  127.3850   66.9710 S   0  0  0  0  0  0  0  0  0  0  0  0
  133.4520  123.5320   60.4330 N   0  0  0  0  0  0  0  0  0  0  0  0
  1  2  1  0
  2  3  2  0
  3  4  1  0
  4  5  1  0
  5  6  1  0
  5  7  1  0
  5  8  1  0
  4  9  2  0
  9 10  1  0
 10 11  3  0
  9 12  1  0
 12 13  1  0
 13 14  1  0
 14 15  1  0
 15 16  2  0
 15 17  1  0
 17 18  1  0
 18 19  2  0
 19 20  1  0
 20 21  2  0
 21 22  1  0
 12 23  2  0
 23  2  1  0
 22 18  1  0
M  END
>  <Binding energies>  (12) 
[-6.0]

>  <Ligand effiencies>  (12) 
[-0.25]

>  <Interactions>  (12) 
["H-A:TYR:484:OH:4343, V-A:ARG:545:CZ:4921, H-A:GLY:454:N:4045, V-A:GLU:543:CD:4903, V-A:HIS:456:CE1:4064, H-A:GLU:543:OE1:4904, V-B:GLU:543:CB:9874, V-A:LEU:475:CD2:4254, V-B:TYR:539:CD2:9842, V-A:TRP:381:CH2:3367, V-A:LEU:475:CD1:4253, V-B:TYR:539:CE2:9844, V-B:ALA:541:CB:9860, V-A:ILE:369:CD1:3234, V-B:GLU:543:C:9870, V-B:GLU:543:CA:9872, H-A:HIS:456:NE2:4065, V-A:ILE:369:CG2:3232, V-B:PRO:540:C:9849, V-B:ALA:541:CA:9858, V-A:LEU:475:CG:4252, V-A:ILE:369:CB:3231"]

$$$$
3ab_Grossjean_2025
     RDKit          3D

 33 35  0  0  0  0  0  0  0  0999 V2000
  130.1290  125.5580   72.4620 C   0  0  0  0  0  0  0  0  0  0  0  0
  129.3990  126.5810   73.1260 O   0  0  0  0  0  0  0  0  0  0  0  0
  129.3560  127.8440   72.6300 C   0  0  0  0  0  0  0  0  0  0  0  0
  129.3750  128.8540   73.3380 O   0  0  0  0  0  0  0  0  0  0  0  0
  129.2870  127.8890   71.1310 C   0  0  0  0  0  0  0  0  0  0  0  0
  128.2020  127.3530   70.4200 C   0  0  0  0  0  0  0  0  0  0  0  0
  128.1650  127.4110   69.0300 C   0  0  0  0  0  0  0  0  0  0  0  0
  129.2190  128.0090   68.3210 C   0  0  0  0  0  0  0  0  0  0  0  0
  129.2830  128.1280   66.9200 N   0  0  0  0  0  0  0  0  0  0  0  0
  128.8680  129.1290   66.1160 C   0  0  0  0  0  0  0  0  0  0  0  0
  128.3190  130.1650   66.4890 O   0  0  0  0  0  0  0  0  0  0  0  0
  129.1190  128.9160   64.6210 C   0  0  0  0  0  0  0  0  0  0  0  0
  127.6320  128.3330   63.7540 S   0  0  0  0  0  0  0  0  0  0  0  0
  126.3140  129.4690   64.1280 C   0  0  0  0  0  0  0  0  0  0  0  0
  126.2640  130.5350   63.2940 N   0  0  0  0  0  0  0  0  0  0  0  0
  125.3030  131.4800   63.4610 C   0  0  0  0  0  0  0  0  0  0  0  0
  125.3150  132.6260   62.4930 C   0  0  0  0  0  0  0  0  0  0  0  0
  126.5130  133.2890   62.1790 C   0  0  0  0  0  0  0  0  0  0  0  0
  126.5300  134.3530   61.2810 C   0  0  0  0  0  0  0  0  0  0  0  0
  125.3450  134.7710   60.6830 C   0  0  0  0  0  0  0  0  0  0  0  0
  124.1450  134.1340   60.9790 C   0  0  0  0  0  0  0  0  0  0  0  0
  124.1320  133.0710   61.8780 C   0  0  0  0  0  0  0  0  0  0  0  0
  124.3730  131.3790   64.5010 C   0  0  0  0  0  0  0  0  0  0  0  0
  124.4160  130.2960   65.3900 C   0  0  0  0  0  0  0  0  0  0  0  0
  123.3770  130.2250   66.5260 C   0  0  0  0  0  0  0  0  0  0  0  0
  123.6400  129.2600   67.4090 F   0  0  0  0  0  0  0  0  0  0  0  0
  123.3470  131.3790   67.1940 F   0  0  0  0  0  0  0  0  0  0  0  0
  122.1660  129.9880   66.0200 F   0  0  0  0  0  0  0  0  0  0  0  0
  125.4190  129.3110   65.2100 C   0  0  0  0  0  0  0  0  0  0  0  0
  125.5440  128.1890   66.1440 C   0  0  0  0  0  0  0  0  0  0  0  0
  125.6400  127.3040   66.8840 N   0  0  0  0  0  0  0  0  0  0  0  0
  130.2960  128.5480   69.0260 C   0  0  0  0  0  0  0  0  0  0  0  0
  130.3320  128.4880   70.4150 C   0  0  0  0  0  0  0  0  0  0  0  0
  1  2  1  0
  2  3  1  0
  3  4  2  0
  3  5  1  0
  5  6  2  0
  6  7  1  0
  7  8  2  0
  8  9  1  0
  9 10  1  0
 10 11  2  0
 10 12  1  0
 12 13  1  0
 13 14  1  0
 14 15  2  0
 15 16  1  0
 16 17  1  0
 17 18  2  0
 18 19  1  0
 19 20  2  0
 20 21  1  0
 21 22  2  0
 16 23  2  0
 23 24  1  0
 24 25  1  0
 25 26  1  0
 25 27  1  0
 25 28  1  0
 24 29  2  0
 29 30  1  0
 30 31  3  0
  8 32  1  0
 32 33  2  0
 33  5  1  0
 29 14  1  0
 22 17  1  0
M  END
>  <Binding energies>  (13) 
[-7.54]

>  <Ligand effiencies>  (13) 
[-0.22176470588235295]

>  <Interactions>  (13) 
["V-A:GLU:543:CD:4903, V-A:GLU:543:CG:4902, V-A:GLU:543:CB:4901, V-A:HIS:456:CE1:4064, V-B:HIS:456:CE1:9037, H-A:GLU:543:OE1:4904, V-A:GLU:543:C:4897, V-B:ARG:545:CZ:9894, H-B:TYR:484:OH:9315, V-B:ARG:545:CD:9891, V-B:ARG:545:CG:9890, V-A:TYR:539:CE2:4871, H-B:LYS:547:NZ:9919, H-A:LYS:547:NZ:4946, H-B:ARG:545:NE:9892, V-B:ILE:369:CD1:8206, V-B:ILE:369:CG2:8204, V-B:LEU:475:CD2:9226, V-A:TYR:539:CD2:4869, V-B:GLY:453:CA:9011, V-B:TYR:484:CZ:9314, V-B:TRP:381:CH2:8339, V-B:GLY:453:C:9009, V-B:GLY:454:CA:9016, V-B:TYR:484:CE2:9313, V-B:GLY:454:C:9014, V-B:ARG:545:CB:9889, V-B:ILE:455:C:9019, V-B:ILE:455:CA:9021, V-B:VAL:452:C:9001"]

$$$$
3ac_Grossjean_2025
     RDKit          3D

 31 33  0  0  0  0  0  0  0  0999 V2000
  129.7540  119.1380   73.7660 C   0  0  0  0  0  0  0  0  0  0  0  0
  130.6950  120.2010   73.6560 O   0  0  0  0  0  0  0  0  0  0  0  0
  130.3010  121.3970   73.0870 C   0  0  0  0  0  0  0  0  0  0  0  0
  131.1900  121.9800   72.1840 C   0  0  0  0  0  0  0  0  0  0  0  0
  130.8770  123.1820   71.5580 C   0  0  0  0  0  0  0  0  0  0  0  0
  129.6690  123.8260   71.8330 C   0  0  0  0  0  0  0  0  0  0  0  0
  129.4320  125.0260   71.1370 N   0  0  0  0  0  0  0  0  0  0  0  0
  129.3310  126.2840   71.6170 C   0  0  0  0  0  0  0  0  0  0  0  0
  129.4790  126.6090   72.7960 O   0  0  0  0  0  0  0  0  0  0  0  0
  129.0110  127.3620   70.5810 C   0  0  0  0  0  0  0  0  0  0  0  0
  127.4860  126.9980   69.6590 S   0  0  0  0  0  0  0  0  0  0  0  0
  127.8230  127.1480   67.9150 C   0  0  0  0  0  0  0  0  0  0  0  0
  127.0230  128.0480   67.2930 N   0  0  0  0  0  0  0  0  0  0  0  0
  127.1680  128.2750   65.9620 C   0  0  0  0  0  0  0  0  0  0  0  0
  126.2390  129.2810   65.3490 C   0  0  0  0  0  0  0  0  0  0  0  0
  126.6440  130.0580   64.2510 C   0  0  0  0  0  0  0  0  0  0  0  0
  125.7850  130.9890   63.6750 C   0  0  0  0  0  0  0  0  0  0  0  0
  124.5050  131.1590   64.1920 C   0  0  0  0  0  0  0  0  0  0  0  0
  124.0800  130.4070   65.2820 C   0  0  0  0  0  0  0  0  0  0  0  0
  124.9430  129.4770   65.8550 C   0  0  0  0  0  0  0  0  0  0  0  0
  128.1220  127.5780   65.2150 C   0  0  0  0  0  0  0  0  0  0  0  0
  128.9470  126.6240   65.8300 C   0  0  0  0  0  0  0  0  0  0  0  0
  129.9820  125.8740   64.9690 C   0  0  0  0  0  0  0  0  0  0  0  0
  129.9360  126.2250   63.6810 F   0  0  0  0  0  0  0  0  0  0  0  0
  131.2170  126.1290   65.4040 F   0  0  0  0  0  0  0  0  0  0  0  0
  129.7620  124.5610   65.0380 F   0  0  0  0  0  0  0  0  0  0  0  0
  128.7890  126.3860   67.2180 C   0  0  0  0  0  0  0  0  0  0  0  0
  129.5740  125.3470   67.8880 C   0  0  0  0  0  0  0  0  0  0  0  0
  130.1930  124.5240   68.4170 N   0  0  0  0  0  0  0  0  0  0  0  0
  128.7660  123.2420   72.7350 C   0  0  0  0  0  0  0  0  0  0  0  0
  129.0820  122.0380   73.3590 C   0  0  0  0  0  0  0  0  0  0  0  0
  1  2  1  0
  2  3  1  0
  3  4  2  0
  4  5  1  0
  5  6  2  0
  6  7  1  0
  7  8  1  0
  8  9  2  0
  8 10  1  0
 10 11  1  0
 11 12  1  0
 12 13  2  0
 13 14  1  0
 14 15  1  0
 15 16  2  0
 16 17  1  0
 17 18  2  0
 18 19  1  0
 19 20  2  0
 14 21  2  0
 21 22  1  0
 22 23  1  0
 23 24  1  0
 23 25  1  0
 23 26  1  0
 22 27  2  0
 27 28  1  0
 28 29  3  0
  6 30  1  0
 30 31  2  0
 31  3  1  0
 27 12  1  0
 20 15  1  0
M  END
>  <Binding energies>  (14) 
[-6.64]

>  <Ligand effiencies>  (14) 
[-0.2075]

>  <Interactions>  (14) 
["V-A:GLU:543:CD:4903, V-B:GLU:543:CG:9875, V-A:HIS:456:CE1:4064, V-B:HIS:456:CE1:9037, V-B:GLU:543:CD:9876, V-B:GLU:543:CB:9874, V-B:ARG:545:CZ:9894, V-B:ARG:545:CD:9891, V-B:ARG:545:CG:9890, V-A:HIS:456:CD2:4063, V-B:GLU:543:C:9870, V-B:GLU:543:CA:9872, H-B:GLU:543:O:9871, H-B:LYS:547:NZ:9919, V-B:GLY:544:CA:9882, V-A:TYR:484:CD2:4339, V-A:HIS:456:CG:4061, V-A:TYR:484:CB:4336, H-A:HIS:456:NE2:4065, V-B:LYS:547:CE:9918, V-A:TYR:484:CG:4337, V-A:TYR:484:C:4332"]

$$$$
3af_Grossjean_2025
     RDKit          3D

 29 31  0  0  0  0  0  0  0  0999 V2000
  128.7750  128.3610   67.4020 N   0  0  0  0  0  0  0  0  0  0  0  0
  129.0480  127.4490   68.0610 C   0  0  0  0  0  0  0  0  0  0  0  0
  129.3930  126.2940   68.8930 C   0  0  0  0  0  0  0  0  0  0  0  0
  129.8340  125.0840   68.3030 C   0  0  0  0  0  0  0  0  0  0  0  0
  130.0230  124.9210   66.7820 C   0  0  0  0  0  0  0  0  0  0  0  0
  129.1300  125.6120   66.0710 F   0  0  0  0  0  0  0  0  0  0  0  0
  131.2360  125.3460   66.4270 F   0  0  0  0  0  0  0  0  0  0  0  0
  129.8970  123.6380   66.4400 F   0  0  0  0  0  0  0  0  0  0  0  0
  130.1000  123.9880   69.1380 C   0  0  0  0  0  0  0  0  0  0  0  0
  129.9300  124.0970   70.5220 C   0  0  0  0  0  0  0  0  0  0  0  0
  130.1820  122.9520   71.4590 C   0  0  0  0  0  0  0  0  0  0  0  0
  131.3890  122.8590   72.1700 C   0  0  0  0  0  0  0  0  0  0  0  0
  131.6280  121.8010   73.0420 C   0  0  0  0  0  0  0  0  0  0  0  0
  130.6590  120.8190   73.2160 C   0  0  0  0  0  0  0  0  0  0  0  0
  129.4530  120.8880   72.5260 C   0  0  0  0  0  0  0  0  0  0  0  0
  129.2180  121.9490   71.6550 C   0  0  0  0  0  0  0  0  0  0  0  0
  129.5040  125.2560   71.0840 N   0  0  0  0  0  0  0  0  0  0  0  0
  129.2620  126.3350   70.3000 C   0  0  0  0  0  0  0  0  0  0  0  0
  128.7280  127.7670   71.2160 S   0  0  0  0  0  0  0  0  0  0  0  0
  130.1160  128.3230   72.2510 C   0  0  0  0  0  0  0  0  0  0  0  0
  130.6670  127.1930   73.1190 C   0  0  0  0  0  0  0  0  0  0  0  0
  129.8940  126.3350   73.5460 O   0  0  0  0  0  0  0  0  0  0  0  0
  131.9960  127.2400   73.3550 N   0  0  0  0  0  0  0  0  0  0  0  0
  132.8050  126.3690   74.1110 C   0  0  0  0  0  0  0  0  0  0  0  0
  132.3560  125.2420   74.8230 C   0  0  0  0  0  0  0  0  0  0  0  0
  133.2730  124.4650   75.5360 C   0  0  0  0  0  0  0  0  0  0  0  0
  134.6180  124.8350   75.5190 C   0  0  0  0  0  0  0  0  0  0  0  0
  135.0760  125.9160   74.8410 N   0  0  0  0  0  0  0  0  0  0  0  0
  134.1730  126.6610   74.1530 C   0  0  0  0  0  0  0  0  0  0  0  0
  1  2  3  0
  2  3  1  0
  3  4  2  0
  4  5  1  0
  5  6  1  0
  5  7  1  0
  5  8  1  0
  4  9  1  0
  9 10  2  0
 10 11  1  0
 11 12  2  0
 12 13  1  0
 13 14  2  0
 14 15  1  0
 15 16  2  0
 10 17  1  0
 17 18  2  0
 18 19  1  0
 19 20  1  0
 20 21  1  0
 21 22  2  0
 21 23  1  0
 23 24  1  0
 24 25  2  0
 25 26  1  0
 26 27  2  0
 27 28  1  0
 28 29  2  0
 18  3  1  0
 29 24  1  0
 16 11  1  0
M  END
>  <Binding energies>  (15) 
[-6.79]

>  <Ligand effiencies>  (15) 
[-0.22633333333333333]

>  <Interactions>  (15) 
["V-B:GLU:543:CG:9875, V-A:HIS:456:CE1:4064, V-B:GLU:543:CD:9876, V-B:GLU:543:CB:9874, V-A:TYR:484:CE1:4340, V-A:TYR:484:CZ:4342, V-A:HIS:456:CD2:4063, V-B:GLU:543:C:9870, V-B:GLU:543:CA:9872, H-A:HIS:456:ND1:4062, H-B:LYS:547:NZ:9919, V-A:TYR:484:CD1:4338, V-A:HIS:456:CG:4061, V-A:TYR:484:CB:4336, V-A:TYR:484:CG:4337, V-A:LYS:547:CE:4945, V-A:ASP:473:CG:4235, V-A:ASP:473:CB:4234, V-A:HIS:456:CB:4060, H-A:GLY:544:O:4908, V-A:LYS:547:CG:4943, V-A:ARG:545:C:4912, V-A:LYS:547:CD:4944, V-A:VAL:458:CG2:4082, V-A:HIS:456:C:4056, H-A:VAL:457:N:4071"]

$$$$
3ag_Grossjean_2025
     RDKit          3D

 30 32  0  0  0  0  0  0  0  0999 V2000
  129.3410  126.6880   63.3800 N   0  0  0  0  0  0  0  0  0  0  0  0
  129.3040  126.9840   64.4990 C   0  0  0  0  0  0  0  0  0  0  0  0
  129.2570  127.3620   65.9140 C   0  0  0  0  0  0  0  0  0  0  0  0
  128.8730  128.6690   66.3010 C   0  0  0  0  0  0  0  0  0  0  0  0
  128.4310  129.7420   65.2860 C   0  0  0  0  0  0  0  0  0  0  0  0
  127.1460  129.6320   64.9440 F   0  0  0  0  0  0  0  0  0  0  0  0
  128.6070  130.9570   65.8060 F   0  0  0  0  0  0  0  0  0  0  0  0
  129.1520  129.6410   64.1680 F   0  0  0  0  0  0  0  0  0  0  0  0
  128.8950  128.9990   67.6650 C   0  0  0  0  0  0  0  0  0  0  0  0
  129.3010  128.0540   68.6140 C   0  0  0  0  0  0  0  0  0  0  0  0
  129.3460  128.3520   70.0820 C   0  0  0  0  0  0  0  0  0  0  0  0
  130.5130  128.8590   70.6750 C   0  0  0  0  0  0  0  0  0  0  0  0
  130.5620  129.1390   72.0380 C   0  0  0  0  0  0  0  0  0  0  0  0
  129.4400  128.9130   72.8290 C   0  0  0  0  0  0  0  0  0  0  0  0
  128.2720  128.4090   72.2670 C   0  0  0  0  0  0  0  0  0  0  0  0
  128.2270  128.1300   70.9040 C   0  0  0  0  0  0  0  0  0  0  0  0
  129.6560  126.7980   68.2400 N   0  0  0  0  0  0  0  0  0  0  0  0
  129.6230  126.4520   66.9300 C   0  0  0  0  0  0  0  0  0  0  0  0
  130.1170  124.7690   66.6270 S   0  0  0  0  0  0  0  0  0  0  0  0
  131.0460  124.7510   65.0650 C   0  0  0  0  0  0  0  0  0  0  0  0
  130.6760  123.5550   64.1860 C   0  0  0  0  0  0  0  0  0  0  0  0
  131.2180  122.4640   64.3740 O   0  0  0  0  0  0  0  0  0  0  0  0
  129.7480  123.7740   63.2390 N   0  0  0  0  0  0  0  0  0  0  0  0
  129.2230  122.7680   62.3160 C   0  0  0  0  0  0  0  0  0  0  0  0
  130.2980  121.9480   61.6120 C   0  0  0  0  0  0  0  0  0  0  0  0
  130.0790  120.5930   61.3520 C   0  0  0  0  0  0  0  0  0  0  0  0
  131.0460  119.8470   60.6820 C   0  0  0  0  0  0  0  0  0  0  0  0
  132.2250  120.4630   60.2660 C   0  0  0  0  0  0  0  0  0  0  0  0
  132.4430  121.8170   60.5080 C   0  0  0  0  0  0  0  0  0  0  0  0
  131.4760  122.5630   61.1770 C   0  0  0  0  0  0  0  0  0  0  0  0
  1  2  3  0
  2  3  1  0
  3  4  2  0
  4  5  1  0
  5  6  1  0
  5  7  1  0
  5  8  1  0
  4  9  1  0
  9 10  2  0
 10 11  1  0
 11 12  2  0
 12 13  1  0
 13 14  2  0
 14 15  1  0
 15 16  2  0
 10 17  1  0
 17 18  2  0
 18 19  1  0
 19 20  1  0
 20 21  1  0
 21 22  2  0
 21 23  1  0
 23 24  1  0
 24 25  1  0
 25 26  2  0
 26 27  1  0
 27 28  2  0
 28 29  1  0
 29 30  2  0
 18  3  1  0
 30 25  1  0
 16 11  1  0
M  END
>  <Binding energies>  (16) 
[-7.25]

>  <Ligand effiencies>  (16) 
[-0.23387096774193547]

>  <Interactions>  (16) 
["H-A:TYR:484:OH:4343, V-A:GLU:543:CD:4903, V-A:GLU:543:CG:4902, V-A:GLY:544:C:4907, V-A:GLU:543:CB:4901, V-B:GLU:543:CG:9875, V-A:HIS:456:CE1:4064, V-A:GLY:544:CA:4909, V-B:HIS:456:CE1:9037, V-B:GLU:543:CD:9876, V-A:GLU:543:C:4897, V-B:GLU:543:CB:9874, H-B:GLU:543:OE2:9878, V-A:LEU:475:CD2:4254, V-B:TYR:539:CD2:9842, V-A:TRP:381:CZ2:3365, V-A:TRP:381:CH2:3367, V-B:TYR:539:CE2:9844, V-B:ALA:541:CB:9860, V-B:HIS:456:CD2:9035, V-A:LYS:547:CE:4945, V-B:TYR:484:CZ:9314, V-B:TYR:484:CE1:9312"]

$$$$
3bc_Grossjean_2025
     RDKit          3D

 28 30  0  0  0  0  0  0  0  0999 V2000
  136.2800  123.2440   75.9490 C   0  0  0  0  0  0  0  0  0  0  0  0
  135.0580  123.7930   76.4280 O   0  0  0  0  0  0  0  0  0  0  0  0
  134.3820  124.7130   75.6490 C   0  0  0  0  0  0  0  0  0  0  0  0
  133.0080  124.5150   75.5060 C   0  0  0  0  0  0  0  0  0  0  0  0
  132.2420  125.3880   74.7390 C   0  0  0  0  0  0  0  0  0  0  0  0
  132.8440  126.4720   74.0960 C   0  0  0  0  0  0  0  0  0  0  0  0
  131.9870  127.3070   73.3540 N   0  0  0  0  0  0  0  0  0  0  0  0
  130.6620  127.1830   73.1280 C   0  0  0  0  0  0  0  0  0  0  0  0
  129.9510  126.2890   73.5930 O   0  0  0  0  0  0  0  0  0  0  0  0
  130.0540  128.2880   72.2530 C   0  0  0  0  0  0  0  0  0  0  0  0
  128.6970  127.7520   71.1570 S   0  0  0  0  0  0  0  0  0  0  0  0
  129.2470  126.3050   70.2790 C   0  0  0  0  0  0  0  0  0  0  0  0
  129.5290  125.2520   71.0860 N   0  0  0  0  0  0  0  0  0  0  0  0
  129.9570  124.0810   70.5450 C   0  0  0  0  0  0  0  0  0  0  0  0
  130.2670  122.9730   71.5070 C   0  0  0  0  0  0  0  0  0  0  0  0
  129.3220  121.9720   71.7770 C   0  0  0  0  0  0  0  0  0  0  0  0
  129.6030  120.9400   72.6680 C   0  0  0  0  0  0  0  0  0  0  0  0
  130.8380  120.8970   73.3050 C   0  0  0  0  0  0  0  0  0  0  0  0
  131.7930  121.8780   73.0580 C   0  0  0  0  0  0  0  0  0  0  0  0
  131.5060  122.9090   72.1670 C   0  0  0  0  0  0  0  0  0  0  0  0
  130.1140  123.9430   69.1630 C   0  0  0  0  0  0  0  0  0  0  0  0
  129.8050  125.0130   68.3150 C   0  0  0  0  0  0  0  0  0  0  0  0
  129.9750  124.8110   66.8090 C   0  0  0  0  0  0  0  0  0  0  0  0
  129.3490  126.2270   68.8720 C   0  0  0  0  0  0  0  0  0  0  0  0
  128.9740  127.3430   68.0010 C   0  0  0  0  0  0  0  0  0  0  0  0
  128.6780  128.2230   67.3110 N   0  0  0  0  0  0  0  0  0  0  0  0
  134.2220  126.6860   74.2450 C   0  0  0  0  0  0  0  0  0  0  0  0
  134.9850  125.8090   75.0130 C   0  0  0  0  0  0  0  0  0  0  0  0
  1  2  1  0
  2  3  1  0
  3  4  2  0
  4  5  1  0
  5  6  2  0
  6  7  1  0
  7  8  1  0
  8  9  2  0
  8 10  1  0
 10 11  1  0
 11 12  1  0
 12 13  2  0
 13 14  1  0
 14 15  1  0
 15 16  2  0
 16 17  1  0
 17 18  2  0
 18 19  1  0
 19 20  2  0
 14 21  2  0
 21 22  1  0
 22 23  1  0
 22 24  2  0
 24 25  1  0
 25 26  3  0
  6 27  1  0
 27 28  2  0
 28  3  1  0
 24 12  1  0
 20 15  1  0
M  END
>  <Binding energies>  (17) 
[-7.73]

>  <Ligand effiencies>  (17) 
[-0.26655172413793105]

>  <Interactions>  (17) 
["V-B:GLU:543:CG:9875, V-A:HIS:456:CE1:4064, V-B:GLU:543:CB:9874, V-A:TYR:484:CE1:4340, V-A:TYR:484:CZ:4342, V-A:HIS:456:CD2:4063, V-B:GLU:543:C:9870, V-B:GLU:543:CA:9872, H-A:HIS:456:ND1:4062, H-B:LYS:547:NZ:9919, V-A:TYR:484:CD1:4338, V-A:HIS:456:CG:4061, V-A:TYR:484:CB:4336, V-A:TYR:484:CG:4337, V-A:LYS:547:CE:4945, V-A:ASP:473:CG:4235, V-A:ASP:473:CB:4234, V-A:HIS:456:CB:4060, H-A:GLY:544:O:4908, V-A:LYS:547:CG:4943, V-A:ARG:545:C:4912, V-A:LYS:547:CD:4944, V-A:VAL:458:CG2:4082, V-A:HIS:456:C:4056, V-A:VAL:457:C:4068, V-A:VAL:457:CA:4070, V-A:LYS:471:C:4208, V-A:LYS:471:CB:4212, V-A:LYS:471:CG:4213, V-A:LEU:472:CA:4223"]

$$$$
3bd_Grossjean_2025
     RDKit          3D

 26 28  0  0  0  0  0  0  0  0999 V2000
  123.3640  129.6500   65.7010 C   0  0  0  0  0  0  0  0  0  0  0  0
  124.8450  129.8040   65.3610 C   0  0  0  0  0  0  0  0  0  0  0  0
  125.7710  129.0380   66.0770 C   0  0  0  0  0  0  0  0  0  0  0  0
  127.1380  129.1530   65.7980 C   0  0  0  0  0  0  0  0  0  0  0  0
  128.1830  128.3590   66.5240 C   0  0  0  0  0  0  0  0  0  0  0  0
  128.4350  127.0210   66.1800 C   0  0  0  0  0  0  0  0  0  0  0  0
  129.4020  126.2770   66.8510 C   0  0  0  0  0  0  0  0  0  0  0  0
  130.1330  126.8640   67.8790 C   0  0  0  0  0  0  0  0  0  0  0  0
  129.9010  128.1860   68.2410 C   0  0  0  0  0  0  0  0  0  0  0  0
  128.9330  128.9260   67.5680 C   0  0  0  0  0  0  0  0  0  0  0  0
  127.5810  129.9930   64.8260 N   0  0  0  0  0  0  0  0  0  0  0  0
  126.6970  130.7450   64.1220 C   0  0  0  0  0  0  0  0  0  0  0  0
  127.4060  131.8160   62.8830 S   0  0  0  0  0  0  0  0  0  0  0  0
  129.2070  131.8490   63.1310 C   0  0  0  0  0  0  0  0  0  0  0  0
  129.9640  132.0220   61.8130 C   0  0  0  0  0  0  0  0  0  0  0  0
  129.7120  132.9950   61.1020 O   0  0  0  0  0  0  0  0  0  0  0  0
  130.8630  131.0560   61.5230 N   0  0  0  0  0  0  0  0  0  0  0  0
  131.7220  130.9510   60.4130 C   0  0  0  0  0  0  0  0  0  0  0  0
  133.0670  130.7040   60.6980 C   0  0  0  0  0  0  0  0  0  0  0  0
  133.9930  130.5920   59.6640 C   0  0  0  0  0  0  0  0  0  0  0  0
  133.5760  130.7370   58.3440 C   0  0  0  0  0  0  0  0  0  0  0  0
  132.2400  130.9980   58.0480 C   0  0  0  0  0  0  0  0  0  0  0  0
  131.3110  131.1080   59.0790 C   0  0  0  0  0  0  0  0  0  0  0  0
  125.3060  130.6840   64.3580 C   0  0  0  0  0  0  0  0  0  0  0  0
  124.3610  131.5000   63.5900 C   0  0  0  0  0  0  0  0  0  0  0  0
  123.6140  132.1420   62.9830 N   0  0  0  0  0  0  0  0  0  0  0  0
  1  2  1  0
  2  3  2  0
  3  4  1  0
  4  5  1  0
  5  6  2  0
  6  7  1  0
  7  8  2  0
  8  9  1  0
  9 10  2  0
  4 11  2  0
 11 12  1  0
 12 13  1  0
 13 14  1  0
 14 15  1  0
 15 16  2  0
 15 17  1  0
 17 18  1  0
 18 19  2  0
 19 20  1  0
 20 21  2  0
 21 22  1  0
 22 23  2  0
 12 24  2  0
 24 25  1  0
 25 26  3  0
 24  2  1  0
 10  5  1  0
 23 18  1  0
M  END
>  <Binding energies>  (18) 
[-7.85]

>  <Ligand effiencies>  (18) 
[-0.29074074074074074]

>  <Interactions>  (18) 
["V-A:LEU:363:CA:3180, V-A:ASN:362:CB:3171, V-A:ASN:362:C:3167, H-A:GLU:543:OE2:4905, V-A:PRO:540:CA:4878, V-A:ASP:366:CG:3208, V-A:GLU:543:CD:4903, V-A:PRO:540:CB:4880, V-A:GLU:543:CG:4902, V-A:GLU:543:CB:4901, V-B:GLU:543:CG:9875, V-A:HIS:456:CE1:4064, V-B:HIS:456:CE1:9037, V-B:GLU:543:CD:9876, V-B:GLU:543:CB:9874, V-B:ARG:545:CZ:9894, H-B:TYR:484:OH:9315, H-A:ALA:541:N:4886, V-A:TYR:531:CE2:4788, V-B:ARG:545:CD:9891, V-A:ALA:541:CB:4887, V-B:ARG:545:CG:9890, H-B:GLY:454:N:9017, V-A:LEU:363:CD1:3184, V-A:LEU:363:CB:3182, V-B:GLY:453:CA:9011"]

$$$$
3be_Grossjean_2025
     RDKit          3D

 27 29  0  0  0  0  0  0  0  0999 V2000
  122.6700  130.0150   67.1090 C   0  0  0  0  0  0  0  0  0  0  0  0
  123.6560  129.6910   66.0040 C   0  0  0  0  0  0  0  0  0  0  0  0
  124.7990  128.9230   66.2440 C   0  0  0  0  0  0  0  0  0  0  0  0
  125.6640  128.6680   65.1800 C   0  0  0  0  0  0  0  0  0  0  0  0
  125.3690  129.1800   63.9140 C   0  0  0  0  0  0  0  0  0  0  0  0
  124.2050  129.9380   63.7410 C   0  0  0  0  0  0  0  0  0  0  0  0
  123.9700  130.4340   62.4450 N   0  0  0  0  0  0  0  0  0  0  0  0
  123.9680  131.7150   62.0170 C   0  0  0  0  0  0  0  0  0  0  0  0
  124.1770  132.6940   62.7370 O   0  0  0  0  0  0  0  0  0  0  0  0
  123.6800  131.8920   60.5180 C   0  0  0  0  0  0  0  0  0  0  0  0
  125.1150  131.6430   59.4180 S   0  0  0  0  0  0  0  0  0  0  0  0
  126.4760  132.5900   60.0610 C   0  0  0  0  0  0  0  0  0  0  0  0
  127.6820  131.9950   59.8890 N   0  0  0  0  0  0  0  0  0  0  0  0
  128.8110  132.6110   60.3300 C   0  0  0  0  0  0  0  0  0  0  0  0
  130.1030  131.8790   60.1130 C   0  0  0  0  0  0  0  0  0  0  0  0
  130.9860  131.6500   61.1800 C   0  0  0  0  0  0  0  0  0  0  0  0
  132.1860  130.9740   60.9850 C   0  0  0  0  0  0  0  0  0  0  0  0
  132.5230  130.5160   59.7150 C   0  0  0  0  0  0  0  0  0  0  0  0
  131.6670  130.7320   58.6410 C   0  0  0  0  0  0  0  0  0  0  0  0
  130.4670  131.4090   58.8400 C   0  0  0  0  0  0  0  0  0  0  0  0
  128.7470  133.8550   60.9670 C   0  0  0  0  0  0  0  0  0  0  0  0
  127.5140  134.4930   61.1310 C   0  0  0  0  0  0  0  0  0  0  0  0
  127.4950  135.8590   61.8160 C   0  0  0  0  0  0  0  0  0  0  0  0
  126.3420  133.8630   60.6610 C   0  0  0  0  0  0  0  0  0  0  0  0
  125.0470  134.5380   60.7740 C   0  0  0  0  0  0  0  0  0  0  0  0
  124.0250  135.0740   60.8640 N   0  0  0  0  0  0  0  0  0  0  0  0
  123.3570  130.1940   64.7800 N   0  0  0  0  0  0  0  0  0  0  0  0
  1  2  1  0
  2  3  2  0
  3  4  1  0
  4  5  2  0
  5  6  1  0
  6  7  1  0
  7  8  1  0
  8  9  2  0
  8 10  1  0
 10 11  1  0
 11 12  1  0
 12 13  2  0
 13 14  1  0
 14 15  1  0
 15 16  2  0
 16 17  1  0
 17 18  2  0
 18 19  1  0
 19 20  2  0
 14 21  2  0
 21 22  1  0
 22 23  1  0
 22 24  2  0
 24 25  1  0
 25 26  3  0
  6 27  2  0
 27  2  1  0
 24 12  1  0
 20 15  1  0
M  END
>  <Binding energies>  (19) 
[-8.58]

>  <Ligand effiencies>  (19) 
[-0.30642857142857144]

>  <Interactions>  (19) 
["V-A:PRO:540:CA:4878, V-A:PRO:540:CB:4880, V-B:HIS:456:CE1:9037, V-B:ARG:545:CZ:9894, V-A:PRO:540:C:4876, V-A:TYR:539:CZ:4872, V-B:ARG:545:CD:9891, V-A:ALA:541:CB:4887, V-B:ARG:545:CG:9890, V-A:TYR:539:CE2:4871, H-B:GLY:454:N:9017, V-A:PRO:540:N:4879, H-B:ASP:366:OD1:8181, V-B:ILE:369:CD1:8206, V-B:ILE:369:CG2:8204, V-B:ILE:369:CB:8203, V-B:LEU:475:CG:9224, V-B:LEU:475:CD2:9226, V-A:TYR:539:CD2:4869, H-B:ARG:545:NH1:9895, H-A:TYR:539:OH:4873, V-B:GLY:453:CA:9011, V-A:TYR:539:C:4862, V-B:TRP:381:CH2:8339, V-B:GLY:453:C:9009, V-B:LEU:475:CD1:9225, V-B:PRO:482:CB:9293, V-B:ARG:545:CB:9889, V-B:ILE:455:C:9019"]

$$$$
3bf_Grossjean_2025
     RDKit          3D

 26 28  0  0  0  0  0  0  0  0999 V2000
  129.9470  126.2110   64.8710 C   0  0  0  0  0  0  0  0  0  0  0  0
  128.8330  126.8570   65.6910 C   0  0  0  0  0  0  0  0  0  0  0  0
  127.9770  127.7560   65.0480 C   0  0  0  0  0  0  0  0  0  0  0  0
  126.9340  128.3600   65.7590 C   0  0  0  0  0  0  0  0  0  0  0  0
  125.9690  129.3150   65.1220 C   0  0  0  0  0  0  0  0  0  0  0  0
  124.6630  129.4510   65.6190 C   0  0  0  0  0  0  0  0  0  0  0  0
  123.7610  130.3350   65.0330 C   0  0  0  0  0  0  0  0  0  0  0  0
  124.1550  131.0970   63.9380 C   0  0  0  0  0  0  0  0  0  0  0  0
  125.4420  130.9800   63.4260 C   0  0  0  0  0  0  0  0  0  0  0  0
  126.3410  130.0930   64.0140 C   0  0  0  0  0  0  0  0  0  0  0  0
  126.7370  128.0850   67.0760 N   0  0  0  0  0  0  0  0  0  0  0  0
  127.5740  127.2350   67.7200 C   0  0  0  0  0  0  0  0  0  0  0  0
  127.1690  127.0000   69.4370 S   0  0  0  0  0  0  0  0  0  0  0  0
  128.5190  127.7090   70.4390 C   0  0  0  0  0  0  0  0  0  0  0  0
  129.1300  126.7560   71.4780 C   0  0  0  0  0  0  0  0  0  0  0  0
  129.3360  127.1330   72.6330 O   0  0  0  0  0  0  0  0  0  0  0  0
  129.3770  125.5090   71.0210 N   0  0  0  0  0  0  0  0  0  0  0  0
  129.9360  124.4130   71.7040 C   0  0  0  0  0  0  0  0  0  0  0  0
  130.1900  123.2570   70.9580 C   0  0  0  0  0  0  0  0  0  0  0  0
  130.7570  122.1410   71.5750 C   0  0  0  0  0  0  0  0  0  0  0  0
  131.0620  122.2140   72.9350 C   0  0  0  0  0  0  0  0  0  0  0  0
  130.8370  123.3250   73.6810 N   0  0  0  0  0  0  0  0  0  0  0  0
  130.2850  124.4030   73.0660 C   0  0  0  0  0  0  0  0  0  0  0  0
  128.6350  126.5760   67.0600 C   0  0  0  0  0  0  0  0  0  0  0  0
  129.4890  125.5990   67.7420 C   0  0  0  0  0  0  0  0  0  0  0  0
  130.1660  124.8280   68.2790 N   0  0  0  0  0  0  0  0  0  0  0  0
  1  2  1  0
  2  3  2  0
  3  4  1  0
  4  5  1  0
  5  6  2  0
  6  7  1  0
  7  8  2  0
  8  9  1  0
  9 10  2  0
  4 11  2  0
 11 12  1  0
 12 13  1  0
 13 14  1  0
 14 15  1  0
 15 16  2  0
 15 17  1  0
 17 18  1  0
 18 19  2  0
 19 20  1  0
 20 21  2  0
 21 22  1  0
 22 23  2  0
 12 24  2  0
 24 25  1  0
 25 26  3  0
 24  2  1  0
 10  5  1  0
 23 18  1  0
M  END
>  <Binding energies>  (20) 
[-7.02]

>  <Ligand effiencies>  (20) 
[-0.26]

>  <Interactions>  (20) 
["V-B:GLU:543:CG:9875, V-A:HIS:456:CE1:4064, V-B:HIS:456:CE1:9037, V-B:GLU:543:CD:9876, V-B:GLU:543:CB:9874, V-B:ARG:545:CZ:9894, V-B:ARG:545:CD:9891, V-B:ARG:545:CG:9890, V-A:HIS:456:CD2:4063, V-B:GLU:543:C:9870, V-B:GLU:543:CA:9872, H-B:GLU:543:O:9871, H-B:LYS:547:NZ:9919, V-A:TYR:484:CD1:4338, V-A:TYR:484:CD2:4339, V-A:TYR:484:CB:4336, H-A:HIS:456:NE2:4065, V-A:TYR:484:CG:4337, V-B:GLY:453:CA:9011, V-B:GLY:454:CA:9016"]

$$$$
3bg_Grossjean_2025
     RDKit          3D

 27 29  0  0  0  0  0  0  0  0999 V2000
  122.2560  130.7330   62.1180 C   0  0  0  0  0  0  0  0  0  0  0  0
  123.7770  130.8460   62.2000 C   0  0  0  0  0  0  0  0  0  0  0  0
  124.4230  130.2790   63.3030 C   0  0  0  0  0  0  0  0  0  0  0  0
  125.8180  130.3530   63.4140 C   0  0  0  0  0  0  0  0  0  0  0  0
  126.5750  129.7550   64.5680 C   0  0  0  0  0  0  0  0  0  0  0  0
  127.8510  130.2280   64.9190 C   0  0  0  0  0  0  0  0  0  0  0  0
  128.5470  129.6900   65.9980 C   0  0  0  0  0  0  0  0  0  0  0  0
  127.9790  128.6630   66.7430 C   0  0  0  0  0  0  0  0  0  0  0  0
  126.7240  128.1670   66.4110 C   0  0  0  0  0  0  0  0  0  0  0  0
  126.0320  128.7070   65.3310 C   0  0  0  0  0  0  0  0  0  0  0  0
  126.5570  130.9570   62.4450 N   0  0  0  0  0  0  0  0  0  0  0  0
  125.9450  131.5090   61.3660 C   0  0  0  0  0  0  0  0  0  0  0  0
  127.0310  132.2410   60.1510 S   0  0  0  0  0  0  0  0  0  0  0  0
  128.3840  133.0880   61.0320 C   0  0  0  0  0  0  0  0  0  0  0  0
  129.5760  132.1580   61.2770 C   0  0  0  0  0  0  0  0  0  0  0  0
  130.7050  132.6290   61.4080 O   0  0  0  0  0  0  0  0  0  0  0  0
  129.3090  130.8410   61.3120 N   0  0  0  0  0  0  0  0  0  0  0  0
  130.3080  129.7720   61.3500 C   0  0  0  0  0  0  0  0  0  0  0  0
  131.4880  130.0680   60.4330 C   0  0  0  0  0  0  0  0  0  0  0  0
  132.7280  130.4200   60.9770 C   0  0  0  0  0  0  0  0  0  0  0  0
  133.8030  130.6990   60.1400 C   0  0  0  0  0  0  0  0  0  0  0  0
  133.6410  130.6140   58.7580 C   0  0  0  0  0  0  0  0  0  0  0  0
  132.4150  130.2440   58.2080 C   0  0  0  0  0  0  0  0  0  0  0  0
  131.3390  129.9650   59.0470 C   0  0  0  0  0  0  0  0  0  0  0  0
  124.5450  131.4850   61.2040 C   0  0  0  0  0  0  0  0  0  0  0  0
  123.8970  132.0810   60.0320 C   0  0  0  0  0  0  0  0  0  0  0  0
  123.3840  132.5510   59.1080 N   0  0  0  0  0  0  0  0  0  0  0  0
  1  2  1  0
  2  3  2  0
  3  4  1  0
  4  5  1  0
  5  6  2  0
  6  7  1  0
  7  8  2  0
  8  9  1  0
  9 10  2  0
  4 11  2  0
 11 12  1  0
 12 13  1  0
 13 14  1  0
 14 15  1  0
 15 16  2  0
 15 17  1  0
 17 18  1  0
 18 19  1  0
 19 20  2  0
 20 21  1  0
 21 22  2  0
 22 23  1  0
 23 24  2  0
 12 25  2  0
 25 26  1  0
 26 27  3  0
 25  2  1  0
 10  5  1  0
 24 19  1  0
M  END
>  <Binding energies>  (21) 
[-7.18]

>  <Ligand effiencies>  (21) 
[-0.2564285714285714]

>  <Interactions>  (21) 
["V-A:LEU:363:CA:3180, V-A:ASN:362:CB:3171, V-A:ASN:362:C:3167, V-A:PRO:540:CA:4878, V-A:GLU:543:CD:4903, V-A:PRO:540:CB:4880, V-A:GLU:543:CG:4902, V-A:GLU:543:CB:4901, V-B:HIS:456:CE1:9037, V-B:ARG:545:CZ:9894, H-A:ALA:541:N:4886, V-A:TYR:531:CE2:4788, V-A:TYR:531:CZ:4789, V-A:TYR:539:CE2:4871, V-A:LEU:363:CD1:3184, V-A:LEU:363:CB:3182, V-B:ILE:369:CD1:8206, V-B:ILE:369:CG2:8204, V-B:ILE:369:CB:8203, H-A:TYR:539:OH:4873, V-B:GLY:453:CA:9011, V-B:GLY:453:C:9009"]

$$$$
3ca_Grossjean_2025
     RDKit          3D

 31 33  0  0  0  0  0  0  0  0999 V2000
  128.9780  131.5840   72.6320 C   0  0  0  0  0  0  0  0  0  0  0  0
  130.1140  130.6960   73.1500 C   0  0  0  0  0  0  0  0  0  0  0  0
  129.6500  129.3570   73.2720 O   0  0  0  0  0  0  0  0  0  0  0  0
  128.6250  128.8980   72.5100 C   0  0  0  0  0  0  0  0  0  0  0  0
  127.4480  128.8890   72.8850 O   0  0  0  0  0  0  0  0  0  0  0  0
  129.0630  128.4060   71.1600 C   0  0  0  0  0  0  0  0  0  0  0  0
  130.2340  128.9210   70.5910 C   0  0  0  0  0  0  0  0  0  0  0  0
  130.6660  128.4850   69.3410 C   0  0  0  0  0  0  0  0  0  0  0  0
  129.9330  127.5320   68.6330 C   0  0  0  0  0  0  0  0  0  0  0  0
  130.4590  127.1610   67.3800 N   0  0  0  0  0  0  0  0  0  0  0  0
  130.7130  125.9320   66.8820 C   0  0  0  0  0  0  0  0  0  0  0  0
  130.4980  124.8690   67.4640 O   0  0  0  0  0  0  0  0  0  0  0  0
  131.2960  125.9070   65.4650 C   0  0  0  0  0  0  0  0  0  0  0  0
  130.1360  126.5250   64.2010 S   0  0  0  0  0  0  0  0  0  0  0  0
  130.4300  125.6920   62.6470 C   0  0  0  0  0  0  0  0  0  0  0  0
  130.5750  126.4980   61.5660 N   0  0  0  0  0  0  0  0  0  0  0  0
  130.8200  125.9370   60.3620 C   0  0  0  0  0  0  0  0  0  0  0  0
  130.9870  126.9050   59.2070 C   0  0  0  0  0  0  0  0  0  0  0  0
  130.9160  124.5600   60.1820 C   0  0  0  0  0  0  0  0  0  0  0  0
  130.7530  123.7050   61.2800 C   0  0  0  0  0  0  0  0  0  0  0  0
  130.8500  122.2340   61.0370 C   0  0  0  0  0  0  0  0  0  0  0  0
  129.7330  121.4130   61.2360 C   0  0  0  0  0  0  0  0  0  0  0  0
  129.8170  120.0400   61.0220 C   0  0  0  0  0  0  0  0  0  0  0  0
  131.0240  119.4800   60.6090 C   0  0  0  0  0  0  0  0  0  0  0  0
  132.1460  120.2810   60.4130 C   0  0  0  0  0  0  0  0  0  0  0  0
  132.0580  121.6540   60.6290 C   0  0  0  0  0  0  0  0  0  0  0  0
  130.5120  124.2820   62.5530 C   0  0  0  0  0  0  0  0  0  0  0  0
  130.3830  123.4400   63.7470 C   0  0  0  0  0  0  0  0  0  0  0  0
  130.2820  122.7740   64.6890 N   0  0  0  0  0  0  0  0  0  0  0  0
  128.7630  127.0040   69.1990 C   0  0  0  0  0  0  0  0  0  0  0  0
  128.3340  127.4410   70.4500 C   0  0  0  0  0  0  0  0  0  0  0  0
  1  2  1  0
  2  3  1  0
  3  4  1  0
  4  5  2  0
  4  6  1  0
  6  7  2  0
  7  8  1  0
  8  9  2  0
  9 10  1  0
 10 11  1  0
 11 12  2  0
 11 13  1  0
 13 14  1  0
 14 15  1  0
 15 16  2  0
 16 17  1  0
 17 18  1  0
 17 19  2  0
 19 20  1  0
 20 21  1  0
 21 22  2  0
 22 23  1  0
 23 24  2  0
 24 25  1  0
 25 26  2  0
 20 27  2  0
 27 28  1  0
 28 29  3  0
  9 30  1  0
 30 31  2  0
 31  6  1  0
 27 15  1  0
 26 21  1  0
M  END
>  <Binding energies>  (22) 
[-8.24]

>  <Ligand effiencies>  (22) 
[-0.2575]

>  <Interactions>  (22) 
["H-A:TYR:484:OH:4343, V-A:GLU:543:CD:4903, V-A:GLY:544:C:4907, V-A:GLU:543:CB:4901, V-B:GLU:543:CG:9875, V-A:HIS:456:CE1:4064, V-A:GLY:544:CA:4909, V-B:HIS:456:CE1:9037, H-A:GLU:543:OE1:4904, V-A:GLU:543:C:4897, V-A:LEU:475:CD2:4254, V-B:TYR:539:CD2:9842, V-A:TRP:381:CZ2:3365, V-A:TRP:381:CH2:3367, V-B:TYR:539:CE2:9844, V-B:ALA:541:CB:9860, H-B:LYS:547:NZ:9919, V-B:HIS:456:CD2:9035, H-A:LYS:547:NZ:4946, H-A:HIS:456:NE2:4065, V-A:LYS:547:CE:4945"]

$$$$
3ce_Grossjean_2025
     RDKit          3D

 27 29  0  0  0  0  0  0  0  0999 V2000
  127.2840  136.3670   61.3720 C   0  0  0  0  0  0  0  0  0  0  0  0
  127.3780  134.8600   61.2350 C   0  0  0  0  0  0  0  0  0  0  0  0
  128.6010  134.2210   61.0090 C   0  0  0  0  0  0  0  0  0  0  0  0
  128.6140  132.8310   60.9030 C   0  0  0  0  0  0  0  0  0  0  0  0
  127.4190  132.1180   61.0230 C   0  0  0  0  0  0  0  0  0  0  0  0
  126.2280  132.8200   61.2390 C   0  0  0  0  0  0  0  0  0  0  0  0
  125.0600  132.0510   61.3720 N   0  0  0  0  0  0  0  0  0  0  0  0
  124.0020  131.9860   60.5330 C   0  0  0  0  0  0  0  0  0  0  0  0
  123.8970  132.6130   59.4780 O   0  0  0  0  0  0  0  0  0  0  0  0
  122.8750  131.0450   60.9590 C   0  0  0  0  0  0  0  0  0  0  0  0
  122.8710  130.7590   62.7530 S   0  0  0  0  0  0  0  0  0  0  0  0
  124.3050  129.7620   63.0860 C   0  0  0  0  0  0  0  0  0  0  0  0
  124.8830  129.2400   61.9770 N   0  0  0  0  0  0  0  0  0  0  0  0
  125.9920  128.4790   62.1230 C   0  0  0  0  0  0  0  0  0  0  0  0
  126.5950  127.9380   60.8400 C   0  0  0  0  0  0  0  0  0  0  0  0
  126.5530  128.2020   63.3670 C   0  0  0  0  0  0  0  0  0  0  0  0
  125.9550  128.7110   64.5270 C   0  0  0  0  0  0  0  0  0  0  0  0
  126.5790  128.3650   65.8390 C   0  0  0  0  0  0  0  0  0  0  0  0
  127.7460  129.0160   66.2560 C   0  0  0  0  0  0  0  0  0  0  0  0
  128.3370  128.6940   67.4760 C   0  0  0  0  0  0  0  0  0  0  0  0
  127.7650  127.7140   68.2820 C   0  0  0  0  0  0  0  0  0  0  0  0
  126.6090  127.0500   67.8770 C   0  0  0  0  0  0  0  0  0  0  0  0
  126.0210  127.3740   66.6580 C   0  0  0  0  0  0  0  0  0  0  0  0
  124.7990  129.5200   64.3900 C   0  0  0  0  0  0  0  0  0  0  0  0
  124.1390  130.0930   65.5670 C   0  0  0  0  0  0  0  0  0  0  0  0
  123.6190  130.5440   66.4970 N   0  0  0  0  0  0  0  0  0  0  0  0
  126.2080  134.1810   61.3520 N   0  0  0  0  0  0  0  0  0  0  0  0
  1  2  1  0
  2  3  2  0
  3  4  1  0
  4  5  2  0
  5  6  1  0
  6  7  1  0
  7  8  1  0
  8  9  2  0
  8 10  1  0
 10 11  1  0
 11 12  1  0
 12 13  2  0
 13 14  1  0
 14 15  1  0
 14 16  2  0
 16 17  1  0
 17 18  1  0
 18 19  2  0
 19 20  1  0
 20 21  2  0
 21 22  1  0
 22 23  2  0
 17 24  2  0
 24 25  1  0
 25 26  3  0
  6 27  2  0
 27  2  1  0
 24 12  1  0
 23 18  1  0
M  END
>  <Binding energies>  (23) 
[-7.63]

>  <Ligand effiencies>  (23) 
[-0.2725]

>  <Interactions>  (23) 
["V-A:PRO:540:CA:4878, V-B:GLU:543:CG:9875, V-B:HIS:456:CE1:9037, V-B:GLU:543:CD:9876, V-B:GLU:543:CB:9874, V-B:ARG:545:CZ:9894, H-B:TYR:484:OH:9315, V-A:PRO:540:C:4876, V-B:ARG:545:CD:9891, V-A:ALA:541:CB:4887, V-B:ARG:545:CG:9890, V-A:TYR:539:CE2:4871, H-B:GLY:454:N:9017, V-A:PRO:540:N:4879, V-B:GLU:543:C:9870, H-B:ARG:545:NH2:9896, V-B:ASP:366:CG:8180, V-B:ILE:369:CG1:8205, V-B:ILE:369:CD1:8206, V-B:LEU:475:CD2:9226, V-B:ASP:366:CA:8177, V-A:TYR:539:CD2:4869, H-A:TYR:539:OH:4873, V-A:TYR:539:C:4862, V-B:TRP:381:CH2:8339, V-B:TRP:381:CZ2:8337, H-B:HIS:456:ND1:9034, V-B:LEU:475:CD1:9225, H-B:ILE:455:N:9022, V-B:PRO:482:CG:9294, V-B:PRO:482:CB:9293"]

$$$$
3cj_Grossjean_2025
     RDKit          3D

 25 27  0  0  0  0  0  0  0  0999 V2000
  127.7220  129.5460   64.6130 C   0  0  0  0  0  0  0  0  0  0  0  0
  128.2980  128.3830   65.3980 C   0  0  0  0  0  0  0  0  0  0  0  0
  129.3730  127.6400   64.9150 C   0  0  0  0  0  0  0  0  0  0  0  0
  129.8880  126.5880   65.6850 C   0  0  0  0  0  0  0  0  0  0  0  0
  131.0800  125.8610   65.1590 C   0  0  0  0  0  0  0  0  0  0  0  0
  132.2890  125.8730   65.8650 C   0  0  0  0  0  0  0  0  0  0  0  0
  133.4050  125.2050   65.3660 C   0  0  0  0  0  0  0  0  0  0  0  0
  133.3160  124.5270   64.1540 C   0  0  0  0  0  0  0  0  0  0  0  0
  132.1230  124.5130   63.4360 C   0  0  0  0  0  0  0  0  0  0  0  0
  131.0090  125.1820   63.9370 C   0  0  0  0  0  0  0  0  0  0  0  0
  129.2690  126.2940   66.9250 C   0  0  0  0  0  0  0  0  0  0  0  0
  129.7440  125.1870   67.7620 C   0  0  0  0  0  0  0  0  0  0  0  0
  130.1200  124.3140   68.4230 N   0  0  0  0  0  0  0  0  0  0  0  0
  128.1870  127.1030   67.3380 C   0  0  0  0  0  0  0  0  0  0  0  0
  127.4080  126.9280   68.9290 S   0  0  0  0  0  0  0  0  0  0  0  0
  128.4500  127.8950   70.0680 C   0  0  0  0  0  0  0  0  0  0  0  0
  128.9480  127.0480   71.2430 C   0  0  0  0  0  0  0  0  0  0  0  0
  129.0230  127.5510   72.3660 O   0  0  0  0  0  0  0  0  0  0  0  0
  129.2410  125.7630   70.9480 N   0  0  0  0  0  0  0  0  0  0  0  0
  129.5790  124.7640   71.8460 C   0  0  0  0  0  0  0  0  0  0  0  0
  129.3670  124.7380   73.1440 N   0  0  0  0  0  0  0  0  0  0  0  0
  129.7950  123.6130   73.6810 C   0  0  0  0  0  0  0  0  0  0  0  0
  130.3710  122.6940   72.8090 C   0  0  0  0  0  0  0  0  0  0  0  0
  130.3490  123.3490   71.1990 S   0  0  0  0  0  0  0  0  0  0  0  0
  127.7170  128.1350   66.5930 N   0  0  0  0  0  0  0  0  0  0  0  0
  1  2  1  0
  2  3  2  0
  3  4  1  0
  4  5  1  0
  5  6  2  0
  6  7  1  0
  7  8  2  0
  8  9  1  0
  9 10  2  0
  4 11  2  0
 11 12  1  0
 12 13  3  0
 11 14  1  0
 14 15  1  0
 15 16  1  0
 16 17  1  0
 17 18  2  0
 17 19  1  0
 19 20  1  0
 20 21  2  0
 21 22  1  0
 22 23  2  0
 23 24  1  0
 14 25  2  0
 25  2  1  0
 10  5  1  0
 24 20  1  0
M  END
>  <Binding energies>  (24) 
[-7.05]

>  <Ligand effiencies>  (24) 
[-0.27115384615384613]

>  <Interactions>  (24) 
["V-A:ARG:545:CD:4918, V-A:ARG:545:CZ:4921, V-A:GLU:543:CD:4903, V-B:GLU:543:CG:9875, V-A:HIS:456:CE1:4064, V-B:HIS:456:CE1:9037, V-B:GLU:543:CB:9874, V-A:HIS:456:CD2:4063, V-B:GLU:543:C:9870, V-B:GLU:543:CA:9872, H-B:GLU:543:O:9871, H-B:LYS:547:NZ:9919, V-B:HIS:456:CD2:9035, V-A:HIS:456:CG:4061, H-A:HIS:456:NE2:4065, V-B:LYS:547:CE:9918"]

$$$$
4ba_Grossjean_2025
     RDKit          3D

 28 30  0  0  0  0  0  0  0  0999 V2000
  130.1410  128.8550   70.6080 C   0  0  0  0  0  0  0  0  0  0  0  0
  128.7780  128.4950   71.2300 C   0  0  0  0  0  0  0  0  0  0  0  0
  127.9150  127.5250   70.3980 C   0  0  0  0  0  0  0  0  0  0  0  0
  126.8070  127.1830   70.8190 O   0  0  0  0  0  0  0  0  0  0  0  0
  128.4730  127.0400   69.0910 C   0  0  0  0  0  0  0  0  0  0  0  0
  129.3670  125.9620   69.0830 C   0  0  0  0  0  0  0  0  0  0  0  0
  129.9000  125.4930   67.8860 C   0  0  0  0  0  0  0  0  0  0  0  0
  129.5500  126.0880   66.6740 C   0  0  0  0  0  0  0  0  0  0  0  0
  130.1540  125.5410   65.5260 N   0  0  0  0  0  0  0  0  0  0  0  0
  131.4290  125.1230   65.3260 C   0  0  0  0  0  0  0  0  0  0  0  0
  132.3230  125.2050   66.1690 O   0  0  0  0  0  0  0  0  0  0  0  0
  131.7050  124.5710   63.9980 C   0  0  0  0  0  0  0  0  0  0  0  0
  133.1190  125.1060   63.0930 S   0  0  0  0  0  0  0  0  0  0  0  0
  132.6930  124.0890   61.7370 C   0  0  0  0  0  0  0  0  0  0  0  0
  133.4430  124.0490   60.6360 N   0  0  0  0  0  0  0  0  0  0  0  0
  133.0120  123.2260   59.6540 C   0  0  0  0  0  0  0  0  0  0  0  0
  133.8760  123.2030   58.4050 C   0  0  0  0  0  0  0  0  0  0  0  0
  131.8640  122.4440   59.7460 C   0  0  0  0  0  0  0  0  0  0  0  0
  131.0700  122.4800   60.9040 C   0  0  0  0  0  0  0  0  0  0  0  0
  129.8170  121.6010   60.9610 C   0  0  0  0  0  0  0  0  0  0  0  0
  128.6850  122.3060   60.9950 F   0  0  0  0  0  0  0  0  0  0  0  0
  129.7660  120.8150   59.8840 F   0  0  0  0  0  0  0  0  0  0  0  0
  129.8480  120.8430   62.0570 F   0  0  0  0  0  0  0  0  0  0  0  0
  131.4940  123.3450   61.9580 C   0  0  0  0  0  0  0  0  0  0  0  0
  130.9470  123.6500   63.2570 C   0  0  0  0  0  0  0  0  0  0  0  0
  129.7870  123.0840   63.7230 N   0  0  0  0  0  0  0  0  0  0  0  0
  128.6600  127.1730   66.6740 C   0  0  0  0  0  0  0  0  0  0  0  0
  128.1270  127.6410   67.8720 C   0  0  0  0  0  0  0  0  0  0  0  0
  1  2  1  0
  2  3  1  0
  3  4  2  0
  3  5  1  0
  5  6  2  0
  6  7  1  0
  7  8  2  0
  8  9  1  0
  9 10  1  0
 10 11  2  0
 10 12  1  0
 12 13  1  0
 13 14  1  0
 14 15  2  0
 15 16  1  0
 16 17  1  0
 16 18  2  0
 18 19  1  0
 19 20  1  0
 20 21  1  0
 20 22  1  0
 20 23  1  0
 19 24  2  0
 24 25  1  0
 25 26  1  0
  8 27  1  0
 27 28  2  0
 28  5  1  0
 25 12  2  0
 24 14  1  0
M  END
>  <Binding energies>  (25) 
[-6.82]

>  <Ligand effiencies>  (25) 
[-0.22]

>  <Interactions>  (25) 
["H-A:TYR:484:OH:4343, V-A:ARG:545:CZ:4921, V-A:ASP:366:CG:3208, V-B:GLU:543:CG:9875, V-A:HIS:456:CE1:4064, V-B:HIS:456:CE1:9037, V-B:GLU:543:CD:9876, V-A:GLU:543:C:4897, V-B:GLU:543:CB:9874, H-B:GLU:543:OE2:9878, V-A:LEU:475:CD2:4254, V-B:TYR:539:CD2:9842, V-B:TYR:539:CE2:9844, V-B:ALA:541:CB:9860, V-A:ASP:366:CB:3207, V-A:ILE:369:CD1:3234, V-B:GLU:543:C:9870, H-B:LYS:547:NZ:9919, V-B:HIS:456:CD2:9035, H-A:HIS:456:NE2:4065, V-B:PRO:540:CA:9851, V-A:ILE:369:CG2:3232, V-B:ALA:541:CA:9858, V-B:TYR:539:C:9835, H-B:ARG:545:N:9888, V-A:ILE:369:CB:3231, V-A:ASP:366:CA:3205, V-A:ILE:369:CG1:3233"]

$$$$
4bb_Grossjean_2025
     RDKit          3D

 27 29  0  0  0  0  0  0  0  0999 V2000
  128.6580  128.4430   71.2800 C   0  0  0  0  0  0  0  0  0  0  0  0
  127.7500  127.6030   70.3790 C   0  0  0  0  0  0  0  0  0  0  0  0
  126.5980  127.3830   70.7590 O   0  0  0  0  0  0  0  0  0  0  0  0
  128.3110  127.0860   69.0880 C   0  0  0  0  0  0  0  0  0  0  0  0
  129.3690  126.1690   69.1180 C   0  0  0  0  0  0  0  0  0  0  0  0
  129.9090  125.6740   67.9340 C   0  0  0  0  0  0  0  0  0  0  0  0
  129.3980  126.0790   66.7000 C   0  0  0  0  0  0  0  0  0  0  0  0
  130.0190  125.5190   65.5670 N   0  0  0  0  0  0  0  0  0  0  0  0
  131.2970  125.1010   65.3910 C   0  0  0  0  0  0  0  0  0  0  0  0
  132.1740  125.1790   66.2500 O   0  0  0  0  0  0  0  0  0  0  0  0
  131.5990  124.5560   64.0640 C   0  0  0  0  0  0  0  0  0  0  0  0
  133.0080  125.1240   63.1730 S   0  0  0  0  0  0  0  0  0  0  0  0
  132.6240  124.0910   61.8150 C   0  0  0  0  0  0  0  0  0  0  0  0
  133.3900  124.0610   60.7260 N   0  0  0  0  0  0  0  0  0  0  0  0
  132.9900  123.2230   59.7420 C   0  0  0  0  0  0  0  0  0  0  0  0
  133.8780  123.2030   58.5100 C   0  0  0  0  0  0  0  0  0  0  0  0
  131.8540  122.4230   59.8200 C   0  0  0  0  0  0  0  0  0  0  0  0
  131.0440  122.4500   60.9660 C   0  0  0  0  0  0  0  0  0  0  0  0
  129.8030  121.5510   61.0060 C   0  0  0  0  0  0  0  0  0  0  0  0
  128.6610  122.2400   61.0660 F   0  0  0  0  0  0  0  0  0  0  0  0
  129.7570  120.7970   59.9070 F   0  0  0  0  0  0  0  0  0  0  0  0
  129.8510  120.7630   62.0790 F   0  0  0  0  0  0  0  0  0  0  0  0
  131.4370  123.3240   62.0240 C   0  0  0  0  0  0  0  0  0  0  0  0
  130.8710  123.6160   63.3170 C   0  0  0  0  0  0  0  0  0  0  0  0
  129.7240  123.0180   63.7750 N   0  0  0  0  0  0  0  0  0  0  0  0
  128.3430  127.0040   66.6630 C   0  0  0  0  0  0  0  0  0  0  0  0
  127.8050  127.4990   67.8480 C   0  0  0  0  0  0  0  0  0  0  0  0
  1  2  1  0
  2  3  2  0
  2  4  1  0
  4  5  2  0
  5  6  1  0
  6  7  2  0
  7  8  1  0
  8  9  1  0
  9 10  2  0
  9 11  1  0
 11 12  1  0
 12 13  1  0
 13 14  2  0
 14 15  1  0
 15 16  1  0
 15 17  2  0
 17 18  1  0
 18 19  1  0
 19 20  1  0
 19 21  1  0
 19 22  1  0
 18 23  2  0
 23 24  1  0
 24 25  1  0
  7 26  1  0
 26 27  2  0
 27  4  1  0
 24 11  2  0
 23 13  1  0
M  END
>  <Binding energies>  (26) 
[-6.66]

>  <Ligand effiencies>  (26) 
[-0.222]

>  <Interactions>  (26) 
["H-A:TYR:484:OH:4343, V-A:ARG:545:CZ:4921, V-A:ASP:366:CG:3208, V-B:GLU:543:CG:9875, V-A:HIS:456:CE1:4064, V-B:HIS:456:CE1:9037, V-B:GLU:543:CD:9876, V-B:GLU:543:CB:9874, H-B:GLU:543:OE2:9878, V-A:LEU:475:CD2:4254, V-B:TYR:539:CD2:9842, V-B:TYR:539:CE2:9844, V-B:ALA:541:CB:9860, V-A:ASP:366:CB:3207, V-A:ILE:369:CD1:3234, V-B:GLU:543:C:9870, H-B:LYS:547:NZ:9919, V-B:HIS:456:CD2:9035, H-A:HIS:456:NE2:4065, V-B:PRO:540:CA:9851, V-A:ILE:369:CG2:3232, V-B:PRO:540:C:9849, V-B:ALA:541:CA:9858, V-B:TYR:539:C:9835, H-B:HIS:456:ND1:9034, H-B:ARG:545:N:9888, V-A:ILE:369:CB:3231, V-A:ASP:366:CA:3205, V-A:ILE:369:CG1:3233"]

$$$$
4bd_Grossjean_2025
     RDKit          3D

 24 26  0  0  0  0  0  0  0  0999 V2000
  135.5250  125.1150   66.5290 C   0  0  0  0  0  0  0  0  0  0  0  0
  134.2610  125.1090   65.6890 C   0  0  0  0  0  0  0  0  0  0  0  0
  133.0270  125.4370   66.2450 C   0  0  0  0  0  0  0  0  0  0  0  0
  131.8660  125.4250   65.4570 C   0  0  0  0  0  0  0  0  0  0  0  0
  130.5300  125.7890   66.1140 C   0  0  0  0  0  0  0  0  0  0  0  0
  129.8310  126.6860   65.4130 F   0  0  0  0  0  0  0  0  0  0  0  0
  129.7740  124.6990   66.2340 F   0  0  0  0  0  0  0  0  0  0  0  0
  130.7490  126.3100   67.3210 F   0  0  0  0  0  0  0  0  0  0  0  0
  132.0130  125.0690   64.0830 C   0  0  0  0  0  0  0  0  0  0  0  0
  131.0750  124.9510   62.9930 C   0  0  0  0  0  0  0  0  0  0  0  0
  129.7360  125.2020   63.1410 N   0  0  0  0  0  0  0  0  0  0  0  0
  131.6560  124.5570   61.7760 C   0  0  0  0  0  0  0  0  0  0  0  0
  131.0010  124.3250   60.4850 C   0  0  0  0  0  0  0  0  0  0  0  0
  131.5630  124.6300   59.4320 O   0  0  0  0  0  0  0  0  0  0  0  0
  129.7730  123.7540   60.5500 N   0  0  0  0  0  0  0  0  0  0  0  0
  128.8750  123.4430   59.5120 C   0  0  0  0  0  0  0  0  0  0  0  0
  129.4370  122.8660   58.3690 C   0  0  0  0  0  0  0  0  0  0  0  0
  128.6300  122.5120   57.2910 C   0  0  0  0  0  0  0  0  0  0  0  0
  127.2560  122.7270   57.3580 C   0  0  0  0  0  0  0  0  0  0  0  0
  126.6820  123.2880   58.4970 C   0  0  0  0  0  0  0  0  0  0  0  0
  127.4860  123.6430   59.5760 C   0  0  0  0  0  0  0  0  0  0  0  0
  133.3940  124.3260   61.9440 S   0  0  0  0  0  0  0  0  0  0  0  0
  133.3340  124.7540   63.6380 C   0  0  0  0  0  0  0  0  0  0  0  0
  134.4330  124.7680   64.3910 N   0  0  0  0  0  0  0  0  0  0  0  0
  1  2  1  0
  2  3  2  0
  3  4  1  0
  4  5  1  0
  5  6  1  0
  5  7  1  0
  5  8  1  0
  4  9  2  0
  9 10  1  0
 10 11  1  0
 10 12  2  0
 12 13  1  0
 13 14  2  0
 13 15  1  0
 15 16  1  0
 16 17  2  0
 17 18  1  0
 18 19  2  0
 19 20  1  0
 20 21  2  0
 12 22  1  0
 22 23  1  0
 23 24  2  0
 24  2  1  0
 23  9  1  0
 21 16  1  0
M  END
>  <Binding energies>  (27) 
[-6.17]

>  <Ligand effiencies>  (27) 
[-0.2285185185185185]

>  <Interactions>  (27) 
["V-A:ARG:545:CD:4918, H-A:TYR:484:OH:4343, V-A:ARG:545:CZ:4921, V-A:ARG:545:CG:4917, H-A:GLY:454:N:4045, V-A:ASP:366:CG:3208, V-A:GLU:543:CD:4903, V-B:GLU:543:CG:9875, V-A:HIS:456:CE1:4064, V-B:GLU:543:CD:9876, V-B:GLU:543:CB:9874, H-B:GLU:543:OE2:9878, V-B:TYR:539:CD2:9842, V-A:TYR:484:CE1:4340, V-B:TYR:539:CE2:9844, V-A:HIS:456:CD2:4063, V-A:GLY:453:C:4037, V-A:GLY:453:CA:4039, V-B:PRO:540:CB:9853, V-B:PRO:540:CA:9851, V-B:TYR:539:C:9835, H-A:ARG:545:NH1:4922, V-B:PRO:540:N:9852, V-B:TYR:539:CZ:9845, V-B:MET:535:CE:9803, V-A:ILE:455:C:4047, V-B:TYR:539:CE1:9843, V-B:TYR:539:CG:9840, V-B:TYR:539:CD1:9841"]

$$$$
4be_Grossjean_2025
     RDKit          3D

 25 27  0  0  0  0  0  0  0  0999 V2000
  123.0230  130.0150   66.9960 C   0  0  0  0  0  0  0  0  0  0  0  0
  123.8330  129.7550   65.7400 C   0  0  0  0  0  0  0  0  0  0  0  0
  123.3700  130.1410   64.4800 C   0  0  0  0  0  0  0  0  0  0  0  0
  124.1670  129.8670   63.3670 C   0  0  0  0  0  0  0  0  0  0  0  0
  125.3930  129.2200   63.5390 C   0  0  0  0  0  0  0  0  0  0  0  0
  125.7990  128.8660   64.8310 C   0  0  0  0  0  0  0  0  0  0  0  0
  127.0390  128.2110   64.9350 N   0  0  0  0  0  0  0  0  0  0  0  0
  127.5580  127.5320   65.9890 C   0  0  0  0  0  0  0  0  0  0  0  0
  126.9740  127.3820   67.0640 O   0  0  0  0  0  0  0  0  0  0  0  0
  128.9030  126.9860   65.7850 C   0  0  0  0  0  0  0  0  0  0  0  0
  129.9250  126.6100   67.1710 S   0  0  0  0  0  0  0  0  0  0  0  0
  131.2290  126.0960   66.1270 C   0  0  0  0  0  0  0  0  0  0  0  0
  132.3840  125.6550   66.6230 N   0  0  0  0  0  0  0  0  0  0  0  0
  133.3170  125.2840   65.7160 C   0  0  0  0  0  0  0  0  0  0  0  0
  134.6260  124.7870   66.3020 C   0  0  0  0  0  0  0  0  0  0  0  0
  133.1230  125.3410   64.3390 C   0  0  0  0  0  0  0  0  0  0  0  0
  131.9090  125.8040   63.8100 C   0  0  0  0  0  0  0  0  0  0  0  0
  131.7410  125.8450   62.2870 C   0  0  0  0  0  0  0  0  0  0  0  0
  130.6450  125.2090   61.8650 F   0  0  0  0  0  0  0  0  0  0  0  0
  131.6490  127.1100   61.8770 F   0  0  0  0  0  0  0  0  0  0  0  0
  132.7890  125.2670   61.7010 F   0  0  0  0  0  0  0  0  0  0  0  0
  130.9040  126.2080   64.7390 C   0  0  0  0  0  0  0  0  0  0  0  0
  129.5700  126.7300   64.5770 C   0  0  0  0  0  0  0  0  0  0  0  0
  129.0040  126.9490   63.3460 N   0  0  0  0  0  0  0  0  0  0  0  0
  125.0220  129.1260   65.9230 N   0  0  0  0  0  0  0  0  0  0  0  0
  1  2  1  0
  2  3  2  0
  3  4  1  0
  4  5  2  0
  5  6  1  0
  6  7  1  0
  7  8  1  0
  8  9  2  0
  8 10  1  0
 10 11  1  0
 11 12  1  0
 12 13  2  0
 13 14  1  0
 14 15  1  0
 14 16  2  0
 16 17  1  0
 17 18  1  0
 18 19  1  0
 18 20  1  0
 18 21  1  0
 17 22  2  0
 22 23  1  0
 23 24  1  0
  6 25  2  0
 25  2  1  0
 23 10  2  0
 22 12  1  0
M  END
>  <Binding energies>  (28) 
[-6.35]

>  <Ligand effiencies>  (28) 
[-0.22678571428571428]

>  <Interactions>  (28) 
["V-A:ARG:545:CD:4918, H-A:TYR:484:OH:4343, V-A:ARG:545:CZ:4921, V-A:ARG:545:CG:4917, V-A:ASP:366:CG:3208, V-A:GLU:543:CD:4903, V-B:GLU:543:CG:9875, V-A:HIS:456:CE1:4064, V-B:HIS:456:CE1:9037, V-A:GLY:454:CA:4044, V-B:GLU:543:CD:9876, V-B:GLU:543:CB:9874, H-B:GLU:543:OE2:9878, H-B:GLU:543:OE1:9877, V-B:ARG:545:CZ:9894, V-B:ARG:545:CD:9891, V-B:ARG:545:CG:9890, V-A:HIS:456:CD2:4063, V-A:GLY:453:C:4037, V-A:GLY:453:CA:4039, H-A:HIS:456:NE2:4065, H-B:ARG:545:NE:9892, V-B:GLY:453:CA:9011, V-B:GLY:453:C:9009, V-B:ARG:545:CB:9889, V-B:ILE:455:C:9019"]

$$$$
4bg_Grossjean_2025
     RDKit          3D

 25 27  0  0  0  0  0  0  0  0999 V2000
  135.5350  125.1260   66.5210 C   0  0  0  0  0  0  0  0  0  0  0  0
  134.2730  125.1260   65.6770 C   0  0  0  0  0  0  0  0  0  0  0  0
  133.0460  125.4900   66.2230 C   0  0  0  0  0  0  0  0  0  0  0  0
  131.8850  125.4800   65.4330 C   0  0  0  0  0  0  0  0  0  0  0  0
  130.5560  125.8880   66.0770 C   0  0  0  0  0  0  0  0  0  0  0  0
  129.8790  126.7830   65.3550 F   0  0  0  0  0  0  0  0  0  0  0  0
  129.7760  124.8160   66.2180 F   0  0  0  0  0  0  0  0  0  0  0  0
  130.7820  126.4290   67.2740 F   0  0  0  0  0  0  0  0  0  0  0  0
  132.0290  125.0870   64.0690 C   0  0  0  0  0  0  0  0  0  0  0  0
  131.0900  124.9520   62.9820 C   0  0  0  0  0  0  0  0  0  0  0  0
  129.7480  125.2030   63.1240 N   0  0  0  0  0  0  0  0  0  0  0  0
  131.6720  124.5500   61.7700 C   0  0  0  0  0  0  0  0  0  0  0  0
  131.0190  124.2880   60.4880 C   0  0  0  0  0  0  0  0  0  0  0  0
  131.5260  124.6450   59.4230 O   0  0  0  0  0  0  0  0  0  0  0  0
  129.8580  123.6020   60.5450 N   0  0  0  0  0  0  0  0  0  0  0  0
  129.0270  123.2410   59.3970 C   0  0  0  0  0  0  0  0  0  0  0  0
  127.5380  123.4550   59.6300 C   0  0  0  0  0  0  0  0  0  0  0  0
  127.0200  123.4230   60.9290 C   0  0  0  0  0  0  0  0  0  0  0  0
  125.6640  123.6570   61.1430 C   0  0  0  0  0  0  0  0  0  0  0  0
  124.8320  123.9360   60.0600 C   0  0  0  0  0  0  0  0  0  0  0  0
  125.3440  123.9870   58.7660 C   0  0  0  0  0  0  0  0  0  0  0  0
  126.7000  123.7510   58.5510 C   0  0  0  0  0  0  0  0  0  0  0  0
  133.4050  124.2880   61.9460 S   0  0  0  0  0  0  0  0  0  0  0  0
  133.3460  124.7440   63.6320 C   0  0  0  0  0  0  0  0  0  0  0  0
  134.4440  124.7530   64.3880 N   0  0  0  0  0  0  0  0  0  0  0  0
  1  2  1  0
  2  3  2  0
  3  4  1  0
  4  5  1  0
  5  6  1  0
  5  7  1  0
  5  8  1  0
  4  9  2  0
  9 10  1  0
 10 11  1  0
 10 12  2  0
 12 13  1  0
 13 14  2  0
 13 15  1  0
 15 16  1  0
 16 17  1  0
 17 18  2  0
 18 19  1  0
 19 20  2  0
 20 21  1  0
 21 22  2  0
 12 23  1  0
 23 24  1  0
 24 25  2  0
 25  2  1  0
 24  9  1  0
 22 17  1  0
M  END
>  <Binding energies>  (29) 
[-6.43]

>  <Ligand effiencies>  (29) 
[-0.22964285714285712]

>  <Interactions>  (29) 
["V-A:ARG:545:CD:4918, H-A:TYR:484:OH:4343, V-A:ARG:545:CZ:4921, V-A:ARG:545:CG:4917, H-A:GLY:454:N:4045, V-A:ASP:366:CG:3208, V-A:GLU:543:CD:4903, V-B:GLU:543:CG:9875, V-A:HIS:456:CE1:4064, V-B:GLU:543:CD:9876, V-B:GLU:543:CB:9874, H-B:GLU:543:OE2:9878, V-A:HIS:456:CD2:4063, V-A:GLY:453:C:4037, V-A:GLY:453:CA:4039, V-B:PRO:540:CB:9853, V-B:PRO:540:CA:9851, H-A:ARG:545:NH1:4922, V-A:ILE:455:C:4047"]

$$$$
4ca_Grossjean_2025
     RDKit          3D

 34 37  0  0  0  0  0  0  0  0999 V2000
  124.8130  129.3700   75.3230 C   0  0  0  0  0  0  0  0  0  0  0  0
  126.1740  129.9030   74.8650 C   0  0  0  0  0  0  0  0  0  0  0  0
  126.7830  128.9580   73.9950 O   0  0  0  0  0  0  0  0  0  0  0  0
  128.0530  129.1350   73.5450 C   0  0  0  0  0  0  0  0  0  0  0  0
  128.9210  129.7420   74.1800 O   0  0  0  0  0  0  0  0  0  0  0  0
  128.2960  128.5160   72.1990 C   0  0  0  0  0  0  0  0  0  0  0  0
  129.5750  128.5910   71.6330 C   0  0  0  0  0  0  0  0  0  0  0  0
  129.8330  128.0220   70.3880 C   0  0  0  0  0  0  0  0  0  0  0  0
  128.8180  127.3770   69.6820 C   0  0  0  0  0  0  0  0  0  0  0  0
  129.1910  126.8310   68.4380 N   0  0  0  0  0  0  0  0  0  0  0  0
  130.2190  127.1540   67.6160 C   0  0  0  0  0  0  0  0  0  0  0  0
  131.0710  128.0040   67.8760 O   0  0  0  0  0  0  0  0  0  0  0  0
  130.2800  126.3980   66.3630 C   0  0  0  0  0  0  0  0  0  0  0  0
  130.8650  124.7350   66.3590 S   0  0  0  0  0  0  0  0  0  0  0  0
  130.5820  124.5930   64.6400 C   0  0  0  0  0  0  0  0  0  0  0  0
  130.8480  123.4660   63.9850 N   0  0  0  0  0  0  0  0  0  0  0  0
  130.5830  123.4440   62.6530 C   0  0  0  0  0  0  0  0  0  0  0  0
  130.8840  122.1560   61.9440 C   0  0  0  0  0  0  0  0  0  0  0  0
  129.8800  121.1960   61.7390 C   0  0  0  0  0  0  0  0  0  0  0  0
  130.1550  119.9960   61.0870 C   0  0  0  0  0  0  0  0  0  0  0  0
  131.4430  119.7380   60.6290 C   0  0  0  0  0  0  0  0  0  0  0  0
  132.4570  120.6710   60.8210 C   0  0  0  0  0  0  0  0  0  0  0  0
  132.1780  121.8690   61.4730 C   0  0  0  0  0  0  0  0  0  0  0  0
  130.0740  124.5620   61.9830 C   0  0  0  0  0  0  0  0  0  0  0  0
  129.7940  125.7560   62.6640 C   0  0  0  0  0  0  0  0  0  0  0  0
  129.2340  126.9410   61.8680 C   0  0  0  0  0  0  0  0  0  0  0  0
  128.0560  127.3690   62.3260 F   0  0  0  0  0  0  0  0  0  0  0  0
  130.0820  127.9670   61.9290 F   0  0  0  0  0  0  0  0  0  0  0  0
  129.0610  126.5870   60.5940 F   0  0  0  0  0  0  0  0  0  0  0  0
  130.0520  125.7840   64.0640 C   0  0  0  0  0  0  0  0  0  0  0  0
  129.8870  126.8000   65.0750 C   0  0  0  0  0  0  0  0  0  0  0  0
  129.3920  128.0480   64.7970 N   0  0  0  0  0  0  0  0  0  0  0  0
  127.5350  127.2920   70.2420 C   0  0  0  0  0  0  0  0  0  0  0  0
  127.2800  127.8590   71.4890 C   0  0  0  0  0  0  0  0  0  0  0  0
  1  2  1  0
  2  3  1  0
  3  4  1  0
  4  5  2  0
  4  6  1  0
  6  7  2  0
  7  8  1  0
  8  9  2  0
  9 10  1  0
 10 11  1  0
 11 12  2  0
 11 13  1  0
 13 14  1  0
 14 15  1  0
 15 16  2  0
 16 17  1  0
 17 18  1  0
 18 19  2  0
 19 20  1  0
 20 21  2  0
 21 22  1  0
 22 23  2  0
 17 24  2  0
 24 25  1  0
 25 26  1  0
 26 27  1  0
 26 28  1  0
 26 29  1  0
 25 30  2  0
 30 31  1  0
 31 32  1  0
  9 33  1  0
 33 34  2  0
 34  6  1  0
 31 13  2  0
 30 15  1  0
 23 18  1  0
M  END
>  <Binding energies>  (30) 
[-7.17]

>  <Ligand effiencies>  (30) 
[-0.19378378378378378]

>  <Interactions>  (30) 
["H-A:TYR:484:OH:4343, H-A:GLU:543:OE2:4905, V-A:GLU:543:CD:4903, V-A:GLU:543:CG:4902, V-B:GLU:543:CG:9875, V-A:HIS:456:CE1:4064, V-B:HIS:456:CE1:9037, H-A:GLU:543:OE1:4904, V-B:GLU:543:CD:9876, H-B:GLU:543:OE2:9878, V-A:LEU:475:CD2:4254, V-B:TYR:539:CD2:9842, V-A:TRP:381:CZ2:3365, V-A:TYR:484:CE1:4340, V-A:TYR:484:CZ:4342, V-A:TRP:381:CH2:3367, V-B:ALA:541:CB:9860, H-B:GLU:543:O:9871, H-B:LYS:547:NZ:9919, V-B:HIS:456:CD2:9035, H-A:LYS:547:NZ:4946, V-B:HIS:456:CG:9033, V-B:HIS:456:CB:9032, V-B:LYS:547:CD:9917, V-B:GLY:544:C:9880, V-B:VAL:458:CG2:9054, V-B:HIS:456:C:9028"]

$$$$
4cb_Grossjean_2025
     RDKit          3D

 33 36  0  0  0  0  0  0  0  0999 V2000
  130.0610  130.7820   73.3070 C   0  0  0  0  0  0  0  0  0  0  0  0
  129.7570  129.3940   73.3430 O   0  0  0  0  0  0  0  0  0  0  0  0
  128.7380  128.8830   72.6060 C   0  0  0  0  0  0  0  0  0  0  0  0
  127.5850  128.7610   73.0300 O   0  0  0  0  0  0  0  0  0  0  0  0
  129.1530  128.4800   71.2190 C   0  0  0  0  0  0  0  0  0  0  0  0
  128.2930  127.6810   70.4530 C   0  0  0  0  0  0  0  0  0  0  0  0
  128.6450  127.2980   69.1620 C   0  0  0  0  0  0  0  0  0  0  0  0
  129.8640  127.6980   68.6130 C   0  0  0  0  0  0  0  0  0  0  0  0
  130.1110  127.2660   67.2960 N   0  0  0  0  0  0  0  0  0  0  0  0
  130.3650  126.0230   66.8190 C   0  0  0  0  0  0  0  0  0  0  0  0
  130.3720  125.0040   67.5100 O   0  0  0  0  0  0  0  0  0  0  0  0
  130.6210  125.9470   65.3780 C   0  0  0  0  0  0  0  0  0  0  0  0
  131.6480  124.6720   64.7260 S   0  0  0  0  0  0  0  0  0  0  0  0
  131.3990  125.2430   63.0930 C   0  0  0  0  0  0  0  0  0  0  0  0
  131.9630  124.6370   62.0510 N   0  0  0  0  0  0  0  0  0  0  0  0
  131.7030  125.1470   60.8190 C   0  0  0  0  0  0  0  0  0  0  0  0
  132.3490  124.4390   59.6630 C   0  0  0  0  0  0  0  0  0  0  0  0
  132.8990  123.1580   59.8240 C   0  0  0  0  0  0  0  0  0  0  0  0
  133.5030  122.4970   58.7570 C   0  0  0  0  0  0  0  0  0  0  0  0
  133.5660  123.1110   57.5110 C   0  0  0  0  0  0  0  0  0  0  0  0
  133.0310  124.3820   57.3250 C   0  0  0  0  0  0  0  0  0  0  0  0
  132.4300  125.0390   58.3950 C   0  0  0  0  0  0  0  0  0  0  0  0
  130.8950  126.2750   60.6430 C   0  0  0  0  0  0  0  0  0  0  0  0
  130.2980  126.9230   61.7340 C   0  0  0  0  0  0  0  0  0  0  0  0
  129.4210  128.1540   61.4690 C   0  0  0  0  0  0  0  0  0  0  0  0
  129.8620  129.2520   62.0880 F   0  0  0  0  0  0  0  0  0  0  0  0
  129.3960  128.4150   60.1630 F   0  0  0  0  0  0  0  0  0  0  0  0
  128.1800  127.9250   61.8970 F   0  0  0  0  0  0  0  0  0  0  0  0
  130.5510  126.3870   63.0300 C   0  0  0  0  0  0  0  0  0  0  0  0
  130.1160  126.7640   64.3530 C   0  0  0  0  0  0  0  0  0  0  0  0
  129.2850  127.8300   64.5830 N   0  0  0  0  0  0  0  0  0  0  0  0
  130.7290  128.5000   69.3720 C   0  0  0  0  0  0  0  0  0  0  0  0
  130.3750  128.8840   70.6620 C   0  0  0  0  0  0  0  0  0  0  0  0
  1  2  1  0
  2  3  1  0
  3  4  2  0
  3  5  1  0
  5  6  2  0
  6  7  1  0
  7  8  2  0
  8  9  1  0
  9 10  1  0
 10 11  2  0
 10 12  1  0
 12 13  1  0
 13 14  1  0
 14 15  2  0
 15 16  1  0
 16 17  1  0
 17 18  2  0
 18 19  1  0
 19 20  2  0
 20 21  1  0
 21 22  2  0
 16 23  2  0
 23 24  1  0
 24 25  1  0
 25 26  1  0
 25 27  1  0
 25 28  1  0
 24 29  2  0
 29 30  1  0
 30 31  1  0
  8 32  1  0
 32 33  2  0
 33  5  1  0
 30 12  2  0
 29 14  1  0
 22 17  1  0
M  END
>  <Binding energies>  (31) 
[-7.02]

>  <Ligand effiencies>  (31) 
[-0.19499999999999998]

>  <Interactions>  (31) 
["H-A:TYR:484:OH:4343, H-A:GLU:543:OE2:4905, V-A:ASP:366:CG:3208, V-A:GLU:543:CD:4903, V-A:GLY:544:C:4907, V-A:GLU:543:CB:4901, V-A:HIS:456:CE1:4064, V-B:HIS:456:CE1:9037, H-A:GLU:543:OE1:4904, V-A:GLU:543:C:4897, H-B:GLU:543:OE2:9878, V-B:TYR:539:CE2:9844, V-A:ASP:366:CB:3207, V-A:TYR:531:CZ:4789, V-A:ILE:369:CD1:3234, H-B:LYS:547:NZ:9919, V-B:HIS:456:CD2:9035, H-A:LYS:547:NZ:4946, H-A:HIS:456:NE2:4065, V-A:LYS:547:CE:4945, V-A:ILE:369:CG2:3232, V-A:ILE:369:CB:3231, V-B:TYR:539:CZ:9845, V-A:TYR:531:CE1:4787"]

$$$$
4cc_Grossjean_2025
     RDKit          3D

 31 34  0  0  0  0  0  0  0  0999 V2000
  129.7420  118.0090   60.2410 C   0  0  0  0  0  0  0  0  0  0  0  0
  130.2350  119.2840   59.8430 O   0  0  0  0  0  0  0  0  0  0  0  0
  130.0610  120.3660   60.6840 C   0  0  0  0  0  0  0  0  0  0  0  0
  130.5930  120.2490   61.9680 C   0  0  0  0  0  0  0  0  0  0  0  0
  130.4680  121.2890   62.8850 C   0  0  0  0  0  0  0  0  0  0  0  0
  129.7980  122.4610   62.5320 C   0  0  0  0  0  0  0  0  0  0  0  0
  129.7360  123.4630   63.5190 N   0  0  0  0  0  0  0  0  0  0  0  0
  130.7330  123.9870   64.2720 C   0  0  0  0  0  0  0  0  0  0  0  0
  131.9180  123.6660   64.1650 O   0  0  0  0  0  0  0  0  0  0  0  0
  130.3180  124.9920   65.2540 C   0  0  0  0  0  0  0  0  0  0  0  0
  130.5930  124.7200   66.9740 S   0  0  0  0  0  0  0  0  0  0  0  0
  129.8760  126.2620   67.3780 C   0  0  0  0  0  0  0  0  0  0  0  0
  129.7820  126.6740   68.6400 N   0  0  0  0  0  0  0  0  0  0  0  0
  129.2190  127.8910   68.8560 C   0  0  0  0  0  0  0  0  0  0  0  0
  129.1230  128.3280   70.2890 C   0  0  0  0  0  0  0  0  0  0  0  0
  130.2080  128.9570   70.9220 C   0  0  0  0  0  0  0  0  0  0  0  0
  130.1270  129.3640   72.2510 C   0  0  0  0  0  0  0  0  0  0  0  0
  128.9570  129.1460   72.9690 C   0  0  0  0  0  0  0  0  0  0  0  0
  127.8680  128.5220   72.3680 C   0  0  0  0  0  0  0  0  0  0  0  0
  127.9540  128.1160   71.0380 C   0  0  0  0  0  0  0  0  0  0  0  0
  128.7390  128.6800   67.8060 C   0  0  0  0  0  0  0  0  0  0  0  0
  128.8320  128.2540   66.4710 C   0  0  0  0  0  0  0  0  0  0  0  0
  128.2910  129.1710   65.3690 C   0  0  0  0  0  0  0  0  0  0  0  0
  129.0880  129.2330   64.2990 F   0  0  0  0  0  0  0  0  0  0  0  0
  127.1040  128.7290   64.9560 F   0  0  0  0  0  0  0  0  0  0  0  0
  128.1590  130.4110   65.8390 F   0  0  0  0  0  0  0  0  0  0  0  0
  129.4290  126.9830   66.2320 C   0  0  0  0  0  0  0  0  0  0  0  0
  129.6920  126.2290   65.0310 C   0  0  0  0  0  0  0  0  0  0  0  0
  129.3580  126.6870   63.7810 N   0  0  0  0  0  0  0  0  0  0  0  0
  129.2710  122.5920   61.2380 C   0  0  0  0  0  0  0  0  0  0  0  0
  129.3980  121.5500   60.3240 C   0  0  0  0  0  0  0  0  0  0  0  0
  1  2  1  0
  2  3  1  0
  3  4  2  0
  4  5  1  0
  5  6  2  0
  6  7  1  0
  7  8  1  0
  8  9  2  0
  8 10  1  0
 10 11  1  0
 11 12  1  0
 12 13  2  0
 13 14  1  0
 14 15  1  0
 15 16  2  0
 16 17  1  0
 17 18  2  0
 18 19  1  0
 19 20  2  0
 14 21  2  0
 21 22  1  0
 22 23  1  0
 23 24  1  0
 23 25  1  0
 23 26  1  0
 22 27  2  0
 27 28  1  0
 28 29  1  0
  6 30  1  0
 30 31  2  0
 31  3  1  0
 28 10  2  0
 27 12  1  0
 20 15  1  0
M  END
>  <Binding energies>  (32) 
[-7.17]

>  <Ligand effiencies>  (32) 
[-0.21088235294117647]

>  <Interactions>  (32) 
["H-A:TYR:484:OH:4343, H-A:GLU:543:OE2:4905, V-A:GLU:543:CD:4903, V-A:GLU:543:CG:4902, V-A:GLY:544:C:4907, V-A:GLU:543:CB:4901, V-B:GLU:543:CG:9875, V-A:HIS:456:CE1:4064, V-B:HIS:456:CE1:9037, H-A:GLU:543:OE1:4904, V-B:GLU:543:CD:9876, V-A:GLU:543:C:4897, V-A:PRO:482:CB:4321, H-B:GLU:543:OE2:9878, V-A:LEU:475:CD2:4254, V-B:TYR:539:CD2:9842, V-A:TRP:381:CZ3:3366, V-A:TRP:381:CZ2:3365, V-A:TYR:484:CE1:4340, V-A:TYR:484:CZ:4342, V-A:PRO:482:CG:4322, V-A:TRP:381:CH2:3367, V-A:LEU:475:CD1:4253, V-B:ALA:541:CB:9860, V-B:HIS:456:CD2:9035, H-A:HIS:456:NE2:4065, V-B:HIS:456:CG:9033, V-A:LYS:547:CE:4945, V-B:TYR:539:C:9835, V-B:TYR:484:CZ:9314, V-B:TYR:484:CE1:9312, V-A:TRP:381:CE3:3363, V-B:TYR:539:CB:9839, V-A:TRP:381:CD2:3360, V-A:TRP:381:CE2:3362"]

$$$$
4ce_Grossjean_2025
     RDKit          3D

 30 33  0  0  0  0  0  0  0  0999 V2000
  130.1410  119.3940   61.0420 C   0  0  0  0  0  0  0  0  0  0  0  0
  130.0050  120.8900   60.8300 C   0  0  0  0  0  0  0  0  0  0  0  0
  129.9170  121.4410   59.5480 C   0  0  0  0  0  0  0  0  0  0  0  0
  129.7850  122.8250   59.4290 C   0  0  0  0  0  0  0  0  0  0  0  0
  129.7430  123.6160   60.5780 C   0  0  0  0  0  0  0  0  0  0  0  0
  129.8410  123.0000   61.8310 C   0  0  0  0  0  0  0  0  0  0  0  0
  129.7680  123.8470   62.9520 N   0  0  0  0  0  0  0  0  0  0  0  0
  130.4480  123.7660   64.1230 C   0  0  0  0  0  0  0  0  0  0  0  0
  131.2840  122.8950   64.3700 O   0  0  0  0  0  0  0  0  0  0  0  0
  130.1280  124.8000   65.1090 C   0  0  0  0  0  0  0  0  0  0  0  0
  130.3740  124.4940   66.8270 S   0  0  0  0  0  0  0  0  0  0  0  0
  129.8380  126.1050   67.2370 C   0  0  0  0  0  0  0  0  0  0  0  0
  129.7980  126.5230   68.5000 N   0  0  0  0  0  0  0  0  0  0  0  0
  129.3820  127.7980   68.7190 C   0  0  0  0  0  0  0  0  0  0  0  0
  129.3530  128.2400   70.1520 C   0  0  0  0  0  0  0  0  0  0  0  0
  130.4870  128.8160   70.7480 C   0  0  0  0  0  0  0  0  0  0  0  0
  130.4700  129.2220   72.0800 C   0  0  0  0  0  0  0  0  0  0  0  0
  129.3140  129.0580   72.8360 C   0  0  0  0  0  0  0  0  0  0  0  0
  128.1780  128.4890   72.2710 C   0  0  0  0  0  0  0  0  0  0  0  0
  128.2000  128.0820   70.9390 C   0  0  0  0  0  0  0  0  0  0  0  0
  128.9890  128.6390   67.6720 C   0  0  0  0  0  0  0  0  0  0  0  0
  129.0230  128.2060   66.3370 C   0  0  0  0  0  0  0  0  0  0  0  0
  128.5800  129.1790   65.2390 C   0  0  0  0  0  0  0  0  0  0  0  0
  129.3700  129.1510   64.1640 F   0  0  0  0  0  0  0  0  0  0  0  0
  127.3460  128.8730   64.8360 F   0  0  0  0  0  0  0  0  0  0  0  0
  128.5920  130.4260   65.7100 F   0  0  0  0  0  0  0  0  0  0  0  0
  129.4720  126.8760   66.0940 C   0  0  0  0  0  0  0  0  0  0  0  0
  129.6470  126.1020   64.8900 C   0  0  0  0  0  0  0  0  0  0  0  0
  129.3680  126.5980   63.6420 N   0  0  0  0  0  0  0  0  0  0  0  0
  129.9660  121.6460   61.9570 N   0  0  0  0  0  0  0  0  0  0  0  0
  1  2  1  0
  2  3  2  0
  3  4  1  0
  4  5  2  0
  5  6  1  0
  6  7  1  0
  7  8  1  0
  8  9  2  0
  8 10  1  0
 10 11  1  0
 11 12  1  0
 12 13  2  0
 13 14  1  0
 14 15  1  0
 15 16  2  0
 16 17  1  0
 17 18  2  0
 18 19  1  0
 19 20  2  0
 14 21  2  0
 21 22  1  0
 22 23  1  0
 23 24  1  0
 23 25  1  0
 23 26  1  0
 22 27  2  0
 27 28  1  0
 28 29  1  0
  6 30  2  0
 30  2  1  0
 28 10  2  0
 27 12  1  0
 20 15  1  0
M  END
>  <Binding energies>  (33) 
[-7.53]

>  <Ligand effiencies>  (33) 
[-0.22818181818181818]

>  <Interactions>  (33) 
["H-A:TYR:484:OH:4343, H-A:GLU:543:OE2:4905, V-A:GLU:543:CD:4903, V-A:GLU:543:CG:4902, V-A:GLY:544:C:4907, V-A:GLU:543:CB:4901, V-B:GLU:543:CG:9875, V-A:HIS:456:CE1:4064, V-A:GLY:544:CA:4909, V-B:HIS:456:CE1:9037, H-A:GLU:543:OE1:4904, V-B:GLU:543:CD:9876, V-A:GLU:543:C:4897, V-B:GLU:543:CB:9874, H-B:GLU:543:OE2:9878, V-A:LEU:475:CD2:4254, V-B:TYR:539:CD2:9842, V-A:TYR:484:CE1:4340, V-A:TYR:484:CZ:4342, V-B:TYR:539:CE2:9844, V-B:ALA:541:CB:9860, V-B:HIS:456:CD2:9035, H-A:HIS:456:NE2:4065, V-A:LYS:547:CE:4945, V-B:TYR:539:C:9835, V-B:TYR:484:CZ:9314, V-B:TYR:484:CE1:9312"]

$$$$
4cf_Grossjean_2025
     RDKit          3D

 29 32  0  0  0  0  0  0  0  0999 V2000
  129.3710  126.6340   63.6490 N   0  0  0  0  0  0  0  0  0  0  0  0
  129.6770  126.1390   64.8910 C   0  0  0  0  0  0  0  0  0  0  0  0
  130.1810  124.8450   65.1000 C   0  0  0  0  0  0  0  0  0  0  0  0
  130.4390  123.7930   64.1130 C   0  0  0  0  0  0  0  0  0  0  0  0
  131.2410  122.8900   64.3540 O   0  0  0  0  0  0  0  0  0  0  0  0
  129.7330  123.8940   62.9600 N   0  0  0  0  0  0  0  0  0  0  0  0
  129.7800  123.0900   61.8050 C   0  0  0  0  0  0  0  0  0  0  0  0
  130.0980  121.7180   61.7770 C   0  0  0  0  0  0  0  0  0  0  0  0
  130.1230  121.0400   60.5570 C   0  0  0  0  0  0  0  0  0  0  0  0
  129.8310  121.7500   59.3920 C   0  0  0  0  0  0  0  0  0  0  0  0
  129.5290  123.0730   59.3900 N   0  0  0  0  0  0  0  0  0  0  0  0
  129.5100  123.7190   60.5850 C   0  0  0  0  0  0  0  0  0  0  0  0
  130.4680  124.5440   66.8130 S   0  0  0  0  0  0  0  0  0  0  0  0
  129.9050  126.1450   67.2340 C   0  0  0  0  0  0  0  0  0  0  0  0
  129.8680  126.5570   68.5000 N   0  0  0  0  0  0  0  0  0  0  0  0
  129.3990  127.8120   68.7290 C   0  0  0  0  0  0  0  0  0  0  0  0
  129.3620  128.2470   70.1650 C   0  0  0  0  0  0  0  0  0  0  0  0
  130.4930  128.8130   70.7730 C   0  0  0  0  0  0  0  0  0  0  0  0
  130.4670  129.2210   72.1050 C   0  0  0  0  0  0  0  0  0  0  0  0
  129.3020  129.0680   72.8490 C   0  0  0  0  0  0  0  0  0  0  0  0
  128.1640  128.5140   72.2710 C   0  0  0  0  0  0  0  0  0  0  0  0
  128.1960  128.1090   70.9390 C   0  0  0  0  0  0  0  0  0  0  0  0
  128.9940  128.6530   67.6880 C   0  0  0  0  0  0  0  0  0  0  0  0
  129.0340  128.2290   66.3510 C   0  0  0  0  0  0  0  0  0  0  0  0
  128.5700  129.2000   65.2590 C   0  0  0  0  0  0  0  0  0  0  0  0
  129.3570  129.1910   64.1810 F   0  0  0  0  0  0  0  0  0  0  0  0
  127.3410  128.8740   64.8580 F   0  0  0  0  0  0  0  0  0  0  0  0
  128.5620  130.4450   65.7360 F   0  0  0  0  0  0  0  0  0  0  0  0
  129.5060  126.9080   66.0990 C   0  0  0  0  0  0  0  0  0  0  0  0
  1  2  1  0
  2  3  2  0
  3  4  1  0
  4  5  2  0
  4  6  1  0
  6  7  1  0
  7  8  2  0
  8  9  1  0
  9 10  2  0
 10 11  1  0
 11 12  2  0
  3 13  1  0
 13 14  1  0
 14 15  2  0
 15 16  1  0
 16 17  1  0
 17 18  2  0
 18 19  1  0
 19 20  2  0
 20 21  1  0
 21 22  2  0
 16 23  2  0
 23 24  1  0
 24 25  1  0
 25 26  1  0
 25 27  1  0
 25 28  1  0
 24 29  2  0
 29  2  1  0
 12  7  1  0
 29 14  1  0
 22 17  1  0
M  END
>  <Binding energies>  (34) 
[-6.93]

>  <Ligand effiencies>  (34) 
[-0.2165625]

>  <Interactions>  (34) 
["H-A:TYR:484:OH:4343, H-A:GLU:543:OE2:4905, V-A:GLU:543:CD:4903, V-A:GLU:543:CG:4902, V-A:GLY:544:C:4907, V-A:GLU:543:CB:4901, V-B:GLU:543:CG:9875, V-A:HIS:456:CE1:4064, V-A:GLY:544:CA:4909, V-B:HIS:456:CE1:9037, H-A:GLU:543:OE1:4904, V-B:GLU:543:CD:9876, V-A:GLU:543:C:4897, V-B:GLU:543:CB:9874, H-B:GLU:543:OE2:9878, V-B:TYR:539:CD2:9842, V-A:TYR:484:CE1:4340, V-A:TYR:484:CZ:4342, V-B:TYR:539:CE2:9844, V-B:ALA:541:CB:9860, V-B:HIS:456:CD2:9035, H-A:HIS:456:NE2:4065, V-A:LYS:547:CE:4945, V-B:TYR:539:C:9835, V-B:TYR:484:CZ:9314, V-B:TYR:484:CE1:9312"]

$$$$
4ci_Grossjean_2025
     RDKit          3D

 28 31  0  0  0  0  0  0  0  0999 V2000
  129.3790  126.4150   63.7290 N   0  0  0  0  0  0  0  0  0  0  0  0
  129.6490  125.9450   64.9880 C   0  0  0  0  0  0  0  0  0  0  0  0
  130.1080  124.6410   65.2400 C   0  0  0  0  0  0  0  0  0  0  0  0
  130.3930  123.5720   64.2800 C   0  0  0  0  0  0  0  0  0  0  0  0
  131.4350  122.9160   64.3590 O   0  0  0  0  0  0  0  0  0  0  0  0
  129.4500  123.3800   63.3230 N   0  0  0  0  0  0  0  0  0  0  0  0
  129.4660  122.4460   62.2950 C   0  0  0  0  0  0  0  0  0  0  0  0
  130.5950  121.6980   61.9610 C   0  0  0  0  0  0  0  0  0  0  0  0
  130.2010  120.9060   60.9090 C   0  0  0  0  0  0  0  0  0  0  0  0
  128.9020  121.1630   60.6220 O   0  0  0  0  0  0  0  0  0  0  0  0
  128.4480  122.1410   61.5080 N   0  0  0  0  0  0  0  0  0  0  0  0
  130.3620  124.3780   66.9640 S   0  0  0  0  0  0  0  0  0  0  0  0
  129.8450  126.0060   67.3350 C   0  0  0  0  0  0  0  0  0  0  0  0
  129.8110  126.4570   68.5870 N   0  0  0  0  0  0  0  0  0  0  0  0
  129.3990  127.7370   68.7760 C   0  0  0  0  0  0  0  0  0  0  0  0
  129.3670  128.2150   70.2000 C   0  0  0  0  0  0  0  0  0  0  0  0
  128.2110  128.0650   70.9840 C   0  0  0  0  0  0  0  0  0  0  0  0
  128.1750  128.5050   72.3050 C   0  0  0  0  0  0  0  0  0  0  0  0
  129.2990  129.1060   72.8620 C   0  0  0  0  0  0  0  0  0  0  0  0
  130.4550  129.2720   72.1070 C   0  0  0  0  0  0  0  0  0  0  0  0
  130.4860  128.8320   70.7870 C   0  0  0  0  0  0  0  0  0  0  0  0
  129.0060  128.5520   67.7090 C   0  0  0  0  0  0  0  0  0  0  0  0
  129.0380  128.0870   66.3840 C   0  0  0  0  0  0  0  0  0  0  0  0
  128.5940  129.0340   65.2630 C   0  0  0  0  0  0  0  0  0  0  0  0
  129.3780  128.9730   64.1850 F   0  0  0  0  0  0  0  0  0  0  0  0
  127.3580  128.7210   64.8750 F   0  0  0  0  0  0  0  0  0  0  0  0
  128.6130  130.2920   65.7020 F   0  0  0  0  0  0  0  0  0  0  0  0
  129.4810  126.7500   66.1740 C   0  0  0  0  0  0  0  0  0  0  0  0
  1  2  1  0
  2  3  2  0
  3  4  1  0
  4  5  2  0
  4  6  1  0
  6  7  1  0
  7  8  1  0
  8  9  2  0
  9 10  1  0
 10 11  1  0
  3 12  1  0
 12 13  1  0
 13 14  2  0
 14 15  1  0
 15 16  1  0
 16 17  2  0
 17 18  1  0
 18 19  2  0
 19 20  1  0
 20 21  2  0
 15 22  2  0
 22 23  1  0
 23 24  1  0
 24 25  1  0
 24 26  1  0
 24 27  1  0
 23 28  2  0
 28  2  1  0
 11  7  2  0
 28 13  1  0
 21 16  1  0
M  END
>  <Binding energies>  (35) 
[-6.84]

>  <Ligand effiencies>  (35) 
[-0.22064516129032258]

>  <Interactions>  (35) 
["H-A:TYR:484:OH:4343, H-A:GLU:543:OE2:4905, V-A:GLU:543:CD:4903, V-A:GLU:543:CG:4902, V-A:GLY:544:C:4907, V-A:GLU:543:CB:4901, V-B:GLU:543:CG:9875, V-A:HIS:456:CE1:4064, V-A:GLY:544:CA:4909, V-B:HIS:456:CE1:9037, H-A:GLU:543:OE1:4904, V-B:GLU:543:CD:9876, V-A:GLU:543:C:4897, V-B:GLU:543:CB:9874, H-B:GLU:543:OE2:9878, V-A:LEU:475:CD2:4254, V-A:TYR:484:CE1:4340, V-A:TYR:484:CZ:4342, V-B:ALA:541:CB:9860, V-B:HIS:456:CD2:9035, H-A:HIS:456:NE2:4065, V-A:LYS:547:CE:4945, H-B:ALA:541:N:9859"]

$$$$
8a_Ghoteimi_2023
     RDKit          3D

 40 44  0  0  0  0  0  0  0  0999 V2000
  130.5170  118.0020   62.0760 C   0  0  0  0  0  0  0  0  0  0  0  0
  129.6530  118.5210   60.9240 C   0  0  0  0  0  0  0  0  0  0  0  0
  130.4850  118.8410   59.8160 O   0  0  0  0  0  0  0  0  0  0  0  0
  131.4160  119.8280   59.9010 C   0  0  0  0  0  0  0  0  0  0  0  0
  132.4600  119.8360   59.2410 O   0  0  0  0  0  0  0  0  0  0  0  0
  131.0520  120.9050   60.8810 C   0  0  0  0  0  0  0  0  0  0  0  0
  132.0460  121.4400   61.7090 C   0  0  0  0  0  0  0  0  0  0  0  0
  131.7400  122.4390   62.6290 C   0  0  0  0  0  0  0  0  0  0  0  0
  130.4350  122.9230   62.7430 C   0  0  0  0  0  0  0  0  0  0  0  0
  130.2420  123.9290   63.7100 N   0  0  0  0  0  0  0  0  0  0  0  0
  130.9620  125.0490   63.9650 C   0  0  0  0  0  0  0  0  0  0  0  0
  131.9730  125.3810   63.3460 O   0  0  0  0  0  0  0  0  0  0  0  0
  130.4530  125.8830   65.0580 C   0  0  0  0  0  0  0  0  0  0  0  0
  131.0950  125.7040   66.6900 S   0  0  0  0  0  0  0  0  0  0  0  0
  130.0240  126.9450   67.2990 C   0  0  0  0  0  0  0  0  0  0  0  0
  130.0100  127.2880   68.5870 N   0  0  0  0  0  0  0  0  0  0  0  0
  129.1360  128.2610   68.9560 C   0  0  0  0  0  0  0  0  0  0  0  0
  129.1230  128.6160   70.4080 C   0  0  0  0  0  0  0  0  0  0  0  0
  128.0010  128.3540   71.2070 C   0  0  0  0  0  0  0  0  0  0  0  0
  127.9900  128.6970   72.5560 C   0  0  0  0  0  0  0  0  0  0  0  0
  129.0980  129.3060   73.1410 C   0  0  0  0  0  0  0  0  0  0  0  0
  128.9970  129.6130   74.4850 O   0  0  0  0  0  0  0  0  0  0  0  0
  127.7820  130.1630   74.9800 C   0  0  0  0  0  0  0  0  0  0  0  0
  130.2280  129.5670   72.3520 C   0  0  0  0  0  0  0  0  0  0  0  0
  130.2350  129.2260   71.0020 C   0  0  0  0  0  0  0  0  0  0  0  0
  128.2890  128.8900   68.0410 C   0  0  0  0  0  0  0  0  0  0  0  0
  128.3120  128.5440   66.6850 C   0  0  0  0  0  0  0  0  0  0  0  0
  127.4130  129.2670   65.7490 C   0  0  0  0  0  0  0  0  0  0  0  0
  126.0330  129.0520   65.7930 C   0  0  0  0  0  0  0  0  0  0  0  0
  125.1850  129.7420   64.9320 C   0  0  0  0  0  0  0  0  0  0  0  0
  125.6990  130.6620   64.0170 C   0  0  0  0  0  0  0  0  0  0  0  0
  124.7820  131.2990   63.2030 O   0  0  0  0  0  0  0  0  0  0  0  0
  123.6800  130.5630   62.6890 C   0  0  0  0  0  0  0  0  0  0  0  0
  127.0840  130.8850   63.9770 C   0  0  0  0  0  0  0  0  0  0  0  0
  127.9300  130.1940   64.8410 C   0  0  0  0  0  0  0  0  0  0  0  0
  129.2040  127.5120   66.2790 C   0  0  0  0  0  0  0  0  0  0  0  0
  129.4570  126.8730   65.0120 C   0  0  0  0  0  0  0  0  0  0  0  0
  128.7670  127.1990   63.8710 N   0  0  0  0  0  0  0  0  0  0  0  0
  129.4330  122.3960   61.9130 C   0  0  0  0  0  0  0  0  0  0  0  0
  129.7420  121.3970   60.9940 C   0  0  0  0  0  0  0  0  0  0  0  0
  1  2  1  0
  2  3  1  0
  3  4  1  0
  4  5  2  0
  4  6  1  0
  6  7  2  0
  7  8  1  0
  8  9  2  0
  9 10  1  0
 10 11  1  0
 11 12  2  0
 11 13  1  0
 13 14  1  0
 14 15  1  0
 15 16  2  0
 16 17  1  0
 17 18  1  0
 18 19  2  0
 19 20  1  0
 20 21  2  0
 21 22  1  0
 22 23  1  0
 21 24  1  0
 24 25  2  0
 17 26  2  0
 26 27  1  0
 27 28  1  0
 28 29  2  0
 29 30  1  0
 30 31  2  0
 31 32  1  0
 32 33  1  0
 31 34  1  0
 34 35  2  0
 27 36  2  0
 36 37  1  0
 37 38  1  0
  9 39  1  0
 39 40  2  0
 40  6  1  0
 37 13  2  0
 36 15  1  0
 25 18  1  0
 35 28  1  0
M  END
>  <Binding energies>  (36) 
[-8.23]

>  <Ligand effiencies>  (36) 
[-0.19139534883720932]

>  <Interactions>  (36) 
["V-A:GLU:543:CD:4903, V-A:GLU:543:CG:4902, V-A:GLY:544:C:4907, V-B:GLU:543:CG:9875, V-A:HIS:456:CE1:4064, V-A:GLY:544:CA:4909, V-B:HIS:456:CE1:9037, V-B:GLU:543:CD:9876, V-A:GLU:543:C:4897, V-A:PRO:482:CB:4321, H-B:GLU:543:OE2:9878, V-A:LEU:475:CD2:4254, V-B:TYR:539:CD2:9842, V-A:TRP:381:CZ3:3366, V-A:TRP:381:CZ2:3365, H-B:GLU:543:OE1:9877, V-A:PRO:482:CG:4322, V-A:TRP:381:CH2:3367, V-A:LEU:475:CD1:4253, V-B:TYR:539:CE2:9844, V-B:ALA:541:CB:9860, V-B:ARG:545:CZ:9894, V-B:HIS:456:CD2:9035, H-A:LYS:547:NZ:4946, H-A:HIS:456:NE2:4065, V-B:HIS:456:CG:9033, V-A:LYS:547:CE:4945, V-A:TRP:381:CE2:3362, V-A:LEU:475:CG:4252"]

$$$$
8c_Ghoteimi_2023
     RDKit          3D

 34 38  0  0  0  0  0  0  0  0999 V2000
  128.0180  130.4800   74.5740 C   0  0  0  0  0  0  0  0  0  0  0  0
  128.8820  129.4050   74.2210 O   0  0  0  0  0  0  0  0  0  0  0  0
  129.0030  129.0470   72.8920 C   0  0  0  0  0  0  0  0  0  0  0  0
  127.8780  128.4870   72.2910 C   0  0  0  0  0  0  0  0  0  0  0  0
  127.9100  128.0940   70.9570 C   0  0  0  0  0  0  0  0  0  0  0  0
  129.0710  128.2510   70.1860 C   0  0  0  0  0  0  0  0  0  0  0  0
  129.1120  127.8270   68.7520 C   0  0  0  0  0  0  0  0  0  0  0  0
  128.5490  128.6060   67.7370 C   0  0  0  0  0  0  0  0  0  0  0  0
  128.6040  128.1880   66.4030 C   0  0  0  0  0  0  0  0  0  0  0  0
  127.9900  129.0310   65.3520 C   0  0  0  0  0  0  0  0  0  0  0  0
  126.8150  128.6210   64.7180 C   0  0  0  0  0  0  0  0  0  0  0  0
  126.2340  129.4190   63.7380 C   0  0  0  0  0  0  0  0  0  0  0  0
  126.8170  130.6340   63.3740 C   0  0  0  0  0  0  0  0  0  0  0  0
  126.1690  131.3610   62.3940 O   0  0  0  0  0  0  0  0  0  0  0  0
  124.8640  130.9680   61.9860 C   0  0  0  0  0  0  0  0  0  0  0  0
  128.0000  131.0430   64.0100 C   0  0  0  0  0  0  0  0  0  0  0  0
  128.5800  130.2440   64.9910 C   0  0  0  0  0  0  0  0  0  0  0  0
  129.2520  126.9570   66.1150 C   0  0  0  0  0  0  0  0  0  0  0  0
  129.4900  126.2430   64.8880 C   0  0  0  0  0  0  0  0  0  0  0  0
  129.0690  126.7140   63.6700 N   0  0  0  0  0  0  0  0  0  0  0  0
  130.1850  125.0350   65.0580 C   0  0  0  0  0  0  0  0  0  0  0  0
  130.5960  124.0680   64.0380 C   0  0  0  0  0  0  0  0  0  0  0  0
  131.7720  123.7110   63.9450 O   0  0  0  0  0  0  0  0  0  0  0  0
  129.6030  123.6160   63.2320 N   0  0  0  0  0  0  0  0  0  0  0  0
  129.7210  122.7010   62.1960 C   0  0  0  0  0  0  0  0  0  0  0  0
  129.3100  122.8300   60.9530 N   0  0  0  0  0  0  0  0  0  0  0  0
  129.5920  121.7610   60.2360 C   0  0  0  0  0  0  0  0  0  0  0  0
  130.2470  120.7290   60.9000 C   0  0  0  0  0  0  0  0  0  0  0  0
  130.5030  121.1950   62.5550 S   0  0  0  0  0  0  0  0  0  0  0  0
  130.5680  124.7540   66.7580 S   0  0  0  0  0  0  0  0  0  0  0  0
  129.7950  126.2500   67.2270 C   0  0  0  0  0  0  0  0  0  0  0  0
  129.7410  126.6470   68.4990 N   0  0  0  0  0  0  0  0  0  0  0  0
  130.1980  128.8180   70.7960 C   0  0  0  0  0  0  0  0  0  0  0  0
  130.1700  129.2110   72.1310 C   0  0  0  0  0  0  0  0  0  0  0  0
  1  2  1  0
  2  3  1  0
  3  4  2  0
  4  5  1  0
  5  6  2  0
  6  7  1  0
  7  8  2  0
  8  9  1  0
  9 10  1  0
 10 11  2  0
 11 12  1  0
 12 13  2  0
 13 14  1  0
 14 15  1  0
 13 16  1  0
 16 17  2  0
  9 18  2  0
 18 19  1  0
 19 20  1  0
 19 21  2  0
 21 22  1  0
 22 23  2  0
 22 24  1  0
 24 25  1  0
 25 26  2  0
 26 27  1  0
 27 28  2  0
 28 29  1  0
 21 30  1  0
 30 31  1  0
 31 32  2  0
  6 33  1  0
 33 34  2  0
 34  3  1  0
 32  7  1  0
 17 10  1  0
 31 18  1  0
 29 25  1  0
M  END
>  <Binding energies>  (37) 
[-8.0]

>  <Ligand effiencies>  (37) 
[-0.21621621621621623]

>  <Interactions>  (37) 
["H-A:TYR:484:OH:4343, H-A:GLU:543:OE2:4905, V-A:GLU:543:CD:4903, V-A:GLU:543:CG:4902, V-A:GLY:544:C:4907, V-B:GLU:543:CG:9875, V-A:HIS:456:CE1:4064, V-B:HIS:456:CE1:9037, H-A:GLU:543:OE1:4904, V-B:GLU:543:CD:9876, V-A:GLU:543:C:4897, V-B:GLU:543:CB:9874, H-B:GLU:543:OE2:9878, V-A:LEU:475:CD2:4254, H-B:GLU:543:OE1:9877, V-A:TYR:484:CE1:4340, V-A:TYR:484:CZ:4342, V-A:LEU:475:CD1:4253, V-B:ALA:541:CB:9860, V-B:HIS:456:CD2:9035, H-A:LYS:547:NZ:4946, H-A:HIS:456:NE2:4065, V-B:HIS:456:CG:9033, V-A:LYS:547:CE:4945"]

$$$$
8d_Ghoteimi_2023
     RDKit          3D

 30 33  0  0  0  0  0  0  0  0999 V2000
  126.3710  126.4120   61.0640 C   0  0  0  0  0  0  0  0  0  0  0  0
  127.0800  127.5460   61.5460 O   0  0  0  0  0  0  0  0  0  0  0  0
  126.5570  128.3280   62.5260 C   0  0  0  0  0  0  0  0  0  0  0  0
  125.6300  129.1230   62.3530 O   0  0  0  0  0  0  0  0  0  0  0  0
  127.2170  128.1300   63.8350 C   0  0  0  0  0  0  0  0  0  0  0  0
  126.5450  128.8830   65.2820 S   0  0  0  0  0  0  0  0  0  0  0  0
  127.8150  128.2030   66.2730 C   0  0  0  0  0  0  0  0  0  0  0  0
  127.8770  128.4230   67.5860 N   0  0  0  0  0  0  0  0  0  0  0  0
  128.9060  127.8450   68.2630 C   0  0  0  0  0  0  0  0  0  0  0  0
  128.9540  128.1110   69.7340 C   0  0  0  0  0  0  0  0  0  0  0  0
  127.8400  127.8720   70.5510 C   0  0  0  0  0  0  0  0  0  0  0  0
  127.8900  128.1220   71.9190 C   0  0  0  0  0  0  0  0  0  0  0  0
  129.0530  128.6180   72.5070 C   0  0  0  0  0  0  0  0  0  0  0  0
  129.0120  128.8350   73.8700 O   0  0  0  0  0  0  0  0  0  0  0  0
  128.1710  129.8630   74.3850 C   0  0  0  0  0  0  0  0  0  0  0  0
  130.1740  128.8590   71.7000 C   0  0  0  0  0  0  0  0  0  0  0  0
  130.1200  128.6070   70.3320 C   0  0  0  0  0  0  0  0  0  0  0  0
  129.8700  127.0590   67.6260 C   0  0  0  0  0  0  0  0  0  0  0  0
  129.8030  126.8260   66.2480 C   0  0  0  0  0  0  0  0  0  0  0  0
  130.8350  125.9810   65.6040 C   0  0  0  0  0  0  0  0  0  0  0  0
  132.1900  126.2420   65.8170 C   0  0  0  0  0  0  0  0  0  0  0  0
  133.1600  125.4530   65.2040 C   0  0  0  0  0  0  0  0  0  0  0  0
  132.7920  124.3930   64.3750 C   0  0  0  0  0  0  0  0  0  0  0  0
  133.8210  123.6660   63.8090 O   0  0  0  0  0  0  0  0  0  0  0  0
  134.2340  123.9650   62.4810 C   0  0  0  0  0  0  0  0  0  0  0  0
  131.4270  124.1300   64.1650 C   0  0  0  0  0  0  0  0  0  0  0  0
  130.4590  124.9200   64.7780 C   0  0  0  0  0  0  0  0  0  0  0  0
  128.7360  127.4170   65.5230 C   0  0  0  0  0  0  0  0  0  0  0  0
  128.3690  127.3940   64.1330 C   0  0  0  0  0  0  0  0  0  0  0  0
  129.0940  126.7110   63.1890 N   0  0  0  0  0  0  0  0  0  0  0  0
  1  2  1  0
  2  3  1  0
  3  4  2  0
  3  5  1  0
  5  6  1  0
  6  7  1  0
  7  8  2  0
  8  9  1  0
  9 10  1  0
 10 11  2  0
 11 12  1  0
 12 13  2  0
 13 14  1  0
 14 15  1  0
 13 16  1  0
 16 17  2  0
  9 18  2  0
 18 19  1  0
 19 20  1  0
 20 21  2  0
 21 22  1  0
 22 23  2  0
 23 24  1  0
 24 25  1  0
 23 26  1  0
 26 27  2  0
 19 28  2  0
 28 29  1  0
 29 30  1  0
 29  5  2  0
 28  7  1  0
 17 10  1  0
 27 20  1  0
M  END
>  <Binding energies>  (38) 
[-6.59]

>  <Ligand effiencies>  (38) 
[-0.2059375]

>  <Interactions>  (38) 
["V-A:ARG:545:CD:4918, H-A:TYR:484:OH:4343, V-A:ARG:545:CZ:4921, H-A:GLY:454:N:4045, V-A:ASP:366:CG:3208, V-A:GLU:543:CD:4903, V-A:GLY:544:C:4907, V-B:GLU:543:CG:9875, V-A:HIS:456:CE1:4064, V-B:HIS:456:CE1:9037, H-A:GLU:543:OE1:4904, V-B:GLU:543:CD:9876, H-B:GLU:543:OE2:9878, V-A:ILE:369:CD1:3234, V-A:GLY:453:C:4037, H-B:LYS:547:NZ:9919, V-B:HIS:456:CD2:9035, H-A:LYS:547:NZ:4946, H-B:ARG:545:NH2:9896, V-B:ASP:366:CG:8180"]

$$$$
9a_Ghoteimi_2023
     RDKit          3D

 48 54  0  0  0  0  0  0  0  0999 V2000
  127.4990  136.7480   61.6920 C   0  0  0  0  0  0  0  0  0  0  0  0
  128.1850  135.3800   61.7740 C   0  0  0  0  0  0  0  0  0  0  0  0
  127.5470  134.4770   60.8790 O   0  0  0  0  0  0  0  0  0  0  0  0
  126.4640  133.7550   61.2650 C   0  0  0  0  0  0  0  0  0  0  0  0
  125.3150  133.9920   60.8780 O   0  0  0  0  0  0  0  0  0  0  0  0
  126.8000  132.6430   62.2160 C   0  0  0  0  0  0  0  0  0  0  0  0
  128.1440  132.3720   62.5060 C   0  0  0  0  0  0  0  0  0  0  0  0
  128.4870  131.3470   63.3830 C   0  0  0  0  0  0  0  0  0  0  0  0
  127.4980  130.5720   63.9880 C   0  0  0  0  0  0  0  0  0  0  0  0
  127.9610  129.5640   64.8550 N   0  0  0  0  0  0  0  0  0  0  0  0
  128.4590  129.6480   66.1140 C   0  0  0  0  0  0  0  0  0  0  0  0
  128.5880  130.7010   66.7380 O   0  0  0  0  0  0  0  0  0  0  0  0
  128.8430  128.3700   66.7220 C   0  0  0  0  0  0  0  0  0  0  0  0
  128.6420  128.1130   68.4560 S   0  0  0  0  0  0  0  0  0  0  0  0
  129.2700  126.4860   68.3330 C   0  0  0  0  0  0  0  0  0  0  0  0
  129.3620  125.6910   69.3980 N   0  0  0  0  0  0  0  0  0  0  0  0
  129.8530  124.4390   69.1920 C   0  0  0  0  0  0  0  0  0  0  0  0
  129.9360  123.5610   70.3980 C   0  0  0  0  0  0  0  0  0  0  0  0
  129.3950  122.2700   70.3770 C   0  0  0  0  0  0  0  0  0  0  0  0
  129.4700  121.4450   71.4950 C   0  0  0  0  0  0  0  0  0  0  0  0
  130.1000  121.8740   72.6740 C   0  0  0  0  0  0  0  0  0  0  0  0
  130.1650  121.0630   73.8120 N   0  0  0  0  0  0  0  0  0  0  0  0
  130.8730  119.7670   73.7960 C   0  0  0  0  0  0  0  0  0  0  0  0
  130.5390  118.8610   74.9990 C   0  0  0  0  0  0  0  0  0  0  0  0
  130.7750  119.5550   76.2130 O   0  0  0  0  0  0  0  0  0  0  0  0
  129.9720  120.7210   76.3090 C   0  0  0  0  0  0  0  0  0  0  0  0
  130.2970  121.6820   75.1470 C   0  0  0  0  0  0  0  0  0  0  0  0
  130.6270  123.1740   72.6950 C   0  0  0  0  0  0  0  0  0  0  0  0
  130.5500  124.0000   71.5770 C   0  0  0  0  0  0  0  0  0  0  0  0
  130.2740  124.0010   67.9350 C   0  0  0  0  0  0  0  0  0  0  0  0
  130.1980  124.8410   66.8180 C   0  0  0  0  0  0  0  0  0  0  0  0
  130.6940  124.3360   65.5120 C   0  0  0  0  0  0  0  0  0  0  0  0
  131.7770  124.9490   64.8770 C   0  0  0  0  0  0  0  0  0  0  0  0
  132.2480  124.4670   63.6600 C   0  0  0  0  0  0  0  0  0  0  0  0
  131.6600  123.3460   63.0530 C   0  0  0  0  0  0  0  0  0  0  0  0
  132.1090  122.8510   61.8260 N   0  0  0  0  0  0  0  0  0  0  0  0
  132.4790  123.8010   60.7580 C   0  0  0  0  0  0  0  0  0  0  0  0
  133.3020  123.1550   59.6230 C   0  0  0  0  0  0  0  0  0  0  0  0
  132.6030  122.0410   59.0900 O   0  0  0  0  0  0  0  0  0  0  0  0
  132.3660  121.0490   60.0760 C   0  0  0  0  0  0  0  0  0  0  0  0
  131.5180  121.6390   61.2240 C   0  0  0  0  0  0  0  0  0  0  0  0
  130.5760  122.7370   63.7000 C   0  0  0  0  0  0  0  0  0  0  0  0
  130.1020  123.2220   64.9150 C   0  0  0  0  0  0  0  0  0  0  0  0
  129.6530  126.1430   67.0030 C   0  0  0  0  0  0  0  0  0  0  0  0
  129.3750  127.2310   66.0990 C   0  0  0  0  0  0  0  0  0  0  0  0
  129.6010  127.1450   64.7490 N   0  0  0  0  0  0  0  0  0  0  0  0
  126.1480  130.8380   63.7070 C   0  0  0  0  0  0  0  0  0  0  0  0
  125.8070  131.8640   62.8290 C   0  0  0  0  0  0  0  0  0  0  0  0
  1  2  1  0
  2  3  1  0
  3  4  1  0
  4  5  2  0
  4  6  1  0
  6  7  2  0
  7  8  1  0
  8  9  2  0
  9 10  1  0
 10 11  1  0
 11 12  2  0
 11 13  1  0
 13 14  1  0
 14 15  1  0
 15 16  2  0
 16 17  1  0
 17 18  1  0
 18 19  2  0
 19 20  1  0
 20 21  2  0
 21 22  1  0
 22 23  1  0
 23 24  1  0
 24 25  1  0
 25 26  1  0
 26 27  1  0
 21 28  1  0
 28 29  2  0
 17 30  2  0
 30 31  1  0
 31 32  1  0
 32 33  2  0
 33 34  1  0
 34 35  2  0
 35 36  1  0
 36 37  1  0
 37 38  1  0
 38 39  1  0
 39 40  1  0
 40 41  1  0
 35 42  1  0
 42 43  2  0
 31 44  2  0
 44 45  1  0
 45 46  1  0
  9 47  1  0
 47 48  2  0
 48  6  1  0
 45 13  2  0
 44 15  1  0
 29 18  1  0
 43 32  1  0
 27 22  1  0
 41 36  1  0
M  END
>  <Binding energies>  (39) 
[-9.45]

>  <Ligand effiencies>  (39) 
[-0.1852941176470588]

>  <Interactions>  (39) 
["H-A:GLU:543:OE2:4905, V-A:ASP:366:CG:3208, V-A:GLU:543:CD:4903, V-A:GLU:543:CG:4902, V-A:GLU:543:CB:4901, V-B:GLU:543:CG:9875, V-A:HIS:456:CE1:4064, V-B:HIS:456:CE1:9037, H-A:GLU:543:OE1:4904, V-B:GLU:543:CD:9876, V-B:GLU:543:CB:9874, H-B:GLU:543:OE2:9878, V-A:LEU:475:CD2:4254, V-B:TYR:539:CD2:9842, V-A:TYR:484:CE1:4340, V-A:TYR:484:CZ:4342, V-B:TYR:539:CE2:9844, V-B:ALA:541:CB:9860, H-B:TYR:484:OH:9315, V-A:PRO:540:C:4876, V-A:ALA:541:CB:4887, V-A:ALA:541:CA:4885, V-A:TYR:539:CE2:4871, V-A:ILE:369:CD1:3234, V-A:HIS:456:CD2:4063, V-B:GLU:543:C:9870, V-B:GLU:543:CA:9872, V-A:TYR:484:CD1:4338, V-A:HIS:456:CG:4061, V-A:TYR:484:CB:4336, H-A:HIS:456:NE2:4065, V-A:TYR:484:CG:4337, V-B:LEU:475:CG:9224, V-B:LEU:475:CD2:9226, V-A:ASP:473:CG:4235, V-A:ASP:473:CB:4234, V-B:TRP:381:CH2:8339, V-B:TRP:381:CZ2:8337, H-A:LYS:471:NZ:4216, V-B:LEU:475:CD1:9225, V-B:PRO:482:CG:9294, V-B:PRO:482:CB:9293, V-B:TRP:381:CE2:8334"]

$$$$
9b_Ghoteimi_2023
     RDKit          3D

 42 48  0  0  0  0  0  0  0  0999 V2000
  129.7490  127.3200   65.2250 N   0  0  0  0  0  0  0  0  0  0  0  0
  129.4480  127.2870   66.5630 C   0  0  0  0  0  0  0  0  0  0  0  0
  128.9420  128.3900   67.2690 C   0  0  0  0  0  0  0  0  0  0  0  0
  128.6200  129.7280   66.7660 C   0  0  0  0  0  0  0  0  0  0  0  0
  128.3930  130.6550   67.5450 O   0  0  0  0  0  0  0  0  0  0  0  0
  128.5880  129.8500   65.4150 N   0  0  0  0  0  0  0  0  0  0  0  0
  128.3010  130.9900   64.6740 C   0  0  0  0  0  0  0  0  0  0  0  0
  127.6110  130.9570   63.4640 C   0  0  0  0  0  0  0  0  0  0  0  0
  127.5330  132.2700   63.0610 C   0  0  0  0  0  0  0  0  0  0  0  0
  128.1440  133.0530   63.9820 O   0  0  0  0  0  0  0  0  0  0  0  0
  128.6270  132.2300   65.0000 N   0  0  0  0  0  0  0  0  0  0  0  0
  128.7010  128.0000   68.9720 S   0  0  0  0  0  0  0  0  0  0  0  0
  129.2940  126.3750   68.7310 C   0  0  0  0  0  0  0  0  0  0  0  0
  129.3920  125.5100   69.7390 N   0  0  0  0  0  0  0  0  0  0  0  0
  129.8820  124.2770   69.4490 C   0  0  0  0  0  0  0  0  0  0  0  0
  130.0020  123.3340   70.6020 C   0  0  0  0  0  0  0  0  0  0  0  0
  129.2720  122.1390   70.6390 C   0  0  0  0  0  0  0  0  0  0  0  0
  129.3760  121.2720   71.7220 C   0  0  0  0  0  0  0  0  0  0  0  0
  130.2030  121.5740   72.8150 C   0  0  0  0  0  0  0  0  0  0  0  0
  130.3200  120.7100   73.9100 N   0  0  0  0  0  0  0  0  0  0  0  0
  130.3680  121.2240   75.2940 C   0  0  0  0  0  0  0  0  0  0  0  0
  130.1490  120.1400   76.3690 C   0  0  0  0  0  0  0  0  0  0  0  0
  131.0760  119.0830   76.1890 O   0  0  0  0  0  0  0  0  0  0  0  0
  130.9230  118.4680   74.9200 C   0  0  0  0  0  0  0  0  0  0  0  0
  131.1620  119.5000   73.7970 C   0  0  0  0  0  0  0  0  0  0  0  0
  130.9460  122.7610   72.7640 C   0  0  0  0  0  0  0  0  0  0  0  0
  130.8460  123.6270   71.6780 C   0  0  0  0  0  0  0  0  0  0  0  0
  130.2460  123.9040   68.1530 C   0  0  0  0  0  0  0  0  0  0  0  0
  130.1250  124.8020   67.0860 C   0  0  0  0  0  0  0  0  0  0  0  0
  130.4960  124.3470   65.7220 C   0  0  0  0  0  0  0  0  0  0  0  0
  131.5260  124.9800   65.0240 C   0  0  0  0  0  0  0  0  0  0  0  0
  131.8890  124.5440   63.7540 C   0  0  0  0  0  0  0  0  0  0  0  0
  131.2320  123.4630   63.1450 C   0  0  0  0  0  0  0  0  0  0  0  0
  131.5900  122.9990   61.8770 N   0  0  0  0  0  0  0  0  0  0  0  0
  132.8940  123.3900   61.3070 C   0  0  0  0  0  0  0  0  0  0  0  0
  132.9880  123.1520   59.7850 C   0  0  0  0  0  0  0  0  0  0  0  0
  132.6970  121.7950   59.4870 O   0  0  0  0  0  0  0  0  0  0  0  0
  131.3910  121.4320   59.9090 C   0  0  0  0  0  0  0  0  0  0  0  0
  131.2540  121.6310   61.4340 C   0  0  0  0  0  0  0  0  0  0  0  0
  130.2110  122.8230   63.8640 C   0  0  0  0  0  0  0  0  0  0  0  0
  129.8480  123.2600   65.1350 C   0  0  0  0  0  0  0  0  0  0  0  0
  129.6460  126.1110   67.3730 C   0  0  0  0  0  0  0  0  0  0  0  0
  1  2  1  0
  2  3  2  0
  3  4  1  0
  4  5  2  0
  4  6  1  0
  6  7  1  0
  7  8  1  0
  8  9  2  0
  9 10  1  0
 10 11  1  0
  3 12  1  0
 12 13  1  0
 13 14  2  0
 14 15  1  0
 15 16  1  0
 16 17  2  0
 17 18  1  0
 18 19  2  0
 19 20  1  0
 20 21  1  0
 21 22  1  0
 22 23  1  0
 23 24  1  0
 24 25  1  0
 19 26  1  0
 26 27  2  0
 15 28  2  0
 28 29  1  0
 29 30  1  0
 30 31  2  0
 31 32  1  0
 32 33  2  0
 33 34  1  0
 34 35  1  0
 35 36  1  0
 36 37  1  0
 37 38  1  0
 38 39  1  0
 33 40  1  0
 40 41  2  0
 29 42  2  0
 42  2  1  0
 11  7  2  0
 42 13  1  0
 27 16  1  0
 41 30  1  0
 25 20  1  0
 39 34  1  0
M  END
>  <Binding energies>  (40) 
[-9.16]

>  <Ligand effiencies>  (40) 
[-0.20355555555555555]

>  <Interactions>  (40) 
["H-A:GLU:543:OE2:4905, V-A:GLU:543:CD:4903, V-A:GLU:543:CG:4902, V-A:GLU:543:CB:4901, V-B:GLU:543:CG:9875, V-A:HIS:456:CE1:4064, V-B:HIS:456:CE1:9037, H-A:GLU:543:OE1:4904, V-B:GLU:543:CD:9876, V-B:GLU:543:CB:9874, H-B:GLU:543:OE2:9878, V-A:LEU:475:CD2:4254, V-B:TYR:539:CD2:9842, V-A:TYR:484:CE1:4340, V-A:TYR:484:CZ:4342, V-B:TYR:539:CE2:9844, V-B:ALA:541:CB:9860, H-B:TYR:484:OH:9315, V-A:ILE:369:CD1:3234, V-A:HIS:456:CD2:4063, V-B:GLU:543:C:9870, V-B:GLU:543:CA:9872, V-A:TYR:484:CD1:4338, V-A:HIS:456:CG:4061, V-A:TYR:484:CB:4336, H-A:HIS:456:NE2:4065, V-A:TYR:484:CG:4337, V-A:ASP:473:CG:4235, V-A:ASP:473:CB:4234, V-A:TYR:484:C:4332, H-A:LYS:471:NZ:4216, V-A:ASP:485:CA:4348, V-A:PRO:486:CD:4361"]

$$$$
9c_Ghoteimi_2023
     RDKit          3D

 42 48  0  0  0  0  0  0  0  0999 V2000
  129.7470  127.3020   65.0310 N   0  0  0  0  0  0  0  0  0  0  0  0
  129.4380  127.3270   66.3670 C   0  0  0  0  0  0  0  0  0  0  0  0
  128.9350  128.4620   67.0230 C   0  0  0  0  0  0  0  0  0  0  0  0
  128.6280  129.7800   66.4610 C   0  0  0  0  0  0  0  0  0  0  0  0
  128.4540  130.7540   67.1970 O   0  0  0  0  0  0  0  0  0  0  0  0
  128.5480  129.8320   65.1090 N   0  0  0  0  0  0  0  0  0  0  0  0
  128.2580  130.9450   64.3320 C   0  0  0  0  0  0  0  0  0  0  0  0
  128.5860  132.1980   64.5610 N   0  0  0  0  0  0  0  0  0  0  0  0
  128.1400  132.9970   63.6110 C   0  0  0  0  0  0  0  0  0  0  0  0
  127.4290  132.3900   62.5790 C   0  0  0  0  0  0  0  0  0  0  0  0
  127.3480  130.6800   62.8790 S   0  0  0  0  0  0  0  0  0  0  0  0
  128.6800  128.1460   68.7390 S   0  0  0  0  0  0  0  0  0  0  0  0
  129.2640  126.5070   68.5710 C   0  0  0  0  0  0  0  0  0  0  0  0
  129.3480  125.6850   69.6160 N   0  0  0  0  0  0  0  0  0  0  0  0
  129.8310  124.4380   69.3810 C   0  0  0  0  0  0  0  0  0  0  0  0
  129.9350  123.5440   70.5740 C   0  0  0  0  0  0  0  0  0  0  0  0
  129.4210  122.2420   70.5520 C   0  0  0  0  0  0  0  0  0  0  0  0
  129.5120  121.4170   71.6680 C   0  0  0  0  0  0  0  0  0  0  0  0
  130.1110  121.8690   72.8560 C   0  0  0  0  0  0  0  0  0  0  0  0
  130.2170  121.0490   73.9850 N   0  0  0  0  0  0  0  0  0  0  0  0
  130.4330  121.6180   75.3310 C   0  0  0  0  0  0  0  0  0  0  0  0
  130.1750  120.6190   76.4790 C   0  0  0  0  0  0  0  0  0  0  0  0
  130.9600  119.4520   76.2900 O   0  0  0  0  0  0  0  0  0  0  0  0
  130.6370  118.8020   75.0720 C   0  0  0  0  0  0  0  0  0  0  0  0
  130.9040  119.7450   73.8780 C   0  0  0  0  0  0  0  0  0  0  0  0
  130.6420  123.1660   72.8660 C   0  0  0  0  0  0  0  0  0  0  0  0
  130.5540  123.9900   71.7470 C   0  0  0  0  0  0  0  0  0  0  0  0
  130.2000  124.0080   68.1040 C   0  0  0  0  0  0  0  0  0  0  0  0
  130.0930  124.8610   67.0000 C   0  0  0  0  0  0  0  0  0  0  0  0
  130.4680  124.3470   65.6590 C   0  0  0  0  0  0  0  0  0  0  0  0
  131.5140  124.9360   64.9470 C   0  0  0  0  0  0  0  0  0  0  0  0
  131.8800  124.4460   63.6960 C   0  0  0  0  0  0  0  0  0  0  0  0
  131.2080  123.3550   63.1240 C   0  0  0  0  0  0  0  0  0  0  0  0
  131.5660  122.8400   61.8740 N   0  0  0  0  0  0  0  0  0  0  0  0
  132.8900  123.1710   61.3110 C   0  0  0  0  0  0  0  0  0  0  0  0
  133.0000  122.8770   59.7990 C   0  0  0  0  0  0  0  0  0  0  0  0
  132.6700  121.5190   59.5440 O   0  0  0  0  0  0  0  0  0  0  0  0
  131.3480  121.2140   59.9560 C   0  0  0  0  0  0  0  0  0  0  0  0
  131.1920  121.4700   61.4710 C   0  0  0  0  0  0  0  0  0  0  0  0
  130.1720  122.7590   63.8580 C   0  0  0  0  0  0  0  0  0  0  0  0
  129.8060  123.2480   65.1090 C   0  0  0  0  0  0  0  0  0  0  0  0
  129.6220  126.1860   67.2280 C   0  0  0  0  0  0  0  0  0  0  0  0
  1  2  1  0
  2  3  2  0
  3  4  1  0
  4  5  2  0
  4  6  1  0
  6  7  1  0
  7  8  2  0
  8  9  1  0
  9 10  2  0
 10 11  1  0
  3 12  1  0
 12 13  1  0
 13 14  2  0
 14 15  1  0
 15 16  1  0
 16 17  2  0
 17 18  1  0
 18 19  2  0
 19 20  1  0
 20 21  1  0
 21 22  1  0
 22 23  1  0
 23 24  1  0
 24 25  1  0
 19 26  1  0
 26 27  2  0
 15 28  2  0
 28 29  1  0
 29 30  1  0
 30 31  2  0
 31 32  1  0
 32 33  2  0
 33 34  1  0
 34 35  1  0
 35 36  1  0
 36 37  1  0
 37 38  1  0
 38 39  1  0
 33 40  1  0
 40 41  2  0
 29 42  2  0
 42  2  1  0
 11  7  1  0
 42 13  1  0
 27 16  1  0
 41 30  1  0
 25 20  1  0
 39 34  1  0
M  END
>  <Binding energies>  (41) 
[-8.79]

>  <Ligand effiencies>  (41) 
[-0.1953333333333333]

>  <Interactions>  (41) 
["H-A:GLU:543:OE2:4905, V-A:GLU:543:CD:4903, V-A:GLU:543:CG:4902, V-A:GLU:543:CB:4901, V-B:GLU:543:CG:9875, V-A:HIS:456:CE1:4064, V-B:HIS:456:CE1:9037, H-A:GLU:543:OE1:4904, V-B:GLU:543:CD:9876, V-B:GLU:543:CB:9874, H-B:GLU:543:OE2:9878, V-A:LEU:475:CD2:4254, V-B:TYR:539:CD2:9842, V-A:TYR:484:CE1:4340, V-A:TYR:484:CZ:4342, V-B:TYR:539:CE2:9844, V-B:ALA:541:CB:9860, H-B:TYR:484:OH:9315, V-A:ALA:541:CB:4887, V-A:ILE:369:CD1:3234, V-A:HIS:456:CD2:4063, V-B:GLU:543:C:9870, V-B:GLU:543:CA:9872, V-A:TYR:484:CD1:4338, V-A:HIS:456:CG:4061, V-A:TYR:484:CB:4336, H-A:HIS:456:NE2:4065, V-A:TYR:484:CG:4337, V-A:ASP:473:CG:4235, V-A:ASP:473:CB:4234, H-A:LYS:471:NZ:4216"]

$$$$
RR11_Rahimova_2017
     RDKit          3D

 33 38  0  0  0  0  0  0  0  0999 V2000
  122.6240  130.8600   61.7360 N   0  0  0  0  0  0  0  0  0  0  0  0
  123.5890  130.2560   62.5390 C   0  0  0  0  0  0  0  0  0  0  0  0
  124.7220  129.6920   61.9550 C   0  0  0  0  0  0  0  0  0  0  0  0
  125.6870  129.0910   62.7580 C   0  0  0  0  0  0  0  0  0  0  0  0
  125.5300  129.0480   64.1500 C   0  0  0  0  0  0  0  0  0  0  0  0
  126.5740  128.4050   65.0140 C   0  0  0  0  0  0  0  0  0  0  0  0
  126.3880  128.0560   66.2680 N   0  0  0  0  0  0  0  0  0  0  0  0
  127.5750  127.5010   66.6700 C   0  0  0  0  0  0  0  0  0  0  0  0
  127.9230  126.9570   67.9140 C   0  0  0  0  0  0  0  0  0  0  0  0
  129.2100  126.4290   68.0730 C   0  0  0  0  0  0  0  0  0  0  0  0
  129.6180  125.8370   69.4150 C   0  0  0  0  0  0  0  0  0  0  0  0
  129.4850  126.8250   70.5650 C   0  0  0  0  0  0  0  0  0  0  0  0
  129.5390  126.3580   71.8830 C   0  0  0  0  0  0  0  0  0  0  0  0
  129.4300  127.2260   72.9720 C   0  0  0  0  0  0  0  0  0  0  0  0
  129.2720  128.5940   72.7130 C   0  0  0  0  0  0  0  0  0  0  0  0
  129.1370  129.6340   73.5940 N   0  0  0  0  0  0  0  0  0  0  0  0
  129.0140  130.7100   72.8460 C   0  0  0  0  0  0  0  0  0  0  0  0
  128.8240  132.1000   73.3810 C   0  0  0  0  0  0  0  0  0  0  0  0
  127.9960  132.3280   74.4880 C   0  0  0  0  0  0  0  0  0  0  0  0
  127.8110  133.6180   74.9780 C   0  0  0  0  0  0  0  0  0  0  0  0
  128.4550  134.6900   74.3650 C   0  0  0  0  0  0  0  0  0  0  0  0
  128.2670  135.9830   74.8520 N   0  0  0  0  0  0  0  0  0  0  0  0
  129.2840  134.4780   73.2670 C   0  0  0  0  0  0  0  0  0  0  0  0
  129.4680  133.1880   72.7770 C   0  0  0  0  0  0  0  0  0  0  0  0
  129.0700  130.4110   71.5010 N   0  0  0  0  0  0  0  0  0  0  0  0
  129.2330  129.0520   71.3740 C   0  0  0  0  0  0  0  0  0  0  0  0
  129.3460  128.1900   70.2810 C   0  0  0  0  0  0  0  0  0  0  0  0
  130.1320  126.4690   67.0210 C   0  0  0  0  0  0  0  0  0  0  0  0
  129.8170  127.0090   65.7710 C   0  0  0  0  0  0  0  0  0  0  0  0
  128.5250  127.5170   65.6210 C   0  0  0  0  0  0  0  0  0  0  0  0
  127.8480  128.1060   64.5790 N   0  0  0  0  0  0  0  0  0  0  0  0
  124.3850  129.6180   64.7230 C   0  0  0  0  0  0  0  0  0  0  0  0
  123.4180  130.2200   63.9220 C   0  0  0  0  0  0  0  0  0  0  0  0
  1  2  1  0
  2  3  2  0
  3  4  1  0
  4  5  2  0
  5  6  1  0
  6  7  2  0
  7  8  1  0
  8  9  2  0
  9 10  1  0
 10 11  1  0
 11 12  1  0
 12 13  2  0
 13 14  1  0
 14 15  2  0
 15 16  1  0
 16 17  2  0
 17 18  1  0
 18 19  2  0
 19 20  1  0
 20 21  2  0
 21 22  1  0
 21 23  1  0
 23 24  2  0
 17 25  1  0
 25 26  1  0
 26 27  2  0
 10 28  2  0
 28 29  1  0
 29 30  2  0
 30 31  1  0
  5 32  1  0
 32 33  2  0
 33  2  1  0
 31  6  1  0
 30  8  1  0
 27 12  1  0
 26 15  1  0
 24 18  1  0
M  END
>  <Binding energies>  (42) 
[-7.97]

>  <Ligand effiencies>  (42) 
[-0.20435897435897435]

>  <Interactions>  (42) 
["V-A:GLU:543:CD:4903, V-A:HIS:456:CE1:4064, V-B:GLU:543:CD:9876, V-A:GLU:543:C:4897, V-B:GLU:543:CB:9874, H-B:GLU:543:OE2:9878, V-B:ARG:545:CZ:9894, V-B:ARG:545:CD:9891, V-B:GLU:543:C:9870, V-B:HIS:456:CD2:9035, H-A:LYS:547:NZ:4946, V-B:LYS:547:CE:9918, H-A:GLU:543:O:4898, H-B:HIS:456:NE2:9038, V-B:ASP:473:CG:9207, V-B:TYR:484:CB:9308, V-B:ASP:473:CB:9206, H-B:ASP:366:OD1:8181, V-B:ASP:366:CG:8180, V-B:ILE:369:CD1:8206, V-B:GLY:453:CA:9011, V-B:GLY:453:C:9009, H-B:ASP:473:OD2:9209, H-B:CYS:365:O:8173, H-B:TYR:484:O:9305, V-B:TYR:484:C:9304"]

$$$$
RR16_Rahimova_2017
     RDKit          3D

 44 49  0  0  0  0  0  0  0  0999 V2000
  127.6160  128.9330   72.9900 O   0  0  0  0  0  0  0  0  0  0  0  0
  129.0240  129.1760   72.6560 S   0  0  0  0  0  0  0  0  0  0  0  0
  130.0950  128.7940   73.5830 O   0  0  0  0  0  0  0  0  0  0  0  0
  129.1970  130.8960   72.2980 N   0  0  0  0  0  0  0  0  0  0  0  0
  129.5240  131.8670   73.3680 C   0  0  0  0  0  0  0  0  0  0  0  0
  129.9560  133.2090   72.7230 C   0  0  0  0  0  0  0  0  0  0  0  0
  130.1350  134.4190   73.6610 C   0  0  0  0  0  0  0  0  0  0  0  0
  128.8440  134.8500   74.3780 C   0  0  0  0  0  0  0  0  0  0  0  0
  127.5280  134.3710   73.7380 C   0  0  0  0  0  0  0  0  0  0  0  0
  127.1830  132.8760   73.8850 C   0  0  0  0  0  0  0  0  0  0  0  0
  128.3240  131.9460   74.3410 C   0  0  0  0  0  0  0  0  0  0  0  0
  129.3330  128.3630   71.0930 C   0  0  0  0  0  0  0  0  0  0  0  0
  130.0000  129.0370   70.0670 C   0  0  0  0  0  0  0  0  0  0  0  0
  130.1260  128.4380   68.8170 C   0  0  0  0  0  0  0  0  0  0  0  0
  129.5860  127.1680   68.5980 C   0  0  0  0  0  0  0  0  0  0  0  0
  129.6220  126.4550   66.9550 S   0  0  0  0  0  0  0  0  0  0  0  0
  129.0250  125.1160   67.0450 O   0  0  0  0  0  0  0  0  0  0  0  0
  130.9830  126.6260   66.4310 O   0  0  0  0  0  0  0  0  0  0  0  0
  128.5330  127.4880   66.0100 N   0  0  0  0  0  0  0  0  0  0  0  0
  128.7260  127.4020   64.5390 C   0  0  0  0  0  0  0  0  0  0  0  0
  127.9710  128.5440   63.8280 C   0  0  0  0  0  0  0  0  0  0  0  0
  126.4780  128.5890   64.2400 C   0  0  0  0  0  0  0  0  0  0  0  0
  125.7210  129.7450   63.5810 C   0  0  0  0  0  0  0  0  0  0  0  0
  124.3430  129.6320   63.3500 C   0  0  0  0  0  0  0  0  0  0  0  0
  123.6110  130.6630   62.7590 C   0  0  0  0  0  0  0  0  0  0  0  0
  122.2630  130.5360   62.5440 O   0  0  0  0  0  0  0  0  0  0  0  0
  124.2930  131.8340   62.3960 C   0  0  0  0  0  0  0  0  0  0  0  0
  123.8460  132.9920   61.8280 N   0  0  0  0  0  0  0  0  0  0  0  0
  124.9250  133.8400   61.7110 N   0  0  0  0  0  0  0  0  0  0  0  0
  126.0220  133.1980   62.1580 N   0  0  0  0  0  0  0  0  0  0  0  0
  127.3010  133.8930   62.2290 C   0  0  0  0  0  0  0  0  0  0  0  0
  128.3900  133.2040   61.4190 C   0  0  0  0  0  0  0  0  0  0  0  0
  129.3650  132.4360   62.0640 C   0  0  0  0  0  0  0  0  0  0  0  0
  130.3510  131.7860   61.3220 C   0  0  0  0  0  0  0  0  0  0  0  0
  130.3670  131.8980   59.9310 C   0  0  0  0  0  0  0  0  0  0  0  0
  129.3960  132.6600   59.2810 C   0  0  0  0  0  0  0  0  0  0  0  0
  129.4060  132.7930   57.5610 Cl  0  0  0  0  0  0  0  0  0  0  0  0
  128.4110  133.3150   60.0250 C   0  0  0  0  0  0  0  0  0  0  0  0
  125.6850  131.9380   62.6250 C   0  0  0  0  0  0  0  0  0  0  0  0
  126.4200  130.9040   63.2140 C   0  0  0  0  0  0  0  0  0  0  0  0
  126.2920  128.5500   65.7800 C   0  0  0  0  0  0  0  0  0  0  0  0
  127.1090  127.4160   66.4300 C   0  0  0  0  0  0  0  0  0  0  0  0
  128.9570  126.4790   69.6370 C   0  0  0  0  0  0  0  0  0  0  0  0
  128.8280  127.0790   70.8850 C   0  0  0  0  0  0  0  0  0  0  0  0
  1  2  2  0
  2  3  2  0
  2  4  1  0
  4  5  1  0
  5  6  1  0
  6  7  1  0
  7  8  1  0
  8  9  1  0
  9 10  1  0
 10 11  1  0
  2 12  1  0
 12 13  2  0
 13 14  1  0
 14 15  2  0
 15 16  1  0
 16 17  2  0
 16 18  2  0
 16 19  1  0
 19 20  1  0
 20 21  1  0
 21 22  1  0
 22 23  1  0
 23 24  2  0
 24 25  1  0
 25 26  1  0
 25 27  2  0
 27 28  1  0
 28 29  2  0
 29 30  1  0
 30 31  1  0
 31 32  1  0
 32 33  2  0
 33 34  1  0
 34 35  2  0
 35 36  1  0
 36 37  1  0
 36 38  2  0
 30 39  1  0
 39 40  2  0
 22 41  1  0
 41 42  1  0
 15 43  1  0
 43 44  2  0
 11  5  1  0
 44 12  1  0
 42 19  1  0
 40 23  1  0
 39 27  1  0
 38 32  1  0
M  END
>  <Binding energies>  (43) 
[-9.94]

>  <Ligand effiencies>  (43) 
[-0.2070833333333333]

>  <Interactions>  (43) 
["V-A:PRO:540:CA:4878, V-A:PRO:540:CB:4880, V-A:GLU:543:CB:4901, V-B:GLU:543:CG:9875, V-A:HIS:456:CE1:4064, V-B:HIS:456:CE1:9037, V-B:GLU:543:CD:9876, V-A:GLU:543:C:4897, V-B:GLU:543:CB:9874, V-B:ARG:545:CZ:9894, V-A:ALA:541:CB:4887, V-A:TYR:539:CE2:4871, H-B:GLY:454:N:9017, V-A:PRO:540:N:4879, V-B:GLU:543:C:9870, H-B:LYS:547:NZ:9919, V-B:HIS:456:CD2:9035, H-A:LYS:547:NZ:4946, H-A:HIS:456:NE2:4065, H-A:GLU:543:O:4898, H-B:HIS:456:NE2:9038, V-B:TYR:484:CG:9309, V-B:ASP:473:CG:9207, V-B:TYR:484:CB:9308, V-B:ASP:473:CB:9206, H-B:ASP:366:OD1:8181, V-B:ILE:369:CD1:8206, V-B:LEU:475:CD2:9226, V-A:TYR:539:CD2:4869, H-B:ARG:545:NH1:9895, V-A:TYR:539:CE1:4870, V-A:TYR:539:CD1:4868, V-A:TYR:539:CG:4867, V-A:TYR:539:C:4862"]

$$$$
RR18_Rahimova_2017
     RDKit          3D

 36 41  0  0  0  0  0  0  0  0999 V2000
  126.0230  125.4430   61.0930 C   0  0  0  0  0  0  0  0  0  0  0  0
  125.9980  126.9340   61.3140 C   0  0  0  0  0  0  0  0  0  0  0  0
  125.6350  128.0200   60.5340 C   0  0  0  0  0  0  0  0  0  0  0  0
  125.8380  129.1600   61.3110 C   0  0  0  0  0  0  0  0  0  0  0  0
  126.3160  128.7300   62.5380 C   0  0  0  0  0  0  0  0  0  0  0  0
  126.7270  129.4450   63.8230 C   0  0  1  0  0  0  0  0  0  0  0  0
  125.5160  130.1660   64.4880 C   0  0  0  0  0  0  0  0  0  0  0  0
  124.8590  131.2810   63.8120 C   0  0  0  0  0  0  0  0  0  0  0  0
  123.6590  131.5170   63.9650 O   0  0  0  0  0  0  0  0  0  0  0  0
  125.6820  132.0210   63.0340 N   0  0  0  0  0  0  0  0  0  0  0  0
  125.4080  133.1450   62.2260 C   0  0  0  0  0  0  0  0  0  0  0  0
  124.1150  133.4930   61.7950 C   0  0  0  0  0  0  0  0  0  0  0  0
  123.9120  134.6130   60.9910 C   0  0  0  0  0  0  0  0  0  0  0  0
  124.9940  135.3980   60.6010 C   0  0  0  0  0  0  0  0  0  0  0  0
  126.2810  135.0590   61.0100 C   0  0  0  0  0  0  0  0  0  0  0  0
  126.5000  133.9380   61.8180 C   0  0  0  0  0  0  0  0  0  0  0  0
  127.9300  133.6070   62.2350 C   0  0  0  0  0  0  0  0  0  0  0  0
  125.0270  129.6690   65.6540 C   0  0  0  0  0  0  0  0  0  0  0  0
  125.5890  128.6480   66.3590 N   0  0  0  0  0  0  0  0  0  0  0  0
  126.7020  128.1480   65.9670 C   0  0  0  0  0  0  0  0  0  0  0  0
  127.6140  126.9440   66.8470 S   0  0  0  0  0  0  0  0  0  0  0  0
  128.9060  126.9400   65.6060 C   0  0  0  0  0  0  0  0  0  0  0  0
  130.0590  126.1840   65.6070 C   0  0  0  0  0  0  0  0  0  0  0  0
  130.3760  125.3150   66.7490 C   0  0  0  0  0  0  0  0  0  0  0  0
  129.7410  125.1010   67.7810 O   0  0  0  0  0  0  0  0  0  0  0  0
  131.5630  124.7510   66.5040 N   0  0  0  0  0  0  0  0  0  0  0  0
  132.0830  125.1120   65.2980 C   0  0  0  0  0  0  0  0  0  0  0  0
  133.2880  124.6990   64.7290 C   0  0  0  0  0  0  0  0  0  0  0  0
  133.6260  125.1630   63.4610 C   0  0  0  0  0  0  0  0  0  0  0  0
  132.7560  126.0170   62.7850 C   0  0  0  0  0  0  0  0  0  0  0  0
  131.5550  126.4160   63.3760 C   0  0  0  0  0  0  0  0  0  0  0  0
  131.2070  125.9780   64.6680 C   0  0  0  0  0  0  0  0  0  0  0  0
  128.5400  127.9060   64.5690 C   0  0  0  0  0  0  0  0  0  0  0  0
  129.2100  128.2110   63.5870 O   0  0  0  0  0  0  0  0  0  0  0  0
  127.3340  128.4860   64.8140 N   0  0  0  0  0  0  0  0  0  0  0  0
  126.4110  127.3740   62.5320 O   0  0  0  0  0  0  0  0  0  0  0  0
  1  2  1  0
  2  3  2  0
  3  4  1  0
  4  5  2  0
  6  5  1  6
  6  7  1  0
  7  8  1  0
  8  9  2  0
  8 10  1  0
 10 11  1  0
 11 12  2  0
 12 13  1  0
 13 14  2  0
 14 15  1  0
 15 16  2  0
 16 17  1  0
  7 18  2  0
 18 19  1  0
 19 20  2  0
 20 21  1  0
 21 22  1  0
 22 23  2  0
 23 24  1  0
 24 25  2  0
 24 26  1  0
 26 27  1  0
 27 28  2  0
 28 29  1  0
 29 30  2  0
 30 31  1  0
 31 32  2  0
 22 33  1  0
 33 34  2  0
 33 35  1  0
  5 36  1  0
 36  2  1  0
 35  6  1  0
 16 11  1  0
 35 20  1  0
 32 23  1  0
 32 27  1  0
M  END
>  <Binding energies>  (44) 
[-8.16]

>  <Ligand effiencies>  (44) 
[-0.21473684210526317]

>  <Interactions>  (44) 
["H-A:TYR:484:OH:4343, V-A:ARG:545:CZ:4921, V-A:ASP:366:CG:3208, V-A:GLU:543:CD:4903, V-B:GLU:543:CG:9875, V-A:HIS:456:CE1:4064, V-B:HIS:456:CE1:9037, V-B:GLU:543:CD:9876, V-B:GLU:543:CB:9874, V-A:TYR:484:CE1:4340, V-A:TYR:484:CZ:4342, H-B:TYR:484:OH:9315, V-A:ALA:541:CB:4887, V-A:TYR:539:CE2:4871, H-B:GLY:454:N:9017, V-A:HIS:456:CD2:4063, H-A:HIS:456:NE2:4065, V-B:ASP:366:CB:8179, H-B:ARG:545:NH2:9896, H-B:ARG:545:NE:9892, V-B:ASP:366:CG:8180, V-B:ILE:369:CD1:8206, V-B:ILE:369:CG2:8204, V-B:LEU:475:CD2:9226, V-A:TYR:539:CD2:4869, V-B:TRP:381:CH2:8339, V-B:TRP:381:CZ2:8337, V-B:TRP:381:CZ3:8338"]

$$$$
RR20_Rahimova_2017
     RDKit          3D

 38 43  0  0  0  0  0  0  0  0999 V2000
  127.4350  135.0820   61.0680 C   0  0  0  0  0  0  0  0  0  0  0  0
  126.5000  134.0550   61.6790 C   0  0  0  0  0  0  0  0  0  0  0  0
  126.7460  133.5690   62.9630 C   0  0  0  0  0  0  0  0  0  0  0  0
  125.8840  132.6330   63.5300 C   0  0  0  0  0  0  0  0  0  0  0  0
  124.7770  132.1670   62.8120 C   0  0  0  0  0  0  0  0  0  0  0  0
  123.8410  131.1660   63.4530 C   0  0  0  0  0  0  0  0  0  0  0  0
  122.7450  130.9850   62.9180 O   0  0  0  0  0  0  0  0  0  0  0  0
  124.2420  130.4990   64.5750 N   0  0  0  0  0  0  0  0  0  0  0  0
  123.2850  130.1050   65.6220 C   0  0  0  0  0  0  0  0  0  0  0  0
  124.0630  129.2620   66.6180 C   0  0  0  0  0  0  0  0  0  0  0  0
  125.3150  128.9260   65.8660 C   0  0  0  0  0  0  0  0  0  0  0  0
  126.3730  128.1000   66.2440 C   0  0  0  0  0  0  0  0  0  0  0  0
  127.5400  128.0370   65.4730 C   0  0  0  0  0  0  0  0  0  0  0  0
  128.6770  127.1400   65.8760 C   0  0  0  0  0  0  0  0  0  0  0  0
  129.5530  126.7810   64.9500 N   0  0  0  0  0  0  0  0  0  0  0  0
  130.5090  126.0180   65.4150 C   0  0  0  0  0  0  0  0  0  0  0  0
  131.5800  125.4730   64.7230 N   0  0  0  0  0  0  0  0  0  0  0  0
  132.8500  125.3270   65.1730 C   0  0  0  0  0  0  0  0  0  0  0  0
  133.2240  125.6510   66.3020 O   0  0  0  0  0  0  0  0  0  0  0  0
  133.8900  124.6900   64.2200 C   0  0  0  0  0  0  0  0  0  0  0  0
  133.2730  124.0190   63.0600 N   0  0  0  0  0  0  0  0  0  0  0  0
  134.2540  123.6860   62.0170 C   0  0  0  0  0  0  0  0  0  0  0  0
  133.5290  123.2360   60.7280 C   0  0  0  0  0  0  0  0  0  0  0  0
  132.4040  122.2350   60.9950 C   0  0  0  0  0  0  0  0  0  0  0  0
  131.8160  121.5160   59.9480 C   0  0  0  0  0  0  0  0  0  0  0  0
  130.7650  120.6330   60.1860 C   0  0  0  0  0  0  0  0  0  0  0  0
  130.2890  120.4570   61.4810 C   0  0  0  0  0  0  0  0  0  0  0  0
  130.8710  121.1600   62.5340 C   0  0  0  0  0  0  0  0  0  0  0  0
  131.9260  122.0510   62.3090 C   0  0  0  0  0  0  0  0  0  0  0  0
  132.6030  122.7790   63.4710 C   0  0  0  0  0  0  0  0  0  0  0  0
  130.3840  125.6640   67.0940 S   0  0  0  0  0  0  0  0  0  0  0  0
  128.9210  126.6180   67.1640 C   0  0  0  0  0  0  0  0  0  0  0  0
  128.1470  126.7400   68.4580 C   0  0  0  0  0  0  0  0  0  0  0  0
  127.6430  128.8660   64.3450 C   0  0  0  0  0  0  0  0  0  0  0  0
  126.5940  129.7080   63.9750 C   0  0  0  0  0  0  0  0  0  0  0  0
  125.3990  129.6970   64.7060 C   0  0  0  0  0  0  0  0  0  0  0  0
  124.5200  132.6810   61.5350 C   0  0  0  0  0  0  0  0  0  0  0  0
  125.3810  133.6180   60.9680 C   0  0  0  0  0  0  0  0  0  0  0  0
  1  2  1  0
  2  3  2  0
  3  4  1  0
  4  5  2  0
  5  6  1  0
  6  7  2  0
  6  8  1  0
  8  9  1  0
  9 10  1  0
 10 11  1  0
 11 12  2  0
 12 13  1  0
 13 14  1  0
 14 15  1  0
 15 16  2  0
 16 17  1  0
 17 18  1  0
 18 19  2  0
 18 20  1  0
 20 21  1  0
 21 22  1  0
 22 23  1  0
 23 24  1  0
 24 25  2  0
 25 26  1  0
 26 27  2  0
 27 28  1  0
 28 29  2  0
 29 30  1  0
 16 31  1  0
 31 32  1  0
 32 33  1  0
 13 34  2  0
 34 35  1  0
 35 36  2  0
  5 37  1  0
 37 38  2  0
 38  2  1  0
 36  8  1  0
 36 11  1  0
 32 14  2  0
 30 21  1  0
 29 24  1  0
M  END
>  <Binding energies>  (45) 
[-10.39]

>  <Ligand effiencies>  (45) 
[-0.26641025641025645]

>  <Interactions>  (45) 
["H-A:TYR:484:OH:4343, V-A:ARG:545:CZ:4921, H-A:GLY:454:N:4045, V-A:ASP:366:CG:3208, V-B:GLU:543:CG:9875, V-A:HIS:456:CE1:4064, V-B:HIS:456:CE1:9037, V-A:GLY:454:CA:4044, V-B:GLU:543:CD:9876, V-B:GLU:543:CB:9874, V-A:LEU:475:CD2:4254, V-B:TYR:539:CD2:9842, V-A:LEU:475:CD1:4253, V-B:TYR:539:CE2:9844, V-B:ALA:541:CB:9860, V-B:ARG:545:CZ:9894, V-B:ARG:545:CD:9891, V-B:ARG:545:CG:9890, V-A:TYR:539:CE2:4871, H-B:GLY:454:N:9017, V-A:ILE:369:CD1:3234, V-A:GLY:453:C:4037, V-A:GLY:453:CA:4039, V-B:GLU:543:C:9870, H-A:HIS:456:NE2:4065, H-A:ARG:545:NE:4919, V-B:ILE:369:CD1:8206, V-B:LEU:475:CD2:9226, V-A:TYR:539:CD2:4869, V-B:GLY:453:CA:9011, V-B:GLY:453:C:9009, V-B:GLY:454:CA:9016, V-B:LEU:475:CD1:9225, V-B:ARG:545:CB:9889"]

$$$$
RR21_Rahimova_2017
     RDKit          3D

 40 45  0  0  0  0  0  0  0  0999 V2000
  132.3780  124.5790   60.7250 C   0  0  0  0  0  0  0  0  0  0  0  0
  132.7000  123.8010   61.8740 O   0  0  0  0  0  0  0  0  0  0  0  0
  132.0840  124.0860   63.0780 C   0  0  0  0  0  0  0  0  0  0  0  0
  130.8120  123.6160   63.4450 C   0  0  0  0  0  0  0  0  0  0  0  0
  130.2610  123.9480   64.6820 C   0  0  0  0  0  0  0  0  0  0  0  0
  130.9670  124.7530   65.5840 C   0  0  0  0  0  0  0  0  0  0  0  0
  130.3760  125.1040   66.9150 C   0  0  0  0  0  0  0  0  0  0  0  0
  130.5030  124.2710   67.9300 N   0  0  0  0  0  0  0  0  0  0  0  0
  129.8860  124.8400   68.9760 N   0  0  0  0  0  0  0  0  0  0  0  0
  129.8510  124.2120   70.2480 C   0  0  0  0  0  0  0  0  0  0  0  0
  129.9220  122.8150   70.3600 C   0  0  0  0  0  0  0  0  0  0  0  0
  129.8920  122.2110   71.6140 C   0  0  0  0  0  0  0  0  0  0  0  0
  129.7900  122.9990   72.7580 C   0  0  0  0  0  0  0  0  0  0  0  0
  129.7170  124.3860   72.6600 C   0  0  0  0  0  0  0  0  0  0  0  0
  129.7460  124.9930   71.4080 C   0  0  0  0  0  0  0  0  0  0  0  0
  129.3750  126.0620   68.6170 C   0  0  0  0  0  0  0  0  0  0  0  0
  129.6600  126.2680   67.2750 C   0  0  0  0  0  0  0  0  0  0  0  0
  129.3600  127.4370   66.4620 C   0  0  0  0  0  0  0  0  0  0  0  0
  128.1480  127.9410   66.1330 C   0  0  0  0  0  0  0  0  0  0  0  0
  126.5470  127.3170   66.5880 S   0  0  0  0  0  0  0  0  0  0  0  0
  125.7970  128.6480   65.7190 C   0  0  0  0  0  0  0  0  0  0  0  0
  124.5320  128.9080   65.5990 N   0  0  0  0  0  0  0  0  0  0  0  0
  124.0550  130.0330   64.8720 C   0  0  0  0  0  0  0  0  0  0  0  0
  122.8770  130.3590   64.7300 O   0  0  0  0  0  0  0  0  0  0  0  0
  125.1450  130.8630   64.2520 C   0  0  0  0  0  0  0  0  0  0  0  0
  124.7490  132.0940   63.4260 C   0  0  0  0  0  0  0  0  0  0  0  0
  125.7280  132.4400   62.3050 C   0  0  0  0  0  0  0  0  0  0  0  0
  126.8450  133.2360   62.5730 C   0  0  0  0  0  0  0  0  0  0  0  0
  127.7450  133.5380   61.5550 C   0  0  0  0  0  0  0  0  0  0  0  0
  127.5330  133.0430   60.2670 C   0  0  0  0  0  0  0  0  0  0  0  0
  128.5240  133.3650   59.1630 C   0  0  0  0  0  0  0  0  0  0  0  0
  126.4230  132.2380   60.0000 C   0  0  0  0  0  0  0  0  0  0  0  0
  125.5230  131.9370   61.0170 C   0  0  0  0  0  0  0  0  0  0  0  0
  126.4030  130.5890   64.3750 N   0  0  0  0  0  0  0  0  0  0  0  0
  126.7340  129.4560   65.1290 N   0  0  0  0  0  0  0  0  0  0  0  0
  128.0390  129.1330   65.3040 C   0  0  0  0  0  0  0  0  0  0  0  0
  128.9910  129.7670   64.8330 O   0  0  0  0  0  0  0  0  0  0  0  0
  132.2310  125.2260   65.2170 C   0  0  0  0  0  0  0  0  0  0  0  0
  132.7830  124.8950   63.9790 C   0  0  0  0  0  0  0  0  0  0  0  0
  134.0090  125.3690   63.6550 F   0  0  0  0  0  0  0  0  0  0  0  0
  1  2  1  0
  2  3  1  0
  3  4  2  0
  4  5  1  0
  5  6  2  0
  6  7  1  0
  7  8  2  0
  8  9  1  0
  9 10  1  0
 10 11  2  0
 11 12  1  0
 12 13  2  0
 13 14  1  0
 14 15  2  0
  9 16  1  0
 16 17  2  0
 17 18  1  0
 18 19  2  0
 19 20  1  0
 20 21  1  0
 21 22  2  0
 22 23  1  0
 23 24  2  0
 23 25  1  0
 25 26  1  0
 26 27  1  0
 27 28  2  0
 28 29  1  0
 29 30  2  0
 30 31  1  0
 30 32  1  0
 32 33  2  0
 25 34  2  0
 34 35  1  0
 35 36  1  0
 36 37  2  0
  6 38  1  0
 38 39  2  0
 39 40  1  0
 39  3  1  0
 17  7  1  0
 36 19  1  0
 15 10  1  0
 35 21  1  0
 33 27  1  0
M  END
>  <Binding energies>  (46) 
[-9.08]

>  <Ligand effiencies>  (46) 
[-0.227]

>  <Interactions>  (46) 
["H-A:TYR:484:OH:4343, V-A:ARG:545:CZ:4921, V-A:PRO:540:CA:4878, V-A:ASP:366:CG:3208, V-A:GLU:543:CD:4903, V-B:GLU:543:CG:9875, V-A:HIS:456:CE1:4064, V-B:HIS:456:CE1:9037, V-B:GLU:543:CD:9876, V-B:GLU:543:CB:9874, V-A:TYR:484:CE1:4340, V-A:TYR:484:CZ:4342, V-B:ARG:545:CZ:9894, H-B:TYR:484:OH:9315, V-A:TYR:539:CZ:4872, V-B:ARG:545:CG:9890, V-A:TYR:539:CE2:4871, H-B:GLY:454:N:9017, V-A:PRO:540:N:4879, V-A:HIS:456:CD2:4063, V-A:GLY:453:CA:4039, V-B:GLU:543:C:9870, V-B:GLU:543:CA:9872, V-A:TYR:484:CD1:4338, V-A:TYR:484:CD2:4339, V-A:TYR:484:CB:4336, H-A:HIS:456:NE2:4065, V-B:LYS:547:CE:9918, V-A:TYR:484:CG:4337, H-B:ARG:545:NH2:9896, H-B:ARG:545:NE:9892, V-B:LEU:475:CD2:9226, V-A:TYR:539:CD2:4869, H-B:ARG:545:NH1:9895, V-A:TYR:539:CG:4867, V-A:TYR:539:C:4862"]

$$$$
RR23_Rahimova_2017
     RDKit          3D

 39 44  0  0  0  0  0  0  0  0999 V2000
  124.4970  134.8800   60.8190 C   0  0  0  0  0  0  0  0  0  0  0  0
  125.7950  134.1150   61.0020 C   0  0  0  0  0  0  0  0  0  0  0  0
  126.9890  134.8060   61.2090 C   0  0  0  0  0  0  0  0  0  0  0  0
  128.1780  134.1020   61.3860 C   0  0  0  0  0  0  0  0  0  0  0  0
  128.1830  132.7030   61.3450 C   0  0  0  0  0  0  0  0  0  0  0  0
  129.4820  131.9580   61.5600 C   0  0  0  0  0  0  0  0  0  0  0  0
  130.5200  132.6210   61.6050 O   0  0  0  0  0  0  0  0  0  0  0  0
  129.4580  130.6000   61.7100 N   0  0  0  0  0  0  0  0  0  0  0  0
  130.1520  129.7090   60.7670 C   0  0  0  0  0  0  0  0  0  0  0  0
  130.0270  128.3040   61.3340 C   0  0  0  0  0  0  0  0  0  0  0  0
  129.5970  128.5530   62.7480 C   0  0  0  0  0  0  0  0  0  0  0  0
  129.4070  127.6370   63.7830 C   0  0  0  0  0  0  0  0  0  0  0  0
  128.8440  128.0490   65.0010 C   0  0  0  0  0  0  0  0  0  0  0  0
  128.6180  127.0730   66.1660 C   0  0  2  0  0  0  0  0  0  0  0  0
  128.6980  127.7310   67.4520 N   0  0  0  0  0  0  0  0  0  0  0  0
  129.1580  126.9580   68.3520 C   0  0  0  0  0  0  0  0  0  0  0  0
  129.3940  127.2420   69.6610 N   0  0  0  0  0  0  0  0  0  0  0  0
  129.3300  128.4420   70.2870 C   0  0  0  0  0  0  0  0  0  0  0  0
  128.9970  129.5070   69.7620 O   0  0  0  0  0  0  0  0  0  0  0  0
  129.7190  128.4350   71.7750 C   0  0  0  0  0  0  0  0  0  0  0  0
  129.7750  127.0360   72.2540 N   0  0  0  0  0  0  0  0  0  0  0  0
  128.7040  126.2340   71.8800 N   0  0  0  0  0  0  0  0  0  0  0  0
  128.6330  124.9910   72.2360 N   0  0  0  0  0  0  0  0  0  0  0  0
  129.6510  124.4320   73.0130 C   0  0  0  0  0  0  0  0  0  0  0  0
  129.5430  123.0890   73.3810 C   0  0  0  0  0  0  0  0  0  0  0  0
  130.5430  122.5020   74.1580 C   0  0  0  0  0  0  0  0  0  0  0  0
  131.6480  123.2540   74.5650 C   0  0  0  0  0  0  0  0  0  0  0  0
  131.7570  124.5960   74.1980 C   0  0  0  0  0  0  0  0  0  0  0  0
  130.7550  125.1840   73.4180 C   0  0  0  0  0  0  0  0  0  0  0  0
  130.8520  126.6370   73.0140 C   0  0  0  0  0  0  0  0  0  0  0  0
  131.7850  127.3780   73.3380 O   0  0  0  0  0  0  0  0  0  0  0  0
  129.5680  125.2910   67.8560 S   0  0  0  0  0  0  0  0  0  0  0  0
  129.5290  125.8240   66.1360 C   0  0  2  0  0  0  0  0  0  0  0  0
  130.9760  126.0340   65.6420 C   0  0  0  0  0  0  0  0  0  0  0  0
  128.4310  129.3790   65.1380 C   0  0  0  0  0  0  0  0  0  0  0  0
  128.6010  130.2910   64.0960 C   0  0  0  0  0  0  0  0  0  0  0  0
  129.2380  129.8920   62.9130 C   0  0  0  0  0  0  0  0  0  0  0  0
  126.9760  132.0160   61.1650 C   0  0  0  0  0  0  0  0  0  0  0  0
  125.7880  132.7190   60.9890 C   0  0  0  0  0  0  0  0  0  0  0  0
  1  2  1  0
  2  3  2  0
  3  4  1  0
  4  5  2  0
  5  6  1  0
  6  7  2  0
  6  8  1  0
  8  9  1  0
  9 10  1  0
 10 11  1  0
 11 12  2  0
 12 13  1  0
 14 13  1  6
 14 15  1  0
 15 16  2  0
 16 17  1  0
 17 18  1  0
 18 19  2  0
 18 20  1  0
 20 21  1  0
 21 22  1  0
 22 23  2  0
 23 24  1  0
 24 25  2  0
 25 26  1  0
 26 27  2  0
 27 28  1  0
 28 29  2  0
 29 30  1  0
 30 31  2  0
 16 32  1  0
 32 33  1  0
 33 34  1  1
 13 35  2  0
 35 36  1  0
 36 37  2  0
  5 38  1  0
 38 39  2  0
 39  2  1  0
 37  8  1  0
 37 11  1  0
 33 14  1  0
 30 21  1  0
 29 24  1  0
M  END
>  <Binding energies>  (47) 
[-9.61]

>  <Ligand effiencies>  (47) 
[-0.24025]

>  <Interactions>  (47) 
["V-A:PRO:540:CA:4878, V-A:GLU:543:CD:4903, V-A:GLU:543:CG:4902, V-B:GLU:543:CG:9875, V-A:HIS:456:CE1:4064, V-B:GLU:543:CD:9876, V-B:GLU:543:CB:9874, H-A:ALA:541:N:4886, V-A:ALA:541:CB:4887, V-A:TYR:539:CE2:4871, H-B:GLU:543:O:9871, H-A:HIS:456:ND1:4062, H-B:LYS:547:NZ:9919, H-A:LYS:547:NZ:4946, V-A:HIS:456:CG:4061, H-A:HIS:456:NE2:4065, V-B:LYS:547:CE:9918, V-A:LYS:547:CE:4945, V-B:ILE:369:CD1:8206, V-B:ILE:369:CG2:8204, V-B:LEU:475:CD2:9226, V-A:TYR:539:CD2:4869, V-A:ASP:473:CG:4235, V-B:TRP:381:CH2:8339, V-A:HIS:456:CB:4060"]

$$$$
RR26_Rahimova_2017
     RDKit          3D

 38 44  0  0  0  0  0  0  0  0999 V2000
  125.0960  132.3220   61.5850 C   0  0  0  0  0  0  0  0  0  0  0  0
  126.1250  133.4440   61.6370 C   0  0  0  0  0  0  0  0  0  0  0  0
  125.8160  134.6550   61.0080 C   0  0  0  0  0  0  0  0  0  0  0  0
  126.7020  135.7290   61.0580 C   0  0  0  0  0  0  0  0  0  0  0  0
  127.9050  135.6040   61.7450 C   0  0  0  0  0  0  0  0  0  0  0  0
  128.2240  134.4040   62.3770 C   0  0  0  0  0  0  0  0  0  0  0  0
  127.3480  133.3080   62.3300 C   0  0  0  0  0  0  0  0  0  0  0  0
  127.7750  132.0470   63.0240 C   0  0  0  0  0  0  0  0  0  0  0  0
  128.1030  130.9440   62.3560 N   0  0  0  0  0  0  0  0  0  0  0  0
  128.4120  130.1240   63.3240 C   0  0  0  0  0  0  0  0  0  0  0  0
  128.9410  128.4860   63.4360 S   0  0  0  0  0  0  0  0  0  0  0  0
  128.9830  128.6470   65.2320 C   0  0  0  0  0  0  0  0  0  0  0  0
  129.3240  127.7050   66.1400 C   0  0  0  0  0  0  0  0  0  0  0  0
  129.7460  126.3360   65.8950 C   0  0  0  0  0  0  0  0  0  0  0  0
  130.0990  125.7510   64.6880 C   0  0  0  0  0  0  0  0  0  0  0  0
  130.4690  124.4540   64.9400 N   0  0  0  0  0  0  0  0  0  0  0  0
  130.9120  123.4720   64.0160 C   0  0  0  0  0  0  0  0  0  0  0  0
  130.0280  122.5040   63.5180 C   0  0  0  0  0  0  0  0  0  0  0  0
  130.4760  121.5450   62.6140 C   0  0  0  0  0  0  0  0  0  0  0  0
  131.8070  121.5510   62.2040 C   0  0  0  0  0  0  0  0  0  0  0  0
  132.6950  122.5090   62.6890 C   0  0  0  0  0  0  0  0  0  0  0  0
  132.2500  123.4680   63.5940 C   0  0  0  0  0  0  0  0  0  0  0  0
  130.3940  124.1960   66.2550 N   0  0  0  0  0  0  0  0  0  0  0  0
  129.9620  125.3000   66.8320 C   0  0  0  0  0  0  0  0  0  0  0  0
  129.7610  125.3360   68.3150 C   0  0  0  0  0  0  0  0  0  0  0  0
  129.2790  126.4970   68.9380 C   0  0  0  0  0  0  0  0  0  0  0  0
  129.0910  126.5430   70.3210 C   0  0  0  0  0  0  0  0  0  0  0  0
  129.3860  125.4220   71.0940 C   0  0  0  0  0  0  0  0  0  0  0  0
  129.8510  124.2480   70.4810 C   0  0  0  0  0  0  0  0  0  0  0  0
  130.0440  124.2080   69.1010 C   0  0  0  0  0  0  0  0  0  0  0  0
  130.1980  123.1290   71.2110 O   0  0  0  0  0  0  0  0  0  0  0  0
  129.6460  123.0970   72.5310 C   0  0  0  0  0  0  0  0  0  0  0  0
  129.7970  124.4770   73.2170 C   0  0  0  0  0  0  0  0  0  0  0  0
  129.1410  125.4930   72.4500 O   0  0  0  0  0  0  0  0  0  0  0  0
  128.5750  129.9750   65.6800 C   0  0  0  0  0  0  0  0  0  0  0  0
  128.4880  130.4160   66.8270 O   0  0  0  0  0  0  0  0  0  0  0  0
  128.2810  130.7160   64.5250 N   0  0  0  0  0  0  0  0  0  0  0  0
  127.8700  131.9740   64.3420 N   0  0  0  0  0  0  0  0  0  0  0  0
  1  2  1  0
  2  3  2  0
  3  4  1  0
  4  5  2  0
  5  6  1  0
  6  7  2  0
  7  8  1  0
  8  9  1  0
  9 10  2  0
 10 11  1  0
 11 12  1  0
 12 13  2  0
 13 14  1  0
 14 15  2  0
 15 16  1  0
 16 17  1  0
 17 18  2  0
 18 19  1  0
 19 20  2  0
 20 21  1  0
 21 22  2  0
 16 23  1  0
 23 24  2  0
 24 25  1  0
 25 26  2  0
 26 27  1  0
 27 28  2  0
 28 29  1  0
 29 30  2  0
 29 31  1  0
 31 32  1  0
 32 33  1  0
 33 34  1  0
 12 35  1  0
 35 36  2  0
 35 37  1  0
 37 38  1  0
  7  2  1  0
 38  8  2  0
 37 10  1  0
 24 14  1  0
 30 25  1  0
 22 17  1  0
 34 28  1  0
M  END
>  <Binding energies>  (48) 
[-9.19]

>  <Ligand effiencies>  (48) 
[-0.24184210526315789]

>  <Interactions>  (48) 
["H-A:TYR:484:OH:4343, V-A:GLU:543:CD:4903, V-A:GLU:543:CG:4902, V-A:GLU:543:CB:4901, V-B:GLU:543:CG:9875, V-A:HIS:456:CE1:4064, V-B:GLU:543:CD:9876, V-B:GLU:543:CB:9874, V-A:LEU:475:CD2:4254, V-A:TYR:484:CE1:4340, V-A:TYR:484:CZ:4342, V-B:ALA:541:CB:9860, H-B:TYR:484:OH:9315, V-A:ALA:541:CB:4887, V-A:ALA:541:CA:4885, V-A:TYR:539:CE2:4871, V-A:HIS:456:CD2:4063, V-B:GLU:543:C:9870, V-B:GLU:543:CA:9872, H-B:LYS:547:NZ:9919, V-B:LYS:547:CE:9918, V-B:LEU:475:CD2:9226, V-A:TYR:539:CD2:4869, V-B:TRP:381:CH2:8339, V-B:TRP:381:CZ2:8337, V-B:LEU:475:CD1:9225, V-B:PRO:482:CB:9293, V-B:TRP:381:CZ3:8338"]

$$$$
RR2_Rahimova_2017
     RDKit          3D

 46 50  0  0  0  0  0  0  0  0999 V2000
  130.8880  117.9130   76.3220 C   0  0  0  0  0  0  0  0  0  0  0  0
  130.9970  119.3000   76.6250 O   0  0  0  0  0  0  0  0  0  0  0  0
  130.7670  120.2280   75.6270 C   0  0  0  0  0  0  0  0  0  0  0  0
  130.5050  121.5860   75.8540 C   0  0  0  0  0  0  0  0  0  0  0  0
  130.2810  122.4480   74.7840 C   0  0  0  0  0  0  0  0  0  0  0  0
  130.3120  121.9750   73.4650 C   0  0  0  0  0  0  0  0  0  0  0  0
  130.0590  122.9330   72.3170 C   0  0  0  0  0  0  0  0  0  0  0  0
  130.3970  122.6300   71.1680 O   0  0  0  0  0  0  0  0  0  0  0  0
  129.4690  124.1050   72.6470 N   0  0  0  0  0  0  0  0  0  0  0  0
  129.2980  125.0580   71.6480 N   0  0  0  0  0  0  0  0  0  0  0  0
  129.5050  126.3530   71.9600 C   0  0  0  0  0  0  0  0  0  0  0  0
  129.6600  126.7870   73.1050 O   0  0  0  0  0  0  0  0  0  0  0  0
  129.5650  127.3190   70.7680 C   0  0  0  0  0  0  0  0  0  0  0  0
  128.2590  127.0770   69.5090 S   0  0  0  0  0  0  0  0  0  0  0  0
  129.1360  126.1190   68.3100 C   0  0  0  0  0  0  0  0  0  0  0  0
  129.7310  124.9890   68.5970 N   0  0  0  0  0  0  0  0  0  0  0  0
  130.3750  124.5530   67.4470 N   0  0  0  0  0  0  0  0  0  0  0  0
  130.1200  125.4230   66.4990 C   0  0  0  0  0  0  0  0  0  0  0  0
  130.6310  125.2880   65.1010 C   0  0  0  0  0  0  0  0  0  0  0  0
  130.4990  124.0700   64.4280 C   0  0  0  0  0  0  0  0  0  0  0  0
  130.9780  123.9320   63.1290 C   0  0  0  0  0  0  0  0  0  0  0  0
  131.5790  125.0180   62.4830 C   0  0  0  0  0  0  0  0  0  0  0  0
  132.0890  124.9330   61.1790 N   0  0  0  0  0  0  0  0  0  0  0  0
  133.1740  123.6500   60.5970 S   0  0  0  0  0  0  0  0  0  0  0  0
  134.1970  123.4850   61.6350 O   0  0  0  0  0  0  0  0  0  0  0  0
  133.5490  123.9640   59.2130 O   0  0  0  0  0  0  0  0  0  0  0  0
  132.1820  122.1590   60.6080 C   0  0  0  0  0  0  0  0  0  0  0  0
  132.7890  120.9010   60.6510 C   0  0  0  0  0  0  0  0  0  0  0  0
  132.0010  119.7540   60.6430 C   0  0  0  0  0  0  0  0  0  0  0  0
  130.6100  119.8630   60.5970 C   0  0  0  0  0  0  0  0  0  0  0  0
  129.7530  118.6100   60.5740 C   0  0  0  0  0  0  0  0  0  0  0  0
  130.0060  121.1210   60.5500 C   0  0  0  0  0  0  0  0  0  0  0  0
  130.7920  122.2690   60.5570 C   0  0  0  0  0  0  0  0  0  0  0  0
  131.7070  126.2340   63.1540 C   0  0  0  0  0  0  0  0  0  0  0  0
  131.2340  126.3710   64.4560 C   0  0  0  0  0  0  0  0  0  0  0  0
  129.3350  126.4560   66.9840 N   0  0  0  0  0  0  0  0  0  0  0  0
  128.8790  127.6040   66.3040 C   0  0  0  0  0  0  0  0  0  0  0  0
  129.0730  128.8680   66.8640 C   0  0  0  0  0  0  0  0  0  0  0  0
  128.6260  129.9980   66.1850 C   0  0  0  0  0  0  0  0  0  0  0  0
  127.9840  129.8780   64.9520 C   0  0  0  0  0  0  0  0  0  0  0  0
  127.5740  131.0560   64.3560 O   0  0  0  0  0  0  0  0  0  0  0  0
  126.3520  131.0770   63.6260 C   0  0  0  0  0  0  0  0  0  0  0  0
  127.7920  128.6030   64.3960 C   0  0  0  0  0  0  0  0  0  0  0  0
  128.2400  127.4700   65.0690 C   0  0  0  0  0  0  0  0  0  0  0  0
  130.5820  120.6150   73.2450 C   0  0  0  0  0  0  0  0  0  0  0  0
  130.8060  119.7550   74.3170 C   0  0  0  0  0  0  0  0  0  0  0  0
  1  2  1  0
  2  3  1  0
  3  4  2  0
  4  5  1  0
  5  6  2  0
  6  7  1  0
  7  8  2  0
  7  9  1  0
  9 10  1  0
 10 11  1  0
 11 12  2  0
 11 13  1  0
 13 14  1  0
 14 15  1  0
 15 16  2  0
 16 17  1  0
 17 18  2  0
 18 19  1  0
 19 20  2  0
 20 21  1  0
 21 22  2  0
 22 23  1  0
 23 24  1  0
 24 25  2  0
 24 26  2  0
 24 27  1  0
 27 28  2  0
 28 29  1  0
 29 30  2  0
 30 31  1  0
 30 32  1  0
 32 33  2  0
 22 34  1  0
 34 35  2  0
 18 36  1  0
 36 37  1  0
 37 38  2  0
 38 39  1  0
 39 40  2  0
 40 41  1  0
 41 42  1  0
 40 43  1  0
 43 44  2  0
  6 45  1  0
 45 46  2  0
 46  3  1  0
 36 15  1  0
 44 37  1  0
 35 19  1  0
 33 27  1  0
M  END
>  <Binding energies>  (49) 
[-9.88]

>  <Ligand effiencies>  (49) 
[-0.2016326530612245]

>  <Interactions>  (49) 
["H-A:ASP:366:OD2:3210, H-A:TYR:484:OH:4343, V-A:ASP:366:CG:3208, V-A:GLU:543:CD:4903, V-A:GLU:543:CG:4902, V-A:GLU:543:CB:4901, V-B:GLU:543:CG:9875, V-A:HIS:456:CE1:4064, V-B:GLU:543:CD:9876, V-B:GLU:543:CB:9874, V-A:PRO:482:CB:4321, V-A:LEU:475:CD2:4254, V-B:TYR:539:CD2:9842, V-A:TRP:381:CZ2:3365, V-A:PRO:482:CG:4322, V-A:TRP:381:CH2:3367, V-B:ALA:541:CB:9860, H-B:TYR:484:OH:9315, V-A:ILE:369:CD1:3234, V-B:GLU:543:C:9870, H-B:GLU:543:O:9871, H-B:LYS:547:NZ:9919, V-A:TYR:484:CB:4336, H-A:HIS:456:NE2:4065, V-B:LYS:547:CE:9918, V-A:ILE:369:CG2:3232, V-B:TYR:539:C:9835, V-A:ASP:473:CG:4235, V-A:ASP:473:CB:4234, H-A:LYS:471:NZ:4216, V-A:PRO:486:CD:4361, V-A:PRO:486:CG:4360"]

$$$$
RR33_Rahimova_2017
     RDKit          3D

 18 19  0  0  0  0  0  0  0  0999 V2000
  126.5060  129.7740   74.6220 C   0  0  0  0  0  0  0  0  0  0  0  0
  127.9290  130.1660   74.2130 C   0  0  0  0  0  0  0  0  0  0  0  0
  128.6610  128.9820   73.9120 O   0  0  0  0  0  0  0  0  0  0  0  0
  128.9170  128.6590   72.5940 C   0  0  0  0  0  0  0  0  0  0  0  0
  127.8590  128.1050   71.8730 C   0  0  0  0  0  0  0  0  0  0  0  0
  128.0230  127.7440   70.5390 C   0  0  0  0  0  0  0  0  0  0  0  0
  129.2530  127.9340   69.9020 C   0  0  0  0  0  0  0  0  0  0  0  0
  129.4280  127.5460   68.4690 C   0  0  0  0  0  0  0  0  0  0  0  0
  130.1820  126.5850   67.9840 N   0  0  0  0  0  0  0  0  0  0  0  0
  130.0060  126.6300   66.6730 C   0  0  0  0  0  0  0  0  0  0  0  0
  130.7120  125.6510   65.7590 C   0  0  0  0  0  0  0  0  0  0  0  0
  132.0170  125.2960   66.2980 N   0  0  0  0  0  0  0  0  0  0  0  0
  133.0520  125.4710   65.2920 C   0  0  0  0  0  0  0  0  0  0  0  0
  129.1190  127.6510   66.3560 C   0  0  0  0  0  0  0  0  0  0  0  0
  128.5210  128.1970   65.0820 C   0  0  0  0  0  0  0  0  0  0  0  0
  128.7500  128.2390   67.5170 O   0  0  0  0  0  0  0  0  0  0  0  0
  130.3150  128.4940   70.6190 C   0  0  0  0  0  0  0  0  0  0  0  0
  130.1520  128.8540   71.9550 C   0  0  0  0  0  0  0  0  0  0  0  0
  1  2  1  0
  2  3  1  0
  3  4  1  0
  4  5  2  0
  5  6  1  0
  6  7  2  0
  7  8  1  0
  8  9  2  0
  9 10  1  0
 10 11  1  0
 11 12  1  0
 12 13  1  0
 10 14  2  0
 14 15  1  0
 14 16  1  0
  7 17  1  0
 17 18  2  0
 18  4  1  0
 16  8  1  0
M  END
>  <Binding energies>  (50) 
[-5.31]

>  <Ligand effiencies>  (50) 
[-0.2794736842105263]

>  <Interactions>  (50) 
["H-A:TYR:484:OH:4343, V-A:ARG:545:CZ:4921, V-A:GLU:543:CD:4903, V-A:HIS:456:CE1:4064, V-B:HIS:456:CE1:9037, H-B:LYS:547:NZ:9919, V-B:HIS:456:CD2:9035, H-A:LYS:547:NZ:4946, H-A:HIS:456:NE2:4065, V-B:HIS:456:CB:9032"]

$$$$
RR3_Rahimova_2017
     RDKit          3D

 38 44  0  0  0  0  0  0  0  0999 V2000
  128.9050  135.5590   74.5140 C   0  0  0  0  0  0  0  0  0  0  0  0
  129.6330  135.2400   73.3730 C   0  0  0  0  0  0  0  0  0  0  0  0
  129.7330  133.9130   72.9660 C   0  0  0  0  0  0  0  0  0  0  0  0
  129.1070  132.8890   73.6930 C   0  0  0  0  0  0  0  0  0  0  0  0
  129.2140  131.4610   73.2540 C   0  0  0  0  0  0  0  0  0  0  0  0
  130.3900  130.9750   72.6680 C   0  0  0  0  0  0  0  0  0  0  0  0
  130.4880  129.6480   72.2560 C   0  0  0  0  0  0  0  0  0  0  0  0
  129.4060  128.7780   72.4150 C   0  0  0  0  0  0  0  0  0  0  0  0
  129.5030  127.3530   71.9710 C   0  0  0  0  0  0  0  0  0  0  0  0
  129.9940  126.4320   72.7930 N   0  0  0  0  0  0  0  0  0  0  0  0
  129.9170  125.2850   72.1610 C   0  0  0  0  0  0  0  0  0  0  0  0
  130.3480  123.9980   72.6980 C   0  0  0  0  0  0  0  0  0  0  0  0
  131.4680  123.7820   73.4840 C   0  0  0  0  0  0  0  0  0  0  0  0
  131.5640  122.4550   73.8160 N   0  0  0  0  0  0  0  0  0  0  0  0
  130.5160  121.7560   73.2590 C   0  0  0  0  0  0  0  0  0  0  0  0
  130.1920  120.3960   73.3170 C   0  0  0  0  0  0  0  0  0  0  0  0
  129.0460  119.9880   72.6360 C   0  0  0  0  0  0  0  0  0  0  0  0
  128.2560  120.8860   71.9260 C   0  0  0  0  0  0  0  0  0  0  0  0
  128.5770  122.2410   71.8680 C   0  0  0  0  0  0  0  0  0  0  0  0
  129.7240  122.7050   72.5390 C   0  0  0  0  0  0  0  0  0  0  0  0
  129.3790  125.4500   70.9140 N   0  0  0  0  0  0  0  0  0  0  0  0
  129.1180  126.7850   70.7440 C   0  0  0  0  0  0  0  0  0  0  0  0
  128.5780  127.3500   69.4710 C   0  0  0  0  0  0  0  0  0  0  0  0
  129.2550  128.3810   68.8200 C   0  0  0  0  0  0  0  0  0  0  0  0
  128.7490  128.9180   67.6410 C   0  0  0  0  0  0  0  0  0  0  0  0
  127.5560  128.4360   67.0830 C   0  0  0  0  0  0  0  0  0  0  0  0
  127.0030  129.0290   65.8260 C   0  0  0  0  0  0  0  0  0  0  0  0
  125.6460  128.8860   65.4980 C   0  0  0  0  0  0  0  0  0  0  0  0
  125.1310  129.4420   64.3290 C   0  0  0  0  0  0  0  0  0  0  0  0
  125.9700  130.1510   63.4750 C   0  0  0  0  0  0  0  0  0  0  0  0
  127.3180  130.3070   63.7810 C   0  0  0  0  0  0  0  0  0  0  0  0
  127.8300  129.7480   64.9490 C   0  0  0  0  0  0  0  0  0  0  0  0
  126.8940  127.3880   67.7380 C   0  0  0  0  0  0  0  0  0  0  0  0
  127.3980  126.8480   68.9180 C   0  0  0  0  0  0  0  0  0  0  0  0
  128.2350  129.2500   73.0100 C   0  0  0  0  0  0  0  0  0  0  0  0
  128.1400  130.5780   73.4200 C   0  0  0  0  0  0  0  0  0  0  0  0
  128.3790  133.2330   74.8410 C   0  0  0  0  0  0  0  0  0  0  0  0
  128.2760  134.5600   75.2500 C   0  0  0  0  0  0  0  0  0  0  0  0
  1  2  2  0
  2  3  1  0
  3  4  2  0
  4  5  1  0
  5  6  2  0
  6  7  1  0
  7  8  2  0
  8  9  1  0
  9 10  1  0
 10 11  2  0
 11 12  1  0
 12 13  2  0
 13 14  1  0
 14 15  1  0
 15 16  2  0
 16 17  1  0
 17 18  2  0
 18 19  1  0
 19 20  2  0
 11 21  1  0
 21 22  1  0
 22 23  1  0
 23 24  2  0
 24 25  1  0
 25 26  2  0
 26 27  1  0
 27 28  2  0
 28 29  1  0
 29 30  2  0
 30 31  1  0
 31 32  2  0
 26 33  1  0
 33 34  2  0
  8 35  1  0
 35 36  2  0
  4 37  1  0
 37 38  2  0
 38  1  1  0
 36  5  1  0
 22  9  2  0
 34 23  1  0
 20 12  1  0
 32 27  1  0
 20 15  1  0
M  END
>  <Binding energies>  (51) 
[-10.06]

>  <Ligand effiencies>  (51) 
[-0.2515]

>  <Interactions>  (51) 
["V-A:GLY:544:C:4907, V-A:GLU:543:CB:4901, V-A:HIS:456:CE1:4064, V-A:GLY:544:CA:4909, V-B:HIS:456:CE1:9037, V-A:GLU:543:C:4897, V-B:GLU:543:CB:9874, V-B:ARG:545:CZ:9894, V-B:ARG:545:CG:9890, V-B:GLU:543:C:9870, H-B:GLU:543:O:9871, H-B:LYS:547:NZ:9919, V-B:HIS:456:CD2:9035, V-B:GLY:544:CA:9882, V-A:HIS:456:CG:4061, V-A:TYR:484:CB:4336, V-B:ASP:473:CG:9207, V-B:TYR:484:CB:9308, V-B:ASP:473:CB:9206, V-A:LYS:547:CE:4945, V-A:ASP:473:CG:4235, V-A:ASP:473:CB:4234, V-A:HIS:456:CB:4060, H-A:ASP:473:OD1:4236, H-A:ASP:473:OD2:4237, V-B:TYR:484:C:9304"]

$$$$
RR4_Rahimova_2017
     RDKit          3D

 40 44  0  0  0  0  0  0  0  0999 V2000
  127.9630  129.8190   74.6050 C   0  0  0  0  0  0  0  0  0  0  0  0
  128.9530  128.9150   74.1270 O   0  0  0  0  0  0  0  0  0  0  0  0
  129.0700  128.7000   72.7670 C   0  0  0  0  0  0  0  0  0  0  0  0
  127.9450  128.2020   72.1140 C   0  0  0  0  0  0  0  0  0  0  0  0
  127.9700  127.9560   70.7440 C   0  0  0  0  0  0  0  0  0  0  0  0
  129.1250  128.2000   69.9860 C   0  0  0  0  0  0  0  0  0  0  0  0
  129.1490  127.9330   68.5080 C   0  0  0  0  0  0  0  0  0  0  0  0
  128.3940  128.6720   67.5920 C   0  0  0  0  0  0  0  0  0  0  0  0
  128.4540  128.3870   66.2220 C   0  0  0  0  0  0  0  0  0  0  0  0
  127.6420  129.2380   65.3010 C   0  0  0  0  0  0  0  0  0  0  0  0
  128.2400  130.2980   64.6140 C   0  0  0  0  0  0  0  0  0  0  0  0
  127.4930  131.0890   63.7450 C   0  0  0  0  0  0  0  0  0  0  0  0
  126.1380  130.8310   63.5400 C   0  0  0  0  0  0  0  0  0  0  0  0
  125.4780  131.6670   62.6600 O   0  0  0  0  0  0  0  0  0  0  0  0
  126.0080  132.9630   62.4030 C   0  0  0  0  0  0  0  0  0  0  0  0
  125.5340  129.7640   64.2230 C   0  0  0  0  0  0  0  0  0  0  0  0
  126.2840  128.9750   65.0920 C   0  0  0  0  0  0  0  0  0  0  0  0
  129.2730  127.3150   65.7910 C   0  0  0  0  0  0  0  0  0  0  0  0
  129.3740  126.9740   64.3690 C   0  0  0  0  0  0  0  0  0  0  0  0
  129.4520  126.7050   63.2460 N   0  0  0  0  0  0  0  0  0  0  0  0
  129.9860  126.5910   66.7740 C   0  0  0  0  0  0  0  0  0  0  0  0
  131.0510  125.2100   66.4170 S   0  0  0  0  0  0  0  0  0  0  0  0
  132.6570  125.8740   65.8640 C   0  0  0  0  0  0  0  0  0  0  0  0
  133.1730  125.2790   64.5470 C   0  0  0  0  0  0  0  0  0  0  0  0
  134.3210  124.8350   64.4670 O   0  0  0  0  0  0  0  0  0  0  0  0
  132.2840  125.3050   63.5270 N   0  0  0  0  0  0  0  0  0  0  0  0
  132.4490  124.8430   62.2180 C   0  0  0  0  0  0  0  0  0  0  0  0
  133.2490  123.3410   61.8370 S   0  0  0  0  0  0  0  0  0  0  0  0
  133.0090  123.5820   60.1340 C   0  0  0  0  0  0  0  0  0  0  0  0
  132.3370  124.7860   59.8720 C   0  0  0  0  0  0  0  0  0  0  0  0
  132.0070  125.4910   61.0550 C   0  0  0  0  0  0  0  0  0  0  0  0
  131.2890  126.7620   61.0600 C   0  0  0  0  0  0  0  0  0  0  0  0
  130.7210  127.7700   61.0630 N   0  0  0  0  0  0  0  0  0  0  0  0
  131.9720  125.2080   58.4440 C   0  0  0  0  0  0  0  0  0  0  0  0
  132.0710  124.0050   57.4780 C   0  0  0  0  0  0  0  0  0  0  0  0
  133.3650  123.1980   57.6870 C   0  0  0  0  0  0  0  0  0  0  0  0
  133.4270  122.5560   59.0890 C   0  0  0  0  0  0  0  0  0  0  0  0
  129.9350  126.9080   68.0890 N   0  0  0  0  0  0  0  0  0  0  0  0
  130.2520  128.7060   70.6530 C   0  0  0  0  0  0  0  0  0  0  0  0
  130.2300  128.9520   72.0220 C   0  0  0  0  0  0  0  0  0  0  0  0
  1  2  1  0
  2  3  1  0
  3  4  2  0
  4  5  1  0
  5  6  2  0
  6  7  1  0
  7  8  2  0
  8  9  1  0
  9 10  1  0
 10 11  2  0
 11 12  1  0
 12 13  2  0
 13 14  1  0
 14 15  1  0
 13 16  1  0
 16 17  2  0
  9 18  2  0
 18 19  1  0
 19 20  3  0
 18 21  1  0
 21 22  1  0
 22 23  1  0
 23 24  1  0
 24 25  2  0
 24 26  1  0
 26 27  1  0
 27 28  1  0
 28 29  1  0
 29 30  2  0
 30 31  1  0
 31 32  1  0
 32 33  3  0
 30 34  1  0
 34 35  1  0
 35 36  1  0
 36 37  1  0
 21 38  2  0
  6 39  1  0
 39 40  2  0
 40  3  1  0
 38  7  1  0
 17 10  1  0
 31 27  2  0
 37 29  1  0
M  END
>  <Binding energies>  (52) 
[-9.85]

>  <Ligand effiencies>  (52) 
[-0.24024390243902438]

>  <Interactions>  (52) 
["V-A:ARG:545:CD:4918, H-A:TYR:484:OH:4343, V-A:ARG:545:CZ:4921, V-A:ARG:545:CG:4917, H-A:GLY:454:N:4045, V-A:ASP:366:CG:3208, V-A:GLU:543:CD:4903, V-A:GLU:543:CG:4902, V-A:GLY:544:C:4907, V-A:HIS:456:CE1:4064, V-B:HIS:456:CE1:9037, H-A:GLU:543:OE1:4904, V-B:GLU:543:CD:9876, V-A:GLU:543:C:4897, V-B:TYR:539:CE2:9844, V-A:ASP:366:CB:3207, V-A:ILE:369:CD1:3234, H-B:LYS:547:NZ:9919, V-B:HIS:456:CD2:9035, H-A:LYS:547:NZ:4946, H-A:HIS:456:NE2:4065, V-A:LYS:547:CE:4945, V-B:LEU:475:CD2:9226, V-A:ILE:369:CG2:3232, H-A:ARG:545:NH1:4922, V-A:ILE:369:CB:3231, V-B:TYR:539:CZ:9845"]

$$$$
RR6_Rahimova_2017
     RDKit          3D

 38 41  0  0  0  0  0  0  0  0999 V2000
  125.1620  133.6170   61.1010 C   0  0  0  0  0  0  0  0  0  0  0  0
  125.9750  134.7190   60.7240 O   0  0  0  0  0  0  0  0  0  0  0  0
  127.1830  134.9280   61.3080 C   0  0  0  0  0  0  0  0  0  0  0  0
  127.5580  136.0310   61.7190 O   0  0  0  0  0  0  0  0  0  0  0  0
  128.0190  133.6840   61.4040 C   0  0  0  0  0  0  0  0  0  0  0  0
  128.6650  133.1340   60.2870 C   0  0  0  0  0  0  0  0  0  0  0  0
  129.4280  131.9750   60.4080 C   0  0  0  0  0  0  0  0  0  0  0  0
  129.5540  131.3420   61.6540 C   0  0  0  0  0  0  0  0  0  0  0  0
  130.2740  130.1540   61.8820 N   0  0  0  0  0  0  0  0  0  0  0  0
  129.8750  128.8710   61.7420 C   0  0  0  0  0  0  0  0  0  0  0  0
  128.7620  128.5070   61.3620 O   0  0  0  0  0  0  0  0  0  0  0  0
  130.9000  127.8110   62.1570 C   0  0  0  0  0  0  0  0  0  0  0  0
  130.1890  126.4500   63.1430 S   0  0  0  0  0  0  0  0  0  0  0  0
  129.1830  127.2020   64.4050 C   0  0  0  0  0  0  0  0  0  0  0  0
  128.1060  127.8740   63.9330 N   0  0  0  0  0  0  0  0  0  0  0  0
  127.2470  128.4660   64.8010 C   0  0  0  0  0  0  0  0  0  0  0  0
  126.0470  129.1370   64.2000 C   0  0  0  0  0  0  0  0  0  0  0  0
  125.9870  129.4130   62.8250 C   0  0  0  0  0  0  0  0  0  0  0  0
  124.8790  130.0480   62.2700 C   0  0  0  0  0  0  0  0  0  0  0  0
  123.8060  130.4140   63.0800 C   0  0  0  0  0  0  0  0  0  0  0  0
  122.6040  131.1140   62.4720 C   0  0  0  0  0  0  0  0  0  0  0  0
  123.8450  130.1470   64.4470 C   0  0  0  0  0  0  0  0  0  0  0  0
  124.9540  129.5120   64.9960 C   0  0  0  0  0  0  0  0  0  0  0  0
  127.4680  128.4010   66.1810 C   0  0  0  0  0  0  0  0  0  0  0  0
  128.5780  127.7150   66.6940 C   0  0  0  0  0  0  0  0  0  0  0  0
  128.7420  127.6690   68.1780 C   0  0  0  0  0  0  0  0  0  0  0  0
  127.7630  127.0690   68.9750 C   0  0  0  0  0  0  0  0  0  0  0  0
  127.9160  127.0080   70.3580 C   0  0  0  0  0  0  0  0  0  0  0  0
  129.0510  127.5390   70.9690 C   0  0  0  0  0  0  0  0  0  0  0  0
  129.1180  127.4310   72.3450 O   0  0  0  0  0  0  0  0  0  0  0  0
  130.3580  127.0850   72.9530 C   0  0  0  0  0  0  0  0  0  0  0  0
  130.0390  128.1380   70.1720 C   0  0  0  0  0  0  0  0  0  0  0  0
  129.8830  128.1970   68.7900 C   0  0  0  0  0  0  0  0  0  0  0  0
  129.4700  127.1000   65.7820 C   0  0  0  0  0  0  0  0  0  0  0  0
  130.6650  126.3910   66.2500 C   0  0  0  0  0  0  0  0  0  0  0  0
  131.6080  125.8310   66.6190 N   0  0  0  0  0  0  0  0  0  0  0  0
  128.9260  131.8960   62.7700 C   0  0  0  0  0  0  0  0  0  0  0  0
  128.1620  133.0530   62.6470 C   0  0  0  0  0  0  0  0  0  0  0  0
  1  2  1  0
  2  3  1  0
  3  4  2  0
  3  5  1  0
  5  6  2  0
  6  7  1  0
  7  8  2  0
  8  9  1  0
  9 10  1  0
 10 11  2  0
 10 12  1  0
 12 13  1  0
 13 14  1  0
 14 15  2  0
 15 16  1  0
 16 17  1  0
 17 18  2  0
 18 19  1  0
 19 20  2  0
 20 21  1  0
 20 22  1  0
 22 23  2  0
 16 24  2  0
 24 25  1  0
 25 26  1  0
 26 27  2  0
 27 28  1  0
 28 29  2  0
 29 30  1  0
 30 31  1  0
 29 32  1  0
 32 33  2  0
 25 34  2  0
 34 35  1  0
 35 36  3  0
  8 37  1  0
 37 38  2  0
 38  5  1  0
 34 14  1  0
 23 17  1  0
 33 26  1  0
M  END
>  <Binding energies>  (53) 
[-8.81]

>  <Ligand effiencies>  (53) 
[-0.2258974358974359]

>  <Interactions>  (53) 
["H-A:TYR:484:OH:4343, H-A:GLU:543:OE2:4905, V-A:PRO:540:CA:4878, V-A:GLU:543:CD:4903, V-A:GLU:543:CG:4902, V-A:GLU:543:CB:4901, V-A:HIS:456:CE1:4064, V-B:HIS:456:CE1:9037, H-A:GLU:543:OE1:4904, V-B:GLU:543:CD:9876, V-B:GLU:543:CB:9874, V-B:ARG:545:CZ:9894, V-A:ALA:541:CB:4887, V-A:TYR:539:CE2:4871, V-B:GLU:543:C:9870, H-B:LYS:547:NZ:9919, H-A:HIS:456:NE2:4065, V-A:LYS:547:CE:4945, V-B:ILE:369:CD1:8206, V-B:LEU:475:CD2:9226, V-A:TYR:539:CD2:4869, V-B:GLY:453:CA:9011, V-A:TYR:539:C:4862, V-B:GLY:453:C:9009"]

$$$$
RR7_Rahimova_2017
     RDKit          3D

 47 53  0  0  0  0  0  0  0  0999 V2000
  122.4630  129.9880   67.0280 C   0  0  0  0  0  0  0  0  0  0  0  0
  122.5970  130.0210   65.6100 O   0  0  0  0  0  0  0  0  0  0  0  0
  123.8420  129.8150   65.0480 C   0  0  0  0  0  0  0  0  0  0  0  0
  124.7750  129.1350   65.8290 C   0  0  0  0  0  0  0  0  0  0  0  0
  126.0530  128.8770   65.3450 C   0  0  0  0  0  0  0  0  0  0  0  0
  126.4350  129.3050   64.0650 C   0  0  0  0  0  0  0  0  0  0  0  0
  127.8510  129.0000   63.4840 C   0  0  0  0  0  0  0  0  0  0  0  0
  128.6730  128.6010   64.6040 O   0  0  0  0  0  0  0  0  0  0  0  0
  128.6260  127.2530   65.0840 C   0  0  0  0  0  0  0  0  0  0  0  0
  129.9310  126.9430   65.8340 C   0  0  1  0  0  0  0  0  0  0  0  0
  129.8540  127.6140   67.0900 O   0  0  0  0  0  0  0  0  0  0  0  0
  129.9600  126.7260   68.1650 C   0  0  1  0  0  0  0  0  0  0  0  0
  129.1600  127.1950   69.2800 N   0  0  0  0  0  0  0  0  0  0  0  0
  127.7880  127.1120   69.4390 C   0  0  0  0  0  0  0  0  0  0  0  0
  127.3160  127.6610   70.5310 N   0  0  0  0  0  0  0  0  0  0  0  0
  128.4230  128.1920   71.1350 C   0  0  0  0  0  0  0  0  0  0  0  0
  128.5880  128.9220   72.3280 C   0  0  0  0  0  0  0  0  0  0  0  0
  127.4530  129.1900   73.1180 N   0  0  0  0  0  0  0  0  0  0  0  0
  127.3900  129.6320   74.3960 C   0  0  0  0  0  0  0  0  0  0  0  0
  128.3750  129.8600   75.1020 O   0  0  0  0  0  0  0  0  0  0  0  0
  125.9960  129.8110   74.9590 C   0  0  0  0  0  0  0  0  0  0  0  0
  125.0280  128.8180   74.7440 C   0  0  0  0  0  0  0  0  0  0  0  0
  123.7420  128.9600   75.2570 C   0  0  0  0  0  0  0  0  0  0  0  0
  123.4140  130.0940   75.9930 C   0  0  0  0  0  0  0  0  0  0  0  0
  124.3610  131.0890   76.2210 C   0  0  0  0  0  0  0  0  0  0  0  0
  125.6480  130.9480   75.7070 C   0  0  0  0  0  0  0  0  0  0  0  0
  129.8370  129.3500   72.6820 N   0  0  0  0  0  0  0  0  0  0  0  0
  130.8700  129.0470   71.8530 C   0  0  0  0  0  0  0  0  0  0  0  0
  130.8240  128.3500   70.6860 N   0  0  0  0  0  0  0  0  0  0  0  0
  129.5900  127.9380   70.3690 C   0  0  0  0  0  0  0  0  0  0  0  0
  129.5510  125.3680   67.6050 C   0  0  0  0  0  0  0  0  0  0  0  0
  130.1320  125.4670   66.2050 C   0  0  2  0  0  0  0  0  0  0  0  0
  131.4950  125.0800   66.1660 O   0  0  0  0  0  0  0  0  0  0  0  0
  127.8360  127.8110   62.4860 C   0  0  0  0  0  0  0  0  0  0  0  0
  126.6250  127.3700   61.9280 C   0  0  0  0  0  0  0  0  0  0  0  0
  126.5990  126.2960   61.0440 C   0  0  0  0  0  0  0  0  0  0  0  0
  127.7850  125.6510   60.7080 C   0  0  0  0  0  0  0  0  0  0  0  0
  128.9960  126.0710   61.2500 C   0  0  0  0  0  0  0  0  0  0  0  0
  129.0220  127.1440   62.1350 C   0  0  0  0  0  0  0  0  0  0  0  0
  128.5380  130.1720   62.7270 C   0  0  0  0  0  0  0  0  0  0  0  0
  128.7200  130.1090   61.3360 C   0  0  0  0  0  0  0  0  0  0  0  0
  129.3430  131.1480   60.6520 C   0  0  0  0  0  0  0  0  0  0  0  0
  129.7990  132.2600   61.3530 C   0  0  0  0  0  0  0  0  0  0  0  0
  129.6410  132.3380   62.7340 C   0  0  0  0  0  0  0  0  0  0  0  0
  129.0180  131.2970   63.4170 C   0  0  0  0  0  0  0  0  0  0  0  0
  125.4880  129.9750   63.2770 C   0  0  0  0  0  0  0  0  0  0  0  0
  124.2090  130.2330   63.7610 C   0  0  0  0  0  0  0  0  0  0  0  0
  1  2  1  0
  2  3  1  0
  3  4  2  0
  4  5  1  0
  5  6  2  0
  6  7  1  0
  7  8  1  0
  8  9  1  0
 10  9  1  6
 10 11  1  0
 11 12  1  0
 12 13  1  1
 13 14  1  0
 14 15  2  0
 15 16  1  0
 16 17  2  0
 17 18  1  0
 18 19  1  0
 19 20  2  0
 19 21  1  0
 21 22  2  0
 22 23  1  0
 23 24  2  0
 24 25  1  0
 25 26  2  0
 17 27  1  0
 27 28  2  0
 28 29  1  0
 29 30  2  0
 12 31  1  0
 31 32  1  0
 32 33  1  1
  7 34  1  0
 34 35  2  0
 35 36  1  0
 36 37  2  0
 37 38  1  0
 38 39  2  0
  7 40  1  0
 40 41  2  0
 41 42  1  0
 42 43  2  0
 43 44  1  0
 44 45  2  0
  6 46  1  0
 46 47  2  0
 47  3  1  0
 32 10  1  0
 39 34  1  0
 45 40  1  0
 30 13  1  0
 30 16  1  0
 26 21  1  0
M  END
>  <Binding energies>  (54) 
[-9.65]

>  <Ligand effiencies>  (54) 
[-0.19693877551020408]

>  <Interactions>  (54) 
["H-A:TYR:484:OH:4343, V-A:PRO:540:CA:4878, V-A:GLU:543:CD:4903, V-A:GLU:543:CG:4902, V-A:GLY:544:C:4907, V-B:GLU:543:CG:9875, V-A:HIS:456:CE1:4064, V-A:GLY:544:CA:4909, V-B:HIS:456:CE1:9037, V-B:GLU:543:CD:9876, V-B:GLU:543:CB:9874, V-B:ARG:545:CZ:9894, V-B:ARG:545:CD:9891, V-A:ALA:541:CB:4887, V-A:ALA:541:CA:4885, V-B:ARG:545:CG:9890, H-B:GLY:454:N:9017, V-B:GLU:543:C:9870, V-B:GLU:543:CA:9872, V-B:HIS:456:CD2:9035, H-A:LYS:547:NZ:4946, H-A:HIS:456:NE2:4065, V-B:LYS:547:CE:9918, H-B:HIS:456:NE2:9038, V-B:ASP:473:CG:9207, V-B:HIS:456:CG:9033, V-B:HIS:456:CB:9032, H-B:ARG:545:NE:9892, V-A:LYS:547:CE:4945, H-B:ARG:545:NH1:9895, V-B:GLY:453:CA:9011, V-B:LYS:547:CD:9917, V-B:GLY:453:C:9009, H-B:GLY:544:O:9881, V-B:VAL:458:CG2:9054, V-B:HIS:456:C:9028, V-B:LYS:547:CG:9916, V-B:ARG:545:CB:9889, V-B:ILE:455:C:9019, V-B:VAL:457:C:9040, V-B:HIS:456:CA:9030, V-B:VAL:457:CA:9042"]

$$$$
RR8_A_Rahimova_2017
     RDKit          3D

 42 46  0  0  0  0  0  0  0  0999 V2000
  129.4090  125.8020   67.8030 O   0  0  0  0  0  0  0  0  0  0  0  0
  129.3780  127.0130   68.0430 C   0  0  0  0  0  0  0  0  0  0  0  0
  129.3940  127.9930   67.0870 O   0  0  0  0  0  0  0  0  0  0  0  0
  128.3700  127.9810   66.1310 C   0  0  1  0  0  0  0  0  0  0  0  0
  127.3640  128.9010   66.4420 O   0  0  0  0  0  0  0  0  0  0  0  0
  126.8540  129.5440   65.2770 C   0  0  2  0  0  0  0  0  0  0  0  0
  125.3310  129.3320   65.2270 C   0  0  0  0  0  0  0  0  0  0  0  0
  124.8870  129.5090   63.8890 O   0  0  0  0  0  0  0  0  0  0  0  0
  123.7970  130.4120   63.7560 C   0  0  0  0  0  0  0  0  0  0  0  0
  124.0110  131.3030   62.5420 C   0  0  0  0  0  0  0  0  0  0  0  0
  124.1370  132.6850   62.7050 C   0  0  0  0  0  0  0  0  0  0  0  0
  124.3390  133.5030   61.5960 C   0  0  0  0  0  0  0  0  0  0  0  0
  124.4190  132.9360   60.3260 C   0  0  0  0  0  0  0  0  0  0  0  0
  124.3000  131.5580   60.1540 C   0  0  0  0  0  0  0  0  0  0  0  0
  124.0990  130.7410   61.2630 C   0  0  0  0  0  0  0  0  0  0  0  0
  127.6470  128.9030   64.1300 C   0  0  1  0  0  0  0  0  0  0  0  0
  128.0000  129.8290   63.1060 O   0  0  0  0  0  0  0  0  0  0  0  0
  128.7780  130.9450   63.5240 C   0  0  0  0  0  0  0  0  0  0  0  0
  128.4280  132.1660   62.6850 C   0  0  0  0  0  0  0  0  0  0  0  0
  127.8100  133.2670   63.2870 C   0  0  0  0  0  0  0  0  0  0  0  0
  127.4790  134.3830   62.5250 C   0  0  0  0  0  0  0  0  0  0  0  0
  127.7620  134.3960   61.1600 C   0  0  0  0  0  0  0  0  0  0  0  0
  128.3710  133.3020   60.5510 C   0  0  0  0  0  0  0  0  0  0  0  0
  128.7020  132.1840   61.3130 C   0  0  0  0  0  0  0  0  0  0  0  0
  128.9350  128.4600   64.8010 C   0  0  2  0  0  0  0  0  0  0  0  0
  129.5670  127.4310   64.0440 O   0  0  0  0  0  0  0  0  0  0  0  0
  129.7420  126.1890   64.7170 C   0  0  0  0  0  0  0  0  0  0  0  0
  131.2180  125.8200   64.7470 C   0  0  0  0  0  0  0  0  0  0  0  0
  131.9300  125.8630   65.9500 C   0  0  0  0  0  0  0  0  0  0  0  0
  133.2780  125.5150   65.9740 C   0  0  0  0  0  0  0  0  0  0  0  0
  133.9100  125.1200   64.7970 C   0  0  0  0  0  0  0  0  0  0  0  0
  133.2070  125.0690   63.5960 C   0  0  0  0  0  0  0  0  0  0  0  0
  131.8580  125.4170   63.5710 C   0  0  0  0  0  0  0  0  0  0  0  0
  129.3080  127.5670   69.4370 C   0  0  0  0  0  0  0  0  0  0  0  0
  128.1980  127.3450   70.2680 C   0  0  0  0  0  0  0  0  0  0  0  0
  128.1620  127.8730   71.5560 C   0  0  0  0  0  0  0  0  0  0  0  0
  129.2300  128.6360   72.0450 C   0  0  0  0  0  0  0  0  0  0  0  0
  129.1910  129.1970   73.4180 N   0  0  0  0  0  0  0  0  0  0  0  0
  128.6210  128.5590   74.2980 O   0  0  0  0  0  0  0  0  0  0  0  0
  129.7300  130.2800   73.6260 O   0  0  0  0  0  0  0  0  0  0  0  0
  130.3350  128.8590   71.2140 C   0  0  0  0  0  0  0  0  0  0  0  0
  130.3740  128.3320   69.9270 C   0  0  0  0  0  0  0  0  0  0  0  0
  1  2  2  0
  2  3  1  0
  4  3  1  1
  4  5  1  0
  5  6  1  0
  6  7  1  6
  7  8  1  0
  8  9  1  0
  9 10  1  0
 10 11  2  0
 11 12  1  0
 12 13  2  0
 13 14  1  0
 14 15  2  0
  6 16  1  0
 16 17  1  6
 17 18  1  0
 18 19  1  0
 19 20  2  0
 20 21  1  0
 21 22  2  0
 22 23  1  0
 23 24  2  0
 16 25  1  0
 25 26  1  6
 26 27  1  0
 27 28  1  0
 28 29  2  0
 29 30  1  0
 30 31  2  0
 31 32  1  0
 32 33  2  0
  2 34  1  0
 34 35  2  0
 35 36  1  0
 36 37  2  0
 37 38  1  0
 38 39  2  0
 38 40  1  0
 37 41  1  0
 41 42  2  0
 25  4  1  0
 33 28  1  0
 42 34  1  0
 15 10  1  0
 24 19  1  0
M  CHG  2  38   1  40  -1
M  END
>  <Binding energies>  (55) 
[-9.13]

>  <Ligand effiencies>  (55) 
[-0.2173809523809524]

>  <Interactions>  (55) 
["V-A:ARG:545:CD:4918, V-A:ARG:545:CZ:4921, V-A:ARG:545:CG:4917, V-A:PRO:540:CA:4878, V-A:GLU:543:CD:4903, V-A:GLU:543:CG:4902, V-A:GLY:544:C:4907, V-B:GLU:543:CG:9875, V-A:HIS:456:CE1:4064, V-B:HIS:456:CE1:9037, V-B:GLU:543:CD:9876, V-B:ARG:545:CZ:9894, V-A:ALA:541:CB:4887, V-A:TYR:539:CE2:4871, V-A:HIS:456:CD2:4063, V-A:GLY:453:CA:4039, H-B:LYS:547:NZ:9919, V-B:HIS:456:CD2:9035, H-A:LYS:547:NZ:4946, H-B:ARG:545:NH2:9896, V-A:LYS:547:CE:4945, V-B:ASP:366:CG:8180, V-B:ILE:369:CD1:8206, V-B:ILE:369:CG2:8204, V-B:LEU:475:CD2:9226, V-A:TYR:539:CD2:4869, V-B:GLY:454:CA:9016, V-B:LEU:475:CD1:9225"]

$$$$
RR8_B_Rahimova_2017
     RDKit          3D

 42 46  0  0  0  0  0  0  0  0999 V2000
  129.5080  127.9820   64.1170 O   0  0  0  0  0  0  0  0  0  0  0  0
  128.5830  127.6880   64.8800 C   0  0  0  0  0  0  0  0  0  0  0  0
  128.6650  126.7460   65.8670 O   0  0  0  0  0  0  0  0  0  0  0  0
  129.9190  126.5120   66.4590 C   0  0  2  0  0  0  0  0  0  0  0  0
  130.6710  125.5780   65.7380 O   0  0  0  0  0  0  0  0  0  0  0  0
  130.4540  124.2510   66.2160 C   0  0  2  0  0  0  0  0  0  0  0  0
  129.9320  123.3700   65.0680 C   0  0  0  0  0  0  0  0  0  0  0  0
  131.0370  122.8040   64.3730 O   0  0  0  0  0  0  0  0  0  0  0  0
  131.2000  123.2590   63.0380 C   0  0  0  0  0  0  0  0  0  0  0  0
  131.2520  122.0600   62.1030 C   0  0  0  0  0  0  0  0  0  0  0  0
  132.4420  121.7500   61.4380 C   0  0  0  0  0  0  0  0  0  0  0  0
  132.4900  120.6680   60.5620 C   0  0  0  0  0  0  0  0  0  0  0  0
  131.3460  119.8980   60.3560 C   0  0  0  0  0  0  0  0  0  0  0  0
  130.1590  120.1980   61.0200 C   0  0  0  0  0  0  0  0  0  0  0  0
  130.1100  121.2810   61.8940 C   0  0  0  0  0  0  0  0  0  0  0  0
  129.4960  124.4270   67.4000 C   0  0  1  0  0  0  0  0  0  0  0  0
  129.8040  123.4740   68.4210 O   0  0  0  0  0  0  0  0  0  0  0  0
  130.1140  123.9880   69.7180 C   0  0  0  0  0  0  0  0  0  0  0  0
  130.0780  122.9050   70.7930 C   0  0  0  0  0  0  0  0  0  0  0  0
  131.1060  122.8200   71.7360 C   0  0  0  0  0  0  0  0  0  0  0  0
  131.0540  121.8510   72.7350 C   0  0  0  0  0  0  0  0  0  0  0  0
  129.9770  120.9680   72.7840 C   0  0  0  0  0  0  0  0  0  0  0  0
  128.9510  121.0440   71.8440 C   0  0  0  0  0  0  0  0  0  0  0  0
  129.0020  122.0160   70.8470 C   0  0  0  0  0  0  0  0  0  0  0  0
  129.7230  125.8710   67.8330 C   0  0  2  0  0  0  0  0  0  0  0  0
  128.5880  126.3630   68.5400 O   0  0  0  0  0  0  0  0  0  0  0  0
  128.6570  127.7220   68.9440 C   0  0  0  0  0  0  0  0  0  0  0  0
  129.3090  127.7780   70.3140 C   0  0  0  0  0  0  0  0  0  0  0  0
  130.0860  128.8800   70.6820 C   0  0  0  0  0  0  0  0  0  0  0  0
  130.6950  128.9120   71.9340 C   0  0  0  0  0  0  0  0  0  0  0  0
  130.5270  127.8440   72.8120 C   0  0  0  0  0  0  0  0  0  0  0  0
  129.7520  126.7420   72.4520 C   0  0  0  0  0  0  0  0  0  0  0  0
  129.1430  126.7100   71.2010 C   0  0  0  0  0  0  0  0  0  0  0  0
  127.2190  128.3110   64.7950 C   0  0  0  0  0  0  0  0  0  0  0  0
  126.6980  128.7880   63.5830 C   0  0  0  0  0  0  0  0  0  0  0  0
  125.4350  129.3680   63.5350 C   0  0  0  0  0  0  0  0  0  0  0  0
  124.6650  129.4960   64.6980 C   0  0  0  0  0  0  0  0  0  0  0  0
  123.3290  130.1400   64.6490 N   0  0  0  0  0  0  0  0  0  0  0  0
  123.0040  130.7450   63.6320 O   0  0  0  0  0  0  0  0  0  0  0  0
  122.5930  130.0400   65.6280 O   0  0  0  0  0  0  0  0  0  0  0  0
  125.1830  129.0150   65.9070 C   0  0  0  0  0  0  0  0  0  0  0  0
  126.4430  128.4280   65.9540 C   0  0  0  0  0  0  0  0  0  0  0  0
  1  2  2  0
  2  3  1  0
  4  3  1  6
  4  5  1  0
  5  6  1  0
  6  7  1  6
  7  8  1  0
  8  9  1  0
  9 10  1  0
 10 11  2  0
 11 12  1  0
 12 13  2  0
 13 14  1  0
 14 15  2  0
  6 16  1  0
 16 17  1  1
 17 18  1  0
 18 19  1  0
 19 20  2  0
 20 21  1  0
 21 22  2  0
 22 23  1  0
 23 24  2  0
 16 25  1  0
 25 26  1  6
 26 27  1  0
 27 28  1  0
 28 29  2  0
 29 30  1  0
 30 31  2  0
 31 32  1  0
 32 33  2  0
  2 34  1  0
 34 35  2  0
 35 36  1  0
 36 37  2  0
 37 38  1  0
 38 39  2  0
 38 40  1  0
 37 41  1  0
 41 42  2  0
 25  4  1  0
 33 28  1  0
 42 34  1  0
 15 10  1  0
 24 19  1  0
M  CHG  2  38   1  40  -1
M  END
>  <Binding energies>  (56) 
[-9.46]

>  <Ligand effiencies>  (56) 
[-0.22523809523809527]

>  <Interactions>  (56) 
["H-A:TYR:484:OH:4343, V-A:GLY:544:C:4907, V-B:GLU:543:CG:9875, V-A:HIS:456:CE1:4064, V-A:GLY:544:CA:4909, V-B:HIS:456:CE1:9037, V-B:GLU:543:CD:9876, V-A:GLU:543:C:4897, V-B:GLU:543:CB:9874, V-A:LEU:475:CD2:4254, V-B:TYR:539:CD2:9842, V-A:TRP:381:CZ2:3365, V-A:TYR:484:CE1:4340, V-A:TYR:484:CZ:4342, V-A:TRP:381:CH2:3367, V-B:TYR:539:CE2:9844, V-B:ALA:541:CB:9860, V-B:ARG:545:CZ:9894, V-B:ARG:545:CD:9891, V-B:ARG:545:CG:9890, H-B:GLY:454:N:9017, V-A:HIS:456:CD2:4063, V-B:GLU:543:C:9870, V-B:GLU:543:CA:9872, V-A:TYR:484:CD1:4338, V-A:TYR:484:CD2:4339, V-A:HIS:456:CG:4061, V-A:TYR:484:CB:4336, H-A:HIS:456:NE2:4065, V-A:TYR:484:CG:4337, H-B:ARG:545:NE:9892, V-A:LYS:547:CE:4945, H-B:ARG:545:NH1:9895, V-B:GLY:453:CA:9011, V-A:ASP:473:CB:4234, V-B:GLY:453:C:9009"]

$$$$
RR9_Rahimova_2017
     RDKit          3D

 36 40  0  0  0  0  0  0  0  0999 V2000
  126.4840  129.6750   74.4870 C   0  0  0  0  0  0  0  0  0  0  0  0
  127.9360  130.0430   74.1690 C   0  0  0  0  0  0  0  0  0  0  0  0
  128.6250  128.8690   73.7490 O   0  0  0  0  0  0  0  0  0  0  0  0
  128.8280  128.6470   72.4010 C   0  0  0  0  0  0  0  0  0  0  0  0
  127.7860  128.0350   71.7060 C   0  0  0  0  0  0  0  0  0  0  0  0
  127.9020  127.7700   70.3450 C   0  0  0  0  0  0  0  0  0  0  0  0
  129.0650  128.1100   69.6390 C   0  0  0  0  0  0  0  0  0  0  0  0
  129.1970  127.8220   68.1730 C   0  0  0  0  0  0  0  0  0  0  0  0
  129.8720  126.6840   67.7040 C   0  0  0  0  0  0  0  0  0  0  0  0
  129.9810  126.4120   66.3280 C   0  0  0  0  0  0  0  0  0  0  0  0
  130.6280  125.1260   65.8930 C   0  0  0  0  0  0  0  0  0  0  0  0
  131.7310  124.8030   66.3340 O   0  0  0  0  0  0  0  0  0  0  0  0
  129.9360  124.3970   64.9950 N   0  0  0  0  0  0  0  0  0  0  0  0
  130.4110  123.1820   64.3250 C   0  0  0  0  0  0  0  0  0  0  0  0
  129.6420  122.8690   63.0200 C   0  0  0  0  0  0  0  0  0  0  0  0
  130.3940  121.9830   62.0340 C   0  0  0  0  0  0  0  0  0  0  0  0
  131.7820  122.0950   61.9070 C   0  0  0  0  0  0  0  0  0  0  0  0
  132.4700  121.2610   61.0310 C   0  0  0  0  0  0  0  0  0  0  0  0
  131.7690  120.3200   60.2800 C   0  0  0  0  0  0  0  0  0  0  0  0
  130.3850  120.2050   60.3980 C   0  0  0  0  0  0  0  0  0  0  0  0
  129.6960  121.0390   61.2760 C   0  0  0  0  0  0  0  0  0  0  0  0
  129.4040  127.3650   65.4520 C   0  0  0  0  0  0  0  0  0  0  0  0
  129.2650  127.5920   64.0330 C   0  0  0  0  0  0  0  0  0  0  0  0
  129.8290  126.8170   62.8890 C   0  0  0  0  0  0  0  0  0  0  0  0
  129.0070  126.4380   61.8230 C   0  0  0  0  0  0  0  0  0  0  0  0
  129.5310  125.7010   60.7630 C   0  0  0  0  0  0  0  0  0  0  0  0
  130.8800  125.3430   60.7650 C   0  0  0  0  0  0  0  0  0  0  0  0
  131.4480  124.5240   59.6200 C   0  0  0  0  0  0  0  0  0  0  0  0
  131.7040  125.7170   61.8280 C   0  0  0  0  0  0  0  0  0  0  0  0
  131.1790  126.4560   62.8850 C   0  0  0  0  0  0  0  0  0  0  0  0
  128.5440  128.6670   63.8070 N   0  0  0  0  0  0  0  0  0  0  0  0
  128.2340  129.2140   64.9930 N   0  0  0  0  0  0  0  0  0  0  0  0
  128.7410  128.4720   66.0340 C   0  0  0  0  0  0  0  0  0  0  0  0
  128.6240  128.7320   67.3350 N   0  0  0  0  0  0  0  0  0  0  0  0
  130.1090  128.7230   70.3450 C   0  0  0  0  0  0  0  0  0  0  0  0
  129.9960  128.9910   71.7070 C   0  0  0  0  0  0  0  0  0  0  0  0
  1  2  1  0
  2  3  1  0
  3  4  1  0
  4  5  2  0
  5  6  1  0
  6  7  2  0
  7  8  1  0
  8  9  2  0
  9 10  1  0
 10 11  1  0
 11 12  2  0
 11 13  1  0
 13 14  1  0
 14 15  1  0
 15 16  1  0
 16 17  2  0
 17 18  1  0
 18 19  2  0
 19 20  1  0
 20 21  2  0
 10 22  2  0
 22 23  1  0
 23 24  1  0
 24 25  2  0
 25 26  1  0
 26 27  2  0
 27 28  1  0
 27 29  1  0
 29 30  2  0
 23 31  2  0
 31 32  1  0
 32 33  1  0
 33 34  2  0
  7 35  1  0
 35 36  2  0
 36  4  1  0
 34  8  1  0
 21 16  1  0
 33 22  1  0
 30 24  1  0
M  END
>  <Binding energies>  (57) 
[-8.75]

>  <Ligand effiencies>  (57) 
[-0.23026315789473684]

>  <Interactions>  (57) 
["H-A:TYR:484:OH:4343, V-A:ASP:366:CG:3208, V-A:GLU:543:CD:4903, V-A:GLU:543:CG:4902, V-B:GLU:543:CG:9875, V-A:HIS:456:CE1:4064, V-B:HIS:456:CE1:9037, V-B:GLU:543:CD:9876, V-A:GLU:543:C:4897, H-B:GLU:543:OE2:9878, V-A:LEU:475:CD2:4254, V-B:TYR:539:CD2:9842, V-A:TYR:484:CE1:4340, V-A:TYR:484:CZ:4342, V-A:TRP:381:CH2:3367, V-B:TYR:539:CE2:9844, V-B:ALA:541:CB:9860, H-B:TYR:484:OH:9315, H-B:LYS:547:NZ:9919, V-B:HIS:456:CD2:9035, H-A:LYS:547:NZ:4946, H-A:HIS:456:NE2:4065, V-B:HIS:456:CG:9033, V-B:HIS:456:CB:9032"]

$$$$
